# CIF file generated by openbabel 3.1.0, see https://openbabel.org
data_I
_chemical_name_common 'image0'
_cell_length_a 20.57
_cell_length_b 35.815
_cell_length_c 10.106
_cell_angle_alpha 90
_cell_angle_beta 114.694
_cell_angle_gamma 90
_space_group_name_H-M_alt 'P 1'
_space_group_name_Hall 'P 1'
loop_
    _symmetry_equiv_pos_as_xyz
    x,y,z
loop_
    _atom_site_label
    _atom_site_type_symbol
    _atom_site_fract_x
    _atom_site_fract_y
    _atom_site_fract_z
    _atom_site_occupancy
    Nd1      Nd       0.75752    0.19259    0.50891    1.000
    Nd2      Nd       0.63752    0.03095    0.47923    1.000
    S1       S        0.75292    0.97379    0.37190    1.000
    S2       S        0.55838    0.03571    0.13810    1.000
    S3       S        0.70632    0.11088    0.51640    1.000
    S4       S        0.90493    0.15756    0.53790    1.000
    S5       S        0.86778    0.26784    0.44287    1.000
    S6       S        0.84407    0.25263    0.82236    1.000
    O1       O        0.77500    0.93680    0.40500    1.000
    O2       O        0.71410    0.97990    0.22220    1.000
    O3       O        0.82070    0.99550    0.42090    1.000
    O4       O        0.71590    0.98730    0.45460    1.000
    O5       O        0.58670    0.02752    0.03040    1.000
    O6       O        0.56530    0.00294    0.22910    1.000
    O7       O        0.48430    0.04825    0.06070    1.000
    O8       O        0.59990    0.06512    0.23910    1.000
    O9       O        0.73870    0.07541    0.50170    1.000
    O10      O        0.64090    0.10047    0.53230    1.000
    O11      O        0.69040    0.13518    0.38980    1.000
    O12      O        0.75680    0.13249    0.64300    1.000
    O13      O        0.91870    0.11812    0.56580    1.000
    O14      O        0.96630    0.17704    0.53340    1.000
    O15      O        0.83840    0.16375    0.40780    1.000
    O16      O        0.89340    0.17602    0.65980    1.000
    O17      O        0.81650    0.24802    0.48840    1.000
    O18      O        0.86060    0.25577    0.30250    1.000
    O19      O        0.84990    0.30760    0.44400    1.000
    O20      O        0.94040    0.26143    0.55370    1.000
    O21      O        0.79960    0.21945    0.75240    1.000
    O22      O        0.91650    0.24664    0.83160    1.000
    O23      O        0.81300    0.28661    0.73680    1.000
    O24      O        0.84730    0.25660    0.96770    1.000
    Nd3      Nd       0.25752    0.69259    0.50891    1.000
    Nd4      Nd       0.13752    0.53095    0.47923    1.000
    S7       S        0.25292    0.47379    0.37190    1.000
    S8       S        0.05838    0.53571    0.13810    1.000
    S9       S        0.20632    0.61088    0.51640    1.000
    S10      S        0.40493    0.65756    0.53790    1.000
    S11      S        0.36778    0.76784    0.44287    1.000
    S12      S        0.34407    0.75263    0.82236    1.000
    O25      O        0.27500    0.43680    0.40500    1.000
    O26      O        0.21410    0.47990    0.22220    1.000
    O27      O        0.32070    0.49550    0.42090    1.000
    O28      O        0.21590    0.48730    0.45460    1.000
    O29      O        0.08670    0.52752    0.03040    1.000
    O30      O        0.06530    0.50294    0.22910    1.000
    O31      O        0.98430    0.54825    0.06070    1.000
    O32      O        0.09990    0.56512    0.23910    1.000
    O33      O        0.23870    0.57541    0.50170    1.000
    O34      O        0.14090    0.60047    0.53230    1.000
    O35      O        0.19040    0.63518    0.38980    1.000
    O36      O        0.25680    0.63249    0.64300    1.000
    O37      O        0.41870    0.61812    0.56580    1.000
    O38      O        0.46630    0.67704    0.53340    1.000
    O39      O        0.33840    0.66375    0.40780    1.000
    O40      O        0.39340    0.67602    0.65980    1.000
    O41      O        0.31650    0.74802    0.48840    1.000
    O42      O        0.36060    0.75577    0.30250    1.000
    O43      O        0.34990    0.80760    0.44400    1.000
    O44      O        0.44040    0.76143    0.55370    1.000
    O45      O        0.29960    0.71945    0.75240    1.000
    O46      O        0.41650    0.74664    0.83160    1.000
    O47      O        0.31300    0.78661    0.73680    1.000
    O48      O        0.34730    0.75660    0.96770    1.000
    Nd5      Nd       0.24248    0.19259    0.99109    1.000
    Nd6      Nd       0.36248    0.03095    0.02077    1.000
    S13      S        0.24708    0.97379    0.12810    1.000
    S14      S        0.44162    0.03571    0.36190    1.000
    S15      S        0.29368    0.11088    0.98360    1.000
    S16      S        0.09507    0.15756    0.96210    1.000
    S17      S        0.13222    0.26784    0.05713    1.000
    S18      S        0.15593    0.25263    0.67764    1.000
    O49      O        0.22500    0.93680    0.09500    1.000
    O50      O        0.28590    0.97990    0.27780    1.000
    O51      O        0.17930    0.99550    0.07910    1.000
    O52      O        0.28410    0.98730    0.04540    1.000
    O53      O        0.41330    0.02752    0.46960    1.000
    O54      O        0.43470    0.00294    0.27090    1.000
    O55      O        0.51570    0.04825    0.43930    1.000
    O56      O        0.40010    0.06512    0.26090    1.000
    O57      O        0.26130    0.07541    0.99830    1.000
    O58      O        0.35910    0.10047    0.96770    1.000
    O59      O        0.30960    0.13518    0.11020    1.000
    O60      O        0.24320    0.13249    0.85700    1.000
    O61      O        0.08130    0.11812    0.93420    1.000
    O62      O        0.03370    0.17704    0.96660    1.000
    O63      O        0.16160    0.16375    0.09220    1.000
    O64      O        0.10660    0.17602    0.84020    1.000
    O65      O        0.18350    0.24802    0.01160    1.000
    O66      O        0.13940    0.25577    0.19750    1.000
    O67      O        0.15010    0.30760    0.05600    1.000
    O68      O        0.05960    0.26143    0.94630    1.000
    O69      O        0.20040    0.21945    0.74760    1.000
    O70      O        0.08350    0.24664    0.66840    1.000
    O71      O        0.18700    0.28661    0.76320    1.000
    O72      O        0.15270    0.25660    0.53230    1.000
    Nd7      Nd       0.74248    0.69259    0.99109    1.000
    Nd8      Nd       0.86248    0.53095    0.02077    1.000
    S19      S        0.74708    0.47379    0.12810    1.000
    S20      S        0.94162    0.53571    0.36190    1.000
    S21      S        0.79368    0.61088    0.98360    1.000
    S22      S        0.59507    0.65756    0.96210    1.000
    S23      S        0.63222    0.76784    0.05713    1.000
    S24      S        0.65593    0.75263    0.67764    1.000
    O73      O        0.72500    0.43680    0.09500    1.000
    O74      O        0.78590    0.47990    0.27780    1.000
    O75      O        0.67930    0.49550    0.07910    1.000
    O76      O        0.78410    0.48730    0.04540    1.000
    O77      O        0.91330    0.52752    0.46960    1.000
    O78      O        0.93470    0.50294    0.27090    1.000
    O79      O        0.01570    0.54825    0.43930    1.000
    O80      O        0.90010    0.56512    0.26090    1.000
    O81      O        0.76130    0.57541    0.99830    1.000
    O82      O        0.85910    0.60047    0.96770    1.000
    O83      O        0.80960    0.63518    0.11020    1.000
    O84      O        0.74320    0.63249    0.85700    1.000
    O85      O        0.58130    0.61812    0.93420    1.000
    O86      O        0.53370    0.67704    0.96660    1.000
    O87      O        0.66160    0.66375    0.09220    1.000
    O88      O        0.60660    0.67602    0.84020    1.000
    O89      O        0.68350    0.74802    0.01160    1.000
    O90      O        0.63940    0.75577    0.19750    1.000
    O91      O        0.65010    0.80760    0.05600    1.000
    O92      O        0.55960    0.76143    0.94630    1.000
    O93      O        0.70040    0.71945    0.74760    1.000
    O94      O        0.58350    0.74664    0.66840    1.000
    O95      O        0.68700    0.78661    0.76320    1.000
    O96      O        0.65270    0.75660    0.53230    1.000
    Nd9      Nd       0.24248    0.80741    0.49109    1.000
    Nd10     Nd       0.36248    0.96905    0.52077    1.000
    S25      S        0.24708    0.02621    0.62810    1.000
    S26      S        0.44162    0.96429    0.86190    1.000
    S27      S        0.29368    0.88912    0.48360    1.000
    S28      S        0.09507    0.84244    0.46210    1.000
    S29      S        0.13222    0.73216    0.55713    1.000
    S30      S        0.15593    0.74737    0.17764    1.000
    O97      O        0.22500    0.06320    0.59500    1.000
    O98      O        0.28590    0.02010    0.77780    1.000
    O99      O        0.17930    0.00450    0.57910    1.000
    O100     O        0.28410    0.01270    0.54540    1.000
    O101     O        0.41330    0.97248    0.96960    1.000
    O102     O        0.43470    0.99706    0.77090    1.000
    O103     O        0.51570    0.95175    0.93930    1.000
    O104     O        0.40010    0.93488    0.76090    1.000
    O105     O        0.26130    0.92459    0.49830    1.000
    O106     O        0.35910    0.89953    0.46770    1.000
    O107     O        0.30960    0.86482    0.61020    1.000
    O108     O        0.24320    0.86751    0.35700    1.000
    O109     O        0.08130    0.88188    0.43420    1.000
    O110     O        0.03370    0.82296    0.46660    1.000
    O111     O        0.16160    0.83625    0.59220    1.000
    O112     O        0.10660    0.82398    0.34020    1.000
    O113     O        0.18350    0.75198    0.51160    1.000
    O114     O        0.13940    0.74423    0.69750    1.000
    O115     O        0.15010    0.69240    0.55600    1.000
    O116     O        0.05960    0.73857    0.44630    1.000
    O117     O        0.20040    0.78055    0.24760    1.000
    O118     O        0.08350    0.75336    0.16840    1.000
    O119     O        0.18700    0.71339    0.26320    1.000
    O120     O        0.15270    0.74340    0.03230    1.000
    Nd11     Nd       0.74248    0.30741    0.49109    1.000
    Nd12     Nd       0.86248    0.46905    0.52077    1.000
    S31      S        0.74708    0.52621    0.62810    1.000
    S32      S        0.94162    0.46429    0.86190    1.000
    S33      S        0.79368    0.38912    0.48360    1.000
    S34      S        0.59507    0.34244    0.46210    1.000
    S35      S        0.63222    0.23216    0.55713    1.000
    S36      S        0.65593    0.24737    0.17764    1.000
    O121     O        0.72500    0.56320    0.59500    1.000
    O122     O        0.78590    0.52010    0.77780    1.000
    O123     O        0.67930    0.50450    0.57910    1.000
    O124     O        0.78410    0.51270    0.54540    1.000
    O125     O        0.91330    0.47248    0.96960    1.000
    O126     O        0.93470    0.49706    0.77090    1.000
    O127     O        0.01570    0.45175    0.93930    1.000
    O128     O        0.90010    0.43488    0.76090    1.000
    O129     O        0.76130    0.42459    0.49830    1.000
    O130     O        0.85910    0.39953    0.46770    1.000
    O131     O        0.80960    0.36482    0.61020    1.000
    O132     O        0.74320    0.36751    0.35700    1.000
    O133     O        0.58130    0.38188    0.43420    1.000
    O134     O        0.53370    0.32296    0.46660    1.000
    O135     O        0.66160    0.33625    0.59220    1.000
    O136     O        0.60660    0.32398    0.34020    1.000
    O137     O        0.68350    0.25198    0.51160    1.000
    O138     O        0.63940    0.24423    0.69750    1.000
    O139     O        0.65010    0.19240    0.55600    1.000
    O140     O        0.55960    0.23857    0.44630    1.000
    O141     O        0.70040    0.28055    0.24760    1.000
    O142     O        0.58350    0.25336    0.16840    1.000
    O143     O        0.68700    0.21339    0.26320    1.000
    O144     O        0.65270    0.24340    0.03230    1.000
    Nd13     Nd       0.75752    0.80741    0.00891    1.000
    Nd14     Nd       0.63752    0.96905    0.97923    1.000
    S37      S        0.75292    0.02621    0.87190    1.000
    S38      S        0.55838    0.96429    0.63810    1.000
    S39      S        0.70632    0.88912    0.01640    1.000
    S40      S        0.90493    0.84244    0.03790    1.000
    S41      S        0.86778    0.73216    0.94287    1.000
    S42      S        0.84407    0.74737    0.32236    1.000
    O145     O        0.77500    0.06320    0.90500    1.000
    O146     O        0.71410    0.02010    0.72220    1.000
    O147     O        0.82070    0.00450    0.92090    1.000
    O148     O        0.71590    0.01270    0.95460    1.000
    O149     O        0.58670    0.97248    0.53040    1.000
    O150     O        0.56530    0.99706    0.72910    1.000
    O151     O        0.48430    0.95175    0.56070    1.000
    O152     O        0.59990    0.93488    0.73910    1.000
    O153     O        0.73870    0.92459    0.00170    1.000
    O154     O        0.64090    0.89953    0.03230    1.000
    O155     O        0.69040    0.86482    0.88980    1.000
    O156     O        0.75680    0.86751    0.14300    1.000
    O157     O        0.91870    0.88188    0.06580    1.000
    O158     O        0.96630    0.82296    0.03340    1.000
    O159     O        0.83840    0.83625    0.90780    1.000
    O160     O        0.89340    0.82398    0.15980    1.000
    O161     O        0.81650    0.75198    0.98840    1.000
    O162     O        0.86060    0.74423    0.80250    1.000
    O163     O        0.84990    0.69240    0.94400    1.000
    O164     O        0.94040    0.73857    0.05370    1.000
    O165     O        0.79960    0.78055    0.25240    1.000
    O166     O        0.91650    0.75336    0.33160    1.000
    O167     O        0.81300    0.71339    0.23680    1.000
    O168     O        0.84730    0.74340    0.46770    1.000
    Nd15     Nd       0.25752    0.30741    0.00891    1.000
    Nd16     Nd       0.13752    0.46905    0.97923    1.000
    S43      S        0.25292    0.52621    0.87190    1.000
    S44      S        0.05838    0.46429    0.63810    1.000
    S45      S        0.20632    0.38912    0.01640    1.000
    S46      S        0.40493    0.34244    0.03790    1.000
    S47      S        0.36778    0.23216    0.94287    1.000
    S48      S        0.34407    0.24737    0.32236    1.000
    O169     O        0.27500    0.56320    0.90500    1.000
    O170     O        0.21410    0.52010    0.72220    1.000
    O171     O        0.32070    0.50450    0.92090    1.000
    O172     O        0.21590    0.51270    0.95460    1.000
    O173     O        0.08670    0.47248    0.53040    1.000
    O174     O        0.06530    0.49706    0.72910    1.000
    O175     O        0.98430    0.45175    0.56070    1.000
    O176     O        0.09990    0.43488    0.73910    1.000
    O177     O        0.23870    0.42459    0.00170    1.000
    O178     O        0.14090    0.39953    0.03230    1.000
    O179     O        0.19040    0.36482    0.88980    1.000
    O180     O        0.25680    0.36751    0.14300    1.000
    O181     O        0.41870    0.38188    0.06580    1.000
    O182     O        0.46630    0.32296    0.03340    1.000
    O183     O        0.33840    0.33625    0.90780    1.000
    O184     O        0.39340    0.32398    0.15980    1.000
    O185     O        0.31650    0.25198    0.98840    1.000
    O186     O        0.36060    0.24423    0.80250    1.000
    O187     O        0.34990    0.19240    0.94400    1.000
    O188     O        0.44040    0.23857    0.05370    1.000
    O189     O        0.29960    0.28055    0.25240    1.000
    O190     O        0.41650    0.25336    0.33160    1.000
    O191     O        0.31300    0.21339    0.23680    1.000
    O192     O        0.34730    0.24340    0.46770    1.000
    Nd17     Nd       0.00000    0.22002    0.75000    1.000
    Nd18     Nd       0.50000    0.72002    0.75000    1.000
    Nd19     Nd       0.00000    0.77998    0.25000    1.000
    Nd20     Nd       0.50000    0.27998    0.25000    1.000
