# CIF file generated by openbabel 3.1.0, see https://openbabel.org
data_I
_chemical_name_common 'image0'
_cell_length_a 18.7793
_cell_length_b 18.7793
_cell_length_c 32.796
_cell_angle_alpha 90
_cell_angle_beta 90
_cell_angle_gamma 120
_space_group_name_H-M_alt 'P 1'
_space_group_name_Hall 'P 1'
loop_
    _symmetry_equiv_pos_as_xyz
    x,y,z
loop_
    _atom_site_label
    _atom_site_type_symbol
    _atom_site_fract_x
    _atom_site_fract_y
    _atom_site_fract_z
    _atom_site_occupancy
    O1       O        0.37210    0.48280    0.00469    1.000
    O2       O        0.41050    0.44260    0.94859    1.000
    C1       C        0.28010    0.43220    0.94961    1.000
    C2       C        0.26340    0.39770    0.90997    1.000
    H1       H        0.30060    0.38620    0.89710    1.000
    C3       C        0.36020    0.45350    0.96908    1.000
    O3       O        0.03877    0.81613    0.33802    1.000
    O4       O        0.07717    0.77593    0.28192    1.000
    C4       C        0.94677    0.76553    0.28294    1.000
    C5       C        0.93007    0.73103    0.24330    1.000
    H2       H        0.96727    0.71953    0.23043    1.000
    C6       C        0.02687    0.78683    0.30241    1.000
    O5       O        0.70543    0.14947    0.67136    1.000
    O6       O        0.74383    0.10927    0.61526    1.000
    C7       C        0.61343    0.09887    0.61628    1.000
    C8       C        0.59673    0.06437    0.57664    1.000
    H3       H        0.63393    0.05287    0.56377    1.000
    C9       C        0.69353    0.12017    0.63575    1.000
    O7       O        0.51720    0.88930    0.00469    1.000
    O8       O        0.55740    0.96790    0.94859    1.000
    C10      C        0.56780    0.84790    0.94961    1.000
    C11      C        0.60230    0.86570    0.90997    1.000
    H4       H        0.61380    0.91440    0.89710    1.000
    C12      C        0.54650    0.90670    0.96908    1.000
    O9       O        0.18387    0.22263    0.33802    1.000
    O10      O        0.22407    0.30123    0.28192    1.000
    C13      C        0.23447    0.18123    0.28294    1.000
    C14      C        0.26897    0.19903    0.24330    1.000
    H5       H        0.28047    0.24773    0.23043    1.000
    C15      C        0.21317    0.24003    0.30241    1.000
    O11      O        0.85053    0.55597    0.67136    1.000
    O12      O        0.89073    0.63457    0.61526    1.000
    C16      C        0.90113    0.51457    0.61628    1.000
    C17      C        0.93563    0.53237    0.57664    1.000
    H6       H        0.94713    0.58107    0.56377    1.000
    C18      C        0.87983    0.57337    0.63575    1.000
    O13      O        0.11070    0.62790    0.00469    1.000
    O14      O        0.03210    0.58950    0.94859    1.000
    C19      C        0.15210    0.71990    0.94961    1.000
    C20      C        0.13430    0.73660    0.90997    1.000
    H7       H        0.08560    0.69940    0.89710    1.000
    C21      C        0.09330    0.63980    0.96908    1.000
    O15      O        0.77737    0.96123    0.33802    1.000
    O16      O        0.69877    0.92283    0.28192    1.000
    C22      C        0.81877    0.05323    0.28294    1.000
    C23      C        0.80097    0.06993    0.24330    1.000
    H8       H        0.75227    0.03273    0.23043    1.000
    C24      C        0.75997    0.97313    0.30241    1.000
    O17      O        0.44403    0.29457    0.67136    1.000
    O18      O        0.36543    0.25617    0.61526    1.000
    C25      C        0.48543    0.38657    0.61628    1.000
    C26      C        0.46763    0.40327    0.57664    1.000
    H9       H        0.41893    0.36607    0.56377    1.000
    C27      C        0.42663    0.30647    0.63575    1.000
    O19      O        0.48280    0.37210    0.99531    1.000
    O20      O        0.44260    0.41050    0.05141    1.000
    C28      C        0.43220    0.28010    0.05039    1.000
    C29      C        0.39770    0.26340    0.09003    1.000
    H10      H        0.38620    0.30060    0.10290    1.000
    C30      C        0.45350    0.36020    0.03092    1.000
    O21      O        0.14947    0.70543    0.32864    1.000
    O22      O        0.10927    0.74383    0.38474    1.000
    C31      C        0.09887    0.61343    0.38372    1.000
    C32      C        0.06437    0.59673    0.42336    1.000
    H11      H        0.05287    0.63393    0.43623    1.000
    C33      C        0.12017    0.69353    0.36425    1.000
    O23      O        0.81613    0.03877    0.66198    1.000
    O24      O        0.77593    0.07717    0.71808    1.000
    C34      C        0.76553    0.94677    0.71706    1.000
    C35      C        0.73103    0.93007    0.75670    1.000
    H12      H        0.71953    0.96727    0.76957    1.000
    C36      C        0.78683    0.02687    0.69759    1.000
    O25      O        0.88930    0.51720    0.99531    1.000
    O26      O        0.96790    0.55740    0.05141    1.000
    C37      C        0.84790    0.56780    0.05039    1.000
    C38      C        0.86570    0.60230    0.09003    1.000
    H13      H        0.91440    0.61380    0.10290    1.000
    C39      C        0.90670    0.54650    0.03092    1.000
    O27      O        0.55597    0.85053    0.32864    1.000
    O28      O        0.63457    0.89073    0.38474    1.000
    C40      C        0.51457    0.90113    0.38372    1.000
    C41      C        0.53237    0.93563    0.42336    1.000
    H14      H        0.58107    0.94713    0.43623    1.000
    C42      C        0.57337    0.87983    0.36425    1.000
    O29      O        0.22263    0.18387    0.66198    1.000
    O30      O        0.30123    0.22407    0.71808    1.000
    C43      C        0.18123    0.23447    0.71706    1.000
    C44      C        0.19903    0.26897    0.75670    1.000
    H15      H        0.24773    0.28047    0.76957    1.000
    C45      C        0.24003    0.21317    0.69759    1.000
    O31      O        0.62790    0.11070    0.99531    1.000
    O32      O        0.58950    0.03210    0.05141    1.000
    C46      C        0.71990    0.15210    0.05039    1.000
    C47      C        0.73660    0.13430    0.09003    1.000
    H16      H        0.69940    0.08560    0.10290    1.000
    C48      C        0.63980    0.09330    0.03092    1.000
    O33      O        0.29457    0.44403    0.32864    1.000
    O34      O        0.25617    0.36543    0.38474    1.000
    C49      C        0.38657    0.48543    0.38372    1.000
    C50      C        0.40327    0.46763    0.42336    1.000
    H17      H        0.36607    0.41893    0.43623    1.000
    C51      C        0.30647    0.42663    0.36425    1.000
    O35      O        0.96123    0.77737    0.66198    1.000
    O36      O        0.92283    0.69877    0.71808    1.000
    C52      C        0.05323    0.81877    0.71706    1.000
    C53      C        0.06993    0.80097    0.75670    1.000
    H18      H        0.03273    0.75227    0.76957    1.000
    C54      C        0.97313    0.75997    0.69759    1.000
    O37      O        0.62790    0.51720    0.99531    1.000
    O38      O        0.58950    0.55740    0.05141    1.000
    C55      C        0.71990    0.56780    0.05039    1.000
    C56      C        0.73660    0.60230    0.09003    1.000
    H19      H        0.69940    0.61380    0.10290    1.000
    C57      C        0.63980    0.54650    0.03092    1.000
    O39      O        0.29457    0.85053    0.32864    1.000
    O40      O        0.25617    0.89073    0.38474    1.000
    C58      C        0.38657    0.90113    0.38372    1.000
    C59      C        0.40327    0.93563    0.42336    1.000
    H20      H        0.36607    0.94713    0.43623    1.000
    C60      C        0.30647    0.87983    0.36425    1.000
    O41      O        0.96123    0.18387    0.66198    1.000
    O42      O        0.92283    0.22407    0.71808    1.000
    C61      C        0.05323    0.23447    0.71706    1.000
    C62      C        0.06993    0.26897    0.75670    1.000
    H21      H        0.03273    0.28047    0.76957    1.000
    C63      C        0.97313    0.21317    0.69759    1.000
    O43      O        0.48280    0.11070    0.99531    1.000
    O44      O        0.44260    0.03210    0.05141    1.000
    C64      C        0.43220    0.15210    0.05039    1.000
    C65      C        0.39770    0.13430    0.09003    1.000
    H22      H        0.38620    0.08560    0.10290    1.000
    C66      C        0.45350    0.09330    0.03092    1.000
    O45      O        0.14947    0.44403    0.32864    1.000
    O46      O        0.10927    0.36543    0.38474    1.000
    C67      C        0.09887    0.48543    0.38372    1.000
    C68      C        0.06437    0.46763    0.42336    1.000
    H23      H        0.05287    0.41893    0.43623    1.000
    C69      C        0.12017    0.42663    0.36425    1.000
    O47      O        0.81613    0.77737    0.66198    1.000
    O48      O        0.77593    0.69877    0.71808    1.000
    C70      C        0.76553    0.81877    0.71706    1.000
    C71      C        0.73103    0.80097    0.75670    1.000
    H24      H        0.71953    0.75227    0.76957    1.000
    C72      C        0.78683    0.75997    0.69759    1.000
    O49      O        0.88930    0.37210    0.99531    1.000
    O50      O        0.96790    0.41050    0.05141    1.000
    C73      C        0.84790    0.28010    0.05039    1.000
    C74      C        0.86570    0.26340    0.09003    1.000
    H25      H        0.91440    0.30060    0.10290    1.000
    C75      C        0.90670    0.36020    0.03092    1.000
    O51      O        0.55597    0.70543    0.32864    1.000
    O52      O        0.63457    0.74383    0.38474    1.000
    C76      C        0.51457    0.61343    0.38372    1.000
    C77      C        0.53237    0.59673    0.42336    1.000
    H26      H        0.58107    0.63393    0.43623    1.000
    C78      C        0.57337    0.69353    0.36425    1.000
    O53      O        0.22263    0.03877    0.66198    1.000
    O54      O        0.30123    0.07717    0.71808    1.000
    C79      C        0.18123    0.94677    0.71706    1.000
    C80      C        0.19903    0.93007    0.75670    1.000
    H27      H        0.24773    0.96727    0.76957    1.000
    C81      C        0.24003    0.02687    0.69759    1.000
    O55      O        0.51720    0.62790    0.00469    1.000
    O56      O        0.55740    0.58950    0.94859    1.000
    C82      C        0.56780    0.71990    0.94961    1.000
    C83      C        0.60230    0.73660    0.90997    1.000
    H28      H        0.61380    0.69940    0.89710    1.000
    C84      C        0.54650    0.63980    0.96908    1.000
    O57      O        0.18387    0.96123    0.33802    1.000
    O58      O        0.22407    0.92283    0.28192    1.000
    C85      C        0.23447    0.05323    0.28294    1.000
    C86      C        0.26897    0.06993    0.24330    1.000
    H29      H        0.28047    0.03273    0.23043    1.000
    C87      C        0.21317    0.97313    0.30241    1.000
    O59      O        0.85053    0.29457    0.67136    1.000
    O60      O        0.89073    0.25617    0.61526    1.000
    C88      C        0.90113    0.38657    0.61628    1.000
    C89      C        0.93563    0.40327    0.57664    1.000
    H30      H        0.94713    0.36607    0.56377    1.000
    C90      C        0.87983    0.30647    0.63575    1.000
    O61      O        0.11070    0.48280    0.00469    1.000
    O62      O        0.03210    0.44260    0.94859    1.000
    C91      C        0.15210    0.43220    0.94961    1.000
    C92      C        0.13430    0.39770    0.90997    1.000
    H31      H        0.08560    0.38620    0.89710    1.000
    C93      C        0.09330    0.45350    0.96908    1.000
    O63      O        0.77737    0.81613    0.33802    1.000
    O64      O        0.69877    0.77593    0.28192    1.000
    C94      C        0.81877    0.76553    0.28294    1.000
    C95      C        0.80097    0.73103    0.24330    1.000
    H32      H        0.75227    0.71953    0.23043    1.000
    C96      C        0.75997    0.78683    0.30241    1.000
    O65      O        0.44403    0.14947    0.67136    1.000
    O66      O        0.36543    0.10927    0.61526    1.000
    C97      C        0.48543    0.09887    0.61628    1.000
    C98      C        0.46763    0.06437    0.57664    1.000
    H33      H        0.41893    0.05287    0.56377    1.000
    C99      C        0.42663    0.12017    0.63575    1.000
    O67      O        0.37210    0.88930    0.00469    1.000
    O68      O        0.41050    0.96790    0.94859    1.000
    C100     C        0.28010    0.84790    0.94961    1.000
    C101     C        0.26340    0.86570    0.90997    1.000
    H34      H        0.30060    0.91440    0.89710    1.000
    C102     C        0.36020    0.90670    0.96908    1.000
    O69      O        0.03877    0.22263    0.33802    1.000
    O70      O        0.07717    0.30123    0.28192    1.000
    C103     C        0.94677    0.18123    0.28294    1.000
    C104     C        0.93007    0.19903    0.24330    1.000
    H35      H        0.96727    0.24773    0.23043    1.000
    C105     C        0.02687    0.24003    0.30241    1.000
    O71      O        0.70543    0.55597    0.67136    1.000
    O72      O        0.74383    0.63457    0.61526    1.000
    C106     C        0.61343    0.51457    0.61628    1.000
    C107     C        0.59673    0.53237    0.57664    1.000
    H36      H        0.63393    0.58107    0.56377    1.000
    C108     C        0.69353    0.57337    0.63575    1.000
    Cu1      Cu       0.47692    0.52308    0.03342    1.000
    O73      O        0.45000    0.55000    0.09330    1.000
    O74      O        0.43340    0.56660    0.08370    1.000
    Cu2      Cu       0.14359    0.85641    0.36675    1.000
    O75      O        0.11667    0.88333    0.42663    1.000
    O76      O        0.10007    0.89993    0.41703    1.000
    Cu3      Cu       0.81025    0.18975    0.70009    1.000
    O77      O        0.78333    0.21667    0.75997    1.000
    O78      O        0.76673    0.23327    0.75037    1.000
    Cu4      Cu       0.47692    0.95384    0.03342    1.000
    O79      O        0.45000    0.90000    0.09330    1.000
    O80      O        0.43340    0.86680    0.08370    1.000
    Cu5      Cu       0.14359    0.28717    0.36675    1.000
    O81      O        0.11667    0.23333    0.42663    1.000
    O82      O        0.10007    0.20013    0.41703    1.000
    Cu6      Cu       0.81025    0.62051    0.70009    1.000
    O83      O        0.78333    0.56667    0.75997    1.000
    O84      O        0.76673    0.53347    0.75037    1.000
    Cu7      Cu       0.04616    0.52308    0.03342    1.000
    O85      O        0.10000    0.55000    0.09330    1.000
    O86      O        0.13320    0.56660    0.08370    1.000
    Cu8      Cu       0.71283    0.85641    0.36675    1.000
    O87      O        0.76667    0.88333    0.42663    1.000
    O88      O        0.79987    0.89993    0.41703    1.000
    Cu9      Cu       0.37949    0.18975    0.70009    1.000
    O89      O        0.43333    0.21667    0.75997    1.000
    O90      O        0.46653    0.23327    0.75037    1.000
    Cu10     Cu       0.52308    0.47692    0.96658    1.000
    O91      O        0.55000    0.45000    0.90670    1.000
    O92      O        0.56660    0.43340    0.91630    1.000
    Cu11     Cu       0.18975    0.81025    0.29991    1.000
    O93      O        0.21667    0.78333    0.24003    1.000
    O94      O        0.23327    0.76673    0.24963    1.000
    Cu12     Cu       0.85641    0.14359    0.63325    1.000
    O95      O        0.88333    0.11667    0.57337    1.000
    O96      O        0.89993    0.10007    0.58297    1.000
    Cu13     Cu       0.95384    0.47692    0.96658    1.000
    O97      O        0.90000    0.45000    0.90670    1.000
    O98      O        0.86680    0.43340    0.91630    1.000
    Cu14     Cu       0.62051    0.81025    0.29991    1.000
    O99      O        0.56667    0.78333    0.24003    1.000
    O100     O        0.53347    0.76673    0.24963    1.000
    Cu15     Cu       0.28717    0.14359    0.63325    1.000
    O101     O        0.23333    0.11667    0.57337    1.000
    O102     O        0.20013    0.10007    0.58297    1.000
    Cu16     Cu       0.52308    0.04616    0.96658    1.000
    O103     O        0.55000    0.10000    0.90670    1.000
    O104     O        0.56660    0.13320    0.91630    1.000
    Cu17     Cu       0.18975    0.37949    0.29991    1.000
    O105     O        0.21667    0.43333    0.24003    1.000
    O106     O        0.23327    0.46653    0.24963    1.000
    Cu18     Cu       0.85641    0.71283    0.63325    1.000
    O107     O        0.88333    0.76667    0.57337    1.000
    O108     O        0.89993    0.79987    0.58297    1.000
    C109     C        0.22455    0.44910    0.96860    1.000
    H37      H        0.23605    0.47210    0.99460    1.000
    C110     C        0.19055    0.38110    0.89020    1.000
    C111     C        0.17285    0.34570    0.84970    1.000
    C112     C        0.89122    0.78243    0.30193    1.000
    H38      H        0.90272    0.80543    0.32793    1.000
    C113     C        0.85722    0.71443    0.22353    1.000
    C114     C        0.83952    0.67903    0.18303    1.000
    C115     C        0.55788    0.11577    0.63527    1.000
    H39      H        0.56938    0.13877    0.66127    1.000
    C116     C        0.52388    0.04777    0.55687    1.000
    C117     C        0.50618    0.01237    0.51637    1.000
    C118     C        0.55090    0.77545    0.96860    1.000
    H40      H        0.52790    0.76395    0.99460    1.000
    C119     C        0.61890    0.80945    0.89020    1.000
    C120     C        0.65430    0.82715    0.84970    1.000
    C121     C        0.21757    0.10878    0.30193    1.000
    H41      H        0.19457    0.09728    0.32793    1.000
    C122     C        0.28557    0.14278    0.22353    1.000
    C123     C        0.32097    0.16048    0.18303    1.000
    C124     C        0.88423    0.44212    0.63527    1.000
    H42      H        0.86123    0.43062    0.66127    1.000
    C125     C        0.95223    0.47612    0.55687    1.000
    C126     C        0.98763    0.49382    0.51637    1.000
    C127     C        0.22455    0.77545    0.96860    1.000
    H43      H        0.23605    0.76395    0.99460    1.000
    C128     C        0.19055    0.80945    0.89020    1.000
    C129     C        0.17285    0.82715    0.84970    1.000
    C130     C        0.89122    0.10878    0.30193    1.000
    H44      H        0.90272    0.09728    0.32793    1.000
    C131     C        0.85722    0.14278    0.22353    1.000
    C132     C        0.83952    0.16048    0.18303    1.000
    C133     C        0.55788    0.44212    0.63527    1.000
    H45      H        0.56938    0.43062    0.66127    1.000
    C134     C        0.52388    0.47612    0.55687    1.000
    C135     C        0.50618    0.49382    0.51637    1.000
    C136     C        0.44910    0.22455    0.03140    1.000
    H46      H        0.47210    0.23605    0.00540    1.000
    C137     C        0.38110    0.19055    0.10980    1.000
    C138     C        0.34570    0.17285    0.15030    1.000
    C139     C        0.11577    0.55788    0.36473    1.000
    H47      H        0.13877    0.56938    0.33873    1.000
    C140     C        0.04777    0.52388    0.44313    1.000
    C141     C        0.01237    0.50618    0.48363    1.000
    C142     C        0.78243    0.89122    0.69807    1.000
    H48      H        0.80543    0.90272    0.67207    1.000
    C143     C        0.71443    0.85722    0.77647    1.000
    C144     C        0.67903    0.83952    0.81697    1.000
    C145     C        0.77545    0.55090    0.03140    1.000
    H49      H        0.76395    0.52790    0.00540    1.000
    C146     C        0.80945    0.61890    0.10980    1.000
    C147     C        0.82715    0.65430    0.15030    1.000
    C148     C        0.44212    0.88423    0.36473    1.000
    H50      H        0.43062    0.86123    0.33873    1.000
    C149     C        0.47612    0.95223    0.44313    1.000
    C150     C        0.49382    0.98763    0.48363    1.000
    C151     C        0.10878    0.21757    0.69807    1.000
    H51      H        0.09728    0.19457    0.67207    1.000
    C152     C        0.14278    0.28557    0.77647    1.000
    C153     C        0.16048    0.32097    0.81697    1.000
    C154     C        0.77545    0.22455    0.03140    1.000
    H52      H        0.76395    0.23605    0.00540    1.000
    C155     C        0.80945    0.19055    0.10980    1.000
    C156     C        0.82715    0.17285    0.15030    1.000
    C157     C        0.44212    0.55788    0.36473    1.000
    H53      H        0.43062    0.56938    0.33873    1.000
    C158     C        0.47612    0.52388    0.44313    1.000
    C159     C        0.49382    0.50618    0.48363    1.000
    C160     C        0.10878    0.89122    0.69807    1.000
    H54      H        0.09728    0.90272    0.67207    1.000
    C161     C        0.14278    0.85722    0.77647    1.000
    C162     C        0.16048    0.83952    0.81697    1.000
