data_functionalizedCrystal
_audit_creation_method	'EQeq! by Chris Wilmer'
_symmetry_space_group_name_H-M	'P1'
_symmetry_Int_Tables_number	1
_symmetry_cell_setting	triclinic
loop_
_symmetry_equiv_pos_as_xyz
  x,y,z
_cell_length_a	35.123
_cell_length_b	35.123
_cell_length_c	22.3916
_cell_angle_alpha	90
_cell_angle_beta	90
_cell_angle_gamma	120
loop_
_atom_site_label
_atom_site_type_symbol
_atom_site_fract_x
_atom_site_fract_y
_atom_site_fract_z
_atom_site_charge
Mof_O 	O 	0.55355	0.02863	0.56838	-0.413
Mof_O 	O 	0.56737	0.05594	0.47484	-0.417
Mof_C 	C 	0.57817	0.05427	0.52754	0.37
Mof_C 	C 	0.62516	0.08565	0.54513	-0.147
Mof_C 	C 	0.65557	0.11373	0.50301	0.083
Mof_H 	H 	0.6469	0.1135	0.4637	0.009
Mof_C 	C 	0.69845	0.14178	0.51977	-0.183
Mof_H 	H 	0.7183	0.1606	0.4914	0.103
Mof_C 	C 	0.7127	0.14276	0.57723	0.134
Mof_C 	C 	0.68259	0.11475	0.61991	-0.18
Mof_H 	H 	0.6914	0.115	0.6592	0.085
Mof_C 	C 	0.63915	0.08639	0.60256	0.08
Mof_H 	H 	0.6192	0.0675	0.6307	0.013
Mof_C 	C 	0.75957	0.17099	0.59572	-0.118
Mof_C 	C 	0.77952	0.15311	0.62968	-0.024
Mof_H 	H 	0.763	0.1237	0.6408	0.037
Mof_H 	H 	0.7073	0.248	0.6355	0.454
Mof_H 	H 	0.7408	0.3038	0.531	0.384
Mof_O 	O 	0.22022	0.36196	0.90171	-0.413
Mof_O 	O 	0.23404	0.38927	0.80817	-0.417
Mof_C 	C 	0.24484	0.3876	0.86087	0.369
Mof_C 	C 	0.29183	0.41898	0.87846	-0.148
Mof_C 	C 	0.32224	0.44706	0.83634	0.082
Mof_H 	H 	0.31357	0.44683	0.79703	0.008
Mof_C 	C 	0.36512	0.47511	0.8531	-0.184
Mof_H 	H 	0.38497	0.49393	0.82473	0.102
Mof_C 	C 	0.37937	0.47609	0.91056	0.133
Mof_C 	C 	0.34926	0.44808	0.95324	-0.181
Mof_H 	H 	0.35807	0.44833	0.99253	0.084
Mof_C 	C 	0.30582	0.41972	0.93589	0.079
Mof_H 	H 	0.28587	0.40083	0.96403	0.012
Mof_C 	C 	0.42624	0.50432	0.92905	-0.119
Mof_C 	C 	0.44619	0.48644	0.96301	-0.025
Mof_H 	H 	0.42967	0.45703	0.97413	0.036
Mof_H 	H 	0.37397	0.58133	0.96883	0.453
Mof_H 	H 	0.40747	0.63713	0.86433	0.383
Mof_O 	O 	0.88688	0.6953	0.23505	-0.414
Mof_O 	O 	0.9007	0.72261	0.14151	-0.418
Mof_C 	C 	0.9115	0.72094	0.19421	0.369
Mof_C 	C 	0.95849	0.75232	0.2118	-0.148
Mof_C 	C 	0.9889	0.7804	0.16968	0.081
Mof_H 	H 	0.98023	0.78017	0.13037	0.008
Mof_C 	C 	0.03178	0.80845	0.18644	-0.183
Mof_H 	H 	0.05163	0.82727	0.15807	0.102
Mof_C 	C 	0.04603	0.80943	0.2439	0.132
Mof_C 	C 	0.01592	0.78142	0.28658	-0.18
Mof_H 	H 	0.02473	0.78167	0.32587	0.084
Mof_C 	C 	0.97248	0.75306	0.26923	0.079
Mof_H 	H 	0.95253	0.73417	0.29737	0.012
Mof_C 	C 	0.0929	0.83766	0.26239	-0.119
Mof_C 	C 	0.11285	0.81978	0.29635	-0.025
Mof_H 	H 	0.09633	0.79037	0.30747	0.036
Mof_H 	H 	0.04063	0.91467	0.30217	0.453
Mof_H 	H 	0.07413	0.97047	0.19767	0.383
Mof_O 	O 	0.97137	0.52492	0.56838	-0.414
Mof_O 	O 	0.94406	0.51143	0.47484	-0.418
Mof_C 	C 	0.94573	0.5239	0.52754	0.369
Mof_C 	C 	0.91435	0.53951	0.54513	-0.148
Mof_C 	C 	0.88627	0.54184	0.50301	0.082
Mof_H 	H 	0.8865	0.5334	0.4637	0.008
Mof_C 	C 	0.85822	0.55667	0.51977	-0.184
Mof_H 	H 	0.8394	0.5577	0.4914	0.102
Mof_C 	C 	0.85724	0.56994	0.57723	0.133
Mof_C 	C 	0.88525	0.56784	0.61991	-0.181
Mof_H 	H 	0.885	0.5764	0.6592	0.084
Mof_C 	C 	0.91361	0.55276	0.60256	0.079
Mof_H 	H 	0.9325	0.5517	0.6307	0.012
Mof_C 	C 	0.82901	0.58858	0.59572	-0.119
Mof_C 	C 	0.84689	0.62641	0.62968	-0.025
Mof_H 	H 	0.8763	0.6393	0.6408	0.036
Mof_H 	H 	0.752	0.4593	0.6355	0.453
Mof_H 	H 	0.6962	0.437	0.531	0.383
Mof_O 	O 	0.63804	0.85825	0.90171	-0.414
Mof_O 	O 	0.61073	0.84476	0.80817	-0.418
Mof_C 	C 	0.6124	0.85723	0.86087	0.369
Mof_C 	C 	0.58102	0.87284	0.87846	-0.148
Mof_C 	C 	0.55294	0.87517	0.83634	0.082
Mof_H 	H 	0.55317	0.86673	0.79703	0.008
Mof_C 	C 	0.52489	0.89	0.8531	-0.184
Mof_H 	H 	0.50607	0.89103	0.82473	0.102
Mof_C 	C 	0.52391	0.90327	0.91056	0.133
Mof_C 	C 	0.55192	0.90117	0.95324	-0.181
Mof_H 	H 	0.55167	0.90973	0.99253	0.084
Mof_C 	C 	0.58028	0.88609	0.93589	0.079
Mof_H 	H 	0.59917	0.88503	0.96403	0.012
Mof_C 	C 	0.49568	0.92191	0.92905	-0.119
Mof_C 	C 	0.51356	0.95974	0.96301	-0.025
Mof_H 	H 	0.54297	0.97263	0.97413	0.036
Mof_H 	H 	0.41867	0.79263	0.96883	0.453
Mof_H 	H 	0.36287	0.77033	0.86433	0.383
Mof_O 	O 	0.3047	0.19159	0.23505	-0.414
Mof_O 	O 	0.27739	0.1781	0.14151	-0.418
Mof_C 	C 	0.27906	0.19057	0.19421	0.369
Mof_C 	C 	0.24768	0.20618	0.2118	-0.148
Mof_C 	C 	0.2196	0.20851	0.16968	0.082
Mof_H 	H 	0.21983	0.20007	0.13037	0.008
Mof_C 	C 	0.19155	0.22334	0.18644	-0.184
Mof_H 	H 	0.17273	0.22437	0.15807	0.102
Mof_C 	C 	0.19057	0.23661	0.2439	0.133
Mof_C 	C 	0.21858	0.23451	0.28658	-0.181
Mof_H 	H 	0.21833	0.24307	0.32587	0.084
Mof_C 	C 	0.24694	0.21943	0.26923	0.079
Mof_H 	H 	0.26583	0.21837	0.29737	0.012
Mof_C 	C 	0.16234	0.25525	0.26239	-0.119
Mof_C 	C 	0.18022	0.29308	0.29635	-0.025
Mof_H 	H 	0.20963	0.30597	0.30747	0.036
Mof_H 	H 	0.08533	0.12597	0.30217	0.453
Mof_H 	H 	0.02953	0.10367	0.19767	0.383
Mof_O 	O 	0.47508	0.44645	0.56838	-0.414
Mof_O 	O 	0.48857	0.43263	0.47484	-0.418
Mof_C 	C 	0.4761	0.42183	0.52754	0.369
Mof_C 	C 	0.46049	0.37484	0.54513	-0.148
Mof_C 	C 	0.45816	0.34443	0.50301	0.082
Mof_H 	H 	0.4666	0.3531	0.4637	0.008
Mof_C 	C 	0.44333	0.30155	0.51977	-0.184
Mof_H 	H 	0.4423	0.2817	0.4914	0.102
Mof_C 	C 	0.43006	0.2873	0.57723	0.133
Mof_C 	C 	0.43216	0.31741	0.61991	-0.181
Mof_H 	H 	0.4236	0.3086	0.6592	0.084
Mof_C 	C 	0.44724	0.36085	0.60256	0.079
Mof_H 	H 	0.4483	0.3808	0.6307	0.012
Mof_C 	C 	0.41142	0.24043	0.59572	-0.119
Mof_C 	C 	0.37359	0.22048	0.62968	-0.025
Mof_H 	H 	0.3607	0.237	0.6408	0.036
Mof_H 	H 	0.5407	0.2927	0.6355	0.453
Mof_H 	H 	0.563	0.2592	0.531	0.383
Mof_O 	O 	0.14175	0.77978	0.90171	-0.414
Mof_O 	O 	0.15524	0.76596	0.80817	-0.418
Mof_C 	C 	0.14277	0.75516	0.86087	0.369
Mof_C 	C 	0.12716	0.70817	0.87846	-0.148
Mof_C 	C 	0.12483	0.67776	0.83634	0.082
Mof_H 	H 	0.13327	0.68643	0.79703	0.008
Mof_C 	C 	0.11	0.63488	0.8531	-0.184
Mof_H 	H 	0.10897	0.61503	0.82473	0.102
Mof_C 	C 	0.09673	0.62063	0.91056	0.133
Mof_C 	C 	0.09883	0.65074	0.95324	-0.181
Mof_H 	H 	0.09027	0.64193	0.99253	0.084
Mof_C 	C 	0.11391	0.69418	0.93589	0.079
Mof_H 	H 	0.11497	0.71413	0.96403	0.012
Mof_C 	C 	0.07809	0.57376	0.92905	-0.119
Mof_C 	C 	0.04026	0.55381	0.96301	-0.025
Mof_H 	H 	0.02737	0.57033	0.97413	0.036
Mof_H 	H 	0.20737	0.62603	0.96883	0.453
Mof_H 	H 	0.22967	0.59253	0.86433	0.383
Mof_O 	O 	0.80841	0.11312	0.23505	-0.414
Mof_O 	O 	0.8219	0.0993	0.14151	-0.418
Mof_C 	C 	0.80943	0.0885	0.19421	0.369
Mof_C 	C 	0.79382	0.04151	0.2118	-0.148
Mof_C 	C 	0.79149	0.0111	0.16968	0.082
Mof_H 	H 	0.79993	0.01977	0.13037	0.008
Mof_C 	C 	0.77666	0.96822	0.18644	-0.184
Mof_H 	H 	0.77563	0.94837	0.15807	0.102
Mof_C 	C 	0.76339	0.95397	0.2439	0.133
Mof_C 	C 	0.76549	0.98408	0.28658	-0.18
Mof_H 	H 	0.75693	0.97527	0.32587	0.084
Mof_C 	C 	0.78057	0.02752	0.26923	0.079
Mof_H 	H 	0.78163	0.04747	0.29737	0.012
Mof_C 	C 	0.74475	0.9071	0.26239	-0.119
Mof_C 	C 	0.70692	0.88715	0.29635	-0.025
Mof_H 	H 	0.69403	0.90367	0.30747	0.036
Mof_H 	H 	0.87403	0.95937	0.30217	0.453
Mof_H 	H 	0.89633	0.92587	0.19767	0.383
Mof_O 	O 	0.02863	0.55355	0.43162	-0.414
Mof_O 	O 	0.05594	0.56737	0.52516	-0.418
Mof_C 	C 	0.05427	0.57817	0.47246	0.369
Mof_C 	C 	0.08565	0.62516	0.45487	-0.148
Mof_C 	C 	0.11373	0.65557	0.49699	0.082
Mof_H 	H 	0.1135	0.6469	0.5363	0.008
Mof_C 	C 	0.14178	0.69845	0.48023	-0.184
Mof_H 	H 	0.1606	0.7183	0.5086	0.102
Mof_C 	C 	0.14276	0.7127	0.42277	0.133
Mof_C 	C 	0.11475	0.68259	0.38009	-0.181
Mof_H 	H 	0.115	0.6914	0.3408	0.084
Mof_C 	C 	0.08639	0.63915	0.39744	0.079
Mof_H 	H 	0.0675	0.6192	0.3693	0.012
Mof_C 	C 	0.17099	0.75957	0.40428	-0.119
Mof_C 	C 	0.15311	0.77952	0.37032	-0.025
Mof_H 	H 	0.1237	0.763	0.3592	0.036
Mof_H 	H 	0.248	0.7073	0.3645	0.453
Mof_H 	H 	0.3038	0.7408	0.469	0.383
Mof_O 	O 	0.6953	0.88688	0.76495	-0.414
Mof_O 	O 	0.72261	0.9007	0.85849	-0.418
Mof_C 	C 	0.72094	0.9115	0.80579	0.369
Mof_C 	C 	0.75232	0.95849	0.7882	-0.148
Mof_C 	C 	0.7804	0.9889	0.83032	0.081
Mof_H 	H 	0.78017	0.98023	0.86963	0.008
Mof_C 	C 	0.80845	0.03178	0.81356	-0.183
Mof_H 	H 	0.82727	0.05163	0.84193	0.102
Mof_C 	C 	0.80943	0.04603	0.7561	0.132
Mof_C 	C 	0.78142	0.01592	0.71342	-0.18
Mof_H 	H 	0.78167	0.02473	0.67413	0.084
Mof_C 	C 	0.75306	0.97248	0.73077	0.079
Mof_H 	H 	0.73417	0.95253	0.70263	0.012
Mof_C 	C 	0.83766	0.0929	0.73761	-0.119
Mof_C 	C 	0.81978	0.11285	0.70365	-0.025
Mof_H 	H 	0.79037	0.09633	0.69253	0.036
Mof_H 	H 	0.91467	0.04063	0.69783	0.453
Mof_H 	H 	0.97047	0.07413	0.80233	0.383
Mof_O 	O 	0.36196	0.22022	0.09829	-0.414
Mof_O 	O 	0.38927	0.23404	0.19183	-0.418
Mof_C 	C 	0.3876	0.24484	0.13913	0.369
Mof_C 	C 	0.41898	0.29183	0.12154	-0.148
Mof_C 	C 	0.44706	0.32224	0.16366	0.082
Mof_H 	H 	0.44683	0.31357	0.20297	0.008
Mof_C 	C 	0.47511	0.36512	0.1469	-0.184
Mof_H 	H 	0.49393	0.38497	0.17527	0.102
Mof_C 	C 	0.47609	0.37937	0.08944	0.133
Mof_C 	C 	0.44808	0.34926	0.04676	-0.181
Mof_H 	H 	0.44833	0.35807	0.00747	0.084
Mof_C 	C 	0.41972	0.30582	0.06411	0.079
Mof_H 	H 	0.40083	0.28587	0.03597	0.012
Mof_C 	C 	0.50432	0.42624	0.07095	-0.119
Mof_C 	C 	0.48644	0.44619	0.03699	-0.025
Mof_H 	H 	0.45703	0.42967	0.02587	0.036
Mof_H 	H 	0.58133	0.37397	0.03117	0.453
Mof_H 	H 	0.63713	0.40747	0.13567	0.383
Mof_O 	O 	0.52492	0.97137	0.43162	-0.414
Mof_O 	O 	0.51143	0.94406	0.52516	-0.418
Mof_C 	C 	0.5239	0.94573	0.47246	0.369
Mof_C 	C 	0.53951	0.91435	0.45487	-0.148
Mof_C 	C 	0.54184	0.88627	0.49699	0.082
Mof_H 	H 	0.5334	0.8865	0.5363	0.008
Mof_C 	C 	0.55667	0.85822	0.48023	-0.184
Mof_H 	H 	0.5577	0.8394	0.5086	0.102
Mof_C 	C 	0.56994	0.85724	0.42277	0.133
Mof_C 	C 	0.56784	0.88525	0.38009	-0.181
Mof_H 	H 	0.5764	0.885	0.3408	0.084
Mof_C 	C 	0.55276	0.91361	0.39744	0.079
Mof_H 	H 	0.5517	0.9325	0.3693	0.012
Mof_C 	C 	0.58858	0.82901	0.40428	-0.119
Mof_C 	C 	0.62641	0.84689	0.37032	-0.025
Mof_H 	H 	0.6393	0.8763	0.3592	0.036
Mof_H 	H 	0.4593	0.752	0.3645	0.453
Mof_H 	H 	0.437	0.6962	0.469	0.383
Mof_O 	O 	0.19159	0.3047	0.76495	-0.414
Mof_O 	O 	0.1781	0.27739	0.85849	-0.418
Mof_C 	C 	0.19057	0.27906	0.80579	0.369
Mof_C 	C 	0.20618	0.24768	0.7882	-0.148
Mof_C 	C 	0.20851	0.2196	0.83032	0.082
Mof_H 	H 	0.20007	0.21983	0.86963	0.008
Mof_C 	C 	0.22334	0.19155	0.81356	-0.184
Mof_H 	H 	0.22437	0.17273	0.84193	0.102
Mof_C 	C 	0.23661	0.19057	0.7561	0.133
Mof_C 	C 	0.23451	0.21858	0.71342	-0.181
Mof_H 	H 	0.24307	0.21833	0.67413	0.084
Mof_C 	C 	0.21943	0.24694	0.73077	0.079
Mof_H 	H 	0.21837	0.26583	0.70263	0.012
Mof_C 	C 	0.25525	0.16234	0.73761	-0.119
Mof_C 	C 	0.29308	0.18022	0.70365	-0.025
Mof_H 	H 	0.30597	0.20963	0.69253	0.036
Mof_H 	H 	0.12597	0.08533	0.69783	0.453
Mof_H 	H 	0.10367	0.02953	0.80233	0.383
Mof_O 	O 	0.85825	0.63804	0.09829	-0.414
Mof_O 	O 	0.84476	0.61073	0.19183	-0.418
Mof_C 	C 	0.85723	0.6124	0.13913	0.369
Mof_C 	C 	0.87284	0.58102	0.12154	-0.148
Mof_C 	C 	0.87517	0.55294	0.16366	0.082
Mof_H 	H 	0.86673	0.55317	0.20297	0.008
Mof_C 	C 	0.89	0.52489	0.1469	-0.184
Mof_H 	H 	0.89103	0.50607	0.17527	0.102
Mof_C 	C 	0.90327	0.52391	0.08944	0.133
Mof_C 	C 	0.90117	0.55192	0.04676	-0.181
Mof_H 	H 	0.90973	0.55167	0.00747	0.084
Mof_C 	C 	0.88609	0.58028	0.06411	0.079
Mof_H 	H 	0.88503	0.59917	0.03597	0.012
Mof_C 	C 	0.92191	0.49568	0.07095	-0.119
Mof_C 	C 	0.95974	0.51356	0.03699	-0.025
Mof_H 	H 	0.97263	0.54297	0.02587	0.036
Mof_H 	H 	0.79263	0.41867	0.03117	0.453
Mof_H 	H 	0.77033	0.36287	0.13567	0.383
Mof_O 	O 	0.44645	0.47508	0.43162	-0.414
Mof_O 	O 	0.43263	0.48857	0.52516	-0.418
Mof_C 	C 	0.42183	0.4761	0.47246	0.369
Mof_C 	C 	0.37484	0.46049	0.45487	-0.148
Mof_C 	C 	0.34443	0.45816	0.49699	0.082
Mof_H 	H 	0.3531	0.4666	0.5363	0.008
Mof_C 	C 	0.30155	0.44333	0.48023	-0.184
Mof_H 	H 	0.2817	0.4423	0.5086	0.102
Mof_C 	C 	0.2873	0.43006	0.42277	0.133
Mof_C 	C 	0.31741	0.43216	0.38009	-0.181
Mof_H 	H 	0.3086	0.4236	0.3408	0.084
Mof_C 	C 	0.36085	0.44724	0.39744	0.079
Mof_H 	H 	0.3808	0.4483	0.3693	0.012
Mof_C 	C 	0.24043	0.41142	0.40428	-0.119
Mof_C 	C 	0.22048	0.37359	0.37032	-0.025
Mof_H 	H 	0.237	0.3607	0.3592	0.036
Mof_H 	H 	0.2927	0.5407	0.3645	0.453
Mof_H 	H 	0.2592	0.563	0.469	0.383
Mof_O 	O 	0.11312	0.80841	0.76495	-0.414
Mof_O 	O 	0.0993	0.8219	0.85849	-0.418
Mof_C 	C 	0.0885	0.80943	0.80579	0.369
Mof_C 	C 	0.04151	0.79382	0.7882	-0.148
Mof_C 	C 	0.0111	0.79149	0.83032	0.082
Mof_H 	H 	0.01977	0.79993	0.86963	0.008
Mof_C 	C 	0.96822	0.77666	0.81356	-0.184
Mof_H 	H 	0.94837	0.77563	0.84193	0.102
Mof_C 	C 	0.95397	0.76339	0.7561	0.133
Mof_C 	C 	0.98408	0.76549	0.71342	-0.18
Mof_H 	H 	0.97527	0.75693	0.67413	0.084
Mof_C 	C 	0.02752	0.78057	0.73077	0.079
Mof_H 	H 	0.04747	0.78163	0.70263	0.012
Mof_C 	C 	0.9071	0.74475	0.73761	-0.119
Mof_C 	C 	0.88715	0.70692	0.70365	-0.025
Mof_H 	H 	0.90367	0.69403	0.69253	0.036
Mof_H 	H 	0.95937	0.87403	0.69783	0.453
Mof_H 	H 	0.92587	0.89633	0.80233	0.383
Mof_O 	O 	0.77978	0.14175	0.09829	-0.414
Mof_O 	O 	0.76596	0.15524	0.19183	-0.418
Mof_C 	C 	0.75516	0.14277	0.13913	0.369
Mof_C 	C 	0.70817	0.12716	0.12154	-0.148
Mof_C 	C 	0.67776	0.12483	0.16366	0.082
Mof_H 	H 	0.68643	0.13327	0.20297	0.008
Mof_C 	C 	0.63488	0.11	0.1469	-0.184
Mof_H 	H 	0.61503	0.10897	0.17527	0.102
Mof_C 	C 	0.62063	0.09673	0.08944	0.133
Mof_C 	C 	0.65074	0.09883	0.04676	-0.181
Mof_H 	H 	0.64193	0.09027	0.00747	0.084
Mof_C 	C 	0.69418	0.11391	0.06411	0.079
Mof_H 	H 	0.71413	0.11497	0.03597	0.012
Mof_C 	C 	0.57376	0.07809	0.07095	-0.119
Mof_C 	C 	0.55381	0.04026	0.03699	-0.025
Mof_H 	H 	0.57033	0.02737	0.02587	0.036
Mof_H 	H 	0.62603	0.20737	0.03117	0.453
Mof_H 	H 	0.59253	0.22967	0.13567	0.383
Mof_O 	O 	0.44645	0.97137	0.43162	-0.414
Mof_O 	O 	0.43263	0.94406	0.52516	-0.418
Mof_C 	C 	0.42183	0.94573	0.47246	0.369
Mof_C 	C 	0.37484	0.91435	0.45487	-0.148
Mof_C 	C 	0.34443	0.88627	0.49699	0.082
Mof_H 	H 	0.3531	0.8865	0.5363	0.008
Mof_C 	C 	0.30155	0.85822	0.48023	-0.184
Mof_H 	H 	0.2817	0.8394	0.5086	0.102
Mof_C 	C 	0.2873	0.85724	0.42277	0.133
Mof_C 	C 	0.31741	0.88525	0.38009	-0.181
Mof_H 	H 	0.3086	0.885	0.3408	0.084
Mof_C 	C 	0.36085	0.91361	0.39744	0.079
Mof_H 	H 	0.3808	0.9325	0.3693	0.012
Mof_C 	C 	0.24043	0.82901	0.40428	-0.119
Mof_C 	C 	0.22048	0.84689	0.37032	-0.025
Mof_H 	H 	0.237	0.8763	0.3592	0.036
Mof_H 	H 	0.2927	0.752	0.3645	0.453
Mof_H 	H 	0.2592	0.6962	0.469	0.383
Mof_O 	O 	0.11312	0.3047	0.76495	-0.414
Mof_O 	O 	0.0993	0.27739	0.85849	-0.418
Mof_C 	C 	0.0885	0.27906	0.80579	0.369
Mof_C 	C 	0.04151	0.24768	0.7882	-0.148
Mof_C 	C 	0.0111	0.2196	0.83032	0.081
Mof_H 	H 	0.01977	0.21983	0.86963	0.008
Mof_C 	C 	0.96822	0.19155	0.81356	-0.183
Mof_H 	H 	0.94837	0.17273	0.84193	0.102
Mof_C 	C 	0.95397	0.19057	0.7561	0.132
Mof_C 	C 	0.98408	0.21858	0.71342	-0.18
Mof_H 	H 	0.97527	0.21833	0.67413	0.084
Mof_C 	C 	0.02752	0.24694	0.73077	0.079
Mof_H 	H 	0.04747	0.26583	0.70263	0.012
Mof_C 	C 	0.9071	0.16234	0.73761	-0.119
Mof_C 	C 	0.88715	0.18022	0.70365	-0.025
Mof_H 	H 	0.90367	0.20963	0.69253	0.036
Mof_H 	H 	0.95937	0.08533	0.69783	0.453
Mof_H 	H 	0.92587	0.02953	0.80233	0.383
Mof_O 	O 	0.77978	0.63804	0.09829	-0.414
Mof_O 	O 	0.76596	0.61073	0.19183	-0.418
Mof_C 	C 	0.75516	0.6124	0.13913	0.369
Mof_C 	C 	0.70817	0.58102	0.12154	-0.148
Mof_C 	C 	0.67776	0.55294	0.16366	0.082
Mof_H 	H 	0.68643	0.55317	0.20297	0.008
Mof_C 	C 	0.63488	0.52489	0.1469	-0.184
Mof_H 	H 	0.61503	0.50607	0.17527	0.102
Mof_C 	C 	0.62063	0.52391	0.08944	0.133
Mof_C 	C 	0.65074	0.55192	0.04676	-0.181
Mof_H 	H 	0.64193	0.55167	0.00747	0.084
Mof_C 	C 	0.69418	0.58028	0.06411	0.079
Mof_H 	H 	0.71413	0.59917	0.03597	0.012
Mof_C 	C 	0.57376	0.49568	0.07095	-0.119
Mof_C 	C 	0.55381	0.51356	0.03699	-0.025
Mof_H 	H 	0.57033	0.54297	0.02587	0.036
Mof_H 	H 	0.62603	0.41867	0.03117	0.453
Mof_H 	H 	0.59253	0.36287	0.13567	0.383
Mof_O 	O 	0.02863	0.47508	0.43162	-0.414
Mof_O 	O 	0.05594	0.48857	0.52516	-0.418
Mof_C 	C 	0.05427	0.4761	0.47246	0.369
Mof_C 	C 	0.08565	0.46049	0.45487	-0.148
Mof_C 	C 	0.11373	0.45816	0.49699	0.082
Mof_H 	H 	0.1135	0.4666	0.5363	0.008
Mof_C 	C 	0.14178	0.44333	0.48023	-0.184
Mof_H 	H 	0.1606	0.4423	0.5086	0.102
Mof_C 	C 	0.14276	0.43006	0.42277	0.133
Mof_C 	C 	0.11475	0.43216	0.38009	-0.181
Mof_H 	H 	0.115	0.4236	0.3408	0.084
Mof_C 	C 	0.08639	0.44724	0.39744	0.079
Mof_H 	H 	0.0675	0.4483	0.3693	0.012
Mof_C 	C 	0.17099	0.41142	0.40428	-0.119
Mof_C 	C 	0.15311	0.37359	0.37032	-0.025
Mof_H 	H 	0.1237	0.3607	0.3592	0.036
Mof_H 	H 	0.248	0.5407	0.3645	0.453
Mof_H 	H 	0.3038	0.563	0.469	0.383
Mof_O 	O 	0.6953	0.80841	0.76495	-0.414
Mof_O 	O 	0.72261	0.8219	0.85849	-0.418
Mof_C 	C 	0.72094	0.80943	0.80579	0.369
Mof_C 	C 	0.75232	0.79382	0.7882	-0.148
Mof_C 	C 	0.7804	0.79149	0.83032	0.082
Mof_H 	H 	0.78017	0.79993	0.86963	0.008
Mof_C 	C 	0.80845	0.77666	0.81356	-0.184
Mof_H 	H 	0.82727	0.77563	0.84193	0.102
Mof_C 	C 	0.80943	0.76339	0.7561	0.133
Mof_C 	C 	0.78142	0.76549	0.71342	-0.181
Mof_H 	H 	0.78167	0.75693	0.67413	0.084
Mof_C 	C 	0.75306	0.78057	0.73077	0.079
Mof_H 	H 	0.73417	0.78163	0.70263	0.012
Mof_C 	C 	0.83766	0.74475	0.73761	-0.119
Mof_C 	C 	0.81978	0.70692	0.70365	-0.025
Mof_H 	H 	0.79037	0.69403	0.69253	0.036
Mof_H 	H 	0.91467	0.87403	0.69783	0.453
Mof_H 	H 	0.97047	0.89633	0.80233	0.383
Mof_O 	O 	0.36196	0.14175	0.09829	-0.414
Mof_O 	O 	0.38927	0.15524	0.19183	-0.418
Mof_C 	C 	0.3876	0.14277	0.13913	0.369
Mof_C 	C 	0.41898	0.12716	0.12154	-0.148
Mof_C 	C 	0.44706	0.12483	0.16366	0.082
Mof_H 	H 	0.44683	0.13327	0.20297	0.008
Mof_C 	C 	0.47511	0.11	0.1469	-0.184
Mof_H 	H 	0.49393	0.10897	0.17527	0.102
Mof_C 	C 	0.47609	0.09673	0.08944	0.133
Mof_C 	C 	0.44808	0.09883	0.04676	-0.181
Mof_H 	H 	0.44833	0.09027	0.00747	0.084
Mof_C 	C 	0.41972	0.11391	0.06411	0.079
Mof_H 	H 	0.40083	0.11497	0.03597	0.012
Mof_C 	C 	0.50432	0.07809	0.07095	-0.119
Mof_C 	C 	0.48644	0.04026	0.03699	-0.025
Mof_H 	H 	0.45703	0.02737	0.02587	0.036
Mof_H 	H 	0.58133	0.20737	0.03117	0.453
Mof_H 	H 	0.63713	0.22967	0.13567	0.383
Mof_O 	O 	0.52492	0.55355	0.43162	-0.414
Mof_O 	O 	0.51143	0.56737	0.52516	-0.418
Mof_C 	C 	0.5239	0.57817	0.47246	0.369
Mof_C 	C 	0.53951	0.62516	0.45487	-0.148
Mof_C 	C 	0.54184	0.65557	0.49699	0.082
Mof_H 	H 	0.5334	0.6469	0.5363	0.008
Mof_C 	C 	0.55667	0.69845	0.48023	-0.184
Mof_H 	H 	0.5577	0.7183	0.5086	0.102
Mof_C 	C 	0.56994	0.7127	0.42277	0.133
Mof_C 	C 	0.56784	0.68259	0.38009	-0.181
Mof_H 	H 	0.5764	0.6914	0.3408	0.084
Mof_C 	C 	0.55276	0.63915	0.39744	0.079
Mof_H 	H 	0.5517	0.6192	0.3693	0.012
Mof_C 	C 	0.58858	0.75957	0.40428	-0.119
Mof_C 	C 	0.62641	0.77952	0.37032	-0.025
Mof_H 	H 	0.6393	0.763	0.3592	0.036
Mof_H 	H 	0.4593	0.7073	0.3645	0.453
Mof_H 	H 	0.437	0.7408	0.469	0.383
Mof_O 	O 	0.19159	0.88688	0.76495	-0.414
Mof_O 	O 	0.1781	0.9007	0.85849	-0.418
Mof_C 	C 	0.19057	0.9115	0.80579	0.369
Mof_C 	C 	0.20618	0.95849	0.7882	-0.148
Mof_C 	C 	0.20851	0.9889	0.83032	0.082
Mof_H 	H 	0.20007	0.98023	0.86963	0.008
Mof_C 	C 	0.22334	0.03178	0.81356	-0.184
Mof_H 	H 	0.22437	0.05163	0.84193	0.102
Mof_C 	C 	0.23661	0.04603	0.7561	0.133
Mof_C 	C 	0.23451	0.01592	0.71342	-0.18
Mof_H 	H 	0.24307	0.02473	0.67413	0.084
Mof_C 	C 	0.21943	0.97248	0.73077	0.079
Mof_H 	H 	0.21837	0.95253	0.70263	0.012
Mof_C 	C 	0.25525	0.0929	0.73761	-0.119
Mof_C 	C 	0.29308	0.11285	0.70365	-0.025
Mof_H 	H 	0.30597	0.09633	0.69253	0.036
Mof_H 	H 	0.12597	0.04063	0.69783	0.453
Mof_H 	H 	0.10367	0.07413	0.80233	0.383
Mof_O 	O 	0.85825	0.22022	0.09829	-0.414
Mof_O 	O 	0.84476	0.23404	0.19183	-0.418
Mof_C 	C 	0.85723	0.24484	0.13913	0.369
Mof_C 	C 	0.87284	0.29183	0.12154	-0.148
Mof_C 	C 	0.87517	0.32224	0.16366	0.082
Mof_H 	H 	0.86673	0.31357	0.20297	0.008
Mof_C 	C 	0.89	0.36512	0.1469	-0.184
Mof_H 	H 	0.89103	0.38497	0.17527	0.102
Mof_C 	C 	0.90327	0.37937	0.08944	0.133
Mof_C 	C 	0.90117	0.34926	0.04676	-0.181
Mof_H 	H 	0.90973	0.35807	0.00747	0.084
Mof_C 	C 	0.88609	0.30582	0.06411	0.079
Mof_H 	H 	0.88503	0.28587	0.03597	0.012
Mof_C 	C 	0.92191	0.42624	0.07095	-0.119
Mof_C 	C 	0.95974	0.44619	0.03699	-0.025
Mof_H 	H 	0.97263	0.42967	0.02587	0.036
Mof_H 	H 	0.79263	0.37397	0.03117	0.453
Mof_H 	H 	0.77033	0.40747	0.13567	0.383
Mof_O 	O 	0.97137	0.44645	0.56838	-0.414
Mof_O 	O 	0.94406	0.43263	0.47484	-0.418
Mof_C 	C 	0.94573	0.42183	0.52754	0.369
Mof_C 	C 	0.91435	0.37484	0.54513	-0.148
Mof_C 	C 	0.88627	0.34443	0.50301	0.082
Mof_H 	H 	0.8865	0.3531	0.4637	0.008
Mof_C 	C 	0.85822	0.30155	0.51977	-0.184
Mof_H 	H 	0.8394	0.2817	0.4914	0.102
Mof_C 	C 	0.85724	0.2873	0.57723	0.133
Mof_C 	C 	0.88525	0.31741	0.61991	-0.181
Mof_H 	H 	0.885	0.3086	0.6592	0.084
Mof_C 	C 	0.91361	0.36085	0.60256	0.079
Mof_H 	H 	0.9325	0.3808	0.6307	0.012
Mof_C 	C 	0.82901	0.24043	0.59572	-0.119
Mof_C 	C 	0.84689	0.22048	0.62968	-0.025
Mof_H 	H 	0.8763	0.237	0.6408	0.036
Mof_H 	H 	0.752	0.2927	0.6355	0.453
Mof_H 	H 	0.6962	0.2592	0.531	0.383
Mof_O 	O 	0.63804	0.77978	0.90171	-0.414
Mof_O 	O 	0.61073	0.76596	0.80817	-0.418
Mof_C 	C 	0.6124	0.75516	0.86087	0.369
Mof_C 	C 	0.58102	0.70817	0.87846	-0.148
Mof_C 	C 	0.55294	0.67776	0.83634	0.082
Mof_H 	H 	0.55317	0.68643	0.79703	0.008
Mof_C 	C 	0.52489	0.63488	0.8531	-0.184
Mof_H 	H 	0.50607	0.61503	0.82473	0.102
Mof_C 	C 	0.52391	0.62063	0.91056	0.133
Mof_C 	C 	0.55192	0.65074	0.95324	-0.181
Mof_H 	H 	0.55167	0.64193	0.99253	0.084
Mof_C 	C 	0.58028	0.69418	0.93589	0.079
Mof_H 	H 	0.59917	0.71413	0.96403	0.012
Mof_C 	C 	0.49568	0.57376	0.92905	-0.119
Mof_C 	C 	0.51356	0.55381	0.96301	-0.025
Mof_H 	H 	0.54297	0.57033	0.97413	0.036
Mof_H 	H 	0.41867	0.62603	0.96883	0.453
Mof_H 	H 	0.36287	0.59253	0.86433	0.383
Mof_O 	O 	0.3047	0.11312	0.23505	-0.414
Mof_O 	O 	0.27739	0.0993	0.14151	-0.418
Mof_C 	C 	0.27906	0.0885	0.19421	0.369
Mof_C 	C 	0.24768	0.04151	0.2118	-0.148
Mof_C 	C 	0.2196	0.0111	0.16968	0.081
Mof_H 	H 	0.21983	0.01977	0.13037	0.008
Mof_C 	C 	0.19155	0.96822	0.18644	-0.183
Mof_H 	H 	0.17273	0.94837	0.15807	0.102
Mof_C 	C 	0.19057	0.95397	0.2439	0.132
Mof_C 	C 	0.21858	0.98408	0.28658	-0.18
Mof_H 	H 	0.21833	0.97527	0.32587	0.084
Mof_C 	C 	0.24694	0.02752	0.26923	0.079
Mof_H 	H 	0.26583	0.04747	0.29737	0.012
Mof_C 	C 	0.16234	0.9071	0.26239	-0.119
Mof_C 	C 	0.18022	0.88715	0.29635	-0.025
Mof_H 	H 	0.20963	0.90367	0.30747	0.036
Mof_H 	H 	0.08533	0.95937	0.30217	0.453
Mof_H 	H 	0.02953	0.92587	0.19767	0.383
Mof_O 	O 	0.47508	0.02863	0.56838	-0.414
Mof_O 	O 	0.48857	0.05594	0.47484	-0.418
Mof_C 	C 	0.4761	0.05427	0.52754	0.369
Mof_C 	C 	0.46049	0.08565	0.54513	-0.148
Mof_C 	C 	0.45816	0.11373	0.50301	0.082
Mof_H 	H 	0.4666	0.1135	0.4637	0.008
Mof_C 	C 	0.44333	0.14178	0.51977	-0.184
Mof_H 	H 	0.4423	0.1606	0.4914	0.102
Mof_C 	C 	0.43006	0.14276	0.57723	0.133
Mof_C 	C 	0.43216	0.11475	0.61991	-0.181
Mof_H 	H 	0.4236	0.115	0.6592	0.084
Mof_C 	C 	0.44724	0.08639	0.60256	0.079
Mof_H 	H 	0.4483	0.0675	0.6307	0.012
Mof_C 	C 	0.41142	0.17099	0.59572	-0.119
Mof_C 	C 	0.37359	0.15311	0.62968	-0.025
Mof_H 	H 	0.3607	0.1237	0.6408	0.036
Mof_H 	H 	0.5407	0.248	0.6355	0.453
Mof_H 	H 	0.563	0.3038	0.531	0.383
Mof_O 	O 	0.14175	0.36196	0.90171	-0.414
Mof_O 	O 	0.15524	0.38927	0.80817	-0.418
Mof_C 	C 	0.14277	0.3876	0.86087	0.369
Mof_C 	C 	0.12716	0.41898	0.87846	-0.148
Mof_C 	C 	0.12483	0.44706	0.83634	0.082
Mof_H 	H 	0.13327	0.44683	0.79703	0.008
Mof_C 	C 	0.11	0.47511	0.8531	-0.184
Mof_H 	H 	0.10897	0.49393	0.82473	0.102
Mof_C 	C 	0.09673	0.47609	0.91056	0.133
Mof_C 	C 	0.09883	0.44808	0.95324	-0.181
Mof_H 	H 	0.09027	0.44833	0.99253	0.084
Mof_C 	C 	0.11391	0.41972	0.93589	0.079
Mof_H 	H 	0.11497	0.40083	0.96403	0.012
Mof_C 	C 	0.07809	0.50432	0.92905	-0.119
Mof_C 	C 	0.04026	0.48644	0.96301	-0.025
Mof_H 	H 	0.02737	0.45703	0.97413	0.036
Mof_H 	H 	0.20737	0.58133	0.96883	0.453
Mof_H 	H 	0.22967	0.63713	0.86433	0.383
Mof_O 	O 	0.80841	0.6953	0.23505	-0.414
Mof_O 	O 	0.8219	0.72261	0.14151	-0.418
Mof_C 	C 	0.80943	0.72094	0.19421	0.369
Mof_C 	C 	0.79382	0.75232	0.2118	-0.148
Mof_C 	C 	0.79149	0.7804	0.16968	0.082
Mof_H 	H 	0.79993	0.78017	0.13037	0.008
Mof_C 	C 	0.77666	0.80845	0.18644	-0.184
Mof_H 	H 	0.77563	0.82727	0.15807	0.102
Mof_C 	C 	0.76339	0.80943	0.2439	0.133
Mof_C 	C 	0.76549	0.78142	0.28658	-0.181
Mof_H 	H 	0.75693	0.78167	0.32587	0.084
Mof_C 	C 	0.78057	0.75306	0.26923	0.079
Mof_H 	H 	0.78163	0.73417	0.29737	0.012
Mof_C 	C 	0.74475	0.83766	0.26239	-0.119
Mof_C 	C 	0.70692	0.81978	0.29635	-0.025
Mof_H 	H 	0.69403	0.79037	0.30747	0.036
Mof_H 	H 	0.87403	0.91467	0.30217	0.453
Mof_H 	H 	0.89633	0.97047	0.19767	0.383
Mof_O 	O 	0.55355	0.52492	0.56838	-0.414
Mof_O 	O 	0.56737	0.51143	0.47484	-0.418
Mof_C 	C 	0.57817	0.5239	0.52754	0.369
Mof_C 	C 	0.62516	0.53951	0.54513	-0.148
Mof_C 	C 	0.65557	0.54184	0.50301	0.082
Mof_H 	H 	0.6469	0.5334	0.4637	0.008
Mof_C 	C 	0.69845	0.55667	0.51977	-0.184
Mof_H 	H 	0.7183	0.5577	0.4914	0.102
Mof_C 	C 	0.7127	0.56994	0.57723	0.133
Mof_C 	C 	0.68259	0.56784	0.61991	-0.181
Mof_H 	H 	0.6914	0.5764	0.6592	0.084
Mof_C 	C 	0.63915	0.55276	0.60256	0.079
Mof_H 	H 	0.6192	0.5517	0.6307	0.012
Mof_C 	C 	0.75957	0.58858	0.59572	-0.119
Mof_C 	C 	0.77952	0.62641	0.62968	-0.025
Mof_H 	H 	0.763	0.6393	0.6408	0.036
Mof_H 	H 	0.7073	0.4593	0.6355	0.453
Mof_H 	H 	0.7408	0.437	0.531	0.383
Mof_O 	O 	0.22022	0.85825	0.90171	-0.414
Mof_O 	O 	0.23404	0.84476	0.80817	-0.418
Mof_C 	C 	0.24484	0.85723	0.86087	0.369
Mof_C 	C 	0.29183	0.87284	0.87846	-0.148
Mof_C 	C 	0.32224	0.87517	0.83634	0.082
Mof_H 	H 	0.31357	0.86673	0.79703	0.008
Mof_C 	C 	0.36512	0.89	0.8531	-0.184
Mof_H 	H 	0.38497	0.89103	0.82473	0.102
Mof_C 	C 	0.37937	0.90327	0.91056	0.133
Mof_C 	C 	0.34926	0.90117	0.95324	-0.181
Mof_H 	H 	0.35807	0.90973	0.99253	0.084
Mof_C 	C 	0.30582	0.88609	0.93589	0.079
Mof_H 	H 	0.28587	0.88503	0.96403	0.012
Mof_C 	C 	0.42624	0.92191	0.92905	-0.119
Mof_C 	C 	0.44619	0.95974	0.96301	-0.025
Mof_H 	H 	0.42967	0.97263	0.97413	0.036
Mof_H 	H 	0.37397	0.79263	0.96883	0.453
Mof_H 	H 	0.40747	0.77033	0.86433	0.383
Mof_O 	O 	0.88688	0.19159	0.23505	-0.414
Mof_O 	O 	0.9007	0.1781	0.14151	-0.418
Mof_C 	C 	0.9115	0.19057	0.19421	0.369
Mof_C 	C 	0.95849	0.20618	0.2118	-0.148
Mof_C 	C 	0.9889	0.20851	0.16968	0.082
Mof_H 	H 	0.98023	0.20007	0.13037	0.008
Mof_C 	C 	0.03178	0.22334	0.18644	-0.184
Mof_H 	H 	0.05163	0.22437	0.15807	0.102
Mof_C 	C 	0.04603	0.23661	0.2439	0.133
Mof_C 	C 	0.01592	0.23451	0.28658	-0.18
Mof_H 	H 	0.02473	0.24307	0.32587	0.084
Mof_C 	C 	0.97248	0.21943	0.26923	0.079
Mof_H 	H 	0.95253	0.21837	0.29737	0.012
Mof_C 	C 	0.0929	0.25525	0.26239	-0.119
Mof_C 	C 	0.11285	0.29308	0.29635	-0.025
Mof_H 	H 	0.09633	0.30597	0.30747	0.036
Mof_H 	H 	0.04063	0.12597	0.30217	0.453
Mof_H 	H 	0.07413	0.10367	0.19767	0.383
Mof_Cu	Cu	0.50794	0.01588	0.44511	0.902
Mof_Cu	Cu	0.17461	0.34921	0.77844	0.902
Mof_Cu	Cu	0.84127	0.68255	0.11178	0.902
Mof_Cu	Cu	0.98412	0.49206	0.44511	0.902
Mof_Cu	Cu	0.65079	0.82539	0.77844	0.902
Mof_Cu	Cu	0.31745	0.15873	0.11178	0.902
Mof_Cu	Cu	0.50794	0.49206	0.44511	0.902
Mof_Cu	Cu	0.17461	0.82539	0.77844	0.902
Mof_Cu	Cu	0.84127	0.15873	0.11178	0.902
Mof_Cu	Cu	0.01588	0.50794	0.55489	0.902
Mof_Cu	Cu	0.68255	0.84127	0.88822	0.902
Mof_Cu	Cu	0.34921	0.17461	0.22156	0.902
Mof_Cu	Cu	0.49206	0.98412	0.55489	0.902
Mof_Cu	Cu	0.15873	0.31745	0.88822	0.902
Mof_Cu	Cu	0.82539	0.65079	0.22156	0.902
Mof_Cu	Cu	0.49206	0.50794	0.55489	0.902
Mof_Cu	Cu	0.15873	0.84127	0.88822	0.902
Mof_Cu	Cu	0.82539	0.17461	0.22156	0.902
Mof_O 	O 	0.76608	0.23392	0.54336	-0.474
Mof_C 	C 	0.82308	0.17692	0.6481	-0.012
Mof_C 	C 	0.78462	0.21538	0.5792	0.205
Mof_C 	C 	0.7464	0.2536	0.5691	0.842
Mof_C 	C 	0.73842	0.26158	0.629	-1.539
Mof_H 	H 	0.7506	0.2494	0.6562	0.467
Mof_C 	C 	0.72735	0.27265	0.5249	-1.306
Mof_H 	H 	0.733	0.267	0.4849	0.409
Mof_O 	O 	0.43275	0.56725	0.87669	-0.474
Mof_C 	C 	0.48975	0.51025	0.98143	-0.012
Mof_C 	C 	0.45129	0.54871	0.91253	0.205
Mof_C 	C 	0.41307	0.58693	0.90243	0.843
Mof_C 	C 	0.40509	0.59491	0.96233	-1.539
Mof_H 	H 	0.41727	0.58273	0.98953	0.467
Mof_C 	C 	0.39402	0.60598	0.85823	-1.306
Mof_H 	H 	0.39967	0.60033	0.81823	0.409
Mof_O 	O 	0.09941	0.90059	0.21003	-0.474
Mof_C 	C 	0.15641	0.84359	0.31477	-0.012
Mof_C 	C 	0.11795	0.88205	0.24587	0.205
Mof_C 	C 	0.07973	0.92027	0.23577	0.843
Mof_C 	C 	0.07175	0.92825	0.29567	-1.539
Mof_H 	H 	0.08393	0.91607	0.32287	0.467
Mof_C 	C 	0.06068	0.93932	0.19157	-1.306
Mof_H 	H 	0.06633	0.93367	0.15157	0.409
Mof_O 	O 	0.76608	0.53216	0.54336	-0.474
Mof_C 	C 	0.82308	0.64616	0.6481	-0.012
Mof_C 	C 	0.78462	0.56924	0.5792	0.205
Mof_C 	C 	0.7464	0.4928	0.5691	0.842
Mof_C 	C 	0.73842	0.47684	0.629	-1.539
Mof_H 	H 	0.7506	0.5012	0.6562	0.467
Mof_C 	C 	0.72735	0.4547	0.5249	-1.306
Mof_H 	H 	0.733	0.466	0.4849	0.409
Mof_O 	O 	0.43275	0.86549	0.87669	-0.474
Mof_C 	C 	0.48975	0.97949	0.98143	-0.012
Mof_C 	C 	0.45129	0.90257	0.91253	0.205
Mof_C 	C 	0.41307	0.82613	0.90243	0.843
Mof_C 	C 	0.40509	0.81017	0.96233	-1.539
Mof_H 	H 	0.41727	0.83453	0.98953	0.467
Mof_C 	C 	0.39402	0.78803	0.85823	-1.306
Mof_H 	H 	0.39967	0.79933	0.81823	0.409
Mof_O 	O 	0.09941	0.19883	0.21003	-0.474
Mof_C 	C 	0.15641	0.31283	0.31477	-0.012
Mof_C 	C 	0.11795	0.23591	0.24587	0.205
Mof_C 	C 	0.07973	0.15947	0.23577	0.843
Mof_C 	C 	0.07175	0.14351	0.29567	-1.539
Mof_H 	H 	0.08393	0.16787	0.32287	0.467
Mof_C 	C 	0.06068	0.12137	0.19157	-1.306
Mof_H 	H 	0.06633	0.13267	0.15157	0.409
Mof_O 	O 	0.46784	0.23392	0.54336	-0.474
Mof_C 	C 	0.35384	0.17692	0.6481	-0.012
Mof_C 	C 	0.43076	0.21538	0.5792	0.205
Mof_C 	C 	0.5072	0.2536	0.5691	0.842
Mof_C 	C 	0.52316	0.26158	0.629	-1.539
Mof_H 	H 	0.4988	0.2494	0.6562	0.467
Mof_C 	C 	0.5453	0.27265	0.5249	-1.306
Mof_H 	H 	0.534	0.267	0.4849	0.409
Mof_O 	O 	0.13451	0.56725	0.87669	-0.474
Mof_C 	C 	0.02051	0.51025	0.98143	-0.012
Mof_C 	C 	0.09743	0.54871	0.91253	0.205
Mof_C 	C 	0.17387	0.58693	0.90243	0.843
Mof_C 	C 	0.18983	0.59491	0.96233	-1.539
Mof_H 	H 	0.16547	0.58273	0.98953	0.467
Mof_C 	C 	0.21197	0.60598	0.85823	-1.306
Mof_H 	H 	0.20067	0.60033	0.81823	0.409
Mof_O 	O 	0.80117	0.90059	0.21003	-0.474
Mof_C 	C 	0.68717	0.84359	0.31477	-0.012
Mof_C 	C 	0.76409	0.88205	0.24587	0.205
Mof_C 	C 	0.84053	0.92027	0.23577	0.843
Mof_C 	C 	0.85649	0.92825	0.29567	-1.539
Mof_H 	H 	0.83213	0.91607	0.32287	0.467
Mof_C 	C 	0.87863	0.93932	0.19157	-1.306
Mof_H 	H 	0.86733	0.93367	0.15157	0.409
Mof_O 	O 	0.23392	0.76608	0.45664	-0.474
Mof_C 	C 	0.17692	0.82308	0.3519	-0.012
Mof_C 	C 	0.21538	0.78462	0.4208	0.205
Mof_C 	C 	0.2536	0.7464	0.4309	0.842
Mof_C 	C 	0.26158	0.73842	0.371	-1.539
Mof_H 	H 	0.2494	0.7506	0.3438	0.467
Mof_C 	C 	0.27265	0.72735	0.4751	-1.306
Mof_H 	H 	0.267	0.733	0.5151	0.409
Mof_O 	O 	0.90059	0.09941	0.78997	-0.474
Mof_C 	C 	0.84359	0.15641	0.68523	-0.012
Mof_C 	C 	0.88205	0.11795	0.75413	0.205
Mof_C 	C 	0.92027	0.07973	0.76423	0.843
Mof_C 	C 	0.92825	0.07175	0.70433	-1.539
Mof_H 	H 	0.91607	0.08393	0.67713	0.467
Mof_C 	C 	0.93932	0.06068	0.80843	-1.306
Mof_H 	H 	0.93367	0.06633	0.84843	0.409
Mof_O 	O 	0.56725	0.43275	0.12331	-0.474
Mof_C 	C 	0.51025	0.48975	0.01857	-0.012
Mof_C 	C 	0.54871	0.45129	0.08747	0.205
Mof_C 	C 	0.58693	0.41307	0.09757	0.843
Mof_C 	C 	0.59491	0.40509	0.03767	-1.539
Mof_H 	H 	0.58273	0.41727	0.01047	0.467
Mof_C 	C 	0.60598	0.39402	0.14177	-1.306
Mof_H 	H 	0.60033	0.39967	0.18177	0.409
Mof_O 	O 	0.53216	0.76608	0.45664	-0.474
Mof_C 	C 	0.64616	0.82308	0.3519	-0.012
Mof_C 	C 	0.56924	0.78462	0.4208	0.205
Mof_C 	C 	0.4928	0.7464	0.4309	0.842
Mof_C 	C 	0.47684	0.73842	0.371	-1.539
Mof_H 	H 	0.5012	0.7506	0.3438	0.467
Mof_C 	C 	0.4547	0.72735	0.4751	-1.306
Mof_H 	H 	0.466	0.733	0.5151	0.409
Mof_O 	O 	0.19883	0.09941	0.78997	-0.474
Mof_C 	C 	0.31283	0.15641	0.68523	-0.012
Mof_C 	C 	0.23591	0.11795	0.75413	0.205
Mof_C 	C 	0.15947	0.07973	0.76423	0.843
Mof_C 	C 	0.14351	0.07175	0.70433	-1.539
Mof_H 	H 	0.16787	0.08393	0.67713	0.467
Mof_C 	C 	0.12137	0.06068	0.80843	-1.306
Mof_H 	H 	0.13267	0.06633	0.84843	0.409
Mof_O 	O 	0.86549	0.43275	0.12331	-0.474
Mof_C 	C 	0.97949	0.48975	0.01857	-0.012
Mof_C 	C 	0.90257	0.45129	0.08747	0.205
Mof_C 	C 	0.82613	0.41307	0.09757	0.843
Mof_C 	C 	0.81017	0.40509	0.03767	-1.539
Mof_H 	H 	0.83453	0.41727	0.01047	0.467
Mof_C 	C 	0.78803	0.39402	0.14177	-1.306
Mof_H 	H 	0.79933	0.39967	0.18177	0.409
Mof_O 	O 	0.23392	0.46784	0.45664	-0.474
Mof_C 	C 	0.17692	0.35384	0.3519	-0.012
Mof_C 	C 	0.21538	0.43076	0.4208	0.205
Mof_C 	C 	0.2536	0.5072	0.4309	0.842
Mof_C 	C 	0.26158	0.52316	0.371	-1.539
Mof_H 	H 	0.2494	0.4988	0.3438	0.467
Mof_C 	C 	0.27265	0.5453	0.4751	-1.306
Mof_H 	H 	0.267	0.534	0.5151	0.409
Mof_O 	O 	0.90059	0.80117	0.78997	-0.474
Mof_C 	C 	0.84359	0.68717	0.68523	-0.012
Mof_C 	C 	0.88205	0.76409	0.75413	0.205
Mof_C 	C 	0.92027	0.84053	0.76423	0.843
Mof_C 	C 	0.92825	0.85649	0.70433	-1.539
Mof_H 	H 	0.91607	0.83213	0.67713	0.467
Mof_C 	C 	0.93932	0.87863	0.80843	-1.306
Mof_H 	H 	0.93367	0.86733	0.84843	0.409
Mof_O 	O 	0.56725	0.13451	0.12331	-0.474
Mof_C 	C 	0.51025	0.02051	0.01857	-0.012
Mof_C 	C 	0.54871	0.09743	0.08747	0.205
Mof_C 	C 	0.58693	0.17387	0.09757	0.843
Mof_C 	C 	0.59491	0.18983	0.03767	-1.539
Mof_H 	H 	0.58273	0.16547	0.01047	0.467
Mof_C 	C 	0.60598	0.21197	0.14177	-1.306
Mof_H 	H 	0.60033	0.20067	0.18177	0.409
_end
