# CIF file generated by openbabel 3.1.0, see https://openbabel.org
data_I
_chemical_name_common 'WOJJOV_clean'
_cell_length_a 21.1012
_cell_length_b 21.1012
_cell_length_c 6.6095
_cell_angle_alpha 90
_cell_angle_beta 90
_cell_angle_gamma 90
_space_group_name_H-M_alt 'P 1'
_space_group_name_Hall 'P 1'
loop_
    _symmetry_equiv_pos_as_xyz
    x,y,z
loop_
    _atom_site_label
    _atom_site_type_symbol
    _atom_site_fract_x
    _atom_site_fract_y
    _atom_site_fract_z
    _atom_site_occupancy
    H1       H        0.06000    0.21000    0.53000    1.000
    H2       H        0.12000    0.32200    0.93900    1.000
    H3       H        0.06000    0.37000    0.65000    1.000
    C4       C        0.13900    0.25300    0.27000    1.000
    C5       C        0.06800    0.25700    0.26000    1.000
    C6       C        0.03400    0.28900    0.09700    1.000
    C7       C        0.03400    0.23000    0.41000    1.000
    C8       C        0.06800    0.32200    0.93900    1.000
    C9       C        0.03400    0.35000    0.77200    1.000
    O10      O        0.17100    0.24800    0.11700    1.000
    O11      O        0.16500    0.25100    0.44700    1.000
    H12      H        0.94000    0.79000    0.53000    1.000
    H13      H        0.88000    0.67800    0.93900    1.000
    H14      H        0.94000    0.63000    0.65000    1.000
    C15      C        0.86100    0.74700    0.27000    1.000
    C16      C        0.93200    0.74300    0.26000    1.000
    C17      C        0.96600    0.71100    0.09700    1.000
    C18      C        0.96600    0.77000    0.41000    1.000
    C19      C        0.93200    0.67800    0.93900    1.000
    C20      C        0.96600    0.65000    0.77200    1.000
    O21      O        0.82900    0.75200    0.11700    1.000
    O22      O        0.83500    0.74900    0.44700    1.000
    H23      H        0.29000    0.56000    0.53000    1.000
    H24      H        0.17800    0.62000    0.93900    1.000
    H25      H        0.13000    0.56000    0.65000    1.000
    C26      C        0.24700    0.63900    0.27000    1.000
    C27      C        0.24300    0.56800    0.26000    1.000
    C28      C        0.21100    0.53400    0.09700    1.000
    C29      C        0.27000    0.53400    0.41000    1.000
    C30      C        0.17800    0.56800    0.93900    1.000
    C31      C        0.15000    0.53400    0.77200    1.000
    O32      O        0.25200    0.67100    0.11700    1.000
    O33      O        0.24900    0.66500    0.44700    1.000
    H34      H        0.71000    0.44000    0.53000    1.000
    H35      H        0.82200    0.38000    0.93900    1.000
    H36      H        0.87000    0.44000    0.65000    1.000
    C37      C        0.75300    0.36100    0.27000    1.000
    C38      C        0.75700    0.43200    0.26000    1.000
    C39      C        0.78900    0.46600    0.09700    1.000
    C40      C        0.73000    0.46600    0.41000    1.000
    C41      C        0.82200    0.43200    0.93900    1.000
    C42      C        0.85000    0.46600    0.77200    1.000
    O43      O        0.74800    0.32900    0.11700    1.000
    O44      O        0.75100    0.33500    0.44700    1.000
    H45      H        0.44000    0.71000    0.47000    1.000
    H46      H        0.38000    0.82200    0.06100    1.000
    H47      H        0.44000    0.87000    0.35000    1.000
    C48      C        0.36100    0.75300    0.73000    1.000
    C49      C        0.43200    0.75700    0.74000    1.000
    C50      C        0.46600    0.78900    0.90300    1.000
    C51      C        0.46600    0.73000    0.59000    1.000
    C52      C        0.43200    0.82200    0.06100    1.000
    C53      C        0.46600    0.85000    0.22800    1.000
    O54      O        0.32900    0.74800    0.88300    1.000
    O55      O        0.33500    0.75100    0.55300    1.000
    H56      H        0.56000    0.29000    0.47000    1.000
    H57      H        0.62000    0.17800    0.06100    1.000
    H58      H        0.56000    0.13000    0.35000    1.000
    C59      C        0.63900    0.24700    0.73000    1.000
    C60      C        0.56800    0.24300    0.74000    1.000
    C61      C        0.53400    0.21100    0.90300    1.000
    C62      C        0.53400    0.27000    0.59000    1.000
    C63      C        0.56800    0.17800    0.06100    1.000
    C64      C        0.53400    0.15000    0.22800    1.000
    O65      O        0.67100    0.25200    0.88300    1.000
    O66      O        0.66500    0.24900    0.55300    1.000
    H67      H        0.21000    0.06000    0.47000    1.000
    H68      H        0.32200    0.12000    0.06100    1.000
    H69      H        0.37000    0.06000    0.35000    1.000
    C70      C        0.25300    0.13900    0.73000    1.000
    C71      C        0.25700    0.06800    0.74000    1.000
    C72      C        0.28900    0.03400    0.90300    1.000
    C73      C        0.23000    0.03400    0.59000    1.000
    C74      C        0.32200    0.06800    0.06100    1.000
    C75      C        0.35000    0.03400    0.22800    1.000
    O76      O        0.24800    0.17100    0.88300    1.000
    O77      O        0.25100    0.16500    0.55300    1.000
    H78      H        0.79000    0.94000    0.47000    1.000
    H79      H        0.67800    0.88000    0.06100    1.000
    H80      H        0.63000    0.94000    0.35000    1.000
    C81      C        0.74700    0.86100    0.73000    1.000
    C82      C        0.74300    0.93200    0.74000    1.000
    C83      C        0.71100    0.96600    0.90300    1.000
    C84      C        0.77000    0.96600    0.59000    1.000
    C85      C        0.67800    0.93200    0.06100    1.000
    C86      C        0.65000    0.96600    0.22800    1.000
    O87      O        0.75200    0.82900    0.88300    1.000
    O88      O        0.74900    0.83500    0.55300    1.000
    H89      H        0.44000    0.29000    0.47000    1.000
    H90      H        0.38000    0.17800    0.06100    1.000
    H91      H        0.44000    0.13000    0.35000    1.000
    C92      C        0.36100    0.24700    0.73000    1.000
    C93      C        0.43200    0.24300    0.74000    1.000
    C94      C        0.46600    0.21100    0.90300    1.000
    C95      C        0.46600    0.27000    0.59000    1.000
    C96      C        0.43200    0.17800    0.06100    1.000
    C97      C        0.46600    0.15000    0.22800    1.000
    O98      O        0.32900    0.25200    0.88300    1.000
    O99      O        0.33500    0.24900    0.55300    1.000
    H100     H        0.56000    0.71000    0.47000    1.000
    H101     H        0.62000    0.82200    0.06100    1.000
    H102     H        0.56000    0.87000    0.35000    1.000
    C103     C        0.63900    0.75300    0.73000    1.000
    C104     C        0.56800    0.75700    0.74000    1.000
    C105     C        0.53400    0.78900    0.90300    1.000
    C106     C        0.53400    0.73000    0.59000    1.000
    C107     C        0.56800    0.82200    0.06100    1.000
    C108     C        0.53400    0.85000    0.22800    1.000
    O109     O        0.67100    0.74800    0.88300    1.000
    O110     O        0.66500    0.75100    0.55300    1.000
    H111     H        0.21000    0.94000    0.47000    1.000
    H112     H        0.32200    0.88000    0.06100    1.000
    H113     H        0.37000    0.94000    0.35000    1.000
    C114     C        0.25300    0.86100    0.73000    1.000
    C115     C        0.25700    0.93200    0.74000    1.000
    C116     C        0.28900    0.96600    0.90300    1.000
    C117     C        0.23000    0.96600    0.59000    1.000
    C118     C        0.32200    0.93200    0.06100    1.000
    C119     C        0.35000    0.96600    0.22800    1.000
    O120     O        0.24800    0.82900    0.88300    1.000
    O121     O        0.25100    0.83500    0.55300    1.000
    H122     H        0.79000    0.06000    0.47000    1.000
    H123     H        0.67800    0.12000    0.06100    1.000
    H124     H        0.63000    0.06000    0.35000    1.000
    C125     C        0.74700    0.13900    0.73000    1.000
    C126     C        0.74300    0.06800    0.74000    1.000
    C127     C        0.71100    0.03400    0.90300    1.000
    C128     C        0.77000    0.03400    0.59000    1.000
    C129     C        0.67800    0.06800    0.06100    1.000
    C130     C        0.65000    0.03400    0.22800    1.000
    O131     O        0.75200    0.17100    0.88300    1.000
    O132     O        0.74900    0.16500    0.55300    1.000
    H133     H        0.06000    0.79000    0.53000    1.000
    H134     H        0.12000    0.67800    0.93900    1.000
    H135     H        0.06000    0.63000    0.65000    1.000
    C136     C        0.13900    0.74700    0.27000    1.000
    C137     C        0.06800    0.74300    0.26000    1.000
    C138     C        0.03400    0.71100    0.09700    1.000
    C139     C        0.03400    0.77000    0.41000    1.000
    C140     C        0.06800    0.67800    0.93900    1.000
    C141     C        0.03400    0.65000    0.77200    1.000
    O142     O        0.17100    0.75200    0.11700    1.000
    O143     O        0.16500    0.74900    0.44700    1.000
    H144     H        0.94000    0.21000    0.53000    1.000
    H145     H        0.88000    0.32200    0.93900    1.000
    H146     H        0.94000    0.37000    0.65000    1.000
    C147     C        0.86100    0.25300    0.27000    1.000
    C148     C        0.93200    0.25700    0.26000    1.000
    C149     C        0.96600    0.28900    0.09700    1.000
    C150     C        0.96600    0.23000    0.41000    1.000
    C151     C        0.93200    0.32200    0.93900    1.000
    C152     C        0.96600    0.35000    0.77200    1.000
    O153     O        0.82900    0.24800    0.11700    1.000
    O154     O        0.83500    0.25100    0.44700    1.000
    H155     H        0.29000    0.44000    0.53000    1.000
    H156     H        0.17800    0.38000    0.93900    1.000
    H157     H        0.13000    0.44000    0.65000    1.000
    C158     C        0.24700    0.36100    0.27000    1.000
    C159     C        0.24300    0.43200    0.26000    1.000
    C160     C        0.21100    0.46600    0.09700    1.000
    C161     C        0.27000    0.46600    0.41000    1.000
    C162     C        0.17800    0.43200    0.93900    1.000
    C163     C        0.15000    0.46600    0.77200    1.000
    O164     O        0.25200    0.32900    0.11700    1.000
    O165     O        0.24900    0.33500    0.44700    1.000
    H166     H        0.71000    0.56000    0.53000    1.000
    H167     H        0.82200    0.62000    0.93900    1.000
    H168     H        0.87000    0.56000    0.65000    1.000
    C169     C        0.75300    0.63900    0.27000    1.000
    C170     C        0.75700    0.56800    0.26000    1.000
    C171     C        0.78900    0.53400    0.09700    1.000
    C172     C        0.73000    0.53400    0.41000    1.000
    C173     C        0.82200    0.56800    0.93900    1.000
    C174     C        0.85000    0.53400    0.77200    1.000
    O175     O        0.74800    0.67100    0.11700    1.000
    O176     O        0.75100    0.66500    0.44700    1.000
    H177     H        0.30470    0.19530    0.28500    1.000
    O178     O        0.28100    0.21900    0.28500    1.000
    H179     H        0.69530    0.80470    0.28500    1.000
    O180     O        0.71900    0.78100    0.28500    1.000
    H181     H        0.30470    0.80470    0.28500    1.000
    O182     O        0.28100    0.78100    0.28500    1.000
    H183     H        0.69530    0.19530    0.28500    1.000
    O184     O        0.71900    0.21900    0.28500    1.000
    H185     H        0.19530    0.69530    0.71500    1.000
    O186     O        0.21900    0.71900    0.71500    1.000
    H187     H        0.80470    0.30470    0.71500    1.000
    O188     O        0.78100    0.28100    0.71500    1.000
    H189     H        0.19530    0.30470    0.71500    1.000
    O190     O        0.21900    0.28100    0.71500    1.000
    H191     H        0.80470    0.69530    0.71500    1.000
    O192     O        0.78100    0.71900    0.71500    1.000
    Al193    Al       0.25000    0.75000    0.00000    1.000
    Al194    Al       0.75000    0.25000    0.00000    1.000
    Al195    Al       0.75000    0.75000    0.00000    1.000
    Al196    Al       0.25000    0.25000    0.00000    1.000
    Al197    Al       0.25000    0.75000    0.50000    1.000
    Al198    Al       0.75000    0.25000    0.50000    1.000
    Al199    Al       0.75000    0.75000    0.50000    1.000
    Al200    Al       0.25000    0.25000    0.50000    1.000
