data_functionalizedCrystal
_audit_creation_method	'EQeq! by Chris Wilmer'
_symmetry_space_group_name_H-M	'P1'
_symmetry_Int_Tables_number	1
_symmetry_cell_setting	triclinic
loop_
_symmetry_equiv_pos_as_xyz
  x,y,z
_cell_length_a	10.0613
_cell_length_b	11.993
_cell_length_c	26.359
_cell_angle_alpha	90
_cell_angle_beta	90
_cell_angle_gamma	90
loop_
_atom_site_label
_atom_site_type_symbol
_atom_site_fract_x
_atom_site_fract_y
_atom_site_fract_z
_atom_site_charge
Mof_Ag	Ag	0.71251	0.21511	0.51276	0.676
Mof_Ag	Ag	0.28749	0.21511	0.48724	0.676
Mof_Ag	Ag	0.71251	0.71511	0.98724	0.674
Mof_Ag	Ag	0.28749	0.71511	0.01276	0.674
Mof_H 	H 	0.8097	0.0659	0.3262	0.021
Mof_H 	H 	0.832	0.0644	0.2392	0.101
Mof_H 	H 	0.7235	0.3836	0.2326	0.114
Mof_H 	H 	0.7129	0.3877	0.3207	0.013
Mof_H 	H 	0.5511	0.1454	0.1984	0.132
Mof_H 	H 	0.415	0.0249	0.1567	0.017
Mof_H 	H 	0.6899	0.9883	0.0471	-0.011
Mof_H 	H 	0.8266	0.1103	0.0896	0.13
Mof_H 	H 	0.7296	0.319	0.0881	0.169
Mof_H 	H 	0.8455	0.4535	0.0456	0.037
Mof_H 	H 	0.1223	0.4535	0.1558	0.046
Mof_H 	H 	0.0057	0.3154	0.1972	0.112
Mof_H 	H 	0.1903	0.0659	0.6738	0.022
Mof_H 	H 	0.168	0.0644	0.7608	0.102
Mof_H 	H 	0.2765	0.3836	0.7674	0.114
Mof_H 	H 	0.2871	0.3877	0.6793	0.013
Mof_H 	H 	0.4489	0.1454	0.8016	0.132
Mof_H 	H 	0.585	0.0249	0.8433	0.017
Mof_H 	H 	0.3101	0.9883	0.9529	-0.011
Mof_H 	H 	0.1734	0.1103	0.9104	0.13
Mof_H 	H 	0.2704	0.319	0.9119	0.169
Mof_H 	H 	0.1545	0.4535	0.9544	0.037
Mof_H 	H 	0.8777	0.4535	0.8442	0.046
Mof_H 	H 	0.9943	0.3154	0.8028	0.112
Mof_H 	H 	0.8097	0.5659	0.1738	0.021
Mof_H 	H 	0.832	0.5644	0.2608	0.101
Mof_H 	H 	0.7235	0.8836	0.2674	0.113
Mof_H 	H 	0.7129	0.8877	0.1793	0.012
Mof_H 	H 	0.5511	0.6454	0.3016	0.123
Mof_H 	H 	0.415	0.5249	0.3433	0.027
Mof_H 	H 	0.6899	0.4883	0.4529	0.008
Mof_H 	H 	0.8266	0.6103	0.4104	0.119
Mof_H 	H 	0.7296	0.819	0.4119	0.171
Mof_H 	H 	0.8455	0.9535	0.4544	0.031
Mof_H 	H 	0.1223	0.9535	0.3442	0.04
Mof_H 	H 	0.0057	0.8154	0.3028	0.114
Mof_H 	H 	0.1903	0.5659	0.8262	0.021
Mof_H 	H 	0.168	0.5644	0.7392	0.101
Mof_H 	H 	0.2765	0.8836	0.7326	0.113
Mof_H 	H 	0.2871	0.8877	0.8207	0.012
Mof_H 	H 	0.4489	0.6454	0.6984	0.123
Mof_H 	H 	0.585	0.5249	0.6567	0.027
Mof_H 	H 	0.3101	0.4883	0.5471	0.008
Mof_H 	H 	0.1734	0.6103	0.5896	0.119
Mof_H 	H 	0.2704	0.819	0.5881	0.171
Mof_H 	H 	0.1545	0.9535	0.5456	0.031
Mof_H 	H 	0.8777	0.9535	0.6558	0.04
Mof_H 	H 	0.9943	0.8154	0.6972	0.114
Mof_C 	C 	0.7579	0.2321	0.38641	0.126
Mof_C 	C 	0.7626	0.2289	0.33158	-0.092
Mof_C 	C 	0.7952	0.1305	0.3076	0.064
Mof_C 	C 	0.8059	0.1294	0.2556	-0.178
Mof_C 	C 	0.7784	0.2239	0.22749	0.172
Mof_C 	C 	0.7429	0.3199	0.2514	-0.183
Mof_C 	C 	0.7359	0.322	0.3042	0.064
Mof_C 	C 	0.7006	0.1428	0.14816	0.208
Mof_C 	C 	0.5785	0.1145	0.16775	-0.196
Mof_C 	C 	0.4978	0.0424	0.1432	0.135
Mof_C 	C 	0.5385	0.9937	0.09726	-0.125
Mof_C 	C 	0.662	0.0202	0.07746	0.143
Mof_C 	C 	0.7432	0.0933	0.1027	-0.204
Mof_C 	C 	0.4503	0.9195	0.0706	0.153
Mof_C 	C 	0.8557	0.3029	0.14697	0.189
Mof_C 	C 	0.8089	0.3457	0.1016	-0.192
Mof_C 	C 	0.8774	0.4263	0.07633	0.094
Mof_C 	C 	0.9951	0.4679	0.09651	-0.088
Mof_C 	C 	0.0436	0.4262	0.1421	0.083
Mof_C 	C 	0.9735	0.344	0.16674	-0.169
Mof_C 	C 	0.0697	0.5513	0.0703	0.162
Mof_C 	C 	0.2421	0.2321	0.61359	0.126
Mof_C 	C 	0.2374	0.2289	0.66842	-0.092
Mof_C 	C 	0.2048	0.1305	0.6924	0.064
Mof_C 	C 	0.1941	0.1294	0.7444	-0.178
Mof_C 	C 	0.2216	0.2239	0.77251	0.172
Mof_C 	C 	0.2571	0.3199	0.7486	-0.183
Mof_C 	C 	0.2641	0.322	0.6958	0.064
Mof_C 	C 	0.2994	0.1428	0.85184	0.208
Mof_C 	C 	0.4215	0.1145	0.83225	-0.196
Mof_C 	C 	0.5022	0.0424	0.8568	0.135
Mof_C 	C 	0.4615	0.9937	0.90274	-0.125
Mof_C 	C 	0.338	0.0202	0.92254	0.143
Mof_C 	C 	0.2568	0.0933	0.8973	-0.204
Mof_C 	C 	0.5497	0.9195	0.9294	0.153
Mof_C 	C 	0.1443	0.3029	0.85303	0.189
Mof_C 	C 	0.1911	0.3457	0.8984	-0.192
Mof_C 	C 	0.1226	0.4263	0.92367	0.094
Mof_C 	C 	0.0049	0.4679	0.90349	-0.088
Mof_C 	C 	0.9564	0.4262	0.8579	0.083
Mof_C 	C 	0.0265	0.344	0.83326	-0.169
Mof_C 	C 	0.9303	0.5513	0.9297	0.162
Mof_C 	C 	0.7579	0.7321	0.11359	0.125
Mof_C 	C 	0.7626	0.7289	0.16842	-0.093
Mof_C 	C 	0.7952	0.6305	0.1924	0.063
Mof_C 	C 	0.8059	0.6294	0.2444	-0.178
Mof_C 	C 	0.7784	0.7239	0.27251	0.171
Mof_C 	C 	0.7429	0.8199	0.2486	-0.182
Mof_C 	C 	0.7359	0.822	0.1958	0.063
Mof_C 	C 	0.7006	0.6428	0.35184	0.19
Mof_C 	C 	0.5785	0.6145	0.33225	-0.172
Mof_C 	C 	0.4978	0.5424	0.3568	0.102
Mof_C 	C 	0.5385	0.4937	0.40274	-0.089
Mof_C 	C 	0.662	0.5202	0.42254	0.098
Mof_C 	C 	0.7432	0.5933	0.3973	-0.176
Mof_C 	C 	0.4503	0.4195	0.4294	0.143
Mof_C 	C 	0.8557	0.8029	0.35303	0.192
Mof_C 	C 	0.8089	0.8457	0.3984	-0.199
Mof_C 	C 	0.8774	0.9263	0.42367	0.102
Mof_C 	C 	0.9951	0.9679	0.40349	-0.102
Mof_C 	C 	0.0436	0.9262	0.3579	0.092
Mof_C 	C 	0.9735	0.844	0.33326	-0.177
Mof_C 	C 	0.0697	0.0513	0.4297	0.173
Mof_C 	C 	0.2421	0.7321	0.88641	0.125
Mof_C 	C 	0.2374	0.7289	0.83158	-0.093
Mof_C 	C 	0.2048	0.6305	0.8076	0.063
Mof_C 	C 	0.1941	0.6294	0.7556	-0.178
Mof_C 	C 	0.2216	0.7239	0.72749	0.171
Mof_C 	C 	0.2571	0.8199	0.7514	-0.182
Mof_C 	C 	0.2641	0.822	0.8042	0.063
Mof_C 	C 	0.2994	0.6428	0.64816	0.19
Mof_C 	C 	0.4215	0.6145	0.66775	-0.172
Mof_C 	C 	0.5022	0.5424	0.6432	0.102
Mof_C 	C 	0.4615	0.4937	0.59726	-0.089
Mof_C 	C 	0.338	0.5202	0.57746	0.098
Mof_C 	C 	0.2568	0.5933	0.6027	-0.176
Mof_C 	C 	0.5497	0.4195	0.5706	0.143
Mof_C 	C 	0.1443	0.8029	0.64697	0.192
Mof_C 	C 	0.1911	0.8457	0.6016	-0.199
Mof_C 	C 	0.1226	0.9263	0.57633	0.102
Mof_C 	C 	0.0049	0.9679	0.59651	-0.102
Mof_C 	C 	0.9564	0.9262	0.6421	0.092
Mof_C 	C 	0.0265	0.844	0.66674	-0.177
Mof_C 	C 	0.9303	0.0513	0.5703	0.173
Mof_N 	N 	0.7548	0.2374	0.42897	-0.213
Mof_N 	N 	0.7843	0.2195	0.17332	-0.189
Mof_N 	N 	0.3829	0.8602	0.0496	-0.227
Mof_N 	N 	0.1269	0.6172	0.04914	-0.212
Mof_N 	N 	0.2452	0.2374	0.57103	-0.213
Mof_N 	N 	0.2157	0.2195	0.82668	-0.189
Mof_N 	N 	0.6171	0.8602	0.9504	-0.227
Mof_N 	N 	0.8731	0.6172	0.95086	-0.212
Mof_N 	N 	0.7548	0.7374	0.07103	-0.213
Mof_N 	N 	0.7843	0.7195	0.32668	-0.187
Mof_N 	N 	0.3829	0.3602	0.4504	-0.223
Mof_N 	N 	0.1269	0.1172	0.45086	-0.214
Mof_N 	N 	0.2452	0.7374	0.92897	-0.213
Mof_N 	N 	0.2157	0.7195	0.67332	-0.187
Mof_N 	N 	0.6171	0.3602	0.5496	-0.223
Mof_N 	N 	0.8731	0.1172	0.54914	-0.214
Mof_C 	C 	0.3888	0.3468	0.0851	0.793
Mof_S 	S 	0.46436	0.45549	0.12237	0.323
Mof_O 	O 	0.5297	0.3985	0.16207	-0.193
Mof_O 	O 	0.3522	0.5221	0.1367	-0.201
Mof_O 	O 	0.5507	0.5061	0.0863	-0.205
Mof_F 	F 	0.3183	0.3828	0.0469	-0.478
Mof_F 	F 	0.3071	0.2836	0.1122	-0.47
Mof_F 	F 	0.4782	0.2745	0.0661	-0.442
Mof_C 	C 	0.6112	0.3468	0.9149	0.793
Mof_S 	S 	0.53564	0.45549	0.87763	0.323
Mof_O 	O 	0.4703	0.3985	0.83793	-0.193
Mof_O 	O 	0.6478	0.5221	0.8633	-0.201
Mof_O 	O 	0.4493	0.5061	0.9137	-0.205
Mof_F 	F 	0.6817	0.3828	0.9531	-0.478
Mof_F 	F 	0.6929	0.2836	0.8878	-0.47
Mof_F 	F 	0.5218	0.2745	0.9339	-0.442
Mof_C 	C 	0.3888	0.8468	0.4149	0.796
Mof_S 	S 	0.46436	0.95549	0.37763	0.305
Mof_O 	O 	0.5297	0.8985	0.33793	-0.191
Mof_O 	O 	0.3522	0.0221	0.3633	-0.192
Mof_O 	O 	0.5507	0.0061	0.4137	-0.197
Mof_F 	F 	0.3183	0.8828	0.4531	-0.48
Mof_F 	F 	0.3071	0.7836	0.3878	-0.471
Mof_F 	F 	0.4782	0.7745	0.4339	-0.443
Mof_C 	C 	0.6112	0.8468	0.5851	0.796
Mof_S 	S 	0.53564	0.95549	0.62237	0.305
Mof_O 	O 	0.4703	0.8985	0.66207	-0.191
Mof_O 	O 	0.6478	0.0221	0.6367	-0.192
Mof_O 	O 	0.4493	0.0061	0.5863	-0.197
Mof_F 	F 	0.6817	0.8828	0.5469	-0.48
Mof_F 	F 	0.6929	0.7836	0.6122	-0.471
Mof_F 	F 	0.5218	0.7745	0.5661	-0.443
_end
