data_functionalizedCrystal
_audit_creation_method	'EQeq! by Chris Wilmer'
_symmetry_space_group_name_H-M	'P1'
_symmetry_Int_Tables_number	1
_symmetry_cell_setting	triclinic
loop_
_symmetry_equiv_pos_as_xyz
  x,y,z
_cell_length_a	20.1547
_cell_length_b	20.1547
_cell_length_c	15.905
_cell_angle_alpha	90
_cell_angle_beta	90
_cell_angle_gamma	90
loop_
_atom_site_label
_atom_site_type_symbol
_atom_site_fract_x
_atom_site_fract_y
_atom_site_fract_z
_atom_site_charge
Mof_Y 	Y 	0.29266	0.17302	0.90881	1.311
Mof_Y 	Y 	0.29327	0.8191	0.83083	1.415
Mof_C 	C 	0.2779	0.9981	0.8487	0.159
Mof_H 	H 	0.2462	0.0031	0.8067	-0.042
Mof_C 	C 	0.3472	0.0194	0.9431	-0.074
Mof_C 	C 	0.3436	0.9508	0.9358	-0.045
Mof_C 	C 	0.3781	0.8949	0.9743	0.375
Mof_C 	C 	0.3828	0.0629	0.9996	0.351
Mof_C 	C 	0.1625	0.078	0.9736	0.135
Mof_H 	H 	0.1577	0.059	0.9207	-0.038
Mof_C 	C 	0.1967	0.1406	0.0733	-0.042
Mof_C 	C 	0.1471	0.0996	0.103	-0.05
Mof_C 	C 	0.1186	0.087	0.1872	0.363
Mof_C 	C 	0.2379	0.1928	0.1089	0.339
Mof_N 	N 	0.2995	0.9369	0.8734	-0.196
Mof_N 	N 	0.3036	0.0485	0.8862	-0.2
Mof_N 	N 	0.2061	0.1255	0.9898	-0.218
Mof_N 	N 	0.1265	0.0599	0.0391	-0.205
Mof_O 	O 	0.3657	0.8383	0.9431	-0.404
Mof_O 	O 	0.4177	0.9009	0.0348	-0.429
Mof_O 	O 	0.4143	0.0424	0.0626	-0.41
Mof_O 	O 	0.3799	0.1248	0.9836	-0.398
Mof_O 	O 	0.0808	0.0367	0.1925	-0.384
Mof_O 	O 	0.1327	0.125	0.2472	-0.426
Mof_O 	O 	0.2298	0.2167	0.1824	-0.482
Mof_O 	O 	0.2827	0.2165	0.0623	-0.414
Mof_Y 	Y 	0.79266	0.67302	0.40881	1.315
Mof_Y 	Y 	0.79327	0.3191	0.33083	1.415
Mof_C 	C 	0.7779	0.4981	0.3487	0.144
Mof_H 	H 	0.7462	0.5031	0.3067	-0.032
Mof_C 	C 	0.8472	0.5194	0.4431	-0.068
Mof_C 	C 	0.8436	0.4508	0.4358	-0.05
Mof_C 	C 	0.8781	0.3949	0.4743	0.37
Mof_C 	C 	0.8828	0.5629	0.4996	0.36
Mof_C 	C 	0.6625	0.578	0.4736	0.145
Mof_H 	H 	0.6577	0.559	0.4207	-0.038
Mof_C 	C 	0.6967	0.6406	0.5733	-0.046
Mof_C 	C 	0.6471	0.5996	0.603	-0.049
Mof_C 	C 	0.6186	0.587	0.6872	0.364
Mof_C 	C 	0.7379	0.6928	0.6089	0.341
Mof_N 	N 	0.7995	0.4369	0.3734	-0.192
Mof_N 	N 	0.8036	0.5485	0.3862	-0.195
Mof_N 	N 	0.7061	0.6255	0.4898	-0.215
Mof_N 	N 	0.6265	0.5599	0.5391	-0.21
Mof_O 	O 	0.8657	0.3383	0.4431	-0.403
Mof_O 	O 	0.9177	0.4009	0.5348	-0.423
Mof_O 	O 	0.9143	0.5424	0.5626	-0.419
Mof_O 	O 	0.8799	0.6248	0.4836	-0.398
Mof_O 	O 	0.5808	0.5367	0.6925	-0.388
Mof_O 	O 	0.6327	0.625	0.7472	-0.426
Mof_O 	O 	0.7298	0.7167	0.6824	-0.482
Mof_O 	O 	0.7827	0.7165	0.5623	-0.417
Mof_Y 	Y 	0.20734	0.82698	0.40881	1.315
Mof_Y 	Y 	0.20673	0.1809	0.33083	1.415
Mof_C 	C 	0.2221	0.0019	0.3487	0.153
Mof_H 	H 	0.2538	0.9969	0.3067	-0.037
Mof_C 	C 	0.1528	0.9806	0.4431	-0.07
Mof_C 	C 	0.1564	0.0492	0.4358	-0.048
Mof_C 	C 	0.1219	0.1051	0.4743	0.369
Mof_C 	C 	0.1172	0.9371	0.4996	0.36
Mof_C 	C 	0.3375	0.922	0.4736	0.145
Mof_H 	H 	0.3423	0.941	0.4207	-0.039
Mof_C 	C 	0.3033	0.8594	0.5733	-0.046
Mof_C 	C 	0.3529	0.9004	0.603	-0.048
Mof_C 	C 	0.3814	0.913	0.6872	0.364
Mof_C 	C 	0.2621	0.8072	0.6089	0.341
Mof_N 	N 	0.2005	0.0631	0.3734	-0.194
Mof_N 	N 	0.1964	0.9515	0.3862	-0.197
Mof_N 	N 	0.2939	0.8745	0.4898	-0.215
Mof_N 	N 	0.3735	0.9401	0.5391	-0.21
Mof_O 	O 	0.1343	0.1617	0.4431	-0.403
Mof_O 	O 	0.0823	0.0991	0.5348	-0.422
Mof_O 	O 	0.0857	0.9576	0.5626	-0.419
Mof_O 	O 	0.1201	0.8752	0.4836	-0.398
Mof_O 	O 	0.4192	0.9633	0.6925	-0.387
Mof_O 	O 	0.3673	0.875	0.7472	-0.426
Mof_O 	O 	0.2702	0.7833	0.6824	-0.482
Mof_O 	O 	0.2173	0.7835	0.5623	-0.417
Mof_Y 	Y 	0.70734	0.32698	0.90881	1.312
Mof_Y 	Y 	0.70673	0.6809	0.83083	1.415
Mof_C 	C 	0.7221	0.5019	0.8487	0.144
Mof_H 	H 	0.7538	0.4969	0.8067	-0.032
Mof_C 	C 	0.6528	0.4806	0.9431	-0.068
Mof_C 	C 	0.6564	0.5492	0.9358	-0.05
Mof_C 	C 	0.6219	0.6051	0.9743	0.372
Mof_C 	C 	0.6172	0.4371	0.9996	0.359
Mof_C 	C 	0.8375	0.422	0.9736	0.144
Mof_H 	H 	0.8423	0.441	0.9207	-0.038
Mof_C 	C 	0.8033	0.3594	0.0733	-0.044
Mof_C 	C 	0.8529	0.4004	0.103	-0.049
Mof_C 	C 	0.8814	0.413	0.1872	0.364
Mof_C 	C 	0.7621	0.3072	0.1089	0.34
Mof_N 	N 	0.7005	0.5631	0.8734	-0.192
Mof_N 	N 	0.6964	0.4515	0.8862	-0.195
Mof_N 	N 	0.7939	0.3745	0.9898	-0.216
Mof_N 	N 	0.8735	0.4401	0.0391	-0.21
Mof_O 	O 	0.6343	0.6617	0.9431	-0.403
Mof_O 	O 	0.5823	0.5991	0.0348	-0.425
Mof_O 	O 	0.5857	0.4576	0.0626	-0.418
Mof_O 	O 	0.6201	0.3752	0.9836	-0.399
Mof_O 	O 	0.9192	0.4633	0.1925	-0.388
Mof_O 	O 	0.8673	0.375	0.2472	-0.426
Mof_O 	O 	0.7702	0.2833	0.1824	-0.482
Mof_O 	O 	0.7173	0.2835	0.0623	-0.416
Mof_Y 	Y 	0.57698	0.54266	0.15881	1.315
Mof_Y 	Y 	0.9309	0.54327	0.08083	1.413
Mof_C 	C 	0.7519	0.5279	0.0987	0.143
Mof_H 	H 	0.7469	0.4962	0.0567	-0.032
Mof_C 	C 	0.7306	0.5972	0.1931	-0.068
Mof_C 	C 	0.7992	0.5936	0.1858	-0.05
Mof_C 	C 	0.8551	0.6281	0.2243	0.37
Mof_C 	C 	0.6871	0.6328	0.2496	0.36
Mof_C 	C 	0.672	0.4125	0.2236	0.145
Mof_H 	H 	0.691	0.4077	0.1707	-0.038
Mof_C 	C 	0.6094	0.4467	0.3233	-0.046
Mof_C 	C 	0.6504	0.3971	0.353	-0.049
Mof_C 	C 	0.663	0.3686	0.4372	0.364
Mof_C 	C 	0.5572	0.4879	0.3589	0.341
Mof_N 	N 	0.8131	0.5495	0.1234	-0.193
Mof_N 	N 	0.7015	0.5536	0.1362	-0.195
Mof_N 	N 	0.6245	0.4561	0.2398	-0.215
Mof_N 	N 	0.6901	0.3765	0.2891	-0.21
Mof_O 	O 	0.9117	0.6157	0.1931	-0.403
Mof_O 	O 	0.8491	0.6677	0.2848	-0.423
Mof_O 	O 	0.7076	0.6643	0.3126	-0.419
Mof_O 	O 	0.6252	0.6299	0.2336	-0.398
Mof_O 	O 	0.7133	0.3308	0.4425	-0.389
Mof_O 	O 	0.625	0.3827	0.4972	-0.426
Mof_O 	O 	0.5333	0.4798	0.4324	-0.482
Mof_O 	O 	0.5335	0.5327	0.3123	-0.417
Mof_Y 	Y 	0.07698	0.04266	0.65881	1.313
Mof_Y 	Y 	0.4309	0.04327	0.58083	1.413
Mof_C 	C 	0.2519	0.0279	0.5987	0.142
Mof_H 	H 	0.2469	0.9962	0.5567	-0.031
Mof_C 	C 	0.2306	0.0972	0.6931	-0.068
Mof_C 	C 	0.2992	0.0936	0.6858	-0.05
Mof_C 	C 	0.3551	0.1281	0.7243	0.369
Mof_C 	C 	0.1871	0.1328	0.7496	0.36
Mof_C 	C 	0.172	0.9125	0.7236	0.146
Mof_H 	H 	0.191	0.9077	0.6707	-0.038
Mof_C 	C 	0.1094	0.9467	0.8233	-0.046
Mof_C 	C 	0.1504	0.8971	0.853	-0.047
Mof_C 	C 	0.163	0.8686	0.9372	0.363
Mof_C 	C 	0.0572	0.9879	0.8589	0.346
Mof_N 	N 	0.3131	0.0495	0.6234	-0.192
Mof_N 	N 	0.2015	0.0536	0.6362	-0.195
Mof_N 	N 	0.1245	0.9561	0.7398	-0.214
Mof_N 	N 	0.1901	0.8765	0.7891	-0.211
Mof_O 	O 	0.4117	0.1157	0.6931	-0.403
Mof_O 	O 	0.3491	0.1677	0.7848	-0.423
Mof_O 	O 	0.2076	0.1643	0.8126	-0.419
Mof_O 	O 	0.1252	0.1299	0.7336	-0.398
Mof_O 	O 	0.2133	0.8308	0.9425	-0.387
Mof_O 	O 	0.125	0.8827	0.9972	-0.422
Mof_O 	O 	0.0333	0.9798	0.9324	-0.478
Mof_O 	O 	0.0335	0.0327	0.8123	-0.421
Mof_Y 	Y 	0.92302	0.45734	0.65881	1.315
Mof_Y 	Y 	0.5691	0.45673	0.58083	1.415
Mof_C 	C 	0.7481	0.4721	0.5987	0.144
Mof_H 	H 	0.7531	0.5038	0.5567	-0.032
Mof_C 	C 	0.7694	0.4028	0.6931	-0.068
Mof_C 	C 	0.7008	0.4064	0.6858	-0.05
Mof_C 	C 	0.6449	0.3719	0.7243	0.37
Mof_C 	C 	0.8129	0.3672	0.7496	0.36
Mof_C 	C 	0.828	0.5875	0.7236	0.145
Mof_H 	H 	0.809	0.5923	0.6707	-0.038
Mof_C 	C 	0.8906	0.5533	0.8233	-0.046
Mof_C 	C 	0.8496	0.6029	0.853	-0.049
Mof_C 	C 	0.837	0.6314	0.9372	0.364
Mof_C 	C 	0.9428	0.5121	0.8589	0.341
Mof_N 	N 	0.6869	0.4505	0.6234	-0.192
Mof_N 	N 	0.7985	0.4464	0.6362	-0.195
Mof_N 	N 	0.8755	0.5439	0.7398	-0.215
Mof_N 	N 	0.8099	0.6235	0.7891	-0.21
Mof_O 	O 	0.5883	0.3843	0.6931	-0.403
Mof_O 	O 	0.6509	0.3323	0.7848	-0.423
Mof_O 	O 	0.7924	0.3357	0.8126	-0.419
Mof_O 	O 	0.8748	0.3701	0.7336	-0.399
Mof_O 	O 	0.7867	0.6692	0.9425	-0.388
Mof_O 	O 	0.875	0.6173	0.9972	-0.426
Mof_O 	O 	0.9667	0.5202	0.9324	-0.482
Mof_O 	O 	0.9665	0.4673	0.8123	-0.417
Mof_Y 	Y 	0.42302	0.95734	0.15881	1.308
Mof_Y 	Y 	0.0691	0.95673	0.08083	1.399
Mof_C 	C 	0.2481	0.9721	0.0987	0.128
Mof_H 	H 	0.2531	0.0038	0.0567	-0.021
Mof_C 	C 	0.2694	0.9028	0.1931	-0.068
Mof_C 	C 	0.2008	0.9064	0.1858	-0.05
Mof_C 	C 	0.1449	0.8719	0.2243	0.369
Mof_C 	C 	0.3129	0.8672	0.2496	0.36
Mof_C 	C 	0.328	0.0875	0.2236	0.146
Mof_H 	H 	0.309	0.0923	0.1707	-0.037
Mof_C 	C 	0.3906	0.0533	0.3233	-0.046
Mof_C 	C 	0.3496	0.1029	0.353	-0.048
Mof_C 	C 	0.337	0.1314	0.4372	0.364
Mof_C 	C 	0.4428	0.0121	0.3589	0.345
Mof_N 	N 	0.1869	0.9505	0.1234	-0.191
Mof_N 	N 	0.2985	0.9464	0.1362	-0.193
Mof_N 	N 	0.3755	0.0439	0.2398	-0.213
Mof_N 	N 	0.3099	0.1235	0.2891	-0.21
Mof_O 	O 	0.0883	0.8843	0.1931	-0.403
Mof_O 	O 	0.1509	0.8323	0.2848	-0.423
Mof_O 	O 	0.2924	0.8357	0.3126	-0.419
Mof_O 	O 	0.3748	0.8701	0.2336	-0.398
Mof_O 	O 	0.2867	0.1692	0.4425	-0.388
Mof_O 	O 	0.375	0.1173	0.4972	-0.426
Mof_O 	O 	0.4667	0.0202	0.4324	-0.482
Mof_O 	O 	0.4665	0.9673	0.3123	-0.419
Mof_Y 	Y 	0.70734	0.82698	0.09119	1.312
Mof_Y 	Y 	0.70673	0.1809	0.16917	1.416
Mof_C 	C 	0.7221	0.0019	0.1513	0.16
Mof_H 	H 	0.7538	0.9969	0.1933	-0.041
Mof_C 	C 	0.6528	0.9806	0.0569	-0.073
Mof_C 	C 	0.6564	0.0492	0.0642	-0.044
Mof_C 	C 	0.6219	0.1051	0.0257	0.376
Mof_C 	C 	0.6172	0.9371	0.0004	0.352
Mof_C 	C 	0.8375	0.922	0.0264	0.136
Mof_H 	H 	0.8423	0.941	0.0793	-0.037
Mof_C 	C 	0.8033	0.8594	0.9267	-0.041
Mof_C 	C 	0.8529	0.9004	0.897	-0.049
Mof_C 	C 	0.8814	0.913	0.8128	0.364
Mof_C 	C 	0.7621	0.8072	0.8911	0.34
Mof_N 	N 	0.7005	0.0631	0.1266	-0.195
Mof_N 	N 	0.6964	0.9515	0.1138	-0.199
Mof_N 	N 	0.7939	0.8745	0.0102	-0.217
Mof_N 	N 	0.8735	0.9401	0.9609	-0.204
Mof_O 	O 	0.6343	0.1617	0.0569	-0.403
Mof_O 	O 	0.5823	0.0991	0.9652	-0.428
Mof_O 	O 	0.5857	0.9576	0.9374	-0.41
Mof_O 	O 	0.6201	0.8752	0.0164	-0.398
Mof_O 	O 	0.9192	0.9633	0.8075	-0.384
Mof_O 	O 	0.8673	0.875	0.7528	-0.426
Mof_O 	O 	0.7702	0.7833	0.8176	-0.482
Mof_O 	O 	0.7173	0.7835	0.9377	-0.414
Mof_Y 	Y 	0.20734	0.32698	0.59119	1.315
Mof_Y 	Y 	0.20673	0.6809	0.66917	1.415
Mof_C 	C 	0.2221	0.5019	0.6513	0.144
Mof_H 	H 	0.2538	0.4969	0.6933	-0.032
Mof_C 	C 	0.1528	0.4806	0.5569	-0.068
Mof_C 	C 	0.1564	0.5492	0.5642	-0.05
Mof_C 	C 	0.1219	0.6051	0.5257	0.37
Mof_C 	C 	0.1172	0.4371	0.5004	0.36
Mof_C 	C 	0.3375	0.422	0.5264	0.145
Mof_H 	H 	0.3423	0.441	0.5793	-0.038
Mof_C 	C 	0.3033	0.3594	0.4267	-0.046
Mof_C 	C 	0.3529	0.4004	0.397	-0.049
Mof_C 	C 	0.3814	0.413	0.3128	0.364
Mof_C 	C 	0.2621	0.3072	0.3911	0.341
Mof_N 	N 	0.2005	0.5631	0.6266	-0.192
Mof_N 	N 	0.1964	0.4515	0.6138	-0.195
Mof_N 	N 	0.2939	0.3745	0.5102	-0.215
Mof_N 	N 	0.3735	0.4401	0.4609	-0.21
Mof_O 	O 	0.1343	0.6617	0.5569	-0.403
Mof_O 	O 	0.0823	0.5991	0.4652	-0.423
Mof_O 	O 	0.0857	0.4576	0.4374	-0.419
Mof_O 	O 	0.1201	0.3752	0.5164	-0.398
Mof_O 	O 	0.4192	0.4633	0.3075	-0.388
Mof_O 	O 	0.3673	0.375	0.2528	-0.426
Mof_O 	O 	0.2702	0.2833	0.3176	-0.482
Mof_O 	O 	0.2173	0.2835	0.4377	-0.417
Mof_Y 	Y 	0.79266	0.17302	0.59119	1.315
Mof_Y 	Y 	0.79327	0.8191	0.66917	1.415
Mof_C 	C 	0.7779	0.9981	0.6513	0.153
Mof_H 	H 	0.7462	0.0031	0.6933	-0.037
Mof_C 	C 	0.8472	0.0194	0.5569	-0.07
Mof_C 	C 	0.8436	0.9508	0.5642	-0.048
Mof_C 	C 	0.8781	0.8949	0.5257	0.369
Mof_C 	C 	0.8828	0.0629	0.5004	0.36
Mof_C 	C 	0.6625	0.078	0.5264	0.145
Mof_H 	H 	0.6577	0.059	0.5793	-0.039
Mof_C 	C 	0.6967	0.1406	0.4267	-0.046
Mof_C 	C 	0.6471	0.0996	0.397	-0.048
Mof_C 	C 	0.6186	0.087	0.3128	0.364
Mof_C 	C 	0.7379	0.1928	0.3911	0.341
Mof_N 	N 	0.7995	0.9369	0.6266	-0.194
Mof_N 	N 	0.8036	0.0485	0.6138	-0.197
Mof_N 	N 	0.7061	0.1255	0.5102	-0.215
Mof_N 	N 	0.6265	0.0599	0.4609	-0.21
Mof_O 	O 	0.8657	0.8383	0.5569	-0.403
Mof_O 	O 	0.9177	0.9009	0.4652	-0.422
Mof_O 	O 	0.9143	0.0424	0.4374	-0.419
Mof_O 	O 	0.8799	0.1248	0.5164	-0.398
Mof_O 	O 	0.5808	0.0367	0.3075	-0.387
Mof_O 	O 	0.6327	0.125	0.2528	-0.426
Mof_O 	O 	0.7298	0.2167	0.3176	-0.482
Mof_O 	O 	0.7827	0.2165	0.4377	-0.417
Mof_Y 	Y 	0.29266	0.67302	0.09119	1.312
Mof_Y 	Y 	0.29327	0.3191	0.16917	1.415
Mof_C 	C 	0.2779	0.4981	0.1513	0.144
Mof_H 	H 	0.2462	0.5031	0.1933	-0.032
Mof_C 	C 	0.3472	0.5194	0.0569	-0.068
Mof_C 	C 	0.3436	0.4508	0.0642	-0.05
Mof_C 	C 	0.3781	0.3949	0.0257	0.372
Mof_C 	C 	0.3828	0.5629	0.0004	0.359
Mof_C 	C 	0.1625	0.578	0.0264	0.144
Mof_H 	H 	0.1577	0.559	0.0793	-0.038
Mof_C 	C 	0.1967	0.6406	0.9267	-0.044
Mof_C 	C 	0.1471	0.5996	0.897	-0.049
Mof_C 	C 	0.1186	0.587	0.8128	0.364
Mof_C 	C 	0.2379	0.6928	0.8911	0.34
Mof_N 	N 	0.2995	0.4369	0.1266	-0.192
Mof_N 	N 	0.3036	0.5485	0.1138	-0.195
Mof_N 	N 	0.2061	0.6255	0.0102	-0.216
Mof_N 	N 	0.1265	0.5599	0.9609	-0.21
Mof_O 	O 	0.3657	0.3383	0.0569	-0.403
Mof_O 	O 	0.4177	0.4009	0.9652	-0.425
Mof_O 	O 	0.4143	0.5424	0.9374	-0.418
Mof_O 	O 	0.3799	0.6248	0.0164	-0.399
Mof_O 	O 	0.0808	0.5367	0.8075	-0.388
Mof_O 	O 	0.1327	0.625	0.7528	-0.426
Mof_O 	O 	0.2298	0.7167	0.8176	-0.482
Mof_O 	O 	0.2827	0.7165	0.9377	-0.416
Mof_Y 	Y 	0.42302	0.45734	0.84119	1.315
Mof_Y 	Y 	0.0691	0.45673	0.91917	1.413
Mof_C 	C 	0.2481	0.4721	0.9013	0.143
Mof_H 	H 	0.2531	0.5038	0.9433	-0.032
Mof_C 	C 	0.2694	0.4028	0.8069	-0.068
Mof_C 	C 	0.2008	0.4064	0.8142	-0.05
Mof_C 	C 	0.1449	0.3719	0.7757	0.37
Mof_C 	C 	0.3129	0.3672	0.7504	0.36
Mof_C 	C 	0.328	0.5875	0.7764	0.145
Mof_H 	H 	0.309	0.5923	0.8293	-0.038
Mof_C 	C 	0.3906	0.5533	0.6767	-0.046
Mof_C 	C 	0.3496	0.6029	0.647	-0.049
Mof_C 	C 	0.337	0.6314	0.5628	0.364
Mof_C 	C 	0.4428	0.5121	0.6411	0.341
Mof_N 	N 	0.1869	0.4505	0.8766	-0.193
Mof_N 	N 	0.2985	0.4464	0.8638	-0.195
Mof_N 	N 	0.3755	0.5439	0.7602	-0.215
Mof_N 	N 	0.3099	0.6235	0.7109	-0.21
Mof_O 	O 	0.0883	0.3843	0.8069	-0.403
Mof_O 	O 	0.1509	0.3323	0.7152	-0.423
Mof_O 	O 	0.2924	0.3357	0.6874	-0.419
Mof_O 	O 	0.3748	0.3701	0.7664	-0.398
Mof_O 	O 	0.2867	0.6692	0.5575	-0.389
Mof_O 	O 	0.375	0.6173	0.5028	-0.426
Mof_O 	O 	0.4667	0.5202	0.5676	-0.482
Mof_O 	O 	0.4665	0.4673	0.6877	-0.417
Mof_Y 	Y 	0.92302	0.95734	0.34119	1.313
Mof_Y 	Y 	0.5691	0.95673	0.41917	1.413
Mof_C 	C 	0.7481	0.9721	0.4013	0.142
Mof_H 	H 	0.7531	0.0038	0.4433	-0.031
Mof_C 	C 	0.7694	0.9028	0.3069	-0.068
Mof_C 	C 	0.7008	0.9064	0.3142	-0.05
Mof_C 	C 	0.6449	0.8719	0.2757	0.369
Mof_C 	C 	0.8129	0.8672	0.2504	0.36
Mof_C 	C 	0.828	0.0875	0.2764	0.146
Mof_H 	H 	0.809	0.0923	0.3293	-0.038
Mof_C 	C 	0.8906	0.0533	0.1767	-0.046
Mof_C 	C 	0.8496	0.1029	0.147	-0.047
Mof_C 	C 	0.837	0.1314	0.0628	0.363
Mof_C 	C 	0.9428	0.0121	0.1411	0.346
Mof_N 	N 	0.6869	0.9505	0.3766	-0.192
Mof_N 	N 	0.7985	0.9464	0.3638	-0.195
Mof_N 	N 	0.8755	0.0439	0.2602	-0.214
Mof_N 	N 	0.8099	0.1235	0.2109	-0.211
Mof_O 	O 	0.5883	0.8843	0.3069	-0.403
Mof_O 	O 	0.6509	0.8323	0.2152	-0.423
Mof_O 	O 	0.7924	0.8357	0.1874	-0.419
Mof_O 	O 	0.8748	0.8701	0.2664	-0.398
Mof_O 	O 	0.7867	0.1692	0.0575	-0.387
Mof_O 	O 	0.875	0.1173	0.0028	-0.422
Mof_O 	O 	0.9667	0.0202	0.0676	-0.478
Mof_O 	O 	0.9665	0.9673	0.1877	-0.421
Mof_Y 	Y 	0.07698	0.54266	0.34119	1.315
Mof_Y 	Y 	0.4309	0.54327	0.41917	1.415
Mof_C 	C 	0.2519	0.5279	0.4013	0.144
Mof_H 	H 	0.2469	0.4962	0.4433	-0.032
Mof_C 	C 	0.2306	0.5972	0.3069	-0.068
Mof_C 	C 	0.2992	0.5936	0.3142	-0.05
Mof_C 	C 	0.3551	0.6281	0.2757	0.37
Mof_C 	C 	0.1871	0.6328	0.2504	0.36
Mof_C 	C 	0.172	0.4125	0.2764	0.145
Mof_H 	H 	0.191	0.4077	0.3293	-0.038
Mof_C 	C 	0.1094	0.4467	0.1767	-0.046
Mof_C 	C 	0.1504	0.3971	0.147	-0.049
Mof_C 	C 	0.163	0.3686	0.0628	0.364
Mof_C 	C 	0.0572	0.4879	0.1411	0.341
Mof_N 	N 	0.3131	0.5495	0.3766	-0.192
Mof_N 	N 	0.2015	0.5536	0.3638	-0.195
Mof_N 	N 	0.1245	0.4561	0.2602	-0.215
Mof_N 	N 	0.1901	0.3765	0.2109	-0.21
Mof_O 	O 	0.4117	0.6157	0.3069	-0.403
Mof_O 	O 	0.3491	0.6677	0.2152	-0.423
Mof_O 	O 	0.2076	0.6643	0.1874	-0.419
Mof_O 	O 	0.1252	0.6299	0.2664	-0.399
Mof_O 	O 	0.2133	0.3308	0.0575	-0.388
Mof_O 	O 	0.125	0.3827	0.0028	-0.426
Mof_O 	O 	0.0333	0.4798	0.0676	-0.482
Mof_O 	O 	0.0335	0.5327	0.1877	-0.417
Mof_Y 	Y 	0.57698	0.04266	0.84119	1.308
Mof_Y 	Y 	0.9309	0.04327	0.91917	1.399
Mof_C 	C 	0.7519	0.0279	0.9013	0.128
Mof_H 	H 	0.7469	0.9962	0.9433	-0.021
Mof_C 	C 	0.7306	0.0972	0.8069	-0.068
Mof_C 	C 	0.7992	0.0936	0.8142	-0.05
Mof_C 	C 	0.8551	0.1281	0.7757	0.369
Mof_C 	C 	0.6871	0.1328	0.7504	0.36
Mof_C 	C 	0.672	0.9125	0.7764	0.146
Mof_H 	H 	0.691	0.9077	0.8293	-0.037
Mof_C 	C 	0.6094	0.9467	0.6767	-0.046
Mof_C 	C 	0.6504	0.8971	0.647	-0.048
Mof_C 	C 	0.663	0.8686	0.5628	0.364
Mof_C 	C 	0.5572	0.9879	0.6411	0.345
Mof_N 	N 	0.8131	0.0495	0.8766	-0.191
Mof_N 	N 	0.7015	0.0536	0.8638	-0.193
Mof_N 	N 	0.6245	0.9561	0.7602	-0.213
Mof_N 	N 	0.6901	0.8765	0.7109	-0.21
Mof_O 	O 	0.9117	0.1157	0.8069	-0.403
Mof_O 	O 	0.8491	0.1677	0.7152	-0.423
Mof_O 	O 	0.7076	0.1643	0.6874	-0.419
Mof_O 	O 	0.6252	0.1299	0.7664	-0.398
Mof_O 	O 	0.7133	0.8308	0.5575	-0.388
Mof_O 	O 	0.625	0.8827	0.5028	-0.426
Mof_O 	O 	0.5333	0.9798	0.5676	-0.482
Mof_O 	O 	0.5335	0.0327	0.6877	-0.419
_end
