# CIF file generated by openbabel 3.1.0, see https://openbabel.org
data_I
_chemical_name_common 'image0'
_cell_length_a 9.2091
_cell_length_b 22.7532
_cell_length_c 23.0902
_cell_angle_alpha 90
_cell_angle_beta 90
_cell_angle_gamma 90
_space_group_name_H-M_alt 'P 1'
_space_group_name_Hall 'P 1'
loop_
    _symmetry_equiv_pos_as_xyz
    x,y,z
loop_
    _atom_site_label
    _atom_site_type_symbol
    _atom_site_fract_x
    _atom_site_fract_y
    _atom_site_fract_z
    _atom_site_occupancy
    Cu1      Cu       0.38884    0.03282    0.53264    1.000
    N1       N        0.49130    0.05180    0.60270    1.000
    N2       N        0.25990    0.00570    0.98780    1.000
    C1       C        0.55060    0.01010    0.63560    1.000
    H1       H        0.55090    0.97160    0.62220    1.000
    C2       C        0.61180    0.02220    0.68890    1.000
    H2       H        0.65230    0.99160    0.71020    1.000
    C3       C        0.61430    0.07660    0.71080    1.000
    C4       C        0.55720    0.11980    0.67590    1.000
    H3       H        0.55960    0.15870    0.68820    1.000
    C5       C        0.49650    0.10610    0.62320    1.000
    H4       H        0.45740    0.13640    0.60090    1.000
    C6       C        0.66380    0.08870    0.77130    1.000
    H5       H        0.68960    0.12980    0.77500    1.000
    H6       H        0.74940    0.06540    0.77970    1.000
    C7       C        0.54410    0.07370    0.81420    1.000
    H7       H        0.46150    0.09910    0.80680    1.000
    H8       H        0.51310    0.03350    0.80750    1.000
    C8       C        0.58700    0.07990    0.87680    1.000
    H9       H        0.60150    0.12120    0.88570    1.000
    H10      H        0.67810    0.05960    0.88330    1.000
    C9       C        0.27830    0.06300    0.98350    1.000
    H11      H        0.21790    0.08730    0.00510    1.000
    C10      C        0.38080    0.08860    0.94910    1.000
    H12      H        0.38870    0.12930    0.94790    1.000
    C11      C        0.47170    0.05480    0.91650    1.000
    C12      C        0.45270    0.99430    0.92080    1.000
    H13      H        0.51160    0.96920    0.89940    1.000
    C13      C        0.34930    0.97180    0.95590    1.000
    H14      H        0.33950    0.93110    0.95820    1.000
    Cu2      Cu       0.11116    0.96718    0.03264    1.000
    N3       N        0.00870    0.94820    0.10270    1.000
    N4       N        0.24010    0.99430    0.48780    1.000
    C14      C        0.94940    0.98990    0.13560    1.000
    H15      H        0.94910    0.02840    0.12220    1.000
    C15      C        0.88820    0.97780    0.18890    1.000
    H16      H        0.84770    0.00840    0.21020    1.000
    C16      C        0.88570    0.92340    0.21080    1.000
    C17      C        0.94280    0.88020    0.17590    1.000
    H17      H        0.94040    0.84130    0.18820    1.000
    C18      C        0.00350    0.89390    0.12320    1.000
    H18      H        0.04260    0.86360    0.10090    1.000
    C19      C        0.83620    0.91130    0.27130    1.000
    H19      H        0.81040    0.87020    0.27500    1.000
    H20      H        0.75060    0.93460    0.27970    1.000
    C20      C        0.95590    0.92630    0.31420    1.000
    H21      H        0.03850    0.90090    0.30680    1.000
    H22      H        0.98690    0.96650    0.30750    1.000
    C21      C        0.91300    0.92010    0.37680    1.000
    H23      H        0.89850    0.87880    0.38570    1.000
    H24      H        0.82190    0.94040    0.38330    1.000
    C22      C        0.22170    0.93700    0.48350    1.000
    H25      H        0.28210    0.91270    0.50510    1.000
    C23      C        0.11920    0.91140    0.44910    1.000
    H26      H        0.11130    0.87070    0.44790    1.000
    C24      C        0.02830    0.94520    0.41650    1.000
    C25      C        0.04730    0.00570    0.42080    1.000
    H27      H        0.98840    0.03080    0.39940    1.000
    C26      C        0.15070    0.02820    0.45590    1.000
    H28      H        0.16050    0.06890    0.45820    1.000
    Cu3      Cu       0.61116    0.53282    0.46736    1.000
    N5       N        0.50870    0.55180    0.39730    1.000
    N6       N        0.74010    0.50570    0.01220    1.000
    C27      C        0.44940    0.51010    0.36440    1.000
    H29      H        0.44910    0.47160    0.37780    1.000
    C28      C        0.38820    0.52220    0.31110    1.000
    H30      H        0.34770    0.49160    0.28980    1.000
    C29      C        0.38570    0.57660    0.28920    1.000
    C30      C        0.44280    0.61980    0.32410    1.000
    H31      H        0.44040    0.65870    0.31180    1.000
    C31      C        0.50350    0.60610    0.37680    1.000
    H32      H        0.54260    0.63640    0.39910    1.000
    C32      C        0.33620    0.58870    0.22870    1.000
    H33      H        0.31040    0.62980    0.22500    1.000
    H34      H        0.25060    0.56540    0.22030    1.000
    C33      C        0.45590    0.57370    0.18580    1.000
    H35      H        0.53850    0.59910    0.19320    1.000
    H36      H        0.48690    0.53350    0.19250    1.000
    C34      C        0.41300    0.57990    0.12320    1.000
    H37      H        0.39850    0.62120    0.11430    1.000
    H38      H        0.32190    0.55960    0.11670    1.000
    C35      C        0.72170    0.56300    0.01650    1.000
    H39      H        0.78210    0.58730    0.99490    1.000
    C36      C        0.61920    0.58860    0.05090    1.000
    H40      H        0.61130    0.62930    0.05210    1.000
    C37      C        0.52830    0.55480    0.08350    1.000
    C38      C        0.54730    0.49430    0.07920    1.000
    H41      H        0.48840    0.46920    0.10060    1.000
    C39      C        0.65070    0.47180    0.04410    1.000
    H42      H        0.66050    0.43110    0.04180    1.000
    Cu4      Cu       0.88884    0.46718    0.96736    1.000
    N7       N        0.99130    0.44820    0.89730    1.000
    N8       N        0.75990    0.49430    0.51220    1.000
    C40      C        0.05060    0.48990    0.86440    1.000
    H43      H        0.05090    0.52840    0.87780    1.000
    C41      C        0.11180    0.47780    0.81110    1.000
    H44      H        0.15230    0.50840    0.78980    1.000
    C42      C        0.11430    0.42340    0.78920    1.000
    C43      C        0.05720    0.38020    0.82410    1.000
    H45      H        0.05960    0.34130    0.81180    1.000
    C44      C        0.99650    0.39390    0.87680    1.000
    H46      H        0.95740    0.36360    0.89910    1.000
    C45      C        0.16380    0.41130    0.72870    1.000
    H47      H        0.18960    0.37020    0.72500    1.000
    H48      H        0.24940    0.43460    0.72030    1.000
    C46      C        0.04410    0.42630    0.68580    1.000
    H49      H        0.96150    0.40090    0.69320    1.000
    H50      H        0.01310    0.46650    0.69250    1.000
    C47      C        0.08700    0.42010    0.62320    1.000
    H51      H        0.10150    0.37880    0.61430    1.000
    H52      H        0.17810    0.44040    0.61670    1.000
    C48      C        0.77830    0.43700    0.51650    1.000
    H53      H        0.71790    0.41270    0.49490    1.000
    C49      C        0.88080    0.41140    0.55090    1.000
    H54      H        0.88870    0.37070    0.55210    1.000
    C50      C        0.97170    0.44520    0.58350    1.000
    C51      C        0.95270    0.50570    0.57920    1.000
    H55      H        0.01160    0.53080    0.60060    1.000
    C52      C        0.84930    0.52820    0.54410    1.000
    H56      H        0.83950    0.56890    0.54180    1.000
    Cu5      Cu       0.61116    0.96718    0.46736    1.000
    N9       N        0.50870    0.94820    0.39730    1.000
    N10      N        0.74010    0.99430    0.01220    1.000
    C53      C        0.44940    0.98990    0.36440    1.000
    H57      H        0.44910    0.02840    0.37780    1.000
    C54      C        0.38820    0.97780    0.31110    1.000
    H58      H        0.34770    0.00840    0.28980    1.000
    C55      C        0.38570    0.92340    0.28920    1.000
    C56      C        0.44280    0.88020    0.32410    1.000
    H59      H        0.44040    0.84130    0.31180    1.000
    C57      C        0.50350    0.89390    0.37680    1.000
    H60      H        0.54260    0.86360    0.39910    1.000
    C58      C        0.33620    0.91130    0.22870    1.000
    H61      H        0.31040    0.87020    0.22500    1.000
    H62      H        0.25060    0.93460    0.22030    1.000
    C59      C        0.45590    0.92630    0.18580    1.000
    H63      H        0.53850    0.90090    0.19320    1.000
    H64      H        0.48690    0.96650    0.19250    1.000
    C60      C        0.41300    0.92010    0.12320    1.000
    H65      H        0.39850    0.87880    0.11430    1.000
    H66      H        0.32190    0.94040    0.11670    1.000
    C61      C        0.72170    0.93700    0.01650    1.000
    H67      H        0.78210    0.91270    0.99490    1.000
    C62      C        0.61920    0.91140    0.05090    1.000
    H68      H        0.61130    0.87070    0.05210    1.000
    C63      C        0.52830    0.94520    0.08350    1.000
    C64      C        0.54730    0.00570    0.07920    1.000
    H69      H        0.48840    0.03080    0.10060    1.000
    C65      C        0.65070    0.02820    0.04410    1.000
    H70      H        0.66050    0.06890    0.04180    1.000
    Cu6      Cu       0.88884    0.03282    0.96736    1.000
    N11      N        0.99130    0.05180    0.89730    1.000
    N12      N        0.75990    0.00570    0.51220    1.000
    C66      C        0.05060    0.01010    0.86440    1.000
    H71      H        0.05090    0.97160    0.87780    1.000
    C67      C        0.11180    0.02220    0.81110    1.000
    H72      H        0.15230    0.99160    0.78980    1.000
    C68      C        0.11430    0.07660    0.78920    1.000
    C69      C        0.05720    0.11980    0.82410    1.000
    H73      H        0.05960    0.15870    0.81180    1.000
    C70      C        0.99650    0.10610    0.87680    1.000
    H74      H        0.95740    0.13640    0.89910    1.000
    C71      C        0.16380    0.08870    0.72870    1.000
    H75      H        0.18960    0.12980    0.72500    1.000
    H76      H        0.24940    0.06540    0.72030    1.000
    C72      C        0.04410    0.07370    0.68580    1.000
    H77      H        0.96150    0.09910    0.69320    1.000
    H78      H        0.01310    0.03350    0.69250    1.000
    C73      C        0.08700    0.07990    0.62320    1.000
    H79      H        0.10150    0.12120    0.61430    1.000
    H80      H        0.17810    0.05960    0.61670    1.000
    C74      C        0.77830    0.06300    0.51650    1.000
    H81      H        0.71790    0.08730    0.49490    1.000
    C75      C        0.88080    0.08860    0.55090    1.000
    H82      H        0.88870    0.12930    0.55210    1.000
    C76      C        0.97170    0.05480    0.58350    1.000
    C77      C        0.95270    0.99430    0.57920    1.000
    H83      H        0.01160    0.96920    0.60060    1.000
    C78      C        0.84930    0.97180    0.54410    1.000
    H84      H        0.83950    0.93110    0.54180    1.000
    Cu7      Cu       0.38884    0.46718    0.53264    1.000
    N13      N        0.49130    0.44820    0.60270    1.000
    N14      N        0.25990    0.49430    0.98780    1.000
    C79      C        0.55060    0.48990    0.63560    1.000
    H85      H        0.55090    0.52840    0.62220    1.000
    C80      C        0.61180    0.47780    0.68890    1.000
    H86      H        0.65230    0.50840    0.71020    1.000
    C81      C        0.61430    0.42340    0.71080    1.000
    C82      C        0.55720    0.38020    0.67590    1.000
    H87      H        0.55960    0.34130    0.68820    1.000
    C83      C        0.49650    0.39390    0.62320    1.000
    H88      H        0.45740    0.36360    0.60090    1.000
    C84      C        0.66380    0.41130    0.77130    1.000
    H89      H        0.68960    0.37020    0.77500    1.000
    H90      H        0.74940    0.43460    0.77970    1.000
    C85      C        0.54410    0.42630    0.81420    1.000
    H91      H        0.46150    0.40090    0.80680    1.000
    H92      H        0.51310    0.46650    0.80750    1.000
    C86      C        0.58700    0.42010    0.87680    1.000
    H93      H        0.60150    0.37880    0.88570    1.000
    H94      H        0.67810    0.44040    0.88330    1.000
    C87      C        0.27830    0.43700    0.98350    1.000
    H95      H        0.21790    0.41270    0.00510    1.000
    C88      C        0.38080    0.41140    0.94910    1.000
    H96      H        0.38870    0.37070    0.94790    1.000
    C89      C        0.47170    0.44520    0.91650    1.000
    C90      C        0.45270    0.50570    0.92080    1.000
    H97      H        0.51160    0.53080    0.89940    1.000
    C91      C        0.34930    0.52820    0.95590    1.000
    H98      H        0.33950    0.56890    0.95820    1.000
    Cu8      Cu       0.11116    0.53282    0.03264    1.000
    N15      N        0.00870    0.55180    0.10270    1.000
    N16      N        0.24010    0.50570    0.48780    1.000
    C92      C        0.94940    0.51010    0.13560    1.000
    H99      H        0.94910    0.47160    0.12220    1.000
    C93      C        0.88820    0.52220    0.18890    1.000
    H100     H        0.84770    0.49160    0.21020    1.000
    C94      C        0.88570    0.57660    0.21080    1.000
    C95      C        0.94280    0.61980    0.17590    1.000
    H101     H        0.94040    0.65870    0.18820    1.000
    C96      C        0.00350    0.60610    0.12320    1.000
    H102     H        0.04260    0.63640    0.10090    1.000
    C97      C        0.83620    0.58870    0.27130    1.000
    H103     H        0.81040    0.62980    0.27500    1.000
    H104     H        0.75060    0.56540    0.27970    1.000
    C98      C        0.95590    0.57370    0.31420    1.000
    H105     H        0.03850    0.59910    0.30680    1.000
    H106     H        0.98690    0.53350    0.30750    1.000
    C99      C        0.91300    0.57990    0.37680    1.000
    H107     H        0.89850    0.62120    0.38570    1.000
    H108     H        0.82190    0.55960    0.38330    1.000
    C100     C        0.22170    0.56300    0.48350    1.000
    H109     H        0.28210    0.58730    0.50510    1.000
    C101     C        0.11920    0.58860    0.44910    1.000
    H110     H        0.11130    0.62930    0.44790    1.000
    C102     C        0.02830    0.55480    0.41650    1.000
    C103     C        0.04730    0.49430    0.42080    1.000
    H111     H        0.98840    0.46920    0.39940    1.000
    C104     C        0.15070    0.47180    0.45590    1.000
    H112     H        0.16050    0.43110    0.45820    1.000
    O1       O        0.46260    0.09720    0.46270    1.000
    O2       O        0.30730    0.15130    0.51190    1.000
    C105     C        0.46400    0.19780    0.44600    1.000
    C106     C        0.55770    0.19610    0.40120    1.000
    H113     H        0.59040    0.16060    0.38610    1.000
    C107     C        0.40550    0.14420    0.47660    1.000
    O3       O        0.46260    0.40280    0.46270    1.000
    O4       O        0.30730    0.34870    0.51190    1.000
    C108     C        0.46400    0.30220    0.44600    1.000
    C109     C        0.55770    0.30390    0.40120    1.000
    H114     H        0.59040    0.33940    0.38610    1.000
    C110     C        0.40550    0.35580    0.47660    1.000
    Cu9      Cu       0.26482    0.25000    0.52734    1.000
    O5       O        0.34820    0.25000    0.69910    1.000
    O6       O        0.38320    0.25000    0.60380    1.000
    O7       O        0.08420    0.25000    0.47380    1.000
    O8       O        0.84320    0.25000    0.47600    1.000
    N17      N        0.10750    0.25000    0.58330    1.000
    N18      N        0.41720    0.25000    0.46720    1.000
    C111     C        0.13940    0.25000    0.64020    1.000
    C112     C        0.02400    0.25000    0.68120    1.000
    H115     H        0.04190    0.25000    0.72090    1.000
    C113     C        0.88800    0.25000    0.65970    1.000
    H116     H        0.81130    0.25000    0.68600    1.000
    C114     C        0.85500    0.25000    0.60400    1.000
    H117     H        0.75890    0.25000    0.59140    1.000
    C115     C        0.97300    0.25000    0.56410    1.000
    C116     C        0.29400    0.25000    0.64950    1.000
    C117     C        0.95800    0.25000    0.49970    1.000
    C118     C        0.60390    0.25000    0.37810    1.000
    H118     H        0.66710    0.25000    0.34670    1.000
    O9       O        0.03740    0.90280    0.96270    1.000
    O10      O        0.19270    0.84870    0.01190    1.000
    C119     C        0.03600    0.80220    0.94600    1.000
    C120     C        0.94230    0.80390    0.90120    1.000
    H119     H        0.90960    0.83940    0.88610    1.000
    C121     C        0.09450    0.85580    0.97660    1.000
    O11      O        0.03740    0.59720    0.96270    1.000
    O12      O        0.19270    0.65130    0.01190    1.000
    C122     C        0.03600    0.69780    0.94600    1.000
    C123     C        0.94230    0.69610    0.90120    1.000
    H120     H        0.90960    0.66060    0.88610    1.000
    C124     C        0.09450    0.64420    0.97660    1.000
    Cu10     Cu       0.23518    0.75000    0.02734    1.000
    O13      O        0.15180    0.75000    0.19910    1.000
    O14      O        0.11680    0.75000    0.10380    1.000
    O15      O        0.41580    0.75000    0.97380    1.000
    O16      O        0.65680    0.75000    0.97600    1.000
    N19      N        0.39250    0.75000    0.08330    1.000
    N20      N        0.08280    0.75000    0.96720    1.000
    C125     C        0.36060    0.75000    0.14020    1.000
    C126     C        0.47600    0.75000    0.18120    1.000
    H121     H        0.45810    0.75000    0.22090    1.000
    C127     C        0.61200    0.75000    0.15970    1.000
    H122     H        0.68870    0.75000    0.18600    1.000
    C128     C        0.64500    0.75000    0.10400    1.000
    H123     H        0.74110    0.75000    0.09140    1.000
    C129     C        0.52700    0.75000    0.06410    1.000
    C130     C        0.20600    0.75000    0.14950    1.000
    C131     C        0.54200    0.75000    0.99970    1.000
    C132     C        0.89610    0.75000    0.87810    1.000
    H124     H        0.83290    0.75000    0.84670    1.000
    O17      O        0.53740    0.59720    0.53730    1.000
    O18      O        0.69270    0.65130    0.48810    1.000
    C133     C        0.53600    0.69780    0.55400    1.000
    C134     C        0.44230    0.69610    0.59880    1.000
    H125     H        0.40960    0.66060    0.61390    1.000
    C135     C        0.59450    0.64420    0.52340    1.000
    O19      O        0.53740    0.90280    0.53730    1.000
    O20      O        0.69270    0.84870    0.48810    1.000
    C136     C        0.53600    0.80220    0.55400    1.000
    C137     C        0.44230    0.80390    0.59880    1.000
    H126     H        0.40960    0.83940    0.61390    1.000
    C138     C        0.59450    0.85580    0.52340    1.000
    Cu11     Cu       0.73518    0.75000    0.47266    1.000
    O21      O        0.65180    0.75000    0.30090    1.000
    O22      O        0.61680    0.75000    0.39620    1.000
    O23      O        0.91580    0.75000    0.52620    1.000
    O24      O        0.15680    0.75000    0.52400    1.000
    N21      N        0.89250    0.75000    0.41670    1.000
    N22      N        0.58280    0.75000    0.53280    1.000
    C139     C        0.86060    0.75000    0.35980    1.000
    C140     C        0.97600    0.75000    0.31880    1.000
    H127     H        0.95810    0.75000    0.27910    1.000
    C141     C        0.11200    0.75000    0.34030    1.000
    H128     H        0.18870    0.75000    0.31400    1.000
    C142     C        0.14500    0.75000    0.39600    1.000
    H129     H        0.24110    0.75000    0.40860    1.000
    C143     C        0.02700    0.75000    0.43590    1.000
    C144     C        0.70600    0.75000    0.35050    1.000
    C145     C        0.04200    0.75000    0.50030    1.000
    C146     C        0.39610    0.75000    0.62190    1.000
    H130     H        0.33290    0.75000    0.65330    1.000
    O25      O        0.96260    0.40280    0.03730    1.000
    O26      O        0.80730    0.34870    0.98810    1.000
    C147     C        0.96400    0.30220    0.05400    1.000
    C148     C        0.05770    0.30390    0.09880    1.000
    H131     H        0.09040    0.33940    0.11390    1.000
    C149     C        0.90550    0.35580    0.02340    1.000
    O27      O        0.96260    0.09720    0.03730    1.000
    O28      O        0.80730    0.15130    0.98810    1.000
    C150     C        0.96400    0.19780    0.05400    1.000
    C151     C        0.05770    0.19610    0.09880    1.000
    H132     H        0.09040    0.16060    0.11390    1.000
    C152     C        0.90550    0.14420    0.02340    1.000
    Cu12     Cu       0.76482    0.25000    0.97266    1.000
    O29      O        0.84820    0.25000    0.80090    1.000
    O30      O        0.88320    0.25000    0.89620    1.000
    O31      O        0.58420    0.25000    0.02620    1.000
    O32      O        0.34320    0.25000    0.02400    1.000
    N23      N        0.60750    0.25000    0.91670    1.000
    N24      N        0.91720    0.25000    0.03280    1.000
    C153     C        0.63940    0.25000    0.85980    1.000
    C154     C        0.52400    0.25000    0.81880    1.000
    H133     H        0.54190    0.25000    0.77910    1.000
    C155     C        0.38800    0.25000    0.84030    1.000
    H134     H        0.31130    0.25000    0.81400    1.000
    C156     C        0.35500    0.25000    0.89600    1.000
    H135     H        0.25890    0.25000    0.90860    1.000
    C157     C        0.47300    0.25000    0.93590    1.000
    C158     C        0.79400    0.25000    0.85050    1.000
    C159     C        0.45800    0.25000    0.00030    1.000
    C160     C        0.10390    0.25000    0.12190    1.000
    H136     H        0.16710    0.25000    0.15330    1.000
