# CIF file generated by openbabel 3.1.0, see https://openbabel.org
data_I
_chemical_name_common 'image0'
_cell_length_a 20.9119
_cell_length_b 16.5299
_cell_length_c 6.9496
_cell_angle_alpha 90
_cell_angle_beta 98.143
_cell_angle_gamma 90
_space_group_name_H-M_alt 'P 1'
_space_group_name_Hall 'P 1'
loop_
    _symmetry_equiv_pos_as_xyz
    x,y,z
loop_
    _atom_site_label
    _atom_site_type_symbol
    _atom_site_fract_x
    _atom_site_fract_y
    _atom_site_fract_z
    _atom_site_occupancy
    C1       C        0.22200    0.24400    0.16000    1.000
    C2       C        0.27800    0.28200    0.16000    1.000
    C3       C        0.31100    0.28800    0.00000    1.000
    C4       C        0.36200    0.34500    0.00000    1.000
    C5       C        0.37800    0.40300    0.13000    1.000
    C6       C        0.40700    0.34400    0.88000    1.000
    F1       F        0.30600    0.32400    0.32000    1.000
    N1       N        0.43200    0.44000    0.11000    1.000
    N2       N        0.44800    0.40400    0.92000    1.000
    H1       H        0.20256    0.23941    0.29527    1.000
    H2       H        0.34883    0.41849    0.24241    1.000
    H3       H        0.40925    0.29856    0.77187    1.000
    C7       C        0.72200    0.74400    0.16000    1.000
    C8       C        0.77800    0.78200    0.16000    1.000
    C9       C        0.81100    0.78800    0.00000    1.000
    C10      C        0.86200    0.84500    0.00000    1.000
    C11      C        0.87800    0.90300    0.13000    1.000
    C12      C        0.90700    0.84400    0.88000    1.000
    F2       F        0.80600    0.82400    0.32000    1.000
    N3       N        0.93200    0.94000    0.11000    1.000
    N4       N        0.94800    0.90400    0.92000    1.000
    H4       H        0.70256    0.73941    0.29527    1.000
    H5       H        0.84883    0.91849    0.24241    1.000
    H6       H        0.90925    0.79856    0.77187    1.000
    C13      C        0.77800    0.24400    0.34000    1.000
    C14      C        0.72200    0.28200    0.34000    1.000
    C15      C        0.68900    0.28800    0.50000    1.000
    C16      C        0.63800    0.34500    0.50000    1.000
    C17      C        0.62200    0.40300    0.37000    1.000
    C18      C        0.59300    0.34400    0.62000    1.000
    F3       F        0.69400    0.32400    0.18000    1.000
    N5       N        0.56800    0.44000    0.39000    1.000
    N6       N        0.55200    0.40400    0.58000    1.000
    H7       H        0.79744    0.23941    0.20473    1.000
    H8       H        0.65117    0.41849    0.25759    1.000
    H9       H        0.59075    0.29856    0.72813    1.000
    C19      C        0.27800    0.74400    0.34000    1.000
    C20      C        0.22200    0.78200    0.34000    1.000
    C21      C        0.18900    0.78800    0.50000    1.000
    C22      C        0.13800    0.84500    0.50000    1.000
    C23      C        0.12200    0.90300    0.37000    1.000
    C24      C        0.09300    0.84400    0.62000    1.000
    F4       F        0.19400    0.82400    0.18000    1.000
    N7       N        0.06800    0.94000    0.39000    1.000
    N8       N        0.05200    0.90400    0.58000    1.000
    H10      H        0.29744    0.73941    0.20473    1.000
    H11      H        0.15117    0.91849    0.25759    1.000
    H12      H        0.09075    0.79856    0.72813    1.000
    C25      C        0.77800    0.75600    0.84000    1.000
    C26      C        0.72200    0.71800    0.84000    1.000
    C27      C        0.68900    0.71200    0.00000    1.000
    C28      C        0.63800    0.65500    0.00000    1.000
    C29      C        0.62200    0.59700    0.87000    1.000
    C30      C        0.59300    0.65600    0.12000    1.000
    F5       F        0.69400    0.67600    0.68000    1.000
    N9       N        0.56800    0.56000    0.89000    1.000
    N10      N        0.55200    0.59600    0.08000    1.000
    H13      H        0.79744    0.76059    0.70473    1.000
    H14      H        0.65117    0.58151    0.75759    1.000
    H15      H        0.59075    0.70144    0.22813    1.000
    C31      C        0.27800    0.25600    0.84000    1.000
    C32      C        0.22200    0.21800    0.84000    1.000
    C33      C        0.18900    0.21200    0.00000    1.000
    C34      C        0.13800    0.15500    0.00000    1.000
    C35      C        0.12200    0.09700    0.87000    1.000
    C36      C        0.09300    0.15600    0.12000    1.000
    F6       F        0.19400    0.17600    0.68000    1.000
    N11      N        0.06800    0.06000    0.89000    1.000
    N12      N        0.05200    0.09600    0.08000    1.000
    H16      H        0.29744    0.26059    0.70473    1.000
    H17      H        0.15117    0.08151    0.75759    1.000
    H18      H        0.09075    0.20144    0.22813    1.000
    C37      C        0.22200    0.75600    0.66000    1.000
    C38      C        0.27800    0.71800    0.66000    1.000
    C39      C        0.31100    0.71200    0.50000    1.000
    C40      C        0.36200    0.65500    0.50000    1.000
    C41      C        0.37800    0.59700    0.63000    1.000
    C42      C        0.40700    0.65600    0.38000    1.000
    F7       F        0.30600    0.67600    0.82000    1.000
    N13      N        0.43200    0.56000    0.61000    1.000
    N14      N        0.44800    0.59600    0.42000    1.000
    H19      H        0.20256    0.76059    0.79527    1.000
    H20      H        0.34883    0.58151    0.74241    1.000
    H21      H        0.40925    0.70144    0.27187    1.000
    C43      C        0.72200    0.25600    0.66000    1.000
    C44      C        0.77800    0.21800    0.66000    1.000
    C45      C        0.81100    0.21200    0.50000    1.000
    C46      C        0.86200    0.15500    0.50000    1.000
    C47      C        0.87800    0.09700    0.63000    1.000
    C48      C        0.90700    0.15600    0.38000    1.000
    F8       F        0.80600    0.17600    0.82000    1.000
    N15      N        0.93200    0.06000    0.61000    1.000
    N16      N        0.94800    0.09600    0.42000    1.000
    H22      H        0.70256    0.26059    0.79527    1.000
    H23      H        0.84883    0.08151    0.74241    1.000
    H24      H        0.90925    0.20144    0.27187    1.000
    Co1      Co       0.50000    0.51610    0.25000    1.000
    Co2      Co       0.00000    0.01610    0.25000    1.000
    Co3      Co       0.50000    0.48390    0.75000    1.000
    Co4      Co       0.00000    0.98390    0.75000    1.000
