data_functionalizedCrystal
_audit_creation_method	'EQeq! by Chris Wilmer'
_symmetry_space_group_name_H-M	'P1'
_symmetry_Int_Tables_number	1
_symmetry_cell_setting	triclinic
loop_
_symmetry_equiv_pos_as_xyz
  x,y,z
_cell_length_a	9.784
_cell_length_b	10.5934
_cell_length_c	13.9456
_cell_angle_alpha	95.606
_cell_angle_beta	105.399
_cell_angle_gamma	100.402
loop_
_atom_site_label
_atom_site_type_symbol
_atom_site_fract_x
_atom_site_fract_y
_atom_site_fract_z
_atom_site_charge
Mof_Nd	Nd	0.24259	0.01418	0.96855	2.257
Mof_Nd	Nd	0.13877	0.55399	0.6388	2.262
Mof_O 	O 	0.622	0.0291	0.8671	-0.481
Mof_O 	O 	0.853	0.1283	0.9009	-0.395
Mof_O 	O 	0.7933	0.2126	0.7145	-0.168
Mof_O 	O 	0.9427	0.3841	0.6327	-0.565
Mof_O 	O 	0.7713	0.3288	0.4825	-0.557
Mof_O 	O 	0.2424	0.4029	0.7623	-0.413
Mof_O 	O 	0.3709	0.6025	0.7744	-0.475
Mof_O 	O 	0.4619	0.3439	0.904	-0.203
Mof_O 	O 	0.4776	0.15	0.016	-0.594
Mof_O 	O 	0.7193	0.2058	0.0654	-0.545
Mof_O 	O 	0.9208	0.6048	0.5281	-0.648
Mof_O 	O 	0.6945	0.5682	0.4302	-0.436
Mof_O 	O 	0.8551	0.7413	0.677	-0.211
Mof_O 	O 	0.8388	0.8576	0.9196	-0.595
Mof_O 	O 	0.0213	0.891	0.8502	-0.587
Mof_C 	C 	0.7248	0.0951	0.842	0.29
Mof_C 	C 	0.6898	0.1296	0.739	0.036
Mof_C 	C 	0.5703	0.0901	0.6611	-0.064
Mof_H 	H 	0.4857	0.0324	0.6595	0.039
Mof_C 	C 	0.5981	0.1543	0.5806	-0.011
Mof_H 	H 	0.5354	0.1469	0.5162	0.035
Mof_C 	C 	0.7333	0.2274	0.6168	-0.034
Mof_C 	C 	0.8233	0.3205	0.5733	0.47
Mof_C 	C 	0.3584	0.4895	0.7972	0.271
Mof_C 	C 	0.4845	0.4596	0.8687	0.065
Mof_C 	C 	0.6244	0.523	0.9071	-0.086
Mof_H 	H 	0.6661	0.6033	0.8944	0.062
Mof_C 	C 	0.6952	0.444	0.9701	0.022
Mof_H 	H 	0.7927	0.4616	0.0068	0.013
Mof_C 	C 	0.5922	0.3363	0.9665	-0.051
Mof_C 	C 	0.5954	0.2239	0.0201	0.46
Mof_C 	C 	0.7882	0.6137	0.512	0.364
Mof_C 	C 	0.7431	0.6753	0.5954	0.007
Mof_C 	C 	0.6139	0.6716	0.6138	-0.061
Mof_H 	H 	0.5227	0.6329	0.5703	0.062
Mof_C 	C 	0.6456	0.7394	0.7135	0.004
Mof_H 	H 	0.5785	0.7535	0.7476	0.027
Mof_C 	C 	0.7914	0.7791	0.7489	-0.054
Mof_C 	C 	0.8916	0.849	0.8463	0.489
Mof_Nd	Nd	0.75741	0.98582	0.03145	2.256
Mof_Nd	Nd	0.86123	0.44601	0.3612	2.261
Mof_O 	O 	0.378	0.9709	0.1329	-0.481
Mof_O 	O 	0.147	0.8717	0.0991	-0.395
Mof_O 	O 	0.2067	0.7874	0.2855	-0.168
Mof_O 	O 	0.0573	0.6159	0.3673	-0.565
Mof_O 	O 	0.2287	0.6712	0.5175	-0.557
Mof_O 	O 	0.7576	0.5971	0.2377	-0.413
Mof_O 	O 	0.6291	0.3975	0.2256	-0.475
Mof_O 	O 	0.5381	0.6561	0.096	-0.203
Mof_O 	O 	0.5224	0.85	0.984	-0.594
Mof_O 	O 	0.2807	0.7942	0.9346	-0.545
Mof_O 	O 	0.0792	0.3952	0.4719	-0.648
Mof_O 	O 	0.3055	0.4318	0.5698	-0.436
Mof_O 	O 	0.1449	0.2587	0.323	-0.211
Mof_O 	O 	0.1612	0.1424	0.0804	-0.595
Mof_O 	O 	0.9787	0.109	0.1498	-0.587
Mof_C 	C 	0.2752	0.9049	0.158	0.29
Mof_C 	C 	0.3102	0.8704	0.261	0.036
Mof_C 	C 	0.4297	0.9099	0.3389	-0.064
Mof_H 	H 	0.5143	0.9676	0.3405	0.039
Mof_C 	C 	0.4019	0.8457	0.4194	-0.011
Mof_H 	H 	0.4646	0.8531	0.4838	0.035
Mof_C 	C 	0.2667	0.7726	0.3832	-0.034
Mof_C 	C 	0.1767	0.6795	0.4267	0.47
Mof_C 	C 	0.6416	0.5105	0.2028	0.271
Mof_C 	C 	0.5155	0.5404	0.1313	0.065
Mof_C 	C 	0.3756	0.477	0.0929	-0.086
Mof_H 	H 	0.3339	0.3967	0.1056	0.062
Mof_C 	C 	0.3048	0.556	0.0299	0.022
Mof_H 	H 	0.2073	0.5384	0.9932	0.013
Mof_C 	C 	0.4078	0.6637	0.0335	-0.051
Mof_C 	C 	0.4046	0.7761	0.9799	0.46
Mof_C 	C 	0.2118	0.3863	0.488	0.364
Mof_C 	C 	0.2569	0.3247	0.4046	0.007
Mof_C 	C 	0.3861	0.3284	0.3862	-0.061
Mof_H 	H 	0.4773	0.3671	0.4297	0.062
Mof_C 	C 	0.3544	0.2606	0.2865	0.004
Mof_H 	H 	0.4215	0.2465	0.2524	0.027
Mof_C 	C 	0.2086	0.2209	0.2511	-0.054
Mof_C 	C 	0.1084	0.151	0.1537	0.489
_end
