data_functionalizedCrystal
_audit_creation_method	'EQeq! by Chris Wilmer'
_symmetry_space_group_name_H-M	'P1'
_symmetry_Int_Tables_number	1
_symmetry_cell_setting	triclinic
loop_
_symmetry_equiv_pos_as_xyz
  x,y,z
_cell_length_a	26.99
_cell_length_b	26.99
_cell_length_c	26.99
_cell_angle_alpha	90
_cell_angle_beta	90
_cell_angle_gamma	90
loop_
_atom_site_label
_atom_site_type_symbol
_atom_site_fract_x
_atom_site_fract_y
_atom_site_fract_z
_atom_site_charge
Mof_O 	O 	0.44767	0.05004	0.14888	-0.427
Mof_O 	O 	0.44838	0.04942	0.23157	-0.432
Mof_C 	C 	0.29478	0.14593	0.19801	0.029
Mof_C 	C 	0.4307	0.06229	0.19082	0.364
Mof_C 	C 	0.36022	0.1073	0.14943	0.028
Mof_H 	H 	0.3738	0.0989	0.1181	0.019
Mof_C 	C 	0.31965	0.13005	0.2414	-0.105
Mof_H 	H 	0.3058	0.1372	0.273	0.066
Mof_C 	C 	0.31578	0.13444	0.15198	-0.105
Mof_H 	H 	0.3	0.145	0.1224	0.051
Mof_C 	C 	0.36397	0.10423	0.23836	0.031
Mof_H 	H 	0.3805	0.0944	0.2678	0.03
Mof_C 	C 	0.21677	0.17034	0.24204	-0.104
Mof_H 	H 	0.2214	0.1431	0.2639	0.06
Mof_C 	C 	0.38432	0.09268	0.19248	-0.118
Mof_C 	C 	0.24967	0.17739	0.20255	0.036
Mof_O 	O 	0.55233	0.94996	0.14888	-0.383
Mof_O 	O 	0.55162	0.95058	0.23157	-0.388
Mof_C 	C 	0.70522	0.85407	0.19801	0.03
Mof_C 	C 	0.5693	0.93771	0.19082	0.361
Mof_C 	C 	0.63978	0.8927	0.14943	0.027
Mof_H 	H 	0.6262	0.9011	0.1181	0.037
Mof_C 	C 	0.68035	0.86995	0.2414	-0.09
Mof_H 	H 	0.6942	0.8628	0.273	0.068
Mof_C 	C 	0.68422	0.86556	0.15198	-0.09
Mof_H 	H 	0.7	0.855	0.1224	0.06
Mof_C 	C 	0.63603	0.89577	0.23836	0.028
Mof_H 	H 	0.6195	0.9056	0.2678	0.045
Mof_C 	C 	0.78323	0.82966	0.24204	-0.108
Mof_H 	H 	0.7786	0.8569	0.2639	0.073
Mof_C 	C 	0.61568	0.90732	0.19248	-0.096
Mof_C 	C 	0.75033	0.82261	0.20255	0.05
Mof_O 	O 	0.55233	0.05004	0.85112	-0.413
Mof_O 	O 	0.55162	0.04942	0.76843	-0.429
Mof_C 	C 	0.70522	0.14593	0.80199	0.031
Mof_C 	C 	0.5693	0.06229	0.80918	0.363
Mof_C 	C 	0.63978	0.1073	0.85057	0.03
Mof_H 	H 	0.6262	0.0989	0.8819	0.037
Mof_C 	C 	0.68035	0.13005	0.7586	-0.1
Mof_H 	H 	0.6942	0.1372	0.727	0.066
Mof_C 	C 	0.68422	0.13444	0.84802	-0.098
Mof_H 	H 	0.7	0.145	0.8776	0.069
Mof_C 	C 	0.63603	0.10423	0.76164	0.03
Mof_H 	H 	0.6195	0.0944	0.7322	0.032
Mof_C 	C 	0.78323	0.17034	0.75796	-0.107
Mof_H 	H 	0.7786	0.1431	0.7361	0.066
Mof_C 	C 	0.61568	0.09268	0.80752	-0.111
Mof_C 	C 	0.75033	0.17739	0.79745	0.047
Mof_O 	O 	0.44767	0.94996	0.85112	-0.371
Mof_O 	O 	0.44838	0.95058	0.76843	-0.387
Mof_C 	C 	0.29478	0.85407	0.80199	0.03
Mof_C 	C 	0.4307	0.93771	0.80918	0.358
Mof_C 	C 	0.36022	0.8927	0.85057	0.026
Mof_H 	H 	0.3738	0.9011	0.8819	0.051
Mof_C 	C 	0.31965	0.86995	0.7586	-0.088
Mof_H 	H 	0.3058	0.8628	0.727	0.067
Mof_C 	C 	0.31578	0.86556	0.84802	-0.086
Mof_H 	H 	0.3	0.855	0.8776	0.071
Mof_C 	C 	0.36397	0.89577	0.76164	0.026
Mof_H 	H 	0.3805	0.9056	0.7322	0.046
Mof_C 	C 	0.21677	0.82966	0.75796	-0.107
Mof_H 	H 	0.2214	0.8569	0.7361	0.072
Mof_C 	C 	0.38432	0.90732	0.80752	-0.09
Mof_C 	C 	0.24967	0.82261	0.79745	0.052
Mof_O 	O 	0.14888	0.44767	0.05004	-0.426
Mof_O 	O 	0.23157	0.44838	0.04942	-0.431
Mof_C 	C 	0.19801	0.29478	0.14593	0.03
Mof_C 	C 	0.19082	0.4307	0.06229	0.365
Mof_C 	C 	0.14943	0.36022	0.1073	0.029
Mof_H 	H 	0.1181	0.3738	0.0989	0.02
Mof_C 	C 	0.2414	0.31965	0.13005	-0.104
Mof_H 	H 	0.273	0.3058	0.1372	0.067
Mof_C 	C 	0.15198	0.31578	0.13444	-0.104
Mof_H 	H 	0.1224	0.3	0.145	0.052
Mof_C 	C 	0.23836	0.36397	0.10423	0.032
Mof_H 	H 	0.2678	0.3805	0.0944	0.031
Mof_C 	C 	0.24204	0.21677	0.17034	-0.104
Mof_H 	H 	0.2639	0.2214	0.1431	0.06
Mof_C 	C 	0.19248	0.38432	0.09268	-0.118
Mof_C 	C 	0.20255	0.24967	0.17739	0.036
Mof_O 	O 	0.14888	0.55233	0.94996	-0.383
Mof_O 	O 	0.23157	0.55162	0.95058	-0.388
Mof_C 	C 	0.19801	0.70522	0.85407	0.03
Mof_C 	C 	0.19082	0.5693	0.93771	0.361
Mof_C 	C 	0.14943	0.63978	0.8927	0.027
Mof_H 	H 	0.1181	0.6262	0.9011	0.037
Mof_C 	C 	0.2414	0.68035	0.86995	-0.09
Mof_H 	H 	0.273	0.6942	0.8628	0.068
Mof_C 	C 	0.15198	0.68422	0.86556	-0.09
Mof_H 	H 	0.1224	0.7	0.855	0.06
Mof_C 	C 	0.23836	0.63603	0.89577	0.028
Mof_H 	H 	0.2678	0.6195	0.9056	0.045
Mof_C 	C 	0.24204	0.78323	0.82966	-0.108
Mof_H 	H 	0.2639	0.7786	0.8569	0.073
Mof_C 	C 	0.19248	0.61568	0.90732	-0.096
Mof_C 	C 	0.20255	0.75033	0.82261	0.05
Mof_O 	O 	0.85112	0.55233	0.05004	-0.413
Mof_O 	O 	0.76843	0.55162	0.04942	-0.429
Mof_C 	C 	0.80199	0.70522	0.14593	0.031
Mof_C 	C 	0.80918	0.5693	0.06229	0.363
Mof_C 	C 	0.85057	0.63978	0.1073	0.03
Mof_H 	H 	0.8819	0.6262	0.0989	0.037
Mof_C 	C 	0.7586	0.68035	0.13005	-0.1
Mof_H 	H 	0.727	0.6942	0.1372	0.066
Mof_C 	C 	0.84802	0.68422	0.13444	-0.098
Mof_H 	H 	0.8776	0.7	0.145	0.069
Mof_C 	C 	0.76164	0.63603	0.10423	0.03
Mof_H 	H 	0.7322	0.6195	0.0944	0.032
Mof_C 	C 	0.75796	0.78323	0.17034	-0.107
Mof_H 	H 	0.7361	0.7786	0.1431	0.066
Mof_C 	C 	0.80752	0.61568	0.09268	-0.111
Mof_C 	C 	0.79745	0.75033	0.17739	0.047
Mof_O 	O 	0.85112	0.44767	0.94996	-0.371
Mof_O 	O 	0.76843	0.44838	0.95058	-0.387
Mof_C 	C 	0.80199	0.29478	0.85407	0.03
Mof_C 	C 	0.80918	0.4307	0.93771	0.358
Mof_C 	C 	0.85057	0.36022	0.8927	0.026
Mof_H 	H 	0.8819	0.3738	0.9011	0.051
Mof_C 	C 	0.7586	0.31965	0.86995	-0.088
Mof_H 	H 	0.727	0.3058	0.8628	0.067
Mof_C 	C 	0.84802	0.31578	0.86556	-0.086
Mof_H 	H 	0.8776	0.3	0.855	0.071
Mof_C 	C 	0.76164	0.36397	0.89577	0.026
Mof_H 	H 	0.7322	0.3805	0.9056	0.046
Mof_C 	C 	0.75796	0.21677	0.82966	-0.107
Mof_H 	H 	0.7361	0.2214	0.8569	0.072
Mof_C 	C 	0.80752	0.38432	0.90732	-0.09
Mof_C 	C 	0.79745	0.24967	0.82261	0.052
Mof_O 	O 	0.05004	0.14888	0.44767	-0.426
Mof_O 	O 	0.04942	0.23157	0.44838	-0.431
Mof_C 	C 	0.14593	0.19801	0.29478	0.03
Mof_C 	C 	0.06229	0.19082	0.4307	0.365
Mof_C 	C 	0.1073	0.14943	0.36022	0.029
Mof_H 	H 	0.0989	0.1181	0.3738	0.02
Mof_C 	C 	0.13005	0.2414	0.31965	-0.104
Mof_H 	H 	0.1372	0.273	0.3058	0.067
Mof_C 	C 	0.13444	0.15198	0.31578	-0.104
Mof_H 	H 	0.145	0.1224	0.3	0.052
Mof_C 	C 	0.10423	0.23836	0.36397	0.032
Mof_H 	H 	0.0944	0.2678	0.3805	0.031
Mof_C 	C 	0.17034	0.24204	0.21677	-0.104
Mof_H 	H 	0.1431	0.2639	0.2214	0.06
Mof_C 	C 	0.09268	0.19248	0.38432	-0.118
Mof_C 	C 	0.17739	0.20255	0.24967	0.036
Mof_O 	O 	0.94996	0.14888	0.55233	-0.383
Mof_O 	O 	0.95058	0.23157	0.55162	-0.388
Mof_C 	C 	0.85407	0.19801	0.70522	0.03
Mof_C 	C 	0.93771	0.19082	0.5693	0.361
Mof_C 	C 	0.8927	0.14943	0.63978	0.027
Mof_H 	H 	0.9011	0.1181	0.6262	0.037
Mof_C 	C 	0.86995	0.2414	0.68035	-0.09
Mof_H 	H 	0.8628	0.273	0.6942	0.068
Mof_C 	C 	0.86556	0.15198	0.68422	-0.09
Mof_H 	H 	0.855	0.1224	0.7	0.06
Mof_C 	C 	0.89577	0.23836	0.63603	0.028
Mof_H 	H 	0.9056	0.2678	0.6195	0.045
Mof_C 	C 	0.82966	0.24204	0.78323	-0.108
Mof_H 	H 	0.8569	0.2639	0.7786	0.073
Mof_C 	C 	0.90732	0.19248	0.61568	-0.096
Mof_C 	C 	0.82261	0.20255	0.75033	0.05
Mof_O 	O 	0.05004	0.85112	0.55233	-0.413
Mof_O 	O 	0.04942	0.76843	0.55162	-0.429
Mof_C 	C 	0.14593	0.80199	0.70522	0.031
Mof_C 	C 	0.06229	0.80918	0.5693	0.363
Mof_C 	C 	0.1073	0.85057	0.63978	0.03
Mof_H 	H 	0.0989	0.8819	0.6262	0.037
Mof_C 	C 	0.13005	0.7586	0.68035	-0.1
Mof_H 	H 	0.1372	0.727	0.6942	0.066
Mof_C 	C 	0.13444	0.84802	0.68422	-0.098
Mof_H 	H 	0.145	0.8776	0.7	0.069
Mof_C 	C 	0.10423	0.76164	0.63603	0.03
Mof_H 	H 	0.0944	0.7322	0.6195	0.032
Mof_C 	C 	0.17034	0.75796	0.78323	-0.107
Mof_H 	H 	0.1431	0.7361	0.7786	0.066
Mof_C 	C 	0.09268	0.80752	0.61568	-0.111
Mof_C 	C 	0.17739	0.79745	0.75033	0.047
Mof_O 	O 	0.94996	0.85112	0.44767	-0.371
Mof_O 	O 	0.95058	0.76843	0.44838	-0.387
Mof_C 	C 	0.85407	0.80199	0.29478	0.03
Mof_C 	C 	0.93771	0.80918	0.4307	0.358
Mof_C 	C 	0.8927	0.85057	0.36022	0.026
Mof_H 	H 	0.9011	0.8819	0.3738	0.051
Mof_C 	C 	0.86995	0.7586	0.31965	-0.088
Mof_H 	H 	0.8628	0.727	0.3058	0.067
Mof_C 	C 	0.86556	0.84802	0.31578	-0.086
Mof_H 	H 	0.855	0.8776	0.3	0.071
Mof_C 	C 	0.89577	0.76164	0.36397	0.026
Mof_H 	H 	0.9056	0.7322	0.3805	0.046
Mof_C 	C 	0.82966	0.75796	0.21677	-0.107
Mof_H 	H 	0.8569	0.7361	0.2214	0.072
Mof_C 	C 	0.90732	0.80752	0.38432	-0.09
Mof_C 	C 	0.82261	0.79745	0.24967	0.052
Mof_O 	O 	0.55233	0.94996	0.85112	-0.371
Mof_O 	O 	0.55162	0.95058	0.76843	-0.387
Mof_C 	C 	0.70522	0.85407	0.80199	0.031
Mof_C 	C 	0.5693	0.93771	0.80918	0.359
Mof_C 	C 	0.63978	0.8927	0.85057	0.027
Mof_H 	H 	0.6262	0.9011	0.8819	0.052
Mof_C 	C 	0.68035	0.86995	0.7586	-0.087
Mof_H 	H 	0.6942	0.8628	0.727	0.068
Mof_C 	C 	0.68422	0.86556	0.84802	-0.085
Mof_H 	H 	0.7	0.855	0.8776	0.074
Mof_C 	C 	0.63603	0.89577	0.76164	0.027
Mof_H 	H 	0.6195	0.9056	0.7322	0.046
Mof_C 	C 	0.78323	0.82966	0.75796	-0.109
Mof_H 	H 	0.7786	0.8569	0.7361	0.075
Mof_C 	C 	0.61568	0.90732	0.80752	-0.09
Mof_C 	C 	0.75033	0.82261	0.79745	0.056
Mof_O 	O 	0.44767	0.05004	0.85112	-0.413
Mof_O 	O 	0.44838	0.04942	0.76843	-0.429
Mof_C 	C 	0.29478	0.14593	0.80199	0.031
Mof_C 	C 	0.4307	0.06229	0.80918	0.363
Mof_C 	C 	0.36022	0.1073	0.85057	0.029
Mof_H 	H 	0.3738	0.0989	0.8819	0.036
Mof_C 	C 	0.31965	0.13005	0.7586	-0.101
Mof_H 	H 	0.3058	0.1372	0.727	0.066
Mof_C 	C 	0.31578	0.13444	0.84802	-0.099
Mof_H 	H 	0.3	0.145	0.8776	0.066
Mof_C 	C 	0.36397	0.10423	0.76164	0.03
Mof_H 	H 	0.3805	0.0944	0.7322	0.032
Mof_C 	C 	0.21677	0.17034	0.75796	-0.105
Mof_H 	H 	0.2214	0.1431	0.7361	0.063
Mof_C 	C 	0.38432	0.09268	0.80752	-0.112
Mof_C 	C 	0.24967	0.17739	0.79745	0.043
Mof_O 	O 	0.44767	0.94996	0.14888	-0.383
Mof_O 	O 	0.44838	0.95058	0.23157	-0.388
Mof_C 	C 	0.29478	0.85407	0.19801	0.03
Mof_C 	C 	0.4307	0.93771	0.19082	0.361
Mof_C 	C 	0.36022	0.8927	0.14943	0.026
Mof_H 	H 	0.3738	0.9011	0.1181	0.035
Mof_C 	C 	0.31965	0.86995	0.2414	-0.091
Mof_H 	H 	0.3058	0.8628	0.273	0.068
Mof_C 	C 	0.31578	0.86556	0.15198	-0.091
Mof_H 	H 	0.3	0.855	0.1224	0.058
Mof_C 	C 	0.36397	0.89577	0.23836	0.028
Mof_H 	H 	0.3805	0.9056	0.2678	0.045
Mof_C 	C 	0.21677	0.82966	0.24204	-0.106
Mof_H 	H 	0.2214	0.8569	0.2639	0.07
Mof_C 	C 	0.38432	0.90732	0.19248	-0.096
Mof_C 	C 	0.24967	0.82261	0.20255	0.045
Mof_O 	O 	0.55233	0.05004	0.14888	-0.425
Mof_O 	O 	0.55162	0.04942	0.23157	-0.43
Mof_C 	C 	0.70522	0.14593	0.19801	0.031
Mof_C 	C 	0.5693	0.06229	0.19082	0.366
Mof_C 	C 	0.63978	0.1073	0.14943	0.03
Mof_H 	H 	0.6262	0.0989	0.1181	0.021
Mof_C 	C 	0.68035	0.13005	0.2414	-0.103
Mof_H 	H 	0.6942	0.1372	0.273	0.067
Mof_C 	C 	0.68422	0.13444	0.15198	-0.103
Mof_H 	H 	0.7	0.145	0.1224	0.055
Mof_C 	C 	0.63603	0.10423	0.23836	0.032
Mof_H 	H 	0.6195	0.0944	0.2678	0.031
Mof_C 	C 	0.78323	0.17034	0.24204	-0.106
Mof_H 	H 	0.7786	0.1431	0.2639	0.064
Mof_C 	C 	0.61568	0.09268	0.19248	-0.117
Mof_C 	C 	0.75033	0.17739	0.20255	0.041
Mof_O 	O 	0.85112	0.55233	0.94996	-0.371
Mof_O 	O 	0.76843	0.55162	0.95058	-0.387
Mof_C 	C 	0.80199	0.70522	0.85407	0.031
Mof_C 	C 	0.80918	0.5693	0.93771	0.359
Mof_C 	C 	0.85057	0.63978	0.8927	0.027
Mof_H 	H 	0.8819	0.6262	0.9011	0.052
Mof_C 	C 	0.7586	0.68035	0.86995	-0.087
Mof_H 	H 	0.727	0.6942	0.8628	0.068
Mof_C 	C 	0.84802	0.68422	0.86556	-0.085
Mof_H 	H 	0.8776	0.7	0.855	0.074
Mof_C 	C 	0.76164	0.63603	0.89577	0.027
Mof_H 	H 	0.7322	0.6195	0.9056	0.046
Mof_C 	C 	0.75796	0.78323	0.82966	-0.109
Mof_H 	H 	0.7361	0.7786	0.8569	0.075
Mof_C 	C 	0.80752	0.61568	0.90732	-0.09
Mof_C 	C 	0.79745	0.75033	0.82261	0.056
Mof_O 	O 	0.85112	0.44767	0.05004	-0.413
Mof_O 	O 	0.76843	0.44838	0.04942	-0.429
Mof_C 	C 	0.80199	0.29478	0.14593	0.031
Mof_C 	C 	0.80918	0.4307	0.06229	0.363
Mof_C 	C 	0.85057	0.36022	0.1073	0.029
Mof_H 	H 	0.8819	0.3738	0.0989	0.036
Mof_C 	C 	0.7586	0.31965	0.13005	-0.101
Mof_H 	H 	0.727	0.3058	0.1372	0.066
Mof_C 	C 	0.84802	0.31578	0.13444	-0.099
Mof_H 	H 	0.8776	0.3	0.145	0.066
Mof_C 	C 	0.76164	0.36397	0.10423	0.03
Mof_H 	H 	0.7322	0.3805	0.0944	0.032
Mof_C 	C 	0.75796	0.21677	0.17034	-0.105
Mof_H 	H 	0.7361	0.2214	0.1431	0.063
Mof_C 	C 	0.80752	0.38432	0.09268	-0.112
Mof_C 	C 	0.79745	0.24967	0.17739	0.043
Mof_O 	O 	0.14888	0.44767	0.94996	-0.383
Mof_O 	O 	0.23157	0.44838	0.95058	-0.388
Mof_C 	C 	0.19801	0.29478	0.85407	0.03
Mof_C 	C 	0.19082	0.4307	0.93771	0.361
Mof_C 	C 	0.14943	0.36022	0.8927	0.026
Mof_H 	H 	0.1181	0.3738	0.9011	0.035
Mof_C 	C 	0.2414	0.31965	0.86995	-0.091
Mof_H 	H 	0.273	0.3058	0.8628	0.068
Mof_C 	C 	0.15198	0.31578	0.86556	-0.091
Mof_H 	H 	0.1224	0.3	0.855	0.058
Mof_C 	C 	0.23836	0.36397	0.89577	0.028
Mof_H 	H 	0.2678	0.3805	0.9056	0.045
Mof_C 	C 	0.24204	0.21677	0.82966	-0.106
Mof_H 	H 	0.2639	0.2214	0.8569	0.07
Mof_C 	C 	0.19248	0.38432	0.90732	-0.096
Mof_C 	C 	0.20255	0.24967	0.82261	0.045
Mof_O 	O 	0.14888	0.55233	0.05004	-0.425
Mof_O 	O 	0.23157	0.55162	0.04942	-0.43
Mof_C 	C 	0.19801	0.70522	0.14593	0.031
Mof_C 	C 	0.19082	0.5693	0.06229	0.366
Mof_C 	C 	0.14943	0.63978	0.1073	0.03
Mof_H 	H 	0.1181	0.6262	0.0989	0.021
Mof_C 	C 	0.2414	0.68035	0.13005	-0.103
Mof_H 	H 	0.273	0.6942	0.1372	0.067
Mof_C 	C 	0.15198	0.68422	0.13444	-0.103
Mof_H 	H 	0.1224	0.7	0.145	0.055
Mof_C 	C 	0.23836	0.63603	0.10423	0.032
Mof_H 	H 	0.2678	0.6195	0.0944	0.031
Mof_C 	C 	0.24204	0.78323	0.17034	-0.106
Mof_H 	H 	0.2639	0.7786	0.1431	0.064
Mof_C 	C 	0.19248	0.61568	0.09268	-0.117
Mof_C 	C 	0.20255	0.75033	0.17739	0.041
Mof_O 	O 	0.94996	0.85112	0.55233	-0.371
Mof_O 	O 	0.95058	0.76843	0.55162	-0.387
Mof_C 	C 	0.85407	0.80199	0.70522	0.031
Mof_C 	C 	0.93771	0.80918	0.5693	0.359
Mof_C 	C 	0.8927	0.85057	0.63978	0.027
Mof_H 	H 	0.9011	0.8819	0.6262	0.052
Mof_C 	C 	0.86995	0.7586	0.68035	-0.087
Mof_H 	H 	0.8628	0.727	0.6942	0.068
Mof_C 	C 	0.86556	0.84802	0.68422	-0.085
Mof_H 	H 	0.855	0.8776	0.7	0.074
Mof_C 	C 	0.89577	0.76164	0.63603	0.027
Mof_H 	H 	0.9056	0.7322	0.6195	0.046
Mof_C 	C 	0.82966	0.75796	0.78323	-0.109
Mof_H 	H 	0.8569	0.7361	0.7786	0.075
Mof_C 	C 	0.90732	0.80752	0.61568	-0.09
Mof_C 	C 	0.82261	0.79745	0.75033	0.056
Mof_O 	O 	0.05004	0.85112	0.44767	-0.413
Mof_O 	O 	0.04942	0.76843	0.44838	-0.429
Mof_C 	C 	0.14593	0.80199	0.29478	0.031
Mof_C 	C 	0.06229	0.80918	0.4307	0.363
Mof_C 	C 	0.1073	0.85057	0.36022	0.029
Mof_H 	H 	0.0989	0.8819	0.3738	0.036
Mof_C 	C 	0.13005	0.7586	0.31965	-0.101
Mof_H 	H 	0.1372	0.727	0.3058	0.066
Mof_C 	C 	0.13444	0.84802	0.31578	-0.099
Mof_H 	H 	0.145	0.8776	0.3	0.066
Mof_C 	C 	0.10423	0.76164	0.36397	0.03
Mof_H 	H 	0.0944	0.7322	0.3805	0.032
Mof_C 	C 	0.17034	0.75796	0.21677	-0.105
Mof_H 	H 	0.1431	0.7361	0.2214	0.063
Mof_C 	C 	0.09268	0.80752	0.38432	-0.112
Mof_C 	C 	0.17739	0.79745	0.24967	0.043
Mof_O 	O 	0.94996	0.14888	0.44767	-0.383
Mof_O 	O 	0.95058	0.23157	0.44838	-0.388
Mof_C 	C 	0.85407	0.19801	0.29478	0.03
Mof_C 	C 	0.93771	0.19082	0.4307	0.361
Mof_C 	C 	0.8927	0.14943	0.36022	0.026
Mof_H 	H 	0.9011	0.1181	0.3738	0.035
Mof_C 	C 	0.86995	0.2414	0.31965	-0.091
Mof_H 	H 	0.8628	0.273	0.3058	0.068
Mof_C 	C 	0.86556	0.15198	0.31578	-0.091
Mof_H 	H 	0.855	0.1224	0.3	0.058
Mof_C 	C 	0.89577	0.23836	0.36397	0.028
Mof_H 	H 	0.9056	0.2678	0.3805	0.045
Mof_C 	C 	0.82966	0.24204	0.21677	-0.106
Mof_H 	H 	0.8569	0.2639	0.2214	0.07
Mof_C 	C 	0.90732	0.19248	0.38432	-0.096
Mof_C 	C 	0.82261	0.20255	0.24967	0.045
Mof_O 	O 	0.05004	0.14888	0.55233	-0.425
Mof_O 	O 	0.04942	0.23157	0.55162	-0.43
Mof_C 	C 	0.14593	0.19801	0.70522	0.031
Mof_C 	C 	0.06229	0.19082	0.5693	0.366
Mof_C 	C 	0.1073	0.14943	0.63978	0.03
Mof_H 	H 	0.0989	0.1181	0.6262	0.021
Mof_C 	C 	0.13005	0.2414	0.68035	-0.103
Mof_H 	H 	0.1372	0.273	0.6942	0.067
Mof_C 	C 	0.13444	0.15198	0.68422	-0.103
Mof_H 	H 	0.145	0.1224	0.7	0.055
Mof_C 	C 	0.10423	0.23836	0.63603	0.032
Mof_H 	H 	0.0944	0.2678	0.6195	0.031
Mof_C 	C 	0.17034	0.24204	0.78323	-0.106
Mof_H 	H 	0.1431	0.2639	0.7786	0.064
Mof_C 	C 	0.09268	0.19248	0.61568	-0.117
Mof_C 	C 	0.17739	0.20255	0.75033	0.041
Mof_Cu	Cu	0.5	-1.28393e-33	0.14438	0.874
Mof_Cu	Cu	0.5	-2.56786e-33	0.24026	0.88
Mof_Cu	Cu	0.5	0	0.85562	0.88
Mof_Cu	Cu	0.5	0	0.75974	0.88
Mof_Cu	Cu	0.14438	0.5	-0	0.874
Mof_Cu	Cu	0.24026	0.5	-0	0.88
Mof_Cu	Cu	0.85562	0.5	-0	0.88
Mof_Cu	Cu	0.75974	0.5	-0	0.88
Mof_Cu	Cu	-3.26103e-33	0.14438	0.5	0.874
Mof_Cu	Cu	-3.26103e-33	0.24026	0.5	0.88
Mof_Cu	Cu	1.8747e-33	0.85562	0.5	0.88
Mof_Cu	Cu	-8.39675e-33	0.75974	0.5	0.88
Mof_O 	O 	0.94767	0.55004	0.64888	-0.376
Mof_O 	O 	0.94838	0.54942	0.73157	-0.386
Mof_C 	C 	0.79478	0.64593	0.69801	0.027
Mof_C 	C 	0.9307	0.56229	0.69082	0.358
Mof_C 	C 	0.86022	0.6073	0.64943	0.023
Mof_H 	H 	0.8738	0.5989	0.6181	0.042
Mof_C 	C 	0.81965	0.63005	0.7414	-0.09
Mof_H 	H 	0.8058	0.6372	0.773	0.065
Mof_C 	C 	0.81578	0.63444	0.65198	-0.089
Mof_H 	H 	0.8	0.645	0.6224	0.062
Mof_C 	C 	0.86397	0.60423	0.73836	0.024
Mof_H 	H 	0.8805	0.5944	0.7678	0.045
Mof_C 	C 	0.71677	0.67034	0.74204	-0.109
Mof_H 	H 	0.7214	0.6431	0.7639	0.069
Mof_C 	C 	0.88432	0.59268	0.69248	-0.093
Mof_C 	C 	0.74967	0.67739	0.70255	0.049
Mof_O 	O 	0.05233	0.44996	0.64888	-0.42
Mof_O 	O 	0.05162	0.45058	0.73157	-0.429
Mof_C 	C 	0.20522	0.35407	0.69801	0.033
Mof_C 	C 	0.0693	0.43771	0.69082	0.366
Mof_C 	C 	0.13978	0.3927	0.64943	0.031
Mof_H 	H 	0.1262	0.4011	0.6181	0.03
Mof_C 	C 	0.18035	0.36995	0.7414	-0.1
Mof_H 	H 	0.1942	0.3628	0.773	0.068
Mof_C 	C 	0.18422	0.36556	0.65198	-0.098
Mof_H 	H 	0.2	0.355	0.6224	0.063
Mof_C 	C 	0.13603	0.39577	0.73836	0.033
Mof_H 	H 	0.1195	0.4056	0.7678	0.033
Mof_C 	C 	0.28323	0.32966	0.74204	-0.106
Mof_H 	H 	0.2786	0.3569	0.7639	0.068
Mof_C 	C 	0.11568	0.40732	0.69248	-0.112
Mof_C 	C 	0.25033	0.32261	0.70255	0.045
Mof_O 	O 	0.05233	0.55004	0.35112	-0.42
Mof_O 	O 	0.05162	0.54942	0.26843	-0.431
Mof_C 	C 	0.20522	0.64593	0.30199	0.034
Mof_C 	C 	0.0693	0.56229	0.30918	0.366
Mof_C 	C 	0.13978	0.6073	0.35057	0.032
Mof_H 	H 	0.1262	0.5989	0.3819	0.03
Mof_C 	C 	0.18035	0.63005	0.2586	-0.101
Mof_H 	H 	0.1942	0.6372	0.227	0.069
Mof_C 	C 	0.18422	0.63444	0.34802	-0.099
Mof_H 	H 	0.2	0.645	0.3776	0.064
Mof_C 	C 	0.13603	0.60423	0.26164	0.034
Mof_H 	H 	0.1195	0.5944	0.2322	0.032
Mof_C 	C 	0.28323	0.67034	0.25796	-0.105
Mof_H 	H 	0.2786	0.6431	0.2361	0.067
Mof_C 	C 	0.11568	0.59268	0.30752	-0.114
Mof_C 	C 	0.25033	0.67739	0.29745	0.045
Mof_O 	O 	0.94767	0.44996	0.35112	-0.377
Mof_O 	O 	0.94838	0.45058	0.26843	-0.389
Mof_C 	C 	0.79478	0.35407	0.30199	0.029
Mof_C 	C 	0.9307	0.43771	0.30918	0.358
Mof_C 	C 	0.86022	0.3927	0.35057	0.024
Mof_H 	H 	0.8738	0.4011	0.3819	0.041
Mof_C 	C 	0.81965	0.36995	0.2586	-0.092
Mof_H 	H 	0.8058	0.3628	0.227	0.067
Mof_C 	C 	0.81578	0.36556	0.34802	-0.091
Mof_H 	H 	0.8	0.355	0.3776	0.063
Mof_C 	C 	0.86397	0.39577	0.26164	0.026
Mof_H 	H 	0.8805	0.4056	0.2322	0.043
Mof_C 	C 	0.71677	0.32966	0.25796	-0.106
Mof_H 	H 	0.7214	0.3569	0.2361	0.067
Mof_C 	C 	0.88432	0.40732	0.30752	-0.096
Mof_C 	C 	0.74967	0.32261	0.29745	0.046
Mof_O 	O 	0.64888	0.94767	0.55004	-0.376
Mof_O 	O 	0.73157	0.94838	0.54942	-0.386
Mof_C 	C 	0.69801	0.79478	0.64593	0.027
Mof_C 	C 	0.69082	0.9307	0.56229	0.358
Mof_C 	C 	0.64943	0.86022	0.6073	0.023
Mof_H 	H 	0.6181	0.8738	0.5989	0.042
Mof_C 	C 	0.7414	0.81965	0.63005	-0.09
Mof_H 	H 	0.773	0.8058	0.6372	0.065
Mof_C 	C 	0.65198	0.81578	0.63444	-0.089
Mof_H 	H 	0.6224	0.8	0.645	0.062
Mof_C 	C 	0.73836	0.86397	0.60423	0.024
Mof_H 	H 	0.7678	0.8805	0.5944	0.045
Mof_C 	C 	0.74204	0.71677	0.67034	-0.109
Mof_H 	H 	0.7639	0.7214	0.6431	0.069
Mof_C 	C 	0.69248	0.88432	0.59268	-0.093
Mof_C 	C 	0.70255	0.74967	0.67739	0.049
Mof_O 	O 	0.64888	0.05233	0.44996	-0.42
Mof_O 	O 	0.73157	0.05162	0.45058	-0.429
Mof_C 	C 	0.69801	0.20522	0.35407	0.033
Mof_C 	C 	0.69082	0.0693	0.43771	0.366
Mof_C 	C 	0.64943	0.13978	0.3927	0.031
Mof_H 	H 	0.6181	0.1262	0.4011	0.03
Mof_C 	C 	0.7414	0.18035	0.36995	-0.1
Mof_H 	H 	0.773	0.1942	0.3628	0.068
Mof_C 	C 	0.65198	0.18422	0.36556	-0.098
Mof_H 	H 	0.6224	0.2	0.355	0.063
Mof_C 	C 	0.73836	0.13603	0.39577	0.033
Mof_H 	H 	0.7678	0.1195	0.4056	0.033
Mof_C 	C 	0.74204	0.28323	0.32966	-0.106
Mof_H 	H 	0.7639	0.2786	0.3569	0.068
Mof_C 	C 	0.69248	0.11568	0.40732	-0.112
Mof_C 	C 	0.70255	0.25033	0.32261	0.045
Mof_O 	O 	0.35112	0.05233	0.55004	-0.42
Mof_O 	O 	0.26843	0.05162	0.54942	-0.431
Mof_C 	C 	0.30199	0.20522	0.64593	0.034
Mof_C 	C 	0.30918	0.0693	0.56229	0.366
Mof_C 	C 	0.35057	0.13978	0.6073	0.032
Mof_H 	H 	0.3819	0.1262	0.5989	0.03
Mof_C 	C 	0.2586	0.18035	0.63005	-0.101
Mof_H 	H 	0.227	0.1942	0.6372	0.069
Mof_C 	C 	0.34802	0.18422	0.63444	-0.099
Mof_H 	H 	0.3776	0.2	0.645	0.064
Mof_C 	C 	0.26164	0.13603	0.60423	0.034
Mof_H 	H 	0.2322	0.1195	0.5944	0.032
Mof_C 	C 	0.25796	0.28323	0.67034	-0.105
Mof_H 	H 	0.2361	0.2786	0.6431	0.067
Mof_C 	C 	0.30752	0.11568	0.59268	-0.114
Mof_C 	C 	0.29745	0.25033	0.67739	0.045
Mof_O 	O 	0.35112	0.94767	0.44996	-0.377
Mof_O 	O 	0.26843	0.94838	0.45058	-0.389
Mof_C 	C 	0.30199	0.79478	0.35407	0.029
Mof_C 	C 	0.30918	0.9307	0.43771	0.358
Mof_C 	C 	0.35057	0.86022	0.3927	0.024
Mof_H 	H 	0.3819	0.8738	0.4011	0.041
Mof_C 	C 	0.2586	0.81965	0.36995	-0.092
Mof_H 	H 	0.227	0.8058	0.3628	0.067
Mof_C 	C 	0.34802	0.81578	0.36556	-0.091
Mof_H 	H 	0.3776	0.8	0.355	0.063
Mof_C 	C 	0.26164	0.86397	0.39577	0.026
Mof_H 	H 	0.2322	0.8805	0.4056	0.043
Mof_C 	C 	0.25796	0.71677	0.32966	-0.106
Mof_H 	H 	0.2361	0.7214	0.3569	0.067
Mof_C 	C 	0.30752	0.88432	0.40732	-0.096
Mof_C 	C 	0.29745	0.74967	0.32261	0.046
Mof_O 	O 	0.55004	0.64888	0.94767	-0.376
Mof_O 	O 	0.54942	0.73157	0.94838	-0.386
Mof_C 	C 	0.64593	0.69801	0.79478	0.027
Mof_C 	C 	0.56229	0.69082	0.9307	0.358
Mof_C 	C 	0.6073	0.64943	0.86022	0.023
Mof_H 	H 	0.5989	0.6181	0.8738	0.042
Mof_C 	C 	0.63005	0.7414	0.81965	-0.09
Mof_H 	H 	0.6372	0.773	0.8058	0.065
Mof_C 	C 	0.63444	0.65198	0.81578	-0.089
Mof_H 	H 	0.645	0.6224	0.8	0.062
Mof_C 	C 	0.60423	0.73836	0.86397	0.024
Mof_H 	H 	0.5944	0.7678	0.8805	0.045
Mof_C 	C 	0.67034	0.74204	0.71677	-0.109
Mof_H 	H 	0.6431	0.7639	0.7214	0.069
Mof_C 	C 	0.59268	0.69248	0.88432	-0.093
Mof_C 	C 	0.67739	0.70255	0.74967	0.049
Mof_O 	O 	0.44996	0.64888	0.05233	-0.42
Mof_O 	O 	0.45058	0.73157	0.05162	-0.429
Mof_C 	C 	0.35407	0.69801	0.20522	0.033
Mof_C 	C 	0.43771	0.69082	0.0693	0.366
Mof_C 	C 	0.3927	0.64943	0.13978	0.031
Mof_H 	H 	0.4011	0.6181	0.1262	0.03
Mof_C 	C 	0.36995	0.7414	0.18035	-0.1
Mof_H 	H 	0.3628	0.773	0.1942	0.068
Mof_C 	C 	0.36556	0.65198	0.18422	-0.098
Mof_H 	H 	0.355	0.6224	0.2	0.063
Mof_C 	C 	0.39577	0.73836	0.13603	0.033
Mof_H 	H 	0.4056	0.7678	0.1195	0.033
Mof_C 	C 	0.32966	0.74204	0.28323	-0.106
Mof_H 	H 	0.3569	0.7639	0.2786	0.068
Mof_C 	C 	0.40732	0.69248	0.11568	-0.112
Mof_C 	C 	0.32261	0.70255	0.25033	0.045
Mof_O 	O 	0.55004	0.35112	0.05233	-0.42
Mof_O 	O 	0.54942	0.26843	0.05162	-0.431
Mof_C 	C 	0.64593	0.30199	0.20522	0.034
Mof_C 	C 	0.56229	0.30918	0.0693	0.366
Mof_C 	C 	0.6073	0.35057	0.13978	0.032
Mof_H 	H 	0.5989	0.3819	0.1262	0.03
Mof_C 	C 	0.63005	0.2586	0.18035	-0.101
Mof_H 	H 	0.6372	0.227	0.1942	0.069
Mof_C 	C 	0.63444	0.34802	0.18422	-0.099
Mof_H 	H 	0.645	0.3776	0.2	0.064
Mof_C 	C 	0.60423	0.26164	0.13603	0.034
Mof_H 	H 	0.5944	0.2322	0.1195	0.032
Mof_C 	C 	0.67034	0.25796	0.28323	-0.105
Mof_H 	H 	0.6431	0.2361	0.2786	0.067
Mof_C 	C 	0.59268	0.30752	0.11568	-0.114
Mof_C 	C 	0.67739	0.29745	0.25033	0.045
Mof_O 	O 	0.44996	0.35112	0.94767	-0.377
Mof_O 	O 	0.45058	0.26843	0.94838	-0.389
Mof_C 	C 	0.35407	0.30199	0.79478	0.029
Mof_C 	C 	0.43771	0.30918	0.9307	0.358
Mof_C 	C 	0.3927	0.35057	0.86022	0.024
Mof_H 	H 	0.4011	0.3819	0.8738	0.041
Mof_C 	C 	0.36995	0.2586	0.81965	-0.092
Mof_H 	H 	0.3628	0.227	0.8058	0.067
Mof_C 	C 	0.36556	0.34802	0.81578	-0.091
Mof_H 	H 	0.355	0.3776	0.8	0.063
Mof_C 	C 	0.39577	0.26164	0.86397	0.026
Mof_H 	H 	0.4056	0.2322	0.8805	0.043
Mof_C 	C 	0.32966	0.25796	0.71677	-0.106
Mof_H 	H 	0.3569	0.2361	0.7214	0.067
Mof_C 	C 	0.40732	0.30752	0.88432	-0.096
Mof_C 	C 	0.32261	0.29745	0.74967	0.046
Mof_O 	O 	0.05233	0.44996	0.35112	-0.42
Mof_O 	O 	0.05162	0.45058	0.26843	-0.432
Mof_C 	C 	0.20522	0.35407	0.30199	0.034
Mof_C 	C 	0.0693	0.43771	0.30918	0.366
Mof_C 	C 	0.13978	0.3927	0.35057	0.033
Mof_H 	H 	0.1262	0.4011	0.3819	0.03
Mof_C 	C 	0.18035	0.36995	0.2586	-0.101
Mof_H 	H 	0.1942	0.3628	0.227	0.069
Mof_C 	C 	0.18422	0.36556	0.34802	-0.099
Mof_H 	H 	0.2	0.355	0.3776	0.064
Mof_C 	C 	0.13603	0.39577	0.26164	0.034
Mof_H 	H 	0.1195	0.4056	0.2322	0.031
Mof_C 	C 	0.28323	0.32966	0.25796	-0.104
Mof_H 	H 	0.2786	0.3569	0.2361	0.067
Mof_C 	C 	0.11568	0.40732	0.30752	-0.114
Mof_C 	C 	0.25033	0.32261	0.29745	0.044
Mof_O 	O 	0.94767	0.55004	0.35112	-0.377
Mof_O 	O 	0.94838	0.54942	0.26843	-0.388
Mof_C 	C 	0.79478	0.64593	0.30199	0.028
Mof_C 	C 	0.9307	0.56229	0.30918	0.358
Mof_C 	C 	0.86022	0.6073	0.35057	0.024
Mof_H 	H 	0.8738	0.5989	0.3819	0.042
Mof_C 	C 	0.81965	0.63005	0.2586	-0.091
Mof_H 	H 	0.8058	0.6372	0.227	0.066
Mof_C 	C 	0.81578	0.63444	0.34802	-0.09
Mof_H 	H 	0.8	0.645	0.3776	0.063
Mof_C 	C 	0.86397	0.60423	0.26164	0.025
Mof_H 	H 	0.8805	0.5944	0.2322	0.043
Mof_C 	C 	0.71677	0.67034	0.25796	-0.107
Mof_H 	H 	0.7214	0.6431	0.2361	0.068
Mof_C 	C 	0.88432	0.59268	0.30752	-0.095
Mof_C 	C 	0.74967	0.67739	0.29745	0.047
Mof_O 	O 	0.94767	0.44996	0.64888	-0.377
Mof_O 	O 	0.94838	0.45058	0.73157	-0.386
Mof_C 	C 	0.79478	0.35407	0.69801	0.027
Mof_C 	C 	0.9307	0.43771	0.69082	0.358
Mof_C 	C 	0.86022	0.3927	0.64943	0.023
Mof_H 	H 	0.8738	0.4011	0.6181	0.042
Mof_C 	C 	0.81965	0.36995	0.7414	-0.09
Mof_H 	H 	0.8058	0.3628	0.773	0.066
Mof_C 	C 	0.81578	0.36556	0.65198	-0.089
Mof_H 	H 	0.8	0.355	0.6224	0.062
Mof_C 	C 	0.86397	0.39577	0.73836	0.024
Mof_H 	H 	0.8805	0.4056	0.7678	0.045
Mof_C 	C 	0.71677	0.32966	0.74204	-0.108
Mof_H 	H 	0.7214	0.3569	0.7639	0.068
Mof_C 	C 	0.88432	0.40732	0.69248	-0.094
Mof_C 	C 	0.74967	0.32261	0.70255	0.048
Mof_O 	O 	0.05233	0.55004	0.64888	-0.42
Mof_O 	O 	0.05162	0.54942	0.73157	-0.429
Mof_C 	C 	0.20522	0.64593	0.69801	0.032
Mof_C 	C 	0.0693	0.56229	0.69082	0.366
Mof_C 	C 	0.13978	0.6073	0.64943	0.031
Mof_H 	H 	0.1262	0.5989	0.6181	0.03
Mof_C 	C 	0.18035	0.63005	0.7414	-0.099
Mof_H 	H 	0.1942	0.6372	0.773	0.067
Mof_C 	C 	0.18422	0.63444	0.65198	-0.098
Mof_H 	H 	0.2	0.645	0.6224	0.063
Mof_C 	C 	0.13603	0.60423	0.73836	0.032
Mof_H 	H 	0.1195	0.5944	0.7678	0.034
Mof_C 	C 	0.28323	0.67034	0.74204	-0.107
Mof_H 	H 	0.2786	0.6431	0.7639	0.068
Mof_C 	C 	0.11568	0.59268	0.69248	-0.112
Mof_C 	C 	0.25033	0.67739	0.70255	0.046
Mof_O 	O 	0.35112	0.05233	0.44996	-0.42
Mof_O 	O 	0.26843	0.05162	0.45058	-0.432
Mof_C 	C 	0.30199	0.20522	0.35407	0.034
Mof_C 	C 	0.30918	0.0693	0.43771	0.366
Mof_C 	C 	0.35057	0.13978	0.3927	0.033
Mof_H 	H 	0.3819	0.1262	0.4011	0.03
Mof_C 	C 	0.2586	0.18035	0.36995	-0.101
Mof_H 	H 	0.227	0.1942	0.3628	0.069
Mof_C 	C 	0.34802	0.18422	0.36556	-0.099
Mof_H 	H 	0.3776	0.2	0.355	0.064
Mof_C 	C 	0.26164	0.13603	0.39577	0.034
Mof_H 	H 	0.2322	0.1195	0.4056	0.031
Mof_C 	C 	0.25796	0.28323	0.32966	-0.104
Mof_H 	H 	0.2361	0.2786	0.3569	0.067
Mof_C 	C 	0.30752	0.11568	0.40732	-0.114
Mof_C 	C 	0.29745	0.25033	0.32261	0.044
Mof_O 	O 	0.35112	0.94767	0.55004	-0.377
Mof_O 	O 	0.26843	0.94838	0.54942	-0.388
Mof_C 	C 	0.30199	0.79478	0.64593	0.028
Mof_C 	C 	0.30918	0.9307	0.56229	0.358
Mof_C 	C 	0.35057	0.86022	0.6073	0.024
Mof_H 	H 	0.3819	0.8738	0.5989	0.042
Mof_C 	C 	0.2586	0.81965	0.63005	-0.091
Mof_H 	H 	0.227	0.8058	0.6372	0.066
Mof_C 	C 	0.34802	0.81578	0.63444	-0.09
Mof_H 	H 	0.3776	0.8	0.645	0.063
Mof_C 	C 	0.26164	0.86397	0.60423	0.025
Mof_H 	H 	0.2322	0.8805	0.5944	0.043
Mof_C 	C 	0.25796	0.71677	0.67034	-0.107
Mof_H 	H 	0.2361	0.7214	0.6431	0.068
Mof_C 	C 	0.30752	0.88432	0.59268	-0.095
Mof_C 	C 	0.29745	0.74967	0.67739	0.047
Mof_O 	O 	0.64888	0.94767	0.44996	-0.377
Mof_O 	O 	0.73157	0.94838	0.45058	-0.386
Mof_C 	C 	0.69801	0.79478	0.35407	0.027
Mof_C 	C 	0.69082	0.9307	0.43771	0.358
Mof_C 	C 	0.64943	0.86022	0.3927	0.023
Mof_H 	H 	0.6181	0.8738	0.4011	0.042
Mof_C 	C 	0.7414	0.81965	0.36995	-0.09
Mof_H 	H 	0.773	0.8058	0.3628	0.066
Mof_C 	C 	0.65198	0.81578	0.36556	-0.089
Mof_H 	H 	0.6224	0.8	0.355	0.062
Mof_C 	C 	0.73836	0.86397	0.39577	0.024
Mof_H 	H 	0.7678	0.8805	0.4056	0.045
Mof_C 	C 	0.74204	0.71677	0.32966	-0.108
Mof_H 	H 	0.7639	0.7214	0.3569	0.068
Mof_C 	C 	0.69248	0.88432	0.40732	-0.094
Mof_C 	C 	0.70255	0.74967	0.32261	0.048
Mof_O 	O 	0.64888	0.05233	0.55004	-0.42
Mof_O 	O 	0.73157	0.05162	0.54942	-0.429
Mof_C 	C 	0.69801	0.20522	0.64593	0.032
Mof_C 	C 	0.69082	0.0693	0.56229	0.366
Mof_C 	C 	0.64943	0.13978	0.6073	0.031
Mof_H 	H 	0.6181	0.1262	0.5989	0.03
Mof_C 	C 	0.7414	0.18035	0.63005	-0.099
Mof_H 	H 	0.773	0.1942	0.6372	0.067
Mof_C 	C 	0.65198	0.18422	0.63444	-0.098
Mof_H 	H 	0.6224	0.2	0.645	0.063
Mof_C 	C 	0.73836	0.13603	0.60423	0.032
Mof_H 	H 	0.7678	0.1195	0.5944	0.034
Mof_C 	C 	0.74204	0.28323	0.67034	-0.107
Mof_H 	H 	0.7639	0.2786	0.6431	0.068
Mof_C 	C 	0.69248	0.11568	0.59268	-0.112
Mof_C 	C 	0.70255	0.25033	0.67739	0.046
Mof_O 	O 	0.44996	0.35112	0.05233	-0.42
Mof_O 	O 	0.45058	0.26843	0.05162	-0.432
Mof_C 	C 	0.35407	0.30199	0.20522	0.034
Mof_C 	C 	0.43771	0.30918	0.0693	0.366
Mof_C 	C 	0.3927	0.35057	0.13978	0.033
Mof_H 	H 	0.4011	0.3819	0.1262	0.03
Mof_C 	C 	0.36995	0.2586	0.18035	-0.101
Mof_H 	H 	0.3628	0.227	0.1942	0.069
Mof_C 	C 	0.36556	0.34802	0.18422	-0.099
Mof_H 	H 	0.355	0.3776	0.2	0.064
Mof_C 	C 	0.39577	0.26164	0.13603	0.034
Mof_H 	H 	0.4056	0.2322	0.1195	0.031
Mof_C 	C 	0.32966	0.25796	0.28323	-0.104
Mof_H 	H 	0.3569	0.2361	0.2786	0.067
Mof_C 	C 	0.40732	0.30752	0.11568	-0.114
Mof_C 	C 	0.32261	0.29745	0.25033	0.044
Mof_O 	O 	0.55004	0.35112	0.94767	-0.377
Mof_O 	O 	0.54942	0.26843	0.94838	-0.388
Mof_C 	C 	0.64593	0.30199	0.79478	0.028
Mof_C 	C 	0.56229	0.30918	0.9307	0.358
Mof_C 	C 	0.6073	0.35057	0.86022	0.024
Mof_H 	H 	0.5989	0.3819	0.8738	0.042
Mof_C 	C 	0.63005	0.2586	0.81965	-0.091
Mof_H 	H 	0.6372	0.227	0.8058	0.066
Mof_C 	C 	0.63444	0.34802	0.81578	-0.09
Mof_H 	H 	0.645	0.3776	0.8	0.063
Mof_C 	C 	0.60423	0.26164	0.86397	0.025
Mof_H 	H 	0.5944	0.2322	0.8805	0.043
Mof_C 	C 	0.67034	0.25796	0.71677	-0.107
Mof_H 	H 	0.6431	0.2361	0.7214	0.068
Mof_C 	C 	0.59268	0.30752	0.88432	-0.095
Mof_C 	C 	0.67739	0.29745	0.74967	0.047
Mof_O 	O 	0.44996	0.64888	0.94767	-0.377
Mof_O 	O 	0.45058	0.73157	0.94838	-0.386
Mof_C 	C 	0.35407	0.69801	0.79478	0.027
Mof_C 	C 	0.43771	0.69082	0.9307	0.358
Mof_C 	C 	0.3927	0.64943	0.86022	0.023
Mof_H 	H 	0.4011	0.6181	0.8738	0.042
Mof_C 	C 	0.36995	0.7414	0.81965	-0.09
Mof_H 	H 	0.3628	0.773	0.8058	0.066
Mof_C 	C 	0.36556	0.65198	0.81578	-0.089
Mof_H 	H 	0.355	0.6224	0.8	0.062
Mof_C 	C 	0.39577	0.73836	0.86397	0.024
Mof_H 	H 	0.4056	0.7678	0.8805	0.045
Mof_C 	C 	0.32966	0.74204	0.71677	-0.108
Mof_H 	H 	0.3569	0.7639	0.7214	0.068
Mof_C 	C 	0.40732	0.69248	0.88432	-0.094
Mof_C 	C 	0.32261	0.70255	0.74967	0.048
Mof_O 	O 	0.55004	0.64888	0.05233	-0.42
Mof_O 	O 	0.54942	0.73157	0.05162	-0.429
Mof_C 	C 	0.64593	0.69801	0.20522	0.032
Mof_C 	C 	0.56229	0.69082	0.0693	0.366
Mof_C 	C 	0.6073	0.64943	0.13978	0.031
Mof_H 	H 	0.5989	0.6181	0.1262	0.03
Mof_C 	C 	0.63005	0.7414	0.18035	-0.099
Mof_H 	H 	0.6372	0.773	0.1942	0.067
Mof_C 	C 	0.63444	0.65198	0.18422	-0.098
Mof_H 	H 	0.645	0.6224	0.2	0.063
Mof_C 	C 	0.60423	0.73836	0.13603	0.032
Mof_H 	H 	0.5944	0.7678	0.1195	0.034
Mof_C 	C 	0.67034	0.74204	0.28323	-0.107
Mof_H 	H 	0.6431	0.7639	0.2786	0.068
Mof_C 	C 	0.59268	0.69248	0.11568	-0.112
Mof_C 	C 	0.67739	0.70255	0.25033	0.046
Mof_Cu	Cu	2.41604e-33	0.5	0.64438	0.877
Mof_Cu	Cu	-2.36019e-33	0.5	0.74026	0.881
Mof_Cu	Cu	1.33336e-33	0.5	0.35562	0.877
Mof_Cu	Cu	-1.59399e-33	0.5	0.25974	0.879
Mof_Cu	Cu	0.64438	0	0.5	0.877
Mof_Cu	Cu	0.74026	0	0.5	0.881
Mof_Cu	Cu	0.35562	0	0.5	0.877
Mof_Cu	Cu	0.25974	0	0.5	0.879
Mof_Cu	Cu	0.5	0.64438	-0	0.877
Mof_Cu	Cu	0.5	0.74026	-0	0.881
Mof_Cu	Cu	0.5	0.35562	-0	0.877
Mof_Cu	Cu	0.5	0.25974	-0	0.879
_end
