data_functionalizedCrystal
_audit_creation_method	'EQeq! by Chris Wilmer'
_symmetry_space_group_name_H-M	'P1'
_symmetry_Int_Tables_number	1
_symmetry_cell_setting	triclinic
loop_
_symmetry_equiv_pos_as_xyz
  x,y,z
_cell_length_a	37.0728
_cell_length_b	37.0728
_cell_length_c	37.0728
_cell_angle_alpha	90
_cell_angle_beta	90
_cell_angle_gamma	90
loop_
_atom_site_label
_atom_site_type_symbol
_atom_site_fract_x
_atom_site_fract_y
_atom_site_fract_z
_atom_site_charge
Mof_N 	N 	0.68459	0.71542	0.46313	-0.22
Mof_N 	N 	0.68866	0.79089	0.46315	-0.188
Mof_C 	C 	0.6634	0.70942	0.43473	0.012
Mof_N 	N 	0.66673	0.79631	0.43549	-0.098
Mof_C 	C 	0.67517	0.6799	0.41721	0.027
Mof_H 	H 	0.6432	0.7237	0.4279	0.007
Mof_C 	C 	0.6605	0.66281	0.38449	0.054
Mof_C 	C 	0.67679	0.63223	0.37005	-0.111
Mof_H 	H 	0.6978	0.6226	0.3812	0.069
Mof_N 	N 	0.68459	0.21542	0.96313	-0.213
Mof_N 	N 	0.68866	0.29089	0.96315	-0.182
Mof_C 	C 	0.6634	0.20942	0.93473	0.012
Mof_N 	N 	0.66673	0.29631	0.93549	-0.096
Mof_C 	C 	0.67517	0.1799	0.91721	0.028
Mof_H 	H 	0.6432	0.2237	0.9279	0.009
Mof_C 	C 	0.6605	0.16281	0.88449	0.054
Mof_C 	C 	0.67679	0.13223	0.87005	-0.111
Mof_H 	H 	0.6978	0.1226	0.8812	0.069
Mof_N 	N 	0.18459	0.71542	0.96313	-0.213
Mof_N 	N 	0.18866	0.79089	0.96315	-0.182
Mof_C 	C 	0.1634	0.70942	0.93473	0.012
Mof_N 	N 	0.16673	0.79631	0.93549	-0.097
Mof_C 	C 	0.17517	0.6799	0.91721	0.028
Mof_H 	H 	0.1432	0.7237	0.9279	0.008
Mof_C 	C 	0.1605	0.66281	0.88449	0.054
Mof_C 	C 	0.17679	0.63223	0.87005	-0.111
Mof_H 	H 	0.1978	0.6226	0.8812	0.07
Mof_N 	N 	0.18459	0.21542	0.46313	-0.22
Mof_N 	N 	0.18866	0.29089	0.46315	-0.189
Mof_C 	C 	0.1634	0.20942	0.43473	0.011
Mof_N 	N 	0.16673	0.29631	0.43549	-0.099
Mof_C 	C 	0.17517	0.1799	0.41721	0.027
Mof_H 	H 	0.1432	0.2237	0.4279	0.006
Mof_C 	C 	0.1605	0.16281	0.38449	0.053
Mof_C 	C 	0.17679	0.13223	0.37005	-0.111
Mof_H 	H 	0.1978	0.1226	0.3812	0.068
Mof_N 	N 	0.31541	0.28458	0.46313	-0.22
Mof_N 	N 	0.31134	0.20911	0.46315	-0.189
Mof_C 	C 	0.3366	0.29058	0.43473	0.012
Mof_N 	N 	0.33327	0.20369	0.43549	-0.098
Mof_C 	C 	0.32483	0.3201	0.41721	0.027
Mof_H 	H 	0.3568	0.2763	0.4279	0.007
Mof_C 	C 	0.3395	0.33719	0.38449	0.053
Mof_C 	C 	0.32321	0.36777	0.37005	-0.112
Mof_H 	H 	0.3022	0.3774	0.3812	0.068
Mof_N 	N 	0.31541	0.78458	0.96313	-0.214
Mof_N 	N 	0.31134	0.70911	0.96315	-0.183
Mof_C 	C 	0.3366	0.79058	0.93473	0.012
Mof_N 	N 	0.33327	0.70369	0.93549	-0.097
Mof_C 	C 	0.32483	0.8201	0.91721	0.028
Mof_H 	H 	0.3568	0.7763	0.9279	0.008
Mof_C 	C 	0.3395	0.83719	0.88449	0.055
Mof_C 	C 	0.32321	0.86777	0.87005	-0.112
Mof_H 	H 	0.3022	0.8774	0.8812	0.07
Mof_N 	N 	0.81541	0.28458	0.96313	-0.214
Mof_N 	N 	0.81134	0.20911	0.96315	-0.183
Mof_C 	C 	0.8366	0.29058	0.93473	0.012
Mof_N 	N 	0.83327	0.20369	0.93549	-0.097
Mof_C 	C 	0.82483	0.3201	0.91721	0.028
Mof_H 	H 	0.8568	0.2763	0.9279	0.009
Mof_C 	C 	0.8395	0.33719	0.88449	0.055
Mof_C 	C 	0.82321	0.36777	0.87005	-0.112
Mof_H 	H 	0.8022	0.3774	0.8812	0.069
Mof_N 	N 	0.81541	0.78458	0.46313	-0.22
Mof_N 	N 	0.81134	0.70911	0.46315	-0.189
Mof_C 	C 	0.8366	0.79058	0.43473	0.011
Mof_N 	N 	0.83327	0.70369	0.43549	-0.098
Mof_C 	C 	0.82483	0.8201	0.41721	0.027
Mof_H 	H 	0.8568	0.7763	0.4279	0.007
Mof_C 	C 	0.8395	0.83719	0.38449	0.054
Mof_C 	C 	0.82321	0.86777	0.37005	-0.112
Mof_H 	H 	0.8022	0.8774	0.3812	0.069
Mof_N 	N 	0.31541	0.71542	0.53687	-0.22
Mof_N 	N 	0.31134	0.79089	0.53685	-0.189
Mof_C 	C 	0.3366	0.70942	0.56527	0.011
Mof_N 	N 	0.33327	0.79631	0.56451	-0.099
Mof_C 	C 	0.32483	0.6799	0.58279	0.026
Mof_H 	H 	0.3568	0.7237	0.5721	0.006
Mof_C 	C 	0.3395	0.66281	0.61551	0.053
Mof_C 	C 	0.32321	0.63223	0.62995	-0.112
Mof_H 	H 	0.3022	0.6226	0.6188	0.068
Mof_N 	N 	0.31541	0.21542	0.03687	-0.223
Mof_N 	N 	0.31134	0.29089	0.03685	-0.192
Mof_C 	C 	0.3366	0.20942	0.06527	0.009
Mof_N 	N 	0.33327	0.29631	0.06451	-0.1
Mof_C 	C 	0.32483	0.1799	0.08279	0.025
Mof_H 	H 	0.3568	0.2237	0.0721	0.004
Mof_C 	C 	0.3395	0.16281	0.11551	0.051
Mof_C 	C 	0.32321	0.13223	0.12995	-0.112
Mof_H 	H 	0.3022	0.1226	0.1188	0.066
Mof_N 	N 	0.81541	0.71542	0.03687	-0.222
Mof_N 	N 	0.81134	0.79089	0.03685	-0.191
Mof_C 	C 	0.8366	0.70942	0.06527	0.01
Mof_N 	N 	0.83327	0.79631	0.06451	-0.099
Mof_C 	C 	0.82483	0.6799	0.08279	0.026
Mof_H 	H 	0.8568	0.7237	0.0721	0.005
Mof_C 	C 	0.8395	0.66281	0.11551	0.053
Mof_C 	C 	0.82321	0.63223	0.12995	-0.112
Mof_H 	H 	0.8022	0.6226	0.1188	0.067
Mof_N 	N 	0.81541	0.21542	0.53687	-0.22
Mof_N 	N 	0.81134	0.29089	0.53685	-0.189
Mof_C 	C 	0.8366	0.20942	0.56527	0.011
Mof_N 	N 	0.83327	0.29631	0.56451	-0.098
Mof_C 	C 	0.82483	0.1799	0.58279	0.026
Mof_H 	H 	0.8568	0.2237	0.5721	0.006
Mof_C 	C 	0.8395	0.16281	0.61551	0.053
Mof_C 	C 	0.82321	0.13223	0.62995	-0.112
Mof_H 	H 	0.8022	0.1226	0.6188	0.067
Mof_N 	N 	0.68459	0.28458	0.53687	-0.221
Mof_N 	N 	0.68866	0.20911	0.53685	-0.19
Mof_C 	C 	0.6634	0.29058	0.56527	0.011
Mof_N 	N 	0.66673	0.20369	0.56451	-0.099
Mof_C 	C 	0.67517	0.3201	0.58279	0.026
Mof_H 	H 	0.6432	0.2763	0.5721	0.005
Mof_C 	C 	0.6605	0.33719	0.61551	0.053
Mof_C 	C 	0.67679	0.36777	0.62995	-0.112
Mof_H 	H 	0.6978	0.3774	0.6188	0.068
Mof_N 	N 	0.68459	0.78458	0.03687	-0.223
Mof_N 	N 	0.68866	0.70911	0.03685	-0.192
Mof_C 	C 	0.6634	0.79058	0.06527	0.01
Mof_N 	N 	0.66673	0.70369	0.06451	-0.1
Mof_C 	C 	0.67517	0.8201	0.08279	0.026
Mof_H 	H 	0.6432	0.7763	0.0721	0.004
Mof_C 	C 	0.6605	0.83719	0.11551	0.053
Mof_C 	C 	0.67679	0.86777	0.12995	-0.112
Mof_H 	H 	0.6978	0.8774	0.1188	0.068
Mof_N 	N 	0.18459	0.28458	0.03687	-0.223
Mof_N 	N 	0.18866	0.20911	0.03685	-0.192
Mof_C 	C 	0.1634	0.29058	0.06527	0.009
Mof_N 	N 	0.16673	0.20369	0.06451	-0.101
Mof_C 	C 	0.17517	0.3201	0.08279	0.025
Mof_H 	H 	0.1432	0.2763	0.0721	0.003
Mof_C 	C 	0.1605	0.33719	0.11551	0.051
Mof_C 	C 	0.17679	0.36777	0.12995	-0.112
Mof_H 	H 	0.1978	0.3774	0.1188	0.067
Mof_N 	N 	0.18459	0.78458	0.53687	-0.221
Mof_N 	N 	0.18866	0.70911	0.53685	-0.19
Mof_C 	C 	0.1634	0.79058	0.56527	0.011
Mof_N 	N 	0.16673	0.70369	0.56451	-0.1
Mof_C 	C 	0.17517	0.8201	0.58279	0.026
Mof_H 	H 	0.1432	0.7763	0.5721	0.005
Mof_C 	C 	0.1605	0.83719	0.61551	0.053
Mof_C 	C 	0.17679	0.86777	0.62995	-0.112
Mof_H 	H 	0.1978	0.8774	0.6188	0.069
Mof_N 	N 	0.46313	0.68459	0.71542	-0.221
Mof_N 	N 	0.46315	0.68866	0.79089	-0.189
Mof_C 	C 	0.43473	0.6634	0.70942	0.011
Mof_N 	N 	0.43549	0.66673	0.79631	-0.099
Mof_C 	C 	0.41721	0.67517	0.6799	0.026
Mof_H 	H 	0.4279	0.6432	0.7237	0.006
Mof_C 	C 	0.38449	0.6605	0.66281	0.053
Mof_C 	C 	0.37005	0.67679	0.63223	-0.112
Mof_H 	H 	0.3812	0.6978	0.6226	0.068
Mof_N 	N 	0.46313	0.18459	0.21542	-0.221
Mof_N 	N 	0.46315	0.18866	0.29089	-0.19
Mof_C 	C 	0.43473	0.1634	0.20942	0.01
Mof_N 	N 	0.43549	0.16673	0.29631	-0.1
Mof_C 	C 	0.41721	0.17517	0.1799	0.026
Mof_H 	H 	0.4279	0.1432	0.2237	0.005
Mof_C 	C 	0.38449	0.1605	0.16281	0.052
Mof_C 	C 	0.37005	0.17679	0.13223	-0.112
Mof_H 	H 	0.3812	0.1978	0.1226	0.067
Mof_N 	N 	0.96313	0.68459	0.21542	-0.214
Mof_N 	N 	0.96315	0.68866	0.29089	-0.183
Mof_C 	C 	0.93473	0.6634	0.20942	0.011
Mof_N 	N 	0.93549	0.66673	0.29631	-0.097
Mof_C 	C 	0.91721	0.67517	0.1799	0.027
Mof_H 	H 	0.9279	0.6432	0.2237	0.008
Mof_C 	C 	0.88449	0.6605	0.16281	0.053
Mof_C 	C 	0.87005	0.67679	0.13223	-0.112
Mof_H 	H 	0.8812	0.6978	0.1226	0.068
Mof_N 	N 	0.96313	0.18459	0.71542	-0.214
Mof_N 	N 	0.96315	0.18866	0.79089	-0.183
Mof_C 	C 	0.93473	0.1634	0.70942	0.011
Mof_N 	N 	0.93549	0.16673	0.79631	-0.098
Mof_C 	C 	0.91721	0.17517	0.6799	0.027
Mof_H 	H 	0.9279	0.1432	0.7237	0.007
Mof_C 	C 	0.88449	0.1605	0.66281	0.053
Mof_C 	C 	0.87005	0.17679	0.63223	-0.112
Mof_H 	H 	0.8812	0.1978	0.6226	0.069
Mof_N 	N 	0.46313	0.31541	0.28458	-0.221
Mof_N 	N 	0.46315	0.31134	0.20911	-0.19
Mof_C 	C 	0.43473	0.3366	0.29058	0.011
Mof_N 	N 	0.43549	0.33327	0.20369	-0.099
Mof_C 	C 	0.41721	0.32483	0.3201	0.026
Mof_H 	H 	0.4279	0.3568	0.2763	0.006
Mof_C 	C 	0.38449	0.3395	0.33719	0.053
Mof_C 	C 	0.37005	0.32321	0.36777	-0.112
Mof_H 	H 	0.3812	0.3022	0.3774	0.068
Mof_N 	N 	0.46313	0.81541	0.78458	-0.22
Mof_N 	N 	0.46315	0.81134	0.70911	-0.189
Mof_C 	C 	0.43473	0.8366	0.79058	0.011
Mof_N 	N 	0.43549	0.83327	0.70369	-0.098
Mof_C 	C 	0.41721	0.82483	0.8201	0.027
Mof_H 	H 	0.4279	0.8568	0.7763	0.007
Mof_C 	C 	0.38449	0.8395	0.83719	0.054
Mof_C 	C 	0.37005	0.82321	0.86777	-0.112
Mof_H 	H 	0.3812	0.8022	0.8774	0.069
Mof_N 	N 	0.96313	0.31541	0.78458	-0.214
Mof_N 	N 	0.96315	0.31134	0.70911	-0.183
Mof_C 	C 	0.93473	0.3366	0.79058	0.012
Mof_N 	N 	0.93549	0.33327	0.70369	-0.097
Mof_C 	C 	0.91721	0.32483	0.8201	0.028
Mof_H 	H 	0.9279	0.3568	0.7763	0.008
Mof_C 	C 	0.88449	0.3395	0.83719	0.055
Mof_C 	C 	0.87005	0.32321	0.86777	-0.112
Mof_H 	H 	0.8812	0.3022	0.8774	0.07
Mof_N 	N 	0.96313	0.81541	0.28458	-0.214
Mof_N 	N 	0.96315	0.81134	0.20911	-0.183
Mof_C 	C 	0.93473	0.8366	0.29058	0.012
Mof_N 	N 	0.93549	0.83327	0.20369	-0.097
Mof_C 	C 	0.91721	0.82483	0.3201	0.028
Mof_H 	H 	0.9279	0.8568	0.2763	0.009
Mof_C 	C 	0.88449	0.8395	0.33719	0.055
Mof_C 	C 	0.87005	0.82321	0.36777	-0.112
Mof_H 	H 	0.8812	0.8022	0.3774	0.069
Mof_N 	N 	0.53687	0.31541	0.71542	-0.22
Mof_N 	N 	0.53685	0.31134	0.79089	-0.189
Mof_C 	C 	0.56527	0.3366	0.70942	0.011
Mof_N 	N 	0.56451	0.33327	0.79631	-0.099
Mof_C 	C 	0.58279	0.32483	0.6799	0.026
Mof_H 	H 	0.5721	0.3568	0.7237	0.006
Mof_C 	C 	0.61551	0.3395	0.66281	0.053
Mof_C 	C 	0.62995	0.32321	0.63223	-0.112
Mof_H 	H 	0.6188	0.3022	0.6226	0.068
Mof_N 	N 	0.53687	0.81541	0.21542	-0.22
Mof_N 	N 	0.53685	0.81134	0.29089	-0.189
Mof_C 	C 	0.56527	0.8366	0.20942	0.011
Mof_N 	N 	0.56451	0.83327	0.29631	-0.098
Mof_C 	C 	0.58279	0.82483	0.1799	0.026
Mof_H 	H 	0.5721	0.8568	0.2237	0.006
Mof_C 	C 	0.61551	0.8395	0.16281	0.053
Mof_C 	C 	0.62995	0.82321	0.13223	-0.112
Mof_H 	H 	0.6188	0.8022	0.1226	0.067
Mof_N 	N 	0.03687	0.31541	0.21542	-0.223
Mof_N 	N 	0.03685	0.31134	0.29089	-0.192
Mof_C 	C 	0.06527	0.3366	0.20942	0.009
Mof_N 	N 	0.06451	0.33327	0.29631	-0.1
Mof_C 	C 	0.08279	0.32483	0.1799	0.025
Mof_H 	H 	0.0721	0.3568	0.2237	0.004
Mof_C 	C 	0.11551	0.3395	0.16281	0.051
Mof_C 	C 	0.12995	0.32321	0.13223	-0.112
Mof_H 	H 	0.1188	0.3022	0.1226	0.066
Mof_N 	N 	0.03687	0.81541	0.71542	-0.222
Mof_N 	N 	0.03685	0.81134	0.79089	-0.191
Mof_C 	C 	0.06527	0.8366	0.70942	0.01
Mof_N 	N 	0.06451	0.83327	0.79631	-0.099
Mof_C 	C 	0.08279	0.82483	0.6799	0.026
Mof_H 	H 	0.0721	0.8568	0.7237	0.005
Mof_C 	C 	0.11551	0.8395	0.66281	0.053
Mof_C 	C 	0.12995	0.82321	0.63223	-0.112
Mof_H 	H 	0.1188	0.8022	0.6226	0.067
Mof_N 	N 	0.53687	0.68459	0.28458	-0.221
Mof_N 	N 	0.53685	0.68866	0.20911	-0.19
Mof_C 	C 	0.56527	0.6634	0.29058	0.011
Mof_N 	N 	0.56451	0.66673	0.20369	-0.099
Mof_C 	C 	0.58279	0.67517	0.3201	0.026
Mof_H 	H 	0.5721	0.6432	0.2763	0.005
Mof_C 	C 	0.61551	0.6605	0.33719	0.053
Mof_C 	C 	0.62995	0.67679	0.36777	-0.112
Mof_H 	H 	0.6188	0.6978	0.3774	0.068
Mof_N 	N 	0.53687	0.18459	0.78458	-0.221
Mof_N 	N 	0.53685	0.18866	0.70911	-0.19
Mof_C 	C 	0.56527	0.1634	0.79058	0.011
Mof_N 	N 	0.56451	0.16673	0.70369	-0.1
Mof_C 	C 	0.58279	0.17517	0.8201	0.026
Mof_H 	H 	0.5721	0.1432	0.7763	0.005
Mof_C 	C 	0.61551	0.1605	0.83719	0.053
Mof_C 	C 	0.62995	0.17679	0.86777	-0.112
Mof_H 	H 	0.6188	0.1978	0.8774	0.069
Mof_N 	N 	0.03687	0.68459	0.78458	-0.223
Mof_N 	N 	0.03685	0.68866	0.70911	-0.192
Mof_C 	C 	0.06527	0.6634	0.79058	0.01
Mof_N 	N 	0.06451	0.66673	0.70369	-0.1
Mof_C 	C 	0.08279	0.67517	0.8201	0.026
Mof_H 	H 	0.0721	0.6432	0.7763	0.004
Mof_C 	C 	0.11551	0.6605	0.83719	0.053
Mof_C 	C 	0.12995	0.67679	0.86777	-0.112
Mof_H 	H 	0.1188	0.6978	0.8774	0.068
Mof_N 	N 	0.03687	0.18459	0.28458	-0.223
Mof_N 	N 	0.03685	0.18866	0.20911	-0.192
Mof_C 	C 	0.06527	0.1634	0.29058	0.009
Mof_N 	N 	0.06451	0.16673	0.20369	-0.101
Mof_C 	C 	0.08279	0.17517	0.3201	0.025
Mof_H 	H 	0.0721	0.1432	0.2763	0.003
Mof_C 	C 	0.11551	0.1605	0.33719	0.051
Mof_C 	C 	0.12995	0.17679	0.36777	-0.112
Mof_H 	H 	0.1188	0.1978	0.3774	0.067
Mof_N 	N 	0.71542	0.46313	0.68459	-0.221
Mof_N 	N 	0.79089	0.46315	0.68866	-0.189
Mof_C 	C 	0.70942	0.43473	0.6634	0.011
Mof_N 	N 	0.79631	0.43549	0.66673	-0.099
Mof_C 	C 	0.6799	0.41721	0.67517	0.026
Mof_H 	H 	0.7237	0.4279	0.6432	0.006
Mof_C 	C 	0.66281	0.38449	0.6605	0.053
Mof_C 	C 	0.63223	0.37005	0.67679	-0.112
Mof_H 	H 	0.6226	0.3812	0.6978	0.068
Mof_N 	N 	0.71542	0.96313	0.18459	-0.214
Mof_N 	N 	0.79089	0.96315	0.18866	-0.183
Mof_C 	C 	0.70942	0.93473	0.1634	0.011
Mof_N 	N 	0.79631	0.93549	0.16673	-0.098
Mof_C 	C 	0.6799	0.91721	0.17517	0.027
Mof_H 	H 	0.7237	0.9279	0.1432	0.007
Mof_C 	C 	0.66281	0.88449	0.1605	0.053
Mof_C 	C 	0.63223	0.87005	0.17679	-0.112
Mof_H 	H 	0.6226	0.8812	0.1978	0.069
Mof_N 	N 	0.21542	0.46313	0.18459	-0.221
Mof_N 	N 	0.29089	0.46315	0.18866	-0.19
Mof_C 	C 	0.20942	0.43473	0.1634	0.01
Mof_N 	N 	0.29631	0.43549	0.16673	-0.1
Mof_C 	C 	0.1799	0.41721	0.17517	0.026
Mof_H 	H 	0.2237	0.4279	0.1432	0.005
Mof_C 	C 	0.16281	0.38449	0.1605	0.052
Mof_C 	C 	0.13223	0.37005	0.17679	-0.112
Mof_H 	H 	0.1226	0.3812	0.1978	0.067
Mof_N 	N 	0.21542	0.96313	0.68459	-0.214
Mof_N 	N 	0.29089	0.96315	0.68866	-0.183
Mof_C 	C 	0.20942	0.93473	0.6634	0.011
Mof_N 	N 	0.29631	0.93549	0.66673	-0.097
Mof_C 	C 	0.1799	0.91721	0.67517	0.027
Mof_H 	H 	0.2237	0.9279	0.6432	0.008
Mof_C 	C 	0.16281	0.88449	0.6605	0.053
Mof_C 	C 	0.13223	0.87005	0.67679	-0.112
Mof_H 	H 	0.1226	0.8812	0.6978	0.068
Mof_N 	N 	0.28458	0.46313	0.31541	-0.221
Mof_N 	N 	0.20911	0.46315	0.31134	-0.19
Mof_C 	C 	0.29058	0.43473	0.3366	0.011
Mof_N 	N 	0.20369	0.43549	0.33327	-0.099
Mof_C 	C 	0.3201	0.41721	0.32483	0.026
Mof_H 	H 	0.2763	0.4279	0.3568	0.006
Mof_C 	C 	0.33719	0.38449	0.3395	0.053
Mof_C 	C 	0.36777	0.37005	0.32321	-0.112
Mof_H 	H 	0.3774	0.3812	0.3022	0.068
Mof_N 	N 	0.28458	0.96313	0.81541	-0.214
Mof_N 	N 	0.20911	0.96315	0.81134	-0.183
Mof_C 	C 	0.29058	0.93473	0.8366	0.012
Mof_N 	N 	0.20369	0.93549	0.83327	-0.097
Mof_C 	C 	0.3201	0.91721	0.82483	0.028
Mof_H 	H 	0.2763	0.9279	0.8568	0.009
Mof_C 	C 	0.33719	0.88449	0.8395	0.055
Mof_C 	C 	0.36777	0.87005	0.82321	-0.112
Mof_H 	H 	0.3774	0.8812	0.8022	0.069
Mof_N 	N 	0.78458	0.46313	0.81541	-0.22
Mof_N 	N 	0.70911	0.46315	0.81134	-0.189
Mof_C 	C 	0.79058	0.43473	0.8366	0.011
Mof_N 	N 	0.70369	0.43549	0.83327	-0.098
Mof_C 	C 	0.8201	0.41721	0.82483	0.027
Mof_H 	H 	0.7763	0.4279	0.8568	0.007
Mof_C 	C 	0.83719	0.38449	0.8395	0.054
Mof_C 	C 	0.86777	0.37005	0.82321	-0.112
Mof_H 	H 	0.8774	0.3812	0.8022	0.069
Mof_N 	N 	0.78458	0.96313	0.31541	-0.214
Mof_N 	N 	0.70911	0.96315	0.31134	-0.183
Mof_C 	C 	0.79058	0.93473	0.3366	0.012
Mof_N 	N 	0.70369	0.93549	0.33327	-0.097
Mof_C 	C 	0.8201	0.91721	0.32483	0.028
Mof_H 	H 	0.7763	0.9279	0.3568	0.008
Mof_C 	C 	0.83719	0.88449	0.3395	0.055
Mof_C 	C 	0.86777	0.87005	0.32321	-0.112
Mof_H 	H 	0.8774	0.8812	0.3022	0.07
Mof_N 	N 	0.71542	0.53687	0.31541	-0.22
Mof_N 	N 	0.79089	0.53685	0.31134	-0.189
Mof_C 	C 	0.70942	0.56527	0.3366	0.011
Mof_N 	N 	0.79631	0.56451	0.33327	-0.099
Mof_C 	C 	0.6799	0.58279	0.32483	0.026
Mof_H 	H 	0.7237	0.5721	0.3568	0.006
Mof_C 	C 	0.66281	0.61551	0.3395	0.053
Mof_C 	C 	0.63223	0.62995	0.32321	-0.112
Mof_H 	H 	0.6226	0.6188	0.3022	0.068
Mof_N 	N 	0.71542	0.03687	0.81541	-0.222
Mof_N 	N 	0.79089	0.03685	0.81134	-0.191
Mof_C 	C 	0.70942	0.06527	0.8366	0.01
Mof_N 	N 	0.79631	0.06451	0.83327	-0.099
Mof_C 	C 	0.6799	0.08279	0.82483	0.026
Mof_H 	H 	0.7237	0.0721	0.8568	0.005
Mof_C 	C 	0.66281	0.11551	0.8395	0.053
Mof_C 	C 	0.63223	0.12995	0.82321	-0.112
Mof_H 	H 	0.6226	0.1188	0.8022	0.067
Mof_N 	N 	0.21542	0.53687	0.81541	-0.22
Mof_N 	N 	0.29089	0.53685	0.81134	-0.189
Mof_C 	C 	0.20942	0.56527	0.8366	0.011
Mof_N 	N 	0.29631	0.56451	0.83327	-0.098
Mof_C 	C 	0.1799	0.58279	0.82483	0.026
Mof_H 	H 	0.2237	0.5721	0.8568	0.006
Mof_C 	C 	0.16281	0.61551	0.8395	0.053
Mof_C 	C 	0.13223	0.62995	0.82321	-0.112
Mof_H 	H 	0.1226	0.6188	0.8022	0.067
Mof_N 	N 	0.21542	0.03687	0.31541	-0.223
Mof_N 	N 	0.29089	0.03685	0.31134	-0.192
Mof_C 	C 	0.20942	0.06527	0.3366	0.009
Mof_N 	N 	0.29631	0.06451	0.33327	-0.1
Mof_C 	C 	0.1799	0.08279	0.32483	0.025
Mof_H 	H 	0.2237	0.0721	0.3568	0.004
Mof_C 	C 	0.16281	0.11551	0.3395	0.051
Mof_C 	C 	0.13223	0.12995	0.32321	-0.112
Mof_H 	H 	0.1226	0.1188	0.3022	0.066
Mof_N 	N 	0.28458	0.53687	0.68459	-0.221
Mof_N 	N 	0.20911	0.53685	0.68866	-0.19
Mof_C 	C 	0.29058	0.56527	0.6634	0.011
Mof_N 	N 	0.20369	0.56451	0.66673	-0.099
Mof_C 	C 	0.3201	0.58279	0.67517	0.026
Mof_H 	H 	0.2763	0.5721	0.6432	0.005
Mof_C 	C 	0.33719	0.61551	0.6605	0.053
Mof_C 	C 	0.36777	0.62995	0.67679	-0.112
Mof_H 	H 	0.3774	0.6188	0.6978	0.068
Mof_N 	N 	0.28458	0.03687	0.18459	-0.223
Mof_N 	N 	0.20911	0.03685	0.18866	-0.192
Mof_C 	C 	0.29058	0.06527	0.1634	0.009
Mof_N 	N 	0.20369	0.06451	0.16673	-0.101
Mof_C 	C 	0.3201	0.08279	0.17517	0.025
Mof_H 	H 	0.2763	0.0721	0.1432	0.003
Mof_C 	C 	0.33719	0.11551	0.1605	0.051
Mof_C 	C 	0.36777	0.12995	0.17679	-0.112
Mof_H 	H 	0.3774	0.1188	0.1978	0.067
Mof_N 	N 	0.78458	0.53687	0.18459	-0.221
Mof_N 	N 	0.70911	0.53685	0.18866	-0.19
Mof_C 	C 	0.79058	0.56527	0.1634	0.011
Mof_N 	N 	0.70369	0.56451	0.16673	-0.1
Mof_C 	C 	0.8201	0.58279	0.17517	0.026
Mof_H 	H 	0.7763	0.5721	0.1432	0.005
Mof_C 	C 	0.83719	0.61551	0.1605	0.053
Mof_C 	C 	0.86777	0.62995	0.17679	-0.112
Mof_H 	H 	0.8774	0.6188	0.1978	0.069
Mof_N 	N 	0.78458	0.03687	0.68459	-0.223
Mof_N 	N 	0.70911	0.03685	0.68866	-0.192
Mof_C 	C 	0.79058	0.06527	0.6634	0.01
Mof_N 	N 	0.70369	0.06451	0.66673	-0.1
Mof_C 	C 	0.8201	0.08279	0.67517	0.026
Mof_H 	H 	0.7763	0.0721	0.6432	0.004
Mof_C 	C 	0.83719	0.11551	0.6605	0.053
Mof_C 	C 	0.86777	0.12995	0.67679	-0.112
Mof_H 	H 	0.8774	0.1188	0.6978	0.068
Mof_N 	N 	0.21542	0.18459	0.03687	-0.223
Mof_N 	N 	0.29089	0.18866	0.03685	-0.192
Mof_C 	C 	0.20942	0.1634	0.06527	0.009
Mof_N 	N 	0.29631	0.16673	0.06451	-0.101
Mof_C 	C 	0.1799	0.17517	0.08279	0.025
Mof_H 	H 	0.2237	0.1432	0.0721	0.003
Mof_C 	C 	0.16281	0.1605	0.11551	0.051
Mof_C 	C 	0.13223	0.17679	0.12995	-0.112
Mof_H 	H 	0.1226	0.1978	0.1188	0.066
Mof_N 	N 	0.21542	0.68459	0.53687	-0.221
Mof_N 	N 	0.29089	0.68866	0.53685	-0.19
Mof_C 	C 	0.20942	0.6634	0.56527	0.01
Mof_N 	N 	0.29631	0.66673	0.56451	-0.099
Mof_C 	C 	0.1799	0.67517	0.58279	0.026
Mof_H 	H 	0.2237	0.6432	0.5721	0.005
Mof_C 	C 	0.16281	0.6605	0.61551	0.052
Mof_C 	C 	0.13223	0.67679	0.62995	-0.112
Mof_H 	H 	0.1226	0.6978	0.6188	0.067
Mof_N 	N 	0.71542	0.18459	0.53687	-0.221
Mof_N 	N 	0.79089	0.18866	0.53685	-0.19
Mof_C 	C 	0.70942	0.1634	0.56527	0.01
Mof_N 	N 	0.79631	0.16673	0.56451	-0.099
Mof_C 	C 	0.6799	0.17517	0.58279	0.026
Mof_H 	H 	0.7237	0.1432	0.5721	0.005
Mof_C 	C 	0.66281	0.1605	0.61551	0.052
Mof_C 	C 	0.63223	0.17679	0.62995	-0.112
Mof_H 	H 	0.6226	0.1978	0.6188	0.068
Mof_N 	N 	0.71542	0.68459	0.03687	-0.223
Mof_N 	N 	0.79089	0.68866	0.03685	-0.192
Mof_C 	C 	0.70942	0.6634	0.06527	0.01
Mof_N 	N 	0.79631	0.66673	0.06451	-0.1
Mof_C 	C 	0.6799	0.67517	0.08279	0.025
Mof_H 	H 	0.7237	0.6432	0.0721	0.004
Mof_C 	C 	0.66281	0.6605	0.11551	0.052
Mof_C 	C 	0.63223	0.67679	0.12995	-0.112
Mof_H 	H 	0.6226	0.6978	0.1188	0.067
Mof_N 	N 	0.78458	0.81541	0.03687	-0.222
Mof_N 	N 	0.70911	0.81134	0.03685	-0.191
Mof_C 	C 	0.79058	0.8366	0.06527	0.01
Mof_N 	N 	0.70369	0.83327	0.06451	-0.1
Mof_C 	C 	0.8201	0.82483	0.08279	0.026
Mof_H 	H 	0.7763	0.8568	0.0721	0.005
Mof_C 	C 	0.83719	0.8395	0.11551	0.053
Mof_C 	C 	0.86777	0.82321	0.12995	-0.112
Mof_H 	H 	0.8774	0.8022	0.1188	0.068
Mof_N 	N 	0.78458	0.31541	0.53687	-0.22
Mof_N 	N 	0.70911	0.31134	0.53685	-0.189
Mof_C 	C 	0.79058	0.3366	0.56527	0.011
Mof_N 	N 	0.70369	0.33327	0.56451	-0.099
Mof_C 	C 	0.8201	0.32483	0.58279	0.027
Mof_H 	H 	0.7763	0.3568	0.5721	0.006
Mof_C 	C 	0.83719	0.3395	0.61551	0.054
Mof_C 	C 	0.86777	0.32321	0.62995	-0.112
Mof_H 	H 	0.8774	0.3022	0.6188	0.069
Mof_N 	N 	0.28458	0.81541	0.53687	-0.22
Mof_N 	N 	0.20911	0.81134	0.53685	-0.189
Mof_C 	C 	0.29058	0.8366	0.56527	0.011
Mof_N 	N 	0.20369	0.83327	0.56451	-0.099
Mof_C 	C 	0.3201	0.82483	0.58279	0.027
Mof_H 	H 	0.2763	0.8568	0.5721	0.007
Mof_C 	C 	0.33719	0.8395	0.61551	0.054
Mof_C 	C 	0.36777	0.82321	0.62995	-0.112
Mof_H 	H 	0.3774	0.8022	0.6188	0.068
Mof_N 	N 	0.28458	0.31541	0.03687	-0.223
Mof_N 	N 	0.20911	0.31134	0.03685	-0.192
Mof_C 	C 	0.29058	0.3366	0.06527	0.01
Mof_N 	N 	0.20369	0.33327	0.06451	-0.1
Mof_C 	C 	0.3201	0.32483	0.08279	0.026
Mof_H 	H 	0.2763	0.3568	0.0721	0.004
Mof_C 	C 	0.33719	0.3395	0.11551	0.052
Mof_C 	C 	0.36777	0.32321	0.12995	-0.112
Mof_H 	H 	0.3774	0.3022	0.1188	0.067
Mof_N 	N 	0.21542	0.81541	0.96313	-0.214
Mof_N 	N 	0.29089	0.81134	0.96315	-0.183
Mof_C 	C 	0.20942	0.8366	0.93473	0.012
Mof_N 	N 	0.29631	0.83327	0.93549	-0.097
Mof_C 	C 	0.1799	0.82483	0.91721	0.028
Mof_H 	H 	0.2237	0.8568	0.9279	0.009
Mof_C 	C 	0.16281	0.8395	0.88449	0.054
Mof_C 	C 	0.13223	0.82321	0.87005	-0.112
Mof_H 	H 	0.1226	0.8022	0.8812	0.069
Mof_N 	N 	0.21542	0.31541	0.46313	-0.221
Mof_N 	N 	0.29089	0.31134	0.46315	-0.189
Mof_C 	C 	0.20942	0.3366	0.43473	0.011
Mof_N 	N 	0.29631	0.33327	0.43549	-0.099
Mof_C 	C 	0.1799	0.32483	0.41721	0.026
Mof_H 	H 	0.2237	0.3568	0.4279	0.005
Mof_C 	C 	0.16281	0.3395	0.38449	0.052
Mof_C 	C 	0.13223	0.32321	0.37005	-0.112
Mof_H 	H 	0.1226	0.3022	0.3812	0.067
Mof_N 	N 	0.71542	0.81541	0.46313	-0.22
Mof_N 	N 	0.79089	0.81134	0.46315	-0.189
Mof_C 	C 	0.70942	0.8366	0.43473	0.011
Mof_N 	N 	0.79631	0.83327	0.43549	-0.098
Mof_C 	C 	0.6799	0.82483	0.41721	0.027
Mof_H 	H 	0.7237	0.8568	0.4279	0.007
Mof_C 	C 	0.66281	0.8395	0.38449	0.054
Mof_C 	C 	0.63223	0.82321	0.37005	-0.112
Mof_H 	H 	0.6226	0.8022	0.3812	0.068
Mof_N 	N 	0.71542	0.31541	0.96313	-0.214
Mof_N 	N 	0.79089	0.31134	0.96315	-0.183
Mof_C 	C 	0.70942	0.3366	0.93473	0.012
Mof_N 	N 	0.79631	0.33327	0.93549	-0.097
Mof_C 	C 	0.6799	0.32483	0.91721	0.028
Mof_H 	H 	0.7237	0.3568	0.9279	0.008
Mof_C 	C 	0.66281	0.3395	0.88449	0.054
Mof_C 	C 	0.63223	0.32321	0.87005	-0.112
Mof_H 	H 	0.6226	0.3022	0.8812	0.069
Mof_N 	N 	0.78458	0.18459	0.96313	-0.214
Mof_N 	N 	0.70911	0.18866	0.96315	-0.183
Mof_C 	C 	0.79058	0.1634	0.93473	0.012
Mof_N 	N 	0.70369	0.16673	0.93549	-0.098
Mof_C 	C 	0.8201	0.17517	0.91721	0.027
Mof_H 	H 	0.7763	0.1432	0.9279	0.007
Mof_C 	C 	0.83719	0.1605	0.88449	0.054
Mof_C 	C 	0.86777	0.17679	0.87005	-0.112
Mof_H 	H 	0.8774	0.1978	0.8812	0.07
Mof_N 	N 	0.78458	0.68459	0.46313	-0.22
Mof_N 	N 	0.70911	0.68866	0.46315	-0.19
Mof_C 	C 	0.79058	0.6634	0.43473	0.011
Mof_N 	N 	0.70369	0.66673	0.43549	-0.099
Mof_C 	C 	0.8201	0.67517	0.41721	0.027
Mof_H 	H 	0.7763	0.6432	0.4279	0.006
Mof_C 	C 	0.83719	0.6605	0.38449	0.054
Mof_C 	C 	0.86777	0.67679	0.37005	-0.112
Mof_H 	H 	0.8774	0.6978	0.3812	0.069
Mof_N 	N 	0.28458	0.18459	0.46313	-0.221
Mof_N 	N 	0.20911	0.18866	0.46315	-0.19
Mof_C 	C 	0.29058	0.1634	0.43473	0.011
Mof_N 	N 	0.20369	0.16673	0.43549	-0.1
Mof_C 	C 	0.3201	0.17517	0.41721	0.026
Mof_H 	H 	0.2763	0.1432	0.4279	0.005
Mof_C 	C 	0.33719	0.1605	0.38449	0.052
Mof_C 	C 	0.36777	0.17679	0.37005	-0.112
Mof_H 	H 	0.3774	0.1978	0.3812	0.068
Mof_N 	N 	0.28458	0.68459	0.96313	-0.214
Mof_N 	N 	0.20911	0.68866	0.96315	-0.183
Mof_C 	C 	0.29058	0.6634	0.93473	0.012
Mof_N 	N 	0.20369	0.66673	0.93549	-0.097
Mof_C 	C 	0.3201	0.67517	0.91721	0.028
Mof_H 	H 	0.2763	0.6432	0.9279	0.008
Mof_C 	C 	0.33719	0.6605	0.88449	0.054
Mof_C 	C 	0.36777	0.67679	0.87005	-0.112
Mof_H 	H 	0.3774	0.6978	0.8812	0.069
Mof_N 	N 	0.18459	0.96313	0.78458	-0.214
Mof_N 	N 	0.18866	0.96315	0.70911	-0.183
Mof_C 	C 	0.1634	0.93473	0.79058	0.012
Mof_N 	N 	0.16673	0.93549	0.70369	-0.098
Mof_C 	C 	0.17517	0.91721	0.8201	0.027
Mof_H 	H 	0.1432	0.9279	0.7763	0.007
Mof_C 	C 	0.1605	0.88449	0.83719	0.054
Mof_C 	C 	0.17679	0.87005	0.86777	-0.112
Mof_H 	H 	0.1978	0.8812	0.8774	0.07
Mof_N 	N 	0.18459	0.46313	0.28458	-0.221
Mof_N 	N 	0.18866	0.46315	0.20911	-0.19
Mof_C 	C 	0.1634	0.43473	0.29058	0.011
Mof_N 	N 	0.16673	0.43549	0.20369	-0.1
Mof_C 	C 	0.17517	0.41721	0.3201	0.026
Mof_H 	H 	0.1432	0.4279	0.2763	0.005
Mof_C 	C 	0.1605	0.38449	0.33719	0.052
Mof_C 	C 	0.17679	0.37005	0.36777	-0.112
Mof_H 	H 	0.1978	0.3812	0.3774	0.068
Mof_N 	N 	0.68459	0.96313	0.28458	-0.214
Mof_N 	N 	0.68866	0.96315	0.20911	-0.183
Mof_C 	C 	0.6634	0.93473	0.29058	0.012
Mof_N 	N 	0.66673	0.93549	0.20369	-0.097
Mof_C 	C 	0.67517	0.91721	0.3201	0.028
Mof_H 	H 	0.6432	0.9279	0.2763	0.008
Mof_C 	C 	0.6605	0.88449	0.33719	0.054
Mof_C 	C 	0.67679	0.87005	0.36777	-0.112
Mof_H 	H 	0.6978	0.8812	0.3774	0.069
Mof_N 	N 	0.68459	0.46313	0.78458	-0.22
Mof_N 	N 	0.68866	0.46315	0.70911	-0.19
Mof_C 	C 	0.6634	0.43473	0.79058	0.011
Mof_N 	N 	0.66673	0.43549	0.70369	-0.099
Mof_C 	C 	0.67517	0.41721	0.8201	0.027
Mof_H 	H 	0.6432	0.4279	0.7763	0.006
Mof_C 	C 	0.6605	0.38449	0.83719	0.054
Mof_C 	C 	0.67679	0.37005	0.86777	-0.112
Mof_H 	H 	0.6978	0.3812	0.8774	0.069
Mof_N 	N 	0.81541	0.96313	0.21542	-0.214
Mof_N 	N 	0.81134	0.96315	0.29089	-0.183
Mof_C 	C 	0.8366	0.93473	0.20942	0.012
Mof_N 	N 	0.83327	0.93549	0.29631	-0.097
Mof_C 	C 	0.82483	0.91721	0.1799	0.028
Mof_H 	H 	0.8568	0.9279	0.2237	0.009
Mof_C 	C 	0.8395	0.88449	0.16281	0.054
Mof_C 	C 	0.82321	0.87005	0.13223	-0.112
Mof_H 	H 	0.8022	0.8812	0.1226	0.069
Mof_N 	N 	0.81541	0.46313	0.71542	-0.22
Mof_N 	N 	0.81134	0.46315	0.79089	-0.189
Mof_C 	C 	0.8366	0.43473	0.70942	0.011
Mof_N 	N 	0.83327	0.43549	0.79631	-0.098
Mof_C 	C 	0.82483	0.41721	0.6799	0.027
Mof_H 	H 	0.8568	0.4279	0.7237	0.007
Mof_C 	C 	0.8395	0.38449	0.66281	0.054
Mof_C 	C 	0.82321	0.37005	0.63223	-0.112
Mof_H 	H 	0.8022	0.3812	0.6226	0.068
Mof_N 	N 	0.31541	0.96313	0.71542	-0.214
Mof_N 	N 	0.31134	0.96315	0.79089	-0.183
Mof_C 	C 	0.3366	0.93473	0.70942	0.012
Mof_N 	N 	0.33327	0.93549	0.79631	-0.097
Mof_C 	C 	0.32483	0.91721	0.6799	0.028
Mof_H 	H 	0.3568	0.9279	0.7237	0.008
Mof_C 	C 	0.3395	0.88449	0.66281	0.054
Mof_C 	C 	0.32321	0.87005	0.63223	-0.112
Mof_H 	H 	0.3022	0.8812	0.6226	0.069
Mof_N 	N 	0.31541	0.46313	0.21542	-0.221
Mof_N 	N 	0.31134	0.46315	0.29089	-0.189
Mof_C 	C 	0.3366	0.43473	0.20942	0.011
Mof_N 	N 	0.33327	0.43549	0.29631	-0.099
Mof_C 	C 	0.32483	0.41721	0.1799	0.026
Mof_H 	H 	0.3568	0.4279	0.2237	0.005
Mof_C 	C 	0.3395	0.38449	0.16281	0.052
Mof_C 	C 	0.32321	0.37005	0.13223	-0.112
Mof_H 	H 	0.3022	0.3812	0.1226	0.067
Mof_N 	N 	0.81541	0.03687	0.78458	-0.222
Mof_N 	N 	0.81134	0.03685	0.70911	-0.191
Mof_C 	C 	0.8366	0.06527	0.79058	0.01
Mof_N 	N 	0.83327	0.06451	0.70369	-0.1
Mof_C 	C 	0.82483	0.08279	0.8201	0.026
Mof_H 	H 	0.8568	0.0721	0.7763	0.005
Mof_C 	C 	0.8395	0.11551	0.83719	0.053
Mof_C 	C 	0.82321	0.12995	0.86777	-0.112
Mof_H 	H 	0.8022	0.1188	0.8774	0.068
Mof_N 	N 	0.81541	0.53687	0.28458	-0.22
Mof_N 	N 	0.81134	0.53685	0.20911	-0.189
Mof_C 	C 	0.8366	0.56527	0.29058	0.011
Mof_N 	N 	0.83327	0.56451	0.20369	-0.099
Mof_C 	C 	0.82483	0.58279	0.3201	0.027
Mof_H 	H 	0.8568	0.5721	0.2763	0.007
Mof_C 	C 	0.8395	0.61551	0.33719	0.054
Mof_C 	C 	0.82321	0.62995	0.36777	-0.112
Mof_H 	H 	0.8022	0.6188	0.3774	0.068
Mof_N 	N 	0.31541	0.03687	0.28458	-0.223
Mof_N 	N 	0.31134	0.03685	0.20911	-0.192
Mof_C 	C 	0.3366	0.06527	0.29058	0.01
Mof_N 	N 	0.33327	0.06451	0.20369	-0.1
Mof_C 	C 	0.32483	0.08279	0.3201	0.026
Mof_H 	H 	0.3568	0.0721	0.2763	0.004
Mof_C 	C 	0.3395	0.11551	0.33719	0.052
Mof_C 	C 	0.32321	0.12995	0.36777	-0.112
Mof_H 	H 	0.3022	0.1188	0.3774	0.067
Mof_N 	N 	0.31541	0.53687	0.78458	-0.22
Mof_N 	N 	0.31134	0.53685	0.70911	-0.189
Mof_C 	C 	0.3366	0.56527	0.79058	0.011
Mof_N 	N 	0.33327	0.56451	0.70369	-0.099
Mof_C 	C 	0.32483	0.58279	0.8201	0.027
Mof_H 	H 	0.3568	0.5721	0.7763	0.006
Mof_C 	C 	0.3395	0.61551	0.83719	0.054
Mof_C 	C 	0.32321	0.62995	0.86777	-0.112
Mof_H 	H 	0.3022	0.6188	0.8774	0.069
Mof_N 	N 	0.18459	0.03687	0.21542	-0.223
Mof_N 	N 	0.18866	0.03685	0.29089	-0.192
Mof_C 	C 	0.1634	0.06527	0.20942	0.009
Mof_N 	N 	0.16673	0.06451	0.29631	-0.101
Mof_C 	C 	0.17517	0.08279	0.1799	0.025
Mof_H 	H 	0.1432	0.0721	0.2237	0.003
Mof_C 	C 	0.1605	0.11551	0.16281	0.051
Mof_C 	C 	0.17679	0.12995	0.13223	-0.112
Mof_H 	H 	0.1978	0.1188	0.1226	0.066
Mof_N 	N 	0.18459	0.53687	0.71542	-0.221
Mof_N 	N 	0.18866	0.53685	0.79089	-0.19
Mof_C 	C 	0.1634	0.56527	0.70942	0.01
Mof_N 	N 	0.16673	0.56451	0.79631	-0.099
Mof_C 	C 	0.17517	0.58279	0.6799	0.026
Mof_H 	H 	0.1432	0.5721	0.7237	0.005
Mof_C 	C 	0.1605	0.61551	0.66281	0.052
Mof_C 	C 	0.17679	0.62995	0.63223	-0.112
Mof_H 	H 	0.1978	0.6188	0.6226	0.068
Mof_N 	N 	0.68459	0.03687	0.71542	-0.223
Mof_N 	N 	0.68866	0.03685	0.79089	-0.192
Mof_C 	C 	0.6634	0.06527	0.70942	0.01
Mof_N 	N 	0.66673	0.06451	0.79631	-0.1
Mof_C 	C 	0.67517	0.08279	0.6799	0.025
Mof_H 	H 	0.6432	0.0721	0.7237	0.004
Mof_C 	C 	0.6605	0.11551	0.66281	0.052
Mof_C 	C 	0.67679	0.12995	0.63223	-0.112
Mof_H 	H 	0.6978	0.1188	0.6226	0.067
Mof_N 	N 	0.68459	0.53687	0.21542	-0.221
Mof_N 	N 	0.68866	0.53685	0.29089	-0.19
Mof_C 	C 	0.6634	0.56527	0.20942	0.01
Mof_N 	N 	0.66673	0.56451	0.29631	-0.099
Mof_C 	C 	0.67517	0.58279	0.1799	0.026
Mof_H 	H 	0.6432	0.5721	0.2237	0.005
Mof_C 	C 	0.6605	0.61551	0.16281	0.052
Mof_C 	C 	0.67679	0.62995	0.13223	-0.112
Mof_H 	H 	0.6978	0.6188	0.1226	0.067
Mof_N 	N 	0.96313	0.21542	0.81541	-0.214
Mof_N 	N 	0.96315	0.29089	0.81134	-0.183
Mof_C 	C 	0.93473	0.20942	0.8366	0.012
Mof_N 	N 	0.93549	0.29631	0.83327	-0.097
Mof_C 	C 	0.91721	0.1799	0.82483	0.028
Mof_H 	H 	0.9279	0.2237	0.8568	0.009
Mof_C 	C 	0.88449	0.16281	0.8395	0.054
Mof_C 	C 	0.87005	0.13223	0.82321	-0.112
Mof_H 	H 	0.8812	0.1226	0.8022	0.069
Mof_N 	N 	0.96313	0.71542	0.31541	-0.214
Mof_N 	N 	0.96315	0.79089	0.31134	-0.183
Mof_C 	C 	0.93473	0.70942	0.3366	0.012
Mof_N 	N 	0.93549	0.79631	0.33327	-0.097
Mof_C 	C 	0.91721	0.6799	0.32483	0.028
Mof_H 	H 	0.9279	0.7237	0.3568	0.008
Mof_C 	C 	0.88449	0.66281	0.3395	0.054
Mof_C 	C 	0.87005	0.63223	0.32321	-0.112
Mof_H 	H 	0.8812	0.6226	0.3022	0.069
Mof_N 	N 	0.46313	0.21542	0.31541	-0.221
Mof_N 	N 	0.46315	0.29089	0.31134	-0.189
Mof_C 	C 	0.43473	0.20942	0.3366	0.011
Mof_N 	N 	0.43549	0.29631	0.33327	-0.099
Mof_C 	C 	0.41721	0.1799	0.32483	0.026
Mof_H 	H 	0.4279	0.2237	0.3568	0.005
Mof_C 	C 	0.38449	0.16281	0.3395	0.052
Mof_C 	C 	0.37005	0.13223	0.32321	-0.112
Mof_H 	H 	0.3812	0.1226	0.3022	0.067
Mof_N 	N 	0.46313	0.71542	0.81541	-0.22
Mof_N 	N 	0.46315	0.79089	0.81134	-0.189
Mof_C 	C 	0.43473	0.70942	0.8366	0.011
Mof_N 	N 	0.43549	0.79631	0.83327	-0.098
Mof_C 	C 	0.41721	0.6799	0.82483	0.027
Mof_H 	H 	0.4279	0.7237	0.8568	0.007
Mof_C 	C 	0.38449	0.66281	0.8395	0.054
Mof_C 	C 	0.37005	0.63223	0.82321	-0.112
Mof_H 	H 	0.3812	0.6226	0.8022	0.068
Mof_N 	N 	0.96313	0.78458	0.18459	-0.214
Mof_N 	N 	0.96315	0.70911	0.18866	-0.183
Mof_C 	C 	0.93473	0.79058	0.1634	0.012
Mof_N 	N 	0.93549	0.70369	0.16673	-0.098
Mof_C 	C 	0.91721	0.8201	0.17517	0.027
Mof_H 	H 	0.9279	0.7763	0.1432	0.007
Mof_C 	C 	0.88449	0.83719	0.1605	0.054
Mof_C 	C 	0.87005	0.86777	0.17679	-0.112
Mof_H 	H 	0.8812	0.8774	0.1978	0.07
Mof_N 	N 	0.96313	0.28458	0.68459	-0.214
Mof_N 	N 	0.96315	0.20911	0.68866	-0.183
Mof_C 	C 	0.93473	0.29058	0.6634	0.012
Mof_N 	N 	0.93549	0.20369	0.66673	-0.097
Mof_C 	C 	0.91721	0.3201	0.67517	0.028
Mof_H 	H 	0.9279	0.2763	0.6432	0.008
Mof_C 	C 	0.88449	0.33719	0.6605	0.054
Mof_C 	C 	0.87005	0.36777	0.67679	-0.112
Mof_H 	H 	0.8812	0.3774	0.6978	0.069
Mof_N 	N 	0.46313	0.78458	0.68459	-0.22
Mof_N 	N 	0.46315	0.70911	0.68866	-0.19
Mof_C 	C 	0.43473	0.79058	0.6634	0.011
Mof_N 	N 	0.43549	0.70369	0.66673	-0.099
Mof_C 	C 	0.41721	0.8201	0.67517	0.027
Mof_H 	H 	0.4279	0.7763	0.6432	0.006
Mof_C 	C 	0.38449	0.83719	0.6605	0.054
Mof_C 	C 	0.37005	0.86777	0.67679	-0.112
Mof_H 	H 	0.3812	0.8774	0.6978	0.069
Mof_N 	N 	0.46313	0.28458	0.18459	-0.221
Mof_N 	N 	0.46315	0.20911	0.18866	-0.19
Mof_C 	C 	0.43473	0.29058	0.1634	0.011
Mof_N 	N 	0.43549	0.20369	0.16673	-0.1
Mof_C 	C 	0.41721	0.3201	0.17517	0.026
Mof_H 	H 	0.4279	0.2763	0.1432	0.005
Mof_C 	C 	0.38449	0.33719	0.1605	0.052
Mof_C 	C 	0.37005	0.36777	0.17679	-0.112
Mof_H 	H 	0.3812	0.3774	0.1978	0.068
Mof_N 	N 	0.03687	0.21542	0.18459	-0.223
Mof_N 	N 	0.03685	0.29089	0.18866	-0.192
Mof_C 	C 	0.06527	0.20942	0.1634	0.009
Mof_N 	N 	0.06451	0.29631	0.16673	-0.101
Mof_C 	C 	0.08279	0.1799	0.17517	0.025
Mof_H 	H 	0.0721	0.2237	0.1432	0.003
Mof_C 	C 	0.11551	0.16281	0.1605	0.051
Mof_C 	C 	0.12995	0.13223	0.17679	-0.112
Mof_H 	H 	0.1188	0.1226	0.1978	0.066
Mof_N 	N 	0.03687	0.71542	0.68459	-0.223
Mof_N 	N 	0.03685	0.79089	0.68866	-0.192
Mof_C 	C 	0.06527	0.70942	0.6634	0.01
Mof_N 	N 	0.06451	0.79631	0.66673	-0.1
Mof_C 	C 	0.08279	0.6799	0.67517	0.025
Mof_H 	H 	0.0721	0.7237	0.6432	0.004
Mof_C 	C 	0.11551	0.66281	0.6605	0.052
Mof_C 	C 	0.12995	0.63223	0.67679	-0.112
Mof_H 	H 	0.1188	0.6226	0.6978	0.067
Mof_N 	N 	0.53687	0.21542	0.68459	-0.221
Mof_N 	N 	0.53685	0.29089	0.68866	-0.19
Mof_C 	C 	0.56527	0.20942	0.6634	0.01
Mof_N 	N 	0.56451	0.29631	0.66673	-0.099
Mof_C 	C 	0.58279	0.1799	0.67517	0.026
Mof_H 	H 	0.5721	0.2237	0.6432	0.005
Mof_C 	C 	0.61551	0.16281	0.6605	0.052
Mof_C 	C 	0.62995	0.13223	0.67679	-0.112
Mof_H 	H 	0.6188	0.1226	0.6978	0.067
Mof_N 	N 	0.53687	0.71542	0.18459	-0.221
Mof_N 	N 	0.53685	0.79089	0.18866	-0.19
Mof_C 	C 	0.56527	0.70942	0.1634	0.01
Mof_N 	N 	0.56451	0.79631	0.16673	-0.099
Mof_C 	C 	0.58279	0.6799	0.17517	0.026
Mof_H 	H 	0.5721	0.7237	0.1432	0.005
Mof_C 	C 	0.61551	0.66281	0.1605	0.052
Mof_C 	C 	0.62995	0.63223	0.17679	-0.112
Mof_H 	H 	0.6188	0.6226	0.1978	0.068
Mof_N 	N 	0.03687	0.78458	0.81541	-0.222
Mof_N 	N 	0.03685	0.70911	0.81134	-0.191
Mof_C 	C 	0.06527	0.79058	0.8366	0.01
Mof_N 	N 	0.06451	0.70369	0.83327	-0.1
Mof_C 	C 	0.08279	0.8201	0.82483	0.026
Mof_H 	H 	0.0721	0.7763	0.8568	0.005
Mof_C 	C 	0.11551	0.83719	0.8395	0.053
Mof_C 	C 	0.12995	0.86777	0.82321	-0.112
Mof_H 	H 	0.1188	0.8774	0.8022	0.068
Mof_N 	N 	0.03687	0.28458	0.31541	-0.223
Mof_N 	N 	0.03685	0.20911	0.31134	-0.192
Mof_C 	C 	0.06527	0.29058	0.3366	0.01
Mof_N 	N 	0.06451	0.20369	0.33327	-0.1
Mof_C 	C 	0.08279	0.3201	0.32483	0.026
Mof_H 	H 	0.0721	0.2763	0.3568	0.004
Mof_C 	C 	0.11551	0.33719	0.3395	0.052
Mof_C 	C 	0.12995	0.36777	0.32321	-0.112
Mof_H 	H 	0.1188	0.3774	0.3022	0.067
Mof_N 	N 	0.53687	0.78458	0.31541	-0.22
Mof_N 	N 	0.53685	0.70911	0.31134	-0.189
Mof_C 	C 	0.56527	0.79058	0.3366	0.011
Mof_N 	N 	0.56451	0.70369	0.33327	-0.099
Mof_C 	C 	0.58279	0.8201	0.32483	0.027
Mof_H 	H 	0.5721	0.7763	0.3568	0.006
Mof_C 	C 	0.61551	0.83719	0.3395	0.054
Mof_C 	C 	0.62995	0.86777	0.32321	-0.112
Mof_H 	H 	0.6188	0.8774	0.3022	0.069
Mof_N 	N 	0.53687	0.28458	0.81541	-0.22
Mof_N 	N 	0.53685	0.20911	0.81134	-0.189
Mof_C 	C 	0.56527	0.29058	0.8366	0.011
Mof_N 	N 	0.56451	0.20369	0.83327	-0.099
Mof_C 	C 	0.58279	0.3201	0.82483	0.027
Mof_H 	H 	0.5721	0.2763	0.8568	0.007
Mof_C 	C 	0.61551	0.33719	0.8395	0.054
Mof_C 	C 	0.62995	0.36777	0.82321	-0.112
Mof_H 	H 	0.6188	0.3774	0.8022	0.068
Mof_N 	N 	0.31541	0.28458	0.53687	-0.221
Mof_N 	N 	0.31134	0.20911	0.53685	-0.19
Mof_C 	C 	0.3366	0.29058	0.56527	0.011
Mof_N 	N 	0.33327	0.20369	0.56451	-0.099
Mof_C 	C 	0.32483	0.3201	0.58279	0.026
Mof_H 	H 	0.3568	0.2763	0.5721	0.006
Mof_C 	C 	0.3395	0.33719	0.61551	0.053
Mof_C 	C 	0.32321	0.36777	0.62995	-0.112
Mof_H 	H 	0.3022	0.3774	0.6188	0.068
Mof_N 	N 	0.31541	0.78458	0.03687	-0.223
Mof_N 	N 	0.31134	0.70911	0.03685	-0.192
Mof_C 	C 	0.3366	0.79058	0.06527	0.01
Mof_N 	N 	0.33327	0.70369	0.06451	-0.1
Mof_C 	C 	0.32483	0.8201	0.08279	0.026
Mof_H 	H 	0.3568	0.7763	0.0721	0.004
Mof_C 	C 	0.3395	0.83719	0.11551	0.053
Mof_C 	C 	0.32321	0.86777	0.12995	-0.112
Mof_H 	H 	0.3022	0.8774	0.1188	0.068
Mof_N 	N 	0.81541	0.28458	0.03687	-0.222
Mof_N 	N 	0.81134	0.20911	0.03685	-0.192
Mof_C 	C 	0.8366	0.29058	0.06527	0.01
Mof_N 	N 	0.83327	0.20369	0.06451	-0.1
Mof_C 	C 	0.82483	0.3201	0.08279	0.026
Mof_H 	H 	0.8568	0.2763	0.0721	0.005
Mof_C 	C 	0.8395	0.33719	0.11551	0.053
Mof_C 	C 	0.82321	0.36777	0.12995	-0.112
Mof_H 	H 	0.8022	0.3774	0.1188	0.067
Mof_N 	N 	0.81541	0.78458	0.53687	-0.22
Mof_N 	N 	0.81134	0.70911	0.53685	-0.189
Mof_C 	C 	0.8366	0.79058	0.56527	0.011
Mof_N 	N 	0.83327	0.70369	0.56451	-0.098
Mof_C 	C 	0.82483	0.8201	0.58279	0.027
Mof_H 	H 	0.8568	0.7763	0.5721	0.007
Mof_C 	C 	0.8395	0.83719	0.61551	0.054
Mof_C 	C 	0.82321	0.86777	0.62995	-0.112
Mof_H 	H 	0.8022	0.8774	0.6188	0.069
Mof_N 	N 	0.68459	0.71542	0.53687	-0.221
Mof_N 	N 	0.68866	0.79089	0.53685	-0.189
Mof_C 	C 	0.6634	0.70942	0.56527	0.011
Mof_N 	N 	0.66673	0.79631	0.56451	-0.099
Mof_C 	C 	0.67517	0.6799	0.58279	0.026
Mof_H 	H 	0.6432	0.7237	0.5721	0.006
Mof_C 	C 	0.6605	0.66281	0.61551	0.053
Mof_C 	C 	0.67679	0.63223	0.62995	-0.112
Mof_H 	H 	0.6978	0.6226	0.6188	0.068
Mof_N 	N 	0.68459	0.21542	0.03687	-0.223
Mof_N 	N 	0.68866	0.29089	0.03685	-0.192
Mof_C 	C 	0.6634	0.20942	0.06527	0.009
Mof_N 	N 	0.66673	0.29631	0.06451	-0.1
Mof_C 	C 	0.67517	0.1799	0.08279	0.025
Mof_H 	H 	0.6432	0.2237	0.0721	0.004
Mof_C 	C 	0.6605	0.16281	0.11551	0.051
Mof_C 	C 	0.67679	0.13223	0.12995	-0.112
Mof_H 	H 	0.6978	0.1226	0.1188	0.066
Mof_N 	N 	0.18459	0.71542	0.03687	-0.223
Mof_N 	N 	0.18866	0.79089	0.03685	-0.192
Mof_C 	C 	0.1634	0.70942	0.06527	0.009
Mof_N 	N 	0.16673	0.79631	0.06451	-0.101
Mof_C 	C 	0.17517	0.6799	0.08279	0.025
Mof_H 	H 	0.1432	0.7237	0.0721	0.003
Mof_C 	C 	0.1605	0.66281	0.11551	0.051
Mof_C 	C 	0.17679	0.63223	0.12995	-0.112
Mof_H 	H 	0.1978	0.6226	0.1188	0.067
Mof_N 	N 	0.18459	0.21542	0.53687	-0.221
Mof_N 	N 	0.18866	0.29089	0.53685	-0.19
Mof_C 	C 	0.1634	0.20942	0.56527	0.01
Mof_N 	N 	0.16673	0.29631	0.56451	-0.1
Mof_C 	C 	0.17517	0.1799	0.58279	0.026
Mof_H 	H 	0.1432	0.2237	0.5721	0.005
Mof_C 	C 	0.1605	0.16281	0.61551	0.052
Mof_C 	C 	0.17679	0.13223	0.62995	-0.112
Mof_H 	H 	0.1978	0.1226	0.6188	0.067
Mof_N 	N 	0.68459	0.28458	0.46313	-0.221
Mof_N 	N 	0.68866	0.20911	0.46315	-0.19
Mof_C 	C 	0.6634	0.29058	0.43473	0.011
Mof_N 	N 	0.66673	0.20369	0.43549	-0.099
Mof_C 	C 	0.67517	0.3201	0.41721	0.026
Mof_H 	H 	0.6432	0.2763	0.4279	0.005
Mof_C 	C 	0.6605	0.33719	0.38449	0.053
Mof_C 	C 	0.67679	0.36777	0.37005	-0.112
Mof_H 	H 	0.6978	0.3774	0.3812	0.068
Mof_N 	N 	0.68459	0.78458	0.96313	-0.214
Mof_N 	N 	0.68866	0.70911	0.96315	-0.183
Mof_C 	C 	0.6634	0.79058	0.93473	0.012
Mof_N 	N 	0.66673	0.70369	0.93549	-0.097
Mof_C 	C 	0.67517	0.8201	0.91721	0.028
Mof_H 	H 	0.6432	0.7763	0.9279	0.008
Mof_C 	C 	0.6605	0.83719	0.88449	0.055
Mof_C 	C 	0.67679	0.86777	0.87005	-0.112
Mof_H 	H 	0.6978	0.8774	0.8812	0.07
Mof_N 	N 	0.18459	0.28458	0.96313	-0.214
Mof_N 	N 	0.18866	0.20911	0.96315	-0.183
Mof_C 	C 	0.1634	0.29058	0.93473	0.012
Mof_N 	N 	0.16673	0.20369	0.93549	-0.098
Mof_C 	C 	0.17517	0.3201	0.91721	0.027
Mof_H 	H 	0.1432	0.2763	0.9279	0.007
Mof_C 	C 	0.1605	0.33719	0.88449	0.053
Mof_C 	C 	0.17679	0.36777	0.87005	-0.112
Mof_H 	H 	0.1978	0.3774	0.8812	0.069
Mof_N 	N 	0.18459	0.78458	0.46313	-0.221
Mof_N 	N 	0.18866	0.70911	0.46315	-0.19
Mof_C 	C 	0.1634	0.79058	0.43473	0.011
Mof_N 	N 	0.16673	0.70369	0.43549	-0.1
Mof_C 	C 	0.17517	0.8201	0.41721	0.026
Mof_H 	H 	0.1432	0.7763	0.4279	0.005
Mof_C 	C 	0.1605	0.83719	0.38449	0.053
Mof_C 	C 	0.17679	0.86777	0.37005	-0.112
Mof_H 	H 	0.1978	0.8774	0.3812	0.069
Mof_N 	N 	0.31541	0.71542	0.46313	-0.22
Mof_N 	N 	0.31134	0.79089	0.46315	-0.189
Mof_C 	C 	0.3366	0.70942	0.43473	0.011
Mof_N 	N 	0.33327	0.79631	0.43549	-0.099
Mof_C 	C 	0.32483	0.6799	0.41721	0.026
Mof_H 	H 	0.3568	0.7237	0.4279	0.006
Mof_C 	C 	0.3395	0.66281	0.38449	0.053
Mof_C 	C 	0.32321	0.63223	0.37005	-0.112
Mof_H 	H 	0.3022	0.6226	0.3812	0.068
Mof_N 	N 	0.31541	0.21542	0.96313	-0.214
Mof_N 	N 	0.31134	0.29089	0.96315	-0.183
Mof_C 	C 	0.3366	0.20942	0.93473	0.012
Mof_N 	N 	0.33327	0.29631	0.93549	-0.097
Mof_C 	C 	0.32483	0.1799	0.91721	0.027
Mof_H 	H 	0.3568	0.2237	0.9279	0.008
Mof_C 	C 	0.3395	0.16281	0.88449	0.053
Mof_C 	C 	0.32321	0.13223	0.87005	-0.112
Mof_H 	H 	0.3022	0.1226	0.8812	0.068
Mof_N 	N 	0.81541	0.71542	0.96313	-0.214
Mof_N 	N 	0.81134	0.79089	0.96315	-0.182
Mof_C 	C 	0.8366	0.70942	0.93473	0.012
Mof_N 	N 	0.83327	0.79631	0.93549	-0.096
Mof_C 	C 	0.82483	0.6799	0.91721	0.028
Mof_H 	H 	0.8568	0.7237	0.9279	0.009
Mof_C 	C 	0.8395	0.66281	0.88449	0.055
Mof_C 	C 	0.82321	0.63223	0.87005	-0.112
Mof_H 	H 	0.8022	0.6226	0.8812	0.069
Mof_N 	N 	0.81541	0.21542	0.46313	-0.22
Mof_N 	N 	0.81134	0.29089	0.46315	-0.189
Mof_C 	C 	0.8366	0.20942	0.43473	0.011
Mof_N 	N 	0.83327	0.29631	0.43549	-0.098
Mof_C 	C 	0.82483	0.1799	0.41721	0.026
Mof_H 	H 	0.8568	0.2237	0.4279	0.007
Mof_C 	C 	0.8395	0.16281	0.38449	0.053
Mof_C 	C 	0.82321	0.13223	0.37005	-0.112
Mof_H 	H 	0.8022	0.1226	0.3812	0.067
Mof_N 	N 	0.53687	0.31541	0.28458	-0.221
Mof_N 	N 	0.53685	0.31134	0.20911	-0.19
Mof_C 	C 	0.56527	0.3366	0.29058	0.011
Mof_N 	N 	0.56451	0.33327	0.20369	-0.099
Mof_C 	C 	0.58279	0.32483	0.3201	0.026
Mof_H 	H 	0.5721	0.3568	0.2763	0.006
Mof_C 	C 	0.61551	0.3395	0.33719	0.053
Mof_C 	C 	0.62995	0.32321	0.36777	-0.112
Mof_H 	H 	0.6188	0.3022	0.3774	0.068
Mof_N 	N 	0.53687	0.81541	0.78458	-0.22
Mof_N 	N 	0.53685	0.81134	0.70911	-0.189
Mof_C 	C 	0.56527	0.8366	0.79058	0.011
Mof_N 	N 	0.56451	0.83327	0.70369	-0.098
Mof_C 	C 	0.58279	0.82483	0.8201	0.027
Mof_H 	H 	0.5721	0.8568	0.7763	0.007
Mof_C 	C 	0.61551	0.8395	0.83719	0.054
Mof_C 	C 	0.62995	0.82321	0.86777	-0.112
Mof_H 	H 	0.6188	0.8022	0.8774	0.069
Mof_N 	N 	0.03687	0.31541	0.78458	-0.223
Mof_N 	N 	0.03685	0.31134	0.70911	-0.192
Mof_C 	C 	0.06527	0.3366	0.79058	0.01
Mof_N 	N 	0.06451	0.33327	0.70369	-0.1
Mof_C 	C 	0.08279	0.32483	0.8201	0.026
Mof_H 	H 	0.0721	0.3568	0.7763	0.004
Mof_C 	C 	0.11551	0.3395	0.83719	0.053
Mof_C 	C 	0.12995	0.32321	0.86777	-0.112
Mof_H 	H 	0.1188	0.3022	0.8774	0.068
Mof_N 	N 	0.03687	0.81541	0.28458	-0.222
Mof_N 	N 	0.03685	0.81134	0.20911	-0.192
Mof_C 	C 	0.06527	0.8366	0.29058	0.01
Mof_N 	N 	0.06451	0.83327	0.20369	-0.1
Mof_C 	C 	0.08279	0.82483	0.3201	0.026
Mof_H 	H 	0.0721	0.8568	0.2763	0.005
Mof_C 	C 	0.11551	0.8395	0.33719	0.053
Mof_C 	C 	0.12995	0.82321	0.36777	-0.112
Mof_H 	H 	0.1188	0.8022	0.3774	0.067
Mof_N 	N 	0.53687	0.68459	0.71542	-0.221
Mof_N 	N 	0.53685	0.68866	0.79089	-0.189
Mof_C 	C 	0.56527	0.6634	0.70942	0.011
Mof_N 	N 	0.56451	0.66673	0.79631	-0.099
Mof_C 	C 	0.58279	0.67517	0.6799	0.026
Mof_H 	H 	0.5721	0.6432	0.7237	0.006
Mof_C 	C 	0.61551	0.6605	0.66281	0.053
Mof_C 	C 	0.62995	0.67679	0.63223	-0.112
Mof_H 	H 	0.6188	0.6978	0.6226	0.068
Mof_N 	N 	0.53687	0.18459	0.21542	-0.221
Mof_N 	N 	0.53685	0.18866	0.29089	-0.19
Mof_C 	C 	0.56527	0.1634	0.20942	0.01
Mof_N 	N 	0.56451	0.16673	0.29631	-0.1
Mof_C 	C 	0.58279	0.17517	0.1799	0.026
Mof_H 	H 	0.5721	0.1432	0.2237	0.005
Mof_C 	C 	0.61551	0.1605	0.16281	0.052
Mof_C 	C 	0.62995	0.17679	0.13223	-0.112
Mof_H 	H 	0.6188	0.1978	0.1226	0.067
Mof_N 	N 	0.03687	0.68459	0.21542	-0.223
Mof_N 	N 	0.03685	0.68866	0.29089	-0.192
Mof_C 	C 	0.06527	0.6634	0.20942	0.009
Mof_N 	N 	0.06451	0.66673	0.29631	-0.1
Mof_C 	C 	0.08279	0.67517	0.1799	0.025
Mof_H 	H 	0.0721	0.6432	0.2237	0.004
Mof_C 	C 	0.11551	0.6605	0.16281	0.051
Mof_C 	C 	0.12995	0.67679	0.13223	-0.112
Mof_H 	H 	0.1188	0.6978	0.1226	0.066
Mof_N 	N 	0.03687	0.18459	0.71542	-0.223
Mof_N 	N 	0.03685	0.18866	0.79089	-0.192
Mof_C 	C 	0.06527	0.1634	0.70942	0.009
Mof_N 	N 	0.06451	0.16673	0.79631	-0.101
Mof_C 	C 	0.08279	0.17517	0.6799	0.025
Mof_H 	H 	0.0721	0.1432	0.7237	0.003
Mof_C 	C 	0.11551	0.1605	0.66281	0.051
Mof_C 	C 	0.12995	0.17679	0.63223	-0.112
Mof_H 	H 	0.1188	0.1978	0.6226	0.067
Mof_N 	N 	0.46313	0.68459	0.28458	-0.221
Mof_N 	N 	0.46315	0.68866	0.20911	-0.19
Mof_C 	C 	0.43473	0.6634	0.29058	0.011
Mof_N 	N 	0.43549	0.66673	0.20369	-0.099
Mof_C 	C 	0.41721	0.67517	0.3201	0.026
Mof_H 	H 	0.4279	0.6432	0.2763	0.005
Mof_C 	C 	0.38449	0.6605	0.33719	0.053
Mof_C 	C 	0.37005	0.67679	0.36777	-0.112
Mof_H 	H 	0.3812	0.6978	0.3774	0.068
Mof_N 	N 	0.46313	0.18459	0.78458	-0.221
Mof_N 	N 	0.46315	0.18866	0.70911	-0.19
Mof_C 	C 	0.43473	0.1634	0.79058	0.011
Mof_N 	N 	0.43549	0.16673	0.70369	-0.1
Mof_C 	C 	0.41721	0.17517	0.8201	0.026
Mof_H 	H 	0.4279	0.1432	0.7763	0.005
Mof_C 	C 	0.38449	0.1605	0.83719	0.053
Mof_C 	C 	0.37005	0.17679	0.86777	-0.112
Mof_H 	H 	0.3812	0.1978	0.8774	0.069
Mof_N 	N 	0.96313	0.68459	0.78458	-0.214
Mof_N 	N 	0.96315	0.68866	0.70911	-0.183
Mof_C 	C 	0.93473	0.6634	0.79058	0.012
Mof_N 	N 	0.93549	0.66673	0.70369	-0.097
Mof_C 	C 	0.91721	0.67517	0.8201	0.028
Mof_H 	H 	0.9279	0.6432	0.7763	0.008
Mof_C 	C 	0.88449	0.6605	0.83719	0.055
Mof_C 	C 	0.87005	0.67679	0.86777	-0.112
Mof_H 	H 	0.8812	0.6978	0.8774	0.07
Mof_N 	N 	0.96313	0.18459	0.28458	-0.214
Mof_N 	N 	0.96315	0.18866	0.20911	-0.183
Mof_C 	C 	0.93473	0.1634	0.29058	0.012
Mof_N 	N 	0.93549	0.16673	0.20369	-0.098
Mof_C 	C 	0.91721	0.17517	0.3201	0.027
Mof_H 	H 	0.9279	0.1432	0.2763	0.007
Mof_C 	C 	0.88449	0.1605	0.33719	0.053
Mof_C 	C 	0.87005	0.17679	0.36777	-0.112
Mof_H 	H 	0.8812	0.1978	0.3774	0.069
Mof_N 	N 	0.46313	0.31541	0.71542	-0.22
Mof_N 	N 	0.46315	0.31134	0.79089	-0.189
Mof_C 	C 	0.43473	0.3366	0.70942	0.011
Mof_N 	N 	0.43549	0.33327	0.79631	-0.099
Mof_C 	C 	0.41721	0.32483	0.6799	0.026
Mof_H 	H 	0.4279	0.3568	0.7237	0.006
Mof_C 	C 	0.38449	0.3395	0.66281	0.053
Mof_C 	C 	0.37005	0.32321	0.63223	-0.112
Mof_H 	H 	0.3812	0.3022	0.6226	0.068
Mof_N 	N 	0.46313	0.81541	0.21542	-0.22
Mof_N 	N 	0.46315	0.81134	0.29089	-0.189
Mof_C 	C 	0.43473	0.8366	0.20942	0.011
Mof_N 	N 	0.43549	0.83327	0.29631	-0.098
Mof_C 	C 	0.41721	0.82483	0.1799	0.026
Mof_H 	H 	0.4279	0.8568	0.2237	0.007
Mof_C 	C 	0.38449	0.8395	0.16281	0.053
Mof_C 	C 	0.37005	0.82321	0.13223	-0.112
Mof_H 	H 	0.3812	0.8022	0.1226	0.067
Mof_N 	N 	0.96313	0.31541	0.21542	-0.214
Mof_N 	N 	0.96315	0.31134	0.29089	-0.183
Mof_C 	C 	0.93473	0.3366	0.20942	0.012
Mof_N 	N 	0.93549	0.33327	0.29631	-0.097
Mof_C 	C 	0.91721	0.32483	0.1799	0.027
Mof_H 	H 	0.9279	0.3568	0.2237	0.008
Mof_C 	C 	0.88449	0.3395	0.16281	0.053
Mof_C 	C 	0.87005	0.32321	0.13223	-0.112
Mof_H 	H 	0.8812	0.3022	0.1226	0.068
Mof_N 	N 	0.96313	0.81541	0.71542	-0.214
Mof_N 	N 	0.96315	0.81134	0.79089	-0.182
Mof_C 	C 	0.93473	0.8366	0.70942	0.012
Mof_N 	N 	0.93549	0.83327	0.79631	-0.096
Mof_C 	C 	0.91721	0.82483	0.6799	0.028
Mof_H 	H 	0.9279	0.8568	0.7237	0.009
Mof_C 	C 	0.88449	0.8395	0.66281	0.055
Mof_C 	C 	0.87005	0.82321	0.63223	-0.112
Mof_H 	H 	0.8812	0.8022	0.6226	0.069
Mof_N 	N 	0.28458	0.53687	0.31541	-0.221
Mof_N 	N 	0.20911	0.53685	0.31134	-0.19
Mof_C 	C 	0.29058	0.56527	0.3366	0.011
Mof_N 	N 	0.20369	0.56451	0.33327	-0.099
Mof_C 	C 	0.3201	0.58279	0.32483	0.026
Mof_H 	H 	0.2763	0.5721	0.3568	0.006
Mof_C 	C 	0.33719	0.61551	0.3395	0.053
Mof_C 	C 	0.36777	0.62995	0.32321	-0.112
Mof_H 	H 	0.3774	0.6188	0.3022	0.068
Mof_N 	N 	0.28458	0.03687	0.81541	-0.222
Mof_N 	N 	0.20911	0.03685	0.81134	-0.192
Mof_C 	C 	0.29058	0.06527	0.8366	0.01
Mof_N 	N 	0.20369	0.06451	0.83327	-0.1
Mof_C 	C 	0.3201	0.08279	0.82483	0.026
Mof_H 	H 	0.2763	0.0721	0.8568	0.005
Mof_C 	C 	0.33719	0.11551	0.8395	0.053
Mof_C 	C 	0.36777	0.12995	0.82321	-0.112
Mof_H 	H 	0.3774	0.1188	0.8022	0.067
Mof_N 	N 	0.78458	0.53687	0.81541	-0.22
Mof_N 	N 	0.70911	0.53685	0.81134	-0.189
Mof_C 	C 	0.79058	0.56527	0.8366	0.011
Mof_N 	N 	0.70369	0.56451	0.83327	-0.098
Mof_C 	C 	0.8201	0.58279	0.82483	0.027
Mof_H 	H 	0.7763	0.5721	0.8568	0.007
Mof_C 	C 	0.83719	0.61551	0.8395	0.054
Mof_C 	C 	0.86777	0.62995	0.82321	-0.112
Mof_H 	H 	0.8774	0.6188	0.8022	0.069
Mof_N 	N 	0.78458	0.03687	0.31541	-0.223
Mof_N 	N 	0.70911	0.03685	0.31134	-0.192
Mof_C 	C 	0.79058	0.06527	0.3366	0.01
Mof_N 	N 	0.70369	0.06451	0.33327	-0.1
Mof_C 	C 	0.8201	0.08279	0.32483	0.026
Mof_H 	H 	0.7763	0.0721	0.3568	0.004
Mof_C 	C 	0.83719	0.11551	0.3395	0.053
Mof_C 	C 	0.86777	0.12995	0.32321	-0.112
Mof_H 	H 	0.8774	0.1188	0.3022	0.068
Mof_N 	N 	0.71542	0.53687	0.68459	-0.221
Mof_N 	N 	0.79089	0.53685	0.68866	-0.189
Mof_C 	C 	0.70942	0.56527	0.6634	0.011
Mof_N 	N 	0.79631	0.56451	0.66673	-0.099
Mof_C 	C 	0.6799	0.58279	0.67517	0.026
Mof_H 	H 	0.7237	0.5721	0.6432	0.006
Mof_C 	C 	0.66281	0.61551	0.6605	0.053
Mof_C 	C 	0.63223	0.62995	0.67679	-0.112
Mof_H 	H 	0.6226	0.6188	0.6978	0.068
Mof_N 	N 	0.71542	0.03687	0.18459	-0.223
Mof_N 	N 	0.79089	0.03685	0.18866	-0.192
Mof_C 	C 	0.70942	0.06527	0.1634	0.009
Mof_N 	N 	0.79631	0.06451	0.16673	-0.101
Mof_C 	C 	0.6799	0.08279	0.17517	0.025
Mof_H 	H 	0.7237	0.0721	0.1432	0.003
Mof_C 	C 	0.66281	0.11551	0.1605	0.051
Mof_C 	C 	0.63223	0.12995	0.17679	-0.112
Mof_H 	H 	0.6226	0.1188	0.1978	0.067
Mof_N 	N 	0.21542	0.53687	0.18459	-0.221
Mof_N 	N 	0.29089	0.53685	0.18866	-0.19
Mof_C 	C 	0.20942	0.56527	0.1634	0.01
Mof_N 	N 	0.29631	0.56451	0.16673	-0.1
Mof_C 	C 	0.1799	0.58279	0.17517	0.026
Mof_H 	H 	0.2237	0.5721	0.1432	0.005
Mof_C 	C 	0.16281	0.61551	0.1605	0.052
Mof_C 	C 	0.13223	0.62995	0.17679	-0.112
Mof_H 	H 	0.1226	0.6188	0.1978	0.067
Mof_N 	N 	0.21542	0.03687	0.68459	-0.223
Mof_N 	N 	0.29089	0.03685	0.68866	-0.192
Mof_C 	C 	0.20942	0.06527	0.6634	0.009
Mof_N 	N 	0.29631	0.06451	0.66673	-0.1
Mof_C 	C 	0.1799	0.08279	0.67517	0.025
Mof_H 	H 	0.2237	0.0721	0.6432	0.004
Mof_C 	C 	0.16281	0.11551	0.6605	0.051
Mof_C 	C 	0.13223	0.12995	0.67679	-0.112
Mof_H 	H 	0.1226	0.1188	0.6978	0.066
Mof_N 	N 	0.28458	0.46313	0.68459	-0.221
Mof_N 	N 	0.20911	0.46315	0.68866	-0.19
Mof_C 	C 	0.29058	0.43473	0.6634	0.011
Mof_N 	N 	0.20369	0.43549	0.66673	-0.099
Mof_C 	C 	0.3201	0.41721	0.67517	0.026
Mof_H 	H 	0.2763	0.4279	0.6432	0.005
Mof_C 	C 	0.33719	0.38449	0.6605	0.053
Mof_C 	C 	0.36777	0.37005	0.67679	-0.112
Mof_H 	H 	0.3774	0.3812	0.6978	0.068
Mof_N 	N 	0.28458	0.96313	0.18459	-0.214
Mof_N 	N 	0.20911	0.96315	0.18866	-0.183
Mof_C 	C 	0.29058	0.93473	0.1634	0.012
Mof_N 	N 	0.20369	0.93549	0.16673	-0.098
Mof_C 	C 	0.3201	0.91721	0.17517	0.027
Mof_H 	H 	0.2763	0.9279	0.1432	0.007
Mof_C 	C 	0.33719	0.88449	0.1605	0.053
Mof_C 	C 	0.36777	0.87005	0.17679	-0.112
Mof_H 	H 	0.3774	0.8812	0.1978	0.069
Mof_N 	N 	0.78458	0.46313	0.18459	-0.221
Mof_N 	N 	0.70911	0.46315	0.18866	-0.19
Mof_C 	C 	0.79058	0.43473	0.1634	0.011
Mof_N 	N 	0.70369	0.43549	0.16673	-0.1
Mof_C 	C 	0.8201	0.41721	0.17517	0.026
Mof_H 	H 	0.7763	0.4279	0.1432	0.005
Mof_C 	C 	0.83719	0.38449	0.1605	0.053
Mof_C 	C 	0.86777	0.37005	0.17679	-0.112
Mof_H 	H 	0.8774	0.3812	0.1978	0.069
Mof_N 	N 	0.78458	0.96313	0.68459	-0.214
Mof_N 	N 	0.70911	0.96315	0.68866	-0.183
Mof_C 	C 	0.79058	0.93473	0.6634	0.012
Mof_N 	N 	0.70369	0.93549	0.66673	-0.097
Mof_C 	C 	0.8201	0.91721	0.67517	0.028
Mof_H 	H 	0.7763	0.9279	0.6432	0.008
Mof_C 	C 	0.83719	0.88449	0.6605	0.055
Mof_C 	C 	0.86777	0.87005	0.67679	-0.112
Mof_H 	H 	0.8774	0.8812	0.6978	0.07
Mof_N 	N 	0.71542	0.46313	0.31541	-0.22
Mof_N 	N 	0.79089	0.46315	0.31134	-0.189
Mof_C 	C 	0.70942	0.43473	0.3366	0.011
Mof_N 	N 	0.79631	0.43549	0.33327	-0.099
Mof_C 	C 	0.6799	0.41721	0.32483	0.026
Mof_H 	H 	0.7237	0.4279	0.3568	0.006
Mof_C 	C 	0.66281	0.38449	0.3395	0.053
Mof_C 	C 	0.63223	0.37005	0.32321	-0.112
Mof_H 	H 	0.6226	0.3812	0.3022	0.068
Mof_N 	N 	0.71542	0.96313	0.81541	-0.214
Mof_N 	N 	0.79089	0.96315	0.81134	-0.182
Mof_C 	C 	0.70942	0.93473	0.8366	0.012
Mof_N 	N 	0.79631	0.93549	0.83327	-0.096
Mof_C 	C 	0.6799	0.91721	0.82483	0.028
Mof_H 	H 	0.7237	0.9279	0.8568	0.009
Mof_C 	C 	0.66281	0.88449	0.8395	0.055
Mof_C 	C 	0.63223	0.87005	0.82321	-0.112
Mof_H 	H 	0.6226	0.8812	0.8022	0.069
Mof_N 	N 	0.21542	0.46313	0.81541	-0.22
Mof_N 	N 	0.29089	0.46315	0.81134	-0.189
Mof_C 	C 	0.20942	0.43473	0.8366	0.011
Mof_N 	N 	0.29631	0.43549	0.83327	-0.098
Mof_C 	C 	0.1799	0.41721	0.82483	0.026
Mof_H 	H 	0.2237	0.4279	0.8568	0.007
Mof_C 	C 	0.16281	0.38449	0.8395	0.053
Mof_C 	C 	0.13223	0.37005	0.82321	-0.112
Mof_H 	H 	0.1226	0.3812	0.8022	0.067
Mof_N 	N 	0.21542	0.96313	0.31541	-0.214
Mof_N 	N 	0.29089	0.96315	0.31134	-0.183
Mof_C 	C 	0.20942	0.93473	0.3366	0.012
Mof_N 	N 	0.29631	0.93549	0.33327	-0.097
Mof_C 	C 	0.1799	0.91721	0.32483	0.027
Mof_H 	H 	0.2237	0.9279	0.3568	0.008
Mof_C 	C 	0.16281	0.88449	0.3395	0.053
Mof_C 	C 	0.13223	0.87005	0.32321	-0.112
Mof_H 	H 	0.1226	0.8812	0.3022	0.068
Mof_N 	N 	0.78458	0.81541	0.96313	-0.213
Mof_N 	N 	0.70911	0.81134	0.96315	-0.183
Mof_C 	C 	0.79058	0.8366	0.93473	0.012
Mof_N 	N 	0.70369	0.83327	0.93549	-0.097
Mof_C 	C 	0.8201	0.82483	0.91721	0.028
Mof_H 	H 	0.7763	0.8568	0.9279	0.009
Mof_C 	C 	0.83719	0.8395	0.88449	0.055
Mof_C 	C 	0.86777	0.82321	0.87005	-0.112
Mof_H 	H 	0.8774	0.8022	0.8812	0.07
Mof_N 	N 	0.78458	0.31541	0.46313	-0.22
Mof_N 	N 	0.70911	0.31134	0.46315	-0.189
Mof_C 	C 	0.79058	0.3366	0.43473	0.011
Mof_N 	N 	0.70369	0.33327	0.43549	-0.099
Mof_C 	C 	0.8201	0.32483	0.41721	0.027
Mof_H 	H 	0.7763	0.3568	0.4279	0.006
Mof_C 	C 	0.83719	0.3395	0.38449	0.054
Mof_C 	C 	0.86777	0.32321	0.37005	-0.112
Mof_H 	H 	0.8774	0.3022	0.3812	0.069
Mof_N 	N 	0.28458	0.81541	0.46313	-0.22
Mof_N 	N 	0.20911	0.81134	0.46315	-0.189
Mof_C 	C 	0.29058	0.8366	0.43473	0.011
Mof_N 	N 	0.20369	0.83327	0.43549	-0.099
Mof_C 	C 	0.3201	0.82483	0.41721	0.027
Mof_H 	H 	0.2763	0.8568	0.4279	0.007
Mof_C 	C 	0.33719	0.8395	0.38449	0.054
Mof_C 	C 	0.36777	0.82321	0.37005	-0.112
Mof_H 	H 	0.3774	0.8022	0.3812	0.068
Mof_N 	N 	0.28458	0.31541	0.96313	-0.214
Mof_N 	N 	0.20911	0.31134	0.96315	-0.183
Mof_C 	C 	0.29058	0.3366	0.93473	0.012
Mof_N 	N 	0.20369	0.33327	0.93549	-0.097
Mof_C 	C 	0.3201	0.32483	0.91721	0.028
Mof_H 	H 	0.2763	0.3568	0.9279	0.008
Mof_C 	C 	0.33719	0.3395	0.88449	0.054
Mof_C 	C 	0.36777	0.32321	0.87005	-0.112
Mof_H 	H 	0.3774	0.3022	0.8812	0.069
Mof_N 	N 	0.21542	0.18459	0.96313	-0.214
Mof_N 	N 	0.29089	0.18866	0.96315	-0.183
Mof_C 	C 	0.20942	0.1634	0.93473	0.011
Mof_N 	N 	0.29631	0.16673	0.93549	-0.098
Mof_C 	C 	0.1799	0.17517	0.91721	0.027
Mof_H 	H 	0.2237	0.1432	0.9279	0.007
Mof_C 	C 	0.16281	0.1605	0.88449	0.053
Mof_C 	C 	0.13223	0.17679	0.87005	-0.112
Mof_H 	H 	0.1226	0.1978	0.8812	0.068
Mof_N 	N 	0.21542	0.68459	0.46313	-0.221
Mof_N 	N 	0.29089	0.68866	0.46315	-0.189
Mof_C 	C 	0.20942	0.6634	0.43473	0.011
Mof_N 	N 	0.29631	0.66673	0.43549	-0.099
Mof_C 	C 	0.1799	0.67517	0.41721	0.026
Mof_H 	H 	0.2237	0.6432	0.4279	0.005
Mof_C 	C 	0.16281	0.6605	0.38449	0.052
Mof_C 	C 	0.13223	0.67679	0.37005	-0.112
Mof_H 	H 	0.1226	0.6978	0.3812	0.067
Mof_N 	N 	0.71542	0.18459	0.46313	-0.221
Mof_N 	N 	0.79089	0.18866	0.46315	-0.19
Mof_C 	C 	0.70942	0.1634	0.43473	0.01
Mof_N 	N 	0.79631	0.16673	0.43549	-0.099
Mof_C 	C 	0.6799	0.17517	0.41721	0.026
Mof_H 	H 	0.7237	0.1432	0.4279	0.005
Mof_C 	C 	0.66281	0.1605	0.38449	0.052
Mof_C 	C 	0.63223	0.17679	0.37005	-0.112
Mof_H 	H 	0.6226	0.1978	0.3812	0.068
Mof_N 	N 	0.71542	0.68459	0.96313	-0.214
Mof_N 	N 	0.79089	0.68866	0.96315	-0.183
Mof_C 	C 	0.70942	0.6634	0.93473	0.012
Mof_N 	N 	0.79631	0.66673	0.93549	-0.097
Mof_C 	C 	0.6799	0.67517	0.91721	0.027
Mof_H 	H 	0.7237	0.6432	0.9279	0.008
Mof_C 	C 	0.66281	0.6605	0.88449	0.054
Mof_C 	C 	0.63223	0.67679	0.87005	-0.112
Mof_H 	H 	0.6226	0.6978	0.8812	0.069
Mof_N 	N 	0.78458	0.18459	0.03687	-0.223
Mof_N 	N 	0.70911	0.18866	0.03685	-0.192
Mof_C 	C 	0.79058	0.1634	0.06527	0.01
Mof_N 	N 	0.70369	0.16673	0.06451	-0.101
Mof_C 	C 	0.8201	0.17517	0.08279	0.025
Mof_H 	H 	0.7763	0.1432	0.0721	0.003
Mof_C 	C 	0.83719	0.1605	0.11551	0.052
Mof_C 	C 	0.86777	0.17679	0.12995	-0.112
Mof_H 	H 	0.8774	0.1978	0.1188	0.068
Mof_N 	N 	0.78458	0.68459	0.53687	-0.22
Mof_N 	N 	0.70911	0.68866	0.53685	-0.19
Mof_C 	C 	0.79058	0.6634	0.56527	0.011
Mof_N 	N 	0.70369	0.66673	0.56451	-0.099
Mof_C 	C 	0.8201	0.67517	0.58279	0.026
Mof_H 	H 	0.7763	0.6432	0.5721	0.006
Mof_C 	C 	0.83719	0.6605	0.61551	0.054
Mof_C 	C 	0.86777	0.67679	0.62995	-0.112
Mof_H 	H 	0.8774	0.6978	0.6188	0.069
Mof_N 	N 	0.28458	0.18459	0.53687	-0.221
Mof_N 	N 	0.20911	0.18866	0.53685	-0.19
Mof_C 	C 	0.29058	0.1634	0.56527	0.011
Mof_N 	N 	0.20369	0.16673	0.56451	-0.1
Mof_C 	C 	0.3201	0.17517	0.58279	0.026
Mof_H 	H 	0.2763	0.1432	0.5721	0.005
Mof_C 	C 	0.33719	0.1605	0.61551	0.052
Mof_C 	C 	0.36777	0.17679	0.62995	-0.112
Mof_H 	H 	0.3774	0.1978	0.6188	0.068
Mof_N 	N 	0.28458	0.68459	0.03687	-0.223
Mof_N 	N 	0.20911	0.68866	0.03685	-0.192
Mof_C 	C 	0.29058	0.6634	0.06527	0.01
Mof_N 	N 	0.20369	0.66673	0.06451	-0.1
Mof_C 	C 	0.3201	0.67517	0.08279	0.025
Mof_H 	H 	0.2763	0.6432	0.0721	0.004
Mof_C 	C 	0.33719	0.6605	0.11551	0.052
Mof_C 	C 	0.36777	0.67679	0.12995	-0.112
Mof_H 	H 	0.3774	0.6978	0.1188	0.067
Mof_N 	N 	0.21542	0.81541	0.03687	-0.222
Mof_N 	N 	0.29089	0.81134	0.03685	-0.191
Mof_C 	C 	0.20942	0.8366	0.06527	0.01
Mof_N 	N 	0.29631	0.83327	0.06451	-0.1
Mof_C 	C 	0.1799	0.82483	0.08279	0.026
Mof_H 	H 	0.2237	0.8568	0.0721	0.005
Mof_C 	C 	0.16281	0.8395	0.11551	0.052
Mof_C 	C 	0.13223	0.82321	0.12995	-0.112
Mof_H 	H 	0.1226	0.8022	0.1188	0.067
Mof_N 	N 	0.21542	0.31541	0.53687	-0.221
Mof_N 	N 	0.29089	0.31134	0.53685	-0.189
Mof_C 	C 	0.20942	0.3366	0.56527	0.011
Mof_N 	N 	0.29631	0.33327	0.56451	-0.099
Mof_C 	C 	0.1799	0.32483	0.58279	0.026
Mof_H 	H 	0.2237	0.3568	0.5721	0.005
Mof_C 	C 	0.16281	0.3395	0.61551	0.052
Mof_C 	C 	0.13223	0.32321	0.62995	-0.112
Mof_H 	H 	0.1226	0.3022	0.6188	0.067
Mof_N 	N 	0.71542	0.81541	0.53687	-0.22
Mof_N 	N 	0.79089	0.81134	0.53685	-0.189
Mof_C 	C 	0.70942	0.8366	0.56527	0.011
Mof_N 	N 	0.79631	0.83327	0.56451	-0.098
Mof_C 	C 	0.6799	0.82483	0.58279	0.027
Mof_H 	H 	0.7237	0.8568	0.5721	0.007
Mof_C 	C 	0.66281	0.8395	0.61551	0.054
Mof_C 	C 	0.63223	0.82321	0.62995	-0.112
Mof_H 	H 	0.6226	0.8022	0.6188	0.068
Mof_N 	N 	0.71542	0.31541	0.03687	-0.223
Mof_N 	N 	0.79089	0.31134	0.03685	-0.192
Mof_C 	C 	0.70942	0.3366	0.06527	0.01
Mof_N 	N 	0.79631	0.33327	0.06451	-0.1
Mof_C 	C 	0.6799	0.32483	0.08279	0.025
Mof_H 	H 	0.7237	0.3568	0.0721	0.004
Mof_C 	C 	0.66281	0.3395	0.11551	0.052
Mof_C 	C 	0.63223	0.32321	0.12995	-0.112
Mof_H 	H 	0.6226	0.3022	0.1188	0.067
Mof_N 	N 	0.81541	0.03687	0.21542	-0.222
Mof_N 	N 	0.81134	0.03685	0.29089	-0.191
Mof_C 	C 	0.8366	0.06527	0.20942	0.01
Mof_N 	N 	0.83327	0.06451	0.29631	-0.1
Mof_C 	C 	0.82483	0.08279	0.1799	0.026
Mof_H 	H 	0.8568	0.0721	0.2237	0.005
Mof_C 	C 	0.8395	0.11551	0.16281	0.052
Mof_C 	C 	0.82321	0.12995	0.13223	-0.112
Mof_H 	H 	0.8022	0.1188	0.1226	0.067
Mof_N 	N 	0.81541	0.53687	0.71542	-0.22
Mof_N 	N 	0.81134	0.53685	0.79089	-0.189
Mof_C 	C 	0.8366	0.56527	0.70942	0.011
Mof_N 	N 	0.83327	0.56451	0.79631	-0.098
Mof_C 	C 	0.82483	0.58279	0.6799	0.027
Mof_H 	H 	0.8568	0.5721	0.7237	0.007
Mof_C 	C 	0.8395	0.61551	0.66281	0.054
Mof_C 	C 	0.82321	0.62995	0.63223	-0.112
Mof_H 	H 	0.8022	0.6188	0.6226	0.068
Mof_N 	N 	0.31541	0.03687	0.71542	-0.223
Mof_N 	N 	0.31134	0.03685	0.79089	-0.192
Mof_C 	C 	0.3366	0.06527	0.70942	0.01
Mof_N 	N 	0.33327	0.06451	0.79631	-0.1
Mof_C 	C 	0.32483	0.08279	0.6799	0.025
Mof_H 	H 	0.3568	0.0721	0.7237	0.004
Mof_C 	C 	0.3395	0.11551	0.66281	0.052
Mof_C 	C 	0.32321	0.12995	0.63223	-0.112
Mof_H 	H 	0.3022	0.1188	0.6226	0.067
Mof_N 	N 	0.31541	0.53687	0.21542	-0.221
Mof_N 	N 	0.31134	0.53685	0.29089	-0.189
Mof_C 	C 	0.3366	0.56527	0.20942	0.011
Mof_N 	N 	0.33327	0.56451	0.29631	-0.099
Mof_C 	C 	0.32483	0.58279	0.1799	0.026
Mof_H 	H 	0.3568	0.5721	0.2237	0.005
Mof_C 	C 	0.3395	0.61551	0.16281	0.052
Mof_C 	C 	0.32321	0.62995	0.13223	-0.112
Mof_H 	H 	0.3022	0.6188	0.1226	0.067
Mof_N 	N 	0.18459	0.03687	0.78458	-0.223
Mof_N 	N 	0.18866	0.03685	0.70911	-0.192
Mof_C 	C 	0.1634	0.06527	0.79058	0.01
Mof_N 	N 	0.16673	0.06451	0.70369	-0.101
Mof_C 	C 	0.17517	0.08279	0.8201	0.025
Mof_H 	H 	0.1432	0.0721	0.7763	0.003
Mof_C 	C 	0.1605	0.11551	0.83719	0.052
Mof_C 	C 	0.17679	0.12995	0.86777	-0.112
Mof_H 	H 	0.1978	0.1188	0.8774	0.068
Mof_N 	N 	0.18459	0.53687	0.28458	-0.221
Mof_N 	N 	0.18866	0.53685	0.20911	-0.19
Mof_C 	C 	0.1634	0.56527	0.29058	0.011
Mof_N 	N 	0.16673	0.56451	0.20369	-0.1
Mof_C 	C 	0.17517	0.58279	0.3201	0.026
Mof_H 	H 	0.1432	0.5721	0.2763	0.005
Mof_C 	C 	0.1605	0.61551	0.33719	0.052
Mof_C 	C 	0.17679	0.62995	0.36777	-0.112
Mof_H 	H 	0.1978	0.6188	0.3774	0.068
Mof_N 	N 	0.68459	0.03687	0.28458	-0.223
Mof_N 	N 	0.68866	0.03685	0.20911	-0.192
Mof_C 	C 	0.6634	0.06527	0.29058	0.01
Mof_N 	N 	0.66673	0.06451	0.20369	-0.1
Mof_C 	C 	0.67517	0.08279	0.3201	0.025
Mof_H 	H 	0.6432	0.0721	0.2763	0.004
Mof_C 	C 	0.6605	0.11551	0.33719	0.052
Mof_C 	C 	0.67679	0.12995	0.36777	-0.112
Mof_H 	H 	0.6978	0.1188	0.3774	0.067
Mof_N 	N 	0.68459	0.53687	0.78458	-0.22
Mof_N 	N 	0.68866	0.53685	0.70911	-0.19
Mof_C 	C 	0.6634	0.56527	0.79058	0.011
Mof_N 	N 	0.66673	0.56451	0.70369	-0.099
Mof_C 	C 	0.67517	0.58279	0.8201	0.026
Mof_H 	H 	0.6432	0.5721	0.7763	0.006
Mof_C 	C 	0.6605	0.61551	0.83719	0.054
Mof_C 	C 	0.67679	0.62995	0.86777	-0.112
Mof_H 	H 	0.6978	0.6188	0.8774	0.069
Mof_N 	N 	0.18459	0.96313	0.21542	-0.214
Mof_N 	N 	0.18866	0.96315	0.29089	-0.183
Mof_C 	C 	0.1634	0.93473	0.20942	0.011
Mof_N 	N 	0.16673	0.93549	0.29631	-0.098
Mof_C 	C 	0.17517	0.91721	0.1799	0.027
Mof_H 	H 	0.1432	0.9279	0.2237	0.007
Mof_C 	C 	0.1605	0.88449	0.16281	0.053
Mof_C 	C 	0.17679	0.87005	0.13223	-0.112
Mof_H 	H 	0.1978	0.8812	0.1226	0.068
Mof_N 	N 	0.18459	0.46313	0.71542	-0.221
Mof_N 	N 	0.18866	0.46315	0.79089	-0.19
Mof_C 	C 	0.1634	0.43473	0.70942	0.01
Mof_N 	N 	0.16673	0.43549	0.79631	-0.099
Mof_C 	C 	0.17517	0.41721	0.6799	0.026
Mof_H 	H 	0.1432	0.4279	0.7237	0.005
Mof_C 	C 	0.1605	0.38449	0.66281	0.052
Mof_C 	C 	0.17679	0.37005	0.63223	-0.112
Mof_H 	H 	0.1978	0.3812	0.6226	0.068
Mof_N 	N 	0.68459	0.96313	0.71542	-0.214
Mof_N 	N 	0.68866	0.96315	0.79089	-0.183
Mof_C 	C 	0.6634	0.93473	0.70942	0.012
Mof_N 	N 	0.66673	0.93549	0.79631	-0.097
Mof_C 	C 	0.67517	0.91721	0.6799	0.027
Mof_H 	H 	0.6432	0.9279	0.7237	0.008
Mof_C 	C 	0.6605	0.88449	0.66281	0.054
Mof_C 	C 	0.67679	0.87005	0.63223	-0.112
Mof_H 	H 	0.6978	0.8812	0.6226	0.069
Mof_N 	N 	0.68459	0.46313	0.21542	-0.221
Mof_N 	N 	0.68866	0.46315	0.29089	-0.189
Mof_C 	C 	0.6634	0.43473	0.20942	0.011
Mof_N 	N 	0.66673	0.43549	0.29631	-0.099
Mof_C 	C 	0.67517	0.41721	0.1799	0.026
Mof_H 	H 	0.6432	0.4279	0.2237	0.005
Mof_C 	C 	0.6605	0.38449	0.16281	0.052
Mof_C 	C 	0.67679	0.37005	0.13223	-0.112
Mof_H 	H 	0.6978	0.3812	0.1226	0.067
Mof_N 	N 	0.81541	0.96313	0.78458	-0.213
Mof_N 	N 	0.81134	0.96315	0.70911	-0.183
Mof_C 	C 	0.8366	0.93473	0.79058	0.012
Mof_N 	N 	0.83327	0.93549	0.70369	-0.097
Mof_C 	C 	0.82483	0.91721	0.8201	0.028
Mof_H 	H 	0.8568	0.9279	0.7763	0.009
Mof_C 	C 	0.8395	0.88449	0.83719	0.055
Mof_C 	C 	0.82321	0.87005	0.86777	-0.112
Mof_H 	H 	0.8022	0.8812	0.8774	0.07
Mof_N 	N 	0.81541	0.46313	0.28458	-0.22
Mof_N 	N 	0.81134	0.46315	0.20911	-0.189
Mof_C 	C 	0.8366	0.43473	0.29058	0.011
Mof_N 	N 	0.83327	0.43549	0.20369	-0.099
Mof_C 	C 	0.82483	0.41721	0.3201	0.027
Mof_H 	H 	0.8568	0.4279	0.2763	0.007
Mof_C 	C 	0.8395	0.38449	0.33719	0.054
Mof_C 	C 	0.82321	0.37005	0.36777	-0.112
Mof_H 	H 	0.8022	0.3812	0.3774	0.068
Mof_N 	N 	0.31541	0.96313	0.28458	-0.214
Mof_N 	N 	0.31134	0.96315	0.20911	-0.183
Mof_C 	C 	0.3366	0.93473	0.29058	0.012
Mof_N 	N 	0.33327	0.93549	0.20369	-0.097
Mof_C 	C 	0.32483	0.91721	0.3201	0.028
Mof_H 	H 	0.3568	0.9279	0.2763	0.008
Mof_C 	C 	0.3395	0.88449	0.33719	0.054
Mof_C 	C 	0.32321	0.87005	0.36777	-0.112
Mof_H 	H 	0.3022	0.8812	0.3774	0.069
Mof_N 	N 	0.31541	0.46313	0.78458	-0.22
Mof_N 	N 	0.31134	0.46315	0.70911	-0.189
Mof_C 	C 	0.3366	0.43473	0.79058	0.011
Mof_N 	N 	0.33327	0.43549	0.70369	-0.099
Mof_C 	C 	0.32483	0.41721	0.8201	0.027
Mof_H 	H 	0.3568	0.4279	0.7763	0.006
Mof_C 	C 	0.3395	0.38449	0.83719	0.054
Mof_C 	C 	0.32321	0.37005	0.86777	-0.112
Mof_H 	H 	0.3022	0.3812	0.8774	0.069
Mof_N 	N 	0.03687	0.78458	0.18459	-0.223
Mof_N 	N 	0.03685	0.70911	0.18866	-0.192
Mof_C 	C 	0.06527	0.79058	0.1634	0.01
Mof_N 	N 	0.06451	0.70369	0.16673	-0.101
Mof_C 	C 	0.08279	0.8201	0.17517	0.025
Mof_H 	H 	0.0721	0.7763	0.1432	0.003
Mof_C 	C 	0.11551	0.83719	0.1605	0.052
Mof_C 	C 	0.12995	0.86777	0.17679	-0.112
Mof_H 	H 	0.1188	0.8774	0.1978	0.068
Mof_N 	N 	0.03687	0.28458	0.68459	-0.223
Mof_N 	N 	0.03685	0.20911	0.68866	-0.192
Mof_C 	C 	0.06527	0.29058	0.6634	0.01
Mof_N 	N 	0.06451	0.20369	0.66673	-0.1
Mof_C 	C 	0.08279	0.3201	0.67517	0.025
Mof_H 	H 	0.0721	0.2763	0.6432	0.004
Mof_C 	C 	0.11551	0.33719	0.6605	0.052
Mof_C 	C 	0.12995	0.36777	0.67679	-0.112
Mof_H 	H 	0.1188	0.3774	0.6978	0.067
Mof_N 	N 	0.53687	0.78458	0.68459	-0.22
Mof_N 	N 	0.53685	0.70911	0.68866	-0.19
Mof_C 	C 	0.56527	0.79058	0.6634	0.011
Mof_N 	N 	0.56451	0.70369	0.66673	-0.099
Mof_C 	C 	0.58279	0.8201	0.67517	0.026
Mof_H 	H 	0.5721	0.7763	0.6432	0.006
Mof_C 	C 	0.61551	0.83719	0.6605	0.054
Mof_C 	C 	0.62995	0.86777	0.67679	-0.112
Mof_H 	H 	0.6188	0.8774	0.6978	0.069
Mof_N 	N 	0.53687	0.28458	0.18459	-0.221
Mof_N 	N 	0.53685	0.20911	0.18866	-0.19
Mof_C 	C 	0.56527	0.29058	0.1634	0.011
Mof_N 	N 	0.56451	0.20369	0.16673	-0.1
Mof_C 	C 	0.58279	0.3201	0.17517	0.026
Mof_H 	H 	0.5721	0.2763	0.1432	0.005
Mof_C 	C 	0.61551	0.33719	0.1605	0.052
Mof_C 	C 	0.62995	0.36777	0.17679	-0.112
Mof_H 	H 	0.6188	0.3774	0.1978	0.068
Mof_N 	N 	0.03687	0.21542	0.81541	-0.222
Mof_N 	N 	0.03685	0.29089	0.81134	-0.191
Mof_C 	C 	0.06527	0.20942	0.8366	0.01
Mof_N 	N 	0.06451	0.29631	0.83327	-0.1
Mof_C 	C 	0.08279	0.1799	0.82483	0.026
Mof_H 	H 	0.0721	0.2237	0.8568	0.005
Mof_C 	C 	0.11551	0.16281	0.8395	0.052
Mof_C 	C 	0.12995	0.13223	0.82321	-0.112
Mof_H 	H 	0.1188	0.1226	0.8022	0.067
Mof_N 	N 	0.03687	0.71542	0.31541	-0.223
Mof_N 	N 	0.03685	0.79089	0.31134	-0.192
Mof_C 	C 	0.06527	0.70942	0.3366	0.01
Mof_N 	N 	0.06451	0.79631	0.33327	-0.1
Mof_C 	C 	0.08279	0.6799	0.32483	0.025
Mof_H 	H 	0.0721	0.7237	0.3568	0.004
Mof_C 	C 	0.11551	0.66281	0.3395	0.052
Mof_C 	C 	0.12995	0.63223	0.32321	-0.112
Mof_H 	H 	0.1188	0.6226	0.3022	0.067
Mof_N 	N 	0.53687	0.21542	0.31541	-0.221
Mof_N 	N 	0.53685	0.29089	0.31134	-0.189
Mof_C 	C 	0.56527	0.20942	0.3366	0.011
Mof_N 	N 	0.56451	0.29631	0.33327	-0.099
Mof_C 	C 	0.58279	0.1799	0.32483	0.026
Mof_H 	H 	0.5721	0.2237	0.3568	0.005
Mof_C 	C 	0.61551	0.16281	0.3395	0.052
Mof_C 	C 	0.62995	0.13223	0.32321	-0.112
Mof_H 	H 	0.6188	0.1226	0.3022	0.067
Mof_N 	N 	0.53687	0.71542	0.81541	-0.22
Mof_N 	N 	0.53685	0.79089	0.81134	-0.189
Mof_C 	C 	0.56527	0.70942	0.8366	0.011
Mof_N 	N 	0.56451	0.79631	0.83327	-0.098
Mof_C 	C 	0.58279	0.6799	0.82483	0.027
Mof_H 	H 	0.5721	0.7237	0.8568	0.007
Mof_C 	C 	0.61551	0.66281	0.8395	0.054
Mof_C 	C 	0.62995	0.63223	0.82321	-0.112
Mof_H 	H 	0.6188	0.6226	0.8022	0.068
Mof_N 	N 	0.96313	0.78458	0.81541	-0.213
Mof_N 	N 	0.96315	0.70911	0.81134	-0.183
Mof_C 	C 	0.93473	0.79058	0.8366	0.012
Mof_N 	N 	0.93549	0.70369	0.83327	-0.097
Mof_C 	C 	0.91721	0.8201	0.82483	0.028
Mof_H 	H 	0.9279	0.7763	0.8568	0.009
Mof_C 	C 	0.88449	0.83719	0.8395	0.055
Mof_C 	C 	0.87005	0.86777	0.82321	-0.112
Mof_H 	H 	0.8812	0.8774	0.8022	0.07
Mof_N 	N 	0.96313	0.28458	0.31541	-0.214
Mof_N 	N 	0.96315	0.20911	0.31134	-0.183
Mof_C 	C 	0.93473	0.29058	0.3366	0.012
Mof_N 	N 	0.93549	0.20369	0.33327	-0.097
Mof_C 	C 	0.91721	0.3201	0.32483	0.028
Mof_H 	H 	0.9279	0.2763	0.3568	0.008
Mof_C 	C 	0.88449	0.33719	0.3395	0.054
Mof_C 	C 	0.87005	0.36777	0.32321	-0.112
Mof_H 	H 	0.8812	0.3774	0.3022	0.069
Mof_N 	N 	0.46313	0.78458	0.31541	-0.22
Mof_N 	N 	0.46315	0.70911	0.31134	-0.189
Mof_C 	C 	0.43473	0.79058	0.3366	0.011
Mof_N 	N 	0.43549	0.70369	0.33327	-0.099
Mof_C 	C 	0.41721	0.8201	0.32483	0.027
Mof_H 	H 	0.4279	0.7763	0.3568	0.006
Mof_C 	C 	0.38449	0.83719	0.3395	0.054
Mof_C 	C 	0.37005	0.86777	0.32321	-0.112
Mof_H 	H 	0.3812	0.8774	0.3022	0.069
Mof_N 	N 	0.46313	0.28458	0.81541	-0.22
Mof_N 	N 	0.46315	0.20911	0.81134	-0.189
Mof_C 	C 	0.43473	0.29058	0.8366	0.011
Mof_N 	N 	0.43549	0.20369	0.83327	-0.099
Mof_C 	C 	0.41721	0.3201	0.82483	0.027
Mof_H 	H 	0.4279	0.2763	0.8568	0.007
Mof_C 	C 	0.38449	0.33719	0.8395	0.054
Mof_C 	C 	0.37005	0.36777	0.82321	-0.112
Mof_H 	H 	0.3812	0.3774	0.8022	0.068
Mof_N 	N 	0.96313	0.21542	0.18459	-0.214
Mof_N 	N 	0.96315	0.29089	0.18866	-0.183
Mof_C 	C 	0.93473	0.20942	0.1634	0.011
Mof_N 	N 	0.93549	0.29631	0.16673	-0.098
Mof_C 	C 	0.91721	0.1799	0.17517	0.027
Mof_H 	H 	0.9279	0.2237	0.1432	0.007
Mof_C 	C 	0.88449	0.16281	0.1605	0.053
Mof_C 	C 	0.87005	0.13223	0.17679	-0.112
Mof_H 	H 	0.8812	0.1226	0.1978	0.068
Mof_N 	N 	0.96313	0.71542	0.68459	-0.214
Mof_N 	N 	0.96315	0.79089	0.68866	-0.183
Mof_C 	C 	0.93473	0.70942	0.6634	0.012
Mof_N 	N 	0.93549	0.79631	0.66673	-0.097
Mof_C 	C 	0.91721	0.6799	0.67517	0.027
Mof_H 	H 	0.9279	0.7237	0.6432	0.008
Mof_C 	C 	0.88449	0.66281	0.6605	0.054
Mof_C 	C 	0.87005	0.63223	0.67679	-0.112
Mof_H 	H 	0.8812	0.6226	0.6978	0.069
Mof_N 	N 	0.46313	0.21542	0.68459	-0.221
Mof_N 	N 	0.46315	0.29089	0.68866	-0.189
Mof_C 	C 	0.43473	0.20942	0.6634	0.011
Mof_N 	N 	0.43549	0.29631	0.66673	-0.099
Mof_C 	C 	0.41721	0.1799	0.67517	0.026
Mof_H 	H 	0.4279	0.2237	0.6432	0.005
Mof_C 	C 	0.38449	0.16281	0.6605	0.052
Mof_C 	C 	0.37005	0.13223	0.67679	-0.112
Mof_H 	H 	0.3812	0.1226	0.6978	0.067
Mof_N 	N 	0.46313	0.71542	0.18459	-0.221
Mof_N 	N 	0.46315	0.79089	0.18866	-0.19
Mof_C 	C 	0.43473	0.70942	0.1634	0.01
Mof_N 	N 	0.43549	0.79631	0.16673	-0.099
Mof_C 	C 	0.41721	0.6799	0.17517	0.026
Mof_H 	H 	0.4279	0.7237	0.1432	0.005
Mof_C 	C 	0.38449	0.66281	0.1605	0.052
Mof_C 	C 	0.37005	0.63223	0.17679	-0.112
Mof_H 	H 	0.3812	0.6226	0.1978	0.068
Mof_Co	Co	0.68434	0.75298	0.5	1.13
Mof_Co	Co	0.68434	0.25298	-0	1.122
Mof_Co	Co	0.18434	0.75298	-0	1.122
Mof_Co	Co	0.18434	0.25298	0.5	1.13
Mof_Co	Co	0.31566	0.24702	0.5	1.13
Mof_Co	Co	0.31566	0.74702	-0	1.122
Mof_Co	Co	0.81566	0.24702	-0	1.123
Mof_Co	Co	0.81566	0.74702	0.5	1.131
Mof_Co	Co	0.31566	0.75298	0.5	1.13
Mof_Co	Co	0.31566	0.25298	-0	1.122
Mof_Co	Co	0.81566	0.75298	-0	1.123
Mof_Co	Co	0.81566	0.25298	0.5	1.13
Mof_Co	Co	0.68434	0.24702	0.5	1.13
Mof_Co	Co	0.68434	0.74702	-0	1.122
Mof_Co	Co	0.18434	0.24702	-0	1.122
Mof_Co	Co	0.18434	0.74702	0.5	1.13
Mof_Co	Co	0.5	0.68434	0.75298	1.13
Mof_Co	Co	0.5	0.18434	0.25298	1.13
Mof_Co	Co	-6.97839e-33	0.68434	0.25298	1.122
Mof_Co	Co	2.82322e-33	0.18434	0.75298	1.122
Mof_Co	Co	0.5	0.31566	0.24702	1.13
Mof_Co	Co	0.5	0.81566	0.74702	1.131
Mof_Co	Co	-5.12604e-33	0.31566	0.74702	1.122
Mof_Co	Co	6.87136e-33	0.81566	0.24702	1.123
Mof_Co	Co	0.5	0.31566	0.75298	1.13
Mof_Co	Co	0.5	0.81566	0.25298	1.13
Mof_Co	Co	9.48523e-34	0.31566	0.25298	1.122
Mof_Co	Co	1.86771e-32	0.81566	0.75298	1.123
Mof_Co	Co	0.5	0.68434	0.24702	1.13
Mof_Co	Co	0.5	0.18434	0.74702	1.13
Mof_Co	Co	2.80088e-33	0.68434	0.74702	1.122
Mof_Co	Co	-3.03728e-33	0.18434	0.24702	1.122
Mof_Co	Co	0.75298	0.5	0.68434	1.13
Mof_Co	Co	0.75298	0	0.18434	1.122
Mof_Co	Co	0.25298	0.5	0.18434	1.13
Mof_Co	Co	0.25298	-7.92692e-33	0.68434	1.122
Mof_Co	Co	0.24702	0.5	0.31566	1.13
Mof_Co	Co	0.24702	7.92692e-33	0.81566	1.123
Mof_Co	Co	0.74702	0.5	0.81566	1.131
Mof_Co	Co	0.74702	3.96346e-33	0.31566	1.122
Mof_Co	Co	0.75298	0.5	0.31566	1.13
Mof_Co	Co	0.75298	7.92692e-33	0.81566	1.123
Mof_Co	Co	0.25298	0.5	0.81566	1.13
Mof_Co	Co	0.25298	3.96346e-33	0.31566	1.122
Mof_Co	Co	0.24702	0.5	0.68434	1.13
Mof_Co	Co	0.24702	0	0.18434	1.122
Mof_Co	Co	0.74702	0.5	0.18434	1.13
Mof_Co	Co	0.74702	-7.92692e-33	0.68434	1.122
Mof_Co	Co	0.25298	0.18434	-0	1.122
Mof_Co	Co	0.25298	0.68434	0.5	1.13
Mof_Co	Co	0.75298	0.18434	0.5	1.13
Mof_Co	Co	0.75298	0.68434	-0	1.122
Mof_Co	Co	0.74702	0.81566	-0	1.123
Mof_Co	Co	0.74702	0.31566	0.5	1.13
Mof_Co	Co	0.24702	0.81566	0.5	1.13
Mof_Co	Co	0.24702	0.31566	-0	1.122
Mof_Co	Co	0.25298	0.81566	-0	1.123
Mof_Co	Co	0.25298	0.31566	0.5	1.13
Mof_Co	Co	0.75298	0.81566	0.5	1.131
Mof_Co	Co	0.75298	0.31566	-0	1.122
Mof_Co	Co	0.74702	0.18434	-0	1.122
Mof_Co	Co	0.74702	0.68434	0.5	1.13
Mof_Co	Co	0.24702	0.18434	0.5	1.13
Mof_Co	Co	0.24702	0.68434	-0	1.122
Mof_Co	Co	0.18434	0	0.74702	1.122
Mof_Co	Co	0.18434	0.5	0.24702	1.13
Mof_Co	Co	0.68434	0	0.24702	1.122
Mof_Co	Co	0.68434	0.5	0.74702	1.13
Mof_Co	Co	0.81566	-1.98173e-33	0.25298	1.123
Mof_Co	Co	0.81566	0.5	0.75298	1.131
Mof_Co	Co	0.31566	0	0.75298	1.122
Mof_Co	Co	0.31566	0.5	0.25298	1.13
Mof_Co	Co	0.81566	0	0.74702	1.123
Mof_Co	Co	0.81566	0.5	0.24702	1.13
Mof_Co	Co	0.31566	0	0.24702	1.122
Mof_Co	Co	0.31566	0.5	0.74702	1.13
Mof_Co	Co	0.18434	-1.98173e-33	0.25298	1.122
Mof_Co	Co	0.18434	0.5	0.75298	1.13
Mof_Co	Co	0.68434	0	0.75298	1.122
Mof_Co	Co	0.68434	0.5	0.25298	1.13
Mof_Co	Co	1.09852e-32	0.25298	0.81566	1.123
Mof_Co	Co	5.14699e-33	0.75298	0.31566	1.122
Mof_Co	Co	0.5	0.25298	0.31566	1.13
Mof_Co	Co	0.5	0.75298	0.81566	1.131
Mof_Co	Co	4.65462e-33	0.74702	0.18434	1.122
Mof_Co	Co	-1.3288e-32	0.24702	0.68434	1.122
Mof_Co	Co	0.5	0.74702	0.68434	1.13
Mof_Co	Co	0.5	0.24702	0.18434	1.13
Mof_Co	Co	6.91164e-34	0.25298	0.18434	1.122
Mof_Co	Co	1.04928e-32	0.75298	0.68434	1.122
Mof_Co	Co	0.5	0.25298	0.68434	1.13
Mof_Co	Co	0.5	0.75298	0.18434	1.13
Mof_Co	Co	3.05824e-33	0.74702	0.81566	1.123
Mof_Co	Co	5.14699e-33	0.24702	0.31566	1.122
Mof_Co	Co	0.5	0.74702	0.31566	1.13
Mof_Co	Co	0.5	0.24702	0.81566	1.13
Mof_Cl	Cl	0.75	0.75	0.5	-0.864
Mof_Cl	Cl	0.25	0.25	0.5	-0.863
Mof_Cl	Cl	0.25	0.75	0.5	-0.863
Mof_Cl	Cl	0.75	0.25	0.5	-0.863
Mof_Cl	Cl	0.5	0.75	0.75	-0.864
Mof_Cl	Cl	0.5	0.25	0.25	-0.863
Mof_Cl	Cl	0.5	0.25	0.75	-0.863
Mof_Cl	Cl	0.5	0.75	0.25	-0.863
Mof_Cl	Cl	0.75	0.5	0.75	-0.864
Mof_Cl	Cl	0.25	0.5	0.25	-0.863
Mof_Cl	Cl	0.75	0.5	0.25	-0.863
Mof_Cl	Cl	0.25	0.5	0.75	-0.863
Mof_Cl	Cl	0.25	0.25	-0	-0.876
Mof_Cl	Cl	0.75	0.75	-0	-0.876
Mof_Cl	Cl	0.25	0.75	-0	-0.876
Mof_Cl	Cl	0.75	0.25	-0	-0.876
Mof_Cl	Cl	0.25	0	0.75	-0.876
Mof_Cl	Cl	0.75	0	0.25	-0.876
Mof_Cl	Cl	0.75	0	0.75	-0.876
Mof_Cl	Cl	0.25	0	0.25	-0.876
Mof_Cl	Cl	2.81205e-33	0.25	0.75	-0.876
Mof_Cl	Cl	-1.04438e-33	0.75	0.25	-0.876
Mof_Cl	Cl	9.3735e-34	0.25	0.25	-0.876
Mof_Cl	Cl	2.81205e-33	0.75	0.75	-0.876
_end
