data_functionalizedCrystal
_audit_creation_method	'EQeq! by Chris Wilmer'
_symmetry_space_group_name_H-M	'P1'
_symmetry_Int_Tables_number	1
_symmetry_cell_setting	triclinic
loop_
_symmetry_equiv_pos_as_xyz
  x,y,z
_cell_length_a	34.4885
_cell_length_b	34.4885
_cell_length_c	34.4885
_cell_angle_alpha	90
_cell_angle_beta	90
_cell_angle_gamma	90
loop_
_atom_site_label
_atom_site_type_symbol
_atom_site_fract_x
_atom_site_fract_y
_atom_site_fract_z
_atom_site_charge
Mof_C 	C 	0.87558	0.03517	0.07321	0.096
Mof_H 	H 	0.8657	0.0542	0.0895	-0.035
Mof_C 	C 	0.90413	0.98498	0.05365	-0.028
Mof_H 	H 	0.9181	0.9619	0.053	0.029
Mof_C 	C 	0.8898	0.00326	0.02221	0.058
Mof_C 	C 	0.8996	0.9883	0.9835	0.175
Mof_H 	H 	0.9148	0.9661	0.9835	-0.035
Mof_C 	C 	0.8515	0.0443	0.9213	-0.228
Mof_H 	H 	0.8503	0.0274	0.9003	0.078
Mof_N 	N 	0.8906	0.001	0.9494	-0.063
Mof_N 	N 	0.8698	0.0348	0.9528	-0.068
Mof_C 	C 	0.8327	0.0823	0.91958	0.052
Mof_C 	C 	0.8096	0.102	0.894	-0.033
Mof_H 	H 	0.8065	0.096	0.8679	0.024
Mof_C 	C 	0.80437	0.12825	0.9497	0.097
Mof_H 	H 	0.797	0.1451	0.9694	-0.041
Mof_N 	N 	0.871	0.03601	0.03499	-0.231
Mof_N 	N 	0.89542	0.00481	0.08614	-0.265
Mof_N 	N 	0.82826	0.09881	0.95519	-0.234
Mof_N 	N 	0.79177	0.13149	0.91295	-0.266
Mof_Cu	Cu	0.85991	0.08173	0.00098	0.869
Mof_C 	C 	0.8871	0.0009	0.98	-0.213
Mof_H 	H 	0.8939	0.9782	0.9671	0.066
Mof_C 	C 	0.8592	0.0522	0.9049	0.193
Mof_H 	H 	0.8618	0.0525	0.8781	-0.044
Mof_N 	N 	0.8752	0.0308	0.961	0.002
Mof_N 	N 	0.8796	0.0253	0.9217	-0.063
Mof_Zn	Zn	0.91827	0.99902	0.14009	1.181
Mof_C 	C 	0.37558	0.53517	0.57321	0.096
Mof_H 	H 	0.3657	0.5542	0.5895	-0.035
Mof_C 	C 	0.40413	0.48498	0.55365	-0.028
Mof_H 	H 	0.4181	0.4619	0.553	0.029
Mof_C 	C 	0.3898	0.50326	0.52221	0.058
Mof_C 	C 	0.3996	0.4883	0.4835	0.175
Mof_H 	H 	0.4148	0.4661	0.4835	-0.035
Mof_C 	C 	0.3515	0.5443	0.4213	-0.228
Mof_H 	H 	0.3503	0.5274	0.4003	0.078
Mof_N 	N 	0.3906	0.501	0.4494	-0.063
Mof_N 	N 	0.3698	0.5348	0.4528	-0.068
Mof_C 	C 	0.3327	0.5823	0.41958	0.052
Mof_C 	C 	0.3096	0.602	0.394	-0.033
Mof_H 	H 	0.3065	0.596	0.3679	0.024
Mof_C 	C 	0.30437	0.62825	0.4497	0.097
Mof_H 	H 	0.297	0.6451	0.4694	-0.041
Mof_N 	N 	0.371	0.53601	0.53499	-0.231
Mof_N 	N 	0.39542	0.50481	0.58614	-0.265
Mof_N 	N 	0.32826	0.59881	0.45519	-0.234
Mof_N 	N 	0.29177	0.63149	0.41295	-0.266
Mof_Cu	Cu	0.35991	0.58173	0.50098	0.868
Mof_C 	C 	0.3871	0.5009	0.48	-0.214
Mof_H 	H 	0.3939	0.4782	0.4671	0.065
Mof_C 	C 	0.3592	0.5522	0.4049	0.192
Mof_H 	H 	0.3618	0.5525	0.3781	-0.045
Mof_N 	N 	0.3752	0.5308	0.461	0.001
Mof_N 	N 	0.3796	0.5253	0.4217	-0.064
Mof_Zn	Zn	0.41827	0.49902	0.64009	1.18
Mof_C 	C 	0.62442	0.96483	0.57321	0.095
Mof_H 	H 	0.6343	0.9458	0.5895	-0.036
Mof_C 	C 	0.59587	0.01502	0.55365	-0.029
Mof_H 	H 	0.5819	0.0381	0.553	0.028
Mof_C 	C 	0.6102	0.99674	0.52221	0.057
Mof_C 	C 	0.6004	0.0117	0.4835	0.174
Mof_H 	H 	0.5852	0.0339	0.4835	-0.036
Mof_C 	C 	0.6485	0.9557	0.4213	-0.229
Mof_H 	H 	0.6497	0.9726	0.4003	0.077
Mof_N 	N 	0.6094	0.999	0.4494	-0.064
Mof_N 	N 	0.6302	0.9652	0.4528	-0.069
Mof_C 	C 	0.6673	0.9177	0.41958	0.051
Mof_C 	C 	0.6904	0.898	0.394	-0.034
Mof_H 	H 	0.6935	0.904	0.3679	0.023
Mof_C 	C 	0.69563	0.87175	0.4497	0.096
Mof_H 	H 	0.703	0.8549	0.4694	-0.042
Mof_N 	N 	0.629	0.96399	0.53499	-0.232
Mof_N 	N 	0.60458	0.99519	0.58614	-0.266
Mof_N 	N 	0.67174	0.90119	0.45519	-0.235
Mof_N 	N 	0.70823	0.86851	0.41295	-0.267
Mof_Cu	Cu	0.64009	0.91827	0.50098	0.868
Mof_C 	C 	0.6129	0.9991	0.48	-0.214
Mof_H 	H 	0.6061	0.0218	0.4671	0.065
Mof_C 	C 	0.6408	0.9478	0.4049	0.192
Mof_H 	H 	0.6382	0.9475	0.3781	-0.045
Mof_N 	N 	0.6248	0.9692	0.461	0.001
Mof_N 	N 	0.6204	0.9747	0.4217	-0.064
Mof_Zn	Zn	0.58173	0.00098	0.64009	1.18
Mof_C 	C 	0.12442	0.46483	0.07321	0.095
Mof_H 	H 	0.1343	0.4458	0.0895	-0.036
Mof_C 	C 	0.09587	0.51502	0.05365	-0.029
Mof_H 	H 	0.0819	0.5381	0.053	0.028
Mof_C 	C 	0.1102	0.49674	0.02221	0.057
Mof_C 	C 	0.1004	0.5117	0.9835	0.174
Mof_H 	H 	0.0852	0.5339	0.9835	-0.036
Mof_C 	C 	0.1485	0.4557	0.9213	-0.229
Mof_H 	H 	0.1497	0.4726	0.9003	0.077
Mof_N 	N 	0.1094	0.499	0.9494	-0.064
Mof_N 	N 	0.1302	0.4652	0.9528	-0.069
Mof_C 	C 	0.1673	0.4177	0.91958	0.051
Mof_C 	C 	0.1904	0.398	0.894	-0.034
Mof_H 	H 	0.1935	0.404	0.8679	0.023
Mof_C 	C 	0.19563	0.37175	0.9497	0.096
Mof_H 	H 	0.203	0.3549	0.9694	-0.042
Mof_N 	N 	0.129	0.46399	0.03499	-0.232
Mof_N 	N 	0.10458	0.49519	0.08614	-0.266
Mof_N 	N 	0.17174	0.40119	0.95519	-0.235
Mof_N 	N 	0.20823	0.36851	0.91295	-0.267
Mof_Cu	Cu	0.14009	0.41827	0.00098	0.868
Mof_C 	C 	0.1129	0.4991	0.98	-0.214
Mof_H 	H 	0.1061	0.5218	0.9671	0.065
Mof_C 	C 	0.1408	0.4478	0.9049	0.192
Mof_H 	H 	0.1382	0.4475	0.8781	-0.045
Mof_N 	N 	0.1248	0.4692	0.961	0.001
Mof_N 	N 	0.1204	0.4747	0.9217	-0.064
Mof_Zn	Zn	0.08173	0.50098	0.14009	1.18
Mof_C 	C 	0.12442	0.53517	0.42679	0.095
Mof_H 	H 	0.1343	0.5542	0.4105	-0.036
Mof_C 	C 	0.09587	0.48498	0.44635	-0.029
Mof_H 	H 	0.0819	0.4619	0.447	0.028
Mof_C 	C 	0.1102	0.50326	0.47779	0.057
Mof_C 	C 	0.1004	0.4883	0.5165	0.174
Mof_H 	H 	0.0852	0.4661	0.5165	-0.036
Mof_C 	C 	0.1485	0.5443	0.5787	-0.229
Mof_H 	H 	0.1497	0.5274	0.5997	0.077
Mof_N 	N 	0.1094	0.501	0.5506	-0.064
Mof_N 	N 	0.1302	0.5348	0.5472	-0.069
Mof_C 	C 	0.1673	0.5823	0.58042	0.051
Mof_C 	C 	0.1904	0.602	0.606	-0.034
Mof_H 	H 	0.1935	0.596	0.6321	0.023
Mof_C 	C 	0.19563	0.62825	0.5503	0.096
Mof_H 	H 	0.203	0.6451	0.5306	-0.042
Mof_N 	N 	0.129	0.53601	0.46501	-0.232
Mof_N 	N 	0.10458	0.50481	0.41386	-0.266
Mof_N 	N 	0.17174	0.59881	0.54481	-0.235
Mof_N 	N 	0.20823	0.63149	0.58705	-0.267
Mof_Cu	Cu	0.14009	0.58173	0.49902	0.868
Mof_C 	C 	0.1129	0.5009	0.52	-0.214
Mof_H 	H 	0.1061	0.4782	0.5329	0.065
Mof_C 	C 	0.1408	0.5522	0.5951	0.192
Mof_H 	H 	0.1382	0.5525	0.6219	-0.045
Mof_N 	N 	0.1248	0.5308	0.539	0.001
Mof_N 	N 	0.1204	0.5253	0.5783	-0.064
Mof_Zn	Zn	0.08173	0.49902	0.35991	1.18
Mof_C 	C 	0.62442	0.03517	0.92679	0.095
Mof_H 	H 	0.6343	0.0542	0.9105	-0.036
Mof_C 	C 	0.59587	0.98498	0.94635	-0.029
Mof_H 	H 	0.5819	0.9619	0.947	0.028
Mof_C 	C 	0.6102	0.00326	0.97779	0.057
Mof_C 	C 	0.6004	0.9883	0.0165	0.174
Mof_H 	H 	0.5852	0.9661	0.0165	-0.036
Mof_C 	C 	0.6485	0.0443	0.0787	-0.229
Mof_H 	H 	0.6497	0.0274	0.0997	0.077
Mof_N 	N 	0.6094	0.001	0.0506	-0.064
Mof_N 	N 	0.6302	0.0348	0.0472	-0.069
Mof_C 	C 	0.6673	0.0823	0.08042	0.051
Mof_C 	C 	0.6904	0.102	0.106	-0.034
Mof_H 	H 	0.6935	0.096	0.1321	0.023
Mof_C 	C 	0.69563	0.12825	0.0503	0.096
Mof_H 	H 	0.703	0.1451	0.0306	-0.042
Mof_N 	N 	0.629	0.03601	0.96501	-0.232
Mof_N 	N 	0.60458	0.00481	0.91386	-0.266
Mof_N 	N 	0.67174	0.09881	0.04481	-0.235
Mof_N 	N 	0.70823	0.13149	0.08705	-0.267
Mof_Cu	Cu	0.64009	0.08173	0.99902	0.868
Mof_C 	C 	0.6129	0.0009	0.02	-0.214
Mof_H 	H 	0.6061	0.9782	0.0329	0.065
Mof_C 	C 	0.6408	0.0522	0.0951	0.192
Mof_H 	H 	0.6382	0.0525	0.1219	-0.045
Mof_N 	N 	0.6248	0.0308	0.039	0.001
Mof_N 	N 	0.6204	0.0253	0.0783	-0.064
Mof_Zn	Zn	0.58173	0.99902	0.85991	1.18
Mof_C 	C 	0.37558	0.46483	0.92679	0.095
Mof_H 	H 	0.3657	0.4458	0.9105	-0.036
Mof_C 	C 	0.40413	0.51502	0.94635	-0.029
Mof_H 	H 	0.4181	0.5381	0.947	0.028
Mof_C 	C 	0.3898	0.49674	0.97779	0.057
Mof_C 	C 	0.3996	0.5117	0.0165	0.174
Mof_H 	H 	0.4148	0.5339	0.0165	-0.036
Mof_C 	C 	0.3515	0.4557	0.0787	-0.229
Mof_H 	H 	0.3503	0.4726	0.0997	0.077
Mof_N 	N 	0.3906	0.499	0.0506	-0.064
Mof_N 	N 	0.3698	0.4652	0.0472	-0.069
Mof_C 	C 	0.3327	0.4177	0.08042	0.051
Mof_C 	C 	0.3096	0.398	0.106	-0.034
Mof_H 	H 	0.3065	0.404	0.1321	0.023
Mof_C 	C 	0.30437	0.37175	0.0503	0.096
Mof_H 	H 	0.297	0.3549	0.0306	-0.042
Mof_N 	N 	0.371	0.46399	0.96501	-0.232
Mof_N 	N 	0.39542	0.49519	0.91386	-0.266
Mof_N 	N 	0.32826	0.40119	0.04481	-0.235
Mof_N 	N 	0.29177	0.36851	0.08705	-0.267
Mof_Cu	Cu	0.35991	0.41827	0.99902	0.868
Mof_C 	C 	0.3871	0.4991	0.02	-0.214
Mof_H 	H 	0.3939	0.5218	0.0329	0.065
Mof_C 	C 	0.3592	0.4478	0.0951	0.192
Mof_H 	H 	0.3618	0.4475	0.1219	-0.045
Mof_N 	N 	0.3752	0.4692	0.039	0.001
Mof_N 	N 	0.3796	0.4747	0.0783	-0.064
Mof_Zn	Zn	0.41827	0.50098	0.85991	1.18
Mof_C 	C 	0.87558	0.96483	0.42679	0.095
Mof_H 	H 	0.8657	0.9458	0.4105	-0.036
Mof_C 	C 	0.90413	0.01502	0.44635	-0.029
Mof_H 	H 	0.9181	0.0381	0.447	0.028
Mof_C 	C 	0.8898	0.99674	0.47779	0.057
Mof_C 	C 	0.8996	0.0117	0.5165	0.174
Mof_H 	H 	0.9148	0.0339	0.5165	-0.036
Mof_C 	C 	0.8515	0.9557	0.5787	-0.229
Mof_H 	H 	0.8503	0.9726	0.5997	0.077
Mof_N 	N 	0.8906	0.999	0.5506	-0.064
Mof_N 	N 	0.8698	0.9652	0.5472	-0.069
Mof_C 	C 	0.8327	0.9177	0.58042	0.051
Mof_C 	C 	0.8096	0.898	0.606	-0.034
Mof_H 	H 	0.8065	0.904	0.6321	0.023
Mof_C 	C 	0.80437	0.87175	0.5503	0.096
Mof_H 	H 	0.797	0.8549	0.5306	-0.042
Mof_N 	N 	0.871	0.96399	0.46501	-0.232
Mof_N 	N 	0.89542	0.99519	0.41386	-0.266
Mof_N 	N 	0.82826	0.90119	0.54481	-0.235
Mof_N 	N 	0.79177	0.86851	0.58705	-0.267
Mof_Cu	Cu	0.85991	0.91827	0.49902	0.868
Mof_C 	C 	0.8871	0.9991	0.52	-0.214
Mof_H 	H 	0.8939	0.0218	0.5329	0.065
Mof_C 	C 	0.8592	0.9478	0.5951	0.192
Mof_H 	H 	0.8618	0.9475	0.6219	-0.045
Mof_N 	N 	0.8752	0.9692	0.539	0.001
Mof_N 	N 	0.8796	0.9747	0.5783	-0.064
Mof_Zn	Zn	0.91827	0.00098	0.35991	1.18
Mof_C 	C 	0.07321	0.87558	0.03517	0.095
Mof_H 	H 	0.0895	0.8657	0.0542	-0.036
Mof_C 	C 	0.05365	0.90413	0.98498	-0.029
Mof_H 	H 	0.053	0.9181	0.9619	0.028
Mof_C 	C 	0.02221	0.8898	0.00326	0.057
Mof_C 	C 	0.9835	0.8996	0.9883	0.174
Mof_H 	H 	0.9835	0.9148	0.9661	-0.036
Mof_C 	C 	0.9213	0.8515	0.0443	-0.229
Mof_H 	H 	0.9003	0.8503	0.0274	0.077
Mof_N 	N 	0.9494	0.8906	0.001	-0.064
Mof_N 	N 	0.9528	0.8698	0.0348	-0.069
Mof_C 	C 	0.91958	0.8327	0.0823	0.051
Mof_C 	C 	0.894	0.8096	0.102	-0.034
Mof_H 	H 	0.8679	0.8065	0.096	0.023
Mof_C 	C 	0.9497	0.80437	0.12825	0.096
Mof_H 	H 	0.9694	0.797	0.1451	-0.042
Mof_N 	N 	0.03499	0.871	0.03601	-0.232
Mof_N 	N 	0.08614	0.89542	0.00481	-0.266
Mof_N 	N 	0.95519	0.82826	0.09881	-0.235
Mof_N 	N 	0.91295	0.79177	0.13149	-0.267
Mof_Cu	Cu	0.00098	0.85991	0.08173	0.868
Mof_C 	C 	0.98	0.8871	0.0009	-0.214
Mof_H 	H 	0.9671	0.8939	0.9782	0.065
Mof_C 	C 	0.9049	0.8592	0.0522	0.192
Mof_H 	H 	0.8781	0.8618	0.0525	-0.045
Mof_N 	N 	0.961	0.8752	0.0308	0.001
Mof_N 	N 	0.9217	0.8796	0.0253	-0.064
Mof_Zn	Zn	0.14009	0.91827	0.99902	1.18
Mof_C 	C 	0.57321	0.37558	0.53517	0.095
Mof_H 	H 	0.5895	0.3657	0.5542	-0.036
Mof_C 	C 	0.55365	0.40413	0.48498	-0.029
Mof_H 	H 	0.553	0.4181	0.4619	0.028
Mof_C 	C 	0.52221	0.3898	0.50326	0.057
Mof_C 	C 	0.4835	0.3996	0.4883	0.174
Mof_H 	H 	0.4835	0.4148	0.4661	-0.036
Mof_C 	C 	0.4213	0.3515	0.5443	-0.229
Mof_H 	H 	0.4003	0.3503	0.5274	0.077
Mof_N 	N 	0.4494	0.3906	0.501	-0.064
Mof_N 	N 	0.4528	0.3698	0.5348	-0.069
Mof_C 	C 	0.41958	0.3327	0.5823	0.051
Mof_C 	C 	0.394	0.3096	0.602	-0.034
Mof_H 	H 	0.3679	0.3065	0.596	0.023
Mof_C 	C 	0.4497	0.30437	0.62825	0.096
Mof_H 	H 	0.4694	0.297	0.6451	-0.042
Mof_N 	N 	0.53499	0.371	0.53601	-0.232
Mof_N 	N 	0.58614	0.39542	0.50481	-0.266
Mof_N 	N 	0.45519	0.32826	0.59881	-0.235
Mof_N 	N 	0.41295	0.29177	0.63149	-0.267
Mof_Cu	Cu	0.50098	0.35991	0.58173	0.868
Mof_C 	C 	0.48	0.3871	0.5009	-0.214
Mof_H 	H 	0.4671	0.3939	0.4782	0.065
Mof_C 	C 	0.4049	0.3592	0.5522	0.192
Mof_H 	H 	0.3781	0.3618	0.5525	-0.045
Mof_N 	N 	0.461	0.3752	0.5308	0.001
Mof_N 	N 	0.4217	0.3796	0.5253	-0.064
Mof_Zn	Zn	0.64009	0.41827	0.49902	1.18
Mof_C 	C 	0.57321	0.62442	0.96483	0.095
Mof_H 	H 	0.5895	0.6343	0.9458	-0.036
Mof_C 	C 	0.55365	0.59587	0.01502	-0.029
Mof_H 	H 	0.553	0.5819	0.0381	0.028
Mof_C 	C 	0.52221	0.6102	0.99674	0.057
Mof_C 	C 	0.4835	0.6004	0.0117	0.174
Mof_H 	H 	0.4835	0.5852	0.0339	-0.036
Mof_C 	C 	0.4213	0.6485	0.9557	-0.229
Mof_H 	H 	0.4003	0.6497	0.9726	0.077
Mof_N 	N 	0.4494	0.6094	0.999	-0.064
Mof_N 	N 	0.4528	0.6302	0.9652	-0.069
Mof_C 	C 	0.41958	0.6673	0.9177	0.051
Mof_C 	C 	0.394	0.6904	0.898	-0.034
Mof_H 	H 	0.3679	0.6935	0.904	0.023
Mof_C 	C 	0.4497	0.69563	0.87175	0.096
Mof_H 	H 	0.4694	0.703	0.8549	-0.042
Mof_N 	N 	0.53499	0.629	0.96399	-0.232
Mof_N 	N 	0.58614	0.60458	0.99519	-0.266
Mof_N 	N 	0.45519	0.67174	0.90119	-0.235
Mof_N 	N 	0.41295	0.70823	0.86851	-0.267
Mof_Cu	Cu	0.50098	0.64009	0.91827	0.868
Mof_C 	C 	0.48	0.6129	0.9991	-0.214
Mof_H 	H 	0.4671	0.6061	0.0218	0.065
Mof_C 	C 	0.4049	0.6408	0.9478	0.192
Mof_H 	H 	0.3781	0.6382	0.9475	-0.045
Mof_N 	N 	0.461	0.6248	0.9692	0.001
Mof_N 	N 	0.4217	0.6204	0.9747	-0.064
Mof_Zn	Zn	0.64009	0.58173	0.00098	1.18
Mof_C 	C 	0.07321	0.12442	0.46483	0.095
Mof_H 	H 	0.0895	0.1343	0.4458	-0.036
Mof_C 	C 	0.05365	0.09587	0.51502	-0.029
Mof_H 	H 	0.053	0.0819	0.5381	0.028
Mof_C 	C 	0.02221	0.1102	0.49674	0.057
Mof_C 	C 	0.9835	0.1004	0.5117	0.174
Mof_H 	H 	0.9835	0.0852	0.5339	-0.036
Mof_C 	C 	0.9213	0.1485	0.4557	-0.229
Mof_H 	H 	0.9003	0.1497	0.4726	0.077
Mof_N 	N 	0.9494	0.1094	0.499	-0.064
Mof_N 	N 	0.9528	0.1302	0.4652	-0.069
Mof_C 	C 	0.91958	0.1673	0.4177	0.051
Mof_C 	C 	0.894	0.1904	0.398	-0.034
Mof_H 	H 	0.8679	0.1935	0.404	0.023
Mof_C 	C 	0.9497	0.19563	0.37175	0.096
Mof_H 	H 	0.9694	0.203	0.3549	-0.042
Mof_N 	N 	0.03499	0.129	0.46399	-0.232
Mof_N 	N 	0.08614	0.10458	0.49519	-0.266
Mof_N 	N 	0.95519	0.17174	0.40119	-0.235
Mof_N 	N 	0.91295	0.20823	0.36851	-0.267
Mof_Cu	Cu	0.00098	0.14009	0.41827	0.868
Mof_C 	C 	0.98	0.1129	0.4991	-0.214
Mof_H 	H 	0.9671	0.1061	0.5218	0.065
Mof_C 	C 	0.9049	0.1408	0.4478	0.192
Mof_H 	H 	0.8781	0.1382	0.4475	-0.045
Mof_N 	N 	0.961	0.1248	0.4692	0.001
Mof_N 	N 	0.9217	0.1204	0.4747	-0.064
Mof_Zn	Zn	0.14009	0.08173	0.50098	1.18
Mof_C 	C 	0.42679	0.12442	0.53517	0.095
Mof_H 	H 	0.4105	0.1343	0.5542	-0.036
Mof_C 	C 	0.44635	0.09587	0.48498	-0.029
Mof_H 	H 	0.447	0.0819	0.4619	0.028
Mof_C 	C 	0.47779	0.1102	0.50326	0.057
Mof_C 	C 	0.5165	0.1004	0.4883	0.174
Mof_H 	H 	0.5165	0.0852	0.4661	-0.036
Mof_C 	C 	0.5787	0.1485	0.5443	-0.229
Mof_H 	H 	0.5997	0.1497	0.5274	0.077
Mof_N 	N 	0.5506	0.1094	0.501	-0.064
Mof_N 	N 	0.5472	0.1302	0.5348	-0.069
Mof_C 	C 	0.58042	0.1673	0.5823	0.051
Mof_C 	C 	0.606	0.1904	0.602	-0.034
Mof_H 	H 	0.6321	0.1935	0.596	0.023
Mof_C 	C 	0.5503	0.19563	0.62825	0.096
Mof_H 	H 	0.5306	0.203	0.6451	-0.042
Mof_N 	N 	0.46501	0.129	0.53601	-0.232
Mof_N 	N 	0.41386	0.10458	0.50481	-0.266
Mof_N 	N 	0.54481	0.17174	0.59881	-0.235
Mof_N 	N 	0.58705	0.20823	0.63149	-0.267
Mof_Cu	Cu	0.49902	0.14009	0.58173	0.868
Mof_C 	C 	0.52	0.1129	0.5009	-0.214
Mof_H 	H 	0.5329	0.1061	0.4782	0.065
Mof_C 	C 	0.5951	0.1408	0.5522	0.192
Mof_H 	H 	0.6219	0.1382	0.5525	-0.045
Mof_N 	N 	0.539	0.1248	0.5308	0.001
Mof_N 	N 	0.5783	0.1204	0.5253	-0.064
Mof_Zn	Zn	0.35991	0.08173	0.49902	1.18
Mof_C 	C 	0.92679	0.62442	0.03517	0.095
Mof_H 	H 	0.9105	0.6343	0.0542	-0.036
Mof_C 	C 	0.94635	0.59587	0.98498	-0.029
Mof_H 	H 	0.947	0.5819	0.9619	0.028
Mof_C 	C 	0.97779	0.6102	0.00326	0.057
Mof_C 	C 	0.0165	0.6004	0.9883	0.174
Mof_H 	H 	0.0165	0.5852	0.9661	-0.036
Mof_C 	C 	0.0787	0.6485	0.0443	-0.229
Mof_H 	H 	0.0997	0.6497	0.0274	0.077
Mof_N 	N 	0.0506	0.6094	0.001	-0.064
Mof_N 	N 	0.0472	0.6302	0.0348	-0.069
Mof_C 	C 	0.08042	0.6673	0.0823	0.051
Mof_C 	C 	0.106	0.6904	0.102	-0.034
Mof_H 	H 	0.1321	0.6935	0.096	0.023
Mof_C 	C 	0.0503	0.69563	0.12825	0.096
Mof_H 	H 	0.0306	0.703	0.1451	-0.042
Mof_N 	N 	0.96501	0.629	0.03601	-0.232
Mof_N 	N 	0.91386	0.60458	0.00481	-0.266
Mof_N 	N 	0.04481	0.67174	0.09881	-0.235
Mof_N 	N 	0.08705	0.70823	0.13149	-0.267
Mof_Cu	Cu	0.99902	0.64009	0.08173	0.868
Mof_C 	C 	0.02	0.6129	0.0009	-0.214
Mof_H 	H 	0.0329	0.6061	0.9782	0.065
Mof_C 	C 	0.0951	0.6408	0.0522	0.192
Mof_H 	H 	0.1219	0.6382	0.0525	-0.045
Mof_N 	N 	0.039	0.6248	0.0308	0.001
Mof_N 	N 	0.0783	0.6204	0.0253	-0.064
Mof_Zn	Zn	0.85991	0.58173	0.99902	1.18
Mof_C 	C 	0.92679	0.37558	0.46483	0.095
Mof_H 	H 	0.9105	0.3657	0.4458	-0.036
Mof_C 	C 	0.94635	0.40413	0.51502	-0.029
Mof_H 	H 	0.947	0.4181	0.5381	0.028
Mof_C 	C 	0.97779	0.3898	0.49674	0.057
Mof_C 	C 	0.0165	0.3996	0.5117	0.174
Mof_H 	H 	0.0165	0.4148	0.5339	-0.036
Mof_C 	C 	0.0787	0.3515	0.4557	-0.229
Mof_H 	H 	0.0997	0.3503	0.4726	0.077
Mof_N 	N 	0.0506	0.3906	0.499	-0.064
Mof_N 	N 	0.0472	0.3698	0.4652	-0.069
Mof_C 	C 	0.08042	0.3327	0.4177	0.051
Mof_C 	C 	0.106	0.3096	0.398	-0.034
Mof_H 	H 	0.1321	0.3065	0.404	0.023
Mof_C 	C 	0.0503	0.30437	0.37175	0.096
Mof_H 	H 	0.0306	0.297	0.3549	-0.042
Mof_N 	N 	0.96501	0.371	0.46399	-0.232
Mof_N 	N 	0.91386	0.39542	0.49519	-0.266
Mof_N 	N 	0.04481	0.32826	0.40119	-0.235
Mof_N 	N 	0.08705	0.29177	0.36851	-0.267
Mof_Cu	Cu	0.99902	0.35991	0.41827	0.868
Mof_C 	C 	0.02	0.3871	0.4991	-0.214
Mof_H 	H 	0.0329	0.3939	0.5218	0.065
Mof_C 	C 	0.0951	0.3592	0.4478	0.192
Mof_H 	H 	0.1219	0.3618	0.4475	-0.045
Mof_N 	N 	0.039	0.3752	0.4692	0.001
Mof_N 	N 	0.0783	0.3796	0.4747	-0.064
Mof_Zn	Zn	0.85991	0.41827	0.50098	1.18
Mof_C 	C 	0.42679	0.87558	0.96483	0.095
Mof_H 	H 	0.4105	0.8657	0.9458	-0.036
Mof_C 	C 	0.44635	0.90413	0.01502	-0.029
Mof_H 	H 	0.447	0.9181	0.0381	0.028
Mof_C 	C 	0.47779	0.8898	0.99674	0.057
Mof_C 	C 	0.5165	0.8996	0.0117	0.174
Mof_H 	H 	0.5165	0.9148	0.0339	-0.036
Mof_C 	C 	0.5787	0.8515	0.9557	-0.229
Mof_H 	H 	0.5997	0.8503	0.9726	0.077
Mof_N 	N 	0.5506	0.8906	0.999	-0.064
Mof_N 	N 	0.5472	0.8698	0.9652	-0.069
Mof_C 	C 	0.58042	0.8327	0.9177	0.051
Mof_C 	C 	0.606	0.8096	0.898	-0.034
Mof_H 	H 	0.6321	0.8065	0.904	0.023
Mof_C 	C 	0.5503	0.80437	0.87175	0.096
Mof_H 	H 	0.5306	0.797	0.8549	-0.042
Mof_N 	N 	0.46501	0.871	0.96399	-0.232
Mof_N 	N 	0.41386	0.89542	0.99519	-0.266
Mof_N 	N 	0.54481	0.82826	0.90119	-0.235
Mof_N 	N 	0.58705	0.79177	0.86851	-0.267
Mof_Cu	Cu	0.49902	0.85991	0.91827	0.868
Mof_C 	C 	0.52	0.8871	0.9991	-0.214
Mof_H 	H 	0.5329	0.8939	0.0218	0.065
Mof_C 	C 	0.5951	0.8592	0.9478	0.192
Mof_H 	H 	0.6219	0.8618	0.9475	-0.045
Mof_N 	N 	0.539	0.8752	0.9692	0.001
Mof_N 	N 	0.5783	0.8796	0.9747	-0.064
Mof_Zn	Zn	0.35991	0.91827	0.00098	1.18
Mof_C 	C 	0.03517	0.07321	0.87558	0.095
Mof_H 	H 	0.0542	0.0895	0.8657	-0.036
Mof_C 	C 	0.98498	0.05365	0.90413	-0.029
Mof_H 	H 	0.9619	0.053	0.9181	0.028
Mof_C 	C 	0.00326	0.02221	0.8898	0.057
Mof_C 	C 	0.9883	0.9835	0.8996	0.174
Mof_H 	H 	0.9661	0.9835	0.9148	-0.036
Mof_C 	C 	0.0443	0.9213	0.8515	-0.229
Mof_H 	H 	0.0274	0.9003	0.8503	0.077
Mof_N 	N 	0.001	0.9494	0.8906	-0.064
Mof_N 	N 	0.0348	0.9528	0.8698	-0.069
Mof_C 	C 	0.0823	0.91958	0.8327	0.051
Mof_C 	C 	0.102	0.894	0.8096	-0.034
Mof_H 	H 	0.096	0.8679	0.8065	0.023
Mof_C 	C 	0.12825	0.9497	0.80437	0.096
Mof_H 	H 	0.1451	0.9694	0.797	-0.042
Mof_N 	N 	0.03601	0.03499	0.871	-0.232
Mof_N 	N 	0.00481	0.08614	0.89542	-0.266
Mof_N 	N 	0.09881	0.95519	0.82826	-0.235
Mof_N 	N 	0.13149	0.91295	0.79177	-0.267
Mof_Cu	Cu	0.08173	0.00098	0.85991	0.868
Mof_C 	C 	0.0009	0.98	0.8871	-0.214
Mof_H 	H 	0.9782	0.9671	0.8939	0.065
Mof_C 	C 	0.0522	0.9049	0.8592	0.192
Mof_H 	H 	0.0525	0.8781	0.8618	-0.045
Mof_N 	N 	0.0308	0.961	0.8752	0.001
Mof_N 	N 	0.0253	0.9217	0.8796	-0.064
Mof_Zn	Zn	0.99902	0.14009	0.91827	1.18
Mof_C 	C 	0.53517	0.57321	0.37558	0.095
Mof_H 	H 	0.5542	0.5895	0.3657	-0.036
Mof_C 	C 	0.48498	0.55365	0.40413	-0.029
Mof_H 	H 	0.4619	0.553	0.4181	0.028
Mof_C 	C 	0.50326	0.52221	0.3898	0.057
Mof_C 	C 	0.4883	0.4835	0.3996	0.174
Mof_H 	H 	0.4661	0.4835	0.4148	-0.036
Mof_C 	C 	0.5443	0.4213	0.3515	-0.229
Mof_H 	H 	0.5274	0.4003	0.3503	0.077
Mof_N 	N 	0.501	0.4494	0.3906	-0.064
Mof_N 	N 	0.5348	0.4528	0.3698	-0.069
Mof_C 	C 	0.5823	0.41958	0.3327	0.051
Mof_C 	C 	0.602	0.394	0.3096	-0.034
Mof_H 	H 	0.596	0.3679	0.3065	0.023
Mof_C 	C 	0.62825	0.4497	0.30437	0.096
Mof_H 	H 	0.6451	0.4694	0.297	-0.042
Mof_N 	N 	0.53601	0.53499	0.371	-0.232
Mof_N 	N 	0.50481	0.58614	0.39542	-0.266
Mof_N 	N 	0.59881	0.45519	0.32826	-0.235
Mof_N 	N 	0.63149	0.41295	0.29177	-0.267
Mof_Cu	Cu	0.58173	0.50098	0.35991	0.868
Mof_C 	C 	0.5009	0.48	0.3871	-0.214
Mof_H 	H 	0.4782	0.4671	0.3939	0.065
Mof_C 	C 	0.5522	0.4049	0.3592	0.192
Mof_H 	H 	0.5525	0.3781	0.3618	-0.045
Mof_N 	N 	0.5308	0.461	0.3752	0.001
Mof_N 	N 	0.5253	0.4217	0.3796	-0.064
Mof_Zn	Zn	0.49902	0.64009	0.41827	1.18
Mof_C 	C 	0.96483	0.57321	0.62442	0.095
Mof_H 	H 	0.9458	0.5895	0.6343	-0.036
Mof_C 	C 	0.01502	0.55365	0.59587	-0.029
Mof_H 	H 	0.0381	0.553	0.5819	0.028
Mof_C 	C 	0.99674	0.52221	0.6102	0.057
Mof_C 	C 	0.0117	0.4835	0.6004	0.174
Mof_H 	H 	0.0339	0.4835	0.5852	-0.036
Mof_C 	C 	0.9557	0.4213	0.6485	-0.229
Mof_H 	H 	0.9726	0.4003	0.6497	0.077
Mof_N 	N 	0.999	0.4494	0.6094	-0.064
Mof_N 	N 	0.9652	0.4528	0.6302	-0.069
Mof_C 	C 	0.9177	0.41958	0.6673	0.051
Mof_C 	C 	0.898	0.394	0.6904	-0.034
Mof_H 	H 	0.904	0.3679	0.6935	0.023
Mof_C 	C 	0.87175	0.4497	0.69563	0.096
Mof_H 	H 	0.8549	0.4694	0.703	-0.042
Mof_N 	N 	0.96399	0.53499	0.629	-0.232
Mof_N 	N 	0.99519	0.58614	0.60458	-0.266
Mof_N 	N 	0.90119	0.45519	0.67174	-0.235
Mof_N 	N 	0.86851	0.41295	0.70823	-0.267
Mof_Cu	Cu	0.91827	0.50098	0.64009	0.868
Mof_C 	C 	0.9991	0.48	0.6129	-0.214
Mof_H 	H 	0.0218	0.4671	0.6061	0.065
Mof_C 	C 	0.9478	0.4049	0.6408	0.192
Mof_H 	H 	0.9475	0.3781	0.6382	-0.045
Mof_N 	N 	0.9692	0.461	0.6248	0.001
Mof_N 	N 	0.9747	0.4217	0.6204	-0.064
Mof_Zn	Zn	0.00098	0.64009	0.58173	1.18
Mof_C 	C 	0.46483	0.07321	0.12442	0.095
Mof_H 	H 	0.4458	0.0895	0.1343	-0.036
Mof_C 	C 	0.51502	0.05365	0.09587	-0.029
Mof_H 	H 	0.5381	0.053	0.0819	0.028
Mof_C 	C 	0.49674	0.02221	0.1102	0.057
Mof_C 	C 	0.5117	0.9835	0.1004	0.174
Mof_H 	H 	0.5339	0.9835	0.0852	-0.036
Mof_C 	C 	0.4557	0.9213	0.1485	-0.229
Mof_H 	H 	0.4726	0.9003	0.1497	0.077
Mof_N 	N 	0.499	0.9494	0.1094	-0.064
Mof_N 	N 	0.4652	0.9528	0.1302	-0.069
Mof_C 	C 	0.4177	0.91958	0.1673	0.051
Mof_C 	C 	0.398	0.894	0.1904	-0.034
Mof_H 	H 	0.404	0.8679	0.1935	0.023
Mof_C 	C 	0.37175	0.9497	0.19563	0.096
Mof_H 	H 	0.3549	0.9694	0.203	-0.042
Mof_N 	N 	0.46399	0.03499	0.129	-0.232
Mof_N 	N 	0.49519	0.08614	0.10458	-0.266
Mof_N 	N 	0.40119	0.95519	0.17174	-0.235
Mof_N 	N 	0.36851	0.91295	0.20823	-0.267
Mof_Cu	Cu	0.41827	0.00098	0.14009	0.868
Mof_C 	C 	0.4991	0.98	0.1129	-0.214
Mof_H 	H 	0.5218	0.9671	0.1061	0.065
Mof_C 	C 	0.4478	0.9049	0.1408	0.192
Mof_H 	H 	0.4475	0.8781	0.1382	-0.045
Mof_N 	N 	0.4692	0.961	0.1248	0.001
Mof_N 	N 	0.4747	0.9217	0.1204	-0.064
Mof_Zn	Zn	0.50098	0.14009	0.08173	1.18
Mof_C 	C 	0.53517	0.42679	0.12442	0.095
Mof_H 	H 	0.5542	0.4105	0.1343	-0.036
Mof_C 	C 	0.48498	0.44635	0.09587	-0.029
Mof_H 	H 	0.4619	0.447	0.0819	0.028
Mof_C 	C 	0.50326	0.47779	0.1102	0.057
Mof_C 	C 	0.4883	0.5165	0.1004	0.174
Mof_H 	H 	0.4661	0.5165	0.0852	-0.036
Mof_C 	C 	0.5443	0.5787	0.1485	-0.229
Mof_H 	H 	0.5274	0.5997	0.1497	0.077
Mof_N 	N 	0.501	0.5506	0.1094	-0.064
Mof_N 	N 	0.5348	0.5472	0.1302	-0.069
Mof_C 	C 	0.5823	0.58042	0.1673	0.051
Mof_C 	C 	0.602	0.606	0.1904	-0.034
Mof_H 	H 	0.596	0.6321	0.1935	0.023
Mof_C 	C 	0.62825	0.5503	0.19563	0.096
Mof_H 	H 	0.6451	0.5306	0.203	-0.042
Mof_N 	N 	0.53601	0.46501	0.129	-0.232
Mof_N 	N 	0.50481	0.41386	0.10458	-0.266
Mof_N 	N 	0.59881	0.54481	0.17174	-0.235
Mof_N 	N 	0.63149	0.58705	0.20823	-0.267
Mof_Cu	Cu	0.58173	0.49902	0.14009	0.868
Mof_C 	C 	0.5009	0.52	0.1129	-0.214
Mof_H 	H 	0.4782	0.5329	0.1061	0.065
Mof_C 	C 	0.5522	0.5951	0.1408	0.192
Mof_H 	H 	0.5525	0.6219	0.1382	-0.045
Mof_N 	N 	0.5308	0.539	0.1248	0.001
Mof_N 	N 	0.5253	0.5783	0.1204	-0.064
Mof_Zn	Zn	0.49902	0.35991	0.08173	1.18
Mof_C 	C 	0.03517	0.92679	0.62442	0.095
Mof_H 	H 	0.0542	0.9105	0.6343	-0.036
Mof_C 	C 	0.98498	0.94635	0.59587	-0.029
Mof_H 	H 	0.9619	0.947	0.5819	0.028
Mof_C 	C 	0.00326	0.97779	0.6102	0.057
Mof_C 	C 	0.9883	0.0165	0.6004	0.174
Mof_H 	H 	0.9661	0.0165	0.5852	-0.036
Mof_C 	C 	0.0443	0.0787	0.6485	-0.229
Mof_H 	H 	0.0274	0.0997	0.6497	0.077
Mof_N 	N 	0.001	0.0506	0.6094	-0.064
Mof_N 	N 	0.0348	0.0472	0.6302	-0.069
Mof_C 	C 	0.0823	0.08042	0.6673	0.051
Mof_C 	C 	0.102	0.106	0.6904	-0.034
Mof_H 	H 	0.096	0.1321	0.6935	0.023
Mof_C 	C 	0.12825	0.0503	0.69563	0.096
Mof_H 	H 	0.1451	0.0306	0.703	-0.042
Mof_N 	N 	0.03601	0.96501	0.629	-0.232
Mof_N 	N 	0.00481	0.91386	0.60458	-0.266
Mof_N 	N 	0.09881	0.04481	0.67174	-0.235
Mof_N 	N 	0.13149	0.08705	0.70823	-0.267
Mof_Cu	Cu	0.08173	0.99902	0.64009	0.868
Mof_C 	C 	0.0009	0.02	0.6129	-0.214
Mof_H 	H 	0.9782	0.0329	0.6061	0.065
Mof_C 	C 	0.0522	0.0951	0.6408	0.192
Mof_H 	H 	0.0525	0.1219	0.6382	-0.045
Mof_N 	N 	0.0308	0.039	0.6248	0.001
Mof_N 	N 	0.0253	0.0783	0.6204	-0.064
Mof_Zn	Zn	0.99902	0.85991	0.58173	1.18
Mof_C 	C 	0.46483	0.92679	0.37558	0.095
Mof_H 	H 	0.4458	0.9105	0.3657	-0.036
Mof_C 	C 	0.51502	0.94635	0.40413	-0.029
Mof_H 	H 	0.5381	0.947	0.4181	0.028
Mof_C 	C 	0.49674	0.97779	0.3898	0.057
Mof_C 	C 	0.5117	0.0165	0.3996	0.174
Mof_H 	H 	0.5339	0.0165	0.4148	-0.036
Mof_C 	C 	0.4557	0.0787	0.3515	-0.229
Mof_H 	H 	0.4726	0.0997	0.3503	0.077
Mof_N 	N 	0.499	0.0506	0.3906	-0.064
Mof_N 	N 	0.4652	0.0472	0.3698	-0.069
Mof_C 	C 	0.4177	0.08042	0.3327	0.051
Mof_C 	C 	0.398	0.106	0.3096	-0.034
Mof_H 	H 	0.404	0.1321	0.3065	0.023
Mof_C 	C 	0.37175	0.0503	0.30437	0.096
Mof_H 	H 	0.3549	0.0306	0.297	-0.042
Mof_N 	N 	0.46399	0.96501	0.371	-0.232
Mof_N 	N 	0.49519	0.91386	0.39542	-0.266
Mof_N 	N 	0.40119	0.04481	0.32826	-0.235
Mof_N 	N 	0.36851	0.08705	0.29177	-0.267
Mof_Cu	Cu	0.41827	0.99902	0.35991	0.868
Mof_C 	C 	0.4991	0.02	0.3871	-0.214
Mof_H 	H 	0.5218	0.0329	0.3939	0.065
Mof_C 	C 	0.4478	0.0951	0.3592	0.192
Mof_H 	H 	0.4475	0.1219	0.3618	-0.045
Mof_N 	N 	0.4692	0.039	0.3752	0.001
Mof_N 	N 	0.4747	0.0783	0.3796	-0.064
Mof_Zn	Zn	0.50098	0.85991	0.41827	1.18
Mof_C 	C 	0.96483	0.42679	0.87558	0.095
Mof_H 	H 	0.9458	0.4105	0.8657	-0.036
Mof_C 	C 	0.01502	0.44635	0.90413	-0.029
Mof_H 	H 	0.0381	0.447	0.9181	0.028
Mof_C 	C 	0.99674	0.47779	0.8898	0.057
Mof_C 	C 	0.0117	0.5165	0.8996	0.174
Mof_H 	H 	0.0339	0.5165	0.9148	-0.036
Mof_C 	C 	0.9557	0.5787	0.8515	-0.229
Mof_H 	H 	0.9726	0.5997	0.8503	0.077
Mof_N 	N 	0.999	0.5506	0.8906	-0.064
Mof_N 	N 	0.9652	0.5472	0.8698	-0.069
Mof_C 	C 	0.9177	0.58042	0.8327	0.051
Mof_C 	C 	0.898	0.606	0.8096	-0.034
Mof_H 	H 	0.904	0.6321	0.8065	0.023
Mof_C 	C 	0.87175	0.5503	0.80437	0.096
Mof_H 	H 	0.8549	0.5306	0.797	-0.042
Mof_N 	N 	0.96399	0.46501	0.871	-0.232
Mof_N 	N 	0.99519	0.41386	0.89542	-0.266
Mof_N 	N 	0.90119	0.54481	0.82826	-0.235
Mof_N 	N 	0.86851	0.58705	0.79177	-0.267
Mof_Cu	Cu	0.91827	0.49902	0.85991	0.868
Mof_C 	C 	0.9991	0.52	0.8871	-0.214
Mof_H 	H 	0.0218	0.5329	0.8939	0.065
Mof_C 	C 	0.9478	0.5951	0.8592	0.192
Mof_H 	H 	0.9475	0.6219	0.8618	-0.045
Mof_N 	N 	0.9692	0.539	0.8752	0.001
Mof_N 	N 	0.9747	0.5783	0.8796	-0.064
Mof_Zn	Zn	0.00098	0.35991	0.91827	1.18
Mof_C 	C 	0.78517	0.12558	0.17679	0.095
Mof_H 	H 	0.8042	0.1157	0.1605	-0.036
Mof_C 	C 	0.73498	0.15413	0.19635	-0.029
Mof_H 	H 	0.7119	0.1681	0.197	0.028
Mof_C 	C 	0.75326	0.1398	0.22779	0.057
Mof_C 	C 	0.7383	0.1496	0.2665	0.174
Mof_H 	H 	0.7161	0.1648	0.2665	-0.036
Mof_C 	C 	0.7943	0.1015	0.3287	-0.229
Mof_H 	H 	0.7774	0.1003	0.3497	0.077
Mof_N 	N 	0.751	0.1406	0.3006	-0.064
Mof_N 	N 	0.7848	0.1198	0.2972	-0.069
Mof_C 	C 	0.8323	0.0827	0.33042	0.051
Mof_C 	C 	0.852	0.0596	0.356	-0.034
Mof_H 	H 	0.846	0.0565	0.3821	0.023
Mof_C 	C 	0.87825	0.05437	0.3003	0.096
Mof_H 	H 	0.8951	0.047	0.2806	-0.042
Mof_N 	N 	0.78601	0.121	0.21501	-0.232
Mof_N 	N 	0.75481	0.14542	0.16386	-0.266
Mof_N 	N 	0.84881	0.07826	0.29481	-0.235
Mof_N 	N 	0.88149	0.04177	0.33705	-0.267
Mof_Cu	Cu	0.83173	0.10991	0.24902	0.868
Mof_C 	C 	0.7509	0.1371	0.27	-0.214
Mof_H 	H 	0.7282	0.1439	0.2829	0.065
Mof_C 	C 	0.8022	0.1092	0.3451	0.192
Mof_H 	H 	0.8025	0.1118	0.3719	-0.045
Mof_N 	N 	0.7808	0.1252	0.289	0.001
Mof_N 	N 	0.7753	0.1296	0.3283	-0.064
Mof_Zn	Zn	0.74902	0.16827	0.10991	1.18
Mof_C 	C 	0.28517	0.62558	0.67679	0.095
Mof_H 	H 	0.3042	0.6157	0.6605	-0.036
Mof_C 	C 	0.23498	0.65413	0.69635	-0.029
Mof_H 	H 	0.2119	0.6681	0.697	0.028
Mof_C 	C 	0.25326	0.6398	0.72779	0.057
Mof_C 	C 	0.2383	0.6496	0.7665	0.174
Mof_H 	H 	0.2161	0.6648	0.7665	-0.036
Mof_C 	C 	0.2943	0.6015	0.8287	-0.229
Mof_H 	H 	0.2774	0.6003	0.8497	0.077
Mof_N 	N 	0.251	0.6406	0.8006	-0.064
Mof_N 	N 	0.2848	0.6198	0.7972	-0.069
Mof_C 	C 	0.3323	0.5827	0.83042	0.051
Mof_C 	C 	0.352	0.5596	0.856	-0.034
Mof_H 	H 	0.346	0.5565	0.8821	0.023
Mof_C 	C 	0.37825	0.55437	0.8003	0.096
Mof_H 	H 	0.3951	0.547	0.7806	-0.042
Mof_N 	N 	0.28601	0.621	0.71501	-0.232
Mof_N 	N 	0.25481	0.64542	0.66386	-0.266
Mof_N 	N 	0.34881	0.57826	0.79481	-0.235
Mof_N 	N 	0.38149	0.54177	0.83705	-0.267
Mof_Cu	Cu	0.33173	0.60991	0.74902	0.868
Mof_C 	C 	0.2509	0.6371	0.77	-0.214
Mof_H 	H 	0.2282	0.6439	0.7829	0.065
Mof_C 	C 	0.3022	0.6092	0.8451	0.192
Mof_H 	H 	0.3025	0.6118	0.8719	-0.045
Mof_N 	N 	0.2808	0.6252	0.789	0.001
Mof_N 	N 	0.2753	0.6296	0.8283	-0.064
Mof_Zn	Zn	0.24902	0.66827	0.60991	1.18
Mof_C 	C 	0.71483	0.87442	0.67679	0.095
Mof_H 	H 	0.6958	0.8843	0.6605	-0.036
Mof_C 	C 	0.76502	0.84587	0.69635	-0.029
Mof_H 	H 	0.7881	0.8319	0.697	0.028
Mof_C 	C 	0.74674	0.8602	0.72779	0.057
Mof_C 	C 	0.7617	0.8504	0.7665	0.174
Mof_H 	H 	0.7839	0.8352	0.7665	-0.036
Mof_C 	C 	0.7057	0.8985	0.8287	-0.229
Mof_H 	H 	0.7226	0.8997	0.8497	0.077
Mof_N 	N 	0.749	0.8594	0.8006	-0.064
Mof_N 	N 	0.7152	0.8802	0.7972	-0.069
Mof_C 	C 	0.6677	0.9173	0.83042	0.051
Mof_C 	C 	0.648	0.9404	0.856	-0.034
Mof_H 	H 	0.654	0.9435	0.8821	0.023
Mof_C 	C 	0.62175	0.94563	0.8003	0.096
Mof_H 	H 	0.6049	0.953	0.7806	-0.042
Mof_N 	N 	0.71399	0.879	0.71501	-0.232
Mof_N 	N 	0.74519	0.85458	0.66386	-0.266
Mof_N 	N 	0.65119	0.92174	0.79481	-0.235
Mof_N 	N 	0.61851	0.95823	0.83705	-0.267
Mof_Cu	Cu	0.66827	0.89009	0.74902	0.868
Mof_C 	C 	0.7491	0.8629	0.77	-0.214
Mof_H 	H 	0.7718	0.8561	0.7829	0.065
Mof_C 	C 	0.6978	0.8908	0.8451	0.192
Mof_H 	H 	0.6975	0.8882	0.8719	-0.045
Mof_N 	N 	0.7192	0.8748	0.789	0.001
Mof_N 	N 	0.7247	0.8704	0.8283	-0.064
Mof_Zn	Zn	0.75098	0.83173	0.60991	1.18
Mof_C 	C 	0.21483	0.37442	0.17679	0.095
Mof_H 	H 	0.1958	0.3843	0.1605	-0.036
Mof_C 	C 	0.26502	0.34587	0.19635	-0.029
Mof_H 	H 	0.2881	0.3319	0.197	0.028
Mof_C 	C 	0.24674	0.3602	0.22779	0.057
Mof_C 	C 	0.2617	0.3504	0.2665	0.174
Mof_H 	H 	0.2839	0.3352	0.2665	-0.036
Mof_C 	C 	0.2057	0.3985	0.3287	-0.229
Mof_H 	H 	0.2226	0.3997	0.3497	0.077
Mof_N 	N 	0.249	0.3594	0.3006	-0.064
Mof_N 	N 	0.2152	0.3802	0.2972	-0.069
Mof_C 	C 	0.1677	0.4173	0.33042	0.051
Mof_C 	C 	0.148	0.4404	0.356	-0.034
Mof_H 	H 	0.154	0.4435	0.3821	0.023
Mof_C 	C 	0.12175	0.44563	0.3003	0.096
Mof_H 	H 	0.1049	0.453	0.2806	-0.042
Mof_N 	N 	0.21399	0.379	0.21501	-0.232
Mof_N 	N 	0.24519	0.35458	0.16386	-0.266
Mof_N 	N 	0.15119	0.42174	0.29481	-0.235
Mof_N 	N 	0.11851	0.45823	0.33705	-0.267
Mof_Cu	Cu	0.16827	0.39009	0.24902	0.868
Mof_C 	C 	0.2491	0.3629	0.27	-0.214
Mof_H 	H 	0.2718	0.3561	0.2829	0.065
Mof_C 	C 	0.1978	0.3908	0.3451	0.192
Mof_H 	H 	0.1975	0.3882	0.3719	-0.045
Mof_N 	N 	0.2192	0.3748	0.289	0.001
Mof_N 	N 	0.2247	0.3704	0.3283	-0.064
Mof_Zn	Zn	0.25098	0.33173	0.10991	1.18
Mof_C 	C 	0.28517	0.37442	0.82321	0.095
Mof_H 	H 	0.3042	0.3843	0.8395	-0.036
Mof_C 	C 	0.23498	0.34587	0.80365	-0.029
Mof_H 	H 	0.2119	0.3319	0.803	0.028
Mof_C 	C 	0.25326	0.3602	0.77221	0.057
Mof_C 	C 	0.2383	0.3504	0.7335	0.174
Mof_H 	H 	0.2161	0.3352	0.7335	-0.036
Mof_C 	C 	0.2943	0.3985	0.6713	-0.229
Mof_H 	H 	0.2774	0.3997	0.6503	0.077
Mof_N 	N 	0.251	0.3594	0.6994	-0.064
Mof_N 	N 	0.2848	0.3802	0.7028	-0.069
Mof_C 	C 	0.3323	0.4173	0.66958	0.051
Mof_C 	C 	0.352	0.4404	0.644	-0.034
Mof_H 	H 	0.346	0.4435	0.6179	0.023
Mof_C 	C 	0.37825	0.44563	0.6997	0.096
Mof_H 	H 	0.3951	0.453	0.7194	-0.042
Mof_N 	N 	0.28601	0.379	0.78499	-0.232
Mof_N 	N 	0.25481	0.35458	0.83614	-0.266
Mof_N 	N 	0.34881	0.42174	0.70519	-0.235
Mof_N 	N 	0.38149	0.45823	0.66295	-0.267
Mof_Cu	Cu	0.33173	0.39009	0.75098	0.868
Mof_C 	C 	0.2509	0.3629	0.73	-0.214
Mof_H 	H 	0.2282	0.3561	0.7171	0.065
Mof_C 	C 	0.3022	0.3908	0.6549	0.192
Mof_H 	H 	0.3025	0.3882	0.6281	-0.045
Mof_N 	N 	0.2808	0.3748	0.711	0.001
Mof_N 	N 	0.2753	0.3704	0.6717	-0.064
Mof_Zn	Zn	0.24902	0.33173	0.89009	1.18
Mof_C 	C 	0.78517	0.87442	0.32321	0.095
Mof_H 	H 	0.8042	0.8843	0.3395	-0.036
Mof_C 	C 	0.73498	0.84587	0.30365	-0.029
Mof_H 	H 	0.7119	0.8319	0.303	0.028
Mof_C 	C 	0.75326	0.8602	0.27221	0.057
Mof_C 	C 	0.7383	0.8504	0.2335	0.174
Mof_H 	H 	0.7161	0.8352	0.2335	-0.036
Mof_C 	C 	0.7943	0.8985	0.1713	-0.229
Mof_H 	H 	0.7774	0.8997	0.1503	0.077
Mof_N 	N 	0.751	0.8594	0.1994	-0.064
Mof_N 	N 	0.7848	0.8802	0.2028	-0.069
Mof_C 	C 	0.8323	0.9173	0.16958	0.051
Mof_C 	C 	0.852	0.9404	0.144	-0.034
Mof_H 	H 	0.846	0.9435	0.1179	0.023
Mof_C 	C 	0.87825	0.94563	0.1997	0.096
Mof_H 	H 	0.8951	0.953	0.2194	-0.042
Mof_N 	N 	0.78601	0.879	0.28499	-0.232
Mof_N 	N 	0.75481	0.85458	0.33614	-0.266
Mof_N 	N 	0.84881	0.92174	0.20519	-0.235
Mof_N 	N 	0.88149	0.95823	0.16295	-0.267
Mof_Cu	Cu	0.83173	0.89009	0.25098	0.868
Mof_C 	C 	0.7509	0.8629	0.23	-0.214
Mof_H 	H 	0.7282	0.8561	0.2171	0.065
Mof_C 	C 	0.8022	0.8908	0.1549	0.192
Mof_H 	H 	0.8025	0.8882	0.1281	-0.045
Mof_N 	N 	0.7808	0.8748	0.211	0.001
Mof_N 	N 	0.7753	0.8704	0.1717	-0.064
Mof_Zn	Zn	0.74902	0.83173	0.39009	1.18
Mof_C 	C 	0.21483	0.62558	0.32321	0.095
Mof_H 	H 	0.1958	0.6157	0.3395	-0.036
Mof_C 	C 	0.26502	0.65413	0.30365	-0.029
Mof_H 	H 	0.2881	0.6681	0.303	0.028
Mof_C 	C 	0.24674	0.6398	0.27221	0.057
Mof_C 	C 	0.2617	0.6496	0.2335	0.174
Mof_H 	H 	0.2839	0.6648	0.2335	-0.036
Mof_C 	C 	0.2057	0.6015	0.1713	-0.229
Mof_H 	H 	0.2226	0.6003	0.1503	0.077
Mof_N 	N 	0.249	0.6406	0.1994	-0.064
Mof_N 	N 	0.2152	0.6198	0.2028	-0.069
Mof_C 	C 	0.1677	0.5827	0.16958	0.051
Mof_C 	C 	0.148	0.5596	0.144	-0.034
Mof_H 	H 	0.154	0.5565	0.1179	0.023
Mof_C 	C 	0.12175	0.55437	0.1997	0.096
Mof_H 	H 	0.1049	0.547	0.2194	-0.042
Mof_N 	N 	0.21399	0.621	0.28499	-0.232
Mof_N 	N 	0.24519	0.64542	0.33614	-0.266
Mof_N 	N 	0.15119	0.57826	0.20519	-0.235
Mof_N 	N 	0.11851	0.54177	0.16295	-0.267
Mof_Cu	Cu	0.16827	0.60991	0.25098	0.868
Mof_C 	C 	0.2491	0.6371	0.23	-0.214
Mof_H 	H 	0.2718	0.6439	0.2171	0.065
Mof_C 	C 	0.1978	0.6092	0.1549	0.192
Mof_H 	H 	0.1975	0.6118	0.1281	-0.045
Mof_N 	N 	0.2192	0.6252	0.211	0.001
Mof_N 	N 	0.2247	0.6296	0.1717	-0.064
Mof_Zn	Zn	0.25098	0.66827	0.39009	1.18
Mof_C 	C 	0.71483	0.12558	0.82321	0.095
Mof_H 	H 	0.6958	0.1157	0.8395	-0.036
Mof_C 	C 	0.76502	0.15413	0.80365	-0.029
Mof_H 	H 	0.7881	0.1681	0.803	0.028
Mof_C 	C 	0.74674	0.1398	0.77221	0.057
Mof_C 	C 	0.7617	0.1496	0.7335	0.174
Mof_H 	H 	0.7839	0.1648	0.7335	-0.036
Mof_C 	C 	0.7057	0.1015	0.6713	-0.229
Mof_H 	H 	0.7226	0.1003	0.6503	0.077
Mof_N 	N 	0.749	0.1406	0.6994	-0.064
Mof_N 	N 	0.7152	0.1198	0.7028	-0.069
Mof_C 	C 	0.6677	0.0827	0.66958	0.051
Mof_C 	C 	0.648	0.0596	0.644	-0.034
Mof_H 	H 	0.654	0.0565	0.6179	0.023
Mof_C 	C 	0.62175	0.05437	0.6997	0.096
Mof_H 	H 	0.6049	0.047	0.7194	-0.042
Mof_N 	N 	0.71399	0.121	0.78499	-0.232
Mof_N 	N 	0.74519	0.14542	0.83614	-0.266
Mof_N 	N 	0.65119	0.07826	0.70519	-0.235
Mof_N 	N 	0.61851	0.04177	0.66295	-0.267
Mof_Cu	Cu	0.66827	0.10991	0.75098	0.868
Mof_C 	C 	0.7491	0.1371	0.73	-0.214
Mof_H 	H 	0.7718	0.1439	0.7171	0.065
Mof_C 	C 	0.6978	0.1092	0.6549	0.192
Mof_H 	H 	0.6975	0.1118	0.6281	-0.045
Mof_N 	N 	0.7192	0.1252	0.711	0.001
Mof_N 	N 	0.7247	0.1296	0.6717	-0.064
Mof_Zn	Zn	0.75098	0.16827	0.89009	1.18
Mof_C 	C 	0.62558	0.32321	0.21483	0.095
Mof_H 	H 	0.6157	0.3395	0.1958	-0.036
Mof_C 	C 	0.65413	0.30365	0.26502	-0.029
Mof_H 	H 	0.6681	0.303	0.2881	0.028
Mof_C 	C 	0.6398	0.27221	0.24674	0.057
Mof_C 	C 	0.6496	0.2335	0.2617	0.174
Mof_H 	H 	0.6648	0.2335	0.2839	-0.036
Mof_C 	C 	0.6015	0.1713	0.2057	-0.229
Mof_H 	H 	0.6003	0.1503	0.2226	0.077
Mof_N 	N 	0.6406	0.1994	0.249	-0.064
Mof_N 	N 	0.6198	0.2028	0.2152	-0.069
Mof_C 	C 	0.5827	0.16958	0.1677	0.051
Mof_C 	C 	0.5596	0.144	0.148	-0.034
Mof_H 	H 	0.5565	0.1179	0.154	0.023
Mof_C 	C 	0.55437	0.1997	0.12175	0.096
Mof_H 	H 	0.547	0.2194	0.1049	-0.042
Mof_N 	N 	0.621	0.28499	0.21399	-0.232
Mof_N 	N 	0.64542	0.33614	0.24519	-0.266
Mof_N 	N 	0.57826	0.20519	0.15119	-0.235
Mof_N 	N 	0.54177	0.16295	0.11851	-0.267
Mof_Cu	Cu	0.60991	0.25098	0.16827	0.868
Mof_C 	C 	0.6371	0.23	0.2491	-0.214
Mof_H 	H 	0.6439	0.2171	0.2718	0.065
Mof_C 	C 	0.6092	0.1549	0.1978	0.192
Mof_H 	H 	0.6118	0.1281	0.1975	-0.045
Mof_N 	N 	0.6252	0.211	0.2192	0.001
Mof_N 	N 	0.6296	0.1717	0.2247	-0.064
Mof_Zn	Zn	0.66827	0.39009	0.25098	1.18
Mof_C 	C 	0.12558	0.82321	0.71483	0.095
Mof_H 	H 	0.1157	0.8395	0.6958	-0.036
Mof_C 	C 	0.15413	0.80365	0.76502	-0.029
Mof_H 	H 	0.1681	0.803	0.7881	0.028
Mof_C 	C 	0.1398	0.77221	0.74674	0.057
Mof_C 	C 	0.1496	0.7335	0.7617	0.174
Mof_H 	H 	0.1648	0.7335	0.7839	-0.036
Mof_C 	C 	0.1015	0.6713	0.7057	-0.229
Mof_H 	H 	0.1003	0.6503	0.7226	0.077
Mof_N 	N 	0.1406	0.6994	0.749	-0.064
Mof_N 	N 	0.1198	0.7028	0.7152	-0.069
Mof_C 	C 	0.0827	0.66958	0.6677	0.051
Mof_C 	C 	0.0596	0.644	0.648	-0.034
Mof_H 	H 	0.0565	0.6179	0.654	0.023
Mof_C 	C 	0.05437	0.6997	0.62175	0.096
Mof_H 	H 	0.047	0.7194	0.6049	-0.042
Mof_N 	N 	0.121	0.78499	0.71399	-0.232
Mof_N 	N 	0.14542	0.83614	0.74519	-0.266
Mof_N 	N 	0.07826	0.70519	0.65119	-0.235
Mof_N 	N 	0.04177	0.66295	0.61851	-0.267
Mof_Cu	Cu	0.10991	0.75098	0.66827	0.868
Mof_C 	C 	0.1371	0.73	0.7491	-0.214
Mof_H 	H 	0.1439	0.7171	0.7718	0.065
Mof_C 	C 	0.1092	0.6549	0.6978	0.192
Mof_H 	H 	0.1118	0.6281	0.6975	-0.045
Mof_N 	N 	0.1252	0.711	0.7192	0.001
Mof_N 	N 	0.1296	0.6717	0.7247	-0.064
Mof_Zn	Zn	0.16827	0.89009	0.75098	1.18
Mof_C 	C 	0.37442	0.82321	0.28517	0.095
Mof_H 	H 	0.3843	0.8395	0.3042	-0.036
Mof_C 	C 	0.34587	0.80365	0.23498	-0.029
Mof_H 	H 	0.3319	0.803	0.2119	0.028
Mof_C 	C 	0.3602	0.77221	0.25326	0.057
Mof_C 	C 	0.3504	0.7335	0.2383	0.174
Mof_H 	H 	0.3352	0.7335	0.2161	-0.036
Mof_C 	C 	0.3985	0.6713	0.2943	-0.229
Mof_H 	H 	0.3997	0.6503	0.2774	0.077
Mof_N 	N 	0.3594	0.6994	0.251	-0.064
Mof_N 	N 	0.3802	0.7028	0.2848	-0.069
Mof_C 	C 	0.4173	0.66958	0.3323	0.051
Mof_C 	C 	0.4404	0.644	0.352	-0.034
Mof_H 	H 	0.4435	0.6179	0.346	0.023
Mof_C 	C 	0.44563	0.6997	0.37825	0.096
Mof_H 	H 	0.453	0.7194	0.3951	-0.042
Mof_N 	N 	0.379	0.78499	0.28601	-0.232
Mof_N 	N 	0.35458	0.83614	0.25481	-0.266
Mof_N 	N 	0.42174	0.70519	0.34881	-0.235
Mof_N 	N 	0.45823	0.66295	0.38149	-0.267
Mof_Cu	Cu	0.39009	0.75098	0.33173	0.868
Mof_C 	C 	0.3629	0.73	0.2509	-0.214
Mof_H 	H 	0.3561	0.7171	0.2282	0.065
Mof_C 	C 	0.3908	0.6549	0.3022	0.192
Mof_H 	H 	0.3882	0.6281	0.3025	-0.045
Mof_N 	N 	0.3748	0.711	0.2808	0.001
Mof_N 	N 	0.3704	0.6717	0.2753	-0.064
Mof_Zn	Zn	0.33173	0.89009	0.24902	1.18
Mof_C 	C 	0.87442	0.32321	0.78517	0.095
Mof_H 	H 	0.8843	0.3395	0.8042	-0.036
Mof_C 	C 	0.84587	0.30365	0.73498	-0.029
Mof_H 	H 	0.8319	0.303	0.7119	0.028
Mof_C 	C 	0.8602	0.27221	0.75326	0.057
Mof_C 	C 	0.8504	0.2335	0.7383	0.174
Mof_H 	H 	0.8352	0.2335	0.7161	-0.036
Mof_C 	C 	0.8985	0.1713	0.7943	-0.229
Mof_H 	H 	0.8997	0.1503	0.7774	0.077
Mof_N 	N 	0.8594	0.1994	0.751	-0.064
Mof_N 	N 	0.8802	0.2028	0.7848	-0.069
Mof_C 	C 	0.9173	0.16958	0.8323	0.051
Mof_C 	C 	0.9404	0.144	0.852	-0.034
Mof_H 	H 	0.9435	0.1179	0.846	0.023
Mof_C 	C 	0.94563	0.1997	0.87825	0.096
Mof_H 	H 	0.953	0.2194	0.8951	-0.042
Mof_N 	N 	0.879	0.28499	0.78601	-0.232
Mof_N 	N 	0.85458	0.33614	0.75481	-0.266
Mof_N 	N 	0.92174	0.20519	0.84881	-0.235
Mof_N 	N 	0.95823	0.16295	0.88149	-0.267
Mof_Cu	Cu	0.89009	0.25098	0.83173	0.868
Mof_C 	C 	0.8629	0.23	0.7509	-0.214
Mof_H 	H 	0.8561	0.2171	0.7282	0.065
Mof_C 	C 	0.8908	0.1549	0.8022	0.192
Mof_H 	H 	0.8882	0.1281	0.8025	-0.045
Mof_N 	N 	0.8748	0.211	0.7808	0.001
Mof_N 	N 	0.8704	0.1717	0.7753	-0.064
Mof_Zn	Zn	0.83173	0.39009	0.74902	1.18
Mof_C 	C 	0.87442	0.67679	0.71483	0.095
Mof_H 	H 	0.8843	0.6605	0.6958	-0.036
Mof_C 	C 	0.84587	0.69635	0.76502	-0.029
Mof_H 	H 	0.8319	0.697	0.7881	0.028
Mof_C 	C 	0.8602	0.72779	0.74674	0.057
Mof_C 	C 	0.8504	0.7665	0.7617	0.174
Mof_H 	H 	0.8352	0.7665	0.7839	-0.036
Mof_C 	C 	0.8985	0.8287	0.7057	-0.229
Mof_H 	H 	0.8997	0.8497	0.7226	0.077
Mof_N 	N 	0.8594	0.8006	0.749	-0.064
Mof_N 	N 	0.8802	0.7972	0.7152	-0.069
Mof_C 	C 	0.9173	0.83042	0.6677	0.051
Mof_C 	C 	0.9404	0.856	0.648	-0.034
Mof_H 	H 	0.9435	0.8821	0.654	0.023
Mof_C 	C 	0.94563	0.8003	0.62175	0.096
Mof_H 	H 	0.953	0.7806	0.6049	-0.042
Mof_N 	N 	0.879	0.71501	0.71399	-0.232
Mof_N 	N 	0.85458	0.66386	0.74519	-0.266
Mof_N 	N 	0.92174	0.79481	0.65119	-0.235
Mof_N 	N 	0.95823	0.83705	0.61851	-0.267
Mof_Cu	Cu	0.89009	0.74902	0.66827	0.868
Mof_C 	C 	0.8629	0.77	0.7491	-0.214
Mof_H 	H 	0.8561	0.7829	0.7718	0.065
Mof_C 	C 	0.8908	0.8451	0.6978	0.192
Mof_H 	H 	0.8882	0.8719	0.6975	-0.045
Mof_N 	N 	0.8748	0.789	0.7192	0.001
Mof_N 	N 	0.8704	0.8283	0.7247	-0.064
Mof_Zn	Zn	0.83173	0.60991	0.75098	1.18
Mof_C 	C 	0.37442	0.17679	0.21483	0.095
Mof_H 	H 	0.3843	0.1605	0.1958	-0.036
Mof_C 	C 	0.34587	0.19635	0.26502	-0.029
Mof_H 	H 	0.3319	0.197	0.2881	0.028
Mof_C 	C 	0.3602	0.22779	0.24674	0.057
Mof_C 	C 	0.3504	0.2665	0.2617	0.174
Mof_H 	H 	0.3352	0.2665	0.2839	-0.036
Mof_C 	C 	0.3985	0.3287	0.2057	-0.229
Mof_H 	H 	0.3997	0.3497	0.2226	0.077
Mof_N 	N 	0.3594	0.3006	0.249	-0.064
Mof_N 	N 	0.3802	0.2972	0.2152	-0.069
Mof_C 	C 	0.4173	0.33042	0.1677	0.051
Mof_C 	C 	0.4404	0.356	0.148	-0.034
Mof_H 	H 	0.4435	0.3821	0.154	0.023
Mof_C 	C 	0.44563	0.3003	0.12175	0.096
Mof_H 	H 	0.453	0.2806	0.1049	-0.042
Mof_N 	N 	0.379	0.21501	0.21399	-0.232
Mof_N 	N 	0.35458	0.16386	0.24519	-0.266
Mof_N 	N 	0.42174	0.29481	0.15119	-0.235
Mof_N 	N 	0.45823	0.33705	0.11851	-0.267
Mof_Cu	Cu	0.39009	0.24902	0.16827	0.868
Mof_C 	C 	0.3629	0.27	0.2491	-0.214
Mof_H 	H 	0.3561	0.2829	0.2718	0.065
Mof_C 	C 	0.3908	0.3451	0.1978	0.192
Mof_H 	H 	0.3882	0.3719	0.1975	-0.045
Mof_N 	N 	0.3748	0.289	0.2192	0.001
Mof_N 	N 	0.3704	0.3283	0.2247	-0.064
Mof_Zn	Zn	0.33173	0.10991	0.25098	1.18
Mof_C 	C 	0.12558	0.17679	0.78517	0.095
Mof_H 	H 	0.1157	0.1605	0.8042	-0.036
Mof_C 	C 	0.15413	0.19635	0.73498	-0.029
Mof_H 	H 	0.1681	0.197	0.7119	0.028
Mof_C 	C 	0.1398	0.22779	0.75326	0.057
Mof_C 	C 	0.1496	0.2665	0.7383	0.174
Mof_H 	H 	0.1648	0.2665	0.7161	-0.036
Mof_C 	C 	0.1015	0.3287	0.7943	-0.229
Mof_H 	H 	0.1003	0.3497	0.7774	0.077
Mof_N 	N 	0.1406	0.3006	0.751	-0.064
Mof_N 	N 	0.1198	0.2972	0.7848	-0.069
Mof_C 	C 	0.0827	0.33042	0.8323	0.051
Mof_C 	C 	0.0596	0.356	0.852	-0.034
Mof_H 	H 	0.0565	0.3821	0.846	0.023
Mof_C 	C 	0.05437	0.3003	0.87825	0.096
Mof_H 	H 	0.047	0.2806	0.8951	-0.042
Mof_N 	N 	0.121	0.21501	0.78601	-0.232
Mof_N 	N 	0.14542	0.16386	0.75481	-0.266
Mof_N 	N 	0.07826	0.29481	0.84881	-0.235
Mof_N 	N 	0.04177	0.33705	0.88149	-0.267
Mof_Cu	Cu	0.10991	0.24902	0.83173	0.868
Mof_C 	C 	0.1371	0.27	0.7509	-0.214
Mof_H 	H 	0.1439	0.2829	0.7282	0.065
Mof_C 	C 	0.1092	0.3451	0.8022	0.192
Mof_H 	H 	0.1118	0.3719	0.8025	-0.045
Mof_N 	N 	0.1252	0.289	0.7808	0.001
Mof_N 	N 	0.1296	0.3283	0.7753	-0.064
Mof_Zn	Zn	0.16827	0.10991	0.74902	1.18
Mof_C 	C 	0.62558	0.67679	0.28517	0.095
Mof_H 	H 	0.6157	0.6605	0.3042	-0.036
Mof_C 	C 	0.65413	0.69635	0.23498	-0.029
Mof_H 	H 	0.6681	0.697	0.2119	0.028
Mof_C 	C 	0.6398	0.72779	0.25326	0.057
Mof_C 	C 	0.6496	0.7665	0.2383	0.174
Mof_H 	H 	0.6648	0.7665	0.2161	-0.036
Mof_C 	C 	0.6015	0.8287	0.2943	-0.229
Mof_H 	H 	0.6003	0.8497	0.2774	0.077
Mof_N 	N 	0.6406	0.8006	0.251	-0.064
Mof_N 	N 	0.6198	0.7972	0.2848	-0.069
Mof_C 	C 	0.5827	0.83042	0.3323	0.051
Mof_C 	C 	0.5596	0.856	0.352	-0.034
Mof_H 	H 	0.5565	0.8821	0.346	0.023
Mof_C 	C 	0.55437	0.8003	0.37825	0.096
Mof_H 	H 	0.547	0.7806	0.3951	-0.042
Mof_N 	N 	0.621	0.71501	0.28601	-0.232
Mof_N 	N 	0.64542	0.66386	0.25481	-0.266
Mof_N 	N 	0.57826	0.79481	0.34881	-0.235
Mof_N 	N 	0.54177	0.83705	0.38149	-0.267
Mof_Cu	Cu	0.60991	0.74902	0.33173	0.868
Mof_C 	C 	0.6371	0.77	0.2509	-0.214
Mof_H 	H 	0.6439	0.7829	0.2282	0.065
Mof_C 	C 	0.6092	0.8451	0.3022	0.192
Mof_H 	H 	0.6118	0.8719	0.3025	-0.045
Mof_N 	N 	0.6252	0.789	0.2808	0.001
Mof_N 	N 	0.6296	0.8283	0.2753	-0.064
Mof_Zn	Zn	0.66827	0.60991	0.24902	1.18
Mof_C 	C 	0.82321	0.28517	0.37442	0.095
Mof_H 	H 	0.8395	0.3042	0.3843	-0.036
Mof_C 	C 	0.80365	0.23498	0.34587	-0.029
Mof_H 	H 	0.803	0.2119	0.3319	0.028
Mof_C 	C 	0.77221	0.25326	0.3602	0.057
Mof_C 	C 	0.7335	0.2383	0.3504	0.174
Mof_H 	H 	0.7335	0.2161	0.3352	-0.036
Mof_C 	C 	0.6713	0.2943	0.3985	-0.229
Mof_H 	H 	0.6503	0.2774	0.3997	0.077
Mof_N 	N 	0.6994	0.251	0.3594	-0.064
Mof_N 	N 	0.7028	0.2848	0.3802	-0.069
Mof_C 	C 	0.66958	0.3323	0.4173	0.051
Mof_C 	C 	0.644	0.352	0.4404	-0.034
Mof_H 	H 	0.6179	0.346	0.4435	0.023
Mof_C 	C 	0.6997	0.37825	0.44563	0.096
Mof_H 	H 	0.7194	0.3951	0.453	-0.042
Mof_N 	N 	0.78499	0.28601	0.379	-0.232
Mof_N 	N 	0.83614	0.25481	0.35458	-0.266
Mof_N 	N 	0.70519	0.34881	0.42174	-0.235
Mof_N 	N 	0.66295	0.38149	0.45823	-0.267
Mof_Cu	Cu	0.75098	0.33173	0.39009	0.868
Mof_C 	C 	0.73	0.2509	0.3629	-0.214
Mof_H 	H 	0.7171	0.2282	0.3561	0.065
Mof_C 	C 	0.6549	0.3022	0.3908	0.192
Mof_H 	H 	0.6281	0.3025	0.3882	-0.045
Mof_N 	N 	0.711	0.2808	0.3748	0.001
Mof_N 	N 	0.6717	0.2753	0.3704	-0.064
Mof_Zn	Zn	0.89009	0.24902	0.33173	1.18
Mof_C 	C 	0.32321	0.78517	0.87442	0.095
Mof_H 	H 	0.3395	0.8042	0.8843	-0.036
Mof_C 	C 	0.30365	0.73498	0.84587	-0.029
Mof_H 	H 	0.303	0.7119	0.8319	0.028
Mof_C 	C 	0.27221	0.75326	0.8602	0.057
Mof_C 	C 	0.2335	0.7383	0.8504	0.174
Mof_H 	H 	0.2335	0.7161	0.8352	-0.036
Mof_C 	C 	0.1713	0.7943	0.8985	-0.229
Mof_H 	H 	0.1503	0.7774	0.8997	0.077
Mof_N 	N 	0.1994	0.751	0.8594	-0.064
Mof_N 	N 	0.2028	0.7848	0.8802	-0.069
Mof_C 	C 	0.16958	0.8323	0.9173	0.051
Mof_C 	C 	0.144	0.852	0.9404	-0.034
Mof_H 	H 	0.1179	0.846	0.9435	0.023
Mof_C 	C 	0.1997	0.87825	0.94563	0.096
Mof_H 	H 	0.2194	0.8951	0.953	-0.042
Mof_N 	N 	0.28499	0.78601	0.879	-0.232
Mof_N 	N 	0.33614	0.75481	0.85458	-0.266
Mof_N 	N 	0.20519	0.84881	0.92174	-0.235
Mof_N 	N 	0.16295	0.88149	0.95823	-0.267
Mof_Cu	Cu	0.25098	0.83173	0.89009	0.868
Mof_C 	C 	0.23	0.7509	0.8629	-0.214
Mof_H 	H 	0.2171	0.7282	0.8561	0.065
Mof_C 	C 	0.1549	0.8022	0.8908	0.192
Mof_H 	H 	0.1281	0.8025	0.8882	-0.045
Mof_N 	N 	0.211	0.7808	0.8748	0.001
Mof_N 	N 	0.1717	0.7753	0.8704	-0.064
Mof_Zn	Zn	0.39009	0.74902	0.83173	1.18
Mof_C 	C 	0.32321	0.21483	0.62558	0.095
Mof_H 	H 	0.3395	0.1958	0.6157	-0.036
Mof_C 	C 	0.30365	0.26502	0.65413	-0.029
Mof_H 	H 	0.303	0.2881	0.6681	0.028
Mof_C 	C 	0.27221	0.24674	0.6398	0.057
Mof_C 	C 	0.2335	0.2617	0.6496	0.174
Mof_H 	H 	0.2335	0.2839	0.6648	-0.036
Mof_C 	C 	0.1713	0.2057	0.6015	-0.229
Mof_H 	H 	0.1503	0.2226	0.6003	0.077
Mof_N 	N 	0.1994	0.249	0.6406	-0.064
Mof_N 	N 	0.2028	0.2152	0.6198	-0.069
Mof_C 	C 	0.16958	0.1677	0.5827	0.051
Mof_C 	C 	0.144	0.148	0.5596	-0.034
Mof_H 	H 	0.1179	0.154	0.5565	0.023
Mof_C 	C 	0.1997	0.12175	0.55437	0.096
Mof_H 	H 	0.2194	0.1049	0.547	-0.042
Mof_N 	N 	0.28499	0.21399	0.621	-0.232
Mof_N 	N 	0.33614	0.24519	0.64542	-0.266
Mof_N 	N 	0.20519	0.15119	0.57826	-0.235
Mof_N 	N 	0.16295	0.11851	0.54177	-0.267
Mof_Cu	Cu	0.25098	0.16827	0.60991	0.868
Mof_C 	C 	0.23	0.2491	0.6371	-0.214
Mof_H 	H 	0.2171	0.2718	0.6439	0.065
Mof_C 	C 	0.1549	0.1978	0.6092	0.192
Mof_H 	H 	0.1281	0.1975	0.6118	-0.045
Mof_N 	N 	0.211	0.2192	0.6252	0.001
Mof_N 	N 	0.1717	0.2247	0.6296	-0.064
Mof_Zn	Zn	0.39009	0.25098	0.66827	1.18
Mof_C 	C 	0.82321	0.71483	0.12558	0.095
Mof_H 	H 	0.8395	0.6958	0.1157	-0.036
Mof_C 	C 	0.80365	0.76502	0.15413	-0.029
Mof_H 	H 	0.803	0.7881	0.1681	0.028
Mof_C 	C 	0.77221	0.74674	0.1398	0.057
Mof_C 	C 	0.7335	0.7617	0.1496	0.174
Mof_H 	H 	0.7335	0.7839	0.1648	-0.036
Mof_C 	C 	0.6713	0.7057	0.1015	-0.229
Mof_H 	H 	0.6503	0.7226	0.1003	0.077
Mof_N 	N 	0.6994	0.749	0.1406	-0.064
Mof_N 	N 	0.7028	0.7152	0.1198	-0.069
Mof_C 	C 	0.66958	0.6677	0.0827	0.051
Mof_C 	C 	0.644	0.648	0.0596	-0.034
Mof_H 	H 	0.6179	0.654	0.0565	0.023
Mof_C 	C 	0.6997	0.62175	0.05437	0.096
Mof_H 	H 	0.7194	0.6049	0.047	-0.042
Mof_N 	N 	0.78499	0.71399	0.121	-0.232
Mof_N 	N 	0.83614	0.74519	0.14542	-0.266
Mof_N 	N 	0.70519	0.65119	0.07826	-0.235
Mof_N 	N 	0.66295	0.61851	0.04177	-0.267
Mof_Cu	Cu	0.75098	0.66827	0.10991	0.868
Mof_C 	C 	0.73	0.7491	0.1371	-0.214
Mof_H 	H 	0.7171	0.7718	0.1439	0.065
Mof_C 	C 	0.6549	0.6978	0.1092	0.192
Mof_H 	H 	0.6281	0.6975	0.1118	-0.045
Mof_N 	N 	0.711	0.7192	0.1252	0.001
Mof_N 	N 	0.6717	0.7247	0.1296	-0.064
Mof_Zn	Zn	0.89009	0.75098	0.16827	1.18
Mof_C 	C 	0.17679	0.78517	0.12558	0.095
Mof_H 	H 	0.1605	0.8042	0.1157	-0.036
Mof_C 	C 	0.19635	0.73498	0.15413	-0.029
Mof_H 	H 	0.197	0.7119	0.1681	0.028
Mof_C 	C 	0.22779	0.75326	0.1398	0.057
Mof_C 	C 	0.2665	0.7383	0.1496	0.174
Mof_H 	H 	0.2665	0.7161	0.1648	-0.036
Mof_C 	C 	0.3287	0.7943	0.1015	-0.229
Mof_H 	H 	0.3497	0.7774	0.1003	0.077
Mof_N 	N 	0.3006	0.751	0.1406	-0.064
Mof_N 	N 	0.2972	0.7848	0.1198	-0.069
Mof_C 	C 	0.33042	0.8323	0.0827	0.051
Mof_C 	C 	0.356	0.852	0.0596	-0.034
Mof_H 	H 	0.3821	0.846	0.0565	0.023
Mof_C 	C 	0.3003	0.87825	0.05437	0.096
Mof_H 	H 	0.2806	0.8951	0.047	-0.042
Mof_N 	N 	0.21501	0.78601	0.121	-0.232
Mof_N 	N 	0.16386	0.75481	0.14542	-0.266
Mof_N 	N 	0.29481	0.84881	0.07826	-0.235
Mof_N 	N 	0.33705	0.88149	0.04177	-0.267
Mof_Cu	Cu	0.24902	0.83173	0.10991	0.868
Mof_C 	C 	0.27	0.7509	0.1371	-0.214
Mof_H 	H 	0.2829	0.7282	0.1439	0.065
Mof_C 	C 	0.3451	0.8022	0.1092	0.192
Mof_H 	H 	0.3719	0.8025	0.1118	-0.045
Mof_N 	N 	0.289	0.7808	0.1252	0.001
Mof_N 	N 	0.3283	0.7753	0.1296	-0.064
Mof_Zn	Zn	0.10991	0.74902	0.16827	1.18
Mof_C 	C 	0.67679	0.28517	0.62558	0.095
Mof_H 	H 	0.6605	0.3042	0.6157	-0.036
Mof_C 	C 	0.69635	0.23498	0.65413	-0.029
Mof_H 	H 	0.697	0.2119	0.6681	0.028
Mof_C 	C 	0.72779	0.25326	0.6398	0.057
Mof_C 	C 	0.7665	0.2383	0.6496	0.174
Mof_H 	H 	0.7665	0.2161	0.6648	-0.036
Mof_C 	C 	0.8287	0.2943	0.6015	-0.229
Mof_H 	H 	0.8497	0.2774	0.6003	0.077
Mof_N 	N 	0.8006	0.251	0.6406	-0.064
Mof_N 	N 	0.7972	0.2848	0.6198	-0.069
Mof_C 	C 	0.83042	0.3323	0.5827	0.051
Mof_C 	C 	0.856	0.352	0.5596	-0.034
Mof_H 	H 	0.8821	0.346	0.5565	0.023
Mof_C 	C 	0.8003	0.37825	0.55437	0.096
Mof_H 	H 	0.7806	0.3951	0.547	-0.042
Mof_N 	N 	0.71501	0.28601	0.621	-0.232
Mof_N 	N 	0.66386	0.25481	0.64542	-0.266
Mof_N 	N 	0.79481	0.34881	0.57826	-0.235
Mof_N 	N 	0.83705	0.38149	0.54177	-0.267
Mof_Cu	Cu	0.74902	0.33173	0.60991	0.868
Mof_C 	C 	0.77	0.2509	0.6371	-0.214
Mof_H 	H 	0.7829	0.2282	0.6439	0.065
Mof_C 	C 	0.8451	0.3022	0.6092	0.192
Mof_H 	H 	0.8719	0.3025	0.6118	-0.045
Mof_N 	N 	0.789	0.2808	0.6252	0.001
Mof_N 	N 	0.8283	0.2753	0.6296	-0.064
Mof_Zn	Zn	0.60991	0.24902	0.66827	1.18
Mof_C 	C 	0.67679	0.71483	0.87442	0.095
Mof_H 	H 	0.6605	0.6958	0.8843	-0.036
Mof_C 	C 	0.69635	0.76502	0.84587	-0.029
Mof_H 	H 	0.697	0.7881	0.8319	0.028
Mof_C 	C 	0.72779	0.74674	0.8602	0.057
Mof_C 	C 	0.7665	0.7617	0.8504	0.174
Mof_H 	H 	0.7665	0.7839	0.8352	-0.036
Mof_C 	C 	0.8287	0.7057	0.8985	-0.229
Mof_H 	H 	0.8497	0.7226	0.8997	0.077
Mof_N 	N 	0.8006	0.749	0.8594	-0.064
Mof_N 	N 	0.7972	0.7152	0.8802	-0.069
Mof_C 	C 	0.83042	0.6677	0.9173	0.051
Mof_C 	C 	0.856	0.648	0.9404	-0.034
Mof_H 	H 	0.8821	0.654	0.9435	0.023
Mof_C 	C 	0.8003	0.62175	0.94563	0.096
Mof_H 	H 	0.7806	0.6049	0.953	-0.042
Mof_N 	N 	0.71501	0.71399	0.879	-0.232
Mof_N 	N 	0.66386	0.74519	0.85458	-0.266
Mof_N 	N 	0.79481	0.65119	0.92174	-0.235
Mof_N 	N 	0.83705	0.61851	0.95823	-0.267
Mof_Cu	Cu	0.74902	0.66827	0.89009	0.868
Mof_C 	C 	0.77	0.7491	0.8629	-0.214
Mof_H 	H 	0.7829	0.7718	0.8561	0.065
Mof_C 	C 	0.8451	0.6978	0.8908	0.192
Mof_H 	H 	0.8719	0.6975	0.8882	-0.045
Mof_N 	N 	0.789	0.7192	0.8748	0.001
Mof_N 	N 	0.8283	0.7247	0.8704	-0.064
Mof_Zn	Zn	0.60991	0.75098	0.83173	1.18
Mof_C 	C 	0.17679	0.21483	0.37442	0.095
Mof_H 	H 	0.1605	0.1958	0.3843	-0.036
Mof_C 	C 	0.19635	0.26502	0.34587	-0.029
Mof_H 	H 	0.197	0.2881	0.3319	0.028
Mof_C 	C 	0.22779	0.24674	0.3602	0.057
Mof_C 	C 	0.2665	0.2617	0.3504	0.174
Mof_H 	H 	0.2665	0.2839	0.3352	-0.036
Mof_C 	C 	0.3287	0.2057	0.3985	-0.229
Mof_H 	H 	0.3497	0.2226	0.3997	0.077
Mof_N 	N 	0.3006	0.249	0.3594	-0.064
Mof_N 	N 	0.2972	0.2152	0.3802	-0.069
Mof_C 	C 	0.33042	0.1677	0.4173	0.051
Mof_C 	C 	0.356	0.148	0.4404	-0.034
Mof_H 	H 	0.3821	0.154	0.4435	0.023
Mof_C 	C 	0.3003	0.12175	0.44563	0.096
Mof_H 	H 	0.2806	0.1049	0.453	-0.042
Mof_N 	N 	0.21501	0.21399	0.379	-0.232
Mof_N 	N 	0.16386	0.24519	0.35458	-0.266
Mof_N 	N 	0.29481	0.15119	0.42174	-0.235
Mof_N 	N 	0.33705	0.11851	0.45823	-0.267
Mof_Cu	Cu	0.24902	0.16827	0.39009	0.868
Mof_C 	C 	0.27	0.2491	0.3629	-0.214
Mof_H 	H 	0.2829	0.2718	0.3561	0.065
Mof_C 	C 	0.3451	0.1978	0.3908	0.192
Mof_H 	H 	0.3719	0.1975	0.3882	-0.045
Mof_N 	N 	0.289	0.2192	0.3748	0.001
Mof_N 	N 	0.3283	0.2247	0.3704	-0.064
Mof_Zn	Zn	0.10991	0.25098	0.33173	1.18
Mof_C 	C 	0.12442	0.96483	0.92679	0.095
Mof_H 	H 	0.1343	0.9458	0.9105	-0.036
Mof_C 	C 	0.09587	0.01502	0.94635	-0.033
Mof_H 	H 	0.0819	0.0381	0.947	0.035
Mof_C 	C 	0.1102	0.99674	0.97779	0.059
Mof_C 	C 	0.1004	0.0117	0.0165	0.155
Mof_H 	H 	0.0852	0.0339	0.0165	-0.033
Mof_C 	C 	0.1485	0.9557	0.0787	-0.223
Mof_H 	H 	0.1497	0.9726	0.0997	0.079
Mof_N 	N 	0.1094	0.999	0.0506	-0.064
Mof_N 	N 	0.1302	0.9652	0.0472	-0.089
Mof_C 	C 	0.1673	0.9177	0.08042	0.05
Mof_C 	C 	0.1904	0.898	0.106	-0.035
Mof_H 	H 	0.1935	0.904	0.1321	0.029
Mof_C 	C 	0.19563	0.87175	0.0503	0.096
Mof_H 	H 	0.203	0.8549	0.0306	-0.039
Mof_N 	N 	0.129	0.96399	0.96501	-0.281
Mof_N 	N 	0.10458	0.99519	0.91386	-0.22
Mof_N 	N 	0.17174	0.90119	0.04481	-0.283
Mof_N 	N 	0.20823	0.86851	0.08705	-0.222
Mof_C 	C 	0.1129	0.9991	0.02	-0.218
Mof_H 	H 	0.1061	0.0218	0.0329	0.074
Mof_C 	C 	0.1408	0.9478	0.0951	0.168
Mof_H 	H 	0.1382	0.9475	0.1219	-0.038
Mof_N 	N 	0.1248	0.9692	0.039	-0.01
Mof_N 	N 	0.1204	0.9747	0.0783	-0.062
Mof_C 	C 	0.62442	0.46483	0.42679	0.095
Mof_H 	H 	0.6343	0.4458	0.4105	-0.036
Mof_C 	C 	0.59587	0.51502	0.44635	-0.033
Mof_H 	H 	0.5819	0.5381	0.447	0.035
Mof_C 	C 	0.6102	0.49674	0.47779	0.059
Mof_C 	C 	0.6004	0.5117	0.5165	0.155
Mof_H 	H 	0.5852	0.5339	0.5165	-0.033
Mof_C 	C 	0.6485	0.4557	0.5787	-0.223
Mof_H 	H 	0.6497	0.4726	0.5997	0.079
Mof_N 	N 	0.6094	0.499	0.5506	-0.064
Mof_N 	N 	0.6302	0.4652	0.5472	-0.089
Mof_C 	C 	0.6673	0.4177	0.58042	0.05
Mof_C 	C 	0.6904	0.398	0.606	-0.035
Mof_H 	H 	0.6935	0.404	0.6321	0.029
Mof_C 	C 	0.69563	0.37175	0.5503	0.096
Mof_H 	H 	0.703	0.3549	0.5306	-0.039
Mof_N 	N 	0.629	0.46399	0.46501	-0.281
Mof_N 	N 	0.60458	0.49519	0.41386	-0.22
Mof_N 	N 	0.67174	0.40119	0.54481	-0.283
Mof_N 	N 	0.70823	0.36851	0.58705	-0.222
Mof_C 	C 	0.6129	0.4991	0.52	-0.218
Mof_H 	H 	0.6061	0.5218	0.5329	0.074
Mof_C 	C 	0.6408	0.4478	0.5951	0.168
Mof_H 	H 	0.6382	0.4475	0.6219	-0.038
Mof_N 	N 	0.6248	0.4692	0.539	-0.01
Mof_N 	N 	0.6204	0.4747	0.5783	-0.062
Mof_C 	C 	0.37558	0.03517	0.42679	0.095
Mof_H 	H 	0.3657	0.0542	0.4105	-0.036
Mof_C 	C 	0.40413	0.98498	0.44635	-0.033
Mof_H 	H 	0.4181	0.9619	0.447	0.035
Mof_C 	C 	0.3898	0.00326	0.47779	0.059
Mof_C 	C 	0.3996	0.9883	0.5165	0.155
Mof_H 	H 	0.4148	0.9661	0.5165	-0.033
Mof_C 	C 	0.3515	0.0443	0.5787	-0.223
Mof_H 	H 	0.3503	0.0274	0.5997	0.079
Mof_N 	N 	0.3906	0.001	0.5506	-0.064
Mof_N 	N 	0.3698	0.0348	0.5472	-0.089
Mof_C 	C 	0.3327	0.0823	0.58042	0.05
Mof_C 	C 	0.3096	0.102	0.606	-0.035
Mof_H 	H 	0.3065	0.096	0.6321	0.029
Mof_C 	C 	0.30437	0.12825	0.5503	0.096
Mof_H 	H 	0.297	0.1451	0.5306	-0.039
Mof_N 	N 	0.371	0.03601	0.46501	-0.281
Mof_N 	N 	0.39542	0.00481	0.41386	-0.22
Mof_N 	N 	0.32826	0.09881	0.54481	-0.283
Mof_N 	N 	0.29177	0.13149	0.58705	-0.222
Mof_C 	C 	0.3871	0.0009	0.52	-0.218
Mof_H 	H 	0.3939	0.9782	0.5329	0.074
Mof_C 	C 	0.3592	0.0522	0.5951	0.168
Mof_H 	H 	0.3618	0.0525	0.6219	-0.038
Mof_N 	N 	0.3752	0.0308	0.539	-0.01
Mof_N 	N 	0.3796	0.0253	0.5783	-0.062
Mof_C 	C 	0.87558	0.53517	0.92679	0.095
Mof_H 	H 	0.8657	0.5542	0.9105	-0.036
Mof_C 	C 	0.90413	0.48498	0.94635	-0.033
Mof_H 	H 	0.9181	0.4619	0.947	0.035
Mof_C 	C 	0.8898	0.50326	0.97779	0.059
Mof_C 	C 	0.8996	0.4883	0.0165	0.155
Mof_H 	H 	0.9148	0.4661	0.0165	-0.033
Mof_C 	C 	0.8515	0.5443	0.0787	-0.223
Mof_H 	H 	0.8503	0.5274	0.0997	0.079
Mof_N 	N 	0.8906	0.501	0.0506	-0.064
Mof_N 	N 	0.8698	0.5348	0.0472	-0.089
Mof_C 	C 	0.8327	0.5823	0.08042	0.05
Mof_C 	C 	0.8096	0.602	0.106	-0.035
Mof_H 	H 	0.8065	0.596	0.1321	0.029
Mof_C 	C 	0.80437	0.62825	0.0503	0.096
Mof_H 	H 	0.797	0.6451	0.0306	-0.039
Mof_N 	N 	0.871	0.53601	0.96501	-0.281
Mof_N 	N 	0.89542	0.50481	0.91386	-0.22
Mof_N 	N 	0.82826	0.59881	0.04481	-0.283
Mof_N 	N 	0.79177	0.63149	0.08705	-0.222
Mof_C 	C 	0.8871	0.5009	0.02	-0.218
Mof_H 	H 	0.8939	0.4782	0.0329	0.074
Mof_C 	C 	0.8592	0.5522	0.0951	0.168
Mof_H 	H 	0.8618	0.5525	0.1219	-0.038
Mof_N 	N 	0.8752	0.5308	0.039	-0.01
Mof_N 	N 	0.8796	0.5253	0.0783	-0.062
Mof_C 	C 	0.87558	0.46483	0.57321	0.095
Mof_H 	H 	0.8657	0.4458	0.5895	-0.036
Mof_C 	C 	0.90413	0.51502	0.55365	-0.033
Mof_H 	H 	0.9181	0.5381	0.553	0.035
Mof_C 	C 	0.8898	0.49674	0.52221	0.059
Mof_C 	C 	0.8996	0.5117	0.4835	0.155
Mof_H 	H 	0.9148	0.5339	0.4835	-0.033
Mof_C 	C 	0.8515	0.4557	0.4213	-0.223
Mof_H 	H 	0.8503	0.4726	0.4003	0.079
Mof_N 	N 	0.8906	0.499	0.4494	-0.064
Mof_N 	N 	0.8698	0.4652	0.4528	-0.089
Mof_C 	C 	0.8327	0.4177	0.41958	0.05
Mof_C 	C 	0.8096	0.398	0.394	-0.035
Mof_H 	H 	0.8065	0.404	0.3679	0.029
Mof_C 	C 	0.80437	0.37175	0.4497	0.096
Mof_H 	H 	0.797	0.3549	0.4694	-0.039
Mof_N 	N 	0.871	0.46399	0.53499	-0.281
Mof_N 	N 	0.89542	0.49519	0.58614	-0.22
Mof_N 	N 	0.82826	0.40119	0.45519	-0.283
Mof_N 	N 	0.79177	0.36851	0.41295	-0.222
Mof_C 	C 	0.8871	0.4991	0.48	-0.218
Mof_H 	H 	0.8939	0.5218	0.4671	0.074
Mof_C 	C 	0.8592	0.4478	0.4049	0.168
Mof_H 	H 	0.8618	0.4475	0.3781	-0.038
Mof_N 	N 	0.8752	0.4692	0.461	-0.01
Mof_N 	N 	0.8796	0.4747	0.4217	-0.062
Mof_C 	C 	0.37558	0.96483	0.07321	0.095
Mof_H 	H 	0.3657	0.9458	0.0895	-0.036
Mof_C 	C 	0.40413	0.01502	0.05365	-0.033
Mof_H 	H 	0.4181	0.0381	0.053	0.035
Mof_C 	C 	0.3898	0.99674	0.02221	0.059
Mof_C 	C 	0.3996	0.0117	0.9835	0.155
Mof_H 	H 	0.4148	0.0339	0.9835	-0.033
Mof_C 	C 	0.3515	0.9557	0.9213	-0.223
Mof_H 	H 	0.3503	0.9726	0.9003	0.079
Mof_N 	N 	0.3906	0.999	0.9494	-0.064
Mof_N 	N 	0.3698	0.9652	0.9528	-0.089
Mof_C 	C 	0.3327	0.9177	0.91958	0.05
Mof_C 	C 	0.3096	0.898	0.894	-0.035
Mof_H 	H 	0.3065	0.904	0.8679	0.029
Mof_C 	C 	0.30437	0.87175	0.9497	0.096
Mof_H 	H 	0.297	0.8549	0.9694	-0.039
Mof_N 	N 	0.371	0.96399	0.03499	-0.281
Mof_N 	N 	0.39542	0.99519	0.08614	-0.22
Mof_N 	N 	0.32826	0.90119	0.95519	-0.283
Mof_N 	N 	0.29177	0.86851	0.91295	-0.222
Mof_C 	C 	0.3871	0.9991	0.98	-0.218
Mof_H 	H 	0.3939	0.0218	0.9671	0.074
Mof_C 	C 	0.3592	0.9478	0.9049	0.168
Mof_H 	H 	0.3618	0.9475	0.8781	-0.038
Mof_N 	N 	0.3752	0.9692	0.961	-0.01
Mof_N 	N 	0.3796	0.9747	0.9217	-0.062
Mof_C 	C 	0.62442	0.53517	0.07321	0.095
Mof_H 	H 	0.6343	0.5542	0.0895	-0.036
Mof_C 	C 	0.59587	0.48498	0.05365	-0.033
Mof_H 	H 	0.5819	0.4619	0.053	0.035
Mof_C 	C 	0.6102	0.50326	0.02221	0.059
Mof_C 	C 	0.6004	0.4883	0.9835	0.155
Mof_H 	H 	0.5852	0.4661	0.9835	-0.033
Mof_C 	C 	0.6485	0.5443	0.9213	-0.223
Mof_H 	H 	0.6497	0.5274	0.9003	0.079
Mof_N 	N 	0.6094	0.501	0.9494	-0.064
Mof_N 	N 	0.6302	0.5348	0.9528	-0.089
Mof_C 	C 	0.6673	0.5823	0.91958	0.05
Mof_C 	C 	0.6904	0.602	0.894	-0.035
Mof_H 	H 	0.6935	0.596	0.8679	0.029
Mof_C 	C 	0.69563	0.62825	0.9497	0.096
Mof_H 	H 	0.703	0.6451	0.9694	-0.039
Mof_N 	N 	0.629	0.53601	0.03499	-0.281
Mof_N 	N 	0.60458	0.50481	0.08614	-0.22
Mof_N 	N 	0.67174	0.59881	0.95519	-0.283
Mof_N 	N 	0.70823	0.63149	0.91295	-0.222
Mof_C 	C 	0.6129	0.5009	0.98	-0.218
Mof_H 	H 	0.6061	0.4782	0.9671	0.074
Mof_C 	C 	0.6408	0.5522	0.9049	0.168
Mof_H 	H 	0.6382	0.5525	0.8781	-0.038
Mof_N 	N 	0.6248	0.5308	0.961	-0.01
Mof_N 	N 	0.6204	0.5253	0.9217	-0.062
Mof_C 	C 	0.12442	0.03517	0.57321	0.095
Mof_H 	H 	0.1343	0.0542	0.5895	-0.036
Mof_C 	C 	0.09587	0.98498	0.55365	-0.033
Mof_H 	H 	0.0819	0.9619	0.553	0.035
Mof_C 	C 	0.1102	0.00326	0.52221	0.059
Mof_C 	C 	0.1004	0.9883	0.4835	0.155
Mof_H 	H 	0.0852	0.9661	0.4835	-0.033
Mof_C 	C 	0.1485	0.0443	0.4213	-0.223
Mof_H 	H 	0.1497	0.0274	0.4003	0.079
Mof_N 	N 	0.1094	0.001	0.4494	-0.064
Mof_N 	N 	0.1302	0.0348	0.4528	-0.089
Mof_C 	C 	0.1673	0.0823	0.41958	0.05
Mof_C 	C 	0.1904	0.102	0.394	-0.035
Mof_H 	H 	0.1935	0.096	0.3679	0.029
Mof_C 	C 	0.19563	0.12825	0.4497	0.096
Mof_H 	H 	0.203	0.1451	0.4694	-0.039
Mof_N 	N 	0.129	0.03601	0.53499	-0.281
Mof_N 	N 	0.10458	0.00481	0.58614	-0.22
Mof_N 	N 	0.17174	0.09881	0.45519	-0.283
Mof_N 	N 	0.20823	0.13149	0.41295	-0.222
Mof_C 	C 	0.1129	0.0009	0.48	-0.218
Mof_H 	H 	0.1061	0.9782	0.4671	0.074
Mof_C 	C 	0.1408	0.0522	0.4049	0.168
Mof_H 	H 	0.1382	0.0525	0.3781	-0.038
Mof_N 	N 	0.1248	0.0308	0.461	-0.01
Mof_N 	N 	0.1204	0.0253	0.4217	-0.062
Mof_C 	C 	0.92679	0.12442	0.96483	0.095
Mof_H 	H 	0.9105	0.1343	0.9458	-0.036
Mof_C 	C 	0.94635	0.09587	0.01502	-0.033
Mof_H 	H 	0.947	0.0819	0.0381	0.035
Mof_C 	C 	0.97779	0.1102	0.99674	0.059
Mof_C 	C 	0.0165	0.1004	0.0117	0.155
Mof_H 	H 	0.0165	0.0852	0.0339	-0.033
Mof_C 	C 	0.0787	0.1485	0.9557	-0.223
Mof_H 	H 	0.0997	0.1497	0.9726	0.079
Mof_N 	N 	0.0506	0.1094	0.999	-0.064
Mof_N 	N 	0.0472	0.1302	0.9652	-0.089
Mof_C 	C 	0.08042	0.1673	0.9177	0.05
Mof_C 	C 	0.106	0.1904	0.898	-0.035
Mof_H 	H 	0.1321	0.1935	0.904	0.029
Mof_C 	C 	0.0503	0.19563	0.87175	0.096
Mof_H 	H 	0.0306	0.203	0.8549	-0.039
Mof_N 	N 	0.96501	0.129	0.96399	-0.281
Mof_N 	N 	0.91386	0.10458	0.99519	-0.22
Mof_N 	N 	0.04481	0.17174	0.90119	-0.283
Mof_N 	N 	0.08705	0.20823	0.86851	-0.222
Mof_C 	C 	0.02	0.1129	0.9991	-0.218
Mof_H 	H 	0.0329	0.1061	0.0218	0.074
Mof_C 	C 	0.0951	0.1408	0.9478	0.168
Mof_H 	H 	0.1219	0.1382	0.9475	-0.038
Mof_N 	N 	0.039	0.1248	0.9692	-0.01
Mof_N 	N 	0.0783	0.1204	0.9747	-0.062
Mof_C 	C 	0.42679	0.62442	0.46483	0.095
Mof_H 	H 	0.4105	0.6343	0.4458	-0.036
Mof_C 	C 	0.44635	0.59587	0.51502	-0.033
Mof_H 	H 	0.447	0.5819	0.5381	0.035
Mof_C 	C 	0.47779	0.6102	0.49674	0.059
Mof_C 	C 	0.5165	0.6004	0.5117	0.155
Mof_H 	H 	0.5165	0.5852	0.5339	-0.033
Mof_C 	C 	0.5787	0.6485	0.4557	-0.223
Mof_H 	H 	0.5997	0.6497	0.4726	0.079
Mof_N 	N 	0.5506	0.6094	0.499	-0.064
Mof_N 	N 	0.5472	0.6302	0.4652	-0.089
Mof_C 	C 	0.58042	0.6673	0.4177	0.05
Mof_C 	C 	0.606	0.6904	0.398	-0.035
Mof_H 	H 	0.6321	0.6935	0.404	0.029
Mof_C 	C 	0.5503	0.69563	0.37175	0.096
Mof_H 	H 	0.5306	0.703	0.3549	-0.039
Mof_N 	N 	0.46501	0.629	0.46399	-0.281
Mof_N 	N 	0.41386	0.60458	0.49519	-0.22
Mof_N 	N 	0.54481	0.67174	0.40119	-0.283
Mof_N 	N 	0.58705	0.70823	0.36851	-0.222
Mof_C 	C 	0.52	0.6129	0.4991	-0.218
Mof_H 	H 	0.5329	0.6061	0.5218	0.074
Mof_C 	C 	0.5951	0.6408	0.4478	0.168
Mof_H 	H 	0.6219	0.6382	0.4475	-0.038
Mof_N 	N 	0.539	0.6248	0.4692	-0.01
Mof_N 	N 	0.5783	0.6204	0.4747	-0.062
Mof_C 	C 	0.42679	0.37558	0.03517	0.095
Mof_H 	H 	0.4105	0.3657	0.0542	-0.036
Mof_C 	C 	0.44635	0.40413	0.98498	-0.033
Mof_H 	H 	0.447	0.4181	0.9619	0.035
Mof_C 	C 	0.47779	0.3898	0.00326	0.059
Mof_C 	C 	0.5165	0.3996	0.9883	0.155
Mof_H 	H 	0.5165	0.4148	0.9661	-0.033
Mof_C 	C 	0.5787	0.3515	0.0443	-0.223
Mof_H 	H 	0.5997	0.3503	0.0274	0.079
Mof_N 	N 	0.5506	0.3906	0.001	-0.064
Mof_N 	N 	0.5472	0.3698	0.0348	-0.089
Mof_C 	C 	0.58042	0.3327	0.0823	0.05
Mof_C 	C 	0.606	0.3096	0.102	-0.035
Mof_H 	H 	0.6321	0.3065	0.096	0.029
Mof_C 	C 	0.5503	0.30437	0.12825	0.096
Mof_H 	H 	0.5306	0.297	0.1451	-0.039
Mof_N 	N 	0.46501	0.371	0.03601	-0.281
Mof_N 	N 	0.41386	0.39542	0.00481	-0.22
Mof_N 	N 	0.54481	0.32826	0.09881	-0.283
Mof_N 	N 	0.58705	0.29177	0.13149	-0.222
Mof_C 	C 	0.52	0.3871	0.0009	-0.218
Mof_H 	H 	0.5329	0.3939	0.9782	0.074
Mof_C 	C 	0.5951	0.3592	0.0522	0.168
Mof_H 	H 	0.6219	0.3618	0.0525	-0.038
Mof_N 	N 	0.539	0.3752	0.0308	-0.01
Mof_N 	N 	0.5783	0.3796	0.0253	-0.062
Mof_C 	C 	0.92679	0.87558	0.53517	0.095
Mof_H 	H 	0.9105	0.8657	0.5542	-0.036
Mof_C 	C 	0.94635	0.90413	0.48498	-0.033
Mof_H 	H 	0.947	0.9181	0.4619	0.035
Mof_C 	C 	0.97779	0.8898	0.50326	0.059
Mof_C 	C 	0.0165	0.8996	0.4883	0.155
Mof_H 	H 	0.0165	0.9148	0.4661	-0.033
Mof_C 	C 	0.0787	0.8515	0.5443	-0.223
Mof_H 	H 	0.0997	0.8503	0.5274	0.079
Mof_N 	N 	0.0506	0.8906	0.501	-0.064
Mof_N 	N 	0.0472	0.8698	0.5348	-0.089
Mof_C 	C 	0.08042	0.8327	0.5823	0.05
Mof_C 	C 	0.106	0.8096	0.602	-0.035
Mof_H 	H 	0.1321	0.8065	0.596	0.029
Mof_C 	C 	0.0503	0.80437	0.62825	0.096
Mof_H 	H 	0.0306	0.797	0.6451	-0.039
Mof_N 	N 	0.96501	0.871	0.53601	-0.281
Mof_N 	N 	0.91386	0.89542	0.50481	-0.22
Mof_N 	N 	0.04481	0.82826	0.59881	-0.283
Mof_N 	N 	0.08705	0.79177	0.63149	-0.222
Mof_C 	C 	0.02	0.8871	0.5009	-0.218
Mof_H 	H 	0.0329	0.8939	0.4782	0.074
Mof_C 	C 	0.0951	0.8592	0.5522	0.168
Mof_H 	H 	0.1219	0.8618	0.5525	-0.038
Mof_N 	N 	0.039	0.8752	0.5308	-0.01
Mof_N 	N 	0.0783	0.8796	0.5253	-0.062
Mof_C 	C 	0.57321	0.87558	0.46483	0.095
Mof_H 	H 	0.5895	0.8657	0.4458	-0.036
Mof_C 	C 	0.55365	0.90413	0.51502	-0.033
Mof_H 	H 	0.553	0.9181	0.5381	0.035
Mof_C 	C 	0.52221	0.8898	0.49674	0.059
Mof_C 	C 	0.4835	0.8996	0.5117	0.155
Mof_H 	H 	0.4835	0.9148	0.5339	-0.033
Mof_C 	C 	0.4213	0.8515	0.4557	-0.223
Mof_H 	H 	0.4003	0.8503	0.4726	0.079
Mof_N 	N 	0.4494	0.8906	0.499	-0.064
Mof_N 	N 	0.4528	0.8698	0.4652	-0.089
Mof_C 	C 	0.41958	0.8327	0.4177	0.05
Mof_C 	C 	0.394	0.8096	0.398	-0.035
Mof_H 	H 	0.3679	0.8065	0.404	0.029
Mof_C 	C 	0.4497	0.80437	0.37175	0.096
Mof_H 	H 	0.4694	0.797	0.3549	-0.039
Mof_N 	N 	0.53499	0.871	0.46399	-0.281
Mof_N 	N 	0.58614	0.89542	0.49519	-0.22
Mof_N 	N 	0.45519	0.82826	0.40119	-0.283
Mof_N 	N 	0.41295	0.79177	0.36851	-0.222
Mof_C 	C 	0.48	0.8871	0.4991	-0.218
Mof_H 	H 	0.4671	0.8939	0.5218	0.074
Mof_C 	C 	0.4049	0.8592	0.4478	0.168
Mof_H 	H 	0.3781	0.8618	0.4475	-0.038
Mof_N 	N 	0.461	0.8752	0.4692	-0.01
Mof_N 	N 	0.4217	0.8796	0.4747	-0.062
Mof_C 	C 	0.07321	0.37558	0.96483	0.095
Mof_H 	H 	0.0895	0.3657	0.9458	-0.036
Mof_C 	C 	0.05365	0.40413	0.01502	-0.033
Mof_H 	H 	0.053	0.4181	0.0381	0.035
Mof_C 	C 	0.02221	0.3898	0.99674	0.059
Mof_C 	C 	0.9835	0.3996	0.0117	0.155
Mof_H 	H 	0.9835	0.4148	0.0339	-0.033
Mof_C 	C 	0.9213	0.3515	0.9557	-0.223
Mof_H 	H 	0.9003	0.3503	0.9726	0.079
Mof_N 	N 	0.9494	0.3906	0.999	-0.064
Mof_N 	N 	0.9528	0.3698	0.9652	-0.089
Mof_C 	C 	0.91958	0.3327	0.9177	0.05
Mof_C 	C 	0.894	0.3096	0.898	-0.035
Mof_H 	H 	0.8679	0.3065	0.904	0.029
Mof_C 	C 	0.9497	0.30437	0.87175	0.096
Mof_H 	H 	0.9694	0.297	0.8549	-0.039
Mof_N 	N 	0.03499	0.371	0.96399	-0.281
Mof_N 	N 	0.08614	0.39542	0.99519	-0.22
Mof_N 	N 	0.95519	0.32826	0.90119	-0.283
Mof_N 	N 	0.91295	0.29177	0.86851	-0.222
Mof_C 	C 	0.98	0.3871	0.9991	-0.218
Mof_H 	H 	0.9671	0.3939	0.0218	0.074
Mof_C 	C 	0.9049	0.3592	0.9478	0.168
Mof_H 	H 	0.8781	0.3618	0.9475	-0.038
Mof_N 	N 	0.961	0.3752	0.9692	-0.01
Mof_N 	N 	0.9217	0.3796	0.9747	-0.062
Mof_C 	C 	0.07321	0.62442	0.53517	0.095
Mof_H 	H 	0.0895	0.6343	0.5542	-0.036
Mof_C 	C 	0.05365	0.59587	0.48498	-0.033
Mof_H 	H 	0.053	0.5819	0.4619	0.035
Mof_C 	C 	0.02221	0.6102	0.50326	0.059
Mof_C 	C 	0.9835	0.6004	0.4883	0.155
Mof_H 	H 	0.9835	0.5852	0.4661	-0.033
Mof_C 	C 	0.9213	0.6485	0.5443	-0.223
Mof_H 	H 	0.9003	0.6497	0.5274	0.079
Mof_N 	N 	0.9494	0.6094	0.501	-0.064
Mof_N 	N 	0.9528	0.6302	0.5348	-0.089
Mof_C 	C 	0.91958	0.6673	0.5823	0.05
Mof_C 	C 	0.894	0.6904	0.602	-0.035
Mof_H 	H 	0.8679	0.6935	0.596	0.029
Mof_C 	C 	0.9497	0.69563	0.62825	0.096
Mof_H 	H 	0.9694	0.703	0.6451	-0.039
Mof_N 	N 	0.03499	0.629	0.53601	-0.281
Mof_N 	N 	0.08614	0.60458	0.50481	-0.22
Mof_N 	N 	0.95519	0.67174	0.59881	-0.283
Mof_N 	N 	0.91295	0.70823	0.63149	-0.222
Mof_C 	C 	0.98	0.6129	0.5009	-0.218
Mof_H 	H 	0.9671	0.6061	0.4782	0.074
Mof_C 	C 	0.9049	0.6408	0.5522	0.168
Mof_H 	H 	0.8781	0.6382	0.5525	-0.038
Mof_N 	N 	0.961	0.6248	0.5308	-0.01
Mof_N 	N 	0.9217	0.6204	0.5253	-0.062
Mof_C 	C 	0.57321	0.12442	0.03517	0.095
Mof_H 	H 	0.5895	0.1343	0.0542	-0.036
Mof_C 	C 	0.55365	0.09587	0.98498	-0.033
Mof_H 	H 	0.553	0.0819	0.9619	0.035
Mof_C 	C 	0.52221	0.1102	0.00326	0.059
Mof_C 	C 	0.4835	0.1004	0.9883	0.155
Mof_H 	H 	0.4835	0.0852	0.9661	-0.033
Mof_C 	C 	0.4213	0.1485	0.0443	-0.223
Mof_H 	H 	0.4003	0.1497	0.0274	0.079
Mof_N 	N 	0.4494	0.1094	0.001	-0.064
Mof_N 	N 	0.4528	0.1302	0.0348	-0.089
Mof_C 	C 	0.41958	0.1673	0.0823	0.05
Mof_C 	C 	0.394	0.1904	0.102	-0.035
Mof_H 	H 	0.3679	0.1935	0.096	0.029
Mof_C 	C 	0.4497	0.19563	0.12825	0.096
Mof_H 	H 	0.4694	0.203	0.1451	-0.039
Mof_N 	N 	0.53499	0.129	0.03601	-0.281
Mof_N 	N 	0.58614	0.10458	0.00481	-0.22
Mof_N 	N 	0.45519	0.17174	0.09881	-0.283
Mof_N 	N 	0.41295	0.20823	0.13149	-0.222
Mof_C 	C 	0.48	0.1129	0.0009	-0.218
Mof_H 	H 	0.4671	0.1061	0.9782	0.074
Mof_C 	C 	0.4049	0.1408	0.0522	0.168
Mof_H 	H 	0.3781	0.1382	0.0525	-0.038
Mof_N 	N 	0.461	0.1248	0.0308	-0.01
Mof_N 	N 	0.4217	0.1204	0.0253	-0.062
Mof_C 	C 	0.96483	0.92679	0.12442	0.095
Mof_H 	H 	0.9458	0.9105	0.1343	-0.036
Mof_C 	C 	0.01502	0.94635	0.09587	-0.033
Mof_H 	H 	0.0381	0.947	0.0819	0.035
Mof_C 	C 	0.99674	0.97779	0.1102	0.059
Mof_C 	C 	0.0117	0.0165	0.1004	0.155
Mof_H 	H 	0.0339	0.0165	0.0852	-0.033
Mof_C 	C 	0.9557	0.0787	0.1485	-0.223
Mof_H 	H 	0.9726	0.0997	0.1497	0.079
Mof_N 	N 	0.999	0.0506	0.1094	-0.064
Mof_N 	N 	0.9652	0.0472	0.1302	-0.089
Mof_C 	C 	0.9177	0.08042	0.1673	0.05
Mof_C 	C 	0.898	0.106	0.1904	-0.035
Mof_H 	H 	0.904	0.1321	0.1935	0.029
Mof_C 	C 	0.87175	0.0503	0.19563	0.096
Mof_H 	H 	0.8549	0.0306	0.203	-0.039
Mof_N 	N 	0.96399	0.96501	0.129	-0.281
Mof_N 	N 	0.99519	0.91386	0.10458	-0.22
Mof_N 	N 	0.90119	0.04481	0.17174	-0.283
Mof_N 	N 	0.86851	0.08705	0.20823	-0.222
Mof_C 	C 	0.9991	0.02	0.1129	-0.218
Mof_H 	H 	0.0218	0.0329	0.1061	0.074
Mof_C 	C 	0.9478	0.0951	0.1408	0.168
Mof_H 	H 	0.9475	0.1219	0.1382	-0.038
Mof_N 	N 	0.9692	0.039	0.1248	-0.01
Mof_N 	N 	0.9747	0.0783	0.1204	-0.062
Mof_C 	C 	0.46483	0.42679	0.62442	0.095
Mof_H 	H 	0.4458	0.4105	0.6343	-0.036
Mof_C 	C 	0.51502	0.44635	0.59587	-0.033
Mof_H 	H 	0.5381	0.447	0.5819	0.035
Mof_C 	C 	0.49674	0.47779	0.6102	0.059
Mof_C 	C 	0.5117	0.5165	0.6004	0.155
Mof_H 	H 	0.5339	0.5165	0.5852	-0.033
Mof_C 	C 	0.4557	0.5787	0.6485	-0.223
Mof_H 	H 	0.4726	0.5997	0.6497	0.079
Mof_N 	N 	0.499	0.5506	0.6094	-0.064
Mof_N 	N 	0.4652	0.5472	0.6302	-0.089
Mof_C 	C 	0.4177	0.58042	0.6673	0.05
Mof_C 	C 	0.398	0.606	0.6904	-0.035
Mof_H 	H 	0.404	0.6321	0.6935	0.029
Mof_C 	C 	0.37175	0.5503	0.69563	0.096
Mof_H 	H 	0.3549	0.5306	0.703	-0.039
Mof_N 	N 	0.46399	0.46501	0.629	-0.281
Mof_N 	N 	0.49519	0.41386	0.60458	-0.22
Mof_N 	N 	0.40119	0.54481	0.67174	-0.283
Mof_N 	N 	0.36851	0.58705	0.70823	-0.222
Mof_C 	C 	0.4991	0.52	0.6129	-0.218
Mof_H 	H 	0.5218	0.5329	0.6061	0.074
Mof_C 	C 	0.4478	0.5951	0.6408	0.168
Mof_H 	H 	0.4475	0.6219	0.6382	-0.038
Mof_N 	N 	0.4692	0.539	0.6248	-0.01
Mof_N 	N 	0.4747	0.5783	0.6204	-0.062
Mof_C 	C 	0.03517	0.42679	0.37558	0.095
Mof_H 	H 	0.0542	0.4105	0.3657	-0.036
Mof_C 	C 	0.98498	0.44635	0.40413	-0.033
Mof_H 	H 	0.9619	0.447	0.4181	0.035
Mof_C 	C 	0.00326	0.47779	0.3898	0.059
Mof_C 	C 	0.9883	0.5165	0.3996	0.155
Mof_H 	H 	0.9661	0.5165	0.4148	-0.033
Mof_C 	C 	0.0443	0.5787	0.3515	-0.223
Mof_H 	H 	0.0274	0.5997	0.3503	0.079
Mof_N 	N 	0.001	0.5506	0.3906	-0.064
Mof_N 	N 	0.0348	0.5472	0.3698	-0.089
Mof_C 	C 	0.0823	0.58042	0.3327	0.05
Mof_C 	C 	0.102	0.606	0.3096	-0.035
Mof_H 	H 	0.096	0.6321	0.3065	0.029
Mof_C 	C 	0.12825	0.5503	0.30437	0.096
Mof_H 	H 	0.1451	0.5306	0.297	-0.039
Mof_N 	N 	0.03601	0.46501	0.371	-0.281
Mof_N 	N 	0.00481	0.41386	0.39542	-0.22
Mof_N 	N 	0.09881	0.54481	0.32826	-0.283
Mof_N 	N 	0.13149	0.58705	0.29177	-0.222
Mof_C 	C 	0.0009	0.52	0.3871	-0.218
Mof_H 	H 	0.9782	0.5329	0.3939	0.074
Mof_C 	C 	0.0522	0.5951	0.3592	0.168
Mof_H 	H 	0.0525	0.6219	0.3618	-0.038
Mof_N 	N 	0.0308	0.539	0.3752	-0.01
Mof_N 	N 	0.0253	0.5783	0.3796	-0.062
Mof_C 	C 	0.53517	0.92679	0.87558	0.095
Mof_H 	H 	0.5542	0.9105	0.8657	-0.036
Mof_C 	C 	0.48498	0.94635	0.90413	-0.033
Mof_H 	H 	0.4619	0.947	0.9181	0.035
Mof_C 	C 	0.50326	0.97779	0.8898	0.059
Mof_C 	C 	0.4883	0.0165	0.8996	0.155
Mof_H 	H 	0.4661	0.0165	0.9148	-0.033
Mof_C 	C 	0.5443	0.0787	0.8515	-0.223
Mof_H 	H 	0.5274	0.0997	0.8503	0.079
Mof_N 	N 	0.501	0.0506	0.8906	-0.064
Mof_N 	N 	0.5348	0.0472	0.8698	-0.089
Mof_C 	C 	0.5823	0.08042	0.8327	0.05
Mof_C 	C 	0.602	0.106	0.8096	-0.035
Mof_H 	H 	0.596	0.1321	0.8065	0.029
Mof_C 	C 	0.62825	0.0503	0.80437	0.096
Mof_H 	H 	0.6451	0.0306	0.797	-0.039
Mof_N 	N 	0.53601	0.96501	0.871	-0.281
Mof_N 	N 	0.50481	0.91386	0.89542	-0.22
Mof_N 	N 	0.59881	0.04481	0.82826	-0.283
Mof_N 	N 	0.63149	0.08705	0.79177	-0.222
Mof_C 	C 	0.5009	0.02	0.8871	-0.218
Mof_H 	H 	0.4782	0.0329	0.8939	0.074
Mof_C 	C 	0.5522	0.0951	0.8592	0.168
Mof_H 	H 	0.5525	0.1219	0.8618	-0.038
Mof_N 	N 	0.5308	0.039	0.8752	-0.01
Mof_N 	N 	0.5253	0.0783	0.8796	-0.062
Mof_C 	C 	0.46483	0.57321	0.87558	0.095
Mof_H 	H 	0.4458	0.5895	0.8657	-0.036
Mof_C 	C 	0.51502	0.55365	0.90413	-0.033
Mof_H 	H 	0.5381	0.553	0.9181	0.035
Mof_C 	C 	0.49674	0.52221	0.8898	0.059
Mof_C 	C 	0.5117	0.4835	0.8996	0.155
Mof_H 	H 	0.5339	0.4835	0.9148	-0.033
Mof_C 	C 	0.4557	0.4213	0.8515	-0.223
Mof_H 	H 	0.4726	0.4003	0.8503	0.079
Mof_N 	N 	0.499	0.4494	0.8906	-0.064
Mof_N 	N 	0.4652	0.4528	0.8698	-0.089
Mof_C 	C 	0.4177	0.41958	0.8327	0.05
Mof_C 	C 	0.398	0.394	0.8096	-0.035
Mof_H 	H 	0.404	0.3679	0.8065	0.029
Mof_C 	C 	0.37175	0.4497	0.80437	0.096
Mof_H 	H 	0.3549	0.4694	0.797	-0.039
Mof_N 	N 	0.46399	0.53499	0.871	-0.281
Mof_N 	N 	0.49519	0.58614	0.89542	-0.22
Mof_N 	N 	0.40119	0.45519	0.82826	-0.283
Mof_N 	N 	0.36851	0.41295	0.79177	-0.222
Mof_C 	C 	0.4991	0.48	0.8871	-0.218
Mof_H 	H 	0.5218	0.4671	0.8939	0.074
Mof_C 	C 	0.4478	0.4049	0.8592	0.168
Mof_H 	H 	0.4475	0.3781	0.8618	-0.038
Mof_N 	N 	0.4692	0.461	0.8752	-0.01
Mof_N 	N 	0.4747	0.4217	0.8796	-0.062
Mof_C 	C 	0.96483	0.07321	0.37558	0.095
Mof_H 	H 	0.9458	0.0895	0.3657	-0.036
Mof_C 	C 	0.01502	0.05365	0.40413	-0.033
Mof_H 	H 	0.0381	0.053	0.4181	0.035
Mof_C 	C 	0.99674	0.02221	0.3898	0.059
Mof_C 	C 	0.0117	0.9835	0.3996	0.155
Mof_H 	H 	0.0339	0.9835	0.4148	-0.033
Mof_C 	C 	0.9557	0.9213	0.3515	-0.223
Mof_H 	H 	0.9726	0.9003	0.3503	0.079
Mof_N 	N 	0.999	0.9494	0.3906	-0.064
Mof_N 	N 	0.9652	0.9528	0.3698	-0.089
Mof_C 	C 	0.9177	0.91958	0.3327	0.05
Mof_C 	C 	0.898	0.894	0.3096	-0.035
Mof_H 	H 	0.904	0.8679	0.3065	0.029
Mof_C 	C 	0.87175	0.9497	0.30437	0.096
Mof_H 	H 	0.8549	0.9694	0.297	-0.039
Mof_N 	N 	0.96399	0.03499	0.371	-0.281
Mof_N 	N 	0.99519	0.08614	0.39542	-0.22
Mof_N 	N 	0.90119	0.95519	0.32826	-0.283
Mof_N 	N 	0.86851	0.91295	0.29177	-0.222
Mof_C 	C 	0.9991	0.98	0.3871	-0.218
Mof_H 	H 	0.0218	0.9671	0.3939	0.074
Mof_C 	C 	0.9478	0.9049	0.3592	0.168
Mof_H 	H 	0.9475	0.8781	0.3618	-0.038
Mof_N 	N 	0.9692	0.961	0.3752	-0.01
Mof_N 	N 	0.9747	0.9217	0.3796	-0.062
Mof_C 	C 	0.53517	0.07321	0.62442	0.095
Mof_H 	H 	0.5542	0.0895	0.6343	-0.036
Mof_C 	C 	0.48498	0.05365	0.59587	-0.033
Mof_H 	H 	0.4619	0.053	0.5819	0.035
Mof_C 	C 	0.50326	0.02221	0.6102	0.059
Mof_C 	C 	0.4883	0.9835	0.6004	0.155
Mof_H 	H 	0.4661	0.9835	0.5852	-0.033
Mof_C 	C 	0.5443	0.9213	0.6485	-0.223
Mof_H 	H 	0.5274	0.9003	0.6497	0.079
Mof_N 	N 	0.501	0.9494	0.6094	-0.064
Mof_N 	N 	0.5348	0.9528	0.6302	-0.089
Mof_C 	C 	0.5823	0.91958	0.6673	0.05
Mof_C 	C 	0.602	0.894	0.6904	-0.035
Mof_H 	H 	0.596	0.8679	0.6935	0.029
Mof_C 	C 	0.62825	0.9497	0.69563	0.096
Mof_H 	H 	0.6451	0.9694	0.703	-0.039
Mof_N 	N 	0.53601	0.03499	0.629	-0.281
Mof_N 	N 	0.50481	0.08614	0.60458	-0.22
Mof_N 	N 	0.59881	0.95519	0.67174	-0.283
Mof_N 	N 	0.63149	0.91295	0.70823	-0.222
Mof_C 	C 	0.5009	0.98	0.6129	-0.218
Mof_H 	H 	0.4782	0.9671	0.6061	0.074
Mof_C 	C 	0.5522	0.9049	0.6408	0.168
Mof_H 	H 	0.5525	0.8781	0.6382	-0.038
Mof_N 	N 	0.5308	0.961	0.6248	-0.01
Mof_N 	N 	0.5253	0.9217	0.6204	-0.062
Mof_C 	C 	0.03517	0.57321	0.12442	0.095
Mof_H 	H 	0.0542	0.5895	0.1343	-0.036
Mof_C 	C 	0.98498	0.55365	0.09587	-0.033
Mof_H 	H 	0.9619	0.553	0.0819	0.035
Mof_C 	C 	0.00326	0.52221	0.1102	0.059
Mof_C 	C 	0.9883	0.4835	0.1004	0.155
Mof_H 	H 	0.9661	0.4835	0.0852	-0.033
Mof_C 	C 	0.0443	0.4213	0.1485	-0.223
Mof_H 	H 	0.0274	0.4003	0.1497	0.079
Mof_N 	N 	0.001	0.4494	0.1094	-0.064
Mof_N 	N 	0.0348	0.4528	0.1302	-0.089
Mof_C 	C 	0.0823	0.41958	0.1673	0.05
Mof_C 	C 	0.102	0.394	0.1904	-0.035
Mof_H 	H 	0.096	0.3679	0.1935	0.029
Mof_C 	C 	0.12825	0.4497	0.19563	0.096
Mof_H 	H 	0.1451	0.4694	0.203	-0.039
Mof_N 	N 	0.03601	0.53499	0.129	-0.281
Mof_N 	N 	0.00481	0.58614	0.10458	-0.22
Mof_N 	N 	0.09881	0.45519	0.17174	-0.283
Mof_N 	N 	0.13149	0.41295	0.20823	-0.222
Mof_C 	C 	0.0009	0.48	0.1129	-0.218
Mof_H 	H 	0.9782	0.4671	0.1061	0.074
Mof_C 	C 	0.0522	0.4049	0.1408	0.168
Mof_H 	H 	0.0525	0.3781	0.1382	-0.038
Mof_N 	N 	0.0308	0.461	0.1248	-0.01
Mof_N 	N 	0.0253	0.4217	0.1204	-0.062
Mof_C 	C 	0.21483	0.87442	0.82321	0.095
Mof_H 	H 	0.1958	0.8843	0.8395	-0.036
Mof_C 	C 	0.26502	0.84587	0.80365	-0.033
Mof_H 	H 	0.2881	0.8319	0.803	0.035
Mof_C 	C 	0.24674	0.8602	0.77221	0.059
Mof_C 	C 	0.2617	0.8504	0.7335	0.155
Mof_H 	H 	0.2839	0.8352	0.7335	-0.033
Mof_C 	C 	0.2057	0.8985	0.6713	-0.223
Mof_H 	H 	0.2226	0.8997	0.6503	0.079
Mof_N 	N 	0.249	0.8594	0.6994	-0.064
Mof_N 	N 	0.2152	0.8802	0.7028	-0.089
Mof_C 	C 	0.1677	0.9173	0.66958	0.05
Mof_C 	C 	0.148	0.9404	0.644	-0.035
Mof_H 	H 	0.154	0.9435	0.6179	0.029
Mof_C 	C 	0.12175	0.94563	0.6997	0.096
Mof_H 	H 	0.1049	0.953	0.7194	-0.039
Mof_N 	N 	0.21399	0.879	0.78499	-0.281
Mof_N 	N 	0.24519	0.85458	0.83614	-0.22
Mof_N 	N 	0.15119	0.92174	0.70519	-0.283
Mof_N 	N 	0.11851	0.95823	0.66295	-0.222
Mof_C 	C 	0.2491	0.8629	0.73	-0.218
Mof_H 	H 	0.2718	0.8561	0.7171	0.074
Mof_C 	C 	0.1978	0.8908	0.6549	0.168
Mof_H 	H 	0.1975	0.8882	0.6281	-0.038
Mof_N 	N 	0.2192	0.8748	0.711	-0.01
Mof_N 	N 	0.2247	0.8704	0.6717	-0.062
Mof_C 	C 	0.71483	0.37442	0.32321	0.095
Mof_H 	H 	0.6958	0.3843	0.3395	-0.036
Mof_C 	C 	0.76502	0.34587	0.30365	-0.033
Mof_H 	H 	0.7881	0.3319	0.303	0.035
Mof_C 	C 	0.74674	0.3602	0.27221	0.059
Mof_C 	C 	0.7617	0.3504	0.2335	0.155
Mof_H 	H 	0.7839	0.3352	0.2335	-0.033
Mof_C 	C 	0.7057	0.3985	0.1713	-0.223
Mof_H 	H 	0.7226	0.3997	0.1503	0.079
Mof_N 	N 	0.749	0.3594	0.1994	-0.064
Mof_N 	N 	0.7152	0.3802	0.2028	-0.089
Mof_C 	C 	0.6677	0.4173	0.16958	0.05
Mof_C 	C 	0.648	0.4404	0.144	-0.035
Mof_H 	H 	0.654	0.4435	0.1179	0.029
Mof_C 	C 	0.62175	0.44563	0.1997	0.096
Mof_H 	H 	0.6049	0.453	0.2194	-0.039
Mof_N 	N 	0.71399	0.379	0.28499	-0.281
Mof_N 	N 	0.74519	0.35458	0.33614	-0.22
Mof_N 	N 	0.65119	0.42174	0.20519	-0.283
Mof_N 	N 	0.61851	0.45823	0.16295	-0.222
Mof_C 	C 	0.7491	0.3629	0.23	-0.218
Mof_H 	H 	0.7718	0.3561	0.2171	0.074
Mof_C 	C 	0.6978	0.3908	0.1549	0.168
Mof_H 	H 	0.6975	0.3882	0.1281	-0.038
Mof_N 	N 	0.7192	0.3748	0.211	-0.01
Mof_N 	N 	0.7247	0.3704	0.1717	-0.062
Mof_C 	C 	0.28517	0.12558	0.32321	0.095
Mof_H 	H 	0.3042	0.1157	0.3395	-0.036
Mof_C 	C 	0.23498	0.15413	0.30365	-0.033
Mof_H 	H 	0.2119	0.1681	0.303	0.035
Mof_C 	C 	0.25326	0.1398	0.27221	0.059
Mof_C 	C 	0.2383	0.1496	0.2335	0.155
Mof_H 	H 	0.2161	0.1648	0.2335	-0.033
Mof_C 	C 	0.2943	0.1015	0.1713	-0.223
Mof_H 	H 	0.2774	0.1003	0.1503	0.079
Mof_N 	N 	0.251	0.1406	0.1994	-0.064
Mof_N 	N 	0.2848	0.1198	0.2028	-0.089
Mof_C 	C 	0.3323	0.0827	0.16958	0.05
Mof_C 	C 	0.352	0.0596	0.144	-0.035
Mof_H 	H 	0.346	0.0565	0.1179	0.029
Mof_C 	C 	0.37825	0.05437	0.1997	0.096
Mof_H 	H 	0.3951	0.047	0.2194	-0.039
Mof_N 	N 	0.28601	0.121	0.28499	-0.281
Mof_N 	N 	0.25481	0.14542	0.33614	-0.22
Mof_N 	N 	0.34881	0.07826	0.20519	-0.283
Mof_N 	N 	0.38149	0.04177	0.16295	-0.222
Mof_C 	C 	0.2509	0.1371	0.23	-0.218
Mof_H 	H 	0.2282	0.1439	0.2171	0.074
Mof_C 	C 	0.3022	0.1092	0.1549	0.168
Mof_H 	H 	0.3025	0.1118	0.1281	-0.038
Mof_N 	N 	0.2808	0.1252	0.211	-0.01
Mof_N 	N 	0.2753	0.1296	0.1717	-0.062
Mof_C 	C 	0.78517	0.62558	0.82321	0.095
Mof_H 	H 	0.8042	0.6157	0.8395	-0.036
Mof_C 	C 	0.73498	0.65413	0.80365	-0.033
Mof_H 	H 	0.7119	0.6681	0.803	0.035
Mof_C 	C 	0.75326	0.6398	0.77221	0.059
Mof_C 	C 	0.7383	0.6496	0.7335	0.155
Mof_H 	H 	0.7161	0.6648	0.7335	-0.033
Mof_C 	C 	0.7943	0.6015	0.6713	-0.223
Mof_H 	H 	0.7774	0.6003	0.6503	0.079
Mof_N 	N 	0.751	0.6406	0.6994	-0.064
Mof_N 	N 	0.7848	0.6198	0.7028	-0.089
Mof_C 	C 	0.8323	0.5827	0.66958	0.05
Mof_C 	C 	0.852	0.5596	0.644	-0.035
Mof_H 	H 	0.846	0.5565	0.6179	0.029
Mof_C 	C 	0.87825	0.55437	0.6997	0.096
Mof_H 	H 	0.8951	0.547	0.7194	-0.039
Mof_N 	N 	0.78601	0.621	0.78499	-0.281
Mof_N 	N 	0.75481	0.64542	0.83614	-0.22
Mof_N 	N 	0.84881	0.57826	0.70519	-0.283
Mof_N 	N 	0.88149	0.54177	0.66295	-0.222
Mof_C 	C 	0.7509	0.6371	0.73	-0.218
Mof_H 	H 	0.7282	0.6439	0.7171	0.074
Mof_C 	C 	0.8022	0.6092	0.6549	0.168
Mof_H 	H 	0.8025	0.6118	0.6281	-0.038
Mof_N 	N 	0.7808	0.6252	0.711	-0.01
Mof_N 	N 	0.7753	0.6296	0.6717	-0.062
Mof_C 	C 	0.71483	0.62558	0.17679	0.095
Mof_H 	H 	0.6958	0.6157	0.1605	-0.036
Mof_C 	C 	0.76502	0.65413	0.19635	-0.033
Mof_H 	H 	0.7881	0.6681	0.197	0.035
Mof_C 	C 	0.74674	0.6398	0.22779	0.059
Mof_C 	C 	0.7617	0.6496	0.2665	0.155
Mof_H 	H 	0.7839	0.6648	0.2665	-0.033
Mof_C 	C 	0.7057	0.6015	0.3287	-0.223
Mof_H 	H 	0.7226	0.6003	0.3497	0.079
Mof_N 	N 	0.749	0.6406	0.3006	-0.064
Mof_N 	N 	0.7152	0.6198	0.2972	-0.089
Mof_C 	C 	0.6677	0.5827	0.33042	0.05
Mof_C 	C 	0.648	0.5596	0.356	-0.035
Mof_H 	H 	0.654	0.5565	0.3821	0.029
Mof_C 	C 	0.62175	0.55437	0.3003	0.096
Mof_H 	H 	0.6049	0.547	0.2806	-0.039
Mof_N 	N 	0.71399	0.621	0.21501	-0.281
Mof_N 	N 	0.74519	0.64542	0.16386	-0.22
Mof_N 	N 	0.65119	0.57826	0.29481	-0.283
Mof_N 	N 	0.61851	0.54177	0.33705	-0.222
Mof_C 	C 	0.7491	0.6371	0.27	-0.218
Mof_H 	H 	0.7718	0.6439	0.2829	0.074
Mof_C 	C 	0.6978	0.6092	0.3451	0.168
Mof_H 	H 	0.6975	0.6118	0.3719	-0.038
Mof_N 	N 	0.7192	0.6252	0.289	-0.01
Mof_N 	N 	0.7247	0.6296	0.3283	-0.062
Mof_C 	C 	0.21483	0.12558	0.67679	0.095
Mof_H 	H 	0.1958	0.1157	0.6605	-0.036
Mof_C 	C 	0.26502	0.15413	0.69635	-0.033
Mof_H 	H 	0.2881	0.1681	0.697	0.035
Mof_C 	C 	0.24674	0.1398	0.72779	0.059
Mof_C 	C 	0.2617	0.1496	0.7665	0.155
Mof_H 	H 	0.2839	0.1648	0.7665	-0.033
Mof_C 	C 	0.2057	0.1015	0.8287	-0.223
Mof_H 	H 	0.2226	0.1003	0.8497	0.079
Mof_N 	N 	0.249	0.1406	0.8006	-0.064
Mof_N 	N 	0.2152	0.1198	0.7972	-0.089
Mof_C 	C 	0.1677	0.0827	0.83042	0.05
Mof_C 	C 	0.148	0.0596	0.856	-0.035
Mof_H 	H 	0.154	0.0565	0.8821	0.029
Mof_C 	C 	0.12175	0.05437	0.8003	0.096
Mof_H 	H 	0.1049	0.047	0.7806	-0.039
Mof_N 	N 	0.21399	0.121	0.71501	-0.281
Mof_N 	N 	0.24519	0.14542	0.66386	-0.22
Mof_N 	N 	0.15119	0.07826	0.79481	-0.283
Mof_N 	N 	0.11851	0.04177	0.83705	-0.222
Mof_C 	C 	0.2491	0.1371	0.77	-0.218
Mof_H 	H 	0.2718	0.1439	0.7829	0.074
Mof_C 	C 	0.1978	0.1092	0.8451	0.168
Mof_H 	H 	0.1975	0.1118	0.8719	-0.038
Mof_N 	N 	0.2192	0.1252	0.789	-0.01
Mof_N 	N 	0.2247	0.1296	0.8283	-0.062
Mof_C 	C 	0.78517	0.37442	0.67679	0.095
Mof_H 	H 	0.8042	0.3843	0.6605	-0.036
Mof_C 	C 	0.73498	0.34587	0.69635	-0.033
Mof_H 	H 	0.7119	0.3319	0.697	0.035
Mof_C 	C 	0.75326	0.3602	0.72779	0.059
Mof_C 	C 	0.7383	0.3504	0.7665	0.155
Mof_H 	H 	0.7161	0.3352	0.7665	-0.033
Mof_C 	C 	0.7943	0.3985	0.8287	-0.223
Mof_H 	H 	0.7774	0.3997	0.8497	0.079
Mof_N 	N 	0.751	0.3594	0.8006	-0.064
Mof_N 	N 	0.7848	0.3802	0.7972	-0.089
Mof_C 	C 	0.8323	0.4173	0.83042	0.05
Mof_C 	C 	0.852	0.4404	0.856	-0.035
Mof_H 	H 	0.846	0.4435	0.8821	0.029
Mof_C 	C 	0.87825	0.44563	0.8003	0.096
Mof_H 	H 	0.8951	0.453	0.7806	-0.039
Mof_N 	N 	0.78601	0.379	0.71501	-0.281
Mof_N 	N 	0.75481	0.35458	0.66386	-0.22
Mof_N 	N 	0.84881	0.42174	0.79481	-0.283
Mof_N 	N 	0.88149	0.45823	0.83705	-0.222
Mof_C 	C 	0.7509	0.3629	0.77	-0.218
Mof_H 	H 	0.7282	0.3561	0.7829	0.074
Mof_C 	C 	0.8022	0.3908	0.8451	0.168
Mof_H 	H 	0.8025	0.3882	0.8719	-0.038
Mof_N 	N 	0.7808	0.3748	0.789	-0.01
Mof_N 	N 	0.7753	0.3704	0.8283	-0.062
Mof_C 	C 	0.28517	0.87442	0.17679	0.095
Mof_H 	H 	0.3042	0.8843	0.1605	-0.036
Mof_C 	C 	0.23498	0.84587	0.19635	-0.033
Mof_H 	H 	0.2119	0.8319	0.197	0.035
Mof_C 	C 	0.25326	0.8602	0.22779	0.059
Mof_C 	C 	0.2383	0.8504	0.2665	0.155
Mof_H 	H 	0.2161	0.8352	0.2665	-0.033
Mof_C 	C 	0.2943	0.8985	0.3287	-0.223
Mof_H 	H 	0.2774	0.8997	0.3497	0.079
Mof_N 	N 	0.251	0.8594	0.3006	-0.064
Mof_N 	N 	0.2848	0.8802	0.2972	-0.089
Mof_C 	C 	0.3323	0.9173	0.33042	0.05
Mof_C 	C 	0.352	0.9404	0.356	-0.035
Mof_H 	H 	0.346	0.9435	0.3821	0.029
Mof_C 	C 	0.37825	0.94563	0.3003	0.096
Mof_H 	H 	0.3951	0.953	0.2806	-0.039
Mof_N 	N 	0.28601	0.879	0.21501	-0.281
Mof_N 	N 	0.25481	0.85458	0.16386	-0.22
Mof_N 	N 	0.34881	0.92174	0.29481	-0.283
Mof_N 	N 	0.38149	0.95823	0.33705	-0.222
Mof_C 	C 	0.2509	0.8629	0.27	-0.218
Mof_H 	H 	0.2282	0.8561	0.2829	0.074
Mof_C 	C 	0.3022	0.8908	0.3451	0.168
Mof_H 	H 	0.3025	0.8882	0.3719	-0.038
Mof_N 	N 	0.2808	0.8748	0.289	-0.01
Mof_N 	N 	0.2753	0.8704	0.3283	-0.062
Mof_C 	C 	0.37442	0.67679	0.78517	0.095
Mof_H 	H 	0.3843	0.6605	0.8042	-0.036
Mof_C 	C 	0.34587	0.69635	0.73498	-0.033
Mof_H 	H 	0.3319	0.697	0.7119	0.035
Mof_C 	C 	0.3602	0.72779	0.75326	0.059
Mof_C 	C 	0.3504	0.7665	0.7383	0.155
Mof_H 	H 	0.3352	0.7665	0.7161	-0.033
Mof_C 	C 	0.3985	0.8287	0.7943	-0.223
Mof_H 	H 	0.3997	0.8497	0.7774	0.079
Mof_N 	N 	0.3594	0.8006	0.751	-0.064
Mof_N 	N 	0.3802	0.7972	0.7848	-0.089
Mof_C 	C 	0.4173	0.83042	0.8323	0.05
Mof_C 	C 	0.4404	0.856	0.852	-0.035
Mof_H 	H 	0.4435	0.8821	0.846	0.029
Mof_C 	C 	0.44563	0.8003	0.87825	0.096
Mof_H 	H 	0.453	0.7806	0.8951	-0.039
Mof_N 	N 	0.379	0.71501	0.78601	-0.281
Mof_N 	N 	0.35458	0.66386	0.75481	-0.22
Mof_N 	N 	0.42174	0.79481	0.84881	-0.283
Mof_N 	N 	0.45823	0.83705	0.88149	-0.222
Mof_C 	C 	0.3629	0.77	0.7509	-0.218
Mof_H 	H 	0.3561	0.7829	0.7282	0.074
Mof_C 	C 	0.3908	0.8451	0.8022	0.168
Mof_H 	H 	0.3882	0.8719	0.8025	-0.038
Mof_N 	N 	0.3748	0.789	0.7808	-0.01
Mof_N 	N 	0.3704	0.8283	0.7753	-0.062
Mof_C 	C 	0.87442	0.17679	0.28517	0.095
Mof_H 	H 	0.8843	0.1605	0.3042	-0.036
Mof_C 	C 	0.84587	0.19635	0.23498	-0.033
Mof_H 	H 	0.8319	0.197	0.2119	0.035
Mof_C 	C 	0.8602	0.22779	0.25326	0.059
Mof_C 	C 	0.8504	0.2665	0.2383	0.155
Mof_H 	H 	0.8352	0.2665	0.2161	-0.033
Mof_C 	C 	0.8985	0.3287	0.2943	-0.223
Mof_H 	H 	0.8997	0.3497	0.2774	0.079
Mof_N 	N 	0.8594	0.3006	0.251	-0.064
Mof_N 	N 	0.8802	0.2972	0.2848	-0.089
Mof_C 	C 	0.9173	0.33042	0.3323	0.05
Mof_C 	C 	0.9404	0.356	0.352	-0.035
Mof_H 	H 	0.9435	0.3821	0.346	0.029
Mof_C 	C 	0.94563	0.3003	0.37825	0.096
Mof_H 	H 	0.953	0.2806	0.3951	-0.039
Mof_N 	N 	0.879	0.21501	0.28601	-0.281
Mof_N 	N 	0.85458	0.16386	0.25481	-0.22
Mof_N 	N 	0.92174	0.29481	0.34881	-0.283
Mof_N 	N 	0.95823	0.33705	0.38149	-0.222
Mof_C 	C 	0.8629	0.27	0.2509	-0.218
Mof_H 	H 	0.8561	0.2829	0.2282	0.074
Mof_C 	C 	0.8908	0.3451	0.3022	0.168
Mof_H 	H 	0.8882	0.3719	0.3025	-0.038
Mof_N 	N 	0.8748	0.289	0.2808	-0.01
Mof_N 	N 	0.8704	0.3283	0.2753	-0.062
Mof_C 	C 	0.62558	0.17679	0.71483	0.095
Mof_H 	H 	0.6157	0.1605	0.6958	-0.036
Mof_C 	C 	0.65413	0.19635	0.76502	-0.033
Mof_H 	H 	0.6681	0.197	0.7881	0.035
Mof_C 	C 	0.6398	0.22779	0.74674	0.059
Mof_C 	C 	0.6496	0.2665	0.7617	0.155
Mof_H 	H 	0.6648	0.2665	0.7839	-0.033
Mof_C 	C 	0.6015	0.3287	0.7057	-0.223
Mof_H 	H 	0.6003	0.3497	0.7226	0.079
Mof_N 	N 	0.6406	0.3006	0.749	-0.064
Mof_N 	N 	0.6198	0.2972	0.7152	-0.089
Mof_C 	C 	0.5827	0.33042	0.6677	0.05
Mof_C 	C 	0.5596	0.356	0.648	-0.035
Mof_H 	H 	0.5565	0.3821	0.654	0.029
Mof_C 	C 	0.55437	0.3003	0.62175	0.096
Mof_H 	H 	0.547	0.2806	0.6049	-0.039
Mof_N 	N 	0.621	0.21501	0.71399	-0.281
Mof_N 	N 	0.64542	0.16386	0.74519	-0.22
Mof_N 	N 	0.57826	0.29481	0.65119	-0.283
Mof_N 	N 	0.54177	0.33705	0.61851	-0.222
Mof_C 	C 	0.6371	0.27	0.7491	-0.218
Mof_H 	H 	0.6439	0.2829	0.7718	0.074
Mof_C 	C 	0.6092	0.3451	0.6978	0.168
Mof_H 	H 	0.6118	0.3719	0.6975	-0.038
Mof_N 	N 	0.6252	0.289	0.7192	-0.01
Mof_N 	N 	0.6296	0.3283	0.7247	-0.062
Mof_C 	C 	0.12558	0.67679	0.21483	0.095
Mof_H 	H 	0.1157	0.6605	0.1958	-0.036
Mof_C 	C 	0.15413	0.69635	0.26502	-0.033
Mof_H 	H 	0.1681	0.697	0.2881	0.035
Mof_C 	C 	0.1398	0.72779	0.24674	0.059
Mof_C 	C 	0.1496	0.7665	0.2617	0.155
Mof_H 	H 	0.1648	0.7665	0.2839	-0.033
Mof_C 	C 	0.1015	0.8287	0.2057	-0.223
Mof_H 	H 	0.1003	0.8497	0.2226	0.079
Mof_N 	N 	0.1406	0.8006	0.249	-0.064
Mof_N 	N 	0.1198	0.7972	0.2152	-0.089
Mof_C 	C 	0.0827	0.83042	0.1677	0.05
Mof_C 	C 	0.0596	0.856	0.148	-0.035
Mof_H 	H 	0.0565	0.8821	0.154	0.029
Mof_C 	C 	0.05437	0.8003	0.12175	0.096
Mof_H 	H 	0.047	0.7806	0.1049	-0.039
Mof_N 	N 	0.121	0.71501	0.21399	-0.281
Mof_N 	N 	0.14542	0.66386	0.24519	-0.22
Mof_N 	N 	0.07826	0.79481	0.15119	-0.283
Mof_N 	N 	0.04177	0.83705	0.11851	-0.222
Mof_C 	C 	0.1371	0.77	0.2491	-0.218
Mof_H 	H 	0.1439	0.7829	0.2718	0.074
Mof_C 	C 	0.1092	0.8451	0.1978	0.168
Mof_H 	H 	0.1118	0.8719	0.1975	-0.038
Mof_N 	N 	0.1252	0.789	0.2192	-0.01
Mof_N 	N 	0.1296	0.8283	0.2247	-0.062
Mof_C 	C 	0.12558	0.32321	0.28517	0.095
Mof_H 	H 	0.1157	0.3395	0.3042	-0.036
Mof_C 	C 	0.15413	0.30365	0.23498	-0.033
Mof_H 	H 	0.1681	0.303	0.2119	0.035
Mof_C 	C 	0.1398	0.27221	0.25326	0.059
Mof_C 	C 	0.1496	0.2335	0.2383	0.155
Mof_H 	H 	0.1648	0.2335	0.2161	-0.033
Mof_C 	C 	0.1015	0.1713	0.2943	-0.223
Mof_H 	H 	0.1003	0.1503	0.2774	0.079
Mof_N 	N 	0.1406	0.1994	0.251	-0.064
Mof_N 	N 	0.1198	0.2028	0.2848	-0.089
Mof_C 	C 	0.0827	0.16958	0.3323	0.05
Mof_C 	C 	0.0596	0.144	0.352	-0.035
Mof_H 	H 	0.0565	0.1179	0.346	0.029
Mof_C 	C 	0.05437	0.1997	0.37825	0.096
Mof_H 	H 	0.047	0.2194	0.3951	-0.039
Mof_N 	N 	0.121	0.28499	0.28601	-0.281
Mof_N 	N 	0.14542	0.33614	0.25481	-0.22
Mof_N 	N 	0.07826	0.20519	0.34881	-0.283
Mof_N 	N 	0.04177	0.16295	0.38149	-0.222
Mof_C 	C 	0.1371	0.23	0.2509	-0.218
Mof_H 	H 	0.1439	0.2171	0.2282	0.074
Mof_C 	C 	0.1092	0.1549	0.3022	0.168
Mof_H 	H 	0.1118	0.1281	0.3025	-0.038
Mof_N 	N 	0.1252	0.211	0.2808	-0.01
Mof_N 	N 	0.1296	0.1717	0.2753	-0.062
Mof_C 	C 	0.62558	0.82321	0.78517	0.095
Mof_H 	H 	0.6157	0.8395	0.8042	-0.036
Mof_C 	C 	0.65413	0.80365	0.73498	-0.033
Mof_H 	H 	0.6681	0.803	0.7119	0.035
Mof_C 	C 	0.6398	0.77221	0.75326	0.059
Mof_C 	C 	0.6496	0.7335	0.7383	0.155
Mof_H 	H 	0.6648	0.7335	0.7161	-0.033
Mof_C 	C 	0.6015	0.6713	0.7943	-0.223
Mof_H 	H 	0.6003	0.6503	0.7774	0.079
Mof_N 	N 	0.6406	0.6994	0.751	-0.064
Mof_N 	N 	0.6198	0.7028	0.7848	-0.089
Mof_C 	C 	0.5827	0.66958	0.8323	0.05
Mof_C 	C 	0.5596	0.644	0.852	-0.035
Mof_H 	H 	0.5565	0.6179	0.846	0.029
Mof_C 	C 	0.55437	0.6997	0.87825	0.096
Mof_H 	H 	0.547	0.7194	0.8951	-0.039
Mof_N 	N 	0.621	0.78499	0.78601	-0.281
Mof_N 	N 	0.64542	0.83614	0.75481	-0.22
Mof_N 	N 	0.57826	0.70519	0.84881	-0.283
Mof_N 	N 	0.54177	0.66295	0.88149	-0.222
Mof_C 	C 	0.6371	0.73	0.7509	-0.218
Mof_H 	H 	0.6439	0.7171	0.7282	0.074
Mof_C 	C 	0.6092	0.6549	0.8022	0.168
Mof_H 	H 	0.6118	0.6281	0.8025	-0.038
Mof_N 	N 	0.6252	0.711	0.7808	-0.01
Mof_N 	N 	0.6296	0.6717	0.7753	-0.062
Mof_C 	C 	0.87442	0.82321	0.21483	0.095
Mof_H 	H 	0.8843	0.8395	0.1958	-0.036
Mof_C 	C 	0.84587	0.80365	0.26502	-0.033
Mof_H 	H 	0.8319	0.803	0.2881	0.035
Mof_C 	C 	0.8602	0.77221	0.24674	0.059
Mof_C 	C 	0.8504	0.7335	0.2617	0.155
Mof_H 	H 	0.8352	0.7335	0.2839	-0.033
Mof_C 	C 	0.8985	0.6713	0.2057	-0.223
Mof_H 	H 	0.8997	0.6503	0.2226	0.079
Mof_N 	N 	0.8594	0.6994	0.249	-0.064
Mof_N 	N 	0.8802	0.7028	0.2152	-0.089
Mof_C 	C 	0.9173	0.66958	0.1677	0.05
Mof_C 	C 	0.9404	0.644	0.148	-0.035
Mof_H 	H 	0.9435	0.6179	0.154	0.029
Mof_C 	C 	0.94563	0.6997	0.12175	0.096
Mof_H 	H 	0.953	0.7194	0.1049	-0.039
Mof_N 	N 	0.879	0.78499	0.21399	-0.281
Mof_N 	N 	0.85458	0.83614	0.24519	-0.22
Mof_N 	N 	0.92174	0.70519	0.15119	-0.283
Mof_N 	N 	0.95823	0.66295	0.11851	-0.222
Mof_C 	C 	0.8629	0.73	0.2491	-0.218
Mof_H 	H 	0.8561	0.7171	0.2718	0.074
Mof_C 	C 	0.8908	0.6549	0.1978	0.168
Mof_H 	H 	0.8882	0.6281	0.1975	-0.038
Mof_N 	N 	0.8748	0.711	0.2192	-0.01
Mof_N 	N 	0.8704	0.6717	0.2247	-0.062
Mof_C 	C 	0.37442	0.32321	0.71483	0.095
Mof_H 	H 	0.3843	0.3395	0.6958	-0.036
Mof_C 	C 	0.34587	0.30365	0.76502	-0.033
Mof_H 	H 	0.3319	0.303	0.7881	0.035
Mof_C 	C 	0.3602	0.27221	0.74674	0.059
Mof_C 	C 	0.3504	0.2335	0.7617	0.155
Mof_H 	H 	0.3352	0.2335	0.7839	-0.033
Mof_C 	C 	0.3985	0.1713	0.7057	-0.223
Mof_H 	H 	0.3997	0.1503	0.7226	0.079
Mof_N 	N 	0.3594	0.1994	0.749	-0.064
Mof_N 	N 	0.3802	0.2028	0.7152	-0.089
Mof_C 	C 	0.4173	0.16958	0.6677	0.05
Mof_C 	C 	0.4404	0.144	0.648	-0.035
Mof_H 	H 	0.4435	0.1179	0.654	0.029
Mof_C 	C 	0.44563	0.1997	0.62175	0.096
Mof_H 	H 	0.453	0.2194	0.6049	-0.039
Mof_N 	N 	0.379	0.28499	0.71399	-0.281
Mof_N 	N 	0.35458	0.33614	0.74519	-0.22
Mof_N 	N 	0.42174	0.20519	0.65119	-0.283
Mof_N 	N 	0.45823	0.16295	0.61851	-0.222
Mof_C 	C 	0.3629	0.23	0.7491	-0.218
Mof_H 	H 	0.3561	0.2171	0.7718	0.074
Mof_C 	C 	0.3908	0.1549	0.6978	0.168
Mof_H 	H 	0.3882	0.1281	0.6975	-0.038
Mof_N 	N 	0.3748	0.211	0.7192	-0.01
Mof_N 	N 	0.3704	0.1717	0.7247	-0.062
Mof_C 	C 	0.17679	0.71483	0.62558	0.095
Mof_H 	H 	0.1605	0.6958	0.6157	-0.036
Mof_C 	C 	0.19635	0.76502	0.65413	-0.033
Mof_H 	H 	0.197	0.7881	0.6681	0.035
Mof_C 	C 	0.22779	0.74674	0.6398	0.059
Mof_C 	C 	0.2665	0.7617	0.6496	0.155
Mof_H 	H 	0.2665	0.7839	0.6648	-0.033
Mof_C 	C 	0.3287	0.7057	0.6015	-0.223
Mof_H 	H 	0.3497	0.7226	0.6003	0.079
Mof_N 	N 	0.3006	0.749	0.6406	-0.064
Mof_N 	N 	0.2972	0.7152	0.6198	-0.089
Mof_C 	C 	0.33042	0.6677	0.5827	0.05
Mof_C 	C 	0.356	0.648	0.5596	-0.035
Mof_H 	H 	0.3821	0.654	0.5565	0.029
Mof_C 	C 	0.3003	0.62175	0.55437	0.096
Mof_H 	H 	0.2806	0.6049	0.547	-0.039
Mof_N 	N 	0.21501	0.71399	0.621	-0.281
Mof_N 	N 	0.16386	0.74519	0.64542	-0.22
Mof_N 	N 	0.29481	0.65119	0.57826	-0.283
Mof_N 	N 	0.33705	0.61851	0.54177	-0.222
Mof_C 	C 	0.27	0.7491	0.6371	-0.218
Mof_H 	H 	0.2829	0.7718	0.6439	0.074
Mof_C 	C 	0.3451	0.6978	0.6092	0.168
Mof_H 	H 	0.3719	0.6975	0.6118	-0.038
Mof_N 	N 	0.289	0.7192	0.6252	-0.01
Mof_N 	N 	0.3283	0.7247	0.6296	-0.062
Mof_C 	C 	0.67679	0.21483	0.12558	0.095
Mof_H 	H 	0.6605	0.1958	0.1157	-0.036
Mof_C 	C 	0.69635	0.26502	0.15413	-0.033
Mof_H 	H 	0.697	0.2881	0.1681	0.035
Mof_C 	C 	0.72779	0.24674	0.1398	0.059
Mof_C 	C 	0.7665	0.2617	0.1496	0.155
Mof_H 	H 	0.7665	0.2839	0.1648	-0.033
Mof_C 	C 	0.8287	0.2057	0.1015	-0.223
Mof_H 	H 	0.8497	0.2226	0.1003	0.079
Mof_N 	N 	0.8006	0.249	0.1406	-0.064
Mof_N 	N 	0.7972	0.2152	0.1198	-0.089
Mof_C 	C 	0.83042	0.1677	0.0827	0.05
Mof_C 	C 	0.856	0.148	0.0596	-0.035
Mof_H 	H 	0.8821	0.154	0.0565	0.029
Mof_C 	C 	0.8003	0.12175	0.05437	0.096
Mof_H 	H 	0.7806	0.1049	0.047	-0.039
Mof_N 	N 	0.71501	0.21399	0.121	-0.281
Mof_N 	N 	0.66386	0.24519	0.14542	-0.22
Mof_N 	N 	0.79481	0.15119	0.07826	-0.283
Mof_N 	N 	0.83705	0.11851	0.04177	-0.222
Mof_C 	C 	0.77	0.2491	0.1371	-0.218
Mof_H 	H 	0.7829	0.2718	0.1439	0.074
Mof_C 	C 	0.8451	0.1978	0.1092	0.168
Mof_H 	H 	0.8719	0.1975	0.1118	-0.038
Mof_N 	N 	0.789	0.2192	0.1252	-0.01
Mof_N 	N 	0.8283	0.2247	0.1296	-0.062
Mof_C 	C 	0.67679	0.78517	0.37442	0.095
Mof_H 	H 	0.6605	0.8042	0.3843	-0.036
Mof_C 	C 	0.69635	0.73498	0.34587	-0.033
Mof_H 	H 	0.697	0.7119	0.3319	0.035
Mof_C 	C 	0.72779	0.75326	0.3602	0.059
Mof_C 	C 	0.7665	0.7383	0.3504	0.155
Mof_H 	H 	0.7665	0.7161	0.3352	-0.033
Mof_C 	C 	0.8287	0.7943	0.3985	-0.223
Mof_H 	H 	0.8497	0.7774	0.3997	0.079
Mof_N 	N 	0.8006	0.751	0.3594	-0.064
Mof_N 	N 	0.7972	0.7848	0.3802	-0.089
Mof_C 	C 	0.83042	0.8323	0.4173	0.05
Mof_C 	C 	0.856	0.852	0.4404	-0.035
Mof_H 	H 	0.8821	0.846	0.4435	0.029
Mof_C 	C 	0.8003	0.87825	0.44563	0.096
Mof_H 	H 	0.7806	0.8951	0.453	-0.039
Mof_N 	N 	0.71501	0.78601	0.379	-0.281
Mof_N 	N 	0.66386	0.75481	0.35458	-0.22
Mof_N 	N 	0.79481	0.84881	0.42174	-0.283
Mof_N 	N 	0.83705	0.88149	0.45823	-0.222
Mof_C 	C 	0.77	0.7509	0.3629	-0.218
Mof_H 	H 	0.7829	0.7282	0.3561	0.074
Mof_C 	C 	0.8451	0.8022	0.3908	0.168
Mof_H 	H 	0.8719	0.8025	0.3882	-0.038
Mof_N 	N 	0.789	0.7808	0.3748	-0.01
Mof_N 	N 	0.8283	0.7753	0.3704	-0.062
Mof_C 	C 	0.17679	0.28517	0.87442	0.095
Mof_H 	H 	0.1605	0.3042	0.8843	-0.036
Mof_C 	C 	0.19635	0.23498	0.84587	-0.033
Mof_H 	H 	0.197	0.2119	0.8319	0.035
Mof_C 	C 	0.22779	0.25326	0.8602	0.059
Mof_C 	C 	0.2665	0.2383	0.8504	0.155
Mof_H 	H 	0.2665	0.2161	0.8352	-0.033
Mof_C 	C 	0.3287	0.2943	0.8985	-0.223
Mof_H 	H 	0.3497	0.2774	0.8997	0.079
Mof_N 	N 	0.3006	0.251	0.8594	-0.064
Mof_N 	N 	0.2972	0.2848	0.8802	-0.089
Mof_C 	C 	0.33042	0.3323	0.9173	0.05
Mof_C 	C 	0.356	0.352	0.9404	-0.035
Mof_H 	H 	0.3821	0.346	0.9435	0.029
Mof_C 	C 	0.3003	0.37825	0.94563	0.096
Mof_H 	H 	0.2806	0.3951	0.953	-0.039
Mof_N 	N 	0.21501	0.28601	0.879	-0.281
Mof_N 	N 	0.16386	0.25481	0.85458	-0.22
Mof_N 	N 	0.29481	0.34881	0.92174	-0.283
Mof_N 	N 	0.33705	0.38149	0.95823	-0.222
Mof_C 	C 	0.27	0.2509	0.8629	-0.218
Mof_H 	H 	0.2829	0.2282	0.8561	0.074
Mof_C 	C 	0.3451	0.3022	0.8908	0.168
Mof_H 	H 	0.3719	0.3025	0.8882	-0.038
Mof_N 	N 	0.289	0.2808	0.8748	-0.01
Mof_N 	N 	0.3283	0.2753	0.8704	-0.062
Mof_C 	C 	0.82321	0.21483	0.87442	0.095
Mof_H 	H 	0.8395	0.1958	0.8843	-0.036
Mof_C 	C 	0.80365	0.26502	0.84587	-0.033
Mof_H 	H 	0.803	0.2881	0.8319	0.035
Mof_C 	C 	0.77221	0.24674	0.8602	0.059
Mof_C 	C 	0.7335	0.2617	0.8504	0.155
Mof_H 	H 	0.7335	0.2839	0.8352	-0.033
Mof_C 	C 	0.6713	0.2057	0.8985	-0.223
Mof_H 	H 	0.6503	0.2226	0.8997	0.079
Mof_N 	N 	0.6994	0.249	0.8594	-0.064
Mof_N 	N 	0.7028	0.2152	0.8802	-0.089
Mof_C 	C 	0.66958	0.1677	0.9173	0.05
Mof_C 	C 	0.644	0.148	0.9404	-0.035
Mof_H 	H 	0.6179	0.154	0.9435	0.029
Mof_C 	C 	0.6997	0.12175	0.94563	0.096
Mof_H 	H 	0.7194	0.1049	0.953	-0.039
Mof_N 	N 	0.78499	0.21399	0.879	-0.281
Mof_N 	N 	0.83614	0.24519	0.85458	-0.22
Mof_N 	N 	0.70519	0.15119	0.92174	-0.283
Mof_N 	N 	0.66295	0.11851	0.95823	-0.222
Mof_C 	C 	0.73	0.2491	0.8629	-0.218
Mof_H 	H 	0.7171	0.2718	0.8561	0.074
Mof_C 	C 	0.6549	0.1978	0.8908	0.168
Mof_H 	H 	0.6281	0.1975	0.8882	-0.038
Mof_N 	N 	0.711	0.2192	0.8748	-0.01
Mof_N 	N 	0.6717	0.2247	0.8704	-0.062
Mof_C 	C 	0.32321	0.71483	0.37442	0.095
Mof_H 	H 	0.3395	0.6958	0.3843	-0.036
Mof_C 	C 	0.30365	0.76502	0.34587	-0.033
Mof_H 	H 	0.303	0.7881	0.3319	0.035
Mof_C 	C 	0.27221	0.74674	0.3602	0.059
Mof_C 	C 	0.2335	0.7617	0.3504	0.155
Mof_H 	H 	0.2335	0.7839	0.3352	-0.033
Mof_C 	C 	0.1713	0.7057	0.3985	-0.223
Mof_H 	H 	0.1503	0.7226	0.3997	0.079
Mof_N 	N 	0.1994	0.749	0.3594	-0.064
Mof_N 	N 	0.2028	0.7152	0.3802	-0.089
Mof_C 	C 	0.16958	0.6677	0.4173	0.05
Mof_C 	C 	0.144	0.648	0.4404	-0.035
Mof_H 	H 	0.1179	0.654	0.4435	0.029
Mof_C 	C 	0.1997	0.62175	0.44563	0.096
Mof_H 	H 	0.2194	0.6049	0.453	-0.039
Mof_N 	N 	0.28499	0.71399	0.379	-0.281
Mof_N 	N 	0.33614	0.74519	0.35458	-0.22
Mof_N 	N 	0.20519	0.65119	0.42174	-0.283
Mof_N 	N 	0.16295	0.61851	0.45823	-0.222
Mof_C 	C 	0.23	0.7491	0.3629	-0.218
Mof_H 	H 	0.2171	0.7718	0.3561	0.074
Mof_C 	C 	0.1549	0.6978	0.3908	0.168
Mof_H 	H 	0.1281	0.6975	0.3882	-0.038
Mof_N 	N 	0.211	0.7192	0.3748	-0.01
Mof_N 	N 	0.1717	0.7247	0.3704	-0.062
Mof_C 	C 	0.32321	0.28517	0.12558	0.095
Mof_H 	H 	0.3395	0.3042	0.1157	-0.036
Mof_C 	C 	0.30365	0.23498	0.15413	-0.033
Mof_H 	H 	0.303	0.2119	0.1681	0.035
Mof_C 	C 	0.27221	0.25326	0.1398	0.059
Mof_C 	C 	0.2335	0.2383	0.1496	0.155
Mof_H 	H 	0.2335	0.2161	0.1648	-0.033
Mof_C 	C 	0.1713	0.2943	0.1015	-0.223
Mof_H 	H 	0.1503	0.2774	0.1003	0.079
Mof_N 	N 	0.1994	0.251	0.1406	-0.064
Mof_N 	N 	0.2028	0.2848	0.1198	-0.089
Mof_C 	C 	0.16958	0.3323	0.0827	0.05
Mof_C 	C 	0.144	0.352	0.0596	-0.035
Mof_H 	H 	0.1179	0.346	0.0565	0.029
Mof_C 	C 	0.1997	0.37825	0.05437	0.096
Mof_H 	H 	0.2194	0.3951	0.047	-0.039
Mof_N 	N 	0.28499	0.28601	0.121	-0.281
Mof_N 	N 	0.33614	0.25481	0.14542	-0.22
Mof_N 	N 	0.20519	0.34881	0.07826	-0.283
Mof_N 	N 	0.16295	0.38149	0.04177	-0.222
Mof_C 	C 	0.23	0.2509	0.1371	-0.218
Mof_H 	H 	0.2171	0.2282	0.1439	0.074
Mof_C 	C 	0.1549	0.3022	0.1092	0.168
Mof_H 	H 	0.1281	0.3025	0.1118	-0.038
Mof_N 	N 	0.211	0.2808	0.1252	-0.01
Mof_N 	N 	0.1717	0.2753	0.1296	-0.062
Mof_C 	C 	0.82321	0.78517	0.62558	0.095
Mof_H 	H 	0.8395	0.8042	0.6157	-0.036
Mof_C 	C 	0.80365	0.73498	0.65413	-0.033
Mof_H 	H 	0.803	0.7119	0.6681	0.035
Mof_C 	C 	0.77221	0.75326	0.6398	0.059
Mof_C 	C 	0.7335	0.7383	0.6496	0.155
Mof_H 	H 	0.7335	0.7161	0.6648	-0.033
Mof_C 	C 	0.6713	0.7943	0.6015	-0.223
Mof_H 	H 	0.6503	0.7774	0.6003	0.079
Mof_N 	N 	0.6994	0.751	0.6406	-0.064
Mof_N 	N 	0.7028	0.7848	0.6198	-0.089
Mof_C 	C 	0.66958	0.8323	0.5827	0.05
Mof_C 	C 	0.644	0.852	0.5596	-0.035
Mof_H 	H 	0.6179	0.846	0.5565	0.029
Mof_C 	C 	0.6997	0.87825	0.55437	0.096
Mof_H 	H 	0.7194	0.8951	0.547	-0.039
Mof_N 	N 	0.78499	0.78601	0.621	-0.281
Mof_N 	N 	0.83614	0.75481	0.64542	-0.22
Mof_N 	N 	0.70519	0.84881	0.57826	-0.283
Mof_N 	N 	0.66295	0.88149	0.54177	-0.222
Mof_C 	C 	0.73	0.7509	0.6371	-0.218
Mof_H 	H 	0.7171	0.7282	0.6439	0.074
Mof_C 	C 	0.6549	0.8022	0.6092	0.168
Mof_H 	H 	0.6281	0.8025	0.6118	-0.038
Mof_N 	N 	0.711	0.7808	0.6252	-0.01
Mof_N 	N 	0.6717	0.7753	0.6296	-0.062
_end
