# CIF file generated by openbabel 3.1.0, see https://openbabel.org
data_I
_chemical_name_common 'image0'
_cell_length_a 9.3228
_cell_length_b 11.252
_cell_length_c 18.825
_cell_angle_alpha 79.409
_cell_angle_beta 79.479
_cell_angle_gamma 66.275
_space_group_name_H-M_alt 'P 1'
_space_group_name_Hall 'P 1'
loop_
    _symmetry_equiv_pos_as_xyz
    x,y,z
loop_
    _atom_site_label
    _atom_site_type_symbol
    _atom_site_fract_x
    _atom_site_fract_y
    _atom_site_fract_z
    _atom_site_occupancy
    Ni1      Ni       0.60585    0.31314    0.21663    1.000
    O1       O        0.51880    0.27310    0.13380    1.000
    O2       O        0.15350    0.41200    0.57770    1.000
    N1       N        0.43240    0.50910    0.21280    1.000
    N2       N        0.00140    0.68370    0.50300    1.000
    N3       N        0.74880    0.38600    0.13600    1.000
    O3       O        0.50030    0.33870    0.56420    1.000
    N4       N        0.78820    0.12180    0.21830    1.000
    C1       C        0.00030    0.93340    0.50070    1.000
    O4       O        0.80540    0.53880    0.58160    1.000
    O5       O        0.48410    0.15290    0.55040    1.000
    C2       C        0.96200    0.92730    0.28080    1.000
    H1       H        0.99050    0.87770    0.32500    1.000
    C3       C        0.42230    0.11380    0.78690    1.000
    H2       H        0.48250    0.04480    0.81810    1.000
    C4       C        0.44670    0.23620    0.00140    1.000
    H3       H        0.52610    0.26750    0.99870    1.000
    C5       C        0.40750    0.23140    0.13840    1.000
    C6       C        0.46160    0.24280    0.58670    1.000
    C7       C        0.99250    0.96090    0.15150    1.000
    H4       H        0.04260    0.93450    0.10640    1.000
    C8       C        0.21670    0.68010    0.15830    1.000
    H5       H        0.15780    0.71190    0.11920    1.000
    O6       O        0.32430    0.21120    0.19600    1.000
    C9       C        0.39080    0.22990    0.66540    1.000
    C10      C        0.04690    0.88200    0.21590    1.000
    C11      C        0.24110    0.31630    0.69310    1.000
    C12      C        0.73790    0.40020    0.06490    1.000
    H6       H        0.66150    0.37860    0.05100    1.000
    O7       O        0.21540    0.17630    0.88380    1.000
    C13      C        0.37450    0.20580    0.06860    1.000
    C14      C        0.18090    0.75360    0.21520    1.000
    C15      C        0.13220    0.70190    0.50150    1.000
    H7       H        0.22660    0.62910    0.50100    1.000
    C16      C        0.94720    0.47670    0.02770    1.000
    C17      C        0.86700    0.07530    0.15590    1.000
    H8       H        0.83300    0.12530    0.11250    1.000
    C18      C        0.47880    0.12890    0.71280    1.000
    H9       H        0.57690    0.07020    0.69540    1.000
    C19      C        0.13800    0.82340    0.50050    1.000
    H10      H        0.23410    0.83070    0.49970    1.000
    O8       O        0.00900    0.50420    0.67520    1.000
    C20      C        0.12720    0.42020    0.64360    1.000
    C21      C        0.83470    0.04640    0.27980    1.000
    H11      H        0.77950    0.07480    0.32390    1.000
    C22      C        0.28270    0.18050    0.94270    1.000
    C23      C        0.19080    0.29880    0.76720    1.000
    H12      H        0.09340    0.35650    0.78610    1.000
    C24      C        0.95790    0.46610    0.10010    1.000
    H13      H        0.03240    0.48860    0.11510    1.000
    C25      C        0.40510    0.22170    0.93780    1.000
    H14      H        0.45830    0.23930    0.89280    1.000
    C26      C        0.83180    0.44460    0.01060    1.000
    H15      H        0.81660    0.45290    0.96220    1.000
    C27      C        0.27830    0.70420    0.26810    1.000
    H16      H        0.26260    0.75130    0.30650    1.000
    C28      C        0.28210    0.19830    0.81270    1.000
    C29      C        0.33890    0.56080    0.15960    1.000
    H17      H        0.35830    0.51250    0.12140    1.000
    C30      C        0.25630    0.15550    0.07090    1.000
    H18      H        0.20860    0.13060    0.11570    1.000
    C31      C        0.40040    0.58390    0.26460    1.000
    H19      H        0.46530    0.55310    0.30150    1.000
    C32      C        0.86480    0.91380    0.50340    1.000
    H20      H        0.76830    0.98430    0.50590    1.000
    C33      C        0.85690    0.42150    0.15170    1.000
    H21      H        0.86650    0.41650    0.20060    1.000
    C34      C        0.21130    0.14310    0.00800    1.000
    H22      H        0.13380    0.11000    0.00980    1.000
    C35      C        0.86930    0.78940    0.50250    1.000
    H23      H        0.77520    0.77980    0.50160    1.000
    H24      H        0.86480    0.53240    0.61250    1.000
    H25      H        0.85450    0.47700    0.55550    1.000
    Ni2      Ni       0.39415    0.68686    0.78337    1.000
    O9       O        0.48120    0.72690    0.86620    1.000
    O10      O        0.84650    0.58800    0.42230    1.000
    N5       N        0.56760    0.49090    0.78720    1.000
    N6       N        0.99860    0.31630    0.49700    1.000
    N7       N        0.25120    0.61400    0.86400    1.000
    O11      O        0.49970    0.66130    0.43580    1.000
    N8       N        0.21180    0.87820    0.78170    1.000
    C36      C        0.99970    0.06660    0.49930    1.000
    O12      O        0.19460    0.46120    0.41840    1.000
    O13      O        0.51590    0.84710    0.44960    1.000
    C37      C        0.03800    0.07270    0.71920    1.000
    H26      H        0.00950    0.12230    0.67500    1.000
    C38      C        0.57770    0.88620    0.21310    1.000
    H27      H        0.51750    0.95520    0.18190    1.000
    C39      C        0.55330    0.76380    0.99860    1.000
    H28      H        0.47390    0.73250    0.00130    1.000
    C40      C        0.59250    0.76860    0.86160    1.000
    C41      C        0.53840    0.75720    0.41330    1.000
    C42      C        0.00750    0.03910    0.84850    1.000
    H29      H        0.95740    0.06550    0.89360    1.000
    C43      C        0.78330    0.31990    0.84170    1.000
    H30      H        0.84220    0.28810    0.88080    1.000
    O14      O        0.67570    0.78880    0.80400    1.000
    C44      C        0.60920    0.77010    0.33460    1.000
    C45      C        0.95310    0.11800    0.78410    1.000
    C46      C        0.75890    0.68370    0.30690    1.000
    C47      C        0.26210    0.59980    0.93510    1.000
    H31      H        0.33850    0.62140    0.94900    1.000
    O15      O        0.78460    0.82370    0.11620    1.000
    C48      C        0.62550    0.79420    0.93140    1.000
    C49      C        0.81910    0.24640    0.78480    1.000
    C50      C        0.86780    0.29810    0.49850    1.000
    H32      H        0.77340    0.37090    0.49900    1.000
    C51      C        0.05280    0.52330    0.97230    1.000
    C52      C        0.13300    0.92470    0.84410    1.000
    H33      H        0.16700    0.87470    0.88750    1.000
    C53      C        0.52120    0.87110    0.28720    1.000
    H34      H        0.42310    0.92980    0.30460    1.000
    C54      C        0.86200    0.17660    0.49950    1.000
    H35      H        0.76590    0.16930    0.50030    1.000
    O16      O        0.99100    0.49580    0.32480    1.000
    C55      C        0.87280    0.57980    0.35640    1.000
    C56      C        0.16530    0.95360    0.72020    1.000
    H36      H        0.22050    0.92520    0.67610    1.000
    C57      C        0.71730    0.81950    0.05730    1.000
    C58      C        0.80920    0.70120    0.23280    1.000
    H37      H        0.90660    0.64350    0.21390    1.000
    C59      C        0.04210    0.53390    0.89990    1.000
    H38      H        0.96760    0.51140    0.88490    1.000
    C60      C        0.59490    0.77830    0.06220    1.000
    H39      H        0.54170    0.76070    0.10720    1.000
    C61      C        0.16820    0.55540    0.98940    1.000
    H40      H        0.18340    0.54710    0.03780    1.000
    C62      C        0.72170    0.29580    0.73190    1.000
    H41      H        0.73740    0.24870    0.69350    1.000
    C63      C        0.71790    0.80170    0.18730    1.000
    C64      C        0.66110    0.43920    0.84040    1.000
    H42      H        0.64170    0.48750    0.87860    1.000
    C65      C        0.74370    0.84450    0.92910    1.000
    H43      H        0.79140    0.86940    0.88430    1.000
    C66      C        0.59960    0.41610    0.73540    1.000
    H44      H        0.53470    0.44690    0.69850    1.000
    C67      C        0.13520    0.08620    0.49660    1.000
    H45      H        0.23170    0.01570    0.49410    1.000
    C68      C        0.14310    0.57850    0.84830    1.000
    H46      H        0.13350    0.58350    0.79940    1.000
    C69      C        0.78870    0.85690    0.99200    1.000
    H47      H        0.86620    0.89000    0.99020    1.000
    C70      C        0.13070    0.21060    0.49750    1.000
    H48      H        0.22480    0.22020    0.49840    1.000
    H49      H        0.13520    0.46760    0.38750    1.000
    H50      H        0.14550    0.52300    0.44450    1.000
    Ni3      Ni       0.00000    0.50000    0.50000    1.000
