data_functionalizedCrystal
_audit_creation_method	'EQeq! by Chris Wilmer'
_symmetry_space_group_name_H-M	'P1'
_symmetry_Int_Tables_number	1
_symmetry_cell_setting	triclinic
loop_
_symmetry_equiv_pos_as_xyz
  x,y,z
_cell_length_a	6.1389
_cell_length_b	12.2192
_cell_length_c	22.728
_cell_angle_alpha	90
_cell_angle_beta	90
_cell_angle_gamma	89.581
loop_
_atom_site_label
_atom_site_type_symbol
_atom_site_fract_x
_atom_site_fract_y
_atom_site_fract_z
_atom_site_charge
Mof_Pr	Pr	0.543	0.44359	0.85151	2.066
Mof_Pr	Pr	0.043	0.94359	0.64849	2.082
Mof_Pr	Pr	0.457	0.55641	0.14849	2.051
Mof_Pr	Pr	0.957	0.05641	0.35151	1.979
Mof_Cu	Cu	0.5	0.5	0.5	0.924
Mof_Cu	Cu	-0	0	-0	0.883
Mof_H 	H 	0.9362	0.7493	0.1586	0.012
Mof_H 	H 	0.0458	0.5744	0.3215	0.059
Mof_H 	H 	0.0727	0.8934	0.2127	0.016
Mof_H 	H 	0.4362	0.2493	0.3414	0.001
Mof_H 	H 	0.5638	0.7507	0.6586	0.007
Mof_H 	H 	0.0638	0.2507	0.8414	-0.021
Mof_H 	H 	0.4273	0.6066	0.7127	0.025
Mof_H 	H 	0.8301	0.1076	0.1168	0.05
Mof_H 	H 	0.4542	0.9256	0.8215	0.058
Mof_H 	H 	0.3301	0.6076	0.3832	0.041
Mof_H 	H 	0.5727	0.3934	0.2873	0.03
Mof_H 	H 	0.9273	0.1066	0.7873	0.072
Mof_H 	H 	0.9542	0.4256	0.6785	0.056
Mof_H 	H 	0.1699	0.8924	0.8832	0.032
Mof_H 	H 	0.5458	0.0744	0.1785	0.059
Mof_H 	H 	0.6699	0.3924	0.6168	0.044
Mof_C 	C 	0.7815	0.3044	0.4235	0.409
Mof_C 	C 	0.1124	0.3806	0.2287	-0.071
Mof_C 	C 	0.6254	0.9103	0.0482	-0.042
Mof_C 	C 	0.2185	0.6956	0.5765	0.422
Mof_C 	C 	0.4564	0.216	0.7559	-0.013
Mof_C 	C 	0.2815	0.8044	0.0765	0.411
Mof_C 	C 	0.9779	0.4539	0.1885	0.454
Mof_C 	C 	0.2345	0.5512	0.3919	0.026
Mof_C 	C 	0.4779	0.9539	0.3115	0.425
Mof_C 	C 	0.9564	0.716	0.7441	0.013
Mof_C 	C 	0.3542	0.2784	0.3107	0.034
Mof_C 	C 	0.1584	0.7779	0.7634	0.326
Mof_C 	C 	0.7655	0.4488	0.6081	0.019
Mof_C 	C 	0.5451	0.1101	0.9133	-0.065
Mof_C 	C 	0.8746	0.5897	0.5482	0.011
Mof_C 	C 	0.3416	0.7221	0.2634	0.359
Mof_C 	C 	0.7345	0.0512	0.1081	-0.012
Mof_C 	C 	0.3746	0.0897	0.9518	0.006
Mof_C 	C 	0.0662	0.1324	0.779	-0.06
Mof_C 	C 	0.6725	0.8479	0.992	0.331
Mof_C 	C 	0.6124	0.8806	0.2713	-0.047
Mof_C 	C 	0.4338	0.3676	0.279	0.018
Mof_C 	C 	0.4358	0.9693	0.8546	0.032
Mof_C 	C 	0.0436	0.284	0.2559	-0.02
Mof_C 	C 	0.6584	0.2779	0.7366	0.356
Mof_C 	C 	0.1725	0.3479	0.508	0.303
Mof_C 	C 	0.1458	0.2216	0.8107	0.066
Mof_C 	C 	0.8416	0.2221	0.2366	0.362
Mof_C 	C 	0.5221	0.0461	0.6885	0.432
Mof_C 	C 	0.2655	0.9488	0.8919	0.051
Mof_C 	C 	0.9338	0.8676	0.221	0.052
Mof_C 	C 	0.9549	0.3899	0.4133	-0.037
Mof_C 	C 	0.0221	0.5461	0.8115	0.355
Mof_C 	C 	0.3275	0.1521	0.008	0.261
Mof_C 	C 	0.8542	0.7784	0.1893	0.026
Mof_C 	C 	0.1254	0.4103	0.4518	-0.04
Mof_C 	C 	0.0642	0.5307	0.3546	-0.004
Mof_C 	C 	0.7185	0.1956	0.9235	0.42
Mof_C 	C 	0.0451	0.6101	0.5867	-0.089
Mof_C 	C 	0.6458	0.7216	0.6893	0.038
Mof_C 	C 	0.4549	0.8899	0.0867	-0.045
Mof_C 	C 	0.8876	0.6194	0.7713	-0.022
Mof_C 	C 	0.5436	0.784	0.2441	-0.017
Mof_C 	C 	0.8275	0.6521	0.492	0.291
Mof_C 	C 	0.5662	0.6324	0.721	0.021
Mof_C 	C 	0.9358	0.4693	0.6454	0.038
Mof_C 	C 	0.3876	0.1194	0.7287	-0.068
Mof_C 	C 	0.5642	0.0307	0.1454	-0.023
Mof_N 	N 	0.3153	0.4168	0.23715	-0.182
Mof_N 	N 	0.9229	0.4494	0.3647	-0.088
Mof_N 	N 	0.8381	0.7656	0.70269	-0.193
Mof_N 	N 	0.2341	0.0079	0.94024	-0.205
Mof_N 	N 	0.0771	0.5506	0.6353	-0.107
Mof_N 	N 	0.1847	0.0832	0.73715	-0.182
Mof_N 	N 	0.5771	0.0506	0.8647	-0.106
Mof_N 	N 	0.4229	0.9494	0.1353	-0.072
Mof_N 	N 	0.2659	0.4921	0.44024	-0.185
Mof_N 	N 	0.6619	0.7344	0.20269	-0.197
Mof_N 	N 	0.7659	0.9921	0.05976	-0.151
Mof_N 	N 	0.3381	0.2656	0.79731	-0.209
Mof_N 	N 	0.7341	0.5079	0.55976	-0.188
Mof_N 	N 	0.8153	0.9168	0.26285	-0.176
Mof_N 	N 	0.1619	0.2344	0.29731	-0.201
Mof_N 	N 	0.6847	0.5832	0.76285	-0.189
Mof_O 	O 	0.1256	0.8298	0.04431	-0.373
Mof_O 	O 	0.5781	0.9916	0.35509	-0.527
Mof_O 	O 	0.9219	0.5084	0.85509	-0.514
Mof_O 	O 	0.1812	0.1092	0.04061	-0.374
Mof_O 	O 	0.2868	0.9775	0.29808	-0.485
Mof_O 	O 	0.2372	0.754	0.81196	-0.294
Mof_O 	O 	0.779	0.148	0.27011	-0.485
Mof_O 	O 	0.221	0.852	0.72989	-0.473
Mof_O 	O 	0.3188	0.3908	0.54061	-0.365
Mof_O 	O 	0.5703	0.764	0.98184	-0.301
Mof_O 	O 	0.8744	0.1702	0.95569	-0.335
Mof_O 	O 	0.4219	0.0084	0.64491	-0.58
Mof_O 	O 	0.8019	0.215	0.39611	-0.54
Mof_O 	O 	0.7628	0.246	0.18804	-0.301
Mof_O 	O 	0.6256	0.3298	0.45569	-0.357
Mof_O 	O 	0.1981	0.785	0.60389	-0.554
Mof_O 	O 	0.279	0.648	0.22989	-0.484
Mof_O 	O 	0.721	0.352	0.77011	-0.475
Mof_O 	O 	0.7868	0.4775	0.20192	-0.513
Mof_O 	O 	0.3019	0.715	0.10389	-0.555
Mof_O 	O 	0.0703	0.264	0.51816	-0.324
Mof_O 	O 	0.7372	0.254	0.68804	-0.293
Mof_O 	O 	0.6812	0.6092	0.45939	-0.355
Mof_O 	O 	0.6981	0.285	0.89611	-0.541
Mof_O 	O 	0.2628	0.746	0.31196	-0.298
Mof_O 	O 	0.8188	0.8908	0.95939	-0.328
Mof_O 	O 	0.3744	0.6702	0.54431	-0.361
Mof_O 	O 	0.9297	0.736	0.48184	-0.291
Mof_O 	O 	0.0781	0.4916	0.14491	-0.579
Mof_O 	O 	0.2132	0.5225	0.79808	-0.497
Mof_O 	O 	0.4297	0.236	0.01816	-0.319
Mof_O 	O 	0.7132	0.0225	0.70192	-0.517
_end
