data_functionalizedCrystal
_audit_creation_method	'EQeq! by Chris Wilmer'
_symmetry_space_group_name_H-M	'P1'
_symmetry_Int_Tables_number	1
_symmetry_cell_setting	triclinic
loop_
_symmetry_equiv_pos_as_xyz
  x,y,z
_cell_length_a	16.7318
_cell_length_b	18.1105
_cell_length_c	16.4721
_cell_angle_alpha	90
_cell_angle_beta	110.618
_cell_angle_gamma	90
loop_
_atom_site_label
_atom_site_type_symbol
_atom_site_fract_x
_atom_site_fract_y
_atom_site_fract_z
_atom_site_charge
Mof_Zn	Zn	0.18556	0.6105	0.12745	1.229
Mof_Zn	Zn	0.30781	0.61736	0.36201	1.24
Mof_C 	C 	0.0742	0.73973	0.273	-0.243
Mof_C 	C 	0.1019	0.77346	0.3535	0.158
Mof_H 	H 	0.157	0.765	0.3921	0.014
Mof_C 	C 	0.048	0.81968	0.3769	-0.233
Mof_C 	C 	0.9654	0.83114	0.3195	0.14
Mof_H 	H 	0.9291	0.8621	0.3354	-0.003
Mof_C 	C 	0.9361	0.79706	0.2387	-0.095
Mof_C 	C 	0.9914	0.75168	0.2153	0.14
Mof_H 	H 	0.9731	0.7292	0.1611	0.018
Mof_C 	C 	0.8463	0.81024	0.1812	0.051
Mof_C 	C 	0.8125	0.8803	0.176	-0.025
Mof_H 	H 	0.8471	0.9187	0.2061	0.069
Mof_C 	C 	0.7271	0.8945	0.1262	-0.111
Mof_C 	C 	0.6763	0.8376	0.0813	0.025
Mof_H 	H 	0.6197	0.8465	0.0474	0.028
Mof_C 	C 	0.7095	0.7669	0.0864	-0.073
Mof_C 	C 	0.7944	0.7538	0.1358	-0.046
Mof_H 	H 	0.8166	0.7064	0.1382	0.073
Mof_C 	C 	0.135	0.69131	0.2505	0.477
Mof_C 	C 	0.0769	0.85737	0.4625	0.436
Mof_C 	C 	0.6948	0.9707	0.1266	0.444
Mof_C 	C 	0.6536	0.7039	0.0436	0.317
Mof_C 	C 	0.2329	0.3853	0.11	-0.104
Mof_C 	C 	0.1863	0.32421	0.0708	0.024
Mof_H 	H 	0.131	0.3297	0.0315	0.035
Mof_C 	C 	0.2221	0.25437	0.09	-0.082
Mof_C 	C 	0.3059	0.24728	0.1461	-0.03
Mof_H 	H 	0.3301	0.2005	0.1577	0.052
Mof_C 	C 	0.354	0.30763	0.185	0.013
Mof_C 	C 	0.3166	0.37693	0.1685	-0.023
Mof_H 	H 	0.3472	0.4181	0.1963	0.055
Mof_C 	C 	0.4432	0.296	0.2464	-0.011
Mof_C 	C 	0.4963	0.24554	0.2273	0.008
Mof_H 	H 	0.4783	0.2219	0.1737	0.049
Mof_C 	C 	0.5767	0.23008	0.2881	-0.133
Mof_C 	C 	0.6029	0.26429	0.3677	0.068
Mof_H 	H 	0.6555	0.2523	0.4091	0.043
Mof_C 	C 	0.5519	0.31627	0.38663	-0.121
Mof_C 	C 	0.4719	0.33244	0.3255	-0.002
Mof_H 	H 	0.4376	0.3679	0.3378	0.046
Mof_C 	C 	0.1933	0.4605	0.091	0.378
Mof_C 	C 	0.1725	0.1862	0.0545	0.31
Mof_C 	C 	0.6363	0.1782	0.2679	0.443
Mof_C 	C 	0.5809	0.35326	0.4733	0.407
Mof_O 	O 	0.1154	0.67073	0.17315	-0.523
Mof_O 	O 	0.20151	0.67451	0.31014	-0.507
Mof_O 	O 	0.15415	0.85034	0.50945	-0.453
Mof_O 	O 	0.02303	0.89189	0.48405	-0.515
Mof_O 	O 	0.7478	0.02259	0.14414	-0.548
Mof_O 	O 	0.61687	0.98172	0.11421	-0.469
Mof_O 	O 	0.5792	0.7178	0.9935	-0.201
Mof_O 	O 	0.6834	0.64009	0.0606	-0.449
Mof_H 	H 	0.6593	0.6046	0.0271	0.245
Mof_O 	O 	0.12981	0.46903	0.02258	-0.497
Mof_O 	O 	0.22763	0.51054	0.14498	-0.503
Mof_O 	O 	0.09652	0.19874	0.99961	-0.392
Mof_H 	H 	0.0716	0.1583	0.9797	0.243
Mof_O 	O 	0.20104	0.12474	0.0749	-0.299
Mof_O 	O 	0.61577	0.15616	0.19146	-0.511
Mof_O 	O 	0.7019	0.16067	0.32837	-0.494
Mof_O 	O 	0.65689	0.33995	0.52235	-0.458
Mof_O 	O 	0.53132	0.39331	0.49372	-0.513
Mof_Zn	Zn	0.81444	0.1105	0.37255	1.228
Mof_Zn	Zn	0.69219	0.11736	0.13799	1.233
Mof_C 	C 	0.9258	0.23973	0.227	0.006
Mof_C 	C 	0.8981	0.27346	0.1465	-0.056
Mof_H 	H 	0.843	0.265	0.1079	0.074
Mof_C 	C 	0.952	0.31968	0.1231	0.028
Mof_C 	C 	0.0346	0.33114	0.1805	-0.164
Mof_H 	H 	0.0709	0.3621	0.1646	0.076
Mof_C 	C 	0.0639	0.29706	0.2613	0.098
Mof_C 	C 	0.0086	0.25168	0.2847	-0.157
Mof_H 	H 	0.0269	0.2292	0.3389	0.097
Mof_C 	C 	0.1537	0.31024	0.3188	-0.059
Mof_C 	C 	0.1875	0.3803	0.324	0.038
Mof_H 	H 	0.1529	0.4187	0.2939	0.022
Mof_C 	C 	0.2729	0.3945	0.3738	-0.135
Mof_C 	C 	0.3237	0.3376	0.4187	0.068
Mof_H 	H 	0.3803	0.3465	0.4526	0.023
Mof_C 	C 	0.2905	0.2669	0.4136	-0.126
Mof_C 	C 	0.2056	0.2538	0.3642	0.036
Mof_H 	H 	0.1834	0.2064	0.3618	0.039
Mof_C 	C 	0.865	0.19131	0.2495	0.393
Mof_C 	C 	0.9231	0.35737	0.0375	0.287
Mof_C 	C 	0.3052	0.4707	0.3734	0.377
Mof_C 	C 	0.3464	0.2039	0.4564	0.408
Mof_C 	C 	0.7671	0.8853	0.39	-0.111
Mof_C 	C 	0.8137	0.82421	0.4292	0.044
Mof_H 	H 	0.869	0.8297	0.4685	0.061
Mof_C 	C 	0.7779	0.75437	0.41	-0.088
Mof_C 	C 	0.6941	0.74728	0.3539	-0.015
Mof_H 	H 	0.6699	0.7005	0.3423	0.055
Mof_C 	C 	0.646	0.80763	0.315	0.006
Mof_C 	C 	0.6834	0.87693	0.3315	-0.004
Mof_H 	H 	0.6528	0.9181	0.3037	0.066
Mof_C 	C 	0.5568	0.796	0.2536	0.008
Mof_C 	C 	0.5037	0.74554	0.2727	-0.004
Mof_H 	H 	0.5217	0.7219	0.3263	0.061
Mof_C 	C 	0.4233	0.73008	0.2119	-0.115
Mof_C 	C 	0.3971	0.76429	0.1323	0.046
Mof_H 	H 	0.3445	0.7523	0.0909	0.042
Mof_C 	C 	0.4481	0.81627	0.11337	-0.094
Mof_C 	C 	0.5281	0.83244	0.1745	-0.02
Mof_H 	H 	0.5624	0.8679	0.1622	0.056
Mof_C 	C 	0.8067	0.9605	0.409	0.461
Mof_C 	C 	0.8275	0.6862	0.4455	0.378
Mof_C 	C 	0.3637	0.6782	0.2321	0.438
Mof_C 	C 	0.4191	0.85326	0.0267	0.337
Mof_O 	O 	0.8846	0.17073	0.32685	-0.477
Mof_O 	O 	0.79849	0.17451	0.18986	-0.488
Mof_O 	O 	0.84585	0.35034	0.99055	-0.383
Mof_O 	O 	0.97697	0.39189	0.01595	-0.471
Mof_O 	O 	0.2522	0.52259	0.35586	-0.479
Mof_O 	O 	0.38313	0.48172	0.38579	-0.48
Mof_O 	O 	0.4208	0.2178	0.5065	-0.276
Mof_O 	O 	0.3166	0.14009	0.4394	-0.485
Mof_H 	H 	0.3407	0.1046	0.4729	0.263
Mof_O 	O 	0.87019	0.96903	0.47742	-0.442
Mof_O 	O 	0.77237	0.01054	0.35502	-0.571
Mof_O 	O 	0.90348	0.69874	0.50039	-0.443
Mof_H 	H 	0.9284	0.6583	0.5203	0.269
Mof_O 	O 	0.79896	0.62474	0.4251	-0.274
Mof_O 	O 	0.38423	0.65616	0.30854	-0.494
Mof_O 	O 	0.2981	0.66067	0.17163	-0.49
Mof_O 	O 	0.34311	0.83995	0.97765	-0.392
Mof_O 	O 	0.46868	0.89331	0.00628	-0.496
Mof_Zn	Zn	0.81444	0.3895	0.87255	1.232
Mof_Zn	Zn	0.69219	0.38264	0.63799	1.238
Mof_C 	C 	0.9258	0.26027	0.727	-0.002
Mof_C 	C 	0.8981	0.22654	0.6465	-0.036
Mof_H 	H 	0.843	0.235	0.6079	0.078
Mof_C 	C 	0.952	0.18032	0.6231	0.003
Mof_C 	C 	0.0346	0.16886	0.6805	-0.142
Mof_H 	H 	0.0709	0.1379	0.6646	0.066
Mof_C 	C 	0.0639	0.20294	0.7613	0.087
Mof_C 	C 	0.0086	0.24832	0.7847	-0.143
Mof_H 	H 	0.0269	0.2708	0.8389	0.101
Mof_C 	C 	0.1537	0.18976	0.8188	-0.048
Mof_C 	C 	0.1875	0.1197	0.824	0.021
Mof_H 	H 	0.1529	0.0813	0.7939	0.015
Mof_C 	C 	0.2729	0.1055	0.8738	-0.108
Mof_C 	C 	0.3237	0.1624	0.9187	0.065
Mof_H 	H 	0.3803	0.1535	0.9526	0.036
Mof_C 	C 	0.2905	0.2331	0.9136	-0.13
Mof_C 	C 	0.2056	0.2462	0.8642	0.039
Mof_H 	H 	0.1834	0.2936	0.8618	0.05
Mof_C 	C 	0.865	0.30869	0.7495	0.397
Mof_C 	C 	0.9231	0.14263	0.5375	0.354
Mof_C 	C 	0.3052	0.0293	0.8734	0.288
Mof_C 	C 	0.3464	0.2961	0.9564	0.487
Mof_C 	C 	0.7671	0.6147	0.89	-0.082
Mof_C 	C 	0.8137	0.67579	0.9292	0.036
Mof_H 	H 	0.869	0.6703	0.9685	0.076
Mof_C 	C 	0.7779	0.74563	0.91	-0.081
Mof_C 	C 	0.6941	0.75272	0.8539	-0.017
Mof_H 	H 	0.6699	0.7995	0.8423	0.066
Mof_C 	C 	0.646	0.69237	0.815	0.019
Mof_C 	C 	0.6834	0.62307	0.8315	-0.02
Mof_H 	H 	0.6528	0.5819	0.8037	0.06
Mof_C 	C 	0.5568	0.704	0.7536	-0
Mof_C 	C 	0.5037	0.75446	0.7727	0.003
Mof_H 	H 	0.5217	0.7781	0.8263	0.067
Mof_C 	C 	0.4233	0.76992	0.7119	-0.115
Mof_C 	C 	0.3971	0.73571	0.6323	0.062
Mof_H 	H 	0.3445	0.7477	0.5909	0.049
Mof_C 	C 	0.4481	0.68373	0.61337	-0.114
Mof_C 	C 	0.5281	0.66756	0.6745	-0.005
Mof_H 	H 	0.5624	0.6321	0.6622	0.048
Mof_C 	C 	0.8067	0.5395	0.909	0.374
Mof_C 	C 	0.8275	0.8138	0.9455	0.433
Mof_C 	C 	0.3637	0.8218	0.7321	0.44
Mof_C 	C 	0.4191	0.64674	0.5267	0.406
Mof_O 	O 	0.8846	0.32927	0.82685	-0.466
Mof_O 	O 	0.79849	0.32549	0.68986	-0.483
Mof_O 	O 	0.84585	0.14966	0.49055	-0.447
Mof_O 	O 	0.97697	0.10811	0.51595	-0.479
Mof_O 	O 	0.2522	0.97741	0.85586	-0.394
Mof_O 	O 	0.38313	0.01828	0.88579	-0.472
Mof_O 	O 	0.4208	0.2822	0.0065	-0.34
Mof_O 	O 	0.3166	0.35991	0.9394	-0.501
Mof_H 	H 	0.3407	0.3954	0.9729	0.303
Mof_O 	O 	0.87019	0.53097	0.97742	-0.429
Mof_O 	O 	0.77237	0.48946	0.85502	-0.488
Mof_O 	O 	0.90348	0.80126	0.00039	-0.501
Mof_H 	H 	0.9284	0.8417	0.0203	0.281
Mof_O 	O 	0.79896	0.87526	0.9251	-0.254
Mof_O 	O 	0.38423	0.84384	0.80854	-0.479
Mof_O 	O 	0.2981	0.83933	0.67163	-0.481
Mof_O 	O 	0.34311	0.66005	0.47765	-0.455
Mof_O 	O 	0.46868	0.60669	0.50628	-0.513
Mof_Zn	Zn	0.18556	0.8895	0.62745	1.233
Mof_Zn	Zn	0.30781	0.88264	0.86201	1.244
Mof_C 	C 	0.0742	0.76027	0.773	-0.238
Mof_C 	C 	0.1019	0.72654	0.8535	0.17
Mof_H 	H 	0.157	0.735	0.8921	0.02
Mof_C 	C 	0.048	0.68032	0.8769	-0.249
Mof_C 	C 	0.9654	0.66886	0.8195	0.149
Mof_H 	H 	0.9291	0.6379	0.8354	-0.009
Mof_C 	C 	0.9361	0.70294	0.7387	-0.097
Mof_C 	C 	0.9914	0.74832	0.7153	0.139
Mof_H 	H 	0.9731	0.7708	0.6611	0.026
Mof_C 	C 	0.8463	0.68976	0.6812	0.057
Mof_C 	C 	0.8125	0.6197	0.676	-0.036
Mof_H 	H 	0.8471	0.5813	0.7061	0.059
Mof_C 	C 	0.7271	0.6055	0.6262	-0.09
Mof_C 	C 	0.6763	0.6624	0.5813	0.025
Mof_H 	H 	0.6197	0.6535	0.5474	0.037
Mof_C 	C 	0.7095	0.7331	0.5864	-0.079
Mof_C 	C 	0.7944	0.7462	0.6358	-0.039
Mof_H 	H 	0.8166	0.7936	0.6382	0.082
Mof_C 	C 	0.135	0.80869	0.7505	0.477
Mof_C 	C 	0.0769	0.64263	0.9625	0.504
Mof_C 	C 	0.6948	0.5293	0.6266	0.36
Mof_C 	C 	0.6536	0.7961	0.5436	0.393
Mof_C 	C 	0.2329	0.1147	0.61	-0.074
Mof_C 	C 	0.1863	0.17579	0.5708	0.017
Mof_H 	H 	0.131	0.1703	0.5315	0.052
Mof_C 	C 	0.2221	0.24563	0.59	-0.077
Mof_C 	C 	0.3059	0.25272	0.6461	-0.031
Mof_H 	H 	0.3301	0.2995	0.6577	0.062
Mof_C 	C 	0.354	0.19237	0.685	0.025
Mof_C 	C 	0.3166	0.12307	0.6685	-0.04
Mof_H 	H 	0.3472	0.0819	0.6963	0.049
Mof_C 	C 	0.4432	0.204	0.7464	-0.018
Mof_C 	C 	0.4963	0.25446	0.7273	0.014
Mof_H 	H 	0.4783	0.2781	0.6737	0.054
Mof_C 	C 	0.5767	0.26992	0.7881	-0.132
Mof_C 	C 	0.6029	0.23571	0.8677	0.082
Mof_H 	H 	0.6555	0.2477	0.9091	0.05
Mof_C 	C 	0.5519	0.18373	0.88663	-0.138
Mof_C 	C 	0.4719	0.16756	0.8255	0.012
Mof_H 	H 	0.4376	0.1321	0.8378	0.039
Mof_C 	C 	0.1933	0.0395	0.591	0.287
Mof_C 	C 	0.1725	0.3138	0.5545	0.373
Mof_C 	C 	0.6363	0.3218	0.7679	0.445
Mof_C 	C 	0.5809	0.14674	0.9733	0.472
Mof_O 	O 	0.1154	0.82927	0.67315	-0.509
Mof_O 	O 	0.20151	0.82549	0.81014	-0.5
Mof_O 	O 	0.15415	0.64966	0.00945	-0.521
Mof_O 	O 	0.02303	0.60811	0.98405	-0.524
Mof_O 	O 	0.7478	0.47741	0.64414	-0.468
Mof_O 	O 	0.61687	0.51828	0.61421	-0.475
Mof_O 	O 	0.5792	0.7822	0.4935	-0.262
Mof_O 	O 	0.6834	0.85991	0.5606	-0.465
Mof_H 	H 	0.6593	0.8954	0.5271	0.283
Mof_O 	O 	0.12981	0.03097	0.52258	-0.481
Mof_O 	O 	0.22763	0.98946	0.64498	-0.415
Mof_O 	O 	0.09652	0.30126	0.49961	-0.457
Mof_H 	H 	0.0716	0.3417	0.4797	0.255
Mof_O 	O 	0.20104	0.37526	0.5749	-0.279
Mof_O 	O 	0.61577	0.34384	0.69146	-0.496
Mof_O 	O 	0.7019	0.33933	0.82837	-0.485
Mof_O 	O 	0.65689	0.16005	0.02235	-0.52
Mof_O 	O 	0.53132	0.10669	0.99372	-0.514
Mof_Zn	Zn	-0	0.5	-0	1.161
Mof_Zn	Zn	2.4955e-33	5.40351e-33	0.5	1.155
Mof_Zn	Zn	0.5	0.5	0.5	1.197
Mof_Zn	Zn	0.5	0	-0	1.16
_end
