data_functionalizedCrystal
_audit_creation_method	'EQeq! by Chris Wilmer'
_symmetry_space_group_name_H-M	'P1'
_symmetry_Int_Tables_number	1
_symmetry_cell_setting	triclinic
loop_
_symmetry_equiv_pos_as_xyz
  x,y,z
_cell_length_a	9.5782
_cell_length_b	12.778
_cell_length_c	18.945
_cell_angle_alpha	107.49
_cell_angle_beta	99.21
_cell_angle_gamma	97.89
loop_
_atom_site_label
_atom_site_type_symbol
_atom_site_fract_x
_atom_site_fract_y
_atom_site_fract_z
_atom_site_charge
Mof_C 	C 	0.8949	0.4037	0.0752	-0.222
Mof_C 	C 	0.9692	0.3329	0.1036	0.293
Mof_C 	C 	0.9127	0.2188	0.08	-0.23
Mof_C 	C 	0.7798	0.1743	0.0305	0.299
Mof_C 	C 	0.7021	0.2456	0.0032	-0.227
Mof_C 	C 	0.7609	0.3594	0.0239	0.279
Mof_C 	C 	0.6774	0.4338	0.9902	-0.742
Mof_H 	H 	0.6662	0.4081	0.9362	0.244
Mof_H 	H 	0.7296	0.5097	0.0107	0.24
Mof_H 	H 	0.584	0.43	0.0028	0.233
Mof_C 	C 	0.1133	0.381	0.1615	-0.766
Mof_H 	H 	0.1019	0.373	0.2092	0.26
Mof_H 	H 	0.1425	0.4588	0.1679	0.254
Mof_H 	H 	0.1855	0.3411	0.1435	0.246
Mof_C 	C 	0.7196	0.0502	0.0066	-0.783
Mof_H 	H 	0.7863	0.0152	0.0306	0.259
Mof_H 	H 	0.7053	0.018	0.9526	0.256
Mof_H 	H 	0.6291	0.0386	0.0216	0.248
Mof_C 	C 	0.9638	0.5237	0.0964	0.023
Mof_H 	H 	0.9203	0.5537	0.0588	0.011
Mof_H 	H 	0.0653	0.5287	0.0951	0.011
Mof_C 	C 	0.0692	0.6626	0.2234	-0.014
Mof_H 	H 	0.159	0.6592	0.2111	0.023
Mof_C 	C 	0.0605	0.7361	0.2918	0.018
Mof_H 	H 	0.1431	0.7823	0.3255	0.026
Mof_C 	C 	0.9257	0.7396	0.3095	-0.152
Mof_C 	C 	0.8064	0.6676	0.2594	0.005
Mof_H 	H 	0.716	0.6689	0.2712	0.033
Mof_C 	C 	0.8192	0.5921	0.1906	-0.008
Mof_H 	H 	0.7393	0.5413	0.1577	0.027
Mof_C 	C 	0.9118	0.8236	0.3808	0.515
Mof_C 	C 	0.5556	0.2	0.9504	0.027
Mof_H 	H 	0.507	0.1378	0.9623	0.006
Mof_H 	H 	0.4982	0.2578	0.959	0.009
Mof_C 	C 	0.4401	0.1423	0.8165	-0.026
Mof_H 	H 	0.3549	0.1541	0.8324	0.033
Mof_C 	C 	0.4394	0.1062	0.7412	0.028
Mof_H 	H 	0.3539	0.0943	0.7062	0.023
Mof_C 	C 	0.5648	0.0869	0.7161	-0.166
Mof_C 	C 	0.6878	0.1042	0.77	0.017
Mof_H 	H 	0.773	0.0902	0.7548	0.03
Mof_C 	C 	0.6873	0.1419	0.8457	-0.023
Mof_H 	H 	0.7718	0.1542	0.8815	0.037
Mof_C 	C 	0.5689	0.0477	0.633	0.561
Mof_C 	C 	0.0012	0.1447	0.1053	0.017
Mof_H 	H 	0.1007	0.1695	0.1039	0.01
Mof_H 	H 	0.9689	0.0693	0.0696	0.012
Mof_C 	C 	0.8698	0.1385	0.2071	-0.003
Mof_H 	H 	0.7888	0.1467	0.1764	0.031
Mof_C 	C 	0.8589	0.1242	0.2746	-0.004
Mof_H 	H 	0.771	0.1216	0.2896	0.036
Mof_C 	C 	0.9801	0.1135	0.3207	-0.128
Mof_C 	C 	0.1087	0.1196	0.2965	-0.008
Mof_H 	H 	0.1926	0.1165	0.3275	0.038
Mof_C 	C 	0.1131	0.1301	0.2268	-0.01
Mof_H 	H 	0.1987	0.1296	0.2096	0.023
Mof_C 	C 	0.9775	0.0957	0.3959	0.535
Mof_Eu	Eu	0.23569	0.01276	0.50249	2.706
Mof_N 	N 	0.9506	0.5956	0.1739	-0.113
Mof_N 	N 	0.5631	0.1611	0.8681	-0.109
Mof_N 	N 	0.9956	0.1411	0.184	-0.11
Mof_O 	O 	0.789	0.8299	0.3924	-0.553
Mof_O 	O 	0.0264	0.8853	0.4238	-0.625
Mof_O 	O 	0.4532	0.0345	0.587	-0.615
Mof_O 	O 	0.6856	0.0307	0.6157	-0.578
Mof_O 	O 	0.8558	0.0646	0.4069	-0.564
Mof_O 	O 	0.0964	0.1097	0.438	-0.602
Mof_O 	O 	0.4002	0.1839	0.5067	-0.507
Mof_H 	H 	0.462	0.2478	0.5084	0.217
Mof_O 	O 	0.2946	0.8268	0.4799	-0.532
Mof_H 	H 	0.317	0.7561	0.4713	0.223
Mof_C 	C 	0.1051	0.5963	0.9248	-0.223
Mof_C 	C 	0.0308	0.6671	0.8964	0.292
Mof_C 	C 	0.0873	0.7812	0.92	-0.231
Mof_C 	C 	0.2202	0.8257	0.9695	0.298
Mof_C 	C 	0.2979	0.7544	0.9968	-0.227
Mof_C 	C 	0.2391	0.6406	0.9761	0.279
Mof_C 	C 	0.3226	0.5662	0.0098	-0.742
Mof_H 	H 	0.3338	0.5919	0.0638	0.244
Mof_H 	H 	0.2704	0.4903	0.9893	0.24
Mof_H 	H 	0.416	0.57	0.9972	0.233
Mof_C 	C 	0.8867	0.619	0.8385	-0.766
Mof_H 	H 	0.8981	0.627	0.7908	0.26
Mof_H 	H 	0.8575	0.5412	0.8321	0.254
Mof_H 	H 	0.8145	0.6589	0.8565	0.246
Mof_C 	C 	0.2804	0.9498	0.9934	-0.783
Mof_H 	H 	0.2137	0.9848	0.9694	0.259
Mof_H 	H 	0.2947	0.982	0.0474	0.256
Mof_H 	H 	0.3709	0.9614	0.9784	0.248
Mof_C 	C 	0.0362	0.4763	0.9036	0.023
Mof_H 	H 	0.0797	0.4463	0.9412	0.011
Mof_H 	H 	0.9347	0.4713	0.9049	0.011
Mof_C 	C 	0.9308	0.3374	0.7766	-0.014
Mof_H 	H 	0.841	0.3408	0.7889	0.023
Mof_C 	C 	0.9395	0.2639	0.7082	0.018
Mof_H 	H 	0.8569	0.2177	0.6745	0.026
Mof_C 	C 	0.0743	0.2604	0.6905	-0.152
Mof_C 	C 	0.1936	0.3324	0.7406	0.005
Mof_H 	H 	0.284	0.3311	0.7288	0.033
Mof_C 	C 	0.1808	0.4079	0.8094	-0.008
Mof_H 	H 	0.2607	0.4587	0.8423	0.027
Mof_C 	C 	0.0882	0.1764	0.6192	0.515
Mof_C 	C 	0.4444	0.8	0.0496	0.027
Mof_H 	H 	0.493	0.8622	0.0377	0.006
Mof_H 	H 	0.5018	0.7422	0.041	0.009
Mof_C 	C 	0.5599	0.8577	0.1835	-0.026
Mof_H 	H 	0.6451	0.8459	0.1676	0.033
Mof_C 	C 	0.5606	0.8938	0.2588	0.028
Mof_H 	H 	0.6461	0.9057	0.2938	0.023
Mof_C 	C 	0.4352	0.9131	0.2839	-0.166
Mof_C 	C 	0.3122	0.8958	0.23	0.017
Mof_H 	H 	0.227	0.9098	0.2452	0.03
Mof_C 	C 	0.3127	0.8581	0.1543	-0.023
Mof_H 	H 	0.2282	0.8458	0.1185	0.037
Mof_C 	C 	0.4311	0.9523	0.367	0.561
Mof_C 	C 	0.9988	0.8553	0.8947	0.017
Mof_H 	H 	0.8993	0.8305	0.8961	0.01
Mof_H 	H 	0.0311	0.9307	0.9304	0.012
Mof_C 	C 	0.1302	0.8615	0.7929	-0.003
Mof_H 	H 	0.2112	0.8533	0.8236	0.031
Mof_C 	C 	0.1411	0.8758	0.7254	-0.004
Mof_H 	H 	0.229	0.8784	0.7104	0.036
Mof_C 	C 	0.0199	0.8865	0.6793	-0.128
Mof_C 	C 	0.8913	0.8804	0.7035	-0.008
Mof_H 	H 	0.8074	0.8835	0.6725	0.038
Mof_C 	C 	0.8869	0.8699	0.7732	-0.01
Mof_H 	H 	0.8013	0.8704	0.7904	0.023
Mof_C 	C 	0.0225	0.9043	0.6041	0.535
Mof_Eu	Eu	0.76431	0.98724	0.49751	2.706
Mof_N 	N 	0.0494	0.4044	0.8261	-0.113
Mof_N 	N 	0.4369	0.8389	0.1319	-0.109
Mof_N 	N 	0.0044	0.8589	0.816	-0.11
Mof_O 	O 	0.211	0.1701	0.6076	-0.553
Mof_O 	O 	0.9736	0.1147	0.5762	-0.625
Mof_O 	O 	0.5468	0.9655	0.413	-0.615
Mof_O 	O 	0.3144	0.9693	0.3843	-0.578
Mof_O 	O 	0.1442	0.9354	0.5931	-0.564
Mof_O 	O 	0.9036	0.8903	0.562	-0.602
Mof_O 	O 	0.5998	0.8161	0.4933	-0.507
Mof_H 	H 	0.538	0.7522	0.4916	0.217
Mof_O 	O 	0.7054	0.1732	0.5201	-0.532
Mof_H 	H 	0.683	0.2439	0.5287	0.223
_end
