data_functionalizedCrystal
_audit_creation_method	'EQeq! by Chris Wilmer'
_symmetry_space_group_name_H-M	'P1'
_symmetry_Int_Tables_number	1
_symmetry_cell_setting	triclinic
loop_
_symmetry_equiv_pos_as_xyz
  x,y,z
_cell_length_a	26.0887
_cell_length_b	26.0887
_cell_length_c	26.0887
_cell_angle_alpha	90
_cell_angle_beta	90
_cell_angle_gamma	90
loop_
_atom_site_label
_atom_site_type_symbol
_atom_site_fract_x
_atom_site_fract_y
_atom_site_fract_z
_atom_site_charge
Mof_Zr	Zr	0.48456	0.98355	0.09117	3.236
Mof_Zr	Zr	0.51645	0.59117	0.48456	3.236
Mof_Zr	Zr	0.98456	0.51645	0.90883	3.236
Mof_Zr	Zr	0.48456	0.51645	0.59117	3.236
Mof_Zr	Zr	0.51544	0.48355	0.40883	3.236
Mof_Zr	Zr	0.51544	0.01645	0.90883	3.236
Mof_Zr	Zr	0.01544	0.01645	0.59117	3.236
Mof_Zr	Zr	0.40883	0.51544	0.48355	3.236
Mof_Zr	Zr	0.51645	0.90883	0.98456	3.236
Mof_Zr	Zr	0.09117	0.48456	0.98355	3.236
Mof_Zr	Zr	0.98456	0.98355	0.40883	3.236
Mof_Zr	Zr	0.98355	0.09117	0.48456	3.236
Mof_Zr	Zr	0.01544	0.48355	0.09117	3.236
Mof_Zr	Zr	0.01645	0.90883	0.51544	3.236
Mof_Zr	Zr	0.09117	0.01544	0.48355	3.236
Mof_Zr	Zr	0.98355	0.40883	0.98456	3.236
Mof_Zr	Zr	0.01645	0.59117	0.01544	3.236
Mof_Zr	Zr	0.90883	0.98456	0.51645	3.236
Mof_Zr	Zr	0.90883	0.51544	0.01645	3.236
Mof_Zr	Zr	0.48355	0.40883	0.51544	3.236
Mof_Zr	Zr	0.59117	0.48456	0.51645	3.236
Mof_Zr	Zr	0.48355	0.09117	0.01544	3.236
Mof_Zr	Zr	0.59117	0.01544	0.01645	3.236
Mof_Zr	Zr	0.40883	0.98456	0.98355	3.236
Mof_Cu	Cu	0.21157	0.70751	0.48054	0.932
Mof_Cu	Cu	0.20751	0.48054	0.28843	0.932
Mof_Cu	Cu	0.01946	0.78843	0.20751	0.932
Mof_Cu	Cu	0.28843	0.20751	0.48054	0.932
Mof_Cu	Cu	0.48054	0.28843	0.20751	0.932
Mof_Cu	Cu	0.79249	0.98054	0.21157	0.932
Mof_Cu	Cu	0.70751	0.01946	0.71157	0.932
Mof_Cu	Cu	0.78843	0.20751	0.01946	0.932
Mof_Cu	Cu	0.21157	0.79249	0.98054	0.932
Mof_Cu	Cu	0.71157	0.70751	0.01946	0.932
Mof_Cu	Cu	0.78843	0.29249	0.51946	0.932
Mof_Cu	Cu	0.98054	0.21157	0.79249	0.932
Mof_Cu	Cu	0.48054	0.21157	0.70751	0.931
Mof_Cu	Cu	0.29249	0.98054	0.28843	0.931
Mof_Cu	Cu	0.51946	0.78843	0.29249	0.931
Mof_Cu	Cu	0.79249	0.51946	0.71157	0.931
Mof_Cu	Cu	0.29249	0.51946	0.78843	0.931
Mof_Cu	Cu	0.28843	0.29249	0.98054	0.931
Mof_Cu	Cu	0.01946	0.71157	0.70751	0.931
Mof_Cu	Cu	0.98054	0.28843	0.29249	0.931
Mof_Cu	Cu	0.71157	0.79249	0.51946	0.931
Mof_Cu	Cu	0.20751	0.01946	0.78843	0.931
Mof_Cu	Cu	0.70751	0.48054	0.21157	0.931
Mof_Cu	Cu	0.51946	0.71157	0.79249	0.931
Mof_H 	H 	0.80099	0.99615	0.6495	0.037
Mof_H 	H 	0.6495	0.80099	0.99615	0.037
Mof_H 	H 	0.30099	0.50385	0.3505	0.039
Mof_H 	H 	0.06029	0.63888	0.30376	0.086
Mof_H 	H 	0.36112	0.69624	0.93971	0.086
Mof_H 	H 	0.63888	0.19624	0.56029	0.086
Mof_H 	H 	0.91674	0.76574	0.56323	0.075
Mof_H 	H 	0.30099	0.99615	0.8505	0.038
Mof_H 	H 	0.58326	0.23426	0.06323	0.075
Mof_H 	H 	0.98877	0.19558	0.35782	0.045
Mof_H 	H 	0.07821	0.95508	0.26789	0.057
Mof_H 	H 	0.08326	0.23426	0.43677	0.075
Mof_H 	H 	0.80298	0.63104	0.55575	0.101
Mof_H 	H 	0.64218	0.48877	0.30442	0.045
Mof_H 	H 	0.14218	0.48877	0.19558	0.045
Mof_H 	H 	0.99615	0.6495	0.80099	0.037
Mof_H 	H 	0.69901	0.00385	0.1495	0.038
Mof_H 	H 	0.06323	0.58326	0.23426	0.075
Mof_H 	H 	0.80442	0.64218	0.01123	0.045
Mof_H 	H 	0.23211	0.57821	0.95508	0.057
Mof_H 	H 	0.92179	0.45508	0.23211	0.057
Mof_H 	H 	0.93971	0.36112	0.69624	0.086
Mof_H 	H 	0.63888	0.30376	0.06029	0.086
Mof_H 	H 	0.76789	0.07821	0.54492	0.057
Mof_H 	H 	0.35782	0.51123	0.69558	0.045
Mof_H 	H 	0.13888	0.19624	0.93971	0.087
Mof_H 	H 	0.99615	0.8505	0.30099	0.038
Mof_H 	H 	0.19558	0.35782	0.98877	0.045
Mof_H 	H 	0.85782	0.51123	0.80442	0.045
Mof_H 	H 	0.56323	0.58326	0.26574	0.075
Mof_H 	H 	0.19624	0.93971	0.13888	0.087
Mof_H 	H 	0.86896	0.05575	0.80298	0.102
Mof_H 	H 	0.41674	0.76574	0.93677	0.075
Mof_H 	H 	0.95508	0.23211	0.57821	0.057
Mof_H 	H 	0.69624	0.56029	0.86112	0.086
Mof_H 	H 	0.93971	0.13888	0.19624	0.087
Mof_H 	H 	0.56029	0.63888	0.19624	0.086
Mof_H 	H 	0.13104	0.55575	0.69702	0.101
Mof_H 	H 	0.64218	0.01123	0.80442	0.045
Mof_H 	H 	0.73211	0.57821	0.54492	0.057
Mof_H 	H 	0.05575	0.69702	0.36896	0.101
Mof_H 	H 	0.3505	0.30099	0.50385	0.039
Mof_H 	H 	0.1495	0.69901	0.00385	0.038
Mof_H 	H 	0.69702	0.36896	0.05575	0.101
Mof_H 	H 	0.45508	0.23211	0.92179	0.057
Mof_H 	H 	0.48877	0.19558	0.14218	0.045
Mof_H 	H 	0.51123	0.69558	0.35782	0.045
Mof_H 	H 	0.30376	0.43971	0.13888	0.086
Mof_H 	H 	0.63104	0.55575	0.80298	0.101
Mof_H 	H 	0.23211	0.92179	0.45508	0.057
Mof_H 	H 	0.69624	0.93971	0.36112	0.086
Mof_H 	H 	0.95508	0.26789	0.07821	0.057
Mof_H 	H 	0.06029	0.86112	0.80376	0.087
Mof_H 	H 	0.54492	0.76789	0.07821	0.057
Mof_H 	H 	0.85782	0.98877	0.30442	0.045
Mof_H 	H 	0.49615	0.8505	0.19901	0.039
Mof_H 	H 	0.43677	0.08326	0.23426	0.075
Mof_H 	H 	0.86112	0.80376	0.06029	0.087
Mof_H 	H 	0.06323	0.91674	0.73426	0.075
Mof_H 	H 	0.19624	0.56029	0.63888	0.086
Mof_H 	H 	0.8505	0.19901	0.49615	0.039
Mof_H 	H 	0.80376	0.06029	0.86112	0.087
Mof_H 	H 	0.91674	0.73426	0.06323	0.075
Mof_H 	H 	0.69558	0.35782	0.51123	0.045
Mof_H 	H 	0.01123	0.80442	0.64218	0.045
Mof_H 	H 	0.56029	0.86112	0.69624	0.086
Mof_H 	H 	0.73426	0.43677	0.41674	0.075
Mof_H 	H 	0.51123	0.80442	0.85782	0.045
Mof_H 	H 	0.07821	0.54492	0.76789	0.057
Mof_H 	H 	0.41674	0.73426	0.43677	0.075
Mof_H 	H 	0.63104	0.94425	0.30298	0.101
Mof_H 	H 	0.36896	0.44425	0.19702	0.101
Mof_H 	H 	0.49615	0.6495	0.69901	0.039
Mof_H 	H 	0.19558	0.14218	0.48877	0.045
Mof_H 	H 	0.04492	0.76789	0.42179	0.057
Mof_H 	H 	0.23426	0.43677	0.08326	0.075
Mof_H 	H 	0.43971	0.36112	0.80376	0.086
Mof_H 	H 	0.00385	0.1495	0.69901	0.038
Mof_H 	H 	0.86112	0.69624	0.56029	0.086
Mof_H 	H 	0.6495	0.69901	0.49615	0.039
Mof_H 	H 	0.30376	0.06029	0.63888	0.086
Mof_H 	H 	0.55575	0.69702	0.13104	0.101
Mof_H 	H 	0.05575	0.80298	0.86896	0.102
Mof_H 	H 	0.44425	0.19702	0.36896	0.101
Mof_H 	H 	0.93677	0.41674	0.76574	0.075
Mof_H 	H 	0.23426	0.06323	0.58326	0.075
Mof_H 	H 	0.73426	0.06323	0.91674	0.075
Mof_H 	H 	0.1495	0.80099	0.50385	0.039
Mof_H 	H 	0.92179	0.04492	0.73211	0.057
Mof_H 	H 	0.13104	0.94425	0.19702	0.102
Mof_H 	H 	0.69901	0.49615	0.6495	0.039
Mof_H 	H 	0.76574	0.93677	0.41674	0.075
Mof_H 	H 	0.26574	0.56323	0.58326	0.075
Mof_H 	H 	0.76789	0.42179	0.04492	0.057
Mof_H 	H 	0.50385	0.1495	0.80099	0.039
Mof_H 	H 	0.35782	0.98877	0.19558	0.045
Mof_H 	H 	0.58326	0.26574	0.56323	0.075
Mof_H 	H 	0.26574	0.93677	0.08326	0.075
Mof_H 	H 	0.42179	0.45508	0.26789	0.057
Mof_H 	H 	0.26789	0.07821	0.95508	0.057
Mof_H 	H 	0.54492	0.73211	0.57821	0.057
Mof_H 	H 	0.57821	0.54492	0.73211	0.057
Mof_H 	H 	0.80442	0.85782	0.51123	0.045
Mof_H 	H 	0.69702	0.13104	0.55575	0.101
Mof_H 	H 	0.3505	0.19901	0.00385	0.037
Mof_H 	H 	0.50385	0.3505	0.30099	0.039
Mof_H 	H 	0.19702	0.36896	0.44425	0.101
Mof_H 	H 	0.19702	0.13104	0.94425	0.102
Mof_H 	H 	0.30442	0.64218	0.48877	0.045
Mof_H 	H 	0.93677	0.08326	0.26574	0.075
Mof_H 	H 	0.43677	0.41674	0.73426	0.075
Mof_H 	H 	0.48877	0.30442	0.64218	0.045
Mof_H 	H 	0.94425	0.30298	0.63104	0.101
Mof_H 	H 	0.44425	0.30298	0.86896	0.101
Mof_H 	H 	0.57821	0.95508	0.23211	0.057
Mof_H 	H 	0.55575	0.80298	0.63104	0.101
Mof_H 	H 	0.94425	0.19702	0.13104	0.102
Mof_H 	H 	0.36896	0.05575	0.69702	0.101
Mof_H 	H 	0.19901	0.00385	0.3505	0.037
Mof_H 	H 	0.30298	0.63104	0.94425	0.101
Mof_H 	H 	0.01123	0.69558	0.14218	0.045
Mof_H 	H 	0.80298	0.86896	0.05575	0.102
Mof_H 	H 	0.00385	0.3505	0.19901	0.037
Mof_H 	H 	0.86896	0.44425	0.30298	0.101
Mof_H 	H 	0.80376	0.43971	0.36112	0.086
Mof_H 	H 	0.30442	0.85782	0.98877	0.045
Mof_H 	H 	0.14218	0.01123	0.69558	0.045
Mof_H 	H 	0.56323	0.91674	0.76574	0.075
Mof_H 	H 	0.08326	0.26574	0.93677	0.075
Mof_H 	H 	0.73211	0.92179	0.04492	0.057
Mof_H 	H 	0.42179	0.04492	0.76789	0.057
Mof_H 	H 	0.36112	0.80376	0.43971	0.086
Mof_H 	H 	0.76574	0.56323	0.91674	0.075
Mof_H 	H 	0.19901	0.49615	0.8505	0.039
Mof_H 	H 	0.43971	0.13888	0.30376	0.086
Mof_H 	H 	0.45508	0.26789	0.42179	0.057
Mof_H 	H 	0.80099	0.50385	0.1495	0.039
Mof_H 	H 	0.69558	0.14218	0.01123	0.045
Mof_H 	H 	0.30298	0.86896	0.44425	0.101
Mof_H 	H 	0.98877	0.30442	0.85782	0.045
Mof_H 	H 	0.13888	0.30376	0.43971	0.086
Mof_H 	H 	0.8505	0.30099	0.99615	0.038
Mof_H 	H 	0.26789	0.42179	0.45508	0.057
Mof_H 	H 	0.04492	0.73211	0.92179	0.057
Mof_C 	C 	0.54356	0.7716	0.64494	-0.11
Mof_C 	C 	0.18088	0.81489	0.49167	0.075
Mof_C 	C 	0.18088	0.68511	0.99167	0.076
Mof_C 	C 	0.4625	0.36565	0.68189	-0.067
Mof_C 	C 	0.68511	0.99167	0.18088	0.076
Mof_C 	C 	0.19626	0.96765	0.23186	0.067
Mof_C 	C 	0.26814	0.80374	0.46765	0.066
Mof_C 	C 	0.48045	0.18434	0.86621	-0.111
Mof_C 	C 	0.34953	0.77072	0.44974	-0.077
Mof_C 	C 	0.77029	0.1137	0.53716	0.058
Mof_C 	C 	0.88241	0.72964	0.052	0.018
Mof_C 	C 	0.30374	0.03235	0.73186	0.066
Mof_C 	C 	0.54356	0.7284	0.14494	-0.109
Mof_C 	C 	0.68398	0.32479	0.52126	0.049
Mof_C 	C 	0.3863	0.46284	0.27029	0.058
Mof_C 	C 	0.46598	0.2999	0.76405	0.039
Mof_C 	C 	0.46068	0.09971	0.1386	0.211
Mof_C 	C 	0.23595	0.96598	0.2001	0.039
Mof_C 	C 	0.52126	0.81602	0.82479	0.049
Mof_C 	C 	0.31811	0.5375	0.63435	-0.067
Mof_C 	C 	0.53716	0.72971	0.6137	0.058
Mof_C 	C 	0.53932	0.90029	0.8614	0.211
Mof_C 	C 	0.31566	0.36621	0.48045	-0.111
Mof_C 	C 	0.05026	0.84953	0.77072	-0.077
Mof_C 	C 	0.97874	0.31602	0.82479	0.049
Mof_C 	C 	0.02126	0.68398	0.17521	0.049
Mof_C 	C 	0.4625	0.13435	0.18189	-0.067
Mof_C 	C 	0.44974	0.15047	0.27072	-0.077
Mof_C 	C 	0.81566	0.13379	0.51955	-0.111
Mof_C 	C 	0.23186	0.30374	0.46765	0.066
Mof_C 	C 	0.22971	0.8863	0.46284	0.058
Mof_C 	C 	0.052	0.88241	0.72964	0.018
Mof_C 	C 	0.36565	0.81811	0.9625	-0.066
Mof_C 	C 	0.17521	0.02126	0.68398	0.049
Mof_C 	C 	0.53235	0.73186	0.19626	0.066
Mof_C 	C 	0.55026	0.84953	0.72928	-0.077
Mof_C 	C 	0.68434	0.86621	0.01955	-0.111
Mof_C 	C 	0.3614	0.96068	0.09971	0.211
Mof_C 	C 	0.5375	0.86565	0.81811	-0.067
Mof_C 	C 	0.49167	0.31912	0.31489	0.075
Mof_C 	C 	0.89911	0.01281	0.6402	0.31
Mof_C 	C 	0.14494	0.95644	0.2284	-0.11
Mof_C 	C 	0.23595	0.53402	0.7001	0.039
Mof_C 	C 	0.84953	0.72928	0.55026	-0.077
Mof_C 	C 	0.36621	0.01955	0.81566	-0.111
Mof_C 	C 	0.8614	0.53932	0.90029	0.211
Mof_C 	C 	0.9625	0.36565	0.81811	-0.066
Mof_C 	C 	0.34953	0.72928	0.94974	-0.077
Mof_C 	C 	0.48719	0.3598	0.39911	0.309
Mof_C 	C 	0.63379	0.51955	0.68434	-0.111
Mof_C 	C 	0.18398	0.17521	0.47874	0.049
Mof_C 	C 	0.03932	0.90029	0.6386	0.211
Mof_C 	C 	0.51281	0.8598	0.10089	0.309
Mof_C 	C 	0.27036	0.552	0.61759	0.018
Mof_C 	C 	0.96068	0.40029	0.8614	0.211
Mof_C 	C 	0.22964	0.052	0.61759	0.018
Mof_C 	C 	0.48719	0.1402	0.89911	0.309
Mof_C 	C 	0.8614	0.96068	0.40029	0.211
Mof_C 	C 	0.67521	0.47874	0.31602	0.049
Mof_C 	C 	0.27072	0.05026	0.65047	-0.077
Mof_C 	C 	0.63435	0.31811	0.5375	-0.067
Mof_C 	C 	0.03716	0.72971	0.8863	0.059
Mof_C 	C 	0.03402	0.7999	0.76405	0.039
Mof_C 	C 	0.30374	0.46765	0.23186	0.066
Mof_C 	C 	0.31912	0.18511	0.99167	0.077
Mof_C 	C 	0.46284	0.22971	0.8863	0.058
Mof_C 	C 	0.61759	0.27036	0.552	0.018
Mof_C 	C 	0.26405	0.03402	0.7001	0.039
Mof_C 	C 	0.39911	0.48719	0.3598	0.309
Mof_C 	C 	0.03402	0.7001	0.26405	0.039
Mof_C 	C 	0.01955	0.81566	0.36621	-0.111
Mof_C 	C 	0.90029	0.8614	0.53932	0.211
Mof_C 	C 	0.64494	0.95644	0.2716	-0.11
Mof_C 	C 	0.65047	0.22928	0.55026	-0.077
Mof_C 	C 	0.82479	0.97874	0.31602	0.049
Mof_C 	C 	0.77029	0.3863	0.03716	0.058
Mof_C 	C 	0.95644	0.2284	0.14494	-0.11
Mof_C 	C 	0.32479	0.52126	0.68398	0.049
Mof_C 	C 	0.448	0.38241	0.72964	0.018
Mof_C 	C 	0.72971	0.8863	0.03716	0.059
Mof_C 	C 	0.6386	0.46068	0.40029	0.211
Mof_C 	C 	0.99167	0.18088	0.68511	0.076
Mof_C 	C 	0.76405	0.03402	0.7999	0.039
Mof_C 	C 	0.18189	0.4625	0.13435	-0.067
Mof_C 	C 	0.50833	0.81912	0.18511	0.075
Mof_C 	C 	0.98045	0.31566	0.13379	-0.111
Mof_C 	C 	0.1402	0.60089	0.98719	0.31
Mof_C 	C 	0.68088	0.68511	0.50833	0.075
Mof_C 	C 	0.2716	0.85506	0.45644	-0.109
Mof_C 	C 	0.01281	0.8598	0.39911	0.31
Mof_C 	C 	0.46598	0.2001	0.26405	0.039
Mof_C 	C 	0.76814	0.80374	0.03235	0.067
Mof_C 	C 	0.1386	0.46068	0.09971	0.211
Mof_C 	C 	0.26814	0.69626	0.96765	0.066
Mof_C 	C 	0.9625	0.13435	0.31811	-0.066
Mof_C 	C 	0.6137	0.96284	0.22971	0.058
Mof_C 	C 	0.2999	0.73595	0.96598	0.039
Mof_C 	C 	0.88241	0.77036	0.552	0.018
Mof_C 	C 	0.04356	0.7716	0.85506	-0.11
Mof_C 	C 	0.47874	0.18398	0.17521	0.049
Mof_C 	C 	0.53716	0.77029	0.1137	0.058
Mof_C 	C 	0.13379	0.98045	0.31566	-0.111
Mof_C 	C 	0.84953	0.77072	0.05026	-0.077
Mof_C 	C 	0.77036	0.948	0.38241	0.018
Mof_C 	C 	0.97874	0.18398	0.32479	0.049
Mof_C 	C 	0.81811	0.5375	0.86565	-0.067
Mof_C 	C 	0.1386	0.03932	0.59971	0.211
Mof_C 	C 	0.27029	0.1137	0.96284	0.059
Mof_C 	C 	0.8863	0.46284	0.22971	0.058
Mof_C 	C 	0.3863	0.03716	0.77029	0.058
Mof_C 	C 	0.09971	0.3614	0.96068	0.211
Mof_C 	C 	0.51281	0.6402	0.60089	0.309
Mof_C 	C 	0.86565	0.81811	0.5375	-0.067
Mof_C 	C 	0.96284	0.22971	0.6137	0.058
Mof_C 	C 	0.31602	0.67521	0.47874	0.049
Mof_C 	C 	0.76405	0.46598	0.2999	0.039
Mof_C 	C 	0.2284	0.14494	0.95644	-0.11
Mof_C 	C 	0.96284	0.27029	0.1137	0.059
Mof_C 	C 	0.2001	0.23595	0.96598	0.039
Mof_C 	C 	0.81811	0.9625	0.36565	-0.066
Mof_C 	C 	0.68434	0.63379	0.51955	-0.111
Mof_C 	C 	0.96068	0.09971	0.3614	0.211
Mof_C 	C 	0.27036	0.948	0.11759	0.018
Mof_C 	C 	0.53932	0.59971	0.3614	0.211
Mof_C 	C 	0.03932	0.59971	0.1386	0.211
Mof_C 	C 	0.72928	0.94974	0.34953	-0.077
Mof_C 	C 	0.10089	0.51281	0.8598	0.309
Mof_C 	C 	0.3598	0.10089	0.98719	0.31
Mof_C 	C 	0.01955	0.68434	0.86621	-0.111
Mof_C 	C 	0.18511	0.99167	0.31912	0.077
Mof_C 	C 	0.55026	0.65047	0.22928	-0.077
Mof_C 	C 	0.96765	0.26814	0.69626	0.066
Mof_C 	C 	0.11759	0.27036	0.948	0.018
Mof_C 	C 	0.94974	0.34953	0.72928	-0.077
Mof_C 	C 	0.1137	0.53716	0.77029	0.058
Mof_C 	C 	0.96598	0.2001	0.23595	0.039
Mof_C 	C 	0.59971	0.1386	0.03932	0.211
Mof_C 	C 	0.7001	0.26405	0.03402	0.039
Mof_C 	C 	0.03235	0.73186	0.30374	0.066
Mof_C 	C 	0.01281	0.6402	0.89911	0.31
Mof_C 	C 	0.1402	0.89911	0.48719	0.309
Mof_C 	C 	0.3614	0.53932	0.59971	0.211
Mof_C 	C 	0.6137	0.53716	0.72971	0.058
Mof_C 	C 	0.81602	0.67521	0.02126	0.049
Mof_C 	C 	0.68088	0.81489	0.00833	0.077
Mof_C 	C 	0.86565	0.68189	0.0375	-0.066
Mof_C 	C 	0.95644	0.2716	0.64494	-0.11
Mof_C 	C 	0.60089	0.98719	0.1402	0.31
Mof_C 	C 	0.81912	0.18511	0.50833	0.075
Mof_C 	C 	0.46284	0.27029	0.3863	0.058
Mof_C 	C 	0.51955	0.68434	0.63379	-0.111
Mof_C 	C 	0.448	0.11759	0.22964	0.018
Mof_C 	C 	0.68189	0.0375	0.86565	-0.066
Mof_C 	C 	0.0375	0.63435	0.18189	-0.066
Mof_C 	C 	0.73595	0.53402	0.7999	0.039
Mof_C 	C 	0.26405	0.46598	0.2001	0.039
Mof_C 	C 	0.052	0.61759	0.22964	0.018
Mof_C 	C 	0.77072	0.44974	0.34953	-0.077
Mof_C 	C 	0.04356	0.7284	0.35506	-0.11
Mof_C 	C 	0.8598	0.10089	0.51281	0.309
Mof_C 	C 	0.50833	0.68088	0.68511	0.075
Mof_C 	C 	0.31566	0.13379	0.98045	-0.111
Mof_C 	C 	0.552	0.88241	0.77036	0.018
Mof_C 	C 	0.7716	0.64494	0.54356	-0.11
Mof_C 	C 	0.27029	0.3863	0.46284	0.058
Mof_C 	C 	0.31912	0.31489	0.49167	0.075
Mof_C 	C 	0.59971	0.3614	0.53932	0.211
Mof_C 	C 	0.13379	0.51955	0.81566	-0.111
Mof_C 	C 	0.15047	0.22928	0.94974	-0.077
Mof_C 	C 	0.18434	0.63379	0.98045	-0.111
Mof_C 	C 	0.32479	0.97874	0.18398	0.049
Mof_C 	C 	0.22971	0.6137	0.96284	0.058
Mof_C 	C 	0.49167	0.18088	0.81489	0.075
Mof_C 	C 	0.64494	0.54356	0.7716	-0.11
Mof_C 	C 	0.13435	0.31811	0.9625	-0.066
Mof_C 	C 	0.80374	0.46765	0.26814	0.066
Mof_C 	C 	0.73186	0.30374	0.03235	0.066
Mof_C 	C 	0.85506	0.04356	0.7716	-0.11
Mof_C 	C 	0.00833	0.68088	0.81489	0.077
Mof_C 	C 	0.31811	0.9625	0.13435	-0.066
Mof_C 	C 	0.5375	0.63435	0.31811	-0.067
Mof_C 	C 	0.8863	0.03716	0.72971	0.059
Mof_C 	C 	0.81912	0.31489	0.00833	0.076
Mof_C 	C 	0.72928	0.55026	0.84953	-0.077
Mof_C 	C 	0.35506	0.45644	0.2284	-0.11
Mof_C 	C 	0.53235	0.76814	0.69626	0.066
Mof_C 	C 	0.7716	0.85506	0.04356	-0.11
Mof_C 	C 	0.72964	0.448	0.38241	0.018
Mof_C 	C 	0.6386	0.03932	0.90029	0.211
Mof_C 	C 	0.7284	0.35506	0.04356	-0.11
Mof_C 	C 	0.68189	0.4625	0.36565	-0.067
Mof_C 	C 	0.65047	0.27072	0.05026	-0.077
Mof_C 	C 	0.7999	0.73595	0.53402	0.039
Mof_C 	C 	0.6402	0.60089	0.51281	0.309
Mof_C 	C 	0.46068	0.40029	0.6386	0.211
Mof_C 	C 	0.96598	0.2999	0.73595	0.039
Mof_C 	C 	0.67521	0.02126	0.81602	0.049
Mof_C 	C 	0.80374	0.03235	0.76814	0.067
Mof_C 	C 	0.98719	0.3598	0.10089	0.31
Mof_C 	C 	0.51955	0.81566	0.13379	-0.111
Mof_C 	C 	0.45644	0.2284	0.35506	-0.11
Mof_C 	C 	0.68398	0.17521	0.02126	0.049
Mof_C 	C 	0.39911	0.01281	0.8598	0.31
Mof_C 	C 	0.63435	0.18189	0.0375	-0.066
Mof_C 	C 	0.09971	0.1386	0.46068	0.211
Mof_C 	C 	0.05026	0.65047	0.27072	-0.077
Mof_C 	C 	0.2284	0.35506	0.45644	-0.11
Mof_C 	C 	0.2001	0.26405	0.46598	0.039
Mof_C 	C 	0.44974	0.34953	0.77072	-0.077
Mof_C 	C 	0.948	0.11759	0.27036	0.018
Mof_C 	C 	0.7284	0.14494	0.54356	-0.109
Mof_C 	C 	0.2716	0.64494	0.95644	-0.11
Mof_C 	C 	0.31602	0.82479	0.97874	0.049
Mof_C 	C 	0.81602	0.82479	0.52126	0.049
Mof_C 	C 	0.2999	0.76405	0.46598	0.039
Mof_C 	C 	0.69626	0.53235	0.76814	0.066
Mof_C 	C 	0.22928	0.94974	0.15047	-0.077
Mof_C 	C 	0.48045	0.31566	0.36621	-0.111
Mof_C 	C 	0.36565	0.68189	0.4625	-0.067
Mof_C 	C 	0.69626	0.96765	0.26814	0.066
Mof_C 	C 	0.94974	0.15047	0.22928	-0.077
Mof_C 	C 	0.0375	0.86565	0.68189	-0.066
Mof_C 	C 	0.02126	0.81602	0.67521	0.049
Mof_C 	C 	0.36621	0.48045	0.31566	-0.111
Mof_C 	C 	0.46765	0.26814	0.80374	0.066
Mof_C 	C 	0.90029	0.6386	0.03932	0.211
Mof_C 	C 	0.19626	0.53235	0.73186	0.066
Mof_C 	C 	0.6402	0.89911	0.01281	0.31
Mof_C 	C 	0.3598	0.39911	0.48719	0.309
Mof_C 	C 	0.89911	0.48719	0.1402	0.309
Mof_C 	C 	0.40029	0.8614	0.96068	0.211
Mof_C 	C 	0.8598	0.39911	0.01281	0.31
Mof_C 	C 	0.13435	0.18189	0.4625	-0.067
Mof_C 	C 	0.60089	0.51281	0.6402	0.309
Mof_C 	C 	0.72971	0.6137	0.53716	0.058
Mof_C 	C 	0.81489	0.00833	0.68088	0.077
Mof_C 	C 	0.35506	0.04356	0.7284	-0.11
Mof_C 	C 	0.81489	0.49167	0.18088	0.075
Mof_C 	C 	0.31489	0.00833	0.81912	0.076
Mof_C 	C 	0.22964	0.448	0.11759	0.018
Mof_C 	C 	0.52126	0.68398	0.32479	0.049
Mof_C 	C 	0.15047	0.27072	0.44974	-0.077
Mof_C 	C 	0.98719	0.1402	0.60089	0.31
Mof_C 	C 	0.47874	0.31602	0.67521	0.049
Mof_C 	C 	0.22928	0.55026	0.65047	-0.077
Mof_C 	C 	0.31489	0.49167	0.31912	0.075
Mof_C 	C 	0.40029	0.6386	0.46068	0.211
Mof_C 	C 	0.61759	0.22964	0.052	0.018
Mof_C 	C 	0.552	0.61759	0.27036	0.018
Mof_C 	C 	0.63379	0.98045	0.18434	-0.111
Mof_C 	C 	0.17521	0.47874	0.18398	0.049
Mof_C 	C 	0.03716	0.77029	0.3863	0.058
Mof_C 	C 	0.11759	0.22964	0.448	0.018
Mof_C 	C 	0.82479	0.52126	0.81602	0.049
Mof_C 	C 	0.27072	0.44974	0.15047	-0.077
Mof_C 	C 	0.86621	0.01955	0.68434	-0.111
Mof_C 	C 	0.23186	0.19626	0.96765	0.067
Mof_C 	C 	0.18189	0.0375	0.63435	-0.066
Mof_C 	C 	0.76814	0.69626	0.53235	0.066
Mof_C 	C 	0.98045	0.18434	0.63379	-0.111
Mof_C 	C 	0.53402	0.7001	0.23595	0.039
Mof_C 	C 	0.68511	0.50833	0.68088	0.075
Mof_C 	C 	0.18511	0.50833	0.81912	0.075
Mof_C 	C 	0.948	0.38241	0.77036	0.018
Mof_C 	C 	0.14494	0.54356	0.7284	-0.109
Mof_C 	C 	0.00833	0.81912	0.31489	0.076
Mof_C 	C 	0.03235	0.76814	0.80374	0.067
Mof_C 	C 	0.45644	0.2716	0.85506	-0.109
Mof_C 	C 	0.10089	0.98719	0.3598	0.31
Mof_C 	C 	0.38241	0.72964	0.448	0.018
Mof_C 	C 	0.77072	0.05026	0.84953	-0.077
Mof_C 	C 	0.7999	0.76405	0.03402	0.039
Mof_C 	C 	0.7001	0.23595	0.53402	0.039
Mof_C 	C 	0.99167	0.31912	0.18511	0.077
Mof_C 	C 	0.73595	0.96598	0.2999	0.039
Mof_C 	C 	0.53402	0.7999	0.73595	0.039
Mof_C 	C 	0.1137	0.96284	0.27029	0.059
Mof_C 	C 	0.46765	0.23186	0.30374	0.066
Mof_C 	C 	0.18398	0.32479	0.97874	0.049
Mof_C 	C 	0.73186	0.19626	0.53235	0.066
Mof_C 	C 	0.77036	0.552	0.88241	0.018
Mof_C 	C 	0.81566	0.36621	0.01955	-0.111
Mof_C 	C 	0.38241	0.77036	0.948	0.018
Mof_C 	C 	0.18434	0.86621	0.48045	-0.111
Mof_C 	C 	0.72964	0.052	0.88241	0.018
Mof_C 	C 	0.96765	0.23186	0.19626	0.067
Mof_C 	C 	0.86621	0.48045	0.18434	-0.111
Mof_C 	C 	0.85506	0.45644	0.2716	-0.109
Mof_N 	N 	0.01956	0.78396	0.71528	-0.213
Mof_N 	N 	0.98543	0.27827	0.21557	-0.206
Mof_N 	N 	0.71557	0.98543	0.22173	-0.206
Mof_N 	N 	0.01457	0.77827	0.28443	-0.206
Mof_N 	N 	0.78472	0.98044	0.28396	-0.214
Mof_N 	N 	0.28472	0.51956	0.71604	-0.214
Mof_N 	N 	0.71557	0.51457	0.72173	-0.206
Mof_N 	N 	0.22173	0.71557	0.98543	-0.206
Mof_N 	N 	0.48044	0.21604	0.21528	-0.214
Mof_N 	N 	0.51457	0.77827	0.21557	-0.206
Mof_N 	N 	0.71528	0.48044	0.28396	-0.214
Mof_N 	N 	0.22173	0.78443	0.48543	-0.206
Mof_N 	N 	0.01457	0.72173	0.78443	-0.206
Mof_N 	N 	0.78443	0.01457	0.72173	-0.206
Mof_N 	N 	0.21557	0.98543	0.27827	-0.206
Mof_N 	N 	0.27827	0.28443	0.48543	-0.206
Mof_N 	N 	0.21604	0.21528	0.48044	-0.214
Mof_N 	N 	0.78396	0.71528	0.01956	-0.213
Mof_N 	N 	0.98044	0.28396	0.78472	-0.214
Mof_N 	N 	0.21528	0.01956	0.71604	-0.214
Mof_N 	N 	0.72173	0.78443	0.01457	-0.206
Mof_N 	N 	0.78396	0.78472	0.51956	-0.214
Mof_N 	N 	0.21604	0.28472	0.98044	-0.213
Mof_N 	N 	0.27827	0.21557	0.98543	-0.206
Mof_N 	N 	0.98543	0.22173	0.71557	-0.206
Mof_N 	N 	0.48543	0.27827	0.28443	-0.206
Mof_N 	N 	0.21557	0.51457	0.77827	-0.206
Mof_N 	N 	0.71604	0.28472	0.51956	-0.214
Mof_N 	N 	0.78443	0.48543	0.22173	-0.206
Mof_N 	N 	0.21528	0.48044	0.21604	-0.214
Mof_N 	N 	0.51956	0.78396	0.78472	-0.214
Mof_N 	N 	0.72173	0.71557	0.51457	-0.206
Mof_N 	N 	0.51457	0.72173	0.71557	-0.206
Mof_N 	N 	0.28396	0.78472	0.98044	-0.214
Mof_N 	N 	0.71604	0.21528	0.01956	-0.214
Mof_N 	N 	0.28443	0.48543	0.27827	-0.206
Mof_N 	N 	0.98044	0.21604	0.28472	-0.213
Mof_N 	N 	0.48543	0.22173	0.78443	-0.206
Mof_N 	N 	0.28472	0.98044	0.21604	-0.213
Mof_N 	N 	0.28443	0.01457	0.77827	-0.206
Mof_N 	N 	0.77827	0.28443	0.01457	-0.206
Mof_N 	N 	0.78472	0.51956	0.78396	-0.214
Mof_N 	N 	0.51956	0.71604	0.28472	-0.214
Mof_N 	N 	0.48044	0.28396	0.71528	-0.214
Mof_N 	N 	0.01956	0.71604	0.21528	-0.214
Mof_N 	N 	0.28396	0.71528	0.48044	-0.214
Mof_N 	N 	0.77827	0.21557	0.51457	-0.206
Mof_N 	N 	0.71528	0.01956	0.78396	-0.213
Mof_Cl	Cl	0.9669	0.7101	0.6449	-0.434
Mof_Cl	Cl	0.3551	0.0331	0.2899	-0.434
Mof_Cl	Cl	0.36575	0.2028	0.4622	-0.45
Mof_Cl	Cl	0.8551	0.4669	0.7101	-0.433
Mof_Cl	Cl	0.2028	0.0378	0.86575	-0.449
Mof_Cl	Cl	0.0331	0.2899	0.3551	-0.434
Mof_Cl	Cl	0.2972	0.5378	0.86575	-0.45
Mof_Cl	Cl	0.7101	0.8551	0.4669	-0.433
Mof_Cl	Cl	0.36575	0.2972	0.9622	-0.449
Mof_Cl	Cl	0.1449	0.9669	0.7899	-0.433
Mof_Cl	Cl	0.13425	0.7972	0.9622	-0.449
Mof_Cl	Cl	0.2028	0.4622	0.36575	-0.45
Mof_Cl	Cl	0.9622	0.13425	0.7972	-0.449
Mof_Cl	Cl	0.0378	0.86575	0.2028	-0.449
Mof_Cl	Cl	0.7899	0.3551	0.4669	-0.433
Mof_Cl	Cl	0.2972	0.9622	0.36575	-0.449
Mof_Cl	Cl	0.86575	0.2972	0.5378	-0.45
Mof_Cl	Cl	0.0378	0.63425	0.7028	-0.449
Mof_Cl	Cl	0.9669	0.7899	0.1449	-0.433
Mof_Cl	Cl	0.5378	0.86575	0.2972	-0.45
Mof_Cl	Cl	0.7972	0.9622	0.13425	-0.449
Mof_Cl	Cl	0.9622	0.36575	0.2972	-0.449
Mof_Cl	Cl	0.86575	0.2028	0.0378	-0.449
Mof_Cl	Cl	0.2101	0.6449	0.5331	-0.433
Mof_Cl	Cl	0.2101	0.8551	0.0331	-0.433
Mof_Cl	Cl	0.4622	0.13425	0.7028	-0.45
Mof_Cl	Cl	0.0331	0.2101	0.8551	-0.433
Mof_Cl	Cl	0.2899	0.1449	0.5331	-0.433
Mof_Cl	Cl	0.5331	0.2899	0.1449	-0.433
Mof_Cl	Cl	0.7101	0.6449	0.9669	-0.434
Mof_Cl	Cl	0.1449	0.5331	0.2899	-0.433
Mof_Cl	Cl	0.5331	0.2101	0.6449	-0.433
Mof_Cl	Cl	0.4669	0.7101	0.8551	-0.433
Mof_Cl	Cl	0.8551	0.0331	0.2101	-0.433
Mof_Cl	Cl	0.4622	0.36575	0.2028	-0.45
Mof_Cl	Cl	0.7028	0.4622	0.13425	-0.45
Mof_Cl	Cl	0.7972	0.5378	0.63425	-0.45
Mof_Cl	Cl	0.5378	0.63425	0.7972	-0.45
Mof_Cl	Cl	0.7899	0.1449	0.9669	-0.433
Mof_Cl	Cl	0.63425	0.7028	0.0378	-0.449
Mof_Cl	Cl	0.63425	0.7972	0.5378	-0.45
Mof_Cl	Cl	0.6449	0.9669	0.7101	-0.434
Mof_Cl	Cl	0.6449	0.5331	0.2101	-0.433
Mof_Cl	Cl	0.13425	0.7028	0.4622	-0.45
Mof_Cl	Cl	0.7028	0.0378	0.63425	-0.449
Mof_Cl	Cl	0.2899	0.3551	0.0331	-0.434
Mof_Cl	Cl	0.4669	0.7899	0.3551	-0.433
Mof_Cl	Cl	0.3551	0.4669	0.7899	-0.433
Mof_O 	O 	0.048	0.5054	0.853	-0.169
Mof_O 	O 	0.38278	0.90667	0.96337	-0.173
Mof_O 	O 	0.5913	0.8684	0.9893	-0.35
Mof_O 	O 	0.90667	0.96337	0.38278	-0.173
Mof_O 	O 	0.6316	0.0107	0.0913	-0.349
Mof_O 	O 	0.93032	0.47171	0.94644	0.801
Mof_O 	O 	0.048	0.9946	0.353	-0.171
Mof_O 	O 	0.548	0.9946	0.147	-0.171
Mof_O 	O 	0.96122	0.94838	0.47048	-1.976
Mof_O 	O 	0.59833	0.88058	0.99649	-0.163
Mof_O 	O 	0.93032	0.02829	0.44644	0.8
Mof_O 	O 	0.02829	0.05356	0.43032	0.8
Mof_O 	O 	0.59333	0.46337	0.38278	-0.173
Mof_O 	O 	0.03878	0.44838	0.02952	-1.974
Mof_O 	O 	0.3698	0.587	0.4645	-0.39
Mof_O 	O 	0.35406	0.95637	0.05185	-0.322
Mof_O 	O 	0.3684	0.5107	0.4087	-0.349
Mof_O 	O 	0.6302	0.413	0.5355	-0.39
Mof_O 	O 	0.5421	0.1539	0.0315	-0.207
Mof_O 	O 	0.4685	0.0421	0.1539	-0.207
Mof_O 	O 	0.09833	0.61942	0.00351	-0.164
Mof_O 	O 	0.5315	0.9579	0.8461	-0.207
Mof_O 	O 	0.353	0.452	0.4946	-0.169
Mof_O 	O 	0.0315	0.9579	0.6539	-0.208
Mof_O 	O 	0.94649	0.02322	0.64339	-0.406
Mof_O 	O 	0.913	0.9645	0.3698	-0.391
Mof_O 	O 	0.38058	0.50351	0.40167	-0.164
Mof_O 	O 	0.0355	0.8698	0.587	-0.39
Mof_O 	O 	0.47048	0.96122	0.94838	-1.976
Mof_O 	O 	0.4579	0.8461	0.9685	-0.207
Mof_O 	O 	0.6316	0.4893	0.5913	-0.349
Mof_O 	O 	0.59333	0.03663	0.88278	-0.172
Mof_O 	O 	0.53878	0.44838	0.47048	-1.974
Mof_O 	O 	0.99649	0.59833	0.88058	-0.163
Mof_O 	O 	0.8684	0.5107	0.0913	-0.349
Mof_O 	O 	0.94644	0.56968	0.97171	0.8
Mof_O 	O 	0.5315	0.5421	0.3461	-0.207
Mof_O 	O 	0.64339	0.55351	0.52322	-0.409
Mof_O 	O 	0.40167	0.38058	0.50351	-0.164
Mof_O 	O 	0.4946	0.353	0.452	-0.169
Mof_O 	O 	0.55185	0.35406	0.54363	-0.324
Mof_O 	O 	0.5354	0.9646	0.0354	-0.804
Mof_O 	O 	0.11722	0.40667	0.96337	-0.172
Mof_O 	O 	0.54363	0.94815	0.85406	-0.324
Mof_O 	O 	0.50351	0.40167	0.38058	-0.164
Mof_O 	O 	0.9461	0.0539	0.5539	-0.311
Mof_O 	O 	0.61722	0.40667	0.53663	-0.173
Mof_O 	O 	0.14339	0.94649	0.47678	-0.409
Mof_O 	O 	0.952	0.0054	0.647	-0.171
Mof_O 	O 	0.4893	0.9087	0.1316	-0.349
Mof_O 	O 	0.96337	0.11722	0.40667	-0.172
Mof_O 	O 	0.0354	0.5354	0.9646	-0.804
Mof_O 	O 	0.0054	0.853	0.452	-0.171
Mof_O 	O 	0.5421	0.3461	0.5315	-0.207
Mof_O 	O 	0.6539	0.4685	0.4579	-0.207
Mof_O 	O 	0.95637	0.05185	0.35406	-0.322
Mof_O 	O 	0.0913	0.8684	0.5107	-0.349
Mof_O 	O 	0.52829	0.44644	0.56968	0.8
Mof_O 	O 	0.1302	0.413	0.9645	-0.39
Mof_O 	O 	0.8461	0.9685	0.4579	-0.207
Mof_O 	O 	0.5107	0.0913	0.8684	-0.349
Mof_O 	O 	0.4893	0.5913	0.6316	-0.349
Mof_O 	O 	0.5107	0.4087	0.3684	-0.349
Mof_O 	O 	0.14594	0.45637	0.05185	-0.324
Mof_O 	O 	0.47678	0.14339	0.94649	-0.409
Mof_O 	O 	0.97171	0.94644	0.56968	0.8
Mof_O 	O 	0.97171	0.55356	0.06968	0.8
Mof_O 	O 	0.0354	0.9646	0.4646	-0.804
Mof_O 	O 	0.40167	0.11942	0.00351	-0.163
Mof_O 	O 	0.1316	0.0107	0.4087	-0.35
Mof_O 	O 	0.587	0.4645	0.3698	-0.39
Mof_O 	O 	0.97678	0.14339	0.55351	-0.406
Mof_O 	O 	0.8698	0.913	0.5355	-0.391
Mof_O 	O 	0.11942	0.49649	0.90167	-0.164
Mof_O 	O 	0.548	0.5054	0.647	-0.169
Mof_O 	O 	0.43032	0.47171	0.55356	0.8
Mof_O 	O 	0.44838	0.47048	0.53878	-1.974
Mof_O 	O 	0.09333	0.03663	0.61722	-0.173
Mof_O 	O 	0.6302	0.087	0.0355	-0.391
Mof_O 	O 	0.8461	0.5315	0.9579	-0.207
Mof_O 	O 	0.46337	0.38278	0.59333	-0.173
Mof_O 	O 	0.97048	0.96122	0.55162	-1.974
Mof_O 	O 	0.55356	0.43032	0.47171	0.8
Mof_O 	O 	0.45637	0.05185	0.14594	-0.324
Mof_O 	O 	0.1539	0.0315	0.5421	-0.207
Mof_O 	O 	0.94644	0.93032	0.47171	0.801
Mof_O 	O 	0.56968	0.52829	0.44644	0.8
Mof_O 	O 	0.9461	0.4461	0.0539	-0.311
Mof_O 	O 	0.5355	0.6302	0.413	-0.39
Mof_O 	O 	0.09333	0.46337	0.11722	-0.173
Mof_O 	O 	0.05162	0.52952	0.03878	-1.976
Mof_O 	O 	0.85661	0.44649	0.02322	-0.406
Mof_O 	O 	0.44649	0.47678	0.35661	-0.409
Mof_O 	O 	0.64594	0.04363	0.94815	-0.322
Mof_O 	O 	0.0539	0.9461	0.4461	-0.311
Mof_O 	O 	0.02952	0.46122	0.94838	-1.973
Mof_O 	O 	0.4946	0.147	0.952	-0.169
Mof_O 	O 	0.11942	0.00351	0.40167	-0.163
Mof_O 	O 	0.85406	0.54363	0.94815	-0.324
Mof_O 	O 	0.9646	0.0354	0.5354	-0.804
Mof_O 	O 	0.52322	0.64339	0.55351	-0.409
Mof_O 	O 	0.4646	0.0354	0.9646	-0.804
Mof_O 	O 	0.9087	0.3684	0.9893	-0.349
Mof_O 	O 	0.0107	0.0913	0.6316	-0.349
Mof_O 	O 	0.4645	0.1302	0.087	-0.391
Mof_O 	O 	0.587	0.0355	0.8698	-0.39
Mof_O 	O 	0.96122	0.55162	0.97048	-1.974
Mof_O 	O 	0.952	0.4946	0.147	-0.169
Mof_O 	O 	0.90667	0.53663	0.88278	-0.173
Mof_O 	O 	0.88058	0.50351	0.09833	-0.164
Mof_O 	O 	0.47048	0.53878	0.44838	-1.974
Mof_O 	O 	0.97048	0.53878	0.05162	-1.973
Mof_O 	O 	0.353	0.048	0.9946	-0.171
Mof_O 	O 	0.04363	0.94815	0.64594	-0.322
Mof_O 	O 	0.4087	0.1316	0.0107	-0.35
Mof_O 	O 	0.35406	0.54363	0.55185	-0.324
Mof_O 	O 	0.44649	0.02322	0.85661	-0.406
Mof_O 	O 	0.147	0.952	0.4946	-0.169
Mof_O 	O 	0.55162	0.52952	0.46122	-1.974
Mof_O 	O 	0.02829	0.44644	0.93032	0.8
Mof_O 	O 	0.9946	0.147	0.548	-0.171
Mof_O 	O 	0.64339	0.94649	0.02322	-0.406
Mof_O 	O 	0.52322	0.85661	0.05351	-0.409
Mof_O 	O 	0.55185	0.14594	0.04363	-0.324
Mof_O 	O 	0.03878	0.05162	0.52952	-1.976
Mof_O 	O 	0.85406	0.95637	0.44815	-0.324
Mof_O 	O 	0.44838	0.02952	0.03878	-1.974
Mof_O 	O 	0.44644	0.93032	0.02829	0.8
Mof_O 	O 	0.5355	0.8698	0.913	-0.391
Mof_O 	O 	0.05185	0.14594	0.45637	-0.324
Mof_O 	O 	0.55351	0.97678	0.14339	-0.406
Mof_O 	O 	0.4579	0.6539	0.4685	-0.207
Mof_O 	O 	0.9893	0.9087	0.3684	-0.349
Mof_O 	O 	0.4461	0.0539	0.9461	-0.311
Mof_O 	O 	0.147	0.548	0.9946	-0.171
Mof_O 	O 	0.88058	0.99649	0.59833	-0.163
Mof_O 	O 	0.40667	0.53663	0.61722	-0.173
Mof_O 	O 	0.5913	0.6316	0.4893	-0.349
Mof_O 	O 	0.55351	0.52322	0.64339	-0.409
Mof_O 	O 	0.9087	0.1316	0.4893	-0.349
Mof_O 	O 	0.00351	0.40167	0.11942	-0.163
Mof_O 	O 	0.087	0.4645	0.1302	-0.391
Mof_O 	O 	0.087	0.0355	0.6302	-0.391
Mof_O 	O 	0.49649	0.59833	0.61942	-0.164
Mof_O 	O 	0.55356	0.06968	0.97171	0.8
Mof_O 	O 	0.0421	0.1539	0.4685	-0.207
Mof_O 	O 	0.06968	0.52829	0.05356	0.801
Mof_O 	O 	0.452	0.4946	0.353	-0.169
Mof_O 	O 	0.40667	0.96337	0.11722	-0.172
Mof_O 	O 	0.05351	0.97678	0.35661	-0.406
Mof_O 	O 	0.3698	0.913	0.9645	-0.391
Mof_O 	O 	0.38278	0.59333	0.46337	-0.173
Mof_O 	O 	0.1539	0.4685	0.0421	-0.207
Mof_O 	O 	0.52952	0.46122	0.55162	-1.974
Mof_O 	O 	0.56968	0.97171	0.94644	0.8
Mof_O 	O 	0.6539	0.0315	0.9579	-0.208
Mof_O 	O 	0.11722	0.09333	0.46337	-0.173
Mof_O 	O 	0.4646	0.4646	0.4646	-0.805
Mof_O 	O 	0.5539	0.9461	0.0539	-0.311
Mof_O 	O 	0.1302	0.087	0.4645	-0.391
Mof_O 	O 	0.5054	0.647	0.548	-0.169
Mof_O 	O 	0.647	0.952	0.0054	-0.171
Mof_O 	O 	0.0315	0.5421	0.1539	-0.207
Mof_O 	O 	0.3684	0.9893	0.9087	-0.349
Mof_O 	O 	0.94815	0.64594	0.04363	-0.322
Mof_O 	O 	0.9946	0.353	0.048	-0.171
Mof_O 	O 	0.00351	0.09833	0.61942	-0.164
Mof_O 	O 	0.9645	0.1302	0.413	-0.39
Mof_O 	O 	0.99649	0.90167	0.38058	-0.164
Mof_O 	O 	0.9685	0.0421	0.3461	-0.208
Mof_O 	O 	0.853	0.048	0.5054	-0.169
Mof_O 	O 	0.5354	0.5354	0.5354	-0.805
Mof_O 	O 	0.8684	0.9893	0.5913	-0.35
Mof_O 	O 	0.53663	0.61722	0.40667	-0.173
Mof_O 	O 	0.413	0.5355	0.6302	-0.39
Mof_O 	O 	0.03663	0.61722	0.09333	-0.173
Mof_O 	O 	0.59833	0.61942	0.49649	-0.164
Mof_O 	O 	0.85661	0.05351	0.52322	-0.409
Mof_O 	O 	0.04363	0.55185	0.14594	-0.324
Mof_O 	O 	0.90167	0.38058	0.99649	-0.164
Mof_O 	O 	0.53663	0.88278	0.90667	-0.173
Mof_O 	O 	0.47678	0.35661	0.44649	-0.409
Mof_O 	O 	0.97678	0.35661	0.05351	-0.406
Mof_O 	O 	0.4461	0.4461	0.4461	-0.311
Mof_O 	O 	0.0107	0.4087	0.1316	-0.35
Mof_O 	O 	0.9685	0.4579	0.8461	-0.207
Mof_O 	O 	0.02952	0.03878	0.44838	-1.974
Mof_O 	O 	0.53878	0.05162	0.97048	-1.973
Mof_O 	O 	0.61942	0.49649	0.59833	-0.164
Mof_O 	O 	0.9646	0.4646	0.0354	-0.804
Mof_O 	O 	0.09833	0.88058	0.50351	-0.164
Mof_O 	O 	0.61722	0.09333	0.03663	-0.173
Mof_O 	O 	0.0054	0.647	0.952	-0.171
Mof_O 	O 	0.413	0.9645	0.1302	-0.39
Mof_O 	O 	0.52829	0.05356	0.06968	0.801
Mof_O 	O 	0.49649	0.90167	0.11942	-0.164
Mof_O 	O 	0.54363	0.55185	0.35406	-0.324
Mof_O 	O 	0.452	0.0054	0.853	-0.171
Mof_O 	O 	0.0421	0.3461	0.9685	-0.208
Mof_O 	O 	0.47171	0.94644	0.93032	0.801
Mof_O 	O 	0.88278	0.59333	0.03663	-0.172
Mof_O 	O 	0.647	0.548	0.5054	-0.169
Mof_O 	O 	0.95637	0.44815	0.85406	-0.324
Mof_O 	O 	0.55162	0.97048	0.96122	-1.974
Mof_O 	O 	0.44815	0.64594	0.45637	-0.324
Mof_O 	O 	0.3461	0.9685	0.0421	-0.208
Mof_O 	O 	0.853	0.452	0.0054	-0.171
Mof_O 	O 	0.43032	0.02829	0.05356	0.8
Mof_O 	O 	0.90167	0.11942	0.49649	-0.164
Mof_O 	O 	0.94815	0.85406	0.54363	-0.324
Mof_O 	O 	0.05356	0.43032	0.02829	0.8
Mof_O 	O 	0.9579	0.6539	0.0315	-0.208
Mof_O 	O 	0.44644	0.56968	0.52829	0.8
Mof_O 	O 	0.94649	0.47678	0.14339	-0.409
Mof_O 	O 	0.46122	0.55162	0.52952	-1.974
Mof_O 	O 	0.5539	0.5539	0.5539	-0.311
Mof_O 	O 	0.02322	0.64339	0.94649	-0.406
Mof_O 	O 	0.05162	0.97048	0.53878	-1.973
Mof_O 	O 	0.05185	0.35406	0.95637	-0.322
Mof_O 	O 	0.06968	0.97171	0.55356	0.8
Mof_O 	O 	0.9579	0.8461	0.5315	-0.207
Mof_O 	O 	0.05356	0.06968	0.52829	0.801
Mof_O 	O 	0.4645	0.3698	0.587	-0.39
Mof_O 	O 	0.46122	0.94838	0.02952	-1.973
Mof_O 	O 	0.94838	0.47048	0.96122	-1.976
Mof_O 	O 	0.9645	0.3698	0.913	-0.391
Mof_O 	O 	0.88278	0.90667	0.53663	-0.173
Mof_O 	O 	0.14339	0.55351	0.97678	-0.406
Mof_O 	O 	0.46337	0.11722	0.09333	-0.173
Mof_O 	O 	0.9893	0.5913	0.8684	-0.35
Mof_O 	O 	0.5054	0.853	0.048	-0.169
Mof_O 	O 	0.1316	0.4893	0.9087	-0.349
Mof_O 	O 	0.94838	0.02952	0.46122	-1.973
Mof_O 	O 	0.47171	0.55356	0.43032	0.8
Mof_O 	O 	0.0355	0.6302	0.087	-0.391
Mof_O 	O 	0.44815	0.85406	0.95637	-0.324
Mof_O 	O 	0.38058	0.99649	0.90167	-0.164
Mof_O 	O 	0.4685	0.4579	0.6539	-0.207
Mof_O 	O 	0.50351	0.09833	0.88058	-0.164
Mof_O 	O 	0.0539	0.5539	0.9461	-0.311
Mof_O 	O 	0.0913	0.6316	0.0107	-0.349
Mof_O 	O 	0.35661	0.05351	0.97678	-0.406
Mof_O 	O 	0.64594	0.45637	0.44815	-0.324
Mof_O 	O 	0.3461	0.5315	0.5421	-0.207
Mof_O 	O 	0.61942	0.00351	0.09833	-0.164
Mof_O 	O 	0.14594	0.04363	0.55185	-0.324
Mof_O 	O 	0.913	0.5355	0.8698	-0.391
Mof_O 	O 	0.8698	0.587	0.0355	-0.39
Mof_O 	O 	0.35661	0.44649	0.47678	-0.409
Mof_O 	O 	0.03663	0.88278	0.59333	-0.172
Mof_O 	O 	0.45637	0.44815	0.64594	-0.324
Mof_O 	O 	0.05351	0.52322	0.85661	-0.409
Mof_O 	O 	0.52952	0.03878	0.05162	-1.976
Mof_O 	O 	0.4087	0.3684	0.5107	-0.349
Mof_O 	O 	0.02322	0.85661	0.44649	-0.406
Mof_O 	O 	0.96337	0.38278	0.90667	-0.173
_end
