# CIF file generated by openbabel 3.1.0, see https://openbabel.org
data_I
_chemical_name_common 'image0'
_cell_length_a 6.5052
_cell_length_b 17.5005
_cell_length_c 8.1811
_cell_angle_alpha 90
_cell_angle_beta 107.656
_cell_angle_gamma 90
_space_group_name_H-M_alt 'P 1'
_space_group_name_Hall 'P 1'
loop_
    _symmetry_equiv_pos_as_xyz
    x,y,z
loop_
    _atom_site_label
    _atom_site_type_symbol
    _atom_site_fract_x
    _atom_site_fract_y
    _atom_site_fract_z
    _atom_site_occupancy
    P1       P        0.73610    0.04740    0.75700    1.000
    P2       P        0.39400    0.09130    0.15820    1.000
    P3       P        0.07050    0.83674    0.87070    1.000
    O1       O        0.55180    0.98830    0.72730    1.000
    O2       O        0.95320    0.00660    0.83240    1.000
    O3       O        0.70810    0.11270    0.87170    1.000
    O4       O        0.72930    0.08240    0.58140    1.000
    O5       O        0.40660    0.02820    0.03220    1.000
    O6       O        0.41910    0.05260    0.33310    1.000
    O7       O        0.18680    0.13670    0.09280    1.000
    O8       O        0.57780    0.14930    0.17630    1.000
    O9       O        0.23830    0.88090    0.81510    1.000
    O10      O        0.86140    0.82970    0.72250    1.000
    O11      O        0.01720    0.88070    0.02120    1.000
    O12      O        0.16180    0.75980    0.94700    1.000
    O13      O        0.21150    0.11450    0.65090    1.000
    O14      O        0.04510    0.17020    0.40140    1.000
    O15      O        0.08180    0.97550    0.50830    1.000
    O16      O        0.92690    0.03070    0.25620    1.000
    C1       C        0.10280    0.11330    0.49520    1.000
    C2       C        0.03220    0.03340    0.41210    1.000
    In1      In       0.25563    0.00250    0.77951    1.000
    In2      In       0.88092    0.14147    0.12599    1.000
    P4       P        0.26390    0.54740    0.24300    1.000
    P5       P        0.60600    0.59130    0.84180    1.000
    P6       P        0.92950    0.33674    0.12930    1.000
    O17      O        0.44820    0.48830    0.27270    1.000
    O18      O        0.04680    0.50660    0.16760    1.000
    O19      O        0.29190    0.61270    0.12830    1.000
    O20      O        0.27070    0.58240    0.41860    1.000
    O21      O        0.59340    0.52820    0.96780    1.000
    O22      O        0.58090    0.55260    0.66690    1.000
    O23      O        0.81320    0.63670    0.90720    1.000
    O24      O        0.42220    0.64930    0.82370    1.000
    O25      O        0.76170    0.38090    0.18490    1.000
    O26      O        0.13860    0.32970    0.27750    1.000
    O27      O        0.98280    0.38070    0.97880    1.000
    O28      O        0.83820    0.25980    0.05300    1.000
    O29      O        0.78850    0.61450    0.34910    1.000
    O30      O        0.95490    0.67020    0.59860    1.000
    O31      O        0.91820    0.47550    0.49170    1.000
    O32      O        0.07310    0.53070    0.74380    1.000
    C3       C        0.89720    0.61330    0.50480    1.000
    C4       C        0.96780    0.53340    0.58790    1.000
    In3      In       0.74437    0.50250    0.22049    1.000
    In4      In       0.11908    0.64147    0.87401    1.000
