data_functionalizedCrystal
_audit_creation_method	'EQeq! by Chris Wilmer'
_symmetry_space_group_name_H-M	'P1'
_symmetry_Int_Tables_number	1
_symmetry_cell_setting	triclinic
loop_
_symmetry_equiv_pos_as_xyz
  x,y,z
_cell_length_a	23.3836
_cell_length_b	23.3836
_cell_length_c	23.3836
_cell_angle_alpha	90
_cell_angle_beta	90
_cell_angle_gamma	90
loop_
_atom_site_label
_atom_site_type_symbol
_atom_site_fract_x
_atom_site_fract_y
_atom_site_fract_z
_atom_site_charge
Mof_Zn	Zn	0.32086	0.73722	0.2069	1.229
Mof_O 	O 	0.4377	0.9441	0.9531	-0.396
Mof_O 	O 	0.4438	0.9341	0.0476	-0.421
Mof_C 	C 	0.3786	0.877	0.9972	0.004
Mof_O 	O 	0.3336	0.7854	0.1428	-0.47
Mof_C 	C 	0.3537	0.86	0.9459	0.022
Mof_H 	H 	0.366	0.8768	0.911	0.061
Mof_O 	O 	0.3046	0.8302	0.8431	-0.489
Mof_C 	C 	0.4213	0.9221	0.0001	0.267
Mof_C 	C 	0.3632	0.8482	0.048	-0.028
Mof_H 	H 	0.3808	0.8579	0.0833	0.071
Mof_O 	O 	0.2576	0.7578	0.8859	-0.472
Mof_C 	C 	0.3209	0.8043	0.0454	-0.151
Mof_C 	C 	0.2942	0.7902	0.9949	0.117
Mof_H 	H 	0.2653	0.7617	0.9937	0.038
Mof_C 	C 	0.3111	0.8191	0.9453	-0.11
Mof_O 	O 	0.2685	0.7357	0.0994	-0.317
Mof_C 	C 	0.3031	0.7787	0.1005	0.358
Mof_C 	C 	0.2885	0.8015	0.8864	0.397
Mof_Zn	Zn	0.82086	0.23722	0.7069	1.231
Mof_O 	O 	0.9377	0.4441	0.4531	-0.458
Mof_O 	O 	0.9438	0.4341	0.5476	-0.441
Mof_C 	C 	0.8786	0.377	0.4972	-0.142
Mof_O 	O 	0.8336	0.2854	0.6428	-0.464
Mof_C 	C 	0.8537	0.36	0.4459	0.08
Mof_H 	H 	0.866	0.3768	0.411	0.038
Mof_O 	O 	0.8046	0.3302	0.3431	-0.493
Mof_C 	C 	0.9213	0.4221	0.5001	0.408
Mof_C 	C 	0.8632	0.3482	0.548	0.069
Mof_H 	H 	0.8808	0.3579	0.5833	0.044
Mof_O 	O 	0.7576	0.2578	0.3859	-0.478
Mof_C 	C 	0.8209	0.3043	0.5454	-0.123
Mof_C 	C 	0.7942	0.2902	0.4949	0.071
Mof_H 	H 	0.7653	0.2617	0.4937	0.037
Mof_C 	C 	0.8111	0.3191	0.4453	-0.13
Mof_O 	O 	0.7685	0.2357	0.5994	-0.302
Mof_C 	C 	0.8031	0.2787	0.6005	0.354
Mof_C 	C 	0.7885	0.3015	0.3864	0.401
Mof_Zn	Zn	0.67914	0.26278	0.2069	1.23
Mof_O 	O 	0.5623	0.0559	0.9531	-0.428
Mof_O 	O 	0.5562	0.0659	0.0476	-0.449
Mof_C 	C 	0.6214	0.123	0.9972	-0.008
Mof_O 	O 	0.6664	0.2146	0.1428	-0.473
Mof_C 	C 	0.6463	0.14	0.9459	0.027
Mof_H 	H 	0.634	0.1232	0.911	0.052
Mof_O 	O 	0.6954	0.1698	0.8431	-0.495
Mof_C 	C 	0.5787	0.0779	0.0001	0.271
Mof_C 	C 	0.6368	0.1518	0.048	-0.025
Mof_H 	H 	0.6192	0.1421	0.0833	0.063
Mof_O 	O 	0.7424	0.2422	0.8859	-0.472
Mof_C 	C 	0.6791	0.1957	0.0454	-0.156
Mof_C 	C 	0.7058	0.2098	0.9949	0.119
Mof_H 	H 	0.7347	0.2383	0.9937	0.038
Mof_C 	C 	0.6889	0.1809	0.9453	-0.117
Mof_O 	O 	0.7315	0.2643	0.0994	-0.315
Mof_C 	C 	0.6969	0.2213	0.1005	0.357
Mof_C 	C 	0.7115	0.1985	0.8864	0.399
Mof_Zn	Zn	0.17914	0.76278	0.7069	1.23
Mof_O 	O 	0.0623	0.5559	0.4531	-0.491
Mof_O 	O 	0.0562	0.5659	0.5476	-0.477
Mof_C 	C 	0.1214	0.623	0.4972	-0.157
Mof_O 	O 	0.1664	0.7146	0.6428	-0.471
Mof_C 	C 	0.1463	0.64	0.4459	0.084
Mof_H 	H 	0.134	0.6232	0.411	0.029
Mof_O 	O 	0.1954	0.6698	0.3431	-0.498
Mof_C 	C 	0.0787	0.5779	0.5001	0.414
Mof_C 	C 	0.1368	0.6518	0.548	0.073
Mof_H 	H 	0.1192	0.6421	0.5833	0.035
Mof_O 	O 	0.2424	0.7422	0.3859	-0.478
Mof_C 	C 	0.1791	0.6957	0.5454	-0.131
Mof_C 	C 	0.2058	0.7098	0.4949	0.073
Mof_H 	H 	0.2347	0.7383	0.4937	0.037
Mof_C 	C 	0.1889	0.6809	0.4453	-0.136
Mof_O 	O 	0.2315	0.7643	0.5994	-0.301
Mof_C 	C 	0.1969	0.7213	0.6005	0.356
Mof_C 	C 	0.2115	0.6985	0.3864	0.401
Mof_Zn	Zn	0.67914	0.73722	0.7931	1.231
Mof_O 	O 	0.5623	0.9441	0.0469	-0.521
Mof_O 	O 	0.5562	0.9341	0.9524	-0.468
Mof_C 	C 	0.6214	0.877	0.0028	-0.289
Mof_O 	O 	0.6664	0.7854	0.8572	-0.462
Mof_C 	C 	0.6463	0.86	0.0541	0.138
Mof_H 	H 	0.634	0.8768	0.089	0.016
Mof_O 	O 	0.6954	0.8302	0.1569	-0.494
Mof_C 	C 	0.5787	0.9221	0.9999	0.552
Mof_C 	C 	0.6368	0.8482	0.952	0.167
Mof_H 	H 	0.6192	0.8579	0.9167	0.016
Mof_O 	O 	0.7424	0.7578	0.1141	-0.481
Mof_C 	C 	0.6791	0.8043	0.9546	-0.095
Mof_C 	C 	0.7058	0.7902	0.0051	0.025
Mof_H 	H 	0.7347	0.7617	0.0063	0.04
Mof_C 	C 	0.6889	0.8191	0.0547	-0.146
Mof_O 	O 	0.7315	0.7357	0.9006	-0.283
Mof_C 	C 	0.6969	0.7787	0.8995	0.354
Mof_C 	C 	0.7115	0.8015	0.1136	0.404
Mof_Zn	Zn	0.17914	0.23722	0.2931	1.23
Mof_O 	O 	0.0623	0.4441	0.5469	-0.491
Mof_O 	O 	0.0562	0.4341	0.4524	-0.477
Mof_C 	C 	0.1214	0.377	0.5028	-0.158
Mof_O 	O 	0.1664	0.2854	0.3572	-0.472
Mof_C 	C 	0.1463	0.36	0.5541	0.085
Mof_H 	H 	0.134	0.3768	0.589	0.029
Mof_O 	O 	0.1954	0.3302	0.6569	-0.498
Mof_C 	C 	0.0787	0.4221	0.4999	0.414
Mof_C 	C 	0.1368	0.3482	0.452	0.073
Mof_H 	H 	0.1192	0.3579	0.4167	0.034
Mof_O 	O 	0.2424	0.2578	0.6141	-0.48
Mof_C 	C 	0.1791	0.3043	0.4546	-0.132
Mof_C 	C 	0.2058	0.2902	0.5051	0.074
Mof_H 	H 	0.2347	0.2617	0.5063	0.035
Mof_C 	C 	0.1889	0.3191	0.5547	-0.138
Mof_O 	O 	0.2315	0.2357	0.4006	-0.304
Mof_C 	C 	0.1969	0.2787	0.3995	0.357
Mof_C 	C 	0.2115	0.3015	0.6136	0.401
Mof_Zn	Zn	0.32086	0.26278	0.7931	1.231
Mof_O 	O 	0.4377	0.0559	0.0469	-0.555
Mof_O 	O 	0.4438	0.0659	0.9524	-0.499
Mof_C 	C 	0.3786	0.123	0.0028	-0.305
Mof_O 	O 	0.3336	0.2146	0.8572	-0.467
Mof_C 	C 	0.3537	0.14	0.0541	0.142
Mof_H 	H 	0.366	0.1232	0.089	0.006
Mof_O 	O 	0.3046	0.1698	0.1569	-0.503
Mof_C 	C 	0.4213	0.0779	0.9999	0.555
Mof_C 	C 	0.3632	0.1518	0.952	0.17
Mof_H 	H 	0.3808	0.1421	0.9167	0.008
Mof_O 	O 	0.2576	0.2422	0.1141	-0.487
Mof_C 	C 	0.3209	0.1957	0.9546	-0.105
Mof_C 	C 	0.2942	0.2098	0.0051	0.028
Mof_H 	H 	0.2653	0.2383	0.0063	0.034
Mof_C 	C 	0.3111	0.1809	0.0547	-0.159
Mof_O 	O 	0.2685	0.2643	0.9006	-0.29
Mof_C 	C 	0.3031	0.2213	0.8995	0.351
Mof_C 	C 	0.2885	0.1985	0.1136	0.404
Mof_Zn	Zn	0.82086	0.76278	0.2931	1.231
Mof_O 	O 	0.9377	0.5559	0.5469	-0.458
Mof_O 	O 	0.9438	0.5659	0.4524	-0.441
Mof_C 	C 	0.8786	0.623	0.5028	-0.141
Mof_O 	O 	0.8336	0.7146	0.3572	-0.464
Mof_C 	C 	0.8537	0.64	0.5541	0.08
Mof_H 	H 	0.866	0.6232	0.589	0.038
Mof_O 	O 	0.8046	0.6698	0.6569	-0.493
Mof_C 	C 	0.9213	0.5779	0.4999	0.408
Mof_C 	C 	0.8632	0.6518	0.452	0.069
Mof_H 	H 	0.8808	0.6421	0.4167	0.045
Mof_O 	O 	0.7576	0.7422	0.6141	-0.476
Mof_C 	C 	0.8209	0.6957	0.4546	-0.122
Mof_C 	C 	0.7942	0.7098	0.5051	0.07
Mof_H 	H 	0.7653	0.7383	0.5063	0.04
Mof_C 	C 	0.8111	0.6809	0.5547	-0.129
Mof_O 	O 	0.7685	0.7643	0.4006	-0.299
Mof_C 	C 	0.8031	0.7213	0.3995	0.353
Mof_C 	C 	0.7885	0.6985	0.6136	0.401
Mof_Zn	Zn	0.2069	0.32086	0.73722	1.23
Mof_O 	O 	0.9531	0.4377	0.9441	-0.395
Mof_O 	O 	0.0476	0.4438	0.9341	-0.42
Mof_C 	C 	0.9972	0.3786	0.877	0.005
Mof_O 	O 	0.1428	0.3336	0.7854	-0.469
Mof_C 	C 	0.9459	0.3537	0.86	0.023
Mof_H 	H 	0.911	0.366	0.8768	0.061
Mof_O 	O 	0.8431	0.3046	0.8302	-0.489
Mof_C 	C 	0.0001	0.4213	0.9221	0.267
Mof_C 	C 	0.048	0.3632	0.8482	-0.028
Mof_H 	H 	0.0833	0.3808	0.8579	0.071
Mof_O 	O 	0.8859	0.2576	0.7578	-0.472
Mof_C 	C 	0.0454	0.3209	0.8043	-0.151
Mof_C 	C 	0.9949	0.2942	0.7902	0.117
Mof_H 	H 	0.9937	0.2653	0.7617	0.038
Mof_C 	C 	0.9453	0.3111	0.8191	-0.11
Mof_O 	O 	0.0994	0.2685	0.7357	-0.317
Mof_C 	C 	0.1005	0.3031	0.7787	0.358
Mof_C 	C 	0.8864	0.2885	0.8015	0.397
Mof_Zn	Zn	0.7069	0.82086	0.23722	1.231
Mof_O 	O 	0.4531	0.9377	0.4441	-0.458
Mof_O 	O 	0.5476	0.9438	0.4341	-0.441
Mof_C 	C 	0.4972	0.8786	0.377	-0.142
Mof_O 	O 	0.6428	0.8336	0.2854	-0.464
Mof_C 	C 	0.4459	0.8537	0.36	0.08
Mof_H 	H 	0.411	0.866	0.3768	0.038
Mof_O 	O 	0.3431	0.8046	0.3302	-0.493
Mof_C 	C 	0.5001	0.9213	0.4221	0.408
Mof_C 	C 	0.548	0.8632	0.3482	0.069
Mof_H 	H 	0.5833	0.8808	0.3579	0.044
Mof_O 	O 	0.3859	0.7576	0.2578	-0.478
Mof_C 	C 	0.5454	0.8209	0.3043	-0.123
Mof_C 	C 	0.4949	0.7942	0.2902	0.071
Mof_H 	H 	0.4937	0.7653	0.2617	0.037
Mof_C 	C 	0.4453	0.8111	0.3191	-0.13
Mof_O 	O 	0.5994	0.7685	0.2357	-0.302
Mof_C 	C 	0.6005	0.8031	0.2787	0.354
Mof_C 	C 	0.3864	0.7885	0.3015	0.401
Mof_Zn	Zn	0.2069	0.67914	0.26278	1.23
Mof_O 	O 	0.9531	0.5623	0.0559	-0.428
Mof_O 	O 	0.0476	0.5562	0.0659	-0.449
Mof_C 	C 	0.9972	0.6214	0.123	-0.008
Mof_O 	O 	0.1428	0.6664	0.2146	-0.473
Mof_C 	C 	0.9459	0.6463	0.14	0.027
Mof_H 	H 	0.911	0.634	0.1232	0.052
Mof_O 	O 	0.8431	0.6954	0.1698	-0.495
Mof_C 	C 	0.0001	0.5787	0.0779	0.271
Mof_C 	C 	0.048	0.6368	0.1518	-0.025
Mof_H 	H 	0.0833	0.6192	0.1421	0.063
Mof_O 	O 	0.8859	0.7424	0.2422	-0.472
Mof_C 	C 	0.0454	0.6791	0.1957	-0.156
Mof_C 	C 	0.9949	0.7058	0.2098	0.119
Mof_H 	H 	0.9937	0.7347	0.2383	0.038
Mof_C 	C 	0.9453	0.6889	0.1809	-0.117
Mof_O 	O 	0.0994	0.7315	0.2643	-0.315
Mof_C 	C 	0.1005	0.6969	0.2213	0.357
Mof_C 	C 	0.8864	0.7115	0.1985	0.399
Mof_Zn	Zn	0.7069	0.17914	0.76278	1.23
Mof_O 	O 	0.4531	0.0623	0.5559	-0.491
Mof_O 	O 	0.5476	0.0562	0.5659	-0.477
Mof_C 	C 	0.4972	0.1214	0.623	-0.157
Mof_O 	O 	0.6428	0.1664	0.7146	-0.471
Mof_C 	C 	0.4459	0.1463	0.64	0.084
Mof_H 	H 	0.411	0.134	0.6232	0.029
Mof_O 	O 	0.3431	0.1954	0.6698	-0.498
Mof_C 	C 	0.5001	0.0787	0.5779	0.414
Mof_C 	C 	0.548	0.1368	0.6518	0.073
Mof_H 	H 	0.5833	0.1192	0.6421	0.035
Mof_O 	O 	0.3859	0.2424	0.7422	-0.478
Mof_C 	C 	0.5454	0.1791	0.6957	-0.131
Mof_C 	C 	0.4949	0.2058	0.7098	0.073
Mof_H 	H 	0.4937	0.2347	0.7383	0.037
Mof_C 	C 	0.4453	0.1889	0.6809	-0.136
Mof_O 	O 	0.5994	0.2315	0.7643	-0.301
Mof_C 	C 	0.6005	0.1969	0.7213	0.356
Mof_C 	C 	0.3864	0.2115	0.6985	0.401
Mof_Zn	Zn	0.7931	0.67914	0.73722	1.231
Mof_O 	O 	0.0469	0.5623	0.9441	-0.521
Mof_O 	O 	0.9524	0.5562	0.9341	-0.468
Mof_C 	C 	0.0028	0.6214	0.877	-0.289
Mof_O 	O 	0.8572	0.6664	0.7854	-0.462
Mof_C 	C 	0.0541	0.6463	0.86	0.138
Mof_H 	H 	0.089	0.634	0.8768	0.016
Mof_O 	O 	0.1569	0.6954	0.8302	-0.494
Mof_C 	C 	0.9999	0.5787	0.9221	0.552
Mof_C 	C 	0.952	0.6368	0.8482	0.167
Mof_H 	H 	0.9167	0.6192	0.8579	0.016
Mof_O 	O 	0.1141	0.7424	0.7578	-0.481
Mof_C 	C 	0.9546	0.6791	0.8043	-0.095
Mof_C 	C 	0.0051	0.7058	0.7902	0.025
Mof_H 	H 	0.0063	0.7347	0.7617	0.04
Mof_C 	C 	0.0547	0.6889	0.8191	-0.146
Mof_O 	O 	0.9006	0.7315	0.7357	-0.283
Mof_C 	C 	0.8995	0.6969	0.7787	0.354
Mof_C 	C 	0.1136	0.7115	0.8015	0.404
Mof_Zn	Zn	0.2931	0.17914	0.23722	1.23
Mof_O 	O 	0.5469	0.0623	0.4441	-0.491
Mof_O 	O 	0.4524	0.0562	0.4341	-0.477
Mof_C 	C 	0.5028	0.1214	0.377	-0.158
Mof_O 	O 	0.3572	0.1664	0.2854	-0.472
Mof_C 	C 	0.5541	0.1463	0.36	0.085
Mof_H 	H 	0.589	0.134	0.3768	0.029
Mof_O 	O 	0.6569	0.1954	0.3302	-0.498
Mof_C 	C 	0.4999	0.0787	0.4221	0.414
Mof_C 	C 	0.452	0.1368	0.3482	0.073
Mof_H 	H 	0.4167	0.1192	0.3579	0.034
Mof_O 	O 	0.6141	0.2424	0.2578	-0.48
Mof_C 	C 	0.4546	0.1791	0.3043	-0.132
Mof_C 	C 	0.5051	0.2058	0.2902	0.074
Mof_H 	H 	0.5063	0.2347	0.2617	0.035
Mof_C 	C 	0.5547	0.1889	0.3191	-0.138
Mof_O 	O 	0.4006	0.2315	0.2357	-0.304
Mof_C 	C 	0.3995	0.1969	0.2787	0.357
Mof_C 	C 	0.6136	0.2115	0.3015	0.401
Mof_Zn	Zn	0.7931	0.32086	0.26278	1.231
Mof_O 	O 	0.0469	0.4377	0.0559	-0.555
Mof_O 	O 	0.9524	0.4438	0.0659	-0.499
Mof_C 	C 	0.0028	0.3786	0.123	-0.305
Mof_O 	O 	0.8572	0.3336	0.2146	-0.467
Mof_C 	C 	0.0541	0.3537	0.14	0.142
Mof_H 	H 	0.089	0.366	0.1232	0.006
Mof_O 	O 	0.1569	0.3046	0.1698	-0.503
Mof_C 	C 	0.9999	0.4213	0.0779	0.555
Mof_C 	C 	0.952	0.3632	0.1518	0.17
Mof_H 	H 	0.9167	0.3808	0.1421	0.008
Mof_O 	O 	0.1141	0.2576	0.2422	-0.487
Mof_C 	C 	0.9546	0.3209	0.1957	-0.105
Mof_C 	C 	0.0051	0.2942	0.2098	0.028
Mof_H 	H 	0.0063	0.2653	0.2383	0.034
Mof_C 	C 	0.0547	0.3111	0.1809	-0.159
Mof_O 	O 	0.9006	0.2685	0.2643	-0.29
Mof_C 	C 	0.8995	0.3031	0.2213	0.351
Mof_C 	C 	0.1136	0.2885	0.1985	0.404
Mof_Zn	Zn	0.2931	0.82086	0.76278	1.231
Mof_O 	O 	0.5469	0.9377	0.5559	-0.458
Mof_O 	O 	0.4524	0.9438	0.5659	-0.441
Mof_C 	C 	0.5028	0.8786	0.623	-0.141
Mof_O 	O 	0.3572	0.8336	0.7146	-0.464
Mof_C 	C 	0.5541	0.8537	0.64	0.08
Mof_H 	H 	0.589	0.866	0.6232	0.038
Mof_O 	O 	0.6569	0.8046	0.6698	-0.493
Mof_C 	C 	0.4999	0.9213	0.5779	0.408
Mof_C 	C 	0.452	0.8632	0.6518	0.069
Mof_H 	H 	0.4167	0.8808	0.6421	0.045
Mof_O 	O 	0.6141	0.7576	0.7422	-0.476
Mof_C 	C 	0.4546	0.8209	0.6957	-0.122
Mof_C 	C 	0.5051	0.7942	0.7098	0.07
Mof_H 	H 	0.5063	0.7653	0.7383	0.04
Mof_C 	C 	0.5547	0.8111	0.6809	-0.129
Mof_O 	O 	0.4006	0.7685	0.7643	-0.299
Mof_C 	C 	0.3995	0.8031	0.7213	0.353
Mof_C 	C 	0.6136	0.7885	0.6985	0.401
Mof_Zn	Zn	0.73722	0.2069	0.32086	1.23
Mof_O 	O 	0.9441	0.9531	0.4377	-0.395
Mof_O 	O 	0.9341	0.0476	0.4438	-0.42
Mof_C 	C 	0.877	0.9972	0.3786	0.005
Mof_O 	O 	0.7854	0.1428	0.3336	-0.469
Mof_C 	C 	0.86	0.9459	0.3537	0.023
Mof_H 	H 	0.8768	0.911	0.366	0.061
Mof_O 	O 	0.8302	0.8431	0.3046	-0.489
Mof_C 	C 	0.9221	0.0001	0.4213	0.267
Mof_C 	C 	0.8482	0.048	0.3632	-0.028
Mof_H 	H 	0.8579	0.0833	0.3808	0.071
Mof_O 	O 	0.7578	0.8859	0.2576	-0.472
Mof_C 	C 	0.8043	0.0454	0.3209	-0.151
Mof_C 	C 	0.7902	0.9949	0.2942	0.117
Mof_H 	H 	0.7617	0.9937	0.2653	0.038
Mof_C 	C 	0.8191	0.9453	0.3111	-0.11
Mof_O 	O 	0.7357	0.0994	0.2685	-0.317
Mof_C 	C 	0.7787	0.1005	0.3031	0.358
Mof_C 	C 	0.8015	0.8864	0.2885	0.397
Mof_Zn	Zn	0.23722	0.7069	0.82086	1.231
Mof_O 	O 	0.4441	0.4531	0.9377	-0.458
Mof_O 	O 	0.4341	0.5476	0.9438	-0.441
Mof_C 	C 	0.377	0.4972	0.8786	-0.142
Mof_O 	O 	0.2854	0.6428	0.8336	-0.464
Mof_C 	C 	0.36	0.4459	0.8537	0.08
Mof_H 	H 	0.3768	0.411	0.866	0.038
Mof_O 	O 	0.3302	0.3431	0.8046	-0.493
Mof_C 	C 	0.4221	0.5001	0.9213	0.408
Mof_C 	C 	0.3482	0.548	0.8632	0.069
Mof_H 	H 	0.3579	0.5833	0.8808	0.044
Mof_O 	O 	0.2578	0.3859	0.7576	-0.478
Mof_C 	C 	0.3043	0.5454	0.8209	-0.123
Mof_C 	C 	0.2902	0.4949	0.7942	0.071
Mof_H 	H 	0.2617	0.4937	0.7653	0.037
Mof_C 	C 	0.3191	0.4453	0.8111	-0.13
Mof_O 	O 	0.2357	0.5994	0.7685	-0.302
Mof_C 	C 	0.2787	0.6005	0.8031	0.354
Mof_C 	C 	0.3015	0.3864	0.7885	0.401
Mof_Zn	Zn	0.26278	0.2069	0.67914	1.23
Mof_O 	O 	0.0559	0.9531	0.5623	-0.428
Mof_O 	O 	0.0659	0.0476	0.5562	-0.449
Mof_C 	C 	0.123	0.9972	0.6214	-0.008
Mof_O 	O 	0.2146	0.1428	0.6664	-0.473
Mof_C 	C 	0.14	0.9459	0.6463	0.027
Mof_H 	H 	0.1232	0.911	0.634	0.052
Mof_O 	O 	0.1698	0.8431	0.6954	-0.495
Mof_C 	C 	0.0779	0.0001	0.5787	0.271
Mof_C 	C 	0.1518	0.048	0.6368	-0.025
Mof_H 	H 	0.1421	0.0833	0.6192	0.063
Mof_O 	O 	0.2422	0.8859	0.7424	-0.472
Mof_C 	C 	0.1957	0.0454	0.6791	-0.156
Mof_C 	C 	0.2098	0.9949	0.7058	0.119
Mof_H 	H 	0.2383	0.9937	0.7347	0.038
Mof_C 	C 	0.1809	0.9453	0.6889	-0.117
Mof_O 	O 	0.2643	0.0994	0.7315	-0.315
Mof_C 	C 	0.2213	0.1005	0.6969	0.357
Mof_C 	C 	0.1985	0.8864	0.7115	0.399
Mof_Zn	Zn	0.76278	0.7069	0.17914	1.23
Mof_O 	O 	0.5559	0.4531	0.0623	-0.491
Mof_O 	O 	0.5659	0.5476	0.0562	-0.477
Mof_C 	C 	0.623	0.4972	0.1214	-0.157
Mof_O 	O 	0.7146	0.6428	0.1664	-0.471
Mof_C 	C 	0.64	0.4459	0.1463	0.084
Mof_H 	H 	0.6232	0.411	0.134	0.029
Mof_O 	O 	0.6698	0.3431	0.1954	-0.498
Mof_C 	C 	0.5779	0.5001	0.0787	0.414
Mof_C 	C 	0.6518	0.548	0.1368	0.073
Mof_H 	H 	0.6421	0.5833	0.1192	0.035
Mof_O 	O 	0.7422	0.3859	0.2424	-0.478
Mof_C 	C 	0.6957	0.5454	0.1791	-0.131
Mof_C 	C 	0.7098	0.4949	0.2058	0.073
Mof_H 	H 	0.7383	0.4937	0.2347	0.037
Mof_C 	C 	0.6809	0.4453	0.1889	-0.136
Mof_O 	O 	0.7643	0.5994	0.2315	-0.301
Mof_C 	C 	0.7213	0.6005	0.1969	0.356
Mof_C 	C 	0.6985	0.3864	0.2115	0.401
Mof_Zn	Zn	0.73722	0.7931	0.67914	1.231
Mof_O 	O 	0.9441	0.0469	0.5623	-0.521
Mof_O 	O 	0.9341	0.9524	0.5562	-0.468
Mof_C 	C 	0.877	0.0028	0.6214	-0.289
Mof_O 	O 	0.7854	0.8572	0.6664	-0.462
Mof_C 	C 	0.86	0.0541	0.6463	0.138
Mof_H 	H 	0.8768	0.089	0.634	0.016
Mof_O 	O 	0.8302	0.1569	0.6954	-0.494
Mof_C 	C 	0.9221	0.9999	0.5787	0.552
Mof_C 	C 	0.8482	0.952	0.6368	0.167
Mof_H 	H 	0.8579	0.9167	0.6192	0.016
Mof_O 	O 	0.7578	0.1141	0.7424	-0.481
Mof_C 	C 	0.8043	0.9546	0.6791	-0.095
Mof_C 	C 	0.7902	0.0051	0.7058	0.025
Mof_H 	H 	0.7617	0.0063	0.7347	0.04
Mof_C 	C 	0.8191	0.0547	0.6889	-0.146
Mof_O 	O 	0.7357	0.9006	0.7315	-0.283
Mof_C 	C 	0.7787	0.8995	0.6969	0.354
Mof_C 	C 	0.8015	0.1136	0.7115	0.404
Mof_Zn	Zn	0.23722	0.2931	0.17914	1.23
Mof_O 	O 	0.4441	0.5469	0.0623	-0.491
Mof_O 	O 	0.4341	0.4524	0.0562	-0.477
Mof_C 	C 	0.377	0.5028	0.1214	-0.158
Mof_O 	O 	0.2854	0.3572	0.1664	-0.472
Mof_C 	C 	0.36	0.5541	0.1463	0.085
Mof_H 	H 	0.3768	0.589	0.134	0.029
Mof_O 	O 	0.3302	0.6569	0.1954	-0.498
Mof_C 	C 	0.4221	0.4999	0.0787	0.414
Mof_C 	C 	0.3482	0.452	0.1368	0.073
Mof_H 	H 	0.3579	0.4167	0.1192	0.034
Mof_O 	O 	0.2578	0.6141	0.2424	-0.48
Mof_C 	C 	0.3043	0.4546	0.1791	-0.132
Mof_C 	C 	0.2902	0.5051	0.2058	0.074
Mof_H 	H 	0.2617	0.5063	0.2347	0.035
Mof_C 	C 	0.3191	0.5547	0.1889	-0.138
Mof_O 	O 	0.2357	0.4006	0.2315	-0.304
Mof_C 	C 	0.2787	0.3995	0.1969	0.357
Mof_C 	C 	0.3015	0.6136	0.2115	0.401
Mof_Zn	Zn	0.26278	0.7931	0.32086	1.231
Mof_O 	O 	0.0559	0.0469	0.4377	-0.555
Mof_O 	O 	0.0659	0.9524	0.4438	-0.499
Mof_C 	C 	0.123	0.0028	0.3786	-0.305
Mof_O 	O 	0.2146	0.8572	0.3336	-0.467
Mof_C 	C 	0.14	0.0541	0.3537	0.142
Mof_H 	H 	0.1232	0.089	0.366	0.006
Mof_O 	O 	0.1698	0.1569	0.3046	-0.503
Mof_C 	C 	0.0779	0.9999	0.4213	0.555
Mof_C 	C 	0.1518	0.952	0.3632	0.17
Mof_H 	H 	0.1421	0.9167	0.3808	0.008
Mof_O 	O 	0.2422	0.1141	0.2576	-0.487
Mof_C 	C 	0.1957	0.9546	0.3209	-0.105
Mof_C 	C 	0.2098	0.0051	0.2942	0.028
Mof_H 	H 	0.2383	0.0063	0.2653	0.034
Mof_C 	C 	0.1809	0.0547	0.3111	-0.159
Mof_O 	O 	0.2643	0.9006	0.2685	-0.29
Mof_C 	C 	0.2213	0.8995	0.3031	0.351
Mof_C 	C 	0.1985	0.1136	0.2885	0.404
Mof_Zn	Zn	0.76278	0.2931	0.82086	1.231
Mof_O 	O 	0.5559	0.5469	0.9377	-0.458
Mof_O 	O 	0.5659	0.4524	0.9438	-0.441
Mof_C 	C 	0.623	0.5028	0.8786	-0.141
Mof_O 	O 	0.7146	0.3572	0.8336	-0.464
Mof_C 	C 	0.64	0.5541	0.8537	0.08
Mof_H 	H 	0.6232	0.589	0.866	0.038
Mof_O 	O 	0.6698	0.6569	0.8046	-0.493
Mof_C 	C 	0.5779	0.4999	0.9213	0.408
Mof_C 	C 	0.6518	0.452	0.8632	0.069
Mof_H 	H 	0.6421	0.4167	0.8808	0.045
Mof_O 	O 	0.7422	0.6141	0.7576	-0.476
Mof_C 	C 	0.6957	0.4546	0.8209	-0.122
Mof_C 	C 	0.7098	0.5051	0.7942	0.07
Mof_H 	H 	0.7383	0.5063	0.7653	0.04
Mof_C 	C 	0.6809	0.5547	0.8111	-0.129
Mof_O 	O 	0.7643	0.4006	0.7685	-0.299
Mof_C 	C 	0.7213	0.3995	0.8031	0.353
Mof_C 	C 	0.6985	0.6136	0.7885	0.401
Mof_Zn	Zn	0.5	0	0.93624	1.191
Mof_Zn	Zn	9.5329e-33	0.5	0.43624	1.187
Mof_Zn	Zn	0.5	0	0.06376	1.184
Mof_Zn	Zn	2.11376e-33	0.5	0.56376	1.187
Mof_Zn	Zn	0.93624	0.5	-0	1.191
Mof_Zn	Zn	0.43624	0	0.5	1.187
Mof_Zn	Zn	0.06376	0.5	-0	1.184
Mof_Zn	Zn	0.56376	0	0.5	1.187
Mof_Zn	Zn	1.76692e-32	0.93624	0.5	1.191
Mof_Zn	Zn	0.5	0.43624	-0	1.187
Mof_Zn	Zn	1.8747e-33	0.06376	0.5	1.184
Mof_Zn	Zn	0.5	0.56376	-0	1.187
Mof_O 	O 	0.2499	0.7501	0.2499	-0.726
Mof_O 	O 	0.7499	0.2501	0.7499	-0.724
Mof_O 	O 	0.7501	0.2499	0.2499	-0.726
Mof_O 	O 	0.2501	0.7499	0.7499	-0.724
Mof_O 	O 	0.7501	0.7501	0.7501	-0.72
Mof_O 	O 	0.2501	0.2501	0.2501	-0.726
Mof_O 	O 	0.2499	0.2499	0.7501	-0.726
Mof_O 	O 	0.7499	0.7499	0.2501	-0.724
_end
