# CIF file generated by openbabel 3.1.0, see https://openbabel.org
data_I
_chemical_name_common 'image0'
_cell_length_a 25.0213
_cell_length_b 9.3011
_cell_length_c 15.9564
_cell_angle_alpha 90
_cell_angle_beta 109.683
_cell_angle_gamma 90
_space_group_name_H-M_alt 'P 1'
_space_group_name_Hall 'P 1'
loop_
    _symmetry_equiv_pos_as_xyz
    x,y,z
loop_
    _atom_site_label
    _atom_site_type_symbol
    _atom_site_fract_x
    _atom_site_fract_y
    _atom_site_fract_z
    _atom_site_occupancy
    N1       N        0.01104    0.44690    0.02302    1.000
    N2       N        0.17100    0.33070    0.01268    1.000
    N3       N        0.01350    0.33650    0.24630    1.000
    O1       O        0.06080    0.40430    0.25840    1.000
    O2       O        0.02770    0.40180    0.24570    1.000
    O3       O        0.01320    0.21190    0.22420    1.000
    C1       C        0.15506    0.29900    0.08260    1.000
    H1       H        0.18100    0.24890    0.13120    1.000
    C2       C        0.10266    0.33550    0.08760    1.000
    H2       H        0.09230    0.30880    0.13750    1.000
    C3       C        0.06574    0.41240    0.01730    1.000
    C4       C        0.08162    0.44890    0.94460    1.000
    H3       H        0.05710    0.50260    0.89630    1.000
    C5       C        0.13396    0.40460    0.94500    1.000
    H4       H        0.14480    0.42720    0.89490    1.000
    Cl1      Cl       0.09050    0.29680    0.17960    1.000
    N4       N        0.51104    0.94690    0.02302    1.000
    N5       N        0.67100    0.83070    0.01268    1.000
    N6       N        0.51350    0.83650    0.24630    1.000
    O4       O        0.56080    0.90430    0.25840    1.000
    O5       O        0.52770    0.90180    0.24570    1.000
    O6       O        0.51320    0.71190    0.22420    1.000
    C6       C        0.65506    0.79900    0.08260    1.000
    H5       H        0.68100    0.74890    0.13120    1.000
    C7       C        0.60266    0.83550    0.08760    1.000
    H6       H        0.59230    0.80880    0.13750    1.000
    C8       C        0.56574    0.91240    0.01730    1.000
    C9       C        0.58162    0.94890    0.94460    1.000
    H7       H        0.55710    0.00260    0.89630    1.000
    C10      C        0.63396    0.90460    0.94500    1.000
    H8       H        0.64480    0.92720    0.89490    1.000
    Cl2      Cl       0.59050    0.79680    0.17960    1.000
    N7       N        0.98896    0.44690    0.47698    1.000
    N8       N        0.82900    0.33070    0.48732    1.000
    N9       N        0.98650    0.33650    0.25370    1.000
    O7       O        0.93920    0.40430    0.24160    1.000
    O8       O        0.97230    0.40180    0.25430    1.000
    O9       O        0.98680    0.21190    0.27580    1.000
    C11      C        0.84494    0.29900    0.41740    1.000
    H9       H        0.81900    0.24890    0.36880    1.000
    C12      C        0.89734    0.33550    0.41240    1.000
    H10      H        0.90770    0.30880    0.36250    1.000
    C13      C        0.93426    0.41240    0.48270    1.000
    C14      C        0.91838    0.44890    0.55540    1.000
    H11      H        0.94290    0.50260    0.60370    1.000
    C15      C        0.86604    0.40460    0.55500    1.000
    H12      H        0.85520    0.42720    0.60510    1.000
    Cl3      Cl       0.90950    0.29680    0.32040    1.000
    N10      N        0.48896    0.94690    0.47698    1.000
    N11      N        0.32900    0.83070    0.48732    1.000
    N12      N        0.48650    0.83650    0.25370    1.000
    O10      O        0.43920    0.90430    0.24160    1.000
    O11      O        0.47230    0.90180    0.25430    1.000
    O12      O        0.48680    0.71190    0.27580    1.000
    C16      C        0.34494    0.79900    0.41740    1.000
    H13      H        0.31900    0.74890    0.36880    1.000
    C17      C        0.39734    0.83550    0.41240    1.000
    H14      H        0.40770    0.80880    0.36250    1.000
    C18      C        0.43426    0.91240    0.48270    1.000
    C19      C        0.41838    0.94890    0.55540    1.000
    H15      H        0.44290    0.00260    0.60370    1.000
    C20      C        0.36604    0.90460    0.55500    1.000
    H16      H        0.35520    0.92720    0.60510    1.000
    Cl4      Cl       0.40950    0.79680    0.32040    1.000
    N13      N        0.98896    0.55310    0.97698    1.000
    N14      N        0.82900    0.66930    0.98732    1.000
    N15      N        0.98650    0.66350    0.75370    1.000
    O13      O        0.93920    0.59570    0.74160    1.000
    O14      O        0.97230    0.59820    0.75430    1.000
    O15      O        0.98680    0.78810    0.77580    1.000
    C21      C        0.84494    0.70100    0.91740    1.000
    H17      H        0.81900    0.75110    0.86880    1.000
    C22      C        0.89734    0.66450    0.91240    1.000
    H18      H        0.90770    0.69120    0.86250    1.000
    C23      C        0.93426    0.58760    0.98270    1.000
    C24      C        0.91838    0.55110    0.05540    1.000
    H19      H        0.94290    0.49740    0.10370    1.000
    C25      C        0.86604    0.59540    0.05500    1.000
    H20      H        0.85520    0.57280    0.10510    1.000
    Cl5      Cl       0.90950    0.70320    0.82040    1.000
    N16      N        0.48896    0.05310    0.97698    1.000
    N17      N        0.32900    0.16930    0.98732    1.000
    N18      N        0.48650    0.16350    0.75370    1.000
    O16      O        0.43920    0.09570    0.74160    1.000
    O17      O        0.47230    0.09820    0.75430    1.000
    O18      O        0.48680    0.28810    0.77580    1.000
    C26      C        0.34494    0.20100    0.91740    1.000
    H21      H        0.31900    0.25110    0.86880    1.000
    C27      C        0.39734    0.16450    0.91240    1.000
    H22      H        0.40770    0.19120    0.86250    1.000
    C28      C        0.43426    0.08760    0.98270    1.000
    C29      C        0.41838    0.05110    0.05540    1.000
    H23      H        0.44290    0.99740    0.10370    1.000
    C30      C        0.36604    0.09540    0.05500    1.000
    H24      H        0.35520    0.07280    0.10510    1.000
    Cl6      Cl       0.40950    0.20320    0.82040    1.000
    N19      N        0.01104    0.55310    0.52302    1.000
    N20      N        0.17100    0.66930    0.51268    1.000
    N21      N        0.01350    0.66350    0.74630    1.000
    O19      O        0.06080    0.59570    0.75840    1.000
    O20      O        0.02770    0.59820    0.74570    1.000
    O21      O        0.01320    0.78810    0.72420    1.000
    C31      C        0.15506    0.70100    0.58260    1.000
    H25      H        0.18100    0.75110    0.63120    1.000
    C32      C        0.10266    0.66450    0.58760    1.000
    H26      H        0.09230    0.69120    0.63750    1.000
    C33      C        0.06574    0.58760    0.51730    1.000
    C34      C        0.08162    0.55110    0.44460    1.000
    H27      H        0.05710    0.49740    0.39630    1.000
    C35      C        0.13396    0.59540    0.44500    1.000
    H28      H        0.14480    0.57280    0.39490    1.000
    Cl7      Cl       0.09050    0.70320    0.67960    1.000
    N22      N        0.51104    0.05310    0.52302    1.000
    N23      N        0.67100    0.16930    0.51268    1.000
    N24      N        0.51350    0.16350    0.74630    1.000
    O22      O        0.56080    0.09570    0.75840    1.000
    O23      O        0.52770    0.09820    0.74570    1.000
    O24      O        0.51320    0.28810    0.72420    1.000
    C36      C        0.65506    0.20100    0.58260    1.000
    H29      H        0.68100    0.25110    0.63120    1.000
    C37      C        0.60266    0.16450    0.58760    1.000
    H30      H        0.59230    0.19120    0.63750    1.000
    C38      C        0.56574    0.08760    0.51730    1.000
    C39      C        0.58162    0.05110    0.44460    1.000
    H31      H        0.55710    0.99740    0.39630    1.000
    C40      C        0.63396    0.09540    0.44500    1.000
    H32      H        0.64480    0.07280    0.39490    1.000
    Cl8      Cl       0.59050    0.20320    0.67960    1.000
    Ag1      Ag       0.25000    0.25000    0.00000    1.000
    Ag2      Ag       0.75000    0.25000    0.50000    1.000
    Ag3      Ag       0.75000    0.75000    0.00000    1.000
    Ag4      Ag       0.25000    0.75000    0.50000    1.000
