data_functionalizedCrystal
_audit_creation_method	'EQeq! by Chris Wilmer'
_symmetry_space_group_name_H-M	'P1'
_symmetry_Int_Tables_number	1
_symmetry_cell_setting	triclinic
loop_
_symmetry_equiv_pos_as_xyz
  x,y,z
_cell_length_a	12.721
_cell_length_b	13.82
_cell_length_c	14.866
_cell_angle_alpha	90
_cell_angle_beta	90
_cell_angle_gamma	90
loop_
_atom_site_label
_atom_site_type_symbol
_atom_site_fract_x
_atom_site_fract_y
_atom_site_fract_z
_atom_site_charge
Mof_Cu	Cu	0.49988	0.36249	0.48507	0.911
Mof_Ba	Ba	0.29508	0.19897	0.41992	1.693
Mof_C 	C 	0.5861	0.4864	0.6004	0.399
Mof_C 	C 	0.5941	0.5583	0.6781	-0.121
Mof_C 	C 	0.6812	0.5849	0.7263	-0.01
Mof_H 	H 	0.7483	0.5613	0.7148	0.004
Mof_C 	C 	0.659	0.6507	0.7938	-0.012
Mof_H 	H 	0.71	0.6774	0.8311	0.021
Mof_C 	C 	0.5553	0.6722	0.8001	-0.134
Mof_C 	C 	0.5003	0.7362	0.8668	0.4
Mof_C 	C 	0.6022	0.2235	0.3967	0.438
Mof_C 	C 	0.6293	0.1414	0.3341	-0.152
Mof_C 	C 	0.722	0.0945	0.3283	0.023
Mof_H 	H 	0.7796	0.109	0.3643	0.021
Mof_C 	C 	0.7229	0.0212	0.2622	-0.043
Mof_H 	H 	0.7809	0.983	0.2484	0.043
Mof_C 	C 	0.6266	0.0139	0.2211	-0.088
Mof_C 	C 	0.5984	0.9492	0.1443	0.344
Mof_O 	O 	0.4956	0.4647	0.575	-0.416
Mof_O 	O 	0.6697	0.4563	0.5706	-0.496
Mof_O 	O 	0.4047	0.7515	0.8557	-0.447
Mof_O 	O 	0.5578	0.7688	0.9295	-0.5
Mof_O 	O 	0.5089	0.2532	0.3959	-0.546
Mof_O 	O 	0.6724	0.2568	0.4446	-0.511
Mof_O 	O 	0.5055	0.9564	0.114	-0.398
Mof_O 	O 	0.6664	0.8923	0.1132	-0.451
Mof_S 	S 	0.48235	0.61358	0.71947	0.046
Mof_S 	S 	0.53894	0.0958	0.26087	-0.017
Mof_Cu	Cu	0.00012	0.63751	0.98507	0.909
Mof_Ba	Ba	0.20492	0.80103	0.91992	1.684
Mof_C 	C 	0.9139	0.5136	0.1004	0.393
Mof_C 	C 	0.9059	0.4417	0.1781	-0.123
Mof_C 	C 	0.8188	0.4151	0.2263	-0.01
Mof_H 	H 	0.7517	0.4387	0.2148	0.004
Mof_C 	C 	0.841	0.3493	0.2938	-0.012
Mof_H 	H 	0.79	0.3226	0.3311	0.02
Mof_C 	C 	0.9447	0.3278	0.3001	-0.138
Mof_C 	C 	0.9997	0.2638	0.3668	0.397
Mof_C 	C 	0.8978	0.7765	0.8967	0.437
Mof_C 	C 	0.8707	0.8586	0.8341	-0.15
Mof_C 	C 	0.778	0.9055	0.8283	0.02
Mof_H 	H 	0.7204	0.891	0.8643	0.023
Mof_C 	C 	0.7771	0.9788	0.7622	-0.036
Mof_H 	H 	0.7191	0.017	0.7484	0.039
Mof_C 	C 	0.8734	0.9861	0.7211	-0.088
Mof_C 	C 	0.9016	0.0508	0.6443	0.343
Mof_O 	O 	0.0044	0.5353	0.075	-0.41
Mof_O 	O 	0.8303	0.5437	0.0706	-0.495
Mof_O 	O 	0.0953	0.2485	0.3557	-0.445
Mof_O 	O 	0.9422	0.2312	0.4295	-0.501
Mof_O 	O 	0.9911	0.7468	0.8959	-0.541
Mof_O 	O 	0.8276	0.7432	0.9446	-0.507
Mof_O 	O 	0.9945	0.0436	0.614	-0.399
Mof_O 	O 	0.8336	0.1077	0.6132	-0.451
Mof_S 	S 	0.01765	0.38642	0.21947	0.053
Mof_S 	S 	0.96106	0.9042	0.76087	-0.014
Mof_Cu	Cu	0.50012	0.86249	0.01493	0.912
Mof_Ba	Ba	0.70492	0.69897	0.08008	1.688
Mof_C 	C 	0.4139	0.9864	0.8996	0.398
Mof_C 	C 	0.4059	0.0583	0.8219	-0.121
Mof_C 	C 	0.3188	0.0849	0.7737	-0.01
Mof_H 	H 	0.2517	0.0613	0.7852	0.003
Mof_C 	C 	0.341	0.1507	0.7062	-0.012
Mof_H 	H 	0.29	0.1774	0.6689	0.021
Mof_C 	C 	0.4447	0.1722	0.6999	-0.134
Mof_C 	C 	0.4997	0.2362	0.6332	0.4
Mof_C 	C 	0.3978	0.7235	0.1033	0.437
Mof_C 	C 	0.3707	0.6414	0.1659	-0.151
Mof_C 	C 	0.278	0.5945	0.1717	0.022
Mof_H 	H 	0.2204	0.609	0.1357	0.023
Mof_C 	C 	0.2771	0.5212	0.2378	-0.039
Mof_H 	H 	0.2191	0.483	0.2516	0.042
Mof_C 	C 	0.3734	0.5139	0.2789	-0.088
Mof_C 	C 	0.4016	0.4492	0.3557	0.344
Mof_O 	O 	0.5044	0.9647	0.925	-0.415
Mof_O 	O 	0.3303	0.9563	0.9294	-0.496
Mof_O 	O 	0.5953	0.2515	0.6443	-0.448
Mof_O 	O 	0.4422	0.2688	0.5705	-0.501
Mof_O 	O 	0.4911	0.7532	0.1041	-0.545
Mof_O 	O 	0.3276	0.7568	0.0554	-0.509
Mof_O 	O 	0.4945	0.4564	0.386	-0.398
Mof_O 	O 	0.3336	0.3923	0.3868	-0.451
Mof_S 	S 	0.51765	0.11358	0.78053	0.046
Mof_S 	S 	0.46106	0.5958	0.23913	-0.017
Mof_Cu	Cu	0.99988	0.13751	0.51493	0.911
Mof_Ba	Ba	0.79508	0.30103	0.58008	1.693
Mof_C 	C 	0.0861	0.0136	0.3996	0.406
Mof_C 	C 	0.0941	0.9417	0.3219	-0.124
Mof_C 	C 	0.1812	0.9151	0.2737	-0.008
Mof_H 	H 	0.2483	0.9387	0.2852	0.002
Mof_C 	C 	0.159	0.8493	0.2062	-0.013
Mof_H 	H 	0.21	0.8226	0.1689	0.021
Mof_C 	C 	0.0553	0.8278	0.1999	-0.134
Mof_C 	C 	0.0003	0.7638	0.1332	0.404
Mof_C 	C 	0.1022	0.2765	0.6033	0.437
Mof_C 	C 	0.1293	0.3586	0.6659	-0.151
Mof_C 	C 	0.222	0.4055	0.6717	0.022
Mof_H 	H 	0.2796	0.391	0.6357	0.022
Mof_C 	C 	0.2229	0.4788	0.7378	-0.04
Mof_H 	H 	0.2809	0.517	0.7516	0.042
Mof_C 	C 	0.1266	0.4861	0.7789	-0.088
Mof_C 	C 	0.0984	0.5508	0.8557	0.344
Mof_O 	O 	0.9956	0.0353	0.425	-0.421
Mof_O 	O 	0.1697	0.0437	0.4294	-0.497
Mof_O 	O 	0.9047	0.7485	0.1443	-0.451
Mof_O 	O 	0.0578	0.7312	0.0705	-0.5
Mof_O 	O 	0.0089	0.2468	0.6041	-0.545
Mof_O 	O 	0.1724	0.2432	0.5554	-0.511
Mof_O 	O 	0.0055	0.5436	0.886	-0.4
Mof_O 	O 	0.1664	0.6077	0.8868	-0.451
Mof_S 	S 	0.98235	0.88642	0.28053	0.045
Mof_S 	S 	0.03894	0.4042	0.73913	-0.019
_end
