data_functionalizedCrystal
_audit_creation_method	'EQeq! by Chris Wilmer'
_symmetry_space_group_name_H-M	'P1'
_symmetry_Int_Tables_number	1
_symmetry_cell_setting	triclinic
loop_
_symmetry_equiv_pos_as_xyz
  x,y,z
_cell_length_a	34.542
_cell_length_b	9.5651
_cell_length_c	18.011
_cell_angle_alpha	90
_cell_angle_beta	97.71
_cell_angle_gamma	90
loop_
_atom_site_label
_atom_site_type_symbol
_atom_site_fract_x
_atom_site_fract_y
_atom_site_fract_z
_atom_site_charge
Mof_Co	Co	0.34891	0.3177	0.52585	1.154
Mof_C 	C 	0.4844	0.3165	0.3132	-0.98
Mof_B 	B 	0.4767	0.378	0.2248	0.789
Mof_H 	H 	0.461	0.4778	0.2079	-0.246
Mof_B 	B 	0.4525	0.2323	0.2515	0.157
Mof_H 	H 	0.4202	0.2325	0.2529	-0.081
Mof_B 	B 	0.483	0.141	0.3177	1.058
Mof_H 	H 	0.4717	0.0801	0.3633	-0.34
Mof_B 	B 	0.4766	0.0847	0.2248	-0.477
Mof_H 	H 	0.4607	0.9854	0.2074	0.08
Mof_B 	B 	0.4726	0.2365	0.1675	0.146
Mof_H 	H 	0.4541	0.2407	0.1114	-0.094
Mof_C 	C 	0.4704	0.4124	0.3719	0.53
Mof_H 	H 	0.4927	0.4757	0.3901	-0.134
Mof_O 	O 	0.4411	0.4957	0.3358	-0.5
Mof_H 	H 	0.4331	0.5506	0.3669	0.255
Mof_C 	C 	0.4584	0.3418	0.4399	-0.263
Mof_C 	C 	0.4853	0.2981	0.4977	0.155
Mof_H 	H 	0.5123	0.2993	0.4925	-0.035
Mof_C 	C 	0.4737	0.2532	0.562	-0.199
Mof_H 	H 	0.4924	0.2199	0.6015	0.087
Mof_C 	C 	0.4345	0.2555	0.5706	0.104
Mof_H 	H 	0.4266	0.2282	0.617	-0.023
Mof_N 	N 	0.40775	0.2956	0.5145	-0.264
Mof_C 	C 	0.41971	0.3374	0.4518	0.141
Mof_H 	H 	0.4005	0.3665	0.4121	-0.021
Mof_O 	O 	0.33792	0.2136	0.4281	-0.442
Mof_C 	C 	0.30625	0.1828	0.3884	0.383
Mof_O 	O 	0.2728	0.2056	0.404	-0.429
Mof_C 	C 	0.30913	0.1088	0.3165	-0.086
Mof_C 	C 	0.34455	0.063	0.2985	-0.015
Mof_H 	H 	0.3677	0.079	0.3324	0.042
Mof_C 	C 	0.34683	0.994	0.2317	-0.015
Mof_H 	H 	0.3714	0.962	0.2202	0.036
Mof_C 	C 	0.31326	0.9714	0.1815	-0.09
Mof_C 	C 	0.27793	0.0191	0.1986	-0.011
Mof_H 	H 	0.2549	0.0059	0.164	0.051
Mof_C 	C 	0.27578	0.0866	0.2664	-0.015
Mof_H 	H 	0.2512	0.1176	0.2783	0.051
Mof_C 	C 	0.31466	0.8951	0.1093	0.385
Mof_O 	O 	0.34686	0.837	0.1012	-0.455
Mof_O 	O 	0.28473	0.892	0.0642	-0.445
Mof_O 	O 	0.29265	0.4015	0.5324	-0.516
Mof_C 	C 	0.30063	0.5131	0.4996	0.325
Mof_O 	O 	0.33213	0.5208	0.4721	-0.387
Mof_C 	C 	0.27408	0.6347	0.4993	-0.077
Mof_C 	C 	0.24443	0.6345	0.5436	-0.014
Mof_H 	H 	0.2407	0.555	0.5734	0.05
Mof_C 	C 	0.22041	0.7478	0.5449	-0.014
Mof_H 	H 	0.2001	0.747	0.5756	0.05
Mof_Co	Co	0.84891	0.8177	0.52585	1.155
Mof_C 	C 	0.9844	0.8165	0.3132	-0.981
Mof_B 	B 	0.9767	0.878	0.2248	0.782
Mof_H 	H 	0.961	0.9778	0.2079	-0.244
Mof_B 	B 	0.9525	0.7323	0.2515	0.165
Mof_H 	H 	0.9202	0.7325	0.2529	-0.083
Mof_B 	B 	0.983	0.641	0.3177	1.055
Mof_H 	H 	0.9717	0.5801	0.3633	-0.339
Mof_B 	B 	0.9766	0.5847	0.2248	-0.484
Mof_H 	H 	0.9607	0.4854	0.2074	0.082
Mof_B 	B 	0.9726	0.7365	0.1675	0.145
Mof_H 	H 	0.9541	0.7407	0.1114	-0.093
Mof_C 	C 	0.9704	0.9124	0.3719	0.531
Mof_H 	H 	0.9927	0.9757	0.3901	-0.135
Mof_O 	O 	0.9411	0.9957	0.3358	-0.501
Mof_H 	H 	0.9331	0.0506	0.3669	0.256
Mof_C 	C 	0.9584	0.8418	0.4399	-0.263
Mof_C 	C 	0.9853	0.7981	0.4977	0.153
Mof_H 	H 	0.0123	0.7993	0.4925	-0.034
Mof_C 	C 	0.9737	0.7532	0.562	-0.198
Mof_H 	H 	0.9924	0.7199	0.6015	0.086
Mof_C 	C 	0.9345	0.7555	0.5706	0.103
Mof_H 	H 	0.9266	0.7282	0.617	-0.023
Mof_N 	N 	0.90775	0.7956	0.5145	-0.264
Mof_C 	C 	0.91971	0.8374	0.4518	0.14
Mof_H 	H 	0.9005	0.8665	0.4121	-0.021
Mof_O 	O 	0.83792	0.7136	0.4281	-0.442
Mof_C 	C 	0.80625	0.6828	0.3884	0.383
Mof_O 	O 	0.7728	0.7056	0.404	-0.429
Mof_C 	C 	0.80913	0.6088	0.3165	-0.086
Mof_C 	C 	0.84455	0.563	0.2985	-0.016
Mof_H 	H 	0.8677	0.579	0.3324	0.042
Mof_C 	C 	0.84683	0.494	0.2317	-0.014
Mof_H 	H 	0.8714	0.462	0.2202	0.036
Mof_C 	C 	0.81326	0.4714	0.1815	-0.09
Mof_C 	C 	0.77793	0.5191	0.1986	-0.011
Mof_H 	H 	0.7549	0.5059	0.164	0.051
Mof_C 	C 	0.77578	0.5866	0.2664	-0.015
Mof_H 	H 	0.7512	0.6176	0.2783	0.051
Mof_C 	C 	0.81466	0.3951	0.1093	0.385
Mof_O 	O 	0.84686	0.337	0.1012	-0.455
Mof_O 	O 	0.78473	0.392	0.0642	-0.445
Mof_O 	O 	0.79265	0.9015	0.5324	-0.517
Mof_C 	C 	0.80063	0.0131	0.4996	0.326
Mof_O 	O 	0.83213	0.0208	0.4721	-0.387
Mof_C 	C 	0.77408	0.1347	0.4993	-0.077
Mof_C 	C 	0.74443	0.1345	0.5436	-0.014
Mof_H 	H 	0.7407	0.055	0.5734	0.05
Mof_C 	C 	0.72041	0.2478	0.5449	-0.014
Mof_H 	H 	0.7001	0.247	0.5756	0.05
Mof_Co	Co	0.65108	0.3177	0.97415	1.166
Mof_C 	C 	0.5156	0.3165	0.1868	-0.971
Mof_B 	B 	0.5233	0.378	0.2752	0.797
Mof_H 	H 	0.539	0.4778	0.2921	-0.247
Mof_B 	B 	0.5475	0.2323	0.2485	0.144
Mof_H 	H 	0.5798	0.2325	0.2471	-0.077
Mof_B 	B 	0.517	0.141	0.1823	1.059
Mof_H 	H 	0.5283	0.0801	0.1367	-0.344
Mof_B 	B 	0.5234	0.0847	0.2752	-0.468
Mof_H 	H 	0.5393	0.9854	0.2926	0.078
Mof_B 	B 	0.5274	0.2365	0.3325	0.15
Mof_H 	H 	0.5459	0.2407	0.3886	-0.089
Mof_C 	C 	0.5296	0.4124	0.1281	0.504
Mof_H 	H 	0.5073	0.4757	0.1099	-0.13
Mof_O 	O 	0.5589	0.4957	0.1642	-0.492
Mof_H 	H 	0.5669	0.5506	0.1331	0.249
Mof_C 	C 	0.5416	0.3418	0.0601	-0.209
Mof_C 	C 	0.5147	0.2981	0.0023	0.049
Mof_H 	H 	0.4877	0.2993	0.0075	-0.01
Mof_C 	C 	0.5263	0.2532	0.938	-0.097
Mof_H 	H 	0.5076	0.2199	0.8985	0.057
Mof_C 	C 	0.5655	0.2555	0.9294	0.062
Mof_H 	H 	0.5734	0.2282	0.883	-0.007
Mof_N 	N 	0.59225	0.2956	0.9855	-0.227
Mof_C 	C 	0.58029	0.3374	0.0482	0.076
Mof_H 	H 	0.5995	0.3665	0.0879	-0.004
Mof_O 	O 	0.66208	0.2136	0.0719	-0.455
Mof_C 	C 	0.69375	0.1828	0.1116	0.385
Mof_O 	O 	0.7272	0.2056	0.096	-0.435
Mof_C 	C 	0.69087	0.1088	0.1835	-0.089
Mof_C 	C 	0.65545	0.063	0.2015	-0.013
Mof_H 	H 	0.6323	0.079	0.1676	0.04
Mof_C 	C 	0.65317	0.994	0.2683	-0.016
Mof_H 	H 	0.6286	0.962	0.2798	0.037
Mof_C 	C 	0.68674	0.9714	0.3185	-0.087
Mof_C 	C 	0.72207	0.0191	0.3014	-0.012
Mof_H 	H 	0.7451	0.0059	0.336	0.051
Mof_C 	C 	0.72422	0.0866	0.2336	-0.013
Mof_H 	H 	0.7488	0.1176	0.2217	0.05
Mof_C 	C 	0.68534	0.8951	0.3907	0.385
Mof_O 	O 	0.65314	0.837	0.3988	-0.45
Mof_O 	O 	0.71527	0.892	0.4358	-0.437
Mof_O 	O 	0.70735	0.4015	0.9676	-0.487
Mof_C 	C 	0.69937	0.5131	0.0004	0.312
Mof_O 	O 	0.66787	0.5208	0.0279	-0.395
Mof_C 	C 	0.72592	0.6347	0.0007	-0.151
Mof_C 	C 	0.75557	0.6345	0.9564	0.081
Mof_H 	H 	0.7593	0.555	0.9266	0.024
Mof_C 	C 	0.77959	0.7478	0.9551	-0.079
Mof_H 	H 	0.7999	0.747	0.9244	0.073
Mof_Co	Co	0.15109	0.8177	0.97415	1.165
Mof_C 	C 	0.0156	0.8165	0.1868	-0.97
Mof_B 	B 	0.0233	0.878	0.2752	0.803
Mof_H 	H 	0.039	0.9778	0.2921	-0.249
Mof_B 	B 	0.0475	0.7323	0.2485	0.136
Mof_H 	H 	0.0798	0.7325	0.2471	-0.075
Mof_B 	B 	0.017	0.641	0.1823	1.064
Mof_H 	H 	0.0283	0.5801	0.1367	-0.345
Mof_B 	B 	0.0234	0.5847	0.2752	-0.463
Mof_H 	H 	0.0393	0.4854	0.2926	0.077
Mof_B 	B 	0.0274	0.7365	0.3325	0.151
Mof_H 	H 	0.0459	0.7407	0.3886	-0.09
Mof_C 	C 	0.0296	0.9124	0.1281	0.505
Mof_H 	H 	0.0073	0.9757	0.1099	-0.13
Mof_O 	O 	0.0589	0.9957	0.1642	-0.493
Mof_H 	H 	0.0669	0.0506	0.1331	0.249
Mof_C 	C 	0.0416	0.8418	0.0601	-0.212
Mof_C 	C 	0.0147	0.7981	0.0023	0.054
Mof_H 	H 	0.9877	0.7993	0.0075	-0.012
Mof_C 	C 	0.0263	0.7532	0.938	-0.101
Mof_H 	H 	0.0076	0.7199	0.8985	0.059
Mof_C 	C 	0.0655	0.7555	0.9294	0.063
Mof_H 	H 	0.0734	0.7282	0.883	-0.008
Mof_N 	N 	0.09225	0.7956	0.9855	-0.228
Mof_C 	C 	0.08029	0.8374	0.0482	0.078
Mof_H 	H 	0.0995	0.8665	0.0879	-0.004
Mof_O 	O 	0.16208	0.7136	0.0719	-0.455
Mof_C 	C 	0.19375	0.6828	0.1116	0.385
Mof_O 	O 	0.2272	0.7056	0.096	-0.435
Mof_C 	C 	0.19087	0.6088	0.1835	-0.089
Mof_C 	C 	0.15545	0.563	0.2015	-0.013
Mof_H 	H 	0.1323	0.579	0.1676	0.04
Mof_C 	C 	0.15317	0.494	0.2683	-0.016
Mof_H 	H 	0.1286	0.462	0.2798	0.037
Mof_C 	C 	0.18674	0.4714	0.3185	-0.086
Mof_C 	C 	0.22207	0.5191	0.3014	-0.013
Mof_H 	H 	0.2451	0.5059	0.336	0.052
Mof_C 	C 	0.22422	0.5866	0.2336	-0.013
Mof_H 	H 	0.2488	0.6176	0.2217	0.049
Mof_C 	C 	0.18534	0.3951	0.3907	0.385
Mof_O 	O 	0.15314	0.337	0.3988	-0.45
Mof_O 	O 	0.21527	0.392	0.4358	-0.437
Mof_O 	O 	0.20735	0.9015	0.9676	-0.489
Mof_C 	C 	0.19937	0.0131	0.0004	0.314
Mof_O 	O 	0.16787	0.0208	0.0279	-0.396
Mof_C 	C 	0.22592	0.1347	0.0007	-0.154
Mof_C 	C 	0.25557	0.1345	0.9564	0.084
Mof_H 	H 	0.2593	0.055	0.9266	0.023
Mof_C 	C 	0.27959	0.2478	0.9551	-0.081
Mof_H 	H 	0.2999	0.247	0.9244	0.074
Mof_Co	Co	0.65108	0.6823	0.47415	1.155
Mof_C 	C 	0.5156	0.6835	0.6868	-0.982
Mof_B 	B 	0.5233	0.622	0.7752	0.802
Mof_H 	H 	0.539	0.5222	0.7921	-0.247
Mof_B 	B 	0.5475	0.7677	0.7485	0.146
Mof_H 	H 	0.5798	0.7675	0.7471	-0.076
Mof_B 	B 	0.517	0.859	0.6823	1.071
Mof_H 	H 	0.5283	0.9199	0.6367	-0.344
Mof_B 	B 	0.5234	0.9153	0.7752	-0.477
Mof_H 	H 	0.5393	0.0146	0.7926	0.083
Mof_B 	B 	0.5274	0.7635	0.8325	0.153
Mof_H 	H 	0.5459	0.7593	0.8886	-0.085
Mof_C 	C 	0.5296	0.5876	0.6281	0.531
Mof_H 	H 	0.5073	0.5243	0.6099	-0.134
Mof_O 	O 	0.5589	0.5043	0.6642	-0.499
Mof_H 	H 	0.5669	0.4494	0.6331	0.255
Mof_C 	C 	0.5416	0.6582	0.5601	-0.263
Mof_C 	C 	0.5147	0.7019	0.5023	0.155
Mof_H 	H 	0.4877	0.7007	0.5075	-0.035
Mof_C 	C 	0.5263	0.7468	0.438	-0.199
Mof_H 	H 	0.5076	0.7801	0.3985	0.086
Mof_C 	C 	0.5655	0.7445	0.4294	0.104
Mof_H 	H 	0.5734	0.7718	0.383	-0.024
Mof_N 	N 	0.59225	0.7044	0.4855	-0.265
Mof_C 	C 	0.58029	0.6626	0.5482	0.141
Mof_H 	H 	0.5995	0.6335	0.5879	-0.021
Mof_O 	O 	0.66208	0.7864	0.5719	-0.442
Mof_C 	C 	0.69375	0.8172	0.6116	0.384
Mof_O 	O 	0.7272	0.7944	0.596	-0.429
Mof_C 	C 	0.69087	0.8912	0.6835	-0.087
Mof_C 	C 	0.65545	0.937	0.7015	-0.015
Mof_H 	H 	0.6323	0.921	0.6676	0.042
Mof_C 	C 	0.65317	0.006	0.7683	-0.014
Mof_H 	H 	0.6286	0.038	0.7798	0.038
Mof_C 	C 	0.68674	0.0286	0.8185	-0.082
Mof_C 	C 	0.72207	0.9809	0.8014	-0.015
Mof_H 	H 	0.7451	0.9941	0.836	0.052
Mof_C 	C 	0.72422	0.9134	0.7336	-0.013
Mof_H 	H 	0.7488	0.8824	0.7217	0.05
Mof_C 	C 	0.68534	0.1049	0.8907	0.383
Mof_O 	O 	0.65314	0.163	0.8988	-0.444
Mof_O 	O 	0.71527	0.108	0.9358	-0.422
Mof_O 	O 	0.70735	0.5985	0.4676	-0.516
Mof_C 	C 	0.69937	0.4869	0.5004	0.325
Mof_O 	O 	0.66787	0.4792	0.5279	-0.387
Mof_C 	C 	0.72592	0.3653	0.5007	-0.077
Mof_C 	C 	0.75557	0.3655	0.4564	-0.014
Mof_H 	H 	0.7593	0.445	0.4266	0.05
Mof_C 	C 	0.77959	0.2522	0.4551	-0.014
Mof_H 	H 	0.7999	0.253	0.4244	0.049
Mof_Co	Co	0.15109	0.1823	0.47415	1.155
Mof_C 	C 	0.0156	0.1835	0.6868	-0.979
Mof_B 	B 	0.0233	0.122	0.7752	0.809
Mof_H 	H 	0.039	0.0222	0.7921	-0.249
Mof_B 	B 	0.0475	0.2677	0.7485	0.137
Mof_H 	H 	0.0798	0.2675	0.7471	-0.073
Mof_B 	B 	0.017	0.359	0.6823	1.072
Mof_H 	H 	0.0283	0.4199	0.6367	-0.344
Mof_B 	B 	0.0234	0.4153	0.7752	-0.466
Mof_H 	H 	0.0393	0.5146	0.7926	0.08
Mof_B 	B 	0.0274	0.2635	0.8325	0.153
Mof_H 	H 	0.0459	0.2593	0.8886	-0.084
Mof_C 	C 	0.0296	0.0876	0.6281	0.529
Mof_H 	H 	0.0073	0.0243	0.6099	-0.133
Mof_O 	O 	0.0589	0.0043	0.6642	-0.497
Mof_H 	H 	0.0669	0.9494	0.6331	0.253
Mof_C 	C 	0.0416	0.1582	0.5601	-0.263
Mof_C 	C 	0.0147	0.2019	0.5023	0.156
Mof_H 	H 	0.9877	0.2007	0.5075	-0.036
Mof_C 	C 	0.0263	0.2468	0.438	-0.2
Mof_H 	H 	0.0076	0.2801	0.3985	0.087
Mof_C 	C 	0.0655	0.2445	0.4294	0.104
Mof_H 	H 	0.0734	0.2718	0.383	-0.024
Mof_N 	N 	0.09225	0.2044	0.4855	-0.264
Mof_C 	C 	0.08029	0.1626	0.5482	0.141
Mof_H 	H 	0.0995	0.1335	0.5879	-0.021
Mof_O 	O 	0.16208	0.2864	0.5719	-0.441
Mof_C 	C 	0.19375	0.3172	0.6116	0.384
Mof_O 	O 	0.2272	0.2944	0.596	-0.429
Mof_C 	C 	0.19087	0.3912	0.6835	-0.086
Mof_C 	C 	0.15545	0.437	0.7015	-0.013
Mof_H 	H 	0.1323	0.421	0.6676	0.042
Mof_C 	C 	0.15317	0.506	0.7683	-0.015
Mof_H 	H 	0.1286	0.538	0.7798	0.038
Mof_C 	C 	0.18674	0.5286	0.8185	-0.084
Mof_C 	C 	0.22207	0.4809	0.8014	-0.012
Mof_H 	H 	0.2451	0.4941	0.836	0.052
Mof_C 	C 	0.22422	0.4134	0.7336	-0.013
Mof_H 	H 	0.2488	0.3824	0.7217	0.05
Mof_C 	C 	0.18534	0.6049	0.8907	0.383
Mof_O 	O 	0.15314	0.663	0.8988	-0.444
Mof_O 	O 	0.21527	0.608	0.9358	-0.423
Mof_O 	O 	0.20735	0.0985	0.4676	-0.515
Mof_C 	C 	0.19937	0.9869	0.5004	0.323
Mof_O 	O 	0.16787	0.9792	0.5279	-0.387
Mof_C 	C 	0.22592	0.8653	0.5007	-0.077
Mof_C 	C 	0.25557	0.8655	0.4564	-0.015
Mof_H 	H 	0.2593	0.945	0.4266	0.049
Mof_C 	C 	0.27959	0.7522	0.4551	-0.014
Mof_H 	H 	0.2999	0.753	0.4244	0.049
Mof_Co	Co	0.34891	0.6823	0.02585	1.144
Mof_C 	C 	0.4844	0.6835	0.8132	-0.99
Mof_B 	B 	0.4767	0.622	0.7248	0.796
Mof_H 	H 	0.461	0.5222	0.7079	-0.246
Mof_B 	B 	0.4525	0.7677	0.7515	0.157
Mof_H 	H 	0.4202	0.7675	0.7529	-0.079
Mof_B 	B 	0.483	0.859	0.8177	1.069
Mof_H 	H 	0.4717	0.9199	0.8633	-0.34
Mof_B 	B 	0.4766	0.9153	0.7248	-0.483
Mof_H 	H 	0.4607	0.0146	0.7074	0.084
Mof_B 	B 	0.4726	0.7635	0.6675	0.147
Mof_H 	H 	0.4541	0.7593	0.6114	-0.089
Mof_C 	C 	0.4704	0.5876	0.8719	0.556
Mof_H 	H 	0.4927	0.5243	0.8901	-0.137
Mof_O 	O 	0.4411	0.5043	0.8358	-0.506
Mof_H 	H 	0.4331	0.4494	0.8669	0.262
Mof_C 	C 	0.4584	0.6582	0.9399	-0.316
Mof_C 	C 	0.4853	0.7019	0.9977	0.259
Mof_H 	H 	0.5123	0.7007	0.9925	-0.059
Mof_C 	C 	0.4737	0.7468	0.062	-0.3
Mof_H 	H 	0.4924	0.7801	0.1015	0.115
Mof_C 	C 	0.4345	0.7445	0.0706	0.145
Mof_H 	H 	0.4266	0.7718	0.117	-0.039
Mof_N 	N 	0.40775	0.7044	0.0145	-0.301
Mof_C 	C 	0.41971	0.6626	0.9518	0.205
Mof_H 	H 	0.4005	0.6335	0.9121	-0.038
Mof_O 	O 	0.33792	0.7864	0.9281	-0.427
Mof_C 	C 	0.30625	0.8172	0.8884	0.38
Mof_O 	O 	0.2728	0.7944	0.904	-0.419
Mof_C 	C 	0.30913	0.8912	0.8165	-0.082
Mof_C 	C 	0.34455	0.937	0.7985	-0.019
Mof_H 	H 	0.3677	0.921	0.8324	0.045
Mof_C 	C 	0.34683	0.006	0.7317	-0.01
Mof_H 	H 	0.3714	0.038	0.7202	0.036
Mof_C 	C 	0.31326	0.0286	0.6815	-0.087
Mof_C 	C 	0.27793	0.9809	0.6986	-0.012
Mof_H 	H 	0.2549	0.9941	0.664	0.051
Mof_C 	C 	0.27578	0.9134	0.7664	-0.016
Mof_H 	H 	0.2512	0.8824	0.7783	0.051
Mof_C 	C 	0.31466	0.1049	0.6093	0.385
Mof_O 	O 	0.34686	0.163	0.6012	-0.45
Mof_O 	O 	0.28473	0.108	0.5642	-0.436
Mof_O 	O 	0.29265	0.5985	0.0324	-0.539
Mof_C 	C 	0.30063	0.4869	0.9996	0.335
Mof_O 	O 	0.33213	0.4792	0.9721	-0.378
Mof_C 	C 	0.27408	0.3653	0.9993	0.001
Mof_C 	C 	0.24443	0.3655	0.0436	-0.113
Mof_H 	H 	0.2407	0.445	0.0734	0.077
Mof_C 	C 	0.22041	0.2522	0.0449	0.053
Mof_H 	H 	0.2001	0.253	0.0756	0.025
Mof_Co	Co	0.84891	0.1823	0.02585	1.144
Mof_C 	C 	0.9844	0.1835	0.8132	-0.991
Mof_B 	B 	0.9767	0.122	0.7248	0.788
Mof_H 	H 	0.961	0.0222	0.7079	-0.244
Mof_B 	B 	0.9525	0.2677	0.7515	0.165
Mof_H 	H 	0.9202	0.2675	0.7529	-0.082
Mof_B 	B 	0.983	0.359	0.8177	1.063
Mof_H 	H 	0.9717	0.4199	0.8633	-0.338
Mof_B 	B 	0.9766	0.4153	0.7248	-0.487
Mof_H 	H 	0.9607	0.5146	0.7074	0.084
Mof_B 	B 	0.9726	0.2635	0.6675	0.147
Mof_H 	H 	0.9541	0.2593	0.6114	-0.088
Mof_C 	C 	0.9704	0.0876	0.8719	0.556
Mof_H 	H 	0.9927	0.0243	0.8901	-0.137
Mof_O 	O 	0.9411	0.0043	0.8358	-0.504
Mof_H 	H 	0.9331	0.9494	0.8669	0.259
Mof_C 	C 	0.9584	0.1582	0.9399	-0.316
Mof_C 	C 	0.9853	0.2019	0.9977	0.26
Mof_H 	H 	0.0123	0.2007	0.9925	-0.058
Mof_C 	C 	0.9737	0.2468	0.062	-0.301
Mof_H 	H 	0.9924	0.2801	0.1015	0.115
Mof_C 	C 	0.9345	0.2445	0.0706	0.146
Mof_H 	H 	0.9266	0.2718	0.117	-0.04
Mof_N 	N 	0.90775	0.2044	0.0145	-0.301
Mof_C 	C 	0.91971	0.1626	0.9518	0.206
Mof_H 	H 	0.9005	0.1335	0.9121	-0.038
Mof_O 	O 	0.83792	0.2864	0.9281	-0.427
Mof_C 	C 	0.80625	0.3172	0.8884	0.38
Mof_O 	O 	0.7728	0.2944	0.904	-0.418
Mof_C 	C 	0.80913	0.3912	0.8165	-0.082
Mof_C 	C 	0.84455	0.437	0.7985	-0.017
Mof_H 	H 	0.8677	0.421	0.8324	0.045
Mof_C 	C 	0.84683	0.506	0.7317	-0.012
Mof_H 	H 	0.8714	0.538	0.7202	0.037
Mof_C 	C 	0.81326	0.5286	0.6815	-0.088
Mof_C 	C 	0.77793	0.4809	0.6986	-0.01
Mof_H 	H 	0.7549	0.4941	0.664	0.051
Mof_C 	C 	0.77578	0.4134	0.7664	-0.016
Mof_H 	H 	0.7512	0.3824	0.7783	0.052
Mof_C 	C 	0.81466	0.6049	0.6093	0.386
Mof_O 	O 	0.84686	0.663	0.6012	-0.45
Mof_O 	O 	0.78473	0.608	0.5642	-0.437
Mof_O 	O 	0.79265	0.0985	0.0324	-0.539
Mof_C 	C 	0.80063	0.9869	0.9996	0.334
Mof_O 	O 	0.83213	0.9792	0.9721	-0.379
Mof_C 	C 	0.77408	0.8653	0.9993	-0.001
Mof_C 	C 	0.74443	0.8655	0.0436	-0.109
Mof_H 	H 	0.7407	0.945	0.0734	0.076
Mof_C 	C 	0.72041	0.7522	0.0449	0.05
Mof_H 	H 	0.7001	0.753	0.0756	0.026
Mof_Co	Co	0.25	0.25	0.5	1.208
Mof_Co	Co	0.75	0.25	-0	1.194
Mof_Co	Co	0.75	0.75	0.5	1.208
Mof_Co	Co	0.25	0.75	-0	1.194
_end
