# CIF file generated by openbabel 3.1.0, see https://openbabel.org
data_I
_chemical_name_common 'image0'
_cell_length_a 10.1071
_cell_length_b 13.0894
_cell_length_c 13.6696
_cell_angle_alpha 97.074
_cell_angle_beta 109.843
_cell_angle_gamma 95.596
_space_group_name_H-M_alt 'P 1'
_space_group_name_Hall 'P 1'
loop_
    _symmetry_equiv_pos_as_xyz
    x,y,z
loop_
    _atom_site_label
    _atom_site_type_symbol
    _atom_site_fract_x
    _atom_site_fract_y
    _atom_site_fract_z
    _atom_site_occupancy
    C1       C        0.99960    0.27870    0.93710    1.000
    C2       C        0.00100    0.39310    0.97240    1.000
    C3       C        0.12650    0.45980    0.02000    1.000
    C4       C        0.87130    0.43360    0.95170    1.000
    C5       C        0.22160    0.05750    0.38620    1.000
    C6       C        0.36620    0.02860    0.44630    1.000
    C7       C        0.47490    0.10040    0.52350    1.000
    C8       C        0.60650    0.07280    0.57580    1.000
    C9       C        0.73360    0.93160    0.94240    1.000
    C10      C        0.61300    0.96660    0.97290    1.000
    C11      C        0.56850    0.92140    0.04570    1.000
    C12      C        0.54100    0.04370    0.92550    1.000
    Cl1      Cl       0.28370    0.40952    0.04438    1.000
    Cl2      Cl       0.71349    0.35118    0.89243    1.000
    Cl3      Cl       0.43827    0.22433    0.55303    1.000
    Cl4      Cl       0.73850    0.16382    0.66688    1.000
    Cl5      Cl       0.64767    0.82025    0.09792    1.000
    Cl6      Cl       0.59136    0.09426    0.83119    1.000
    La1      La       0.03628    0.11963    0.13967    1.000
    O1       O        0.98400    0.21680    0.99740    1.000
    O2       O        0.01530    0.25430    0.85150    1.000
    O3       O        0.21820    0.10780    0.31290    1.000
    O4       O        0.12180    0.02600    0.41210    1.000
    O5       O        0.85310    0.99100    0.98060    1.000
    O6       O        0.71220    0.84920    0.87950    1.000
    O7       O        0.97410    0.95130    0.19640    1.000
    H1       H        0.97740    0.97530    0.25570    1.000
    H2       H        0.99210    0.89260    0.18310    1.000
    C13      C        0.00040    0.72130    0.06290    1.000
    C14      C        0.99900    0.60690    0.02760    1.000
    C15      C        0.87350    0.54020    0.98000    1.000
    C16      C        0.12870    0.56640    0.04830    1.000
    C17      C        0.77840    0.94250    0.61380    1.000
    C18      C        0.63380    0.97140    0.55370    1.000
    C19      C        0.52510    0.89960    0.47650    1.000
    C20      C        0.39350    0.92720    0.42420    1.000
    C21      C        0.26640    0.06840    0.05760    1.000
    C22      C        0.38700    0.03340    0.02710    1.000
    C23      C        0.43150    0.07860    0.95430    1.000
    C24      C        0.45900    0.95630    0.07450    1.000
    Cl7      Cl       0.71630    0.59048    0.95562    1.000
    Cl8      Cl       0.28651    0.64882    0.10757    1.000
    Cl9      Cl       0.56173    0.77567    0.44697    1.000
    Cl10     Cl       0.26150    0.83618    0.33312    1.000
    Cl11     Cl       0.35233    0.17975    0.90208    1.000
    Cl12     Cl       0.40864    0.90574    0.16881    1.000
    La2      La       0.96372    0.88037    0.86033    1.000
    O8       O        0.01600    0.78320    0.00260    1.000
    O9       O        0.98470    0.74570    0.14850    1.000
    O10      O        0.78180    0.89220    0.68710    1.000
    O11      O        0.87820    0.97400    0.58790    1.000
    O12      O        0.14690    0.00900    0.01940    1.000
    O13      O        0.28780    0.15080    0.12050    1.000
    O14      O        0.02590    0.04870    0.80360    1.000
    H3       H        0.02260    0.02470    0.74430    1.000
    H4       H        0.00790    0.10740    0.81690    1.000
