# CIF file generated by openbabel 3.1.0, see https://openbabel.org
data_I
_chemical_name_common 'image0'
_cell_length_a 13.6903
_cell_length_b 14.7432
_cell_length_c 15.6518
_cell_angle_alpha 95.222
_cell_angle_beta 112.945
_cell_angle_gamma 90.244
_space_group_name_H-M_alt 'P 1'
_space_group_name_Hall 'P 1'
loop_
    _symmetry_equiv_pos_as_xyz
    x,y,z
loop_
    _atom_site_label
    _atom_site_type_symbol
    _atom_site_fract_x
    _atom_site_fract_y
    _atom_site_fract_z
    _atom_site_occupancy
    C1       C        0.65360    0.95780    0.30180    1.000
    C2       C        0.72660    0.91690    0.38470    1.000
    C3       C        0.83700    0.92770    0.41370    1.000
    H1       H        0.86540    0.95840    0.37870    1.000
    C4       C        0.90400    0.89250    0.49460    1.000
    H2       H        0.97710    0.90040    0.51390    1.000
    C5       C        0.86300    0.84580    0.54690    1.000
    C6       C        0.75450    0.83480    0.51730    1.000
    H3       H        0.72560    0.80450    0.55210    1.000
    C7       C        0.68920    0.86820    0.43670    1.000
    H4       H        0.61630    0.85740    0.41650    1.000
    C8       C        0.93090    0.81400    0.63760    1.000
    C9       C        0.33730    0.89330    0.97450    1.000
    C10      C        0.23740    0.83760    0.91420    1.000
    C11      C        0.19720    0.77510    0.95510    1.000
    H5       H        0.23330    0.76690    0.01780    1.000
    C12      C        0.10390    0.72530    0.90300    1.000
    C13      C        0.04740    0.74150    0.81060    1.000
    H6       H        0.98290    0.71000    0.77650    1.000
    C14      C        0.08570    0.80410    0.76860    1.000
    C15      C        0.18350    0.84970    0.82120    1.000
    H7       H        0.21270    0.88870    0.79310    1.000
    C16      C        0.06220    0.65500    0.94360    1.000
    C17      C        0.29750    0.11530    0.18960    1.000
    H8       H        0.31890    0.16580    0.16880    1.000
    C18      C        0.20350    0.11940    0.20980    1.000
    H9       H        0.16380    0.17130    0.20180    1.000
    C19      C        0.17500    0.04510    0.24050    1.000
    H10      H        0.11390    0.04540    0.25300    1.000
    C20      C        0.23360    0.97040    0.25350    1.000
    H11      H        0.21560    0.91990    0.27670    1.000
    C21      C        0.32190    0.97200    0.23070    1.000
    H12      H        0.36140    0.92000    0.23750    1.000
    C22      C        0.88850    0.52070    0.69970    1.000
    C23      C        0.88660    0.55990    0.61480    1.000
    C24      C        0.79170    0.58120    0.54560    1.000
    H13      H        0.72890    0.57550    0.55480    1.000
    C25      C        0.78900    0.61050    0.46360    1.000
    H14      H        0.72430    0.62210    0.41710    1.000
    C26      C        0.88220    0.62300    0.45040    1.000
    C27      C        0.97840    0.60670    0.52210    1.000
    H15      H        0.04190    0.61760    0.51540    1.000
    C28      C        0.98020    0.57490    0.60190    1.000
    H16      H        0.04490    0.56310    0.64830    1.000
    C29      C        0.87840    0.65170    0.36100    1.000
    C30      C        0.84460    0.59580    0.00580    1.000
    C31      C        0.80650    0.65840    0.06720    1.000
    C32      C        0.83350    0.64380    0.16020    1.000
    H17      H        0.88410    0.60190    0.18770    1.000
    C33      C        0.78440    0.69240    0.21160    1.000
    C34      C        0.71480    0.75870    0.17140    1.000
    H18      H        0.68140    0.79070    0.20560    1.000
    C35      C        0.69380    0.77840    0.08050    1.000
    C36      C        0.73880    0.72610    0.02850    1.000
    H19      H        0.72330    0.73670    0.96700    1.000
    C37      C        0.62170    0.85480    0.04240    1.000
    C38      C        0.65870    0.32900    0.81610    1.000
    H20      H        0.71180    0.28720    0.83460    1.000
    C39      C        0.55520    0.29980    0.79500    1.000
    H21      H        0.53900    0.23990    0.80060    1.000
    C40      C        0.47590    0.36190    0.76550    1.000
    H22      H        0.40520    0.34430    0.74980    1.000
    C41      C        0.50450    0.45000    0.76010    1.000
    H23      H        0.45360    0.49370    0.74150    1.000
    C42      C        0.61040    0.47220    0.78290    1.000
    H24      H        0.62910    0.53160    0.77810    1.000
    N1       N        0.02950    0.83160    0.67700    1.000
    N2       N        0.35400    0.04240    0.19980    1.000
    N3       N        0.79310    0.67200    0.30060    1.000
    N4       N        0.68560    0.41430    0.81080    1.000
    O1       O        0.55470    0.94140    0.27520    1.000
    O2       O        0.68990    0.00690    0.25880    1.000
    O3       O        0.35850    0.90810    0.05950    1.000
    O4       O        0.39070    0.92710    0.93490    1.000
    O5       O        0.97520    0.61550    0.89410    1.000
    O6       O        0.11920    0.63950    0.02730    1.000
    O7       O        0.97090    0.48840    0.75270    1.000
    O8       O        0.80330    0.52130    0.71590    1.000
    O9       O        0.92920    0.55400    0.04340    1.000
    O10      O        0.78880    0.58400    0.92170    1.000
    O11      O        0.57630    0.88800    0.09360    1.000
    O12      O        0.61330    0.87980    0.96550    1.000
    H25      H        0.89400    0.77200    0.66400    1.000
    H26      H        0.95200    0.66100    0.36200    1.000
    Eu1      Eu       0.50368    0.01880    0.13457    1.000
    Eu2      Eu       0.89000    0.47009    0.87100    1.000
    C43      C        0.34640    0.04220    0.69820    1.000
    C44      C        0.27340    0.08310    0.61530    1.000
    C45      C        0.16300    0.07230    0.58630    1.000
    H27      H        0.13460    0.04160    0.62130    1.000
    C46      C        0.09600    0.10750    0.50540    1.000
    H28      H        0.02290    0.09960    0.48610    1.000
    C47      C        0.13700    0.15420    0.45310    1.000
    C48      C        0.24550    0.16520    0.48270    1.000
    H29      H        0.27440    0.19550    0.44790    1.000
    C49      C        0.31080    0.13180    0.56330    1.000
    H30      H        0.38370    0.14260    0.58350    1.000
    C50      C        0.06910    0.18600    0.36240    1.000
    C51      C        0.66270    0.10670    0.02550    1.000
    C52      C        0.76260    0.16240    0.08580    1.000
    C53      C        0.80280    0.22490    0.04490    1.000
    H31      H        0.76670    0.23310    0.98220    1.000
    C54      C        0.89610    0.27470    0.09700    1.000
    C55      C        0.95260    0.25850    0.18940    1.000
    H32      H        0.01710    0.29000    0.22350    1.000
    C56      C        0.91430    0.19590    0.23140    1.000
    C57      C        0.81650    0.15030    0.17880    1.000
    H33      H        0.78730    0.11130    0.20690    1.000
    C58      C        0.93780    0.34500    0.05640    1.000
    C59      C        0.70250    0.88470    0.81040    1.000
    H34      H        0.68110    0.83420    0.83120    1.000
    C60      C        0.79650    0.88060    0.79020    1.000
    H35      H        0.83620    0.82870    0.79820    1.000
    C61      C        0.82500    0.95490    0.75950    1.000
    H36      H        0.88610    0.95460    0.74700    1.000
    C62      C        0.76640    0.02960    0.74650    1.000
    H37      H        0.78440    0.08010    0.72330    1.000
    C63      C        0.67810    0.02800    0.76930    1.000
    H38      H        0.63860    0.08000    0.76250    1.000
    C64      C        0.11150    0.47930    0.30030    1.000
    C65      C        0.11340    0.44010    0.38520    1.000
    C66      C        0.20830    0.41880    0.45440    1.000
    H39      H        0.27110    0.42450    0.44520    1.000
    C67      C        0.21100    0.38950    0.53640    1.000
    H40      H        0.27570    0.37790    0.58290    1.000
    C68      C        0.11780    0.37700    0.54960    1.000
    C69      C        0.02160    0.39330    0.47790    1.000
    H41      H        0.95810    0.38240    0.48460    1.000
    C70      C        0.01980    0.42510    0.39810    1.000
    H42      H        0.95510    0.43690    0.35170    1.000
    C71      C        0.12160    0.34830    0.63900    1.000
    C72      C        0.15540    0.40420    0.99420    1.000
    C73      C        0.19350    0.34160    0.93280    1.000
    C74      C        0.16650    0.35620    0.83980    1.000
    H43      H        0.11590    0.39810    0.81230    1.000
    C75      C        0.21560    0.30760    0.78840    1.000
    C76      C        0.28520    0.24130    0.82860    1.000
    H44      H        0.31860    0.20930    0.79440    1.000
    C77      C        0.30620    0.22160    0.91950    1.000
    C78      C        0.26120    0.27390    0.97150    1.000
    H45      H        0.27670    0.26330    0.03300    1.000
    C79      C        0.37830    0.14520    0.95760    1.000
    C80      C        0.34130    0.67100    0.18390    1.000
    H46      H        0.28820    0.71280    0.16540    1.000
    C81      C        0.44480    0.70020    0.20500    1.000
    H47      H        0.46100    0.76010    0.19940    1.000
    C82      C        0.52410    0.63810    0.23450    1.000
    H48      H        0.59480    0.65570    0.25020    1.000
    C83      C        0.49550    0.55000    0.23990    1.000
    H49      H        0.54640    0.50630    0.25850    1.000
    C84      C        0.38960    0.52780    0.21710    1.000
    H50      H        0.37090    0.46840    0.22190    1.000
    N5       N        0.97050    0.16840    0.32300    1.000
    N6       N        0.64600    0.95760    0.80020    1.000
    N7       N        0.20690    0.32800    0.69940    1.000
    N8       N        0.31440    0.58570    0.18920    1.000
    O13      O        0.44530    0.05860    0.72480    1.000
    O14      O        0.31010    0.99310    0.74120    1.000
    O15      O        0.64150    0.09190    0.94050    1.000
    O16      O        0.60930    0.07290    0.06510    1.000
    O17      O        0.02480    0.38450    0.10590    1.000
    O18      O        0.88080    0.36050    0.97270    1.000
    O19      O        0.02910    0.51160    0.24730    1.000
    O20      O        0.19670    0.47870    0.28410    1.000
    O21      O        0.07080    0.44600    0.95660    1.000
    O22      O        0.21120    0.41600    0.07830    1.000
    O23      O        0.42370    0.11200    0.90640    1.000
    O24      O        0.38670    0.12020    0.03450    1.000
    H51      H        0.10600    0.22800    0.33600    1.000
    H52      H        0.04800    0.33900    0.63800    1.000
    Eu3      Eu       0.49632    0.98120    0.86543    1.000
    Eu4      Eu       0.11000    0.52991    0.12900    1.000
