# CIF file generated by openbabel 3.1.0, see https://openbabel.org
data_I
_chemical_name_common 'image0'
_cell_length_a 17.571
_cell_length_b 17.571
_cell_length_c 23.404
_cell_angle_alpha 90
_cell_angle_beta 90
_cell_angle_gamma 90
_space_group_name_H-M_alt 'P 1'
_space_group_name_Hall 'P 1'
loop_
    _symmetry_equiv_pos_as_xyz
    x,y,z
loop_
    _atom_site_label
    _atom_site_type_symbol
    _atom_site_fract_x
    _atom_site_fract_y
    _atom_site_fract_z
    _atom_site_occupancy
    N1       N        0.62010    0.72440    0.43760    1.000
    N2       N        0.38170    0.73870    0.50174    1.000
    C1       C        0.56500    0.69750    0.45610    1.000
    C2       C        0.50080    0.66170    0.47840    1.000
    C3       C        0.43710    0.70550    0.49040    1.000
    C4       C        0.50060    0.57940    0.48930    1.000
    C5       C        0.56350    0.53400    0.47720    1.000
    C6       C        0.43660    0.54310    0.51210    1.000
    C7       C        0.69700    0.78070    0.56580    1.000
    C8       C        0.69260    0.78290    0.62450    1.000
    C9       C        0.77940    0.69300    0.75040    1.000
    C10      C        0.77870    0.69600    0.80830    1.000
    C11      C        0.21720    0.80500    0.37220    1.000
    C12      C        0.21510    0.80750    0.31300    1.000
    H1       H        0.60750    0.55680    0.46090    1.000
    H2       H        0.39220    0.57220    0.52000    1.000
    H3       H        0.65700    0.80410    0.54500    1.000
    H4       H        0.65090    0.80650    0.64330    1.000
    H5       H        0.80080    0.65020    0.73150    1.000
    H6       H        0.80080    0.65430    0.82820    1.000
    H7       H        0.19340    0.84470    0.39310    1.000
    H8       H        0.19030    0.84840    0.29410    1.000
    N3       N        0.87990    0.77560    0.43760    1.000
    N4       N        0.11830    0.76130    0.50174    1.000
    C13      C        0.93500    0.80250    0.45610    1.000
    C14      C        0.99920    0.83830    0.47840    1.000
    C15      C        0.06290    0.79450    0.49040    1.000
    C16      C        0.99940    0.92060    0.48930    1.000
    C17      C        0.93650    0.96600    0.47720    1.000
    C18      C        0.06340    0.95690    0.51210    1.000
    C19      C        0.80300    0.71930    0.56580    1.000
    C20      C        0.80740    0.71710    0.62450    1.000
    C21      C        0.72060    0.80700    0.75040    1.000
    C22      C        0.72130    0.80400    0.80830    1.000
    C23      C        0.28280    0.69500    0.37220    1.000
    C24      C        0.28490    0.69250    0.31300    1.000
    H9       H        0.89250    0.94320    0.46090    1.000
    H10      H        0.10780    0.92780    0.52000    1.000
    H11      H        0.84300    0.69590    0.54500    1.000
    H12      H        0.84910    0.69350    0.64330    1.000
    H13      H        0.69920    0.84980    0.73150    1.000
    H14      H        0.69920    0.84570    0.82820    1.000
    H15      H        0.30660    0.65530    0.39310    1.000
    H16      H        0.30970    0.65160    0.29410    1.000
    N5       N        0.77560    0.62010    0.43760    1.000
    N6       N        0.76130    0.38170    0.50174    1.000
    C25      C        0.80250    0.56500    0.45610    1.000
    C26      C        0.83830    0.50080    0.47840    1.000
    C27      C        0.79450    0.43710    0.49040    1.000
    C28      C        0.92060    0.50060    0.48930    1.000
    C29      C        0.96600    0.56350    0.47720    1.000
    C30      C        0.95690    0.43660    0.51210    1.000
    C31      C        0.71930    0.69700    0.56580    1.000
    C32      C        0.71710    0.69260    0.62450    1.000
    C33      C        0.80700    0.77940    0.75040    1.000
    C34      C        0.80400    0.77870    0.80830    1.000
    C35      C        0.69500    0.21720    0.37220    1.000
    C36      C        0.69250    0.21510    0.31300    1.000
    H17      H        0.94320    0.60750    0.46090    1.000
    H18      H        0.92780    0.39220    0.52000    1.000
    H19      H        0.69590    0.65700    0.54500    1.000
    H20      H        0.69350    0.65090    0.64330    1.000
    H21      H        0.84980    0.80080    0.73150    1.000
    H22      H        0.84570    0.80080    0.82820    1.000
    H23      H        0.65530    0.19340    0.39310    1.000
    H24      H        0.65160    0.19030    0.29410    1.000
    N7       N        0.72440    0.87990    0.43760    1.000
    N8       N        0.73870    0.11830    0.50174    1.000
    C37      C        0.69750    0.93500    0.45610    1.000
    C38      C        0.66170    0.99920    0.47840    1.000
    C39      C        0.70550    0.06290    0.49040    1.000
    C40      C        0.57940    0.99940    0.48930    1.000
    C41      C        0.53400    0.93650    0.47720    1.000
    C42      C        0.54310    0.06340    0.51210    1.000
    C43      C        0.78070    0.80300    0.56580    1.000
    C44      C        0.78290    0.80740    0.62450    1.000
    C45      C        0.69300    0.72060    0.75040    1.000
    C46      C        0.69600    0.72130    0.80830    1.000
    C47      C        0.80500    0.28280    0.37220    1.000
    C48      C        0.80750    0.28490    0.31300    1.000
    H25      H        0.55680    0.89250    0.46090    1.000
    H26      H        0.57220    0.10780    0.52000    1.000
    H27      H        0.80410    0.84300    0.54500    1.000
    H28      H        0.80650    0.84910    0.64330    1.000
    H29      H        0.65020    0.69920    0.73150    1.000
    H30      H        0.65430    0.69920    0.82820    1.000
    H31      H        0.84470    0.30660    0.39310    1.000
    H32      H        0.84840    0.30970    0.29410    1.000
    N9       N        0.37990    0.22440    0.06240    1.000
    N10      N        0.61830    0.23870    0.99826    1.000
    C49      C        0.43500    0.19750    0.04390    1.000
    C50      C        0.49920    0.16170    0.02160    1.000
    C51      C        0.56290    0.20550    0.00960    1.000
    C52      C        0.49940    0.07940    0.01070    1.000
    C53      C        0.43650    0.03400    0.02280    1.000
    C54      C        0.56340    0.04310    0.98790    1.000
    C55      C        0.30300    0.28070    0.93420    1.000
    C56      C        0.30740    0.28290    0.87550    1.000
    C57      C        0.22060    0.19300    0.74960    1.000
    C58      C        0.22130    0.19600    0.69170    1.000
    C59      C        0.78280    0.30500    0.12780    1.000
    C60      C        0.78490    0.30750    0.18700    1.000
    H33      H        0.39250    0.05680    0.03910    1.000
    H34      H        0.60780    0.07220    0.98000    1.000
    H35      H        0.34300    0.30410    0.95500    1.000
    H36      H        0.34910    0.30650    0.85670    1.000
    H37      H        0.19920    0.15020    0.76850    1.000
    H38      H        0.19920    0.15430    0.67180    1.000
    H39      H        0.80660    0.34470    0.10690    1.000
    H40      H        0.80970    0.34840    0.20590    1.000
    N11      N        0.12010    0.27560    0.06240    1.000
    N12      N        0.88170    0.26130    0.99826    1.000
    C61      C        0.06500    0.30250    0.04390    1.000
    C62      C        0.00080    0.33830    0.02160    1.000
    C63      C        0.93710    0.29450    0.00960    1.000
    C64      C        0.00060    0.42060    0.01070    1.000
    C65      C        0.06350    0.46600    0.02280    1.000
    C66      C        0.93660    0.45690    0.98790    1.000
    C67      C        0.19700    0.21930    0.93420    1.000
    C68      C        0.19260    0.21710    0.87550    1.000
    C69      C        0.27940    0.30700    0.74960    1.000
    C70      C        0.27870    0.30400    0.69170    1.000
    C71      C        0.71720    0.19500    0.12780    1.000
    C72      C        0.71510    0.19250    0.18700    1.000
    H41      H        0.10750    0.44320    0.03910    1.000
    H42      H        0.89220    0.42780    0.98000    1.000
    H43      H        0.15700    0.19590    0.95500    1.000
    H44      H        0.15090    0.19350    0.85670    1.000
    H45      H        0.30080    0.34980    0.76850    1.000
    H46      H        0.30080    0.34570    0.67180    1.000
    H47      H        0.69340    0.15530    0.10690    1.000
    H48      H        0.69030    0.15160    0.20590    1.000
    N13      N        0.22440    0.12010    0.06240    1.000
    N14      N        0.23870    0.88170    0.99826    1.000
    C73      C        0.19750    0.06500    0.04390    1.000
    C74      C        0.16170    0.00080    0.02160    1.000
    C75      C        0.20550    0.93710    0.00960    1.000
    C76      C        0.07940    0.00060    0.01070    1.000
    C77      C        0.03400    0.06350    0.02280    1.000
    C78      C        0.04310    0.93660    0.98790    1.000
    C79      C        0.28070    0.19700    0.93420    1.000
    C80      C        0.28290    0.19260    0.87550    1.000
    C81      C        0.19300    0.27940    0.74960    1.000
    C82      C        0.19600    0.27870    0.69170    1.000
    C83      C        0.30500    0.71720    0.12780    1.000
    C84      C        0.30750    0.71510    0.18700    1.000
    H49      H        0.05680    0.10750    0.03910    1.000
    H50      H        0.07220    0.89220    0.98000    1.000
    H51      H        0.30410    0.15700    0.95500    1.000
    H52      H        0.30650    0.15090    0.85670    1.000
    H53      H        0.15020    0.30080    0.76850    1.000
    H54      H        0.15430    0.30080    0.67180    1.000
    H55      H        0.34470    0.69340    0.10690    1.000
    H56      H        0.34840    0.69030    0.20590    1.000
    N15      N        0.27560    0.37990    0.06240    1.000
    N16      N        0.26130    0.61830    0.99826    1.000
    C85      C        0.30250    0.43500    0.04390    1.000
    C86      C        0.33830    0.49920    0.02160    1.000
    C87      C        0.29450    0.56290    0.00960    1.000
    C88      C        0.42060    0.49940    0.01070    1.000
    C89      C        0.46600    0.43650    0.02280    1.000
    C90      C        0.45690    0.56340    0.98790    1.000
    C91      C        0.21930    0.30300    0.93420    1.000
    C92      C        0.21710    0.30740    0.87550    1.000
    C93      C        0.30700    0.22060    0.74960    1.000
    C94      C        0.30400    0.22130    0.69170    1.000
    C95      C        0.19500    0.78280    0.12780    1.000
    C96      C        0.19250    0.78490    0.18700    1.000
    H57      H        0.44320    0.39250    0.03910    1.000
    H58      H        0.42780    0.60780    0.98000    1.000
    H59      H        0.19590    0.34300    0.95500    1.000
    H60      H        0.19350    0.34910    0.85670    1.000
    H61      H        0.34980    0.19920    0.76850    1.000
    H62      H        0.34570    0.19920    0.67180    1.000
    H63      H        0.15530    0.80660    0.10690    1.000
    H64      H        0.15160    0.80970    0.20590    1.000
    N17      N        0.37990    0.27560    0.56240    1.000
    N18      N        0.61830    0.26130    0.49826    1.000
    C97      C        0.43500    0.30250    0.54390    1.000
    C98      C        0.49920    0.33830    0.52160    1.000
    C99      C        0.56290    0.29450    0.50960    1.000
    C100     C        0.49940    0.42060    0.51070    1.000
    C101     C        0.43650    0.46600    0.52280    1.000
    C102     C        0.56340    0.45690    0.48790    1.000
    C103     C        0.30300    0.21930    0.43420    1.000
    C104     C        0.30740    0.21710    0.37550    1.000
    C105     C        0.22060    0.30700    0.24960    1.000
    C106     C        0.22130    0.30400    0.19170    1.000
    C107     C        0.78280    0.19500    0.62780    1.000
    C108     C        0.78490    0.19250    0.68700    1.000
    H65      H        0.39250    0.44320    0.53910    1.000
    H66      H        0.60780    0.42780    0.48000    1.000
    H67      H        0.34300    0.19590    0.45500    1.000
    H68      H        0.34910    0.19350    0.35670    1.000
    H69      H        0.19920    0.34980    0.26850    1.000
    H70      H        0.19920    0.34570    0.17180    1.000
    H71      H        0.80660    0.15530    0.60690    1.000
    H72      H        0.80970    0.15160    0.70590    1.000
    N19      N        0.12010    0.22440    0.56240    1.000
    N20      N        0.88170    0.23870    0.49826    1.000
    C109     C        0.06500    0.19750    0.54390    1.000
    C110     C        0.00080    0.16170    0.52160    1.000
    C111     C        0.93710    0.20550    0.50960    1.000
    C112     C        0.00060    0.07940    0.51070    1.000
    C113     C        0.06350    0.03400    0.52280    1.000
    C114     C        0.93660    0.04310    0.48790    1.000
    C115     C        0.19700    0.28070    0.43420    1.000
    C116     C        0.19260    0.28290    0.37550    1.000
    C117     C        0.27940    0.19300    0.24960    1.000
    C118     C        0.27870    0.19600    0.19170    1.000
    C119     C        0.71720    0.30500    0.62780    1.000
    C120     C        0.71510    0.30750    0.68700    1.000
    H73      H        0.10750    0.05680    0.53910    1.000
    H74      H        0.89220    0.07220    0.48000    1.000
    H75      H        0.15700    0.30410    0.45500    1.000
    H76      H        0.15090    0.30650    0.35670    1.000
    H77      H        0.30080    0.15020    0.26850    1.000
    H78      H        0.30080    0.15430    0.17180    1.000
    H79      H        0.69340    0.34470    0.60690    1.000
    H80      H        0.69030    0.34840    0.70590    1.000
    N21      N        0.22440    0.37990    0.56240    1.000
    N22      N        0.23870    0.61830    0.49826    1.000
    C121     C        0.19750    0.43500    0.54390    1.000
    C122     C        0.16170    0.49920    0.52160    1.000
    C123     C        0.20550    0.56290    0.50960    1.000
    C124     C        0.07940    0.49940    0.51070    1.000
    C125     C        0.03400    0.43650    0.52280    1.000
    C126     C        0.04310    0.56340    0.48790    1.000
    C127     C        0.28070    0.30300    0.43420    1.000
    C128     C        0.28290    0.30740    0.37550    1.000
    C129     C        0.19300    0.22060    0.24960    1.000
    C130     C        0.19600    0.22130    0.19170    1.000
    C131     C        0.30500    0.78280    0.62780    1.000
    C132     C        0.30750    0.78490    0.68700    1.000
    H81      H        0.05680    0.39250    0.53910    1.000
    H82      H        0.07220    0.60780    0.48000    1.000
    H83      H        0.30410    0.34300    0.45500    1.000
    H84      H        0.30650    0.34910    0.35670    1.000
    H85      H        0.15020    0.19920    0.26850    1.000
    H86      H        0.15430    0.19920    0.17180    1.000
    H87      H        0.34470    0.80660    0.60690    1.000
    H88      H        0.34840    0.80970    0.70590    1.000
    N23      N        0.27560    0.12010    0.56240    1.000
    N24      N        0.26130    0.88170    0.49826    1.000
    C133     C        0.30250    0.06500    0.54390    1.000
    C134     C        0.33830    0.00080    0.52160    1.000
    C135     C        0.29450    0.93710    0.50960    1.000
    C136     C        0.42060    0.00060    0.51070    1.000
    C137     C        0.46600    0.06350    0.52280    1.000
    C138     C        0.45690    0.93660    0.48790    1.000
    C139     C        0.21930    0.19700    0.43420    1.000
    C140     C        0.21710    0.19260    0.37550    1.000
    C141     C        0.30700    0.27940    0.24960    1.000
    C142     C        0.30400    0.27870    0.19170    1.000
    C143     C        0.19500    0.71720    0.62780    1.000
    C144     C        0.19250    0.71510    0.68700    1.000
    H89      H        0.44320    0.10750    0.53910    1.000
    H90      H        0.42780    0.89220    0.48000    1.000
    H91      H        0.19590    0.15700    0.45500    1.000
    H92      H        0.19350    0.15090    0.35670    1.000
    H93      H        0.34980    0.30080    0.26850    1.000
    H94      H        0.34570    0.30080    0.17180    1.000
    H95      H        0.15530    0.69340    0.60690    1.000
    H96      H        0.15160    0.69030    0.70590    1.000
    N25      N        0.62010    0.77560    0.93760    1.000
    N26      N        0.38170    0.76130    0.00174    1.000
    C145     C        0.56500    0.80250    0.95610    1.000
    C146     C        0.50080    0.83830    0.97840    1.000
    C147     C        0.43710    0.79450    0.99040    1.000
    C148     C        0.50060    0.92060    0.98930    1.000
    C149     C        0.56350    0.96600    0.97720    1.000
    C150     C        0.43660    0.95690    0.01210    1.000
    C151     C        0.69700    0.71930    0.06580    1.000
    C152     C        0.69260    0.71710    0.12450    1.000
    C153     C        0.77940    0.80700    0.25040    1.000
    C154     C        0.77870    0.80400    0.30830    1.000
    C155     C        0.21720    0.69500    0.87220    1.000
    C156     C        0.21510    0.69250    0.81300    1.000
    H97      H        0.60750    0.94320    0.96090    1.000
    H98      H        0.39220    0.92780    0.02000    1.000
    H99      H        0.65700    0.69590    0.04500    1.000
    H100     H        0.65090    0.69350    0.14330    1.000
    H101     H        0.80080    0.84980    0.23150    1.000
    H102     H        0.80080    0.84570    0.32820    1.000
    H103     H        0.19340    0.65530    0.89310    1.000
    H104     H        0.19030    0.65160    0.79410    1.000
    N27      N        0.87990    0.72440    0.93760    1.000
    N28      N        0.11830    0.73870    0.00174    1.000
    C157     C        0.93500    0.69750    0.95610    1.000
    C158     C        0.99920    0.66170    0.97840    1.000
    C159     C        0.06290    0.70550    0.99040    1.000
    C160     C        0.99940    0.57940    0.98930    1.000
    C161     C        0.93650    0.53400    0.97720    1.000
    C162     C        0.06340    0.54310    0.01210    1.000
    C163     C        0.80300    0.78070    0.06580    1.000
    C164     C        0.80740    0.78290    0.12450    1.000
    C165     C        0.72060    0.69300    0.25040    1.000
    C166     C        0.72130    0.69600    0.30830    1.000
    C167     C        0.28280    0.80500    0.87220    1.000
    C168     C        0.28490    0.80750    0.81300    1.000
    H105     H        0.89250    0.55680    0.96090    1.000
    H106     H        0.10780    0.57220    0.02000    1.000
    H107     H        0.84300    0.80410    0.04500    1.000
    H108     H        0.84910    0.80650    0.14330    1.000
    H109     H        0.69920    0.65020    0.23150    1.000
    H110     H        0.69920    0.65430    0.32820    1.000
    H111     H        0.30660    0.84470    0.89310    1.000
    H112     H        0.30970    0.84840    0.79410    1.000
    N29      N        0.77560    0.87990    0.93760    1.000
    N30      N        0.76130    0.11830    0.00174    1.000
    C169     C        0.80250    0.93500    0.95610    1.000
    C170     C        0.83830    0.99920    0.97840    1.000
    C171     C        0.79450    0.06290    0.99040    1.000
    C172     C        0.92060    0.99940    0.98930    1.000
    C173     C        0.96600    0.93650    0.97720    1.000
    C174     C        0.95690    0.06340    0.01210    1.000
    C175     C        0.71930    0.80300    0.06580    1.000
    C176     C        0.71710    0.80740    0.12450    1.000
    C177     C        0.80700    0.72060    0.25040    1.000
    C178     C        0.80400    0.72130    0.30830    1.000
    C179     C        0.69500    0.28280    0.87220    1.000
    C180     C        0.69250    0.28490    0.81300    1.000
    H113     H        0.94320    0.89250    0.96090    1.000
    H114     H        0.92780    0.10780    0.02000    1.000
    H115     H        0.69590    0.84300    0.04500    1.000
    H116     H        0.69350    0.84910    0.14330    1.000
    H117     H        0.84980    0.69920    0.23150    1.000
    H118     H        0.84570    0.69920    0.32820    1.000
    H119     H        0.65530    0.30660    0.89310    1.000
    H120     H        0.65160    0.30970    0.79410    1.000
    N31      N        0.72440    0.62010    0.93760    1.000
    N32      N        0.73870    0.38170    0.00174    1.000
    C181     C        0.69750    0.56500    0.95610    1.000
    C182     C        0.66170    0.50080    0.97840    1.000
    C183     C        0.70550    0.43710    0.99040    1.000
    C184     C        0.57940    0.50060    0.98930    1.000
    C185     C        0.53400    0.56350    0.97720    1.000
    C186     C        0.54310    0.43660    0.01210    1.000
    C187     C        0.78070    0.69700    0.06580    1.000
    C188     C        0.78290    0.69260    0.12450    1.000
    C189     C        0.69300    0.77940    0.25040    1.000
    C190     C        0.69600    0.77870    0.30830    1.000
    C191     C        0.80500    0.21720    0.87220    1.000
    C192     C        0.80750    0.21510    0.81300    1.000
    H121     H        0.55680    0.60750    0.96090    1.000
    H122     H        0.57220    0.39220    0.02000    1.000
    H123     H        0.80410    0.65700    0.04500    1.000
    H124     H        0.80650    0.65090    0.14330    1.000
    H125     H        0.65020    0.80080    0.23150    1.000
    H126     H        0.65430    0.80080    0.32820    1.000
    H127     H        0.84470    0.19340    0.89310    1.000
    H128     H        0.84840    0.19030    0.79410    1.000
    Cd1      Cd       0.75000    0.75000    0.43627    1.000
    N33      N        0.75000    0.75000    0.53680    1.000
    N34      N        0.75000    0.75000    0.83900    1.000
    C193     C        0.75000    0.75000    0.65530    1.000
    C194     C        0.75000    0.75000    0.71990    1.000
    Cd2      Cd       0.25000    0.25000    0.06373    1.000
    N35      N        0.25000    0.25000    0.96320    1.000
    N36      N        0.25000    0.25000    0.66100    1.000
    C195     C        0.25000    0.25000    0.84470    1.000
    C196     C        0.25000    0.25000    0.78010    1.000
    Cd3      Cd       0.25000    0.25000    0.56373    1.000
    N37      N        0.25000    0.25000    0.46320    1.000
    N38      N        0.25000    0.25000    0.16100    1.000
    C197     C        0.25000    0.25000    0.34470    1.000
    C198     C        0.25000    0.25000    0.28010    1.000
    Cd4      Cd       0.75000    0.75000    0.93627    1.000
    N39      N        0.75000    0.75000    0.03680    1.000
    N40      N        0.75000    0.75000    0.33900    1.000
    C199     C        0.75000    0.75000    0.15530    1.000
    C200     C        0.75000    0.75000    0.21990    1.000
    Cd5      Cd       0.25000    0.75000    0.50000    1.000
    Cd6      Cd       0.75000    0.25000    0.50000    1.000
    Cd7      Cd       0.75000    0.25000    0.00000    1.000
    Cd8      Cd       0.25000    0.75000    0.00000    1.000
    N41      N        0.25000    0.75000    0.40070    1.000
    C201     C        0.25000    0.75000    0.28140    1.000
    N42      N        0.75000    0.25000    0.40070    1.000
    C202     C        0.75000    0.25000    0.28140    1.000
    N43      N        0.75000    0.25000    0.09930    1.000
    C203     C        0.75000    0.25000    0.21860    1.000
    N44      N        0.25000    0.75000    0.09930    1.000
    C204     C        0.25000    0.75000    0.21860    1.000
    N45      N        0.75000    0.25000    0.59930    1.000
    C205     C        0.75000    0.25000    0.71860    1.000
    N46      N        0.25000    0.75000    0.59930    1.000
    C206     C        0.25000    0.75000    0.71860    1.000
    N47      N        0.25000    0.75000    0.90070    1.000
    C207     C        0.25000    0.75000    0.78140    1.000
    N48      N        0.75000    0.25000    0.90070    1.000
    C208     C        0.75000    0.25000    0.78140    1.000
