data_functionalizedCrystal
_audit_creation_method	'EQeq! by Chris Wilmer'
_symmetry_space_group_name_H-M	'P1'
_symmetry_Int_Tables_number	1
_symmetry_cell_setting	triclinic
loop_
_symmetry_equiv_pos_as_xyz
  x,y,z
_cell_length_a	15.707
_cell_length_b	15.707
_cell_length_c	7.204
_cell_angle_alpha	90
_cell_angle_beta	90
_cell_angle_gamma	120
loop_
_atom_site_label
_atom_site_type_symbol
_atom_site_fract_x
_atom_site_fract_y
_atom_site_fract_z
_atom_site_charge
Mof_Ag	Ag	0.52846	0.26432	0.99999	0.413
Mof_N 	N 	0.515	0.4039	0.3107	-0.151
Mof_N 	N 	0.4042	0.5162	0.3119	-0.15
Mof_C 	C 	0.5221	0.3523	0.2071	-0.106
Mof_C 	C 	0.3531	0.5229	0.2043	-0.11
Mof_N 	N 	0.3714	0.373	0.6258	-0.166
Mof_C 	C 	0.3655	0.2833	0.6629	0.022
Mof_C 	C 	0.279	0.2057	0.733	-0.023
Mof_C 	C 	0.1985	0.2178	0.767	0.014
Mof_C 	C 	0.2045	0.3075	0.73	-0.062
Mof_C 	C 	0.2909	0.3851	0.6592	0.029
Mof_C 	C 	0.107	0.247	0.755	0.073
Mof_N 	N 	0.0185	0.223	0.778	-0.127
Mof_Ag	Ag	0.73568	0.26414	0.99999	0.417
Mof_N 	N 	0.5961	0.1111	0.3107	-0.152
Mof_N 	N 	0.4838	0.888	0.3119	-0.14
Mof_C 	C 	0.6477	0.1698	0.2071	-0.108
Mof_C 	C 	0.4771	0.8302	0.2043	-0.109
Mof_N 	N 	0.627	0.9984	0.6258	-0.146
Mof_C 	C 	0.7167	0.0822	0.6629	0.01
Mof_C 	C 	0.7943	0.0733	0.733	-0.043
Mof_C 	C 	0.7822	0.9807	0.767	0.062
Mof_C 	C 	0.6925	0.897	0.73	-0.074
Mof_C 	C 	0.6149	0.9058	0.6592	0.04
Mof_C 	C 	0.753	0.86	0.755	0.086
Mof_N 	N 	0.777	0.7955	0.778	-0.112
Mof_Ag	Ag	0.73586	0.47154	0.99999	0.421
Mof_N 	N 	0.8889	0.485	0.3107	-0.141
Mof_N 	N 	0.112	0.5958	0.3119	-0.151
Mof_C 	C 	0.8302	0.4779	0.2071	-0.104
Mof_C 	C 	0.1698	0.6469	0.2043	-0.115
Mof_N 	N 	0.0016	0.6286	0.6258	-0.179
Mof_C 	C 	0.9178	0.6345	0.6629	0.036
Mof_C 	C 	0.9267	0.721	0.733	0.009
Mof_C 	C 	0.0193	0.8015	0.767	-0.011
Mof_C 	C 	0.103	0.7955	0.73	-0.059
Mof_C 	C 	0.0942	0.7091	0.6592	0.024
Mof_C 	C 	0.14	0.893	0.755	0.085
Mof_N 	N 	0.2045	0.9815	0.778	-0.105
Mof_Ag	Ag	0.47154	0.73568	1e-05	0.422
Mof_N 	N 	0.485	0.5961	0.6893	-0.151
Mof_N 	N 	0.5958	0.4838	0.6881	-0.15
Mof_C 	C 	0.4779	0.6477	0.7929	-0.107
Mof_C 	C 	0.6469	0.4771	0.7957	-0.111
Mof_N 	N 	0.6286	0.627	0.3742	-0.167
Mof_C 	C 	0.6345	0.7167	0.3371	0.022
Mof_C 	C 	0.721	0.7943	0.267	-0.013
Mof_C 	C 	0.8015	0.7822	0.233	0.027
Mof_C 	C 	0.7955	0.6925	0.27	-0.067
Mof_C 	C 	0.7091	0.6149	0.3408	0.031
Mof_C 	C 	0.893	0.753	0.245	0.089
Mof_N 	N 	0.9815	0.777	0.222	-0.102
Mof_Ag	Ag	0.26432	0.73586	1e-05	0.416
Mof_N 	N 	0.4039	0.8889	0.6893	-0.141
Mof_N 	N 	0.5162	0.112	0.6881	-0.151
Mof_C 	C 	0.3523	0.8302	0.7929	-0.103
Mof_C 	C 	0.5229	0.1698	0.7957	-0.115
Mof_N 	N 	0.373	0.0016	0.3742	-0.178
Mof_C 	C 	0.2833	0.9178	0.3371	0.036
Mof_C 	C 	0.2057	0.9267	0.267	0.002
Mof_C 	C 	0.2178	0.0193	0.233	-0.017
Mof_C 	C 	0.3075	0.103	0.27	-0.057
Mof_C 	C 	0.3851	0.0942	0.3408	0.023
Mof_C 	C 	0.247	0.14	0.245	0.076
Mof_N 	N 	0.223	0.2045	0.222	-0.118
Mof_Ag	Ag	0.26414	0.52846	1e-05	0.414
Mof_N 	N 	0.1111	0.515	0.6893	-0.152
Mof_N 	N 	0.888	0.4042	0.6881	-0.14
Mof_C 	C 	0.1698	0.5221	0.7929	-0.109
Mof_C 	C 	0.8302	0.3531	0.7957	-0.108
Mof_N 	N 	0.9984	0.3714	0.3742	-0.146
Mof_C 	C 	0.0822	0.3655	0.3371	0.01
Mof_C 	C 	0.0733	0.279	0.267	-0.047
Mof_C 	C 	0.9807	0.1985	0.233	0.055
Mof_C 	C 	0.897	0.2045	0.27	-0.071
Mof_C 	C 	0.9058	0.2909	0.3408	0.039
Mof_C 	C 	0.86	0.107	0.245	0.079
Mof_N 	N 	0.7955	0.0185	0.222	-0.124
Mof_Fe	Fe	0.5	0.5	0.5	0.627
Mof_Fe	Fe	0.5	-4.10015e-33	0.5	0.59
Mof_Fe	Fe	-2.80842e-17	0.5	0.5	0.59
_end
