# CIF file generated by openbabel 3.1.0, see https://openbabel.org
data_I
_chemical_name_common 'XOVPIH_clean'
_cell_length_a 9.2275
_cell_length_b 9.771
_cell_length_c 10.699
_cell_angle_alpha 67.81
_cell_angle_beta 84.49
_cell_angle_gamma 61.84
_space_group_name_H-M_alt 'P 1'
_space_group_name_Hall 'P 1'
loop_
    _symmetry_equiv_pos_as_xyz
    x,y,z
loop_
    _atom_site_label
    _atom_site_type_symbol
    _atom_site_fract_x
    _atom_site_fract_y
    _atom_site_fract_z
    _atom_site_occupancy
    Ce1      Ce       0.72285    0.04384    0.98314    1.000
    Ce2      Ce       0.27715    0.95616    0.01686    1.000
    H1       H        0.10120    0.44900    0.13300    1.000
    H2       H        0.06630    0.46070    0.27580    1.000
    H3       H        0.88010    0.39700    0.13020    1.000
    H4       H        0.82810    0.42600    0.26590    1.000
    H5       H        0.13200    0.16190    0.24810    1.000
    H6       H        0.07360    0.18890    0.38320    1.000
    H7       H        0.85970    0.12690    0.37030    1.000
    H8       H        0.03330    0.97500    0.37920    1.000
    H9       H        0.32980    0.09670    0.65120    1.000
    H10      H        0.38330    0.23110    0.56060    1.000
    H11      H        0.58700    0.88120    0.62770    1.000
    H12      H        0.63280    0.01900    0.53150    1.000
    H13      H        0.89880    0.55100    0.86700    1.000
    H14      H        0.93370    0.53930    0.72420    1.000
    H15      H        0.11990    0.60300    0.86980    1.000
    H16      H        0.17190    0.57400    0.73410    1.000
    H17      H        0.86800    0.83810    0.75190    1.000
    H18      H        0.92640    0.81110    0.61680    1.000
    H19      H        0.14030    0.87310    0.62970    1.000
    H20      H        0.96670    0.02500    0.62080    1.000
    H21      H        0.67020    0.90330    0.34880    1.000
    H22      H        0.61670    0.76890    0.43940    1.000
    H23      H        0.41300    0.11880    0.37230    1.000
    H24      H        0.36720    0.98100    0.46850    1.000
    C1       C        0.90600    0.67270    0.12270    1.000
    C2       C        0.01430    0.48510    0.19000    1.000
    C3       C        0.92160    0.38420    0.21600    1.000
    C4       C        0.03580    0.20040    0.29650    1.000
    C5       C        0.95580    0.08860    0.32180    1.000
    C6       C        0.90340    0.08670    0.19310    1.000
    C7       C        0.51060    0.09450    0.74890    1.000
    C8       C        0.42380    0.11670    0.62570    1.000
    C9       C        0.54170    0.99480    0.56040    1.000
    C10      C        0.09400    0.32730    0.87730    1.000
    C11      C        0.98570    0.51490    0.81000    1.000
    C12      C        0.07840    0.61580    0.78400    1.000
    C13      C        0.96420    0.79960    0.70350    1.000
    C14      C        0.04420    0.91140    0.67820    1.000
    C15      C        0.09660    0.91330    0.80690    1.000
    C16      C        0.48940    0.90550    0.25110    1.000
    C17      C        0.57620    0.88330    0.37430    1.000
    C18      C        0.45830    0.00520    0.43960    1.000
    O1       O        0.92150    0.76770    0.17120    1.000
    O2       O        0.80710    0.73450    0.02150    1.000
    O3       O        0.75710    0.11960    0.17260    1.000
    O4       O        0.00820    0.05000    0.11100    1.000
    O5       O        0.62580    0.13390    0.73510    1.000
    O6       O        0.47480    0.03200    0.86600    1.000
    O7       O        0.07850    0.23230    0.82880    1.000
    O8       O        0.19290    0.26550    0.97850    1.000
    O9       O        0.24290    0.88040    0.82740    1.000
    O10      O        0.99180    0.95000    0.88900    1.000
    O11      O        0.37420    0.86610    0.26490    1.000
    O12      O        0.52520    0.96800    0.13400    1.000
