data_functionalizedCrystal
_audit_creation_method	'EQeq! by Chris Wilmer'
_symmetry_space_group_name_H-M	'P1'
_symmetry_Int_Tables_number	1
_symmetry_cell_setting	triclinic
loop_
_symmetry_equiv_pos_as_xyz
  x,y,z
_cell_length_a	47.515
_cell_length_b	47.515
_cell_length_c	47.515
_cell_angle_alpha	90
_cell_angle_beta	90
_cell_angle_gamma	90
loop_
_atom_site_label
_atom_site_type_symbol
_atom_site_fract_x
_atom_site_fract_y
_atom_site_fract_z
_atom_site_charge
Mof_C 	C 	0.96136	0.72214	0.22495	0.418
Mof_O 	O 	0.9705	0.71097	0.247	-0.451
Mof_O 	O 	0.9697	0.74444	0.21412	-0.454
Mof_C 	C 	0.93743	0.70714	0.21072	-0.207
Mof_C 	C 	0.91705	0.69251	0.22619	0.165
Mof_C 	C 	0.89468	0.68021	0.21312	-0.202
Mof_H 	H 	0.8813	0.6708	0.2238	0.088
Mof_C 	C 	0.89161	0.68151	0.18376	0.104
Mof_C 	C 	0.91178	0.69613	0.16837	-0.211
Mof_H 	H 	0.9101	0.6972	0.1489	0.118
Mof_C 	C 	0.93416	0.70901	0.18129	0.177
Mof_C 	C 	0.85374	0.64487	0.18096	-0.076
Mof_H 	H 	0.8613	0.6366	0.197	0.052
Mof_C 	C 	0.86654	0.66874	0.16971	-0.004
Mof_N 	N 	0.91506	0.68904	0.25857	-0.114
Mof_C 	C 	0.9279	0.6665	0.2714	0.35
Mof_O 	O 	0.9368	0.6456	0.2605	-0.26
Mof_O 	O 	0.93125	0.6719	0.29856	-0.294
Mof_C 	C 	0.9232	0.7017	0.305	0.263
Mof_H 	H 	0.9106	0.7025	0.321	-0.056
Mof_H 	H 	0.9398	0.7129	0.309	-0.019
Mof_C 	C 	0.90896	0.71168	0.27898	-0.503
Mof_H 	H 	0.9179	0.7292	0.2726	0.193
Mof_C 	C 	0.87885	0.7163	0.2821	1.058
Mof_H 	H 	0.872	0.7221	0.2635	-0.3
Mof_C 	C 	0.8618	0.6913	0.2902	-1.57
Mof_H 	H 	0.8669	0.6755	0.2786	0.487
Mof_H 	H 	0.8422	0.6954	0.2876	0.454
Mof_H 	H 	0.8652	0.6868	0.3096	0.479
Mof_C 	C 	0.8721	0.7408	0.3022	-1.533
Mof_H 	H 	0.8521	0.7436	0.3029	0.459
Mof_H 	H 	0.881	0.7576	0.2955	0.493
Mof_H 	H 	0.879	0.7364	0.3207	0.481
Mof_N 	N 	0.95768	0.7188	0.15922	-0.176
Mof_C 	C 	0.9529	0.7418	0.1436	0.392
Mof_O 	O 	0.9321	0.7545	0.1418	-0.29
Mof_O 	O 	0.9763	0.7517	0.1318	-0.243
Mof_C 	C 	0.998	0.7369	0.1427	0.027
Mof_H 	H 	0.0086	0.7489	0.1554	0.065
Mof_H 	H 	0.0105	0.7313	0.1276	0.056
Mof_C 	C 	0.988	0.7101	0.1591	0.005
Mof_H 	H 	0.995	0.7118	0.1784	0.05
Mof_O 	O 	0.00268	0.69561	0.29806	-0.434
Mof_N 	N 	0.00454	0.66666	0.34152	-0.13
Mof_C 	C 	0.00454	0.69546	0.32302	1.016
Mof_H 	H 	0.0017	0.6715	0.2961	-0.546
Mof_C 	C 	0.00842	0.67604	0.37123	-0.094
Mof_H 	H 	0.9942	0.6701	0.3846	0.084
Mof_H 	H 	0.0148	0.6953	0.374	0.084
Mof_C 	C 	0.96136	0.22214	0.72495	0.418
Mof_O 	O 	0.9705	0.21097	0.747	-0.451
Mof_O 	O 	0.9697	0.24444	0.71412	-0.454
Mof_C 	C 	0.93743	0.20714	0.71072	-0.207
Mof_C 	C 	0.91705	0.19251	0.72619	0.165
Mof_C 	C 	0.89468	0.18021	0.71312	-0.202
Mof_H 	H 	0.8813	0.1708	0.7238	0.088
Mof_C 	C 	0.89161	0.18151	0.68376	0.104
Mof_C 	C 	0.91178	0.19613	0.66837	-0.211
Mof_H 	H 	0.9101	0.1972	0.6489	0.118
Mof_C 	C 	0.93416	0.20901	0.68129	0.177
Mof_C 	C 	0.85374	0.14487	0.68096	-0.076
Mof_H 	H 	0.8613	0.1366	0.697	0.052
Mof_C 	C 	0.86654	0.16874	0.66971	-0.004
Mof_N 	N 	0.91506	0.18904	0.75857	-0.114
Mof_C 	C 	0.9279	0.1665	0.7714	0.35
Mof_O 	O 	0.9368	0.1456	0.7605	-0.26
Mof_O 	O 	0.93125	0.1719	0.79856	-0.294
Mof_C 	C 	0.9232	0.2017	0.805	0.263
Mof_H 	H 	0.9106	0.2025	0.821	-0.056
Mof_H 	H 	0.9398	0.2129	0.809	-0.019
Mof_C 	C 	0.90896	0.21168	0.77898	-0.503
Mof_H 	H 	0.9179	0.2292	0.7726	0.193
Mof_C 	C 	0.87885	0.2163	0.7821	1.058
Mof_H 	H 	0.872	0.2221	0.7635	-0.3
Mof_C 	C 	0.8618	0.1913	0.7902	-1.57
Mof_H 	H 	0.8669	0.1755	0.7786	0.487
Mof_H 	H 	0.8422	0.1954	0.7876	0.454
Mof_H 	H 	0.8652	0.1868	0.8096	0.479
Mof_C 	C 	0.8721	0.2408	0.8022	-1.533
Mof_H 	H 	0.8521	0.2436	0.8029	0.459
Mof_H 	H 	0.881	0.2576	0.7955	0.493
Mof_H 	H 	0.879	0.2364	0.8207	0.481
Mof_N 	N 	0.95768	0.2188	0.65922	-0.176
Mof_C 	C 	0.9529	0.2418	0.6436	0.392
Mof_O 	O 	0.9321	0.2545	0.6418	-0.29
Mof_O 	O 	0.9763	0.2517	0.6318	-0.243
Mof_C 	C 	0.998	0.2369	0.6427	0.027
Mof_H 	H 	0.0086	0.2489	0.6554	0.065
Mof_H 	H 	0.0105	0.2313	0.6276	0.056
Mof_C 	C 	0.988	0.2101	0.6591	0.005
Mof_H 	H 	0.995	0.2118	0.6784	0.05
Mof_O 	O 	0.00268	0.19561	0.79806	-0.434
Mof_N 	N 	0.00454	0.16666	0.84152	-0.13
Mof_C 	C 	0.00454	0.19546	0.82302	1.016
Mof_H 	H 	0.0017	0.1715	0.7961	-0.546
Mof_C 	C 	0.00842	0.17604	0.87123	-0.094
Mof_H 	H 	0.9942	0.1701	0.8846	0.084
Mof_H 	H 	0.0148	0.1953	0.874	0.084
Mof_C 	C 	0.46136	0.72214	0.72495	0.418
Mof_O 	O 	0.4705	0.71097	0.747	-0.451
Mof_O 	O 	0.4697	0.74444	0.71412	-0.455
Mof_C 	C 	0.43743	0.70714	0.71072	-0.208
Mof_C 	C 	0.41705	0.69251	0.72619	0.165
Mof_C 	C 	0.39468	0.68021	0.71312	-0.202
Mof_H 	H 	0.3813	0.6708	0.7238	0.088
Mof_C 	C 	0.39161	0.68151	0.68376	0.104
Mof_C 	C 	0.41178	0.69613	0.66837	-0.211
Mof_H 	H 	0.4101	0.6972	0.6489	0.118
Mof_C 	C 	0.43416	0.70901	0.68129	0.177
Mof_C 	C 	0.35374	0.64487	0.68096	-0.076
Mof_H 	H 	0.3613	0.6366	0.697	0.052
Mof_C 	C 	0.36654	0.66874	0.66971	-0.004
Mof_N 	N 	0.41506	0.68904	0.75857	-0.114
Mof_C 	C 	0.4279	0.6665	0.7714	0.35
Mof_O 	O 	0.4368	0.6456	0.7605	-0.26
Mof_O 	O 	0.43125	0.6719	0.79856	-0.294
Mof_C 	C 	0.4232	0.7017	0.805	0.263
Mof_H 	H 	0.4106	0.7025	0.821	-0.056
Mof_H 	H 	0.4398	0.7129	0.809	-0.019
Mof_C 	C 	0.40896	0.71168	0.77898	-0.504
Mof_H 	H 	0.4179	0.7292	0.7726	0.193
Mof_C 	C 	0.37885	0.7163	0.7821	1.058
Mof_H 	H 	0.372	0.7221	0.7635	-0.301
Mof_C 	C 	0.3618	0.6913	0.7902	-1.57
Mof_H 	H 	0.3669	0.6755	0.7786	0.487
Mof_H 	H 	0.3422	0.6954	0.7876	0.454
Mof_H 	H 	0.3652	0.6868	0.8096	0.479
Mof_C 	C 	0.3721	0.7408	0.8022	-1.533
Mof_H 	H 	0.3521	0.7436	0.8029	0.459
Mof_H 	H 	0.381	0.7576	0.7955	0.493
Mof_H 	H 	0.379	0.7364	0.8207	0.481
Mof_N 	N 	0.45768	0.7188	0.65922	-0.177
Mof_C 	C 	0.4529	0.7418	0.6436	0.392
Mof_O 	O 	0.4321	0.7545	0.6418	-0.29
Mof_O 	O 	0.4763	0.7517	0.6318	-0.242
Mof_C 	C 	0.498	0.7369	0.6427	0.019
Mof_H 	H 	0.5086	0.7489	0.6554	0.068
Mof_H 	H 	0.5105	0.7313	0.6276	0.059
Mof_C 	C 	0.488	0.7101	0.6591	0.006
Mof_H 	H 	0.495	0.7118	0.6784	0.049
Mof_O 	O 	0.50268	0.69561	0.79806	-0.446
Mof_N 	N 	0.50454	0.66666	0.84152	-0.126
Mof_C 	C 	0.50454	0.69546	0.82302	1.005
Mof_H 	H 	0.5017	0.6715	0.7961	-0.551
Mof_C 	C 	0.50842	0.67604	0.87123	-0.091
Mof_H 	H 	0.4942	0.6701	0.8846	0.082
Mof_H 	H 	0.5148	0.6953	0.874	0.083
Mof_C 	C 	0.46136	0.22214	0.22495	0.418
Mof_O 	O 	0.4705	0.21097	0.247	-0.451
Mof_O 	O 	0.4697	0.24444	0.21412	-0.455
Mof_C 	C 	0.43743	0.20714	0.21072	-0.208
Mof_C 	C 	0.41705	0.19251	0.22619	0.165
Mof_C 	C 	0.39468	0.18021	0.21312	-0.202
Mof_H 	H 	0.3813	0.1708	0.2238	0.088
Mof_C 	C 	0.39161	0.18151	0.18376	0.104
Mof_C 	C 	0.41178	0.19613	0.16837	-0.211
Mof_H 	H 	0.4101	0.1972	0.1489	0.118
Mof_C 	C 	0.43416	0.20901	0.18129	0.177
Mof_C 	C 	0.35374	0.14487	0.18096	-0.076
Mof_H 	H 	0.3613	0.1366	0.197	0.052
Mof_C 	C 	0.36654	0.16874	0.16971	-0.004
Mof_N 	N 	0.41506	0.18904	0.25857	-0.114
Mof_C 	C 	0.4279	0.1665	0.2714	0.35
Mof_O 	O 	0.4368	0.1456	0.2605	-0.26
Mof_O 	O 	0.43125	0.1719	0.29856	-0.294
Mof_C 	C 	0.4232	0.2017	0.305	0.263
Mof_H 	H 	0.4106	0.2025	0.321	-0.056
Mof_H 	H 	0.4398	0.2129	0.309	-0.019
Mof_C 	C 	0.40896	0.21168	0.27898	-0.504
Mof_H 	H 	0.4179	0.2292	0.2726	0.193
Mof_C 	C 	0.37885	0.2163	0.2821	1.058
Mof_H 	H 	0.372	0.2221	0.2635	-0.301
Mof_C 	C 	0.3618	0.1913	0.2902	-1.57
Mof_H 	H 	0.3669	0.1755	0.2786	0.487
Mof_H 	H 	0.3422	0.1954	0.2876	0.454
Mof_H 	H 	0.3652	0.1868	0.3096	0.479
Mof_C 	C 	0.3721	0.2408	0.3022	-1.533
Mof_H 	H 	0.3521	0.2436	0.3029	0.459
Mof_H 	H 	0.381	0.2576	0.2955	0.493
Mof_H 	H 	0.379	0.2364	0.3207	0.481
Mof_N 	N 	0.45768	0.2188	0.15922	-0.177
Mof_C 	C 	0.4529	0.2418	0.1436	0.392
Mof_O 	O 	0.4321	0.2545	0.1418	-0.29
Mof_O 	O 	0.4763	0.2517	0.1318	-0.242
Mof_C 	C 	0.498	0.2369	0.1427	0.019
Mof_H 	H 	0.5086	0.2489	0.1554	0.068
Mof_H 	H 	0.5105	0.2313	0.1276	0.059
Mof_C 	C 	0.488	0.2101	0.1591	0.006
Mof_H 	H 	0.495	0.2118	0.1784	0.049
Mof_O 	O 	0.50268	0.19561	0.29806	-0.446
Mof_N 	N 	0.50454	0.16666	0.34152	-0.126
Mof_C 	C 	0.50454	0.19546	0.32302	1.005
Mof_H 	H 	0.5017	0.1715	0.2961	-0.551
Mof_C 	C 	0.50842	0.17604	0.37123	-0.091
Mof_H 	H 	0.4942	0.1701	0.3846	0.082
Mof_H 	H 	0.5148	0.1953	0.374	0.083
Mof_C 	C 	0.03864	0.27786	0.22495	0.418
Mof_O 	O 	0.0295	0.28903	0.247	-0.452
Mof_O 	O 	0.0303	0.25556	0.21412	-0.455
Mof_C 	C 	0.06257	0.29286	0.21072	-0.208
Mof_C 	C 	0.08295	0.30749	0.22619	0.165
Mof_C 	C 	0.10532	0.31979	0.21312	-0.202
Mof_H 	H 	0.1187	0.3292	0.2238	0.088
Mof_C 	C 	0.10839	0.31849	0.18376	0.104
Mof_C 	C 	0.08822	0.30387	0.16837	-0.211
Mof_H 	H 	0.0899	0.3028	0.1489	0.118
Mof_C 	C 	0.06584	0.29099	0.18129	0.177
Mof_C 	C 	0.14626	0.35513	0.18096	-0.076
Mof_H 	H 	0.1387	0.3634	0.197	0.052
Mof_C 	C 	0.13346	0.33126	0.16971	-0.004
Mof_N 	N 	0.08494	0.31096	0.25857	-0.114
Mof_C 	C 	0.0721	0.3335	0.2714	0.35
Mof_O 	O 	0.0632	0.3544	0.2605	-0.26
Mof_O 	O 	0.06875	0.3281	0.29856	-0.295
Mof_C 	C 	0.0768	0.2983	0.305	0.264
Mof_H 	H 	0.0894	0.2975	0.321	-0.057
Mof_H 	H 	0.0602	0.2871	0.309	-0.02
Mof_C 	C 	0.09104	0.28832	0.27898	-0.504
Mof_H 	H 	0.0821	0.2708	0.2726	0.193
Mof_C 	C 	0.12115	0.2837	0.2821	1.057
Mof_H 	H 	0.128	0.2779	0.2635	-0.302
Mof_C 	C 	0.1382	0.3087	0.2902	-1.571
Mof_H 	H 	0.1331	0.3245	0.2786	0.486
Mof_H 	H 	0.1578	0.3046	0.2876	0.453
Mof_H 	H 	0.1348	0.3132	0.3096	0.478
Mof_C 	C 	0.1279	0.2592	0.3022	-1.534
Mof_H 	H 	0.1479	0.2564	0.3029	0.458
Mof_H 	H 	0.119	0.2424	0.2955	0.492
Mof_H 	H 	0.121	0.2636	0.3207	0.48
Mof_N 	N 	0.04232	0.2812	0.15922	-0.178
Mof_C 	C 	0.0471	0.2582	0.1436	0.391
Mof_O 	O 	0.0679	0.2455	0.1418	-0.291
Mof_O 	O 	0.0237	0.2483	0.1318	-0.242
Mof_C 	C 	0.002	0.2631	0.1427	0.01
Mof_H 	H 	0.9914	0.2511	0.1554	0.07
Mof_H 	H 	0.9895	0.2687	0.1276	0.062
Mof_C 	C 	0.012	0.2899	0.1591	0.007
Mof_H 	H 	0.005	0.2882	0.1784	0.047
Mof_O 	O 	0.99732	0.30439	0.29806	-0.458
Mof_N 	N 	0.99546	0.33334	0.34152	-0.123
Mof_C 	C 	0.99546	0.30454	0.32302	0.992
Mof_H 	H 	0.9983	0.3285	0.2961	-0.556
Mof_C 	C 	0.99158	0.32396	0.37123	-0.09
Mof_H 	H 	0.0058	0.3299	0.3846	0.079
Mof_H 	H 	0.9852	0.3047	0.374	0.082
Mof_C 	C 	0.03864	0.77786	0.72495	0.417
Mof_O 	O 	0.0295	0.78903	0.747	-0.453
Mof_O 	O 	0.0303	0.75556	0.71412	-0.456
Mof_C 	C 	0.06257	0.79286	0.71072	-0.209
Mof_C 	C 	0.08295	0.80749	0.72619	0.164
Mof_C 	C 	0.10532	0.81979	0.71312	-0.203
Mof_H 	H 	0.1187	0.8292	0.7238	0.087
Mof_C 	C 	0.10839	0.81849	0.68376	0.103
Mof_C 	C 	0.08822	0.80387	0.66837	-0.212
Mof_H 	H 	0.0899	0.8028	0.6489	0.117
Mof_C 	C 	0.06584	0.79099	0.68129	0.176
Mof_C 	C 	0.14626	0.85513	0.68096	-0.077
Mof_H 	H 	0.1387	0.8634	0.697	0.051
Mof_C 	C 	0.13346	0.83126	0.66971	-0.005
Mof_N 	N 	0.08494	0.81096	0.75857	-0.115
Mof_C 	C 	0.0721	0.8335	0.7714	0.349
Mof_O 	O 	0.0632	0.8544	0.7605	-0.261
Mof_O 	O 	0.06875	0.8281	0.79856	-0.296
Mof_C 	C 	0.0768	0.7983	0.805	0.263
Mof_H 	H 	0.0894	0.7975	0.821	-0.057
Mof_H 	H 	0.0602	0.7871	0.809	-0.021
Mof_C 	C 	0.09104	0.78832	0.77898	-0.505
Mof_H 	H 	0.0821	0.7708	0.7726	0.192
Mof_C 	C 	0.12115	0.7837	0.7821	1.057
Mof_H 	H 	0.128	0.7779	0.7635	-0.302
Mof_C 	C 	0.1382	0.8087	0.7902	-1.571
Mof_H 	H 	0.1331	0.8245	0.7786	0.486
Mof_H 	H 	0.1578	0.8046	0.7876	0.453
Mof_H 	H 	0.1348	0.8132	0.8096	0.478
Mof_C 	C 	0.1279	0.7592	0.8022	-1.534
Mof_H 	H 	0.1479	0.7564	0.8029	0.458
Mof_H 	H 	0.119	0.7424	0.7955	0.492
Mof_H 	H 	0.121	0.7636	0.8207	0.48
Mof_N 	N 	0.04232	0.7812	0.65922	-0.178
Mof_C 	C 	0.0471	0.7582	0.6436	0.391
Mof_O 	O 	0.0679	0.7455	0.6418	-0.291
Mof_O 	O 	0.0237	0.7483	0.6318	-0.242
Mof_C 	C 	0.002	0.7631	0.6427	0.01
Mof_H 	H 	0.9914	0.7511	0.6554	0.07
Mof_H 	H 	0.9895	0.7687	0.6276	0.062
Mof_C 	C 	0.012	0.7899	0.6591	0.007
Mof_H 	H 	0.005	0.7882	0.6784	0.047
Mof_O 	O 	0.99732	0.80439	0.79806	-0.458
Mof_N 	N 	0.99546	0.83334	0.84152	-0.123
Mof_C 	C 	0.99546	0.80454	0.82302	0.992
Mof_H 	H 	0.9983	0.8285	0.7961	-0.556
Mof_C 	C 	0.99158	0.82396	0.87123	-0.09
Mof_H 	H 	0.0058	0.8299	0.8846	0.08
Mof_H 	H 	0.9852	0.8047	0.874	0.082
Mof_C 	C 	0.53864	0.27786	0.72495	0.417
Mof_O 	O 	0.5295	0.28903	0.747	-0.452
Mof_O 	O 	0.5303	0.25556	0.71412	-0.456
Mof_C 	C 	0.56257	0.29286	0.71072	-0.209
Mof_C 	C 	0.58295	0.30749	0.72619	0.164
Mof_C 	C 	0.60532	0.31979	0.71312	-0.203
Mof_H 	H 	0.6187	0.3292	0.7238	0.087
Mof_C 	C 	0.60839	0.31849	0.68376	0.103
Mof_C 	C 	0.58822	0.30387	0.66837	-0.212
Mof_H 	H 	0.5899	0.3028	0.6489	0.117
Mof_C 	C 	0.56584	0.29099	0.68129	0.176
Mof_C 	C 	0.64626	0.35513	0.68096	-0.077
Mof_H 	H 	0.6387	0.3634	0.697	0.051
Mof_C 	C 	0.63346	0.33126	0.66971	-0.005
Mof_N 	N 	0.58494	0.31096	0.75857	-0.115
Mof_C 	C 	0.5721	0.3335	0.7714	0.349
Mof_O 	O 	0.5632	0.3544	0.7605	-0.261
Mof_O 	O 	0.56875	0.3281	0.79856	-0.295
Mof_C 	C 	0.5768	0.2983	0.805	0.262
Mof_H 	H 	0.5894	0.2975	0.821	-0.057
Mof_H 	H 	0.5602	0.2871	0.809	-0.02
Mof_C 	C 	0.59104	0.28832	0.77898	-0.505
Mof_H 	H 	0.5821	0.2708	0.7726	0.192
Mof_C 	C 	0.62115	0.2837	0.7821	1.057
Mof_H 	H 	0.628	0.2779	0.7635	-0.302
Mof_C 	C 	0.6382	0.3087	0.7902	-1.571
Mof_H 	H 	0.6331	0.3245	0.7786	0.486
Mof_H 	H 	0.6578	0.3046	0.7876	0.453
Mof_H 	H 	0.6348	0.3132	0.8096	0.478
Mof_C 	C 	0.6279	0.2592	0.8022	-1.534
Mof_H 	H 	0.6479	0.2564	0.8029	0.458
Mof_H 	H 	0.619	0.2424	0.7955	0.492
Mof_H 	H 	0.621	0.2636	0.8207	0.48
Mof_N 	N 	0.54232	0.2812	0.65922	-0.178
Mof_C 	C 	0.5471	0.2582	0.6436	0.391
Mof_O 	O 	0.5679	0.2455	0.6418	-0.291
Mof_O 	O 	0.5237	0.2483	0.6318	-0.243
Mof_C 	C 	0.502	0.2631	0.6427	0.018
Mof_H 	H 	0.4914	0.2511	0.6554	0.067
Mof_H 	H 	0.4895	0.2687	0.6276	0.058
Mof_C 	C 	0.512	0.2899	0.6591	0.005
Mof_H 	H 	0.505	0.2882	0.6784	0.048
Mof_O 	O 	0.49732	0.30439	0.79806	-0.447
Mof_N 	N 	0.49546	0.33334	0.84152	-0.127
Mof_C 	C 	0.49546	0.30454	0.82302	1.004
Mof_H 	H 	0.4983	0.3285	0.7961	-0.552
Mof_C 	C 	0.49158	0.32396	0.87123	-0.092
Mof_H 	H 	0.5058	0.3299	0.8846	0.081
Mof_H 	H 	0.4852	0.3047	0.874	0.082
Mof_C 	C 	0.53864	0.77786	0.22495	0.417
Mof_O 	O 	0.5295	0.78903	0.247	-0.452
Mof_O 	O 	0.5303	0.75556	0.21412	-0.456
Mof_C 	C 	0.56257	0.79286	0.21072	-0.209
Mof_C 	C 	0.58295	0.80749	0.22619	0.164
Mof_C 	C 	0.60532	0.81979	0.21312	-0.203
Mof_H 	H 	0.6187	0.8292	0.2238	0.087
Mof_C 	C 	0.60839	0.81849	0.18376	0.103
Mof_C 	C 	0.58822	0.80387	0.16837	-0.212
Mof_H 	H 	0.5899	0.8028	0.1489	0.117
Mof_C 	C 	0.56584	0.79099	0.18129	0.176
Mof_C 	C 	0.64626	0.85513	0.18096	-0.077
Mof_H 	H 	0.6387	0.8634	0.197	0.051
Mof_C 	C 	0.63346	0.83126	0.16971	-0.005
Mof_N 	N 	0.58494	0.81096	0.25857	-0.115
Mof_C 	C 	0.5721	0.8335	0.2714	0.349
Mof_O 	O 	0.5632	0.8544	0.2605	-0.261
Mof_O 	O 	0.56875	0.8281	0.29856	-0.295
Mof_C 	C 	0.5768	0.7983	0.305	0.262
Mof_H 	H 	0.5894	0.7975	0.321	-0.057
Mof_H 	H 	0.5602	0.7871	0.309	-0.02
Mof_C 	C 	0.59104	0.78832	0.27898	-0.505
Mof_H 	H 	0.5821	0.7708	0.2726	0.192
Mof_C 	C 	0.62115	0.7837	0.2821	1.057
Mof_H 	H 	0.628	0.7779	0.2635	-0.302
Mof_C 	C 	0.6382	0.8087	0.2902	-1.571
Mof_H 	H 	0.6331	0.8245	0.2786	0.486
Mof_H 	H 	0.6578	0.8046	0.2876	0.453
Mof_H 	H 	0.6348	0.8132	0.3096	0.478
Mof_C 	C 	0.6279	0.7592	0.3022	-1.534
Mof_H 	H 	0.6479	0.7564	0.3029	0.458
Mof_H 	H 	0.619	0.7424	0.2955	0.492
Mof_H 	H 	0.621	0.7636	0.3207	0.48
Mof_N 	N 	0.54232	0.7812	0.15922	-0.178
Mof_C 	C 	0.5471	0.7582	0.1436	0.391
Mof_O 	O 	0.5679	0.7455	0.1418	-0.291
Mof_O 	O 	0.5237	0.7483	0.1318	-0.243
Mof_C 	C 	0.502	0.7631	0.1427	0.018
Mof_H 	H 	0.4914	0.7511	0.1554	0.067
Mof_H 	H 	0.4895	0.7687	0.1276	0.058
Mof_C 	C 	0.512	0.7899	0.1591	0.005
Mof_H 	H 	0.505	0.7882	0.1784	0.048
Mof_O 	O 	0.49732	0.80439	0.29806	-0.447
Mof_N 	N 	0.49546	0.83334	0.34152	-0.127
Mof_C 	C 	0.49546	0.80454	0.32302	1.004
Mof_H 	H 	0.4983	0.8285	0.2961	-0.552
Mof_C 	C 	0.49158	0.82396	0.37123	-0.092
Mof_H 	H 	0.5058	0.8299	0.3846	0.081
Mof_H 	H 	0.4852	0.8047	0.374	0.082
Mof_C 	C 	0.03864	0.72214	0.77505	0.417
Mof_O 	O 	0.0295	0.71097	0.753	-0.453
Mof_O 	O 	0.0303	0.74444	0.78588	-0.456
Mof_C 	C 	0.06257	0.70714	0.78928	-0.209
Mof_C 	C 	0.08295	0.69251	0.77381	0.164
Mof_C 	C 	0.10532	0.68021	0.78688	-0.203
Mof_H 	H 	0.1187	0.6708	0.7762	0.087
Mof_C 	C 	0.10839	0.68151	0.81624	0.103
Mof_C 	C 	0.08822	0.69613	0.83163	-0.212
Mof_H 	H 	0.0899	0.6972	0.8511	0.117
Mof_C 	C 	0.06584	0.70901	0.81871	0.176
Mof_C 	C 	0.14626	0.64487	0.81904	-0.077
Mof_H 	H 	0.1387	0.6366	0.803	0.051
Mof_C 	C 	0.13346	0.66874	0.83029	-0.005
Mof_N 	N 	0.08494	0.68904	0.74143	-0.115
Mof_C 	C 	0.0721	0.6665	0.7286	0.349
Mof_O 	O 	0.0632	0.6456	0.7395	-0.261
Mof_O 	O 	0.06875	0.6719	0.70144	-0.296
Mof_C 	C 	0.0768	0.7017	0.695	0.263
Mof_H 	H 	0.0894	0.7025	0.679	-0.058
Mof_H 	H 	0.0602	0.7129	0.691	-0.021
Mof_C 	C 	0.09104	0.71168	0.72102	-0.505
Mof_H 	H 	0.0821	0.7292	0.7274	0.192
Mof_C 	C 	0.12115	0.7163	0.7179	1.057
Mof_H 	H 	0.128	0.7221	0.7365	-0.302
Mof_C 	C 	0.1382	0.6913	0.7098	-1.571
Mof_H 	H 	0.1331	0.6755	0.7214	0.486
Mof_H 	H 	0.1578	0.6954	0.7124	0.453
Mof_H 	H 	0.1348	0.6868	0.6904	0.478
Mof_C 	C 	0.1279	0.7408	0.6978	-1.534
Mof_H 	H 	0.1479	0.7436	0.6971	0.458
Mof_H 	H 	0.119	0.7576	0.7045	0.492
Mof_H 	H 	0.121	0.7364	0.6793	0.48
Mof_N 	N 	0.04232	0.7188	0.84078	-0.178
Mof_C 	C 	0.0471	0.7418	0.8564	0.391
Mof_O 	O 	0.0679	0.7545	0.8582	-0.291
Mof_O 	O 	0.0237	0.7517	0.8682	-0.242
Mof_C 	C 	0.002	0.7369	0.8573	0.01
Mof_H 	H 	0.9914	0.7489	0.8446	0.071
Mof_H 	H 	0.9895	0.7313	0.8724	0.062
Mof_C 	C 	0.012	0.7101	0.8409	0.007
Mof_H 	H 	0.005	0.7118	0.8216	0.047
Mof_O 	O 	0.99732	0.69561	0.70194	-0.458
Mof_N 	N 	0.99546	0.66666	0.65848	-0.123
Mof_C 	C 	0.99546	0.69546	0.67698	0.992
Mof_H 	H 	0.9983	0.6715	0.7039	-0.556
Mof_C 	C 	0.99158	0.67604	0.62877	-0.09
Mof_H 	H 	0.0058	0.6701	0.6154	0.079
Mof_H 	H 	0.9852	0.6953	0.626	0.082
Mof_C 	C 	0.03864	0.22214	0.27505	0.417
Mof_O 	O 	0.0295	0.21097	0.253	-0.453
Mof_O 	O 	0.0303	0.24444	0.28588	-0.456
Mof_C 	C 	0.06257	0.20714	0.28928	-0.209
Mof_C 	C 	0.08295	0.19251	0.27381	0.164
Mof_C 	C 	0.10532	0.18021	0.28688	-0.203
Mof_H 	H 	0.1187	0.1708	0.2762	0.087
Mof_C 	C 	0.10839	0.18151	0.31624	0.103
Mof_C 	C 	0.08822	0.19613	0.33163	-0.212
Mof_H 	H 	0.0899	0.1972	0.3511	0.117
Mof_C 	C 	0.06584	0.20901	0.31871	0.176
Mof_C 	C 	0.14626	0.14487	0.31904	-0.077
Mof_H 	H 	0.1387	0.1366	0.303	0.051
Mof_C 	C 	0.13346	0.16874	0.33029	-0.005
Mof_N 	N 	0.08494	0.18904	0.24143	-0.115
Mof_C 	C 	0.0721	0.1665	0.2286	0.349
Mof_O 	O 	0.0632	0.1456	0.2395	-0.261
Mof_O 	O 	0.06875	0.1719	0.20144	-0.296
Mof_C 	C 	0.0768	0.2017	0.195	0.263
Mof_H 	H 	0.0894	0.2025	0.179	-0.058
Mof_H 	H 	0.0602	0.2129	0.191	-0.021
Mof_C 	C 	0.09104	0.21168	0.22102	-0.505
Mof_H 	H 	0.0821	0.2292	0.2274	0.192
Mof_C 	C 	0.12115	0.2163	0.2179	1.057
Mof_H 	H 	0.128	0.2221	0.2365	-0.302
Mof_C 	C 	0.1382	0.1913	0.2098	-1.571
Mof_H 	H 	0.1331	0.1755	0.2214	0.486
Mof_H 	H 	0.1578	0.1954	0.2124	0.453
Mof_H 	H 	0.1348	0.1868	0.1904	0.478
Mof_C 	C 	0.1279	0.2408	0.1978	-1.534
Mof_H 	H 	0.1479	0.2436	0.1971	0.458
Mof_H 	H 	0.119	0.2576	0.2045	0.492
Mof_H 	H 	0.121	0.2364	0.1793	0.48
Mof_N 	N 	0.04232	0.2188	0.34078	-0.178
Mof_C 	C 	0.0471	0.2418	0.3564	0.391
Mof_O 	O 	0.0679	0.2545	0.3582	-0.291
Mof_O 	O 	0.0237	0.2517	0.3682	-0.242
Mof_C 	C 	0.002	0.2369	0.3573	0.01
Mof_H 	H 	0.9914	0.2489	0.3446	0.07
Mof_H 	H 	0.9895	0.2313	0.3724	0.062
Mof_C 	C 	0.012	0.2101	0.3409	0.007
Mof_H 	H 	0.005	0.2118	0.3216	0.047
Mof_O 	O 	0.99732	0.19561	0.20194	-0.458
Mof_N 	N 	0.99546	0.16666	0.15848	-0.123
Mof_C 	C 	0.99546	0.19546	0.17698	0.992
Mof_H 	H 	0.9983	0.1715	0.2039	-0.556
Mof_C 	C 	0.99158	0.17604	0.12877	-0.09
Mof_H 	H 	0.0058	0.1701	0.1154	0.079
Mof_H 	H 	0.9852	0.1953	0.126	0.082
Mof_C 	C 	0.53864	0.72214	0.27505	0.417
Mof_O 	O 	0.5295	0.71097	0.253	-0.452
Mof_O 	O 	0.5303	0.74444	0.28588	-0.456
Mof_C 	C 	0.56257	0.70714	0.28928	-0.209
Mof_C 	C 	0.58295	0.69251	0.27381	0.164
Mof_C 	C 	0.60532	0.68021	0.28688	-0.203
Mof_H 	H 	0.6187	0.6708	0.2762	0.087
Mof_C 	C 	0.60839	0.68151	0.31624	0.103
Mof_C 	C 	0.58822	0.69613	0.33163	-0.212
Mof_H 	H 	0.5899	0.6972	0.3511	0.117
Mof_C 	C 	0.56584	0.70901	0.31871	0.176
Mof_C 	C 	0.64626	0.64487	0.31904	-0.077
Mof_H 	H 	0.6387	0.6366	0.303	0.051
Mof_C 	C 	0.63346	0.66874	0.33029	-0.005
Mof_N 	N 	0.58494	0.68904	0.24143	-0.115
Mof_C 	C 	0.5721	0.6665	0.2286	0.349
Mof_O 	O 	0.5632	0.6456	0.2395	-0.261
Mof_O 	O 	0.56875	0.6719	0.20144	-0.295
Mof_C 	C 	0.5768	0.7017	0.195	0.262
Mof_H 	H 	0.5894	0.7025	0.179	-0.057
Mof_H 	H 	0.5602	0.7129	0.191	-0.02
Mof_C 	C 	0.59104	0.71168	0.22102	-0.505
Mof_H 	H 	0.5821	0.7292	0.2274	0.192
Mof_C 	C 	0.62115	0.7163	0.2179	1.057
Mof_H 	H 	0.628	0.7221	0.2365	-0.302
Mof_C 	C 	0.6382	0.6913	0.2098	-1.571
Mof_H 	H 	0.6331	0.6755	0.2214	0.486
Mof_H 	H 	0.6578	0.6954	0.2124	0.453
Mof_H 	H 	0.6348	0.6868	0.1904	0.478
Mof_C 	C 	0.6279	0.7408	0.1978	-1.534
Mof_H 	H 	0.6479	0.7436	0.1971	0.458
Mof_H 	H 	0.619	0.7576	0.2045	0.492
Mof_H 	H 	0.621	0.7364	0.1793	0.48
Mof_N 	N 	0.54232	0.7188	0.34078	-0.178
Mof_C 	C 	0.5471	0.7418	0.3564	0.391
Mof_O 	O 	0.5679	0.7545	0.3582	-0.291
Mof_O 	O 	0.5237	0.7517	0.3682	-0.243
Mof_C 	C 	0.502	0.7369	0.3573	0.018
Mof_H 	H 	0.4914	0.7489	0.3446	0.067
Mof_H 	H 	0.4895	0.7313	0.3724	0.058
Mof_C 	C 	0.512	0.7101	0.3409	0.005
Mof_H 	H 	0.505	0.7118	0.3216	0.048
Mof_O 	O 	0.49732	0.69561	0.20194	-0.447
Mof_N 	N 	0.49546	0.66666	0.15848	-0.127
Mof_C 	C 	0.49546	0.69546	0.17698	1.004
Mof_H 	H 	0.4983	0.6715	0.2039	-0.552
Mof_C 	C 	0.49158	0.67604	0.12877	-0.092
Mof_H 	H 	0.5058	0.6701	0.1154	0.081
Mof_H 	H 	0.4852	0.6953	0.126	0.082
Mof_C 	C 	0.53864	0.22214	0.77505	0.417
Mof_O 	O 	0.5295	0.21097	0.753	-0.452
Mof_O 	O 	0.5303	0.24444	0.78588	-0.456
Mof_C 	C 	0.56257	0.20714	0.78928	-0.209
Mof_C 	C 	0.58295	0.19251	0.77381	0.164
Mof_C 	C 	0.60532	0.18021	0.78688	-0.203
Mof_H 	H 	0.6187	0.1708	0.7762	0.087
Mof_C 	C 	0.60839	0.18151	0.81624	0.103
Mof_C 	C 	0.58822	0.19613	0.83163	-0.212
Mof_H 	H 	0.5899	0.1972	0.8511	0.117
Mof_C 	C 	0.56584	0.20901	0.81871	0.176
Mof_C 	C 	0.64626	0.14487	0.81904	-0.077
Mof_H 	H 	0.6387	0.1366	0.803	0.051
Mof_C 	C 	0.63346	0.16874	0.83029	-0.005
Mof_N 	N 	0.58494	0.18904	0.74143	-0.115
Mof_C 	C 	0.5721	0.1665	0.7286	0.349
Mof_O 	O 	0.5632	0.1456	0.7395	-0.261
Mof_O 	O 	0.56875	0.1719	0.70144	-0.295
Mof_C 	C 	0.5768	0.2017	0.695	0.262
Mof_H 	H 	0.5894	0.2025	0.679	-0.057
Mof_H 	H 	0.5602	0.2129	0.691	-0.02
Mof_C 	C 	0.59104	0.21168	0.72102	-0.505
Mof_H 	H 	0.5821	0.2292	0.7274	0.192
Mof_C 	C 	0.62115	0.2163	0.7179	1.057
Mof_H 	H 	0.628	0.2221	0.7365	-0.302
Mof_C 	C 	0.6382	0.1913	0.7098	-1.571
Mof_H 	H 	0.6331	0.1755	0.7214	0.486
Mof_H 	H 	0.6578	0.1954	0.7124	0.453
Mof_H 	H 	0.6348	0.1868	0.6904	0.478
Mof_C 	C 	0.6279	0.2408	0.6978	-1.534
Mof_H 	H 	0.6479	0.2436	0.6971	0.458
Mof_H 	H 	0.619	0.2576	0.7045	0.492
Mof_H 	H 	0.621	0.2364	0.6793	0.48
Mof_N 	N 	0.54232	0.2188	0.84078	-0.178
Mof_C 	C 	0.5471	0.2418	0.8564	0.391
Mof_O 	O 	0.5679	0.2545	0.8582	-0.291
Mof_O 	O 	0.5237	0.2517	0.8682	-0.243
Mof_C 	C 	0.502	0.2369	0.8573	0.018
Mof_H 	H 	0.4914	0.2489	0.8446	0.067
Mof_H 	H 	0.4895	0.2313	0.8724	0.058
Mof_C 	C 	0.512	0.2101	0.8409	0.005
Mof_H 	H 	0.505	0.2118	0.8216	0.048
Mof_O 	O 	0.49732	0.19561	0.70194	-0.447
Mof_N 	N 	0.49546	0.16666	0.65848	-0.127
Mof_C 	C 	0.49546	0.19546	0.67698	1.004
Mof_H 	H 	0.4983	0.1715	0.7039	-0.552
Mof_C 	C 	0.49158	0.17604	0.62877	-0.092
Mof_H 	H 	0.5058	0.1701	0.6154	0.081
Mof_H 	H 	0.4852	0.1953	0.626	0.082
Mof_C 	C 	0.96136	0.27786	0.77505	0.417
Mof_O 	O 	0.9705	0.28903	0.753	-0.452
Mof_O 	O 	0.9697	0.25556	0.78588	-0.455
Mof_C 	C 	0.93743	0.29286	0.78928	-0.208
Mof_C 	C 	0.91705	0.30749	0.77381	0.164
Mof_C 	C 	0.89468	0.31979	0.78688	-0.203
Mof_H 	H 	0.8813	0.3292	0.7762	0.087
Mof_C 	C 	0.89161	0.31849	0.81624	0.103
Mof_C 	C 	0.91178	0.30387	0.83163	-0.212
Mof_H 	H 	0.9101	0.3028	0.8511	0.117
Mof_C 	C 	0.93416	0.29099	0.81871	0.176
Mof_C 	C 	0.85374	0.35513	0.81904	-0.077
Mof_H 	H 	0.8613	0.3634	0.803	0.051
Mof_C 	C 	0.86654	0.33126	0.83029	-0.005
Mof_N 	N 	0.91506	0.31096	0.74143	-0.115
Mof_C 	C 	0.9279	0.3335	0.7286	0.349
Mof_O 	O 	0.9368	0.3544	0.7395	-0.261
Mof_O 	O 	0.93125	0.3281	0.70144	-0.295
Mof_C 	C 	0.9232	0.2983	0.695	0.262
Mof_H 	H 	0.9106	0.2975	0.679	-0.057
Mof_H 	H 	0.9398	0.2871	0.691	-0.02
Mof_C 	C 	0.90896	0.28832	0.72102	-0.504
Mof_H 	H 	0.9179	0.2708	0.7274	0.192
Mof_C 	C 	0.87885	0.2837	0.7179	1.057
Mof_H 	H 	0.872	0.2779	0.7365	-0.301
Mof_C 	C 	0.8618	0.3087	0.7098	-1.571
Mof_H 	H 	0.8669	0.3245	0.7214	0.486
Mof_H 	H 	0.8422	0.3046	0.7124	0.453
Mof_H 	H 	0.8652	0.3132	0.6904	0.478
Mof_C 	C 	0.8721	0.2592	0.6978	-1.534
Mof_H 	H 	0.8521	0.2564	0.6971	0.458
Mof_H 	H 	0.881	0.2424	0.7045	0.492
Mof_H 	H 	0.879	0.2636	0.6793	0.48
Mof_N 	N 	0.95768	0.2812	0.84078	-0.177
Mof_C 	C 	0.9529	0.2582	0.8564	0.391
Mof_O 	O 	0.9321	0.2455	0.8582	-0.291
Mof_O 	O 	0.9763	0.2483	0.8682	-0.244
Mof_C 	C 	0.998	0.2631	0.8573	0.026
Mof_H 	H 	0.0086	0.2511	0.8446	0.064
Mof_H 	H 	0.0105	0.2687	0.8724	0.055
Mof_C 	C 	0.988	0.2899	0.8409	0.004
Mof_H 	H 	0.995	0.2882	0.8216	0.049
Mof_O 	O 	0.00268	0.30439	0.70194	-0.435
Mof_N 	N 	0.00454	0.33334	0.65848	-0.131
Mof_C 	C 	0.00454	0.30454	0.67698	1.015
Mof_H 	H 	0.0017	0.3285	0.7039	-0.547
Mof_C 	C 	0.00842	0.32396	0.62877	-0.095
Mof_H 	H 	0.9942	0.3299	0.6154	0.083
Mof_H 	H 	0.0148	0.3047	0.626	0.083
Mof_C 	C 	0.96136	0.77786	0.27505	0.417
Mof_O 	O 	0.9705	0.78903	0.253	-0.452
Mof_O 	O 	0.9697	0.75556	0.28588	-0.455
Mof_C 	C 	0.93743	0.79286	0.28928	-0.208
Mof_C 	C 	0.91705	0.80749	0.27381	0.164
Mof_C 	C 	0.89468	0.81979	0.28688	-0.203
Mof_H 	H 	0.8813	0.8292	0.2762	0.087
Mof_C 	C 	0.89161	0.81849	0.31624	0.103
Mof_C 	C 	0.91178	0.80387	0.33163	-0.212
Mof_H 	H 	0.9101	0.8028	0.3511	0.117
Mof_C 	C 	0.93416	0.79099	0.31871	0.176
Mof_C 	C 	0.85374	0.85513	0.31904	-0.077
Mof_H 	H 	0.8613	0.8634	0.303	0.051
Mof_C 	C 	0.86654	0.83126	0.33029	-0.005
Mof_N 	N 	0.91506	0.81096	0.24143	-0.115
Mof_C 	C 	0.9279	0.8335	0.2286	0.349
Mof_O 	O 	0.9368	0.8544	0.2395	-0.26
Mof_O 	O 	0.93125	0.8281	0.20144	-0.295
Mof_C 	C 	0.9232	0.7983	0.195	0.262
Mof_H 	H 	0.9106	0.7975	0.179	-0.057
Mof_H 	H 	0.9398	0.7871	0.191	-0.02
Mof_C 	C 	0.90896	0.78832	0.22102	-0.505
Mof_H 	H 	0.9179	0.7708	0.2274	0.192
Mof_C 	C 	0.87885	0.7837	0.2179	1.057
Mof_H 	H 	0.872	0.7779	0.2365	-0.301
Mof_C 	C 	0.8618	0.8087	0.2098	-1.571
Mof_H 	H 	0.8669	0.8245	0.2214	0.486
Mof_H 	H 	0.8422	0.8046	0.2124	0.453
Mof_H 	H 	0.8652	0.8132	0.1904	0.478
Mof_C 	C 	0.8721	0.7592	0.1978	-1.534
Mof_H 	H 	0.8521	0.7564	0.1971	0.458
Mof_H 	H 	0.881	0.7424	0.2045	0.492
Mof_H 	H 	0.879	0.7636	0.1793	0.48
Mof_N 	N 	0.95768	0.7812	0.34078	-0.177
Mof_C 	C 	0.9529	0.7582	0.3564	0.391
Mof_O 	O 	0.9321	0.7455	0.3582	-0.291
Mof_O 	O 	0.9763	0.7483	0.3682	-0.244
Mof_C 	C 	0.998	0.7631	0.3573	0.026
Mof_H 	H 	0.0086	0.7511	0.3446	0.064
Mof_H 	H 	0.0105	0.7687	0.3724	0.055
Mof_C 	C 	0.988	0.7899	0.3409	0.004
Mof_H 	H 	0.995	0.7882	0.3216	0.049
Mof_O 	O 	0.00268	0.80439	0.20194	-0.435
Mof_N 	N 	0.00454	0.83334	0.15848	-0.131
Mof_C 	C 	0.00454	0.80454	0.17698	1.015
Mof_H 	H 	0.0017	0.8285	0.2039	-0.547
Mof_C 	C 	0.00842	0.82396	0.12877	-0.095
Mof_H 	H 	0.9942	0.8299	0.1154	0.083
Mof_H 	H 	0.0148	0.8047	0.126	0.083
Mof_C 	C 	0.46136	0.27786	0.27505	0.417
Mof_O 	O 	0.4705	0.28903	0.253	-0.452
Mof_O 	O 	0.4697	0.25556	0.28588	-0.456
Mof_C 	C 	0.43743	0.29286	0.28928	-0.209
Mof_C 	C 	0.41705	0.30749	0.27381	0.164
Mof_C 	C 	0.39468	0.31979	0.28688	-0.203
Mof_H 	H 	0.3813	0.3292	0.2762	0.087
Mof_C 	C 	0.39161	0.31849	0.31624	0.103
Mof_C 	C 	0.41178	0.30387	0.33163	-0.212
Mof_H 	H 	0.4101	0.3028	0.3511	0.117
Mof_C 	C 	0.43416	0.29099	0.31871	0.176
Mof_C 	C 	0.35374	0.35513	0.31904	-0.077
Mof_H 	H 	0.3613	0.3634	0.303	0.051
Mof_C 	C 	0.36654	0.33126	0.33029	-0.005
Mof_N 	N 	0.41506	0.31096	0.24143	-0.115
Mof_C 	C 	0.4279	0.3335	0.2286	0.349
Mof_O 	O 	0.4368	0.3544	0.2395	-0.261
Mof_O 	O 	0.43125	0.3281	0.20144	-0.295
Mof_C 	C 	0.4232	0.2983	0.195	0.262
Mof_H 	H 	0.4106	0.2975	0.179	-0.057
Mof_H 	H 	0.4398	0.2871	0.191	-0.02
Mof_C 	C 	0.40896	0.28832	0.22102	-0.505
Mof_H 	H 	0.4179	0.2708	0.2274	0.192
Mof_C 	C 	0.37885	0.2837	0.2179	1.057
Mof_H 	H 	0.372	0.2779	0.2365	-0.302
Mof_C 	C 	0.3618	0.3087	0.2098	-1.571
Mof_H 	H 	0.3669	0.3245	0.2214	0.486
Mof_H 	H 	0.3422	0.3046	0.2124	0.453
Mof_H 	H 	0.3652	0.3132	0.1904	0.478
Mof_C 	C 	0.3721	0.2592	0.1978	-1.534
Mof_H 	H 	0.3521	0.2564	0.1971	0.458
Mof_H 	H 	0.381	0.2424	0.2045	0.492
Mof_H 	H 	0.379	0.2636	0.1793	0.48
Mof_N 	N 	0.45768	0.2812	0.34078	-0.178
Mof_C 	C 	0.4529	0.2582	0.3564	0.391
Mof_O 	O 	0.4321	0.2455	0.3582	-0.291
Mof_O 	O 	0.4763	0.2483	0.3682	-0.243
Mof_C 	C 	0.498	0.2631	0.3573	0.018
Mof_H 	H 	0.5086	0.2511	0.3446	0.067
Mof_H 	H 	0.5105	0.2687	0.3724	0.058
Mof_C 	C 	0.488	0.2899	0.3409	0.005
Mof_H 	H 	0.495	0.2882	0.3216	0.048
Mof_O 	O 	0.50268	0.30439	0.20194	-0.447
Mof_N 	N 	0.50454	0.33334	0.15848	-0.127
Mof_C 	C 	0.50454	0.30454	0.17698	1.004
Mof_H 	H 	0.5017	0.3285	0.2039	-0.552
Mof_C 	C 	0.50842	0.32396	0.12877	-0.092
Mof_H 	H 	0.4942	0.3299	0.1154	0.081
Mof_H 	H 	0.5148	0.3047	0.126	0.082
Mof_C 	C 	0.46136	0.77786	0.77505	0.417
Mof_O 	O 	0.4705	0.78903	0.753	-0.452
Mof_O 	O 	0.4697	0.75556	0.78588	-0.456
Mof_C 	C 	0.43743	0.79286	0.78928	-0.209
Mof_C 	C 	0.41705	0.80749	0.77381	0.164
Mof_C 	C 	0.39468	0.81979	0.78688	-0.203
Mof_H 	H 	0.3813	0.8292	0.7762	0.087
Mof_C 	C 	0.39161	0.81849	0.81624	0.103
Mof_C 	C 	0.41178	0.80387	0.83163	-0.212
Mof_H 	H 	0.4101	0.8028	0.8511	0.117
Mof_C 	C 	0.43416	0.79099	0.81871	0.176
Mof_C 	C 	0.35374	0.85513	0.81904	-0.077
Mof_H 	H 	0.3613	0.8634	0.803	0.051
Mof_C 	C 	0.36654	0.83126	0.83029	-0.005
Mof_N 	N 	0.41506	0.81096	0.74143	-0.115
Mof_C 	C 	0.4279	0.8335	0.7286	0.349
Mof_O 	O 	0.4368	0.8544	0.7395	-0.261
Mof_O 	O 	0.43125	0.8281	0.70144	-0.295
Mof_C 	C 	0.4232	0.7983	0.695	0.262
Mof_H 	H 	0.4106	0.7975	0.679	-0.057
Mof_H 	H 	0.4398	0.7871	0.691	-0.02
Mof_C 	C 	0.40896	0.78832	0.72102	-0.505
Mof_H 	H 	0.4179	0.7708	0.7274	0.192
Mof_C 	C 	0.37885	0.7837	0.7179	1.057
Mof_H 	H 	0.372	0.7779	0.7365	-0.302
Mof_C 	C 	0.3618	0.8087	0.7098	-1.571
Mof_H 	H 	0.3669	0.8245	0.7214	0.486
Mof_H 	H 	0.3422	0.8046	0.7124	0.453
Mof_H 	H 	0.3652	0.8132	0.6904	0.478
Mof_C 	C 	0.3721	0.7592	0.6978	-1.534
Mof_H 	H 	0.3521	0.7564	0.6971	0.458
Mof_H 	H 	0.381	0.7424	0.7045	0.492
Mof_H 	H 	0.379	0.7636	0.6793	0.48
Mof_N 	N 	0.45768	0.7812	0.84078	-0.178
Mof_C 	C 	0.4529	0.7582	0.8564	0.391
Mof_O 	O 	0.4321	0.7455	0.8582	-0.291
Mof_O 	O 	0.4763	0.7483	0.8682	-0.243
Mof_C 	C 	0.498	0.7631	0.8573	0.018
Mof_H 	H 	0.5086	0.7511	0.8446	0.067
Mof_H 	H 	0.5105	0.7687	0.8724	0.059
Mof_C 	C 	0.488	0.7899	0.8409	0.005
Mof_H 	H 	0.495	0.7882	0.8216	0.048
Mof_O 	O 	0.50268	0.80439	0.70194	-0.447
Mof_N 	N 	0.50454	0.83334	0.65848	-0.127
Mof_C 	C 	0.50454	0.80454	0.67698	1.004
Mof_H 	H 	0.5017	0.8285	0.7039	-0.552
Mof_C 	C 	0.50842	0.82396	0.62877	-0.092
Mof_H 	H 	0.4942	0.8299	0.6154	0.081
Mof_H 	H 	0.5148	0.8047	0.626	0.082
Mof_C 	C 	0.22495	0.96136	0.72214	0.417
Mof_O 	O 	0.247	0.9705	0.71097	-0.452
Mof_O 	O 	0.21412	0.9697	0.74444	-0.455
Mof_C 	C 	0.21072	0.93743	0.70714	-0.208
Mof_C 	C 	0.22619	0.91705	0.69251	0.164
Mof_C 	C 	0.21312	0.89468	0.68021	-0.203
Mof_H 	H 	0.2238	0.8813	0.6708	0.087
Mof_C 	C 	0.18376	0.89161	0.68151	0.103
Mof_C 	C 	0.16837	0.91178	0.69613	-0.212
Mof_H 	H 	0.1489	0.9101	0.6972	0.117
Mof_C 	C 	0.18129	0.93416	0.70901	0.176
Mof_C 	C 	0.18096	0.85374	0.64487	-0.077
Mof_H 	H 	0.197	0.8613	0.6366	0.051
Mof_C 	C 	0.16971	0.86654	0.66874	-0.005
Mof_N 	N 	0.25857	0.91506	0.68904	-0.115
Mof_C 	C 	0.2714	0.9279	0.6665	0.349
Mof_O 	O 	0.2605	0.9368	0.6456	-0.261
Mof_O 	O 	0.29856	0.93125	0.6719	-0.295
Mof_C 	C 	0.305	0.9232	0.7017	0.262
Mof_H 	H 	0.321	0.9106	0.7025	-0.057
Mof_H 	H 	0.309	0.9398	0.7129	-0.02
Mof_C 	C 	0.27898	0.90896	0.71168	-0.504
Mof_H 	H 	0.2726	0.9179	0.7292	0.192
Mof_C 	C 	0.2821	0.87885	0.7163	1.057
Mof_H 	H 	0.2635	0.872	0.7221	-0.301
Mof_C 	C 	0.2902	0.8618	0.6913	-1.571
Mof_H 	H 	0.2786	0.8669	0.6755	0.486
Mof_H 	H 	0.2876	0.8422	0.6954	0.453
Mof_H 	H 	0.3096	0.8652	0.6868	0.478
Mof_C 	C 	0.3022	0.8721	0.7408	-1.534
Mof_H 	H 	0.3029	0.8521	0.7436	0.458
Mof_H 	H 	0.2955	0.881	0.7576	0.492
Mof_H 	H 	0.3207	0.879	0.7364	0.48
Mof_N 	N 	0.15922	0.95768	0.7188	-0.177
Mof_C 	C 	0.1436	0.9529	0.7418	0.391
Mof_O 	O 	0.1418	0.9321	0.7545	-0.291
Mof_O 	O 	0.1318	0.9763	0.7517	-0.244
Mof_C 	C 	0.1427	0.998	0.7369	0.026
Mof_H 	H 	0.1554	0.0086	0.7489	0.064
Mof_H 	H 	0.1276	0.0105	0.7313	0.055
Mof_C 	C 	0.1591	0.988	0.7101	0.004
Mof_H 	H 	0.1784	0.995	0.7118	0.049
Mof_O 	O 	0.29806	0.00268	0.69561	-0.435
Mof_N 	N 	0.34152	0.00454	0.66666	-0.131
Mof_C 	C 	0.32302	0.00454	0.69546	1.015
Mof_H 	H 	0.2961	0.0017	0.6715	-0.547
Mof_C 	C 	0.37123	0.00842	0.67604	-0.095
Mof_H 	H 	0.3846	0.9942	0.6701	0.083
Mof_H 	H 	0.374	0.0148	0.6953	0.083
Mof_C 	C 	0.22495	0.46136	0.22214	0.417
Mof_O 	O 	0.247	0.4705	0.21097	-0.452
Mof_O 	O 	0.21412	0.4697	0.24444	-0.456
Mof_C 	C 	0.21072	0.43743	0.20714	-0.209
Mof_C 	C 	0.22619	0.41705	0.19251	0.164
Mof_C 	C 	0.21312	0.39468	0.18021	-0.203
Mof_H 	H 	0.2238	0.3813	0.1708	0.087
Mof_C 	C 	0.18376	0.39161	0.18151	0.103
Mof_C 	C 	0.16837	0.41178	0.19613	-0.212
Mof_H 	H 	0.1489	0.4101	0.1972	0.117
Mof_C 	C 	0.18129	0.43416	0.20901	0.176
Mof_C 	C 	0.18096	0.35374	0.14487	-0.077
Mof_H 	H 	0.197	0.3613	0.1366	0.051
Mof_C 	C 	0.16971	0.36654	0.16874	-0.005
Mof_N 	N 	0.25857	0.41506	0.18904	-0.115
Mof_C 	C 	0.2714	0.4279	0.1665	0.349
Mof_O 	O 	0.2605	0.4368	0.1456	-0.261
Mof_O 	O 	0.29856	0.43125	0.1719	-0.295
Mof_C 	C 	0.305	0.4232	0.2017	0.262
Mof_H 	H 	0.321	0.4106	0.2025	-0.057
Mof_H 	H 	0.309	0.4398	0.2129	-0.02
Mof_C 	C 	0.27898	0.40896	0.21168	-0.505
Mof_H 	H 	0.2726	0.4179	0.2292	0.192
Mof_C 	C 	0.2821	0.37885	0.2163	1.057
Mof_H 	H 	0.2635	0.372	0.2221	-0.302
Mof_C 	C 	0.2902	0.3618	0.1913	-1.571
Mof_H 	H 	0.2786	0.3669	0.1755	0.486
Mof_H 	H 	0.2876	0.3422	0.1954	0.453
Mof_H 	H 	0.3096	0.3652	0.1868	0.478
Mof_C 	C 	0.3022	0.3721	0.2408	-1.534
Mof_H 	H 	0.3029	0.3521	0.2436	0.458
Mof_H 	H 	0.2955	0.381	0.2576	0.492
Mof_H 	H 	0.3207	0.379	0.2364	0.48
Mof_N 	N 	0.15922	0.45768	0.2188	-0.178
Mof_C 	C 	0.1436	0.4529	0.2418	0.391
Mof_O 	O 	0.1418	0.4321	0.2545	-0.291
Mof_O 	O 	0.1318	0.4763	0.2517	-0.243
Mof_C 	C 	0.1427	0.498	0.2369	0.018
Mof_H 	H 	0.1554	0.5086	0.2489	0.067
Mof_H 	H 	0.1276	0.5105	0.2313	0.058
Mof_C 	C 	0.1591	0.488	0.2101	0.005
Mof_H 	H 	0.1784	0.495	0.2118	0.048
Mof_O 	O 	0.29806	0.50268	0.19561	-0.447
Mof_N 	N 	0.34152	0.50454	0.16666	-0.127
Mof_C 	C 	0.32302	0.50454	0.19546	1.004
Mof_H 	H 	0.2961	0.5017	0.1715	-0.552
Mof_C 	C 	0.37123	0.50842	0.17604	-0.092
Mof_H 	H 	0.3846	0.4942	0.1701	0.081
Mof_H 	H 	0.374	0.5148	0.1953	0.082
Mof_C 	C 	0.72495	0.96136	0.22214	0.417
Mof_O 	O 	0.747	0.9705	0.21097	-0.452
Mof_O 	O 	0.71412	0.9697	0.24444	-0.455
Mof_C 	C 	0.71072	0.93743	0.20714	-0.208
Mof_C 	C 	0.72619	0.91705	0.19251	0.164
Mof_C 	C 	0.71312	0.89468	0.18021	-0.203
Mof_H 	H 	0.7238	0.8813	0.1708	0.087
Mof_C 	C 	0.68376	0.89161	0.18151	0.103
Mof_C 	C 	0.66837	0.91178	0.19613	-0.212
Mof_H 	H 	0.6489	0.9101	0.1972	0.117
Mof_C 	C 	0.68129	0.93416	0.20901	0.176
Mof_C 	C 	0.68096	0.85374	0.14487	-0.077
Mof_H 	H 	0.697	0.8613	0.1366	0.051
Mof_C 	C 	0.66971	0.86654	0.16874	-0.005
Mof_N 	N 	0.75857	0.91506	0.18904	-0.115
Mof_C 	C 	0.7714	0.9279	0.1665	0.349
Mof_O 	O 	0.7605	0.9368	0.1456	-0.261
Mof_O 	O 	0.79856	0.93125	0.1719	-0.295
Mof_C 	C 	0.805	0.9232	0.2017	0.262
Mof_H 	H 	0.821	0.9106	0.2025	-0.057
Mof_H 	H 	0.809	0.9398	0.2129	-0.02
Mof_C 	C 	0.77898	0.90896	0.21168	-0.504
Mof_H 	H 	0.7726	0.9179	0.2292	0.192
Mof_C 	C 	0.7821	0.87885	0.2163	1.057
Mof_H 	H 	0.7635	0.872	0.2221	-0.301
Mof_C 	C 	0.7902	0.8618	0.1913	-1.571
Mof_H 	H 	0.7786	0.8669	0.1755	0.486
Mof_H 	H 	0.7876	0.8422	0.1954	0.453
Mof_H 	H 	0.8096	0.8652	0.1868	0.478
Mof_C 	C 	0.8022	0.8721	0.2408	-1.534
Mof_H 	H 	0.8029	0.8521	0.2436	0.458
Mof_H 	H 	0.7955	0.881	0.2576	0.492
Mof_H 	H 	0.8207	0.879	0.2364	0.48
Mof_N 	N 	0.65922	0.95768	0.2188	-0.177
Mof_C 	C 	0.6436	0.9529	0.2418	0.391
Mof_O 	O 	0.6418	0.9321	0.2545	-0.291
Mof_O 	O 	0.6318	0.9763	0.2517	-0.244
Mof_C 	C 	0.6427	0.998	0.2369	0.026
Mof_H 	H 	0.6554	0.0086	0.2489	0.064
Mof_H 	H 	0.6276	0.0105	0.2313	0.055
Mof_C 	C 	0.6591	0.988	0.2101	0.004
Mof_H 	H 	0.6784	0.995	0.2118	0.049
Mof_O 	O 	0.79806	0.00268	0.19561	-0.435
Mof_N 	N 	0.84152	0.00454	0.16666	-0.131
Mof_C 	C 	0.82302	0.00454	0.19546	1.015
Mof_H 	H 	0.7961	0.0017	0.1715	-0.547
Mof_C 	C 	0.87123	0.00842	0.17604	-0.095
Mof_H 	H 	0.8846	0.9942	0.1701	0.083
Mof_H 	H 	0.874	0.0148	0.1953	0.083
Mof_C 	C 	0.72495	0.46136	0.72214	0.417
Mof_O 	O 	0.747	0.4705	0.71097	-0.452
Mof_O 	O 	0.71412	0.4697	0.74444	-0.456
Mof_C 	C 	0.71072	0.43743	0.70714	-0.209
Mof_C 	C 	0.72619	0.41705	0.69251	0.164
Mof_C 	C 	0.71312	0.39468	0.68021	-0.203
Mof_H 	H 	0.7238	0.3813	0.6708	0.087
Mof_C 	C 	0.68376	0.39161	0.68151	0.103
Mof_C 	C 	0.66837	0.41178	0.69613	-0.212
Mof_H 	H 	0.6489	0.4101	0.6972	0.117
Mof_C 	C 	0.68129	0.43416	0.70901	0.176
Mof_C 	C 	0.68096	0.35374	0.64487	-0.077
Mof_H 	H 	0.697	0.3613	0.6366	0.051
Mof_C 	C 	0.66971	0.36654	0.66874	-0.005
Mof_N 	N 	0.75857	0.41506	0.68904	-0.115
Mof_C 	C 	0.7714	0.4279	0.6665	0.349
Mof_O 	O 	0.7605	0.4368	0.6456	-0.261
Mof_O 	O 	0.79856	0.43125	0.6719	-0.295
Mof_C 	C 	0.805	0.4232	0.7017	0.262
Mof_H 	H 	0.821	0.4106	0.7025	-0.057
Mof_H 	H 	0.809	0.4398	0.7129	-0.02
Mof_C 	C 	0.77898	0.40896	0.71168	-0.505
Mof_H 	H 	0.7726	0.4179	0.7292	0.192
Mof_C 	C 	0.7821	0.37885	0.7163	1.057
Mof_H 	H 	0.7635	0.372	0.7221	-0.302
Mof_C 	C 	0.7902	0.3618	0.6913	-1.571
Mof_H 	H 	0.7786	0.3669	0.6755	0.486
Mof_H 	H 	0.7876	0.3422	0.6954	0.453
Mof_H 	H 	0.8096	0.3652	0.6868	0.478
Mof_C 	C 	0.8022	0.3721	0.7408	-1.534
Mof_H 	H 	0.8029	0.3521	0.7436	0.458
Mof_H 	H 	0.7955	0.381	0.7576	0.492
Mof_H 	H 	0.8207	0.379	0.7364	0.48
Mof_N 	N 	0.65922	0.45768	0.7188	-0.178
Mof_C 	C 	0.6436	0.4529	0.7418	0.391
Mof_O 	O 	0.6418	0.4321	0.7545	-0.291
Mof_O 	O 	0.6318	0.4763	0.7517	-0.243
Mof_C 	C 	0.6427	0.498	0.7369	0.018
Mof_H 	H 	0.6554	0.5086	0.7489	0.067
Mof_H 	H 	0.6276	0.5105	0.7313	0.058
Mof_C 	C 	0.6591	0.488	0.7101	0.005
Mof_H 	H 	0.6784	0.495	0.7118	0.048
Mof_O 	O 	0.79806	0.50268	0.69561	-0.447
Mof_N 	N 	0.84152	0.50454	0.66666	-0.127
Mof_C 	C 	0.82302	0.50454	0.69546	1.004
Mof_H 	H 	0.7961	0.5017	0.6715	-0.552
Mof_C 	C 	0.87123	0.50842	0.67604	-0.092
Mof_H 	H 	0.8846	0.4942	0.6701	0.081
Mof_H 	H 	0.874	0.5148	0.6953	0.082
Mof_C 	C 	0.22495	0.03864	0.27786	0.417
Mof_O 	O 	0.247	0.0295	0.28903	-0.453
Mof_O 	O 	0.21412	0.0303	0.25556	-0.456
Mof_C 	C 	0.21072	0.06257	0.29286	-0.209
Mof_C 	C 	0.22619	0.08295	0.30749	0.164
Mof_C 	C 	0.21312	0.10532	0.31979	-0.203
Mof_H 	H 	0.2238	0.1187	0.3292	0.087
Mof_C 	C 	0.18376	0.10839	0.31849	0.103
Mof_C 	C 	0.16837	0.08822	0.30387	-0.212
Mof_H 	H 	0.1489	0.0899	0.3028	0.117
Mof_C 	C 	0.18129	0.06584	0.29099	0.176
Mof_C 	C 	0.18096	0.14626	0.35513	-0.077
Mof_H 	H 	0.197	0.1387	0.3634	0.051
Mof_C 	C 	0.16971	0.13346	0.33126	-0.005
Mof_N 	N 	0.25857	0.08494	0.31096	-0.115
Mof_C 	C 	0.2714	0.0721	0.3335	0.349
Mof_O 	O 	0.2605	0.0632	0.3544	-0.261
Mof_O 	O 	0.29856	0.06875	0.3281	-0.296
Mof_C 	C 	0.305	0.0768	0.2983	0.263
Mof_H 	H 	0.321	0.0894	0.2975	-0.058
Mof_H 	H 	0.309	0.0602	0.2871	-0.021
Mof_C 	C 	0.27898	0.09104	0.28832	-0.505
Mof_H 	H 	0.2726	0.0821	0.2708	0.192
Mof_C 	C 	0.2821	0.12115	0.2837	1.057
Mof_H 	H 	0.2635	0.128	0.2779	-0.302
Mof_C 	C 	0.2902	0.1382	0.3087	-1.571
Mof_H 	H 	0.2786	0.1331	0.3245	0.486
Mof_H 	H 	0.2876	0.1578	0.3046	0.453
Mof_H 	H 	0.3096	0.1348	0.3132	0.478
Mof_C 	C 	0.3022	0.1279	0.2592	-1.534
Mof_H 	H 	0.3029	0.1479	0.2564	0.458
Mof_H 	H 	0.2955	0.119	0.2424	0.492
Mof_H 	H 	0.3207	0.121	0.2636	0.48
Mof_N 	N 	0.15922	0.04232	0.2812	-0.178
Mof_C 	C 	0.1436	0.0471	0.2582	0.391
Mof_O 	O 	0.1418	0.0679	0.2455	-0.291
Mof_O 	O 	0.1318	0.0237	0.2483	-0.242
Mof_C 	C 	0.1427	0.002	0.2631	0.01
Mof_H 	H 	0.1554	0.9914	0.2511	0.07
Mof_H 	H 	0.1276	0.9895	0.2687	0.062
Mof_C 	C 	0.1591	0.012	0.2899	0.007
Mof_H 	H 	0.1784	0.005	0.2882	0.047
Mof_O 	O 	0.29806	0.99732	0.30439	-0.458
Mof_N 	N 	0.34152	0.99546	0.33334	-0.123
Mof_C 	C 	0.32302	0.99546	0.30454	0.992
Mof_H 	H 	0.2961	0.9983	0.3285	-0.556
Mof_C 	C 	0.37123	0.99158	0.32396	-0.09
Mof_H 	H 	0.3846	0.0058	0.3299	0.079
Mof_H 	H 	0.374	0.9852	0.3047	0.082
Mof_C 	C 	0.22495	0.53864	0.77786	0.417
Mof_O 	O 	0.247	0.5295	0.78903	-0.452
Mof_O 	O 	0.21412	0.5303	0.75556	-0.456
Mof_C 	C 	0.21072	0.56257	0.79286	-0.209
Mof_C 	C 	0.22619	0.58295	0.80749	0.164
Mof_C 	C 	0.21312	0.60532	0.81979	-0.203
Mof_H 	H 	0.2238	0.6187	0.8292	0.087
Mof_C 	C 	0.18376	0.60839	0.81849	0.103
Mof_C 	C 	0.16837	0.58822	0.80387	-0.212
Mof_H 	H 	0.1489	0.5899	0.8028	0.117
Mof_C 	C 	0.18129	0.56584	0.79099	0.176
Mof_C 	C 	0.18096	0.64626	0.85513	-0.077
Mof_H 	H 	0.197	0.6387	0.8634	0.051
Mof_C 	C 	0.16971	0.63346	0.83126	-0.005
Mof_N 	N 	0.25857	0.58494	0.81096	-0.115
Mof_C 	C 	0.2714	0.5721	0.8335	0.349
Mof_O 	O 	0.2605	0.5632	0.8544	-0.261
Mof_O 	O 	0.29856	0.56875	0.8281	-0.295
Mof_C 	C 	0.305	0.5768	0.7983	0.262
Mof_H 	H 	0.321	0.5894	0.7975	-0.057
Mof_H 	H 	0.309	0.5602	0.7871	-0.02
Mof_C 	C 	0.27898	0.59104	0.78832	-0.505
Mof_H 	H 	0.2726	0.5821	0.7708	0.192
Mof_C 	C 	0.2821	0.62115	0.7837	1.057
Mof_H 	H 	0.2635	0.628	0.7779	-0.302
Mof_C 	C 	0.2902	0.6382	0.8087	-1.571
Mof_H 	H 	0.2786	0.6331	0.8245	0.486
Mof_H 	H 	0.2876	0.6578	0.8046	0.453
Mof_H 	H 	0.3096	0.6348	0.8132	0.478
Mof_C 	C 	0.3022	0.6279	0.7592	-1.534
Mof_H 	H 	0.3029	0.6479	0.7564	0.458
Mof_H 	H 	0.2955	0.619	0.7424	0.492
Mof_H 	H 	0.3207	0.621	0.7636	0.48
Mof_N 	N 	0.15922	0.54232	0.7812	-0.178
Mof_C 	C 	0.1436	0.5471	0.7582	0.391
Mof_O 	O 	0.1418	0.5679	0.7455	-0.291
Mof_O 	O 	0.1318	0.5237	0.7483	-0.243
Mof_C 	C 	0.1427	0.502	0.7631	0.018
Mof_H 	H 	0.1554	0.4914	0.7511	0.067
Mof_H 	H 	0.1276	0.4895	0.7687	0.058
Mof_C 	C 	0.1591	0.512	0.7899	0.005
Mof_H 	H 	0.1784	0.505	0.7882	0.048
Mof_O 	O 	0.29806	0.49732	0.80439	-0.447
Mof_N 	N 	0.34152	0.49546	0.83334	-0.127
Mof_C 	C 	0.32302	0.49546	0.80454	1.004
Mof_H 	H 	0.2961	0.4983	0.8285	-0.552
Mof_C 	C 	0.37123	0.49158	0.82396	-0.092
Mof_H 	H 	0.3846	0.5058	0.8299	0.081
Mof_H 	H 	0.374	0.4852	0.8047	0.082
Mof_C 	C 	0.72495	0.03864	0.77786	0.417
Mof_O 	O 	0.747	0.0295	0.78903	-0.453
Mof_O 	O 	0.71412	0.0303	0.75556	-0.456
Mof_C 	C 	0.71072	0.06257	0.79286	-0.209
Mof_C 	C 	0.72619	0.08295	0.80749	0.164
Mof_C 	C 	0.71312	0.10532	0.81979	-0.203
Mof_H 	H 	0.7238	0.1187	0.8292	0.087
Mof_C 	C 	0.68376	0.10839	0.81849	0.103
Mof_C 	C 	0.66837	0.08822	0.80387	-0.212
Mof_H 	H 	0.6489	0.0899	0.8028	0.117
Mof_C 	C 	0.68129	0.06584	0.79099	0.176
Mof_C 	C 	0.68096	0.14626	0.85513	-0.077
Mof_H 	H 	0.697	0.1387	0.8634	0.051
Mof_C 	C 	0.66971	0.13346	0.83126	-0.005
Mof_N 	N 	0.75857	0.08494	0.81096	-0.115
Mof_C 	C 	0.7714	0.0721	0.8335	0.349
Mof_O 	O 	0.7605	0.0632	0.8544	-0.261
Mof_O 	O 	0.79856	0.06875	0.8281	-0.296
Mof_C 	C 	0.805	0.0768	0.7983	0.263
Mof_H 	H 	0.821	0.0894	0.7975	-0.057
Mof_H 	H 	0.809	0.0602	0.7871	-0.021
Mof_C 	C 	0.77898	0.09104	0.78832	-0.505
Mof_H 	H 	0.7726	0.0821	0.7708	0.192
Mof_C 	C 	0.7821	0.12115	0.7837	1.057
Mof_H 	H 	0.7635	0.128	0.7779	-0.302
Mof_C 	C 	0.7902	0.1382	0.8087	-1.571
Mof_H 	H 	0.7786	0.1331	0.8245	0.486
Mof_H 	H 	0.7876	0.1578	0.8046	0.453
Mof_H 	H 	0.8096	0.1348	0.8132	0.478
Mof_C 	C 	0.8022	0.1279	0.7592	-1.534
Mof_H 	H 	0.8029	0.1479	0.7564	0.458
Mof_H 	H 	0.7955	0.119	0.7424	0.492
Mof_H 	H 	0.8207	0.121	0.7636	0.48
Mof_N 	N 	0.65922	0.04232	0.7812	-0.178
Mof_C 	C 	0.6436	0.0471	0.7582	0.391
Mof_O 	O 	0.6418	0.0679	0.7455	-0.291
Mof_O 	O 	0.6318	0.0237	0.7483	-0.242
Mof_C 	C 	0.6427	0.002	0.7631	0.01
Mof_H 	H 	0.6554	0.9914	0.7511	0.07
Mof_H 	H 	0.6276	0.9895	0.7687	0.062
Mof_C 	C 	0.6591	0.012	0.7899	0.007
Mof_H 	H 	0.6784	0.005	0.7882	0.047
Mof_O 	O 	0.79806	0.99732	0.80439	-0.458
Mof_N 	N 	0.84152	0.99546	0.83334	-0.123
Mof_C 	C 	0.82302	0.99546	0.80454	0.992
Mof_H 	H 	0.7961	0.9983	0.8285	-0.556
Mof_C 	C 	0.87123	0.99158	0.82396	-0.09
Mof_H 	H 	0.8846	0.0058	0.8299	0.08
Mof_H 	H 	0.874	0.9852	0.8047	0.082
Mof_C 	C 	0.72495	0.53864	0.27786	0.417
Mof_O 	O 	0.747	0.5295	0.28903	-0.452
Mof_O 	O 	0.71412	0.5303	0.25556	-0.456
Mof_C 	C 	0.71072	0.56257	0.29286	-0.209
Mof_C 	C 	0.72619	0.58295	0.30749	0.164
Mof_C 	C 	0.71312	0.60532	0.31979	-0.203
Mof_H 	H 	0.7238	0.6187	0.3292	0.087
Mof_C 	C 	0.68376	0.60839	0.31849	0.103
Mof_C 	C 	0.66837	0.58822	0.30387	-0.212
Mof_H 	H 	0.6489	0.5899	0.3028	0.117
Mof_C 	C 	0.68129	0.56584	0.29099	0.176
Mof_C 	C 	0.68096	0.64626	0.35513	-0.077
Mof_H 	H 	0.697	0.6387	0.3634	0.051
Mof_C 	C 	0.66971	0.63346	0.33126	-0.005
Mof_N 	N 	0.75857	0.58494	0.31096	-0.115
Mof_C 	C 	0.7714	0.5721	0.3335	0.349
Mof_O 	O 	0.7605	0.5632	0.3544	-0.261
Mof_O 	O 	0.79856	0.56875	0.3281	-0.295
Mof_C 	C 	0.805	0.5768	0.2983	0.262
Mof_H 	H 	0.821	0.5894	0.2975	-0.057
Mof_H 	H 	0.809	0.5602	0.2871	-0.02
Mof_C 	C 	0.77898	0.59104	0.28832	-0.505
Mof_H 	H 	0.7726	0.5821	0.2708	0.192
Mof_C 	C 	0.7821	0.62115	0.2837	1.057
Mof_H 	H 	0.7635	0.628	0.2779	-0.302
Mof_C 	C 	0.7902	0.6382	0.3087	-1.571
Mof_H 	H 	0.7786	0.6331	0.3245	0.486
Mof_H 	H 	0.7876	0.6578	0.3046	0.453
Mof_H 	H 	0.8096	0.6348	0.3132	0.478
Mof_C 	C 	0.8022	0.6279	0.2592	-1.534
Mof_H 	H 	0.8029	0.6479	0.2564	0.458
Mof_H 	H 	0.7955	0.619	0.2424	0.492
Mof_H 	H 	0.8207	0.621	0.2636	0.48
Mof_N 	N 	0.65922	0.54232	0.2812	-0.178
Mof_C 	C 	0.6436	0.5471	0.2582	0.391
Mof_O 	O 	0.6418	0.5679	0.2455	-0.291
Mof_O 	O 	0.6318	0.5237	0.2483	-0.243
Mof_C 	C 	0.6427	0.502	0.2631	0.018
Mof_H 	H 	0.6554	0.4914	0.2511	0.067
Mof_H 	H 	0.6276	0.4895	0.2687	0.058
Mof_C 	C 	0.6591	0.512	0.2899	0.005
Mof_H 	H 	0.6784	0.505	0.2882	0.048
Mof_O 	O 	0.79806	0.49732	0.30439	-0.447
Mof_N 	N 	0.84152	0.49546	0.33334	-0.127
Mof_C 	C 	0.82302	0.49546	0.30454	1.004
Mof_H 	H 	0.7961	0.4983	0.3285	-0.552
Mof_C 	C 	0.87123	0.49158	0.32396	-0.092
Mof_H 	H 	0.8846	0.5058	0.3299	0.081
Mof_H 	H 	0.874	0.4852	0.3047	0.082
Mof_C 	C 	0.77505	0.03864	0.72214	0.417
Mof_O 	O 	0.753	0.0295	0.71097	-0.453
Mof_O 	O 	0.78588	0.0303	0.74444	-0.456
Mof_C 	C 	0.78928	0.06257	0.70714	-0.209
Mof_C 	C 	0.77381	0.08295	0.69251	0.164
Mof_C 	C 	0.78688	0.10532	0.68021	-0.203
Mof_H 	H 	0.7762	0.1187	0.6708	0.087
Mof_C 	C 	0.81624	0.10839	0.68151	0.103
Mof_C 	C 	0.83163	0.08822	0.69613	-0.212
Mof_H 	H 	0.8511	0.0899	0.6972	0.117
Mof_C 	C 	0.81871	0.06584	0.70901	0.176
Mof_C 	C 	0.81904	0.14626	0.64487	-0.077
Mof_H 	H 	0.803	0.1387	0.6366	0.051
Mof_C 	C 	0.83029	0.13346	0.66874	-0.005
Mof_N 	N 	0.74143	0.08494	0.68904	-0.115
Mof_C 	C 	0.7286	0.0721	0.6665	0.349
Mof_O 	O 	0.7395	0.0632	0.6456	-0.261
Mof_O 	O 	0.70144	0.06875	0.6719	-0.296
Mof_C 	C 	0.695	0.0768	0.7017	0.263
Mof_H 	H 	0.679	0.0894	0.7025	-0.058
Mof_H 	H 	0.691	0.0602	0.7129	-0.021
Mof_C 	C 	0.72102	0.09104	0.71168	-0.505
Mof_H 	H 	0.7274	0.0821	0.7292	0.192
Mof_C 	C 	0.7179	0.12115	0.7163	1.057
Mof_H 	H 	0.7365	0.128	0.7221	-0.302
Mof_C 	C 	0.7098	0.1382	0.6913	-1.571
Mof_H 	H 	0.7214	0.1331	0.6755	0.486
Mof_H 	H 	0.7124	0.1578	0.6954	0.453
Mof_H 	H 	0.6904	0.1348	0.6868	0.478
Mof_C 	C 	0.6978	0.1279	0.7408	-1.534
Mof_H 	H 	0.6971	0.1479	0.7436	0.458
Mof_H 	H 	0.7045	0.119	0.7576	0.492
Mof_H 	H 	0.6793	0.121	0.7364	0.48
Mof_N 	N 	0.84078	0.04232	0.7188	-0.178
Mof_C 	C 	0.8564	0.0471	0.7418	0.391
Mof_O 	O 	0.8582	0.0679	0.7545	-0.291
Mof_O 	O 	0.8682	0.0237	0.7517	-0.242
Mof_C 	C 	0.8573	0.002	0.7369	0.01
Mof_H 	H 	0.8446	0.9914	0.7489	0.071
Mof_H 	H 	0.8724	0.9895	0.7313	0.062
Mof_C 	C 	0.8409	0.012	0.7101	0.007
Mof_H 	H 	0.8216	0.005	0.7118	0.047
Mof_O 	O 	0.70194	0.99732	0.69561	-0.458
Mof_N 	N 	0.65848	0.99546	0.66666	-0.123
Mof_C 	C 	0.67698	0.99546	0.69546	0.992
Mof_H 	H 	0.7039	0.9983	0.6715	-0.556
Mof_C 	C 	0.62877	0.99158	0.67604	-0.09
Mof_H 	H 	0.6154	0.0058	0.6701	0.079
Mof_H 	H 	0.626	0.9852	0.6953	0.082
Mof_C 	C 	0.77505	0.53864	0.22214	0.417
Mof_O 	O 	0.753	0.5295	0.21097	-0.452
Mof_O 	O 	0.78588	0.5303	0.24444	-0.456
Mof_C 	C 	0.78928	0.56257	0.20714	-0.209
Mof_C 	C 	0.77381	0.58295	0.19251	0.164
Mof_C 	C 	0.78688	0.60532	0.18021	-0.203
Mof_H 	H 	0.7762	0.6187	0.1708	0.087
Mof_C 	C 	0.81624	0.60839	0.18151	0.103
Mof_C 	C 	0.83163	0.58822	0.19613	-0.212
Mof_H 	H 	0.8511	0.5899	0.1972	0.117
Mof_C 	C 	0.81871	0.56584	0.20901	0.176
Mof_C 	C 	0.81904	0.64626	0.14487	-0.077
Mof_H 	H 	0.803	0.6387	0.1366	0.051
Mof_C 	C 	0.83029	0.63346	0.16874	-0.005
Mof_N 	N 	0.74143	0.58494	0.18904	-0.115
Mof_C 	C 	0.7286	0.5721	0.1665	0.349
Mof_O 	O 	0.7395	0.5632	0.1456	-0.261
Mof_O 	O 	0.70144	0.56875	0.1719	-0.295
Mof_C 	C 	0.695	0.5768	0.2017	0.262
Mof_H 	H 	0.679	0.5894	0.2025	-0.057
Mof_H 	H 	0.691	0.5602	0.2129	-0.02
Mof_C 	C 	0.72102	0.59104	0.21168	-0.505
Mof_H 	H 	0.7274	0.5821	0.2292	0.192
Mof_C 	C 	0.7179	0.62115	0.2163	1.057
Mof_H 	H 	0.7365	0.628	0.2221	-0.302
Mof_C 	C 	0.7098	0.6382	0.1913	-1.571
Mof_H 	H 	0.7214	0.6331	0.1755	0.486
Mof_H 	H 	0.7124	0.6578	0.1954	0.453
Mof_H 	H 	0.6904	0.6348	0.1868	0.478
Mof_C 	C 	0.6978	0.6279	0.2408	-1.534
Mof_H 	H 	0.6971	0.6479	0.2436	0.458
Mof_H 	H 	0.7045	0.619	0.2576	0.492
Mof_H 	H 	0.6793	0.621	0.2364	0.48
Mof_N 	N 	0.84078	0.54232	0.2188	-0.178
Mof_C 	C 	0.8564	0.5471	0.2418	0.391
Mof_O 	O 	0.8582	0.5679	0.2545	-0.291
Mof_O 	O 	0.8682	0.5237	0.2517	-0.243
Mof_C 	C 	0.8573	0.502	0.2369	0.018
Mof_H 	H 	0.8446	0.4914	0.2489	0.067
Mof_H 	H 	0.8724	0.4895	0.2313	0.058
Mof_C 	C 	0.8409	0.512	0.2101	0.005
Mof_H 	H 	0.8216	0.505	0.2118	0.048
Mof_O 	O 	0.70194	0.49732	0.19561	-0.447
Mof_N 	N 	0.65848	0.49546	0.16666	-0.127
Mof_C 	C 	0.67698	0.49546	0.19546	1.004
Mof_H 	H 	0.7039	0.4983	0.1715	-0.552
Mof_C 	C 	0.62877	0.49158	0.17604	-0.092
Mof_H 	H 	0.6154	0.5058	0.1701	0.081
Mof_H 	H 	0.626	0.4852	0.1953	0.082
Mof_C 	C 	0.27505	0.03864	0.22214	0.417
Mof_O 	O 	0.253	0.0295	0.21097	-0.453
Mof_O 	O 	0.28588	0.0303	0.24444	-0.456
Mof_C 	C 	0.28928	0.06257	0.20714	-0.209
Mof_C 	C 	0.27381	0.08295	0.19251	0.164
Mof_C 	C 	0.28688	0.10532	0.18021	-0.203
Mof_H 	H 	0.2762	0.1187	0.1708	0.087
Mof_C 	C 	0.31624	0.10839	0.18151	0.103
Mof_C 	C 	0.33163	0.08822	0.19613	-0.212
Mof_H 	H 	0.3511	0.0899	0.1972	0.117
Mof_C 	C 	0.31871	0.06584	0.20901	0.176
Mof_C 	C 	0.31904	0.14626	0.14487	-0.077
Mof_H 	H 	0.303	0.1387	0.1366	0.051
Mof_C 	C 	0.33029	0.13346	0.16874	-0.005
Mof_N 	N 	0.24143	0.08494	0.18904	-0.115
Mof_C 	C 	0.2286	0.0721	0.1665	0.349
Mof_O 	O 	0.2395	0.0632	0.1456	-0.261
Mof_O 	O 	0.20144	0.06875	0.1719	-0.296
Mof_C 	C 	0.195	0.0768	0.2017	0.263
Mof_H 	H 	0.179	0.0894	0.2025	-0.058
Mof_H 	H 	0.191	0.0602	0.2129	-0.021
Mof_C 	C 	0.22102	0.09104	0.21168	-0.505
Mof_H 	H 	0.2274	0.0821	0.2292	0.192
Mof_C 	C 	0.2179	0.12115	0.2163	1.057
Mof_H 	H 	0.2365	0.128	0.2221	-0.302
Mof_C 	C 	0.2098	0.1382	0.1913	-1.571
Mof_H 	H 	0.2214	0.1331	0.1755	0.486
Mof_H 	H 	0.2124	0.1578	0.1954	0.453
Mof_H 	H 	0.1904	0.1348	0.1868	0.478
Mof_C 	C 	0.1978	0.1279	0.2408	-1.534
Mof_H 	H 	0.1971	0.1479	0.2436	0.458
Mof_H 	H 	0.2045	0.119	0.2576	0.492
Mof_H 	H 	0.1793	0.121	0.2364	0.48
Mof_N 	N 	0.34078	0.04232	0.2188	-0.178
Mof_C 	C 	0.3564	0.0471	0.2418	0.391
Mof_O 	O 	0.3582	0.0679	0.2545	-0.291
Mof_O 	O 	0.3682	0.0237	0.2517	-0.242
Mof_C 	C 	0.3573	0.002	0.2369	0.01
Mof_H 	H 	0.3446	0.9914	0.2489	0.07
Mof_H 	H 	0.3724	0.9895	0.2313	0.062
Mof_C 	C 	0.3409	0.012	0.2101	0.007
Mof_H 	H 	0.3216	0.005	0.2118	0.047
Mof_O 	O 	0.20194	0.99732	0.19561	-0.458
Mof_N 	N 	0.15848	0.99546	0.16666	-0.123
Mof_C 	C 	0.17698	0.99546	0.19546	0.992
Mof_H 	H 	0.2039	0.9983	0.1715	-0.556
Mof_C 	C 	0.12877	0.99158	0.17604	-0.09
Mof_H 	H 	0.1154	0.0058	0.1701	0.079
Mof_H 	H 	0.126	0.9852	0.1953	0.082
Mof_C 	C 	0.27505	0.53864	0.72214	0.417
Mof_O 	O 	0.253	0.5295	0.71097	-0.452
Mof_O 	O 	0.28588	0.5303	0.74444	-0.456
Mof_C 	C 	0.28928	0.56257	0.70714	-0.209
Mof_C 	C 	0.27381	0.58295	0.69251	0.164
Mof_C 	C 	0.28688	0.60532	0.68021	-0.203
Mof_H 	H 	0.2762	0.6187	0.6708	0.087
Mof_C 	C 	0.31624	0.60839	0.68151	0.103
Mof_C 	C 	0.33163	0.58822	0.69613	-0.212
Mof_H 	H 	0.3511	0.5899	0.6972	0.117
Mof_C 	C 	0.31871	0.56584	0.70901	0.176
Mof_C 	C 	0.31904	0.64626	0.64487	-0.077
Mof_H 	H 	0.303	0.6387	0.6366	0.051
Mof_C 	C 	0.33029	0.63346	0.66874	-0.005
Mof_N 	N 	0.24143	0.58494	0.68904	-0.115
Mof_C 	C 	0.2286	0.5721	0.6665	0.349
Mof_O 	O 	0.2395	0.5632	0.6456	-0.261
Mof_O 	O 	0.20144	0.56875	0.6719	-0.295
Mof_C 	C 	0.195	0.5768	0.7017	0.262
Mof_H 	H 	0.179	0.5894	0.7025	-0.057
Mof_H 	H 	0.191	0.5602	0.7129	-0.02
Mof_C 	C 	0.22102	0.59104	0.71168	-0.505
Mof_H 	H 	0.2274	0.5821	0.7292	0.192
Mof_C 	C 	0.2179	0.62115	0.7163	1.057
Mof_H 	H 	0.2365	0.628	0.7221	-0.302
Mof_C 	C 	0.2098	0.6382	0.6913	-1.571
Mof_H 	H 	0.2214	0.6331	0.6755	0.486
Mof_H 	H 	0.2124	0.6578	0.6954	0.453
Mof_H 	H 	0.1904	0.6348	0.6868	0.478
Mof_C 	C 	0.1978	0.6279	0.7408	-1.534
Mof_H 	H 	0.1971	0.6479	0.7436	0.458
Mof_H 	H 	0.2045	0.619	0.7576	0.492
Mof_H 	H 	0.1793	0.621	0.7364	0.48
Mof_N 	N 	0.34078	0.54232	0.7188	-0.178
Mof_C 	C 	0.3564	0.5471	0.7418	0.391
Mof_O 	O 	0.3582	0.5679	0.7545	-0.291
Mof_O 	O 	0.3682	0.5237	0.7517	-0.243
Mof_C 	C 	0.3573	0.502	0.7369	0.018
Mof_H 	H 	0.3446	0.4914	0.7489	0.067
Mof_H 	H 	0.3724	0.4895	0.7313	0.058
Mof_C 	C 	0.3409	0.512	0.7101	0.005
Mof_H 	H 	0.3216	0.505	0.7118	0.048
Mof_O 	O 	0.20194	0.49732	0.69561	-0.447
Mof_N 	N 	0.15848	0.49546	0.66666	-0.127
Mof_C 	C 	0.17698	0.49546	0.69546	1.004
Mof_H 	H 	0.2039	0.4983	0.6715	-0.552
Mof_C 	C 	0.12877	0.49158	0.67604	-0.092
Mof_H 	H 	0.1154	0.5058	0.6701	0.081
Mof_H 	H 	0.126	0.4852	0.6953	0.082
Mof_C 	C 	0.77505	0.96136	0.27786	0.417
Mof_O 	O 	0.753	0.9705	0.28903	-0.452
Mof_O 	O 	0.78588	0.9697	0.25556	-0.455
Mof_C 	C 	0.78928	0.93743	0.29286	-0.208
Mof_C 	C 	0.77381	0.91705	0.30749	0.164
Mof_C 	C 	0.78688	0.89468	0.31979	-0.203
Mof_H 	H 	0.7762	0.8813	0.3292	0.087
Mof_C 	C 	0.81624	0.89161	0.31849	0.103
Mof_C 	C 	0.83163	0.91178	0.30387	-0.212
Mof_H 	H 	0.8511	0.9101	0.3028	0.117
Mof_C 	C 	0.81871	0.93416	0.29099	0.176
Mof_C 	C 	0.81904	0.85374	0.35513	-0.077
Mof_H 	H 	0.803	0.8613	0.3634	0.051
Mof_C 	C 	0.83029	0.86654	0.33126	-0.005
Mof_N 	N 	0.74143	0.91506	0.31096	-0.115
Mof_C 	C 	0.7286	0.9279	0.3335	0.349
Mof_O 	O 	0.7395	0.9368	0.3544	-0.261
Mof_O 	O 	0.70144	0.93125	0.3281	-0.295
Mof_C 	C 	0.695	0.9232	0.2983	0.262
Mof_H 	H 	0.679	0.9106	0.2975	-0.057
Mof_H 	H 	0.691	0.9398	0.2871	-0.02
Mof_C 	C 	0.72102	0.90896	0.28832	-0.504
Mof_H 	H 	0.7274	0.9179	0.2708	0.192
Mof_C 	C 	0.7179	0.87885	0.2837	1.057
Mof_H 	H 	0.7365	0.872	0.2779	-0.301
Mof_C 	C 	0.7098	0.8618	0.3087	-1.571
Mof_H 	H 	0.7214	0.8669	0.3245	0.486
Mof_H 	H 	0.7124	0.8422	0.3046	0.453
Mof_H 	H 	0.6904	0.8652	0.3132	0.478
Mof_C 	C 	0.6978	0.8721	0.2592	-1.534
Mof_H 	H 	0.6971	0.8521	0.2564	0.458
Mof_H 	H 	0.7045	0.881	0.2424	0.492
Mof_H 	H 	0.6793	0.879	0.2636	0.48
Mof_N 	N 	0.84078	0.95768	0.2812	-0.177
Mof_C 	C 	0.8564	0.9529	0.2582	0.391
Mof_O 	O 	0.8582	0.9321	0.2455	-0.291
Mof_O 	O 	0.8682	0.9763	0.2483	-0.244
Mof_C 	C 	0.8573	0.998	0.2631	0.026
Mof_H 	H 	0.8446	0.0086	0.2511	0.064
Mof_H 	H 	0.8724	0.0105	0.2687	0.055
Mof_C 	C 	0.8409	0.988	0.2899	0.004
Mof_H 	H 	0.8216	0.995	0.2882	0.049
Mof_O 	O 	0.70194	0.00268	0.30439	-0.435
Mof_N 	N 	0.65848	0.00454	0.33334	-0.131
Mof_C 	C 	0.67698	0.00454	0.30454	1.015
Mof_H 	H 	0.7039	0.0017	0.3285	-0.547
Mof_C 	C 	0.62877	0.00842	0.32396	-0.095
Mof_H 	H 	0.6154	0.9942	0.3299	0.083
Mof_H 	H 	0.626	0.0148	0.3047	0.083
Mof_C 	C 	0.77505	0.46136	0.77786	0.417
Mof_O 	O 	0.753	0.4705	0.78903	-0.452
Mof_O 	O 	0.78588	0.4697	0.75556	-0.456
Mof_C 	C 	0.78928	0.43743	0.79286	-0.209
Mof_C 	C 	0.77381	0.41705	0.80749	0.164
Mof_C 	C 	0.78688	0.39468	0.81979	-0.203
Mof_H 	H 	0.7762	0.3813	0.8292	0.087
Mof_C 	C 	0.81624	0.39161	0.81849	0.103
Mof_C 	C 	0.83163	0.41178	0.80387	-0.212
Mof_H 	H 	0.8511	0.4101	0.8028	0.117
Mof_C 	C 	0.81871	0.43416	0.79099	0.176
Mof_C 	C 	0.81904	0.35374	0.85513	-0.077
Mof_H 	H 	0.803	0.3613	0.8634	0.051
Mof_C 	C 	0.83029	0.36654	0.83126	-0.005
Mof_N 	N 	0.74143	0.41506	0.81096	-0.115
Mof_C 	C 	0.7286	0.4279	0.8335	0.349
Mof_O 	O 	0.7395	0.4368	0.8544	-0.261
Mof_O 	O 	0.70144	0.43125	0.8281	-0.295
Mof_C 	C 	0.695	0.4232	0.7983	0.262
Mof_H 	H 	0.679	0.4106	0.7975	-0.057
Mof_H 	H 	0.691	0.4398	0.7871	-0.02
Mof_C 	C 	0.72102	0.40896	0.78832	-0.505
Mof_H 	H 	0.7274	0.4179	0.7708	0.192
Mof_C 	C 	0.7179	0.37885	0.7837	1.057
Mof_H 	H 	0.7365	0.372	0.7779	-0.302
Mof_C 	C 	0.7098	0.3618	0.8087	-1.571
Mof_H 	H 	0.7214	0.3669	0.8245	0.486
Mof_H 	H 	0.7124	0.3422	0.8046	0.453
Mof_H 	H 	0.6904	0.3652	0.8132	0.478
Mof_C 	C 	0.6978	0.3721	0.7592	-1.534
Mof_H 	H 	0.6971	0.3521	0.7564	0.458
Mof_H 	H 	0.7045	0.381	0.7424	0.492
Mof_H 	H 	0.6793	0.379	0.7636	0.48
Mof_N 	N 	0.84078	0.45768	0.7812	-0.178
Mof_C 	C 	0.8564	0.4529	0.7582	0.391
Mof_O 	O 	0.8582	0.4321	0.7455	-0.291
Mof_O 	O 	0.8682	0.4763	0.7483	-0.243
Mof_C 	C 	0.8573	0.498	0.7631	0.018
Mof_H 	H 	0.8446	0.5086	0.7511	0.067
Mof_H 	H 	0.8724	0.5105	0.7687	0.059
Mof_C 	C 	0.8409	0.488	0.7899	0.005
Mof_H 	H 	0.8216	0.495	0.7882	0.048
Mof_O 	O 	0.70194	0.50268	0.80439	-0.447
Mof_N 	N 	0.65848	0.50454	0.83334	-0.127
Mof_C 	C 	0.67698	0.50454	0.80454	1.004
Mof_H 	H 	0.7039	0.5017	0.8285	-0.552
Mof_C 	C 	0.62877	0.50842	0.82396	-0.092
Mof_H 	H 	0.6154	0.4942	0.8299	0.081
Mof_H 	H 	0.626	0.5148	0.8047	0.082
Mof_C 	C 	0.27505	0.96136	0.77786	0.417
Mof_O 	O 	0.253	0.9705	0.78903	-0.452
Mof_O 	O 	0.28588	0.9697	0.75556	-0.455
Mof_C 	C 	0.28928	0.93743	0.79286	-0.208
Mof_C 	C 	0.27381	0.91705	0.80749	0.164
Mof_C 	C 	0.28688	0.89468	0.81979	-0.203
Mof_H 	H 	0.2762	0.8813	0.8292	0.087
Mof_C 	C 	0.31624	0.89161	0.81849	0.103
Mof_C 	C 	0.33163	0.91178	0.80387	-0.212
Mof_H 	H 	0.3511	0.9101	0.8028	0.117
Mof_C 	C 	0.31871	0.93416	0.79099	0.176
Mof_C 	C 	0.31904	0.85374	0.85513	-0.077
Mof_H 	H 	0.303	0.8613	0.8634	0.051
Mof_C 	C 	0.33029	0.86654	0.83126	-0.005
Mof_N 	N 	0.24143	0.91506	0.81096	-0.115
Mof_C 	C 	0.2286	0.9279	0.8335	0.349
Mof_O 	O 	0.2395	0.9368	0.8544	-0.26
Mof_O 	O 	0.20144	0.93125	0.8281	-0.295
Mof_C 	C 	0.195	0.9232	0.7983	0.262
Mof_H 	H 	0.179	0.9106	0.7975	-0.057
Mof_H 	H 	0.191	0.9398	0.7871	-0.02
Mof_C 	C 	0.22102	0.90896	0.78832	-0.505
Mof_H 	H 	0.2274	0.9179	0.7708	0.192
Mof_C 	C 	0.2179	0.87885	0.7837	1.057
Mof_H 	H 	0.2365	0.872	0.7779	-0.301
Mof_C 	C 	0.2098	0.8618	0.8087	-1.571
Mof_H 	H 	0.2214	0.8669	0.8245	0.486
Mof_H 	H 	0.2124	0.8422	0.8046	0.453
Mof_H 	H 	0.1904	0.8652	0.8132	0.478
Mof_C 	C 	0.1978	0.8721	0.7592	-1.534
Mof_H 	H 	0.1971	0.8521	0.7564	0.458
Mof_H 	H 	0.2045	0.881	0.7424	0.492
Mof_H 	H 	0.1793	0.879	0.7636	0.48
Mof_N 	N 	0.34078	0.95768	0.7812	-0.177
Mof_C 	C 	0.3564	0.9529	0.7582	0.391
Mof_O 	O 	0.3582	0.9321	0.7455	-0.291
Mof_O 	O 	0.3682	0.9763	0.7483	-0.244
Mof_C 	C 	0.3573	0.998	0.7631	0.026
Mof_H 	H 	0.3446	0.0086	0.7511	0.064
Mof_H 	H 	0.3724	0.0105	0.7687	0.055
Mof_C 	C 	0.3409	0.988	0.7899	0.004
Mof_H 	H 	0.3216	0.995	0.7882	0.049
Mof_O 	O 	0.20194	0.00268	0.80439	-0.435
Mof_N 	N 	0.15848	0.00454	0.83334	-0.131
Mof_C 	C 	0.17698	0.00454	0.80454	1.015
Mof_H 	H 	0.2039	0.0017	0.8285	-0.547
Mof_C 	C 	0.12877	0.00842	0.82396	-0.095
Mof_H 	H 	0.1154	0.9942	0.8299	0.083
Mof_H 	H 	0.126	0.0148	0.8047	0.083
Mof_C 	C 	0.27505	0.46136	0.27786	0.417
Mof_O 	O 	0.253	0.4705	0.28903	-0.452
Mof_O 	O 	0.28588	0.4697	0.25556	-0.456
Mof_C 	C 	0.28928	0.43743	0.29286	-0.209
Mof_C 	C 	0.27381	0.41705	0.30749	0.164
Mof_C 	C 	0.28688	0.39468	0.31979	-0.203
Mof_H 	H 	0.2762	0.3813	0.3292	0.087
Mof_C 	C 	0.31624	0.39161	0.31849	0.103
Mof_C 	C 	0.33163	0.41178	0.30387	-0.212
Mof_H 	H 	0.3511	0.4101	0.3028	0.117
Mof_C 	C 	0.31871	0.43416	0.29099	0.176
Mof_C 	C 	0.31904	0.35374	0.35513	-0.077
Mof_H 	H 	0.303	0.3613	0.3634	0.051
Mof_C 	C 	0.33029	0.36654	0.33126	-0.005
Mof_N 	N 	0.24143	0.41506	0.31096	-0.115
Mof_C 	C 	0.2286	0.4279	0.3335	0.349
Mof_O 	O 	0.2395	0.4368	0.3544	-0.261
Mof_O 	O 	0.20144	0.43125	0.3281	-0.295
Mof_C 	C 	0.195	0.4232	0.2983	0.262
Mof_H 	H 	0.179	0.4106	0.2975	-0.057
Mof_H 	H 	0.191	0.4398	0.2871	-0.02
Mof_C 	C 	0.22102	0.40896	0.28832	-0.505
Mof_H 	H 	0.2274	0.4179	0.2708	0.192
Mof_C 	C 	0.2179	0.37885	0.2837	1.057
Mof_H 	H 	0.2365	0.372	0.2779	-0.302
Mof_C 	C 	0.2098	0.3618	0.3087	-1.571
Mof_H 	H 	0.2214	0.3669	0.3245	0.486
Mof_H 	H 	0.2124	0.3422	0.3046	0.453
Mof_H 	H 	0.1904	0.3652	0.3132	0.478
Mof_C 	C 	0.1978	0.3721	0.2592	-1.534
Mof_H 	H 	0.1971	0.3521	0.2564	0.458
Mof_H 	H 	0.2045	0.381	0.2424	0.492
Mof_H 	H 	0.1793	0.379	0.2636	0.48
Mof_N 	N 	0.34078	0.45768	0.2812	-0.178
Mof_C 	C 	0.3564	0.4529	0.2582	0.391
Mof_O 	O 	0.3582	0.4321	0.2455	-0.291
Mof_O 	O 	0.3682	0.4763	0.2483	-0.243
Mof_C 	C 	0.3573	0.498	0.2631	0.018
Mof_H 	H 	0.3446	0.5086	0.2511	0.067
Mof_H 	H 	0.3724	0.5105	0.2687	0.058
Mof_C 	C 	0.3409	0.488	0.2899	0.005
Mof_H 	H 	0.3216	0.495	0.2882	0.048
Mof_O 	O 	0.20194	0.50268	0.30439	-0.447
Mof_N 	N 	0.15848	0.50454	0.33334	-0.127
Mof_C 	C 	0.17698	0.50454	0.30454	1.004
Mof_H 	H 	0.2039	0.5017	0.3285	-0.552
Mof_C 	C 	0.12877	0.50842	0.32396	-0.092
Mof_H 	H 	0.1154	0.4942	0.3299	0.081
Mof_H 	H 	0.126	0.5148	0.3047	0.082
Mof_C 	C 	0.72214	0.22495	0.96136	0.417
Mof_O 	O 	0.71097	0.247	0.9705	-0.452
Mof_O 	O 	0.74444	0.21412	0.9697	-0.455
Mof_C 	C 	0.70714	0.21072	0.93743	-0.208
Mof_C 	C 	0.69251	0.22619	0.91705	0.164
Mof_C 	C 	0.68021	0.21312	0.89468	-0.203
Mof_H 	H 	0.6708	0.2238	0.8813	0.087
Mof_C 	C 	0.68151	0.18376	0.89161	0.103
Mof_C 	C 	0.69613	0.16837	0.91178	-0.212
Mof_H 	H 	0.6972	0.1489	0.9101	0.117
Mof_C 	C 	0.70901	0.18129	0.93416	0.176
Mof_C 	C 	0.64487	0.18096	0.85374	-0.077
Mof_H 	H 	0.6366	0.197	0.8613	0.051
Mof_C 	C 	0.66874	0.16971	0.86654	-0.005
Mof_N 	N 	0.68904	0.25857	0.91506	-0.115
Mof_C 	C 	0.6665	0.2714	0.9279	0.349
Mof_O 	O 	0.6456	0.2605	0.9368	-0.261
Mof_O 	O 	0.6719	0.29856	0.93125	-0.295
Mof_C 	C 	0.7017	0.305	0.9232	0.262
Mof_H 	H 	0.7025	0.321	0.9106	-0.057
Mof_H 	H 	0.7129	0.309	0.9398	-0.02
Mof_C 	C 	0.71168	0.27898	0.90896	-0.504
Mof_H 	H 	0.7292	0.2726	0.9179	0.192
Mof_C 	C 	0.7163	0.2821	0.87885	1.057
Mof_H 	H 	0.7221	0.2635	0.872	-0.301
Mof_C 	C 	0.6913	0.2902	0.8618	-1.571
Mof_H 	H 	0.6755	0.2786	0.8669	0.486
Mof_H 	H 	0.6954	0.2876	0.8422	0.453
Mof_H 	H 	0.6868	0.3096	0.8652	0.478
Mof_C 	C 	0.7408	0.3022	0.8721	-1.534
Mof_H 	H 	0.7436	0.3029	0.8521	0.458
Mof_H 	H 	0.7576	0.2955	0.881	0.492
Mof_H 	H 	0.7364	0.3207	0.879	0.48
Mof_N 	N 	0.7188	0.15922	0.95768	-0.177
Mof_C 	C 	0.7418	0.1436	0.9529	0.391
Mof_O 	O 	0.7545	0.1418	0.9321	-0.291
Mof_O 	O 	0.7517	0.1318	0.9763	-0.244
Mof_C 	C 	0.7369	0.1427	0.998	0.026
Mof_H 	H 	0.7489	0.1554	0.0086	0.064
Mof_H 	H 	0.7313	0.1276	0.0105	0.055
Mof_C 	C 	0.7101	0.1591	0.988	0.004
Mof_H 	H 	0.7118	0.1784	0.995	0.049
Mof_O 	O 	0.69561	0.29806	0.00268	-0.435
Mof_N 	N 	0.66666	0.34152	0.00454	-0.131
Mof_C 	C 	0.69546	0.32302	0.00454	1.015
Mof_H 	H 	0.6715	0.2961	0.0017	-0.547
Mof_C 	C 	0.67604	0.37123	0.00842	-0.095
Mof_H 	H 	0.6701	0.3846	0.9942	0.083
Mof_H 	H 	0.6953	0.374	0.0148	0.083
Mof_C 	C 	0.72214	0.72495	0.46136	0.417
Mof_O 	O 	0.71097	0.747	0.4705	-0.452
Mof_O 	O 	0.74444	0.71412	0.4697	-0.456
Mof_C 	C 	0.70714	0.71072	0.43743	-0.209
Mof_C 	C 	0.69251	0.72619	0.41705	0.164
Mof_C 	C 	0.68021	0.71312	0.39468	-0.203
Mof_H 	H 	0.6708	0.7238	0.3813	0.087
Mof_C 	C 	0.68151	0.68376	0.39161	0.103
Mof_C 	C 	0.69613	0.66837	0.41178	-0.212
Mof_H 	H 	0.6972	0.6489	0.4101	0.117
Mof_C 	C 	0.70901	0.68129	0.43416	0.176
Mof_C 	C 	0.64487	0.68096	0.35374	-0.077
Mof_H 	H 	0.6366	0.697	0.3613	0.051
Mof_C 	C 	0.66874	0.66971	0.36654	-0.005
Mof_N 	N 	0.68904	0.75857	0.41506	-0.115
Mof_C 	C 	0.6665	0.7714	0.4279	0.349
Mof_O 	O 	0.6456	0.7605	0.4368	-0.261
Mof_O 	O 	0.6719	0.79856	0.43125	-0.295
Mof_C 	C 	0.7017	0.805	0.4232	0.262
Mof_H 	H 	0.7025	0.821	0.4106	-0.057
Mof_H 	H 	0.7129	0.809	0.4398	-0.02
Mof_C 	C 	0.71168	0.77898	0.40896	-0.505
Mof_H 	H 	0.7292	0.7726	0.4179	0.192
Mof_C 	C 	0.7163	0.7821	0.37885	1.057
Mof_H 	H 	0.7221	0.7635	0.372	-0.302
Mof_C 	C 	0.6913	0.7902	0.3618	-1.571
Mof_H 	H 	0.6755	0.7786	0.3669	0.486
Mof_H 	H 	0.6954	0.7876	0.3422	0.453
Mof_H 	H 	0.6868	0.8096	0.3652	0.478
Mof_C 	C 	0.7408	0.8022	0.3721	-1.534
Mof_H 	H 	0.7436	0.8029	0.3521	0.458
Mof_H 	H 	0.7576	0.7955	0.381	0.492
Mof_H 	H 	0.7364	0.8207	0.379	0.48
Mof_N 	N 	0.7188	0.65922	0.45768	-0.178
Mof_C 	C 	0.7418	0.6436	0.4529	0.391
Mof_O 	O 	0.7545	0.6418	0.4321	-0.291
Mof_O 	O 	0.7517	0.6318	0.4763	-0.243
Mof_C 	C 	0.7369	0.6427	0.498	0.018
Mof_H 	H 	0.7489	0.6554	0.5086	0.067
Mof_H 	H 	0.7313	0.6276	0.5105	0.058
Mof_C 	C 	0.7101	0.6591	0.488	0.005
Mof_H 	H 	0.7118	0.6784	0.495	0.048
Mof_O 	O 	0.69561	0.79806	0.50268	-0.447
Mof_N 	N 	0.66666	0.84152	0.50454	-0.127
Mof_C 	C 	0.69546	0.82302	0.50454	1.004
Mof_H 	H 	0.6715	0.7961	0.5017	-0.552
Mof_C 	C 	0.67604	0.87123	0.50842	-0.092
Mof_H 	H 	0.6701	0.8846	0.4942	0.081
Mof_H 	H 	0.6953	0.874	0.5148	0.082
Mof_C 	C 	0.22214	0.22495	0.46136	0.417
Mof_O 	O 	0.21097	0.247	0.4705	-0.452
Mof_O 	O 	0.24444	0.21412	0.4697	-0.456
Mof_C 	C 	0.20714	0.21072	0.43743	-0.209
Mof_C 	C 	0.19251	0.22619	0.41705	0.164
Mof_C 	C 	0.18021	0.21312	0.39468	-0.203
Mof_H 	H 	0.1708	0.2238	0.3813	0.087
Mof_C 	C 	0.18151	0.18376	0.39161	0.103
Mof_C 	C 	0.19613	0.16837	0.41178	-0.212
Mof_H 	H 	0.1972	0.1489	0.4101	0.117
Mof_C 	C 	0.20901	0.18129	0.43416	0.176
Mof_C 	C 	0.14487	0.18096	0.35374	-0.077
Mof_H 	H 	0.1366	0.197	0.3613	0.051
Mof_C 	C 	0.16874	0.16971	0.36654	-0.005
Mof_N 	N 	0.18904	0.25857	0.41506	-0.115
Mof_C 	C 	0.1665	0.2714	0.4279	0.349
Mof_O 	O 	0.1456	0.2605	0.4368	-0.261
Mof_O 	O 	0.1719	0.29856	0.43125	-0.295
Mof_C 	C 	0.2017	0.305	0.4232	0.262
Mof_H 	H 	0.2025	0.321	0.4106	-0.057
Mof_H 	H 	0.2129	0.309	0.4398	-0.02
Mof_C 	C 	0.21168	0.27898	0.40896	-0.505
Mof_H 	H 	0.2292	0.2726	0.4179	0.192
Mof_C 	C 	0.2163	0.2821	0.37885	1.057
Mof_H 	H 	0.2221	0.2635	0.372	-0.302
Mof_C 	C 	0.1913	0.2902	0.3618	-1.571
Mof_H 	H 	0.1755	0.2786	0.3669	0.486
Mof_H 	H 	0.1954	0.2876	0.3422	0.453
Mof_H 	H 	0.1868	0.3096	0.3652	0.478
Mof_C 	C 	0.2408	0.3022	0.3721	-1.534
Mof_H 	H 	0.2436	0.3029	0.3521	0.458
Mof_H 	H 	0.2576	0.2955	0.381	0.492
Mof_H 	H 	0.2364	0.3207	0.379	0.48
Mof_N 	N 	0.2188	0.15922	0.45768	-0.178
Mof_C 	C 	0.2418	0.1436	0.4529	0.391
Mof_O 	O 	0.2545	0.1418	0.4321	-0.291
Mof_O 	O 	0.2517	0.1318	0.4763	-0.243
Mof_C 	C 	0.2369	0.1427	0.498	0.018
Mof_H 	H 	0.2489	0.1554	0.5086	0.067
Mof_H 	H 	0.2313	0.1276	0.5105	0.058
Mof_C 	C 	0.2101	0.1591	0.488	0.005
Mof_H 	H 	0.2118	0.1784	0.495	0.048
Mof_O 	O 	0.19561	0.29806	0.50268	-0.447
Mof_N 	N 	0.16666	0.34152	0.50454	-0.127
Mof_C 	C 	0.19546	0.32302	0.50454	1.004
Mof_H 	H 	0.1715	0.2961	0.5017	-0.552
Mof_C 	C 	0.17604	0.37123	0.50842	-0.092
Mof_H 	H 	0.1701	0.3846	0.4942	0.081
Mof_H 	H 	0.1953	0.374	0.5148	0.082
Mof_C 	C 	0.22214	0.72495	0.96136	0.417
Mof_O 	O 	0.21097	0.747	0.9705	-0.452
Mof_O 	O 	0.24444	0.71412	0.9697	-0.455
Mof_C 	C 	0.20714	0.71072	0.93743	-0.208
Mof_C 	C 	0.19251	0.72619	0.91705	0.164
Mof_C 	C 	0.18021	0.71312	0.89468	-0.203
Mof_H 	H 	0.1708	0.7238	0.8813	0.087
Mof_C 	C 	0.18151	0.68376	0.89161	0.103
Mof_C 	C 	0.19613	0.66837	0.91178	-0.212
Mof_H 	H 	0.1972	0.6489	0.9101	0.117
Mof_C 	C 	0.20901	0.68129	0.93416	0.176
Mof_C 	C 	0.14487	0.68096	0.85374	-0.077
Mof_H 	H 	0.1366	0.697	0.8613	0.051
Mof_C 	C 	0.16874	0.66971	0.86654	-0.005
Mof_N 	N 	0.18904	0.75857	0.91506	-0.115
Mof_C 	C 	0.1665	0.7714	0.9279	0.349
Mof_O 	O 	0.1456	0.7605	0.9368	-0.261
Mof_O 	O 	0.1719	0.79856	0.93125	-0.295
Mof_C 	C 	0.2017	0.805	0.9232	0.262
Mof_H 	H 	0.2025	0.821	0.9106	-0.057
Mof_H 	H 	0.2129	0.809	0.9398	-0.02
Mof_C 	C 	0.21168	0.77898	0.90896	-0.504
Mof_H 	H 	0.2292	0.7726	0.9179	0.192
Mof_C 	C 	0.2163	0.7821	0.87885	1.057
Mof_H 	H 	0.2221	0.7635	0.872	-0.301
Mof_C 	C 	0.1913	0.7902	0.8618	-1.571
Mof_H 	H 	0.1755	0.7786	0.8669	0.486
Mof_H 	H 	0.1954	0.7876	0.8422	0.453
Mof_H 	H 	0.1868	0.8096	0.8652	0.478
Mof_C 	C 	0.2408	0.8022	0.8721	-1.534
Mof_H 	H 	0.2436	0.8029	0.8521	0.458
Mof_H 	H 	0.2576	0.7955	0.881	0.492
Mof_H 	H 	0.2364	0.8207	0.879	0.48
Mof_N 	N 	0.2188	0.65922	0.95768	-0.177
Mof_C 	C 	0.2418	0.6436	0.9529	0.391
Mof_O 	O 	0.2545	0.6418	0.9321	-0.291
Mof_O 	O 	0.2517	0.6318	0.9763	-0.244
Mof_C 	C 	0.2369	0.6427	0.998	0.026
Mof_H 	H 	0.2489	0.6554	0.0086	0.064
Mof_H 	H 	0.2313	0.6276	0.0105	0.055
Mof_C 	C 	0.2101	0.6591	0.988	0.004
Mof_H 	H 	0.2118	0.6784	0.995	0.049
Mof_O 	O 	0.19561	0.79806	0.00268	-0.435
Mof_N 	N 	0.16666	0.84152	0.00454	-0.131
Mof_C 	C 	0.19546	0.82302	0.00454	1.015
Mof_H 	H 	0.1715	0.7961	0.0017	-0.547
Mof_C 	C 	0.17604	0.87123	0.00842	-0.095
Mof_H 	H 	0.1701	0.8846	0.9942	0.083
Mof_H 	H 	0.1953	0.874	0.0148	0.083
Mof_C 	C 	0.27786	0.22495	0.03864	0.417
Mof_O 	O 	0.28903	0.247	0.0295	-0.453
Mof_O 	O 	0.25556	0.21412	0.0303	-0.456
Mof_C 	C 	0.29286	0.21072	0.06257	-0.209
Mof_C 	C 	0.30749	0.22619	0.08295	0.164
Mof_C 	C 	0.31979	0.21312	0.10532	-0.203
Mof_H 	H 	0.3292	0.2238	0.1187	0.087
Mof_C 	C 	0.31849	0.18376	0.10839	0.103
Mof_C 	C 	0.30387	0.16837	0.08822	-0.212
Mof_H 	H 	0.3028	0.1489	0.0899	0.117
Mof_C 	C 	0.29099	0.18129	0.06584	0.176
Mof_C 	C 	0.35513	0.18096	0.14626	-0.077
Mof_H 	H 	0.3634	0.197	0.1387	0.051
Mof_C 	C 	0.33126	0.16971	0.13346	-0.005
Mof_N 	N 	0.31096	0.25857	0.08494	-0.115
Mof_C 	C 	0.3335	0.2714	0.0721	0.349
Mof_O 	O 	0.3544	0.2605	0.0632	-0.261
Mof_O 	O 	0.3281	0.29856	0.06875	-0.296
Mof_C 	C 	0.2983	0.305	0.0768	0.263
Mof_H 	H 	0.2975	0.321	0.0894	-0.058
Mof_H 	H 	0.2871	0.309	0.0602	-0.021
Mof_C 	C 	0.28832	0.27898	0.09104	-0.505
Mof_H 	H 	0.2708	0.2726	0.0821	0.192
Mof_C 	C 	0.2837	0.2821	0.12115	1.057
Mof_H 	H 	0.2779	0.2635	0.128	-0.302
Mof_C 	C 	0.3087	0.2902	0.1382	-1.571
Mof_H 	H 	0.3245	0.2786	0.1331	0.486
Mof_H 	H 	0.3046	0.2876	0.1578	0.453
Mof_H 	H 	0.3132	0.3096	0.1348	0.478
Mof_C 	C 	0.2592	0.3022	0.1279	-1.534
Mof_H 	H 	0.2564	0.3029	0.1479	0.458
Mof_H 	H 	0.2424	0.2955	0.119	0.492
Mof_H 	H 	0.2636	0.3207	0.121	0.48
Mof_N 	N 	0.2812	0.15922	0.04232	-0.178
Mof_C 	C 	0.2582	0.1436	0.0471	0.391
Mof_O 	O 	0.2455	0.1418	0.0679	-0.291
Mof_O 	O 	0.2483	0.1318	0.0237	-0.242
Mof_C 	C 	0.2631	0.1427	0.002	0.01
Mof_H 	H 	0.2511	0.1554	0.9914	0.07
Mof_H 	H 	0.2687	0.1276	0.9895	0.062
Mof_C 	C 	0.2899	0.1591	0.012	0.007
Mof_H 	H 	0.2882	0.1784	0.005	0.047
Mof_O 	O 	0.30439	0.29806	0.99732	-0.458
Mof_N 	N 	0.33334	0.34152	0.99546	-0.123
Mof_C 	C 	0.30454	0.32302	0.99546	0.992
Mof_H 	H 	0.3285	0.2961	0.9983	-0.556
Mof_C 	C 	0.32396	0.37123	0.99158	-0.09
Mof_H 	H 	0.3299	0.3846	0.0058	0.079
Mof_H 	H 	0.3047	0.374	0.9852	0.082
Mof_C 	C 	0.27786	0.72495	0.53864	0.417
Mof_O 	O 	0.28903	0.747	0.5295	-0.452
Mof_O 	O 	0.25556	0.71412	0.5303	-0.456
Mof_C 	C 	0.29286	0.71072	0.56257	-0.209
Mof_C 	C 	0.30749	0.72619	0.58295	0.164
Mof_C 	C 	0.31979	0.71312	0.60532	-0.203
Mof_H 	H 	0.3292	0.7238	0.6187	0.087
Mof_C 	C 	0.31849	0.68376	0.60839	0.103
Mof_C 	C 	0.30387	0.66837	0.58822	-0.212
Mof_H 	H 	0.3028	0.6489	0.5899	0.117
Mof_C 	C 	0.29099	0.68129	0.56584	0.176
Mof_C 	C 	0.35513	0.68096	0.64626	-0.077
Mof_H 	H 	0.3634	0.697	0.6387	0.051
Mof_C 	C 	0.33126	0.66971	0.63346	-0.005
Mof_N 	N 	0.31096	0.75857	0.58494	-0.115
Mof_C 	C 	0.3335	0.7714	0.5721	0.349
Mof_O 	O 	0.3544	0.7605	0.5632	-0.261
Mof_O 	O 	0.3281	0.79856	0.56875	-0.295
Mof_C 	C 	0.2983	0.805	0.5768	0.262
Mof_H 	H 	0.2975	0.821	0.5894	-0.057
Mof_H 	H 	0.2871	0.809	0.5602	-0.02
Mof_C 	C 	0.28832	0.77898	0.59104	-0.505
Mof_H 	H 	0.2708	0.7726	0.5821	0.192
Mof_C 	C 	0.2837	0.7821	0.62115	1.057
Mof_H 	H 	0.2779	0.7635	0.628	-0.302
Mof_C 	C 	0.3087	0.7902	0.6382	-1.571
Mof_H 	H 	0.3245	0.7786	0.6331	0.486
Mof_H 	H 	0.3046	0.7876	0.6578	0.453
Mof_H 	H 	0.3132	0.8096	0.6348	0.478
Mof_C 	C 	0.2592	0.8022	0.6279	-1.534
Mof_H 	H 	0.2564	0.8029	0.6479	0.458
Mof_H 	H 	0.2424	0.7955	0.619	0.492
Mof_H 	H 	0.2636	0.8207	0.621	0.48
Mof_N 	N 	0.2812	0.65922	0.54232	-0.178
Mof_C 	C 	0.2582	0.6436	0.5471	0.391
Mof_O 	O 	0.2455	0.6418	0.5679	-0.291
Mof_O 	O 	0.2483	0.6318	0.5237	-0.243
Mof_C 	C 	0.2631	0.6427	0.502	0.018
Mof_H 	H 	0.2511	0.6554	0.4914	0.067
Mof_H 	H 	0.2687	0.6276	0.4895	0.058
Mof_C 	C 	0.2899	0.6591	0.512	0.005
Mof_H 	H 	0.2882	0.6784	0.505	0.048
Mof_O 	O 	0.30439	0.79806	0.49732	-0.447
Mof_N 	N 	0.33334	0.84152	0.49546	-0.127
Mof_C 	C 	0.30454	0.82302	0.49546	1.004
Mof_H 	H 	0.3285	0.7961	0.4983	-0.552
Mof_C 	C 	0.32396	0.87123	0.49158	-0.092
Mof_H 	H 	0.3299	0.8846	0.5058	0.081
Mof_H 	H 	0.3047	0.874	0.4852	0.082
Mof_C 	C 	0.77786	0.22495	0.53864	0.417
Mof_O 	O 	0.78903	0.247	0.5295	-0.452
Mof_O 	O 	0.75556	0.21412	0.5303	-0.456
Mof_C 	C 	0.79286	0.21072	0.56257	-0.209
Mof_C 	C 	0.80749	0.22619	0.58295	0.164
Mof_C 	C 	0.81979	0.21312	0.60532	-0.203
Mof_H 	H 	0.8292	0.2238	0.6187	0.087
Mof_C 	C 	0.81849	0.18376	0.60839	0.103
Mof_C 	C 	0.80387	0.16837	0.58822	-0.212
Mof_H 	H 	0.8028	0.1489	0.5899	0.117
Mof_C 	C 	0.79099	0.18129	0.56584	0.176
Mof_C 	C 	0.85513	0.18096	0.64626	-0.077
Mof_H 	H 	0.8634	0.197	0.6387	0.051
Mof_C 	C 	0.83126	0.16971	0.63346	-0.005
Mof_N 	N 	0.81096	0.25857	0.58494	-0.115
Mof_C 	C 	0.8335	0.2714	0.5721	0.349
Mof_O 	O 	0.8544	0.2605	0.5632	-0.261
Mof_O 	O 	0.8281	0.29856	0.56875	-0.295
Mof_C 	C 	0.7983	0.305	0.5768	0.262
Mof_H 	H 	0.7975	0.321	0.5894	-0.057
Mof_H 	H 	0.7871	0.309	0.5602	-0.02
Mof_C 	C 	0.78832	0.27898	0.59104	-0.505
Mof_H 	H 	0.7708	0.2726	0.5821	0.192
Mof_C 	C 	0.7837	0.2821	0.62115	1.057
Mof_H 	H 	0.7779	0.2635	0.628	-0.302
Mof_C 	C 	0.8087	0.2902	0.6382	-1.571
Mof_H 	H 	0.8245	0.2786	0.6331	0.486
Mof_H 	H 	0.8046	0.2876	0.6578	0.453
Mof_H 	H 	0.8132	0.3096	0.6348	0.478
Mof_C 	C 	0.7592	0.3022	0.6279	-1.534
Mof_H 	H 	0.7564	0.3029	0.6479	0.458
Mof_H 	H 	0.7424	0.2955	0.619	0.492
Mof_H 	H 	0.7636	0.3207	0.621	0.48
Mof_N 	N 	0.7812	0.15922	0.54232	-0.178
Mof_C 	C 	0.7582	0.1436	0.5471	0.391
Mof_O 	O 	0.7455	0.1418	0.5679	-0.291
Mof_O 	O 	0.7483	0.1318	0.5237	-0.243
Mof_C 	C 	0.7631	0.1427	0.502	0.018
Mof_H 	H 	0.7511	0.1554	0.4914	0.067
Mof_H 	H 	0.7687	0.1276	0.4895	0.058
Mof_C 	C 	0.7899	0.1591	0.512	0.005
Mof_H 	H 	0.7882	0.1784	0.505	0.048
Mof_O 	O 	0.80439	0.29806	0.49732	-0.447
Mof_N 	N 	0.83334	0.34152	0.49546	-0.127
Mof_C 	C 	0.80454	0.32302	0.49546	1.004
Mof_H 	H 	0.8285	0.2961	0.4983	-0.552
Mof_C 	C 	0.82396	0.37123	0.49158	-0.092
Mof_H 	H 	0.8299	0.3846	0.5058	0.081
Mof_H 	H 	0.8047	0.374	0.4852	0.082
Mof_C 	C 	0.77786	0.72495	0.03864	0.417
Mof_O 	O 	0.78903	0.747	0.0295	-0.453
Mof_O 	O 	0.75556	0.71412	0.0303	-0.456
Mof_C 	C 	0.79286	0.71072	0.06257	-0.209
Mof_C 	C 	0.80749	0.72619	0.08295	0.164
Mof_C 	C 	0.81979	0.71312	0.10532	-0.203
Mof_H 	H 	0.8292	0.7238	0.1187	0.087
Mof_C 	C 	0.81849	0.68376	0.10839	0.103
Mof_C 	C 	0.80387	0.66837	0.08822	-0.212
Mof_H 	H 	0.8028	0.6489	0.0899	0.117
Mof_C 	C 	0.79099	0.68129	0.06584	0.176
Mof_C 	C 	0.85513	0.68096	0.14626	-0.077
Mof_H 	H 	0.8634	0.697	0.1387	0.051
Mof_C 	C 	0.83126	0.66971	0.13346	-0.005
Mof_N 	N 	0.81096	0.75857	0.08494	-0.115
Mof_C 	C 	0.8335	0.7714	0.0721	0.349
Mof_O 	O 	0.8544	0.7605	0.0632	-0.261
Mof_O 	O 	0.8281	0.79856	0.06875	-0.296
Mof_C 	C 	0.7983	0.805	0.0768	0.263
Mof_H 	H 	0.7975	0.821	0.0894	-0.057
Mof_H 	H 	0.7871	0.809	0.0602	-0.021
Mof_C 	C 	0.78832	0.77898	0.09104	-0.505
Mof_H 	H 	0.7708	0.7726	0.0821	0.192
Mof_C 	C 	0.7837	0.7821	0.12115	1.057
Mof_H 	H 	0.7779	0.7635	0.128	-0.302
Mof_C 	C 	0.8087	0.7902	0.1382	-1.571
Mof_H 	H 	0.8245	0.7786	0.1331	0.486
Mof_H 	H 	0.8046	0.7876	0.1578	0.453
Mof_H 	H 	0.8132	0.8096	0.1348	0.478
Mof_C 	C 	0.7592	0.8022	0.1279	-1.534
Mof_H 	H 	0.7564	0.8029	0.1479	0.458
Mof_H 	H 	0.7424	0.7955	0.119	0.492
Mof_H 	H 	0.7636	0.8207	0.121	0.48
Mof_N 	N 	0.7812	0.65922	0.04232	-0.178
Mof_C 	C 	0.7582	0.6436	0.0471	0.391
Mof_O 	O 	0.7455	0.6418	0.0679	-0.291
Mof_O 	O 	0.7483	0.6318	0.0237	-0.242
Mof_C 	C 	0.7631	0.6427	0.002	0.01
Mof_H 	H 	0.7511	0.6554	0.9914	0.07
Mof_H 	H 	0.7687	0.6276	0.9895	0.062
Mof_C 	C 	0.7899	0.6591	0.012	0.007
Mof_H 	H 	0.7882	0.6784	0.005	0.047
Mof_O 	O 	0.80439	0.79806	0.99732	-0.458
Mof_N 	N 	0.83334	0.84152	0.99546	-0.123
Mof_C 	C 	0.80454	0.82302	0.99546	0.992
Mof_H 	H 	0.8285	0.7961	0.9983	-0.556
Mof_C 	C 	0.82396	0.87123	0.99158	-0.09
Mof_H 	H 	0.8299	0.8846	0.0058	0.08
Mof_H 	H 	0.8047	0.874	0.9852	0.082
Mof_C 	C 	0.72214	0.77505	0.03864	0.417
Mof_O 	O 	0.71097	0.753	0.0295	-0.453
Mof_O 	O 	0.74444	0.78588	0.0303	-0.456
Mof_C 	C 	0.70714	0.78928	0.06257	-0.209
Mof_C 	C 	0.69251	0.77381	0.08295	0.164
Mof_C 	C 	0.68021	0.78688	0.10532	-0.203
Mof_H 	H 	0.6708	0.7762	0.1187	0.087
Mof_C 	C 	0.68151	0.81624	0.10839	0.103
Mof_C 	C 	0.69613	0.83163	0.08822	-0.212
Mof_H 	H 	0.6972	0.8511	0.0899	0.117
Mof_C 	C 	0.70901	0.81871	0.06584	0.176
Mof_C 	C 	0.64487	0.81904	0.14626	-0.077
Mof_H 	H 	0.6366	0.803	0.1387	0.051
Mof_C 	C 	0.66874	0.83029	0.13346	-0.005
Mof_N 	N 	0.68904	0.74143	0.08494	-0.115
Mof_C 	C 	0.6665	0.7286	0.0721	0.349
Mof_O 	O 	0.6456	0.7395	0.0632	-0.261
Mof_O 	O 	0.6719	0.70144	0.06875	-0.296
Mof_C 	C 	0.7017	0.695	0.0768	0.263
Mof_H 	H 	0.7025	0.679	0.0894	-0.058
Mof_H 	H 	0.7129	0.691	0.0602	-0.021
Mof_C 	C 	0.71168	0.72102	0.09104	-0.505
Mof_H 	H 	0.7292	0.7274	0.0821	0.192
Mof_C 	C 	0.7163	0.7179	0.12115	1.057
Mof_H 	H 	0.7221	0.7365	0.128	-0.302
Mof_C 	C 	0.6913	0.7098	0.1382	-1.571
Mof_H 	H 	0.6755	0.7214	0.1331	0.486
Mof_H 	H 	0.6954	0.7124	0.1578	0.453
Mof_H 	H 	0.6868	0.6904	0.1348	0.478
Mof_C 	C 	0.7408	0.6978	0.1279	-1.534
Mof_H 	H 	0.7436	0.6971	0.1479	0.458
Mof_H 	H 	0.7576	0.7045	0.119	0.492
Mof_H 	H 	0.7364	0.6793	0.121	0.48
Mof_N 	N 	0.7188	0.84078	0.04232	-0.178
Mof_C 	C 	0.7418	0.8564	0.0471	0.391
Mof_O 	O 	0.7545	0.8582	0.0679	-0.291
Mof_O 	O 	0.7517	0.8682	0.0237	-0.242
Mof_C 	C 	0.7369	0.8573	0.002	0.01
Mof_H 	H 	0.7489	0.8446	0.9914	0.071
Mof_H 	H 	0.7313	0.8724	0.9895	0.062
Mof_C 	C 	0.7101	0.8409	0.012	0.007
Mof_H 	H 	0.7118	0.8216	0.005	0.047
Mof_O 	O 	0.69561	0.70194	0.99732	-0.458
Mof_N 	N 	0.66666	0.65848	0.99546	-0.123
Mof_C 	C 	0.69546	0.67698	0.99546	0.992
Mof_H 	H 	0.6715	0.7039	0.9983	-0.556
Mof_C 	C 	0.67604	0.62877	0.99158	-0.09
Mof_H 	H 	0.6701	0.6154	0.0058	0.079
Mof_H 	H 	0.6953	0.626	0.9852	0.082
Mof_C 	C 	0.72214	0.27505	0.53864	0.417
Mof_O 	O 	0.71097	0.253	0.5295	-0.452
Mof_O 	O 	0.74444	0.28588	0.5303	-0.456
Mof_C 	C 	0.70714	0.28928	0.56257	-0.209
Mof_C 	C 	0.69251	0.27381	0.58295	0.164
Mof_C 	C 	0.68021	0.28688	0.60532	-0.203
Mof_H 	H 	0.6708	0.2762	0.6187	0.087
Mof_C 	C 	0.68151	0.31624	0.60839	0.103
Mof_C 	C 	0.69613	0.33163	0.58822	-0.212
Mof_H 	H 	0.6972	0.3511	0.5899	0.117
Mof_C 	C 	0.70901	0.31871	0.56584	0.176
Mof_C 	C 	0.64487	0.31904	0.64626	-0.077
Mof_H 	H 	0.6366	0.303	0.6387	0.051
Mof_C 	C 	0.66874	0.33029	0.63346	-0.005
Mof_N 	N 	0.68904	0.24143	0.58494	-0.115
Mof_C 	C 	0.6665	0.2286	0.5721	0.349
Mof_O 	O 	0.6456	0.2395	0.5632	-0.261
Mof_O 	O 	0.6719	0.20144	0.56875	-0.295
Mof_C 	C 	0.7017	0.195	0.5768	0.262
Mof_H 	H 	0.7025	0.179	0.5894	-0.057
Mof_H 	H 	0.7129	0.191	0.5602	-0.02
Mof_C 	C 	0.71168	0.22102	0.59104	-0.505
Mof_H 	H 	0.7292	0.2274	0.5821	0.192
Mof_C 	C 	0.7163	0.2179	0.62115	1.057
Mof_H 	H 	0.7221	0.2365	0.628	-0.302
Mof_C 	C 	0.6913	0.2098	0.6382	-1.571
Mof_H 	H 	0.6755	0.2214	0.6331	0.486
Mof_H 	H 	0.6954	0.2124	0.6578	0.453
Mof_H 	H 	0.6868	0.1904	0.6348	0.478
Mof_C 	C 	0.7408	0.1978	0.6279	-1.534
Mof_H 	H 	0.7436	0.1971	0.6479	0.458
Mof_H 	H 	0.7576	0.2045	0.619	0.492
Mof_H 	H 	0.7364	0.1793	0.621	0.48
Mof_N 	N 	0.7188	0.34078	0.54232	-0.178
Mof_C 	C 	0.7418	0.3564	0.5471	0.391
Mof_O 	O 	0.7545	0.3582	0.5679	-0.291
Mof_O 	O 	0.7517	0.3682	0.5237	-0.243
Mof_C 	C 	0.7369	0.3573	0.502	0.018
Mof_H 	H 	0.7489	0.3446	0.4914	0.067
Mof_H 	H 	0.7313	0.3724	0.4895	0.058
Mof_C 	C 	0.7101	0.3409	0.512	0.005
Mof_H 	H 	0.7118	0.3216	0.505	0.048
Mof_O 	O 	0.69561	0.20194	0.49732	-0.447
Mof_N 	N 	0.66666	0.15848	0.49546	-0.127
Mof_C 	C 	0.69546	0.17698	0.49546	1.004
Mof_H 	H 	0.6715	0.2039	0.4983	-0.552
Mof_C 	C 	0.67604	0.12877	0.49158	-0.092
Mof_H 	H 	0.6701	0.1154	0.5058	0.081
Mof_H 	H 	0.6953	0.126	0.4852	0.082
Mof_C 	C 	0.22214	0.77505	0.53864	0.417
Mof_O 	O 	0.21097	0.753	0.5295	-0.452
Mof_O 	O 	0.24444	0.78588	0.5303	-0.456
Mof_C 	C 	0.20714	0.78928	0.56257	-0.209
Mof_C 	C 	0.19251	0.77381	0.58295	0.164
Mof_C 	C 	0.18021	0.78688	0.60532	-0.203
Mof_H 	H 	0.1708	0.7762	0.6187	0.087
Mof_C 	C 	0.18151	0.81624	0.60839	0.103
Mof_C 	C 	0.19613	0.83163	0.58822	-0.212
Mof_H 	H 	0.1972	0.8511	0.5899	0.117
Mof_C 	C 	0.20901	0.81871	0.56584	0.176
Mof_C 	C 	0.14487	0.81904	0.64626	-0.077
Mof_H 	H 	0.1366	0.803	0.6387	0.051
Mof_C 	C 	0.16874	0.83029	0.63346	-0.005
Mof_N 	N 	0.18904	0.74143	0.58494	-0.115
Mof_C 	C 	0.1665	0.7286	0.5721	0.349
Mof_O 	O 	0.1456	0.7395	0.5632	-0.261
Mof_O 	O 	0.1719	0.70144	0.56875	-0.295
Mof_C 	C 	0.2017	0.695	0.5768	0.262
Mof_H 	H 	0.2025	0.679	0.5894	-0.057
Mof_H 	H 	0.2129	0.691	0.5602	-0.02
Mof_C 	C 	0.21168	0.72102	0.59104	-0.505
Mof_H 	H 	0.2292	0.7274	0.5821	0.192
Mof_C 	C 	0.2163	0.7179	0.62115	1.057
Mof_H 	H 	0.2221	0.7365	0.628	-0.302
Mof_C 	C 	0.1913	0.7098	0.6382	-1.571
Mof_H 	H 	0.1755	0.7214	0.6331	0.486
Mof_H 	H 	0.1954	0.7124	0.6578	0.453
Mof_H 	H 	0.1868	0.6904	0.6348	0.478
Mof_C 	C 	0.2408	0.6978	0.6279	-1.534
Mof_H 	H 	0.2436	0.6971	0.6479	0.458
Mof_H 	H 	0.2576	0.7045	0.619	0.492
Mof_H 	H 	0.2364	0.6793	0.621	0.48
Mof_N 	N 	0.2188	0.84078	0.54232	-0.178
Mof_C 	C 	0.2418	0.8564	0.5471	0.391
Mof_O 	O 	0.2545	0.8582	0.5679	-0.291
Mof_O 	O 	0.2517	0.8682	0.5237	-0.243
Mof_C 	C 	0.2369	0.8573	0.502	0.018
Mof_H 	H 	0.2489	0.8446	0.4914	0.067
Mof_H 	H 	0.2313	0.8724	0.4895	0.058
Mof_C 	C 	0.2101	0.8409	0.512	0.005
Mof_H 	H 	0.2118	0.8216	0.505	0.048
Mof_O 	O 	0.19561	0.70194	0.49732	-0.447
Mof_N 	N 	0.16666	0.65848	0.49546	-0.127
Mof_C 	C 	0.19546	0.67698	0.49546	1.004
Mof_H 	H 	0.1715	0.7039	0.4983	-0.552
Mof_C 	C 	0.17604	0.62877	0.49158	-0.092
Mof_H 	H 	0.1701	0.6154	0.5058	0.081
Mof_H 	H 	0.1953	0.626	0.4852	0.082
Mof_C 	C 	0.22214	0.27505	0.03864	0.417
Mof_O 	O 	0.21097	0.253	0.0295	-0.453
Mof_O 	O 	0.24444	0.28588	0.0303	-0.456
Mof_C 	C 	0.20714	0.28928	0.06257	-0.209
Mof_C 	C 	0.19251	0.27381	0.08295	0.164
Mof_C 	C 	0.18021	0.28688	0.10532	-0.203
Mof_H 	H 	0.1708	0.2762	0.1187	0.087
Mof_C 	C 	0.18151	0.31624	0.10839	0.103
Mof_C 	C 	0.19613	0.33163	0.08822	-0.212
Mof_H 	H 	0.1972	0.3511	0.0899	0.117
Mof_C 	C 	0.20901	0.31871	0.06584	0.176
Mof_C 	C 	0.14487	0.31904	0.14626	-0.077
Mof_H 	H 	0.1366	0.303	0.1387	0.051
Mof_C 	C 	0.16874	0.33029	0.13346	-0.005
Mof_N 	N 	0.18904	0.24143	0.08494	-0.115
Mof_C 	C 	0.1665	0.2286	0.0721	0.349
Mof_O 	O 	0.1456	0.2395	0.0632	-0.261
Mof_O 	O 	0.1719	0.20144	0.06875	-0.296
Mof_C 	C 	0.2017	0.195	0.0768	0.263
Mof_H 	H 	0.2025	0.179	0.0894	-0.058
Mof_H 	H 	0.2129	0.191	0.0602	-0.021
Mof_C 	C 	0.21168	0.22102	0.09104	-0.505
Mof_H 	H 	0.2292	0.2274	0.0821	0.192
Mof_C 	C 	0.2163	0.2179	0.12115	1.057
Mof_H 	H 	0.2221	0.2365	0.128	-0.302
Mof_C 	C 	0.1913	0.2098	0.1382	-1.571
Mof_H 	H 	0.1755	0.2214	0.1331	0.486
Mof_H 	H 	0.1954	0.2124	0.1578	0.453
Mof_H 	H 	0.1868	0.1904	0.1348	0.478
Mof_C 	C 	0.2408	0.1978	0.1279	-1.534
Mof_H 	H 	0.2436	0.1971	0.1479	0.458
Mof_H 	H 	0.2576	0.2045	0.119	0.492
Mof_H 	H 	0.2364	0.1793	0.121	0.48
Mof_N 	N 	0.2188	0.34078	0.04232	-0.178
Mof_C 	C 	0.2418	0.3564	0.0471	0.391
Mof_O 	O 	0.2545	0.3582	0.0679	-0.291
Mof_O 	O 	0.2517	0.3682	0.0237	-0.242
Mof_C 	C 	0.2369	0.3573	0.002	0.01
Mof_H 	H 	0.2489	0.3446	0.9914	0.07
Mof_H 	H 	0.2313	0.3724	0.9895	0.062
Mof_C 	C 	0.2101	0.3409	0.012	0.007
Mof_H 	H 	0.2118	0.3216	0.005	0.047
Mof_O 	O 	0.19561	0.20194	0.99732	-0.458
Mof_N 	N 	0.16666	0.15848	0.99546	-0.123
Mof_C 	C 	0.19546	0.17698	0.99546	0.992
Mof_H 	H 	0.1715	0.2039	0.9983	-0.556
Mof_C 	C 	0.17604	0.12877	0.99158	-0.09
Mof_H 	H 	0.1701	0.1154	0.0058	0.079
Mof_H 	H 	0.1953	0.126	0.9852	0.082
Mof_C 	C 	0.27786	0.77505	0.96136	0.417
Mof_O 	O 	0.28903	0.753	0.9705	-0.452
Mof_O 	O 	0.25556	0.78588	0.9697	-0.455
Mof_C 	C 	0.29286	0.78928	0.93743	-0.208
Mof_C 	C 	0.30749	0.77381	0.91705	0.164
Mof_C 	C 	0.31979	0.78688	0.89468	-0.203
Mof_H 	H 	0.3292	0.7762	0.8813	0.087
Mof_C 	C 	0.31849	0.81624	0.89161	0.103
Mof_C 	C 	0.30387	0.83163	0.91178	-0.212
Mof_H 	H 	0.3028	0.8511	0.9101	0.117
Mof_C 	C 	0.29099	0.81871	0.93416	0.176
Mof_C 	C 	0.35513	0.81904	0.85374	-0.077
Mof_H 	H 	0.3634	0.803	0.8613	0.051
Mof_C 	C 	0.33126	0.83029	0.86654	-0.005
Mof_N 	N 	0.31096	0.74143	0.91506	-0.115
Mof_C 	C 	0.3335	0.7286	0.9279	0.349
Mof_O 	O 	0.3544	0.7395	0.9368	-0.261
Mof_O 	O 	0.3281	0.70144	0.93125	-0.295
Mof_C 	C 	0.2983	0.695	0.9232	0.262
Mof_H 	H 	0.2975	0.679	0.9106	-0.057
Mof_H 	H 	0.2871	0.691	0.9398	-0.02
Mof_C 	C 	0.28832	0.72102	0.90896	-0.504
Mof_H 	H 	0.2708	0.7274	0.9179	0.192
Mof_C 	C 	0.2837	0.7179	0.87885	1.057
Mof_H 	H 	0.2779	0.7365	0.872	-0.301
Mof_C 	C 	0.3087	0.7098	0.8618	-1.571
Mof_H 	H 	0.3245	0.7214	0.8669	0.486
Mof_H 	H 	0.3046	0.7124	0.8422	0.453
Mof_H 	H 	0.3132	0.6904	0.8652	0.478
Mof_C 	C 	0.2592	0.6978	0.8721	-1.534
Mof_H 	H 	0.2564	0.6971	0.8521	0.458
Mof_H 	H 	0.2424	0.7045	0.881	0.492
Mof_H 	H 	0.2636	0.6793	0.879	0.48
Mof_N 	N 	0.2812	0.84078	0.95768	-0.177
Mof_C 	C 	0.2582	0.8564	0.9529	0.391
Mof_O 	O 	0.2455	0.8582	0.9321	-0.291
Mof_O 	O 	0.2483	0.8682	0.9763	-0.244
Mof_C 	C 	0.2631	0.8573	0.998	0.026
Mof_H 	H 	0.2511	0.8446	0.0086	0.064
Mof_H 	H 	0.2687	0.8724	0.0105	0.055
Mof_C 	C 	0.2899	0.8409	0.988	0.004
Mof_H 	H 	0.2882	0.8216	0.995	0.049
Mof_O 	O 	0.30439	0.70194	0.00268	-0.435
Mof_N 	N 	0.33334	0.65848	0.00454	-0.131
Mof_C 	C 	0.30454	0.67698	0.00454	1.015
Mof_H 	H 	0.3285	0.7039	0.0017	-0.547
Mof_C 	C 	0.32396	0.62877	0.00842	-0.095
Mof_H 	H 	0.3299	0.6154	0.9942	0.083
Mof_H 	H 	0.3047	0.626	0.0148	0.083
Mof_C 	C 	0.27786	0.27505	0.46136	0.417
Mof_O 	O 	0.28903	0.253	0.4705	-0.452
Mof_O 	O 	0.25556	0.28588	0.4697	-0.456
Mof_C 	C 	0.29286	0.28928	0.43743	-0.209
Mof_C 	C 	0.30749	0.27381	0.41705	0.164
Mof_C 	C 	0.31979	0.28688	0.39468	-0.203
Mof_H 	H 	0.3292	0.2762	0.3813	0.087
Mof_C 	C 	0.31849	0.31624	0.39161	0.103
Mof_C 	C 	0.30387	0.33163	0.41178	-0.212
Mof_H 	H 	0.3028	0.3511	0.4101	0.117
Mof_C 	C 	0.29099	0.31871	0.43416	0.176
Mof_C 	C 	0.35513	0.31904	0.35374	-0.077
Mof_H 	H 	0.3634	0.303	0.3613	0.051
Mof_C 	C 	0.33126	0.33029	0.36654	-0.005
Mof_N 	N 	0.31096	0.24143	0.41506	-0.115
Mof_C 	C 	0.3335	0.2286	0.4279	0.349
Mof_O 	O 	0.3544	0.2395	0.4368	-0.261
Mof_O 	O 	0.3281	0.20144	0.43125	-0.295
Mof_C 	C 	0.2983	0.195	0.4232	0.262
Mof_H 	H 	0.2975	0.179	0.4106	-0.057
Mof_H 	H 	0.2871	0.191	0.4398	-0.02
Mof_C 	C 	0.28832	0.22102	0.40896	-0.505
Mof_H 	H 	0.2708	0.2274	0.4179	0.192
Mof_C 	C 	0.2837	0.2179	0.37885	1.057
Mof_H 	H 	0.2779	0.2365	0.372	-0.302
Mof_C 	C 	0.3087	0.2098	0.3618	-1.571
Mof_H 	H 	0.3245	0.2214	0.3669	0.486
Mof_H 	H 	0.3046	0.2124	0.3422	0.453
Mof_H 	H 	0.3132	0.1904	0.3652	0.478
Mof_C 	C 	0.2592	0.1978	0.3721	-1.534
Mof_H 	H 	0.2564	0.1971	0.3521	0.458
Mof_H 	H 	0.2424	0.2045	0.381	0.492
Mof_H 	H 	0.2636	0.1793	0.379	0.48
Mof_N 	N 	0.2812	0.34078	0.45768	-0.178
Mof_C 	C 	0.2582	0.3564	0.4529	0.391
Mof_O 	O 	0.2455	0.3582	0.4321	-0.291
Mof_O 	O 	0.2483	0.3682	0.4763	-0.243
Mof_C 	C 	0.2631	0.3573	0.498	0.018
Mof_H 	H 	0.2511	0.3446	0.5086	0.067
Mof_H 	H 	0.2687	0.3724	0.5105	0.058
Mof_C 	C 	0.2899	0.3409	0.488	0.005
Mof_H 	H 	0.2882	0.3216	0.495	0.048
Mof_O 	O 	0.30439	0.20194	0.50268	-0.447
Mof_N 	N 	0.33334	0.15848	0.50454	-0.127
Mof_C 	C 	0.30454	0.17698	0.50454	1.004
Mof_H 	H 	0.3285	0.2039	0.5017	-0.552
Mof_C 	C 	0.32396	0.12877	0.50842	-0.092
Mof_H 	H 	0.3299	0.1154	0.4942	0.081
Mof_H 	H 	0.3047	0.126	0.5148	0.082
Mof_C 	C 	0.77786	0.77505	0.46136	0.417
Mof_O 	O 	0.78903	0.753	0.4705	-0.452
Mof_O 	O 	0.75556	0.78588	0.4697	-0.456
Mof_C 	C 	0.79286	0.78928	0.43743	-0.209
Mof_C 	C 	0.80749	0.77381	0.41705	0.164
Mof_C 	C 	0.81979	0.78688	0.39468	-0.203
Mof_H 	H 	0.8292	0.7762	0.3813	0.087
Mof_C 	C 	0.81849	0.81624	0.39161	0.103
Mof_C 	C 	0.80387	0.83163	0.41178	-0.212
Mof_H 	H 	0.8028	0.8511	0.4101	0.117
Mof_C 	C 	0.79099	0.81871	0.43416	0.176
Mof_C 	C 	0.85513	0.81904	0.35374	-0.077
Mof_H 	H 	0.8634	0.803	0.3613	0.051
Mof_C 	C 	0.83126	0.83029	0.36654	-0.005
Mof_N 	N 	0.81096	0.74143	0.41506	-0.115
Mof_C 	C 	0.8335	0.7286	0.4279	0.349
Mof_O 	O 	0.8544	0.7395	0.4368	-0.261
Mof_O 	O 	0.8281	0.70144	0.43125	-0.295
Mof_C 	C 	0.7983	0.695	0.4232	0.262
Mof_H 	H 	0.7975	0.679	0.4106	-0.057
Mof_H 	H 	0.7871	0.691	0.4398	-0.02
Mof_C 	C 	0.78832	0.72102	0.40896	-0.505
Mof_H 	H 	0.7708	0.7274	0.4179	0.192
Mof_C 	C 	0.7837	0.7179	0.37885	1.057
Mof_H 	H 	0.7779	0.7365	0.372	-0.302
Mof_C 	C 	0.8087	0.7098	0.3618	-1.571
Mof_H 	H 	0.8245	0.7214	0.3669	0.486
Mof_H 	H 	0.8046	0.7124	0.3422	0.453
Mof_H 	H 	0.8132	0.6904	0.3652	0.478
Mof_C 	C 	0.7592	0.6978	0.3721	-1.534
Mof_H 	H 	0.7564	0.6971	0.3521	0.458
Mof_H 	H 	0.7424	0.7045	0.381	0.492
Mof_H 	H 	0.7636	0.6793	0.379	0.48
Mof_N 	N 	0.7812	0.84078	0.45768	-0.178
Mof_C 	C 	0.7582	0.8564	0.4529	0.391
Mof_O 	O 	0.7455	0.8582	0.4321	-0.291
Mof_O 	O 	0.7483	0.8682	0.4763	-0.243
Mof_C 	C 	0.7631	0.8573	0.498	0.018
Mof_H 	H 	0.7511	0.8446	0.5086	0.067
Mof_H 	H 	0.7687	0.8724	0.5105	0.059
Mof_C 	C 	0.7899	0.8409	0.488	0.005
Mof_H 	H 	0.7882	0.8216	0.495	0.048
Mof_O 	O 	0.80439	0.70194	0.50268	-0.447
Mof_N 	N 	0.83334	0.65848	0.50454	-0.127
Mof_C 	C 	0.80454	0.67698	0.50454	1.004
Mof_H 	H 	0.8285	0.7039	0.5017	-0.552
Mof_C 	C 	0.82396	0.62877	0.50842	-0.092
Mof_H 	H 	0.8299	0.6154	0.4942	0.081
Mof_H 	H 	0.8047	0.626	0.5148	0.082
Mof_C 	C 	0.77786	0.27505	0.96136	0.417
Mof_O 	O 	0.78903	0.253	0.9705	-0.452
Mof_O 	O 	0.75556	0.28588	0.9697	-0.455
Mof_C 	C 	0.79286	0.28928	0.93743	-0.208
Mof_C 	C 	0.80749	0.27381	0.91705	0.164
Mof_C 	C 	0.81979	0.28688	0.89468	-0.203
Mof_H 	H 	0.8292	0.2762	0.8813	0.087
Mof_C 	C 	0.81849	0.31624	0.89161	0.103
Mof_C 	C 	0.80387	0.33163	0.91178	-0.212
Mof_H 	H 	0.8028	0.3511	0.9101	0.117
Mof_C 	C 	0.79099	0.31871	0.93416	0.176
Mof_C 	C 	0.85513	0.31904	0.85374	-0.077
Mof_H 	H 	0.8634	0.303	0.8613	0.051
Mof_C 	C 	0.83126	0.33029	0.86654	-0.005
Mof_N 	N 	0.81096	0.24143	0.91506	-0.115
Mof_C 	C 	0.8335	0.2286	0.9279	0.349
Mof_O 	O 	0.8544	0.2395	0.9368	-0.26
Mof_O 	O 	0.8281	0.20144	0.93125	-0.295
Mof_C 	C 	0.7983	0.195	0.9232	0.262
Mof_H 	H 	0.7975	0.179	0.9106	-0.057
Mof_H 	H 	0.7871	0.191	0.9398	-0.02
Mof_C 	C 	0.78832	0.22102	0.90896	-0.505
Mof_H 	H 	0.7708	0.2274	0.9179	0.192
Mof_C 	C 	0.7837	0.2179	0.87885	1.057
Mof_H 	H 	0.7779	0.2365	0.872	-0.301
Mof_C 	C 	0.8087	0.2098	0.8618	-1.571
Mof_H 	H 	0.8245	0.2214	0.8669	0.486
Mof_H 	H 	0.8046	0.2124	0.8422	0.453
Mof_H 	H 	0.8132	0.1904	0.8652	0.478
Mof_C 	C 	0.7592	0.1978	0.8721	-1.534
Mof_H 	H 	0.7564	0.1971	0.8521	0.458
Mof_H 	H 	0.7424	0.2045	0.881	0.492
Mof_H 	H 	0.7636	0.1793	0.879	0.48
Mof_N 	N 	0.7812	0.34078	0.95768	-0.177
Mof_C 	C 	0.7582	0.3564	0.9529	0.391
Mof_O 	O 	0.7455	0.3582	0.9321	-0.291
Mof_O 	O 	0.7483	0.3682	0.9763	-0.244
Mof_C 	C 	0.7631	0.3573	0.998	0.026
Mof_H 	H 	0.7511	0.3446	0.0086	0.064
Mof_H 	H 	0.7687	0.3724	0.0105	0.055
Mof_C 	C 	0.7899	0.3409	0.988	0.004
Mof_H 	H 	0.7882	0.3216	0.995	0.049
Mof_O 	O 	0.80439	0.20194	0.00268	-0.435
Mof_N 	N 	0.83334	0.15848	0.00454	-0.131
Mof_C 	C 	0.80454	0.17698	0.00454	1.015
Mof_H 	H 	0.8285	0.2039	0.0017	-0.547
Mof_C 	C 	0.82396	0.12877	0.00842	-0.095
Mof_H 	H 	0.8299	0.1154	0.9942	0.083
Mof_H 	H 	0.8047	0.126	0.0148	0.083
Mof_C 	C 	0.72214	0.96136	0.77505	0.417
Mof_O 	O 	0.71097	0.9705	0.753	-0.452
Mof_O 	O 	0.74444	0.9697	0.78588	-0.455
Mof_C 	C 	0.70714	0.93743	0.78928	-0.208
Mof_C 	C 	0.69251	0.91705	0.77381	0.164
Mof_C 	C 	0.68021	0.89468	0.78688	-0.203
Mof_H 	H 	0.6708	0.8813	0.7762	0.087
Mof_C 	C 	0.68151	0.89161	0.81624	0.103
Mof_C 	C 	0.69613	0.91178	0.83163	-0.212
Mof_H 	H 	0.6972	0.9101	0.8511	0.117
Mof_C 	C 	0.70901	0.93416	0.81871	0.176
Mof_C 	C 	0.64487	0.85374	0.81904	-0.077
Mof_H 	H 	0.6366	0.8613	0.803	0.051
Mof_C 	C 	0.66874	0.86654	0.83029	-0.005
Mof_N 	N 	0.68904	0.91506	0.74143	-0.115
Mof_C 	C 	0.6665	0.9279	0.7286	0.349
Mof_O 	O 	0.6456	0.9368	0.7395	-0.261
Mof_O 	O 	0.6719	0.93125	0.70144	-0.295
Mof_C 	C 	0.7017	0.9232	0.695	0.262
Mof_H 	H 	0.7025	0.9106	0.679	-0.057
Mof_H 	H 	0.7129	0.9398	0.691	-0.02
Mof_C 	C 	0.71168	0.90896	0.72102	-0.504
Mof_H 	H 	0.7292	0.9179	0.7274	0.192
Mof_C 	C 	0.7163	0.87885	0.7179	1.057
Mof_H 	H 	0.7221	0.872	0.7365	-0.301
Mof_C 	C 	0.6913	0.8618	0.7098	-1.571
Mof_H 	H 	0.6755	0.8669	0.7214	0.486
Mof_H 	H 	0.6954	0.8422	0.7124	0.453
Mof_H 	H 	0.6868	0.8652	0.6904	0.478
Mof_C 	C 	0.7408	0.8721	0.6978	-1.534
Mof_H 	H 	0.7436	0.8521	0.6971	0.458
Mof_H 	H 	0.7576	0.881	0.7045	0.492
Mof_H 	H 	0.7364	0.879	0.6793	0.48
Mof_N 	N 	0.7188	0.95768	0.84078	-0.177
Mof_C 	C 	0.7418	0.9529	0.8564	0.391
Mof_O 	O 	0.7545	0.9321	0.8582	-0.291
Mof_O 	O 	0.7517	0.9763	0.8682	-0.244
Mof_C 	C 	0.7369	0.998	0.8573	0.026
Mof_H 	H 	0.7489	0.0086	0.8446	0.064
Mof_H 	H 	0.7313	0.0105	0.8724	0.055
Mof_C 	C 	0.7101	0.988	0.8409	0.004
Mof_H 	H 	0.7118	0.995	0.8216	0.049
Mof_O 	O 	0.69561	0.00268	0.70194	-0.435
Mof_N 	N 	0.66666	0.00454	0.65848	-0.131
Mof_C 	C 	0.69546	0.00454	0.67698	1.015
Mof_H 	H 	0.6715	0.0017	0.7039	-0.547
Mof_C 	C 	0.67604	0.00842	0.62877	-0.095
Mof_H 	H 	0.6701	0.9942	0.6154	0.083
Mof_H 	H 	0.6953	0.0148	0.626	0.083
Mof_C 	C 	0.72214	0.46136	0.27505	0.417
Mof_O 	O 	0.71097	0.4705	0.253	-0.452
Mof_O 	O 	0.74444	0.4697	0.28588	-0.456
Mof_C 	C 	0.70714	0.43743	0.28928	-0.209
Mof_C 	C 	0.69251	0.41705	0.27381	0.164
Mof_C 	C 	0.68021	0.39468	0.28688	-0.203
Mof_H 	H 	0.6708	0.3813	0.2762	0.087
Mof_C 	C 	0.68151	0.39161	0.31624	0.103
Mof_C 	C 	0.69613	0.41178	0.33163	-0.212
Mof_H 	H 	0.6972	0.4101	0.3511	0.117
Mof_C 	C 	0.70901	0.43416	0.31871	0.176
Mof_C 	C 	0.64487	0.35374	0.31904	-0.077
Mof_H 	H 	0.6366	0.3613	0.303	0.051
Mof_C 	C 	0.66874	0.36654	0.33029	-0.005
Mof_N 	N 	0.68904	0.41506	0.24143	-0.115
Mof_C 	C 	0.6665	0.4279	0.2286	0.349
Mof_O 	O 	0.6456	0.4368	0.2395	-0.261
Mof_O 	O 	0.6719	0.43125	0.20144	-0.295
Mof_C 	C 	0.7017	0.4232	0.195	0.262
Mof_H 	H 	0.7025	0.4106	0.179	-0.057
Mof_H 	H 	0.7129	0.4398	0.191	-0.02
Mof_C 	C 	0.71168	0.40896	0.22102	-0.505
Mof_H 	H 	0.7292	0.4179	0.2274	0.192
Mof_C 	C 	0.7163	0.37885	0.2179	1.057
Mof_H 	H 	0.7221	0.372	0.2365	-0.302
Mof_C 	C 	0.6913	0.3618	0.2098	-1.571
Mof_H 	H 	0.6755	0.3669	0.2214	0.486
Mof_H 	H 	0.6954	0.3422	0.2124	0.453
Mof_H 	H 	0.6868	0.3652	0.1904	0.478
Mof_C 	C 	0.7408	0.3721	0.1978	-1.534
Mof_H 	H 	0.7436	0.3521	0.1971	0.458
Mof_H 	H 	0.7576	0.381	0.2045	0.492
Mof_H 	H 	0.7364	0.379	0.1793	0.48
Mof_N 	N 	0.7188	0.45768	0.34078	-0.178
Mof_C 	C 	0.7418	0.4529	0.3564	0.391
Mof_O 	O 	0.7545	0.4321	0.3582	-0.291
Mof_O 	O 	0.7517	0.4763	0.3682	-0.243
Mof_C 	C 	0.7369	0.498	0.3573	0.018
Mof_H 	H 	0.7489	0.5086	0.3446	0.067
Mof_H 	H 	0.7313	0.5105	0.3724	0.058
Mof_C 	C 	0.7101	0.488	0.3409	0.005
Mof_H 	H 	0.7118	0.495	0.3216	0.048
Mof_O 	O 	0.69561	0.50268	0.20194	-0.447
Mof_N 	N 	0.66666	0.50454	0.15848	-0.127
Mof_C 	C 	0.69546	0.50454	0.17698	1.004
Mof_H 	H 	0.6715	0.5017	0.2039	-0.552
Mof_C 	C 	0.67604	0.50842	0.12877	-0.092
Mof_H 	H 	0.6701	0.4942	0.1154	0.081
Mof_H 	H 	0.6953	0.5148	0.126	0.082
Mof_C 	C 	0.22214	0.96136	0.27505	0.417
Mof_O 	O 	0.21097	0.9705	0.253	-0.452
Mof_O 	O 	0.24444	0.9697	0.28588	-0.455
Mof_C 	C 	0.20714	0.93743	0.28928	-0.208
Mof_C 	C 	0.19251	0.91705	0.27381	0.164
Mof_C 	C 	0.18021	0.89468	0.28688	-0.203
Mof_H 	H 	0.1708	0.8813	0.2762	0.087
Mof_C 	C 	0.18151	0.89161	0.31624	0.103
Mof_C 	C 	0.19613	0.91178	0.33163	-0.212
Mof_H 	H 	0.1972	0.9101	0.3511	0.117
Mof_C 	C 	0.20901	0.93416	0.31871	0.176
Mof_C 	C 	0.14487	0.85374	0.31904	-0.077
Mof_H 	H 	0.1366	0.8613	0.303	0.051
Mof_C 	C 	0.16874	0.86654	0.33029	-0.005
Mof_N 	N 	0.18904	0.91506	0.24143	-0.115
Mof_C 	C 	0.1665	0.9279	0.2286	0.349
Mof_O 	O 	0.1456	0.9368	0.2395	-0.261
Mof_O 	O 	0.1719	0.93125	0.20144	-0.295
Mof_C 	C 	0.2017	0.9232	0.195	0.262
Mof_H 	H 	0.2025	0.9106	0.179	-0.057
Mof_H 	H 	0.2129	0.9398	0.191	-0.02
Mof_C 	C 	0.21168	0.90896	0.22102	-0.504
Mof_H 	H 	0.2292	0.9179	0.2274	0.192
Mof_C 	C 	0.2163	0.87885	0.2179	1.057
Mof_H 	H 	0.2221	0.872	0.2365	-0.301
Mof_C 	C 	0.1913	0.8618	0.2098	-1.57
Mof_H 	H 	0.1755	0.8669	0.2214	0.486
Mof_H 	H 	0.1954	0.8422	0.2124	0.453
Mof_H 	H 	0.1868	0.8652	0.1904	0.478
Mof_C 	C 	0.2408	0.8721	0.1978	-1.534
Mof_H 	H 	0.2436	0.8521	0.1971	0.458
Mof_H 	H 	0.2576	0.881	0.2045	0.492
Mof_H 	H 	0.2364	0.879	0.1793	0.48
Mof_N 	N 	0.2188	0.95768	0.34078	-0.177
Mof_C 	C 	0.2418	0.9529	0.3564	0.391
Mof_O 	O 	0.2545	0.9321	0.3582	-0.291
Mof_O 	O 	0.2517	0.9763	0.3682	-0.244
Mof_C 	C 	0.2369	0.998	0.3573	0.026
Mof_H 	H 	0.2489	0.0086	0.3446	0.064
Mof_H 	H 	0.2313	0.0105	0.3724	0.055
Mof_C 	C 	0.2101	0.988	0.3409	0.004
Mof_H 	H 	0.2118	0.995	0.3216	0.049
Mof_O 	O 	0.19561	0.00268	0.20194	-0.435
Mof_N 	N 	0.16666	0.00454	0.15848	-0.131
Mof_C 	C 	0.19546	0.00454	0.17698	1.015
Mof_H 	H 	0.1715	0.0017	0.2039	-0.547
Mof_C 	C 	0.17604	0.00842	0.12877	-0.095
Mof_H 	H 	0.1701	0.9942	0.1154	0.083
Mof_H 	H 	0.1953	0.0148	0.126	0.083
Mof_C 	C 	0.22214	0.46136	0.77505	0.417
Mof_O 	O 	0.21097	0.4705	0.753	-0.452
Mof_O 	O 	0.24444	0.4697	0.78588	-0.456
Mof_C 	C 	0.20714	0.43743	0.78928	-0.209
Mof_C 	C 	0.19251	0.41705	0.77381	0.164
Mof_C 	C 	0.18021	0.39468	0.78688	-0.203
Mof_H 	H 	0.1708	0.3813	0.7762	0.087
Mof_C 	C 	0.18151	0.39161	0.81624	0.103
Mof_C 	C 	0.19613	0.41178	0.83163	-0.212
Mof_H 	H 	0.1972	0.4101	0.8511	0.117
Mof_C 	C 	0.20901	0.43416	0.81871	0.176
Mof_C 	C 	0.14487	0.35374	0.81904	-0.077
Mof_H 	H 	0.1366	0.3613	0.803	0.051
Mof_C 	C 	0.16874	0.36654	0.83029	-0.005
Mof_N 	N 	0.18904	0.41506	0.74143	-0.115
Mof_C 	C 	0.1665	0.4279	0.7286	0.349
Mof_O 	O 	0.1456	0.4368	0.7395	-0.261
Mof_O 	O 	0.1719	0.43125	0.70144	-0.295
Mof_C 	C 	0.2017	0.4232	0.695	0.262
Mof_H 	H 	0.2025	0.4106	0.679	-0.057
Mof_H 	H 	0.2129	0.4398	0.691	-0.02
Mof_C 	C 	0.21168	0.40896	0.72102	-0.505
Mof_H 	H 	0.2292	0.4179	0.7274	0.192
Mof_C 	C 	0.2163	0.37885	0.7179	1.057
Mof_H 	H 	0.2221	0.372	0.7365	-0.302
Mof_C 	C 	0.1913	0.3618	0.7098	-1.571
Mof_H 	H 	0.1755	0.3669	0.7214	0.486
Mof_H 	H 	0.1954	0.3422	0.7124	0.453
Mof_H 	H 	0.1868	0.3652	0.6904	0.478
Mof_C 	C 	0.2408	0.3721	0.6978	-1.534
Mof_H 	H 	0.2436	0.3521	0.6971	0.458
Mof_H 	H 	0.2576	0.381	0.7045	0.492
Mof_H 	H 	0.2364	0.379	0.6793	0.48
Mof_N 	N 	0.2188	0.45768	0.84078	-0.178
Mof_C 	C 	0.2418	0.4529	0.8564	0.391
Mof_O 	O 	0.2545	0.4321	0.8582	-0.291
Mof_O 	O 	0.2517	0.4763	0.8682	-0.243
Mof_C 	C 	0.2369	0.498	0.8573	0.018
Mof_H 	H 	0.2489	0.5086	0.8446	0.067
Mof_H 	H 	0.2313	0.5105	0.8724	0.058
Mof_C 	C 	0.2101	0.488	0.8409	0.005
Mof_H 	H 	0.2118	0.495	0.8216	0.048
Mof_O 	O 	0.19561	0.50268	0.70194	-0.447
Mof_N 	N 	0.16666	0.50454	0.65848	-0.127
Mof_C 	C 	0.19546	0.50454	0.67698	1.004
Mof_H 	H 	0.1715	0.5017	0.7039	-0.552
Mof_C 	C 	0.17604	0.50842	0.62877	-0.092
Mof_H 	H 	0.1701	0.4942	0.6154	0.081
Mof_H 	H 	0.1953	0.5148	0.626	0.082
Mof_C 	C 	0.27786	0.03864	0.77505	0.417
Mof_O 	O 	0.28903	0.0295	0.753	-0.453
Mof_O 	O 	0.25556	0.0303	0.78588	-0.456
Mof_C 	C 	0.29286	0.06257	0.78928	-0.209
Mof_C 	C 	0.30749	0.08295	0.77381	0.164
Mof_C 	C 	0.31979	0.10532	0.78688	-0.203
Mof_H 	H 	0.3292	0.1187	0.7762	0.087
Mof_C 	C 	0.31849	0.10839	0.81624	0.103
Mof_C 	C 	0.30387	0.08822	0.83163	-0.212
Mof_H 	H 	0.3028	0.0899	0.8511	0.117
Mof_C 	C 	0.29099	0.06584	0.81871	0.176
Mof_C 	C 	0.35513	0.14626	0.81904	-0.077
Mof_H 	H 	0.3634	0.1387	0.803	0.051
Mof_C 	C 	0.33126	0.13346	0.83029	-0.005
Mof_N 	N 	0.31096	0.08494	0.74143	-0.115
Mof_C 	C 	0.3335	0.0721	0.7286	0.349
Mof_O 	O 	0.3544	0.0632	0.7395	-0.261
Mof_O 	O 	0.3281	0.06875	0.70144	-0.296
Mof_C 	C 	0.2983	0.0768	0.695	0.263
Mof_H 	H 	0.2975	0.0894	0.679	-0.058
Mof_H 	H 	0.2871	0.0602	0.691	-0.021
Mof_C 	C 	0.28832	0.09104	0.72102	-0.505
Mof_H 	H 	0.2708	0.0821	0.7274	0.192
Mof_C 	C 	0.2837	0.12115	0.7179	1.057
Mof_H 	H 	0.2779	0.128	0.7365	-0.302
Mof_C 	C 	0.3087	0.1382	0.7098	-1.571
Mof_H 	H 	0.3245	0.1331	0.7214	0.486
Mof_H 	H 	0.3046	0.1578	0.7124	0.453
Mof_H 	H 	0.3132	0.1348	0.6904	0.478
Mof_C 	C 	0.2592	0.1279	0.6978	-1.534
Mof_H 	H 	0.2564	0.1479	0.6971	0.458
Mof_H 	H 	0.2424	0.119	0.7045	0.492
Mof_H 	H 	0.2636	0.121	0.6793	0.48
Mof_N 	N 	0.2812	0.04232	0.84078	-0.178
Mof_C 	C 	0.2582	0.0471	0.8564	0.391
Mof_O 	O 	0.2455	0.0679	0.8582	-0.291
Mof_O 	O 	0.2483	0.0237	0.8682	-0.242
Mof_C 	C 	0.2631	0.002	0.8573	0.01
Mof_H 	H 	0.2511	0.9914	0.8446	0.071
Mof_H 	H 	0.2687	0.9895	0.8724	0.062
Mof_C 	C 	0.2899	0.012	0.8409	0.007
Mof_H 	H 	0.2882	0.005	0.8216	0.047
Mof_O 	O 	0.30439	0.99732	0.70194	-0.458
Mof_N 	N 	0.33334	0.99546	0.65848	-0.123
Mof_C 	C 	0.30454	0.99546	0.67698	0.992
Mof_H 	H 	0.3285	0.9983	0.7039	-0.556
Mof_C 	C 	0.32396	0.99158	0.62877	-0.09
Mof_H 	H 	0.3299	0.0058	0.6154	0.079
Mof_H 	H 	0.3047	0.9852	0.626	0.082
Mof_C 	C 	0.27786	0.53864	0.27505	0.417
Mof_O 	O 	0.28903	0.5295	0.253	-0.452
Mof_O 	O 	0.25556	0.5303	0.28588	-0.456
Mof_C 	C 	0.29286	0.56257	0.28928	-0.209
Mof_C 	C 	0.30749	0.58295	0.27381	0.164
Mof_C 	C 	0.31979	0.60532	0.28688	-0.203
Mof_H 	H 	0.3292	0.6187	0.2762	0.087
Mof_C 	C 	0.31849	0.60839	0.31624	0.103
Mof_C 	C 	0.30387	0.58822	0.33163	-0.212
Mof_H 	H 	0.3028	0.5899	0.3511	0.117
Mof_C 	C 	0.29099	0.56584	0.31871	0.176
Mof_C 	C 	0.35513	0.64626	0.31904	-0.077
Mof_H 	H 	0.3634	0.6387	0.303	0.051
Mof_C 	C 	0.33126	0.63346	0.33029	-0.005
Mof_N 	N 	0.31096	0.58494	0.24143	-0.115
Mof_C 	C 	0.3335	0.5721	0.2286	0.349
Mof_O 	O 	0.3544	0.5632	0.2395	-0.261
Mof_O 	O 	0.3281	0.56875	0.20144	-0.295
Mof_C 	C 	0.2983	0.5768	0.195	0.262
Mof_H 	H 	0.2975	0.5894	0.179	-0.057
Mof_H 	H 	0.2871	0.5602	0.191	-0.02
Mof_C 	C 	0.28832	0.59104	0.22102	-0.505
Mof_H 	H 	0.2708	0.5821	0.2274	0.192
Mof_C 	C 	0.2837	0.62115	0.2179	1.057
Mof_H 	H 	0.2779	0.628	0.2365	-0.302
Mof_C 	C 	0.3087	0.6382	0.2098	-1.571
Mof_H 	H 	0.3245	0.6331	0.2214	0.486
Mof_H 	H 	0.3046	0.6578	0.2124	0.453
Mof_H 	H 	0.3132	0.6348	0.1904	0.478
Mof_C 	C 	0.2592	0.6279	0.1978	-1.534
Mof_H 	H 	0.2564	0.6479	0.1971	0.458
Mof_H 	H 	0.2424	0.619	0.2045	0.492
Mof_H 	H 	0.2636	0.621	0.1793	0.48
Mof_N 	N 	0.2812	0.54232	0.34078	-0.178
Mof_C 	C 	0.2582	0.5471	0.3564	0.391
Mof_O 	O 	0.2455	0.5679	0.3582	-0.291
Mof_O 	O 	0.2483	0.5237	0.3682	-0.243
Mof_C 	C 	0.2631	0.502	0.3573	0.018
Mof_H 	H 	0.2511	0.4914	0.3446	0.067
Mof_H 	H 	0.2687	0.4895	0.3724	0.058
Mof_C 	C 	0.2899	0.512	0.3409	0.005
Mof_H 	H 	0.2882	0.505	0.3216	0.048
Mof_O 	O 	0.30439	0.49732	0.20194	-0.447
Mof_N 	N 	0.33334	0.49546	0.15848	-0.127
Mof_C 	C 	0.30454	0.49546	0.17698	1.004
Mof_H 	H 	0.3285	0.4983	0.2039	-0.552
Mof_C 	C 	0.32396	0.49158	0.12877	-0.092
Mof_H 	H 	0.3299	0.5058	0.1154	0.081
Mof_H 	H 	0.3047	0.4852	0.126	0.082
Mof_C 	C 	0.77786	0.03864	0.27505	0.417
Mof_O 	O 	0.78903	0.0295	0.253	-0.453
Mof_O 	O 	0.75556	0.0303	0.28588	-0.456
Mof_C 	C 	0.79286	0.06257	0.28928	-0.209
Mof_C 	C 	0.80749	0.08295	0.27381	0.164
Mof_C 	C 	0.81979	0.10532	0.28688	-0.203
Mof_H 	H 	0.8292	0.1187	0.2762	0.087
Mof_C 	C 	0.81849	0.10839	0.31624	0.103
Mof_C 	C 	0.80387	0.08822	0.33163	-0.212
Mof_H 	H 	0.8028	0.0899	0.3511	0.117
Mof_C 	C 	0.79099	0.06584	0.31871	0.176
Mof_C 	C 	0.85513	0.14626	0.31904	-0.077
Mof_H 	H 	0.8634	0.1387	0.303	0.051
Mof_C 	C 	0.83126	0.13346	0.33029	-0.005
Mof_N 	N 	0.81096	0.08494	0.24143	-0.115
Mof_C 	C 	0.8335	0.0721	0.2286	0.349
Mof_O 	O 	0.8544	0.0632	0.2395	-0.261
Mof_O 	O 	0.8281	0.06875	0.20144	-0.296
Mof_C 	C 	0.7983	0.0768	0.195	0.263
Mof_H 	H 	0.7975	0.0894	0.179	-0.058
Mof_H 	H 	0.7871	0.0602	0.191	-0.021
Mof_C 	C 	0.78832	0.09104	0.22102	-0.505
Mof_H 	H 	0.7708	0.0821	0.2274	0.192
Mof_C 	C 	0.7837	0.12115	0.2179	1.057
Mof_H 	H 	0.7779	0.128	0.2365	-0.302
Mof_C 	C 	0.8087	0.1382	0.2098	-1.571
Mof_H 	H 	0.8245	0.1331	0.2214	0.486
Mof_H 	H 	0.8046	0.1578	0.2124	0.453
Mof_H 	H 	0.8132	0.1348	0.1904	0.478
Mof_C 	C 	0.7592	0.1279	0.1978	-1.534
Mof_H 	H 	0.7564	0.1479	0.1971	0.458
Mof_H 	H 	0.7424	0.119	0.2045	0.492
Mof_H 	H 	0.7636	0.121	0.1793	0.48
Mof_N 	N 	0.7812	0.04232	0.34078	-0.178
Mof_C 	C 	0.7582	0.0471	0.3564	0.391
Mof_O 	O 	0.7455	0.0679	0.3582	-0.291
Mof_O 	O 	0.7483	0.0237	0.3682	-0.242
Mof_C 	C 	0.7631	0.002	0.3573	0.01
Mof_H 	H 	0.7511	0.9914	0.3446	0.07
Mof_H 	H 	0.7687	0.9895	0.3724	0.062
Mof_C 	C 	0.7899	0.012	0.3409	0.007
Mof_H 	H 	0.7882	0.005	0.3216	0.047
Mof_O 	O 	0.80439	0.99732	0.20194	-0.458
Mof_N 	N 	0.83334	0.99546	0.15848	-0.123
Mof_C 	C 	0.80454	0.99546	0.17698	0.992
Mof_H 	H 	0.8285	0.9983	0.2039	-0.556
Mof_C 	C 	0.82396	0.99158	0.12877	-0.09
Mof_H 	H 	0.8299	0.0058	0.1154	0.079
Mof_H 	H 	0.8047	0.9852	0.126	0.082
Mof_C 	C 	0.77786	0.53864	0.77505	0.417
Mof_O 	O 	0.78903	0.5295	0.753	-0.452
Mof_O 	O 	0.75556	0.5303	0.78588	-0.456
Mof_C 	C 	0.79286	0.56257	0.78928	-0.209
Mof_C 	C 	0.80749	0.58295	0.77381	0.164
Mof_C 	C 	0.81979	0.60532	0.78688	-0.203
Mof_H 	H 	0.8292	0.6187	0.7762	0.087
Mof_C 	C 	0.81849	0.60839	0.81624	0.103
Mof_C 	C 	0.80387	0.58822	0.83163	-0.212
Mof_H 	H 	0.8028	0.5899	0.8511	0.117
Mof_C 	C 	0.79099	0.56584	0.81871	0.176
Mof_C 	C 	0.85513	0.64626	0.81904	-0.077
Mof_H 	H 	0.8634	0.6387	0.803	0.051
Mof_C 	C 	0.83126	0.63346	0.83029	-0.005
Mof_N 	N 	0.81096	0.58494	0.74143	-0.115
Mof_C 	C 	0.8335	0.5721	0.7286	0.349
Mof_O 	O 	0.8544	0.5632	0.7395	-0.261
Mof_O 	O 	0.8281	0.56875	0.70144	-0.295
Mof_C 	C 	0.7983	0.5768	0.695	0.262
Mof_H 	H 	0.7975	0.5894	0.679	-0.057
Mof_H 	H 	0.7871	0.5602	0.691	-0.02
Mof_C 	C 	0.78832	0.59104	0.72102	-0.505
Mof_H 	H 	0.7708	0.5821	0.7274	0.192
Mof_C 	C 	0.7837	0.62115	0.7179	1.057
Mof_H 	H 	0.7779	0.628	0.7365	-0.302
Mof_C 	C 	0.8087	0.6382	0.7098	-1.571
Mof_H 	H 	0.8245	0.6331	0.7214	0.486
Mof_H 	H 	0.8046	0.6578	0.7124	0.453
Mof_H 	H 	0.8132	0.6348	0.6904	0.478
Mof_C 	C 	0.7592	0.6279	0.6978	-1.534
Mof_H 	H 	0.7564	0.6479	0.6971	0.458
Mof_H 	H 	0.7424	0.619	0.7045	0.492
Mof_H 	H 	0.7636	0.621	0.6793	0.48
Mof_N 	N 	0.7812	0.54232	0.84078	-0.178
Mof_C 	C 	0.7582	0.5471	0.8564	0.391
Mof_O 	O 	0.7455	0.5679	0.8582	-0.291
Mof_O 	O 	0.7483	0.5237	0.8682	-0.243
Mof_C 	C 	0.7631	0.502	0.8573	0.018
Mof_H 	H 	0.7511	0.4914	0.8446	0.067
Mof_H 	H 	0.7687	0.4895	0.8724	0.059
Mof_C 	C 	0.7899	0.512	0.8409	0.005
Mof_H 	H 	0.7882	0.505	0.8216	0.048
Mof_O 	O 	0.80439	0.49732	0.70194	-0.447
Mof_N 	N 	0.83334	0.49546	0.65848	-0.127
Mof_C 	C 	0.80454	0.49546	0.67698	1.004
Mof_H 	H 	0.8285	0.4983	0.7039	-0.552
Mof_C 	C 	0.82396	0.49158	0.62877	-0.092
Mof_H 	H 	0.8299	0.5058	0.6154	0.081
Mof_H 	H 	0.8047	0.4852	0.626	0.082
Mof_C 	C 	0.72214	0.03864	0.22495	0.417
Mof_O 	O 	0.71097	0.0295	0.247	-0.453
Mof_O 	O 	0.74444	0.0303	0.21412	-0.456
Mof_C 	C 	0.70714	0.06257	0.21072	-0.209
Mof_C 	C 	0.69251	0.08295	0.22619	0.164
Mof_C 	C 	0.68021	0.10532	0.21312	-0.203
Mof_H 	H 	0.6708	0.1187	0.2238	0.087
Mof_C 	C 	0.68151	0.10839	0.18376	0.103
Mof_C 	C 	0.69613	0.08822	0.16837	-0.212
Mof_H 	H 	0.6972	0.0899	0.1489	0.117
Mof_C 	C 	0.70901	0.06584	0.18129	0.176
Mof_C 	C 	0.64487	0.14626	0.18096	-0.077
Mof_H 	H 	0.6366	0.1387	0.197	0.051
Mof_C 	C 	0.66874	0.13346	0.16971	-0.005
Mof_N 	N 	0.68904	0.08494	0.25857	-0.115
Mof_C 	C 	0.6665	0.0721	0.2714	0.349
Mof_O 	O 	0.6456	0.0632	0.2605	-0.261
Mof_O 	O 	0.6719	0.06875	0.29856	-0.296
Mof_C 	C 	0.7017	0.0768	0.305	0.263
Mof_H 	H 	0.7025	0.0894	0.321	-0.058
Mof_H 	H 	0.7129	0.0602	0.309	-0.021
Mof_C 	C 	0.71168	0.09104	0.27898	-0.505
Mof_H 	H 	0.7292	0.0821	0.2726	0.192
Mof_C 	C 	0.7163	0.12115	0.2821	1.057
Mof_H 	H 	0.7221	0.128	0.2635	-0.302
Mof_C 	C 	0.6913	0.1382	0.2902	-1.571
Mof_H 	H 	0.6755	0.1331	0.2786	0.486
Mof_H 	H 	0.6954	0.1578	0.2876	0.453
Mof_H 	H 	0.6868	0.1348	0.3096	0.478
Mof_C 	C 	0.7408	0.1279	0.3022	-1.534
Mof_H 	H 	0.7436	0.1479	0.3029	0.458
Mof_H 	H 	0.7576	0.119	0.2955	0.492
Mof_H 	H 	0.7364	0.121	0.3207	0.48
Mof_N 	N 	0.7188	0.04232	0.15922	-0.178
Mof_C 	C 	0.7418	0.0471	0.1436	0.391
Mof_O 	O 	0.7545	0.0679	0.1418	-0.291
Mof_O 	O 	0.7517	0.0237	0.1318	-0.242
Mof_C 	C 	0.7369	0.002	0.1427	0.01
Mof_H 	H 	0.7489	0.9914	0.1554	0.07
Mof_H 	H 	0.7313	0.9895	0.1276	0.062
Mof_C 	C 	0.7101	0.012	0.1591	0.007
Mof_H 	H 	0.7118	0.005	0.1784	0.047
Mof_O 	O 	0.69561	0.99732	0.29806	-0.458
Mof_N 	N 	0.66666	0.99546	0.34152	-0.123
Mof_C 	C 	0.69546	0.99546	0.32302	0.992
Mof_H 	H 	0.6715	0.9983	0.2961	-0.556
Mof_C 	C 	0.67604	0.99158	0.37123	-0.09
Mof_H 	H 	0.6701	0.0058	0.3846	0.079
Mof_H 	H 	0.6953	0.9852	0.374	0.082
Mof_C 	C 	0.72214	0.53864	0.72495	0.417
Mof_O 	O 	0.71097	0.5295	0.747	-0.452
Mof_O 	O 	0.74444	0.5303	0.71412	-0.456
Mof_C 	C 	0.70714	0.56257	0.71072	-0.209
Mof_C 	C 	0.69251	0.58295	0.72619	0.164
Mof_C 	C 	0.68021	0.60532	0.71312	-0.203
Mof_H 	H 	0.6708	0.6187	0.7238	0.087
Mof_C 	C 	0.68151	0.60839	0.68376	0.103
Mof_C 	C 	0.69613	0.58822	0.66837	-0.212
Mof_H 	H 	0.6972	0.5899	0.6489	0.117
Mof_C 	C 	0.70901	0.56584	0.68129	0.176
Mof_C 	C 	0.64487	0.64626	0.68096	-0.077
Mof_H 	H 	0.6366	0.6387	0.697	0.051
Mof_C 	C 	0.66874	0.63346	0.66971	-0.005
Mof_N 	N 	0.68904	0.58494	0.75857	-0.115
Mof_C 	C 	0.6665	0.5721	0.7714	0.349
Mof_O 	O 	0.6456	0.5632	0.7605	-0.261
Mof_O 	O 	0.6719	0.56875	0.79856	-0.295
Mof_C 	C 	0.7017	0.5768	0.805	0.262
Mof_H 	H 	0.7025	0.5894	0.821	-0.057
Mof_H 	H 	0.7129	0.5602	0.809	-0.02
Mof_C 	C 	0.71168	0.59104	0.77898	-0.505
Mof_H 	H 	0.7292	0.5821	0.7726	0.192
Mof_C 	C 	0.7163	0.62115	0.7821	1.057
Mof_H 	H 	0.7221	0.628	0.7635	-0.302
Mof_C 	C 	0.6913	0.6382	0.7902	-1.571
Mof_H 	H 	0.6755	0.6331	0.7786	0.486
Mof_H 	H 	0.6954	0.6578	0.7876	0.453
Mof_H 	H 	0.6868	0.6348	0.8096	0.478
Mof_C 	C 	0.7408	0.6279	0.8022	-1.534
Mof_H 	H 	0.7436	0.6479	0.8029	0.458
Mof_H 	H 	0.7576	0.619	0.7955	0.492
Mof_H 	H 	0.7364	0.621	0.8207	0.48
Mof_N 	N 	0.7188	0.54232	0.65922	-0.178
Mof_C 	C 	0.7418	0.5471	0.6436	0.391
Mof_O 	O 	0.7545	0.5679	0.6418	-0.291
Mof_O 	O 	0.7517	0.5237	0.6318	-0.243
Mof_C 	C 	0.7369	0.502	0.6427	0.018
Mof_H 	H 	0.7489	0.4914	0.6554	0.067
Mof_H 	H 	0.7313	0.4895	0.6276	0.058
Mof_C 	C 	0.7101	0.512	0.6591	0.005
Mof_H 	H 	0.7118	0.505	0.6784	0.048
Mof_O 	O 	0.69561	0.49732	0.79806	-0.447
Mof_N 	N 	0.66666	0.49546	0.84152	-0.127
Mof_C 	C 	0.69546	0.49546	0.82302	1.004
Mof_H 	H 	0.6715	0.4983	0.7961	-0.552
Mof_C 	C 	0.67604	0.49158	0.87123	-0.092
Mof_H 	H 	0.6701	0.5058	0.8846	0.081
Mof_H 	H 	0.6953	0.4852	0.874	0.082
Mof_C 	C 	0.22214	0.03864	0.72495	0.417
Mof_O 	O 	0.21097	0.0295	0.747	-0.453
Mof_O 	O 	0.24444	0.0303	0.71412	-0.456
Mof_C 	C 	0.20714	0.06257	0.71072	-0.209
Mof_C 	C 	0.19251	0.08295	0.72619	0.164
Mof_C 	C 	0.18021	0.10532	0.71312	-0.203
Mof_H 	H 	0.1708	0.1187	0.7238	0.087
Mof_C 	C 	0.18151	0.10839	0.68376	0.103
Mof_C 	C 	0.19613	0.08822	0.66837	-0.212
Mof_H 	H 	0.1972	0.0899	0.6489	0.117
Mof_C 	C 	0.20901	0.06584	0.68129	0.176
Mof_C 	C 	0.14487	0.14626	0.68096	-0.077
Mof_H 	H 	0.1366	0.1387	0.697	0.051
Mof_C 	C 	0.16874	0.13346	0.66971	-0.005
Mof_N 	N 	0.18904	0.08494	0.75857	-0.115
Mof_C 	C 	0.1665	0.0721	0.7714	0.349
Mof_O 	O 	0.1456	0.0632	0.7605	-0.261
Mof_O 	O 	0.1719	0.06875	0.79856	-0.296
Mof_C 	C 	0.2017	0.0768	0.805	0.263
Mof_H 	H 	0.2025	0.0894	0.821	-0.057
Mof_H 	H 	0.2129	0.0602	0.809	-0.021
Mof_C 	C 	0.21168	0.09104	0.77898	-0.505
Mof_H 	H 	0.2292	0.0821	0.7726	0.192
Mof_C 	C 	0.2163	0.12115	0.7821	1.057
Mof_H 	H 	0.2221	0.128	0.7635	-0.302
Mof_C 	C 	0.1913	0.1382	0.7902	-1.571
Mof_H 	H 	0.1755	0.1331	0.7786	0.486
Mof_H 	H 	0.1954	0.1578	0.7876	0.453
Mof_H 	H 	0.1868	0.1348	0.8096	0.478
Mof_C 	C 	0.2408	0.1279	0.8022	-1.534
Mof_H 	H 	0.2436	0.1479	0.8029	0.458
Mof_H 	H 	0.2576	0.119	0.7955	0.492
Mof_H 	H 	0.2364	0.121	0.8207	0.48
Mof_N 	N 	0.2188	0.04232	0.65922	-0.178
Mof_C 	C 	0.2418	0.0471	0.6436	0.391
Mof_O 	O 	0.2545	0.0679	0.6418	-0.291
Mof_O 	O 	0.2517	0.0237	0.6318	-0.242
Mof_C 	C 	0.2369	0.002	0.6427	0.01
Mof_H 	H 	0.2489	0.9914	0.6554	0.07
Mof_H 	H 	0.2313	0.9895	0.6276	0.062
Mof_C 	C 	0.2101	0.012	0.6591	0.007
Mof_H 	H 	0.2118	0.005	0.6784	0.047
Mof_O 	O 	0.19561	0.99732	0.79806	-0.458
Mof_N 	N 	0.16666	0.99546	0.84152	-0.123
Mof_C 	C 	0.19546	0.99546	0.82302	0.992
Mof_H 	H 	0.1715	0.9983	0.7961	-0.556
Mof_C 	C 	0.17604	0.99158	0.87123	-0.09
Mof_H 	H 	0.1701	0.0058	0.8846	0.079
Mof_H 	H 	0.1953	0.9852	0.874	0.082
Mof_C 	C 	0.22214	0.53864	0.22495	0.417
Mof_O 	O 	0.21097	0.5295	0.247	-0.452
Mof_O 	O 	0.24444	0.5303	0.21412	-0.456
Mof_C 	C 	0.20714	0.56257	0.21072	-0.209
Mof_C 	C 	0.19251	0.58295	0.22619	0.164
Mof_C 	C 	0.18021	0.60532	0.21312	-0.203
Mof_H 	H 	0.1708	0.6187	0.2238	0.087
Mof_C 	C 	0.18151	0.60839	0.18376	0.103
Mof_C 	C 	0.19613	0.58822	0.16837	-0.212
Mof_H 	H 	0.1972	0.5899	0.1489	0.117
Mof_C 	C 	0.20901	0.56584	0.18129	0.176
Mof_C 	C 	0.14487	0.64626	0.18096	-0.077
Mof_H 	H 	0.1366	0.6387	0.197	0.051
Mof_C 	C 	0.16874	0.63346	0.16971	-0.005
Mof_N 	N 	0.18904	0.58494	0.25857	-0.115
Mof_C 	C 	0.1665	0.5721	0.2714	0.349
Mof_O 	O 	0.1456	0.5632	0.2605	-0.261
Mof_O 	O 	0.1719	0.56875	0.29856	-0.295
Mof_C 	C 	0.2017	0.5768	0.305	0.262
Mof_H 	H 	0.2025	0.5894	0.321	-0.057
Mof_H 	H 	0.2129	0.5602	0.309	-0.02
Mof_C 	C 	0.21168	0.59104	0.27898	-0.505
Mof_H 	H 	0.2292	0.5821	0.2726	0.192
Mof_C 	C 	0.2163	0.62115	0.2821	1.057
Mof_H 	H 	0.2221	0.628	0.2635	-0.302
Mof_C 	C 	0.1913	0.6382	0.2902	-1.571
Mof_H 	H 	0.1755	0.6331	0.2786	0.486
Mof_H 	H 	0.1954	0.6578	0.2876	0.453
Mof_H 	H 	0.1868	0.6348	0.3096	0.478
Mof_C 	C 	0.2408	0.6279	0.3022	-1.534
Mof_H 	H 	0.2436	0.6479	0.3029	0.458
Mof_H 	H 	0.2576	0.619	0.2955	0.492
Mof_H 	H 	0.2364	0.621	0.3207	0.48
Mof_N 	N 	0.2188	0.54232	0.15922	-0.178
Mof_C 	C 	0.2418	0.5471	0.1436	0.391
Mof_O 	O 	0.2545	0.5679	0.1418	-0.291
Mof_O 	O 	0.2517	0.5237	0.1318	-0.243
Mof_C 	C 	0.2369	0.502	0.1427	0.018
Mof_H 	H 	0.2489	0.4914	0.1554	0.067
Mof_H 	H 	0.2313	0.4895	0.1276	0.058
Mof_C 	C 	0.2101	0.512	0.1591	0.005
Mof_H 	H 	0.2118	0.505	0.1784	0.048
Mof_O 	O 	0.19561	0.49732	0.29806	-0.447
Mof_N 	N 	0.16666	0.49546	0.34152	-0.127
Mof_C 	C 	0.19546	0.49546	0.32302	1.004
Mof_H 	H 	0.1715	0.4983	0.2961	-0.552
Mof_C 	C 	0.17604	0.49158	0.37123	-0.092
Mof_H 	H 	0.1701	0.5058	0.3846	0.081
Mof_H 	H 	0.1953	0.4852	0.374	0.082
Mof_C 	C 	0.27786	0.96136	0.22495	0.417
Mof_O 	O 	0.28903	0.9705	0.247	-0.452
Mof_O 	O 	0.25556	0.9697	0.21412	-0.455
Mof_C 	C 	0.29286	0.93743	0.21072	-0.208
Mof_C 	C 	0.30749	0.91705	0.22619	0.164
Mof_C 	C 	0.31979	0.89468	0.21312	-0.203
Mof_H 	H 	0.3292	0.8813	0.2238	0.087
Mof_C 	C 	0.31849	0.89161	0.18376	0.103
Mof_C 	C 	0.30387	0.91178	0.16837	-0.212
Mof_H 	H 	0.3028	0.9101	0.1489	0.117
Mof_C 	C 	0.29099	0.93416	0.18129	0.176
Mof_C 	C 	0.35513	0.85374	0.18096	-0.077
Mof_H 	H 	0.3634	0.8613	0.197	0.051
Mof_C 	C 	0.33126	0.86654	0.16971	-0.005
Mof_N 	N 	0.31096	0.91506	0.25857	-0.115
Mof_C 	C 	0.3335	0.9279	0.2714	0.349
Mof_O 	O 	0.3544	0.9368	0.2605	-0.261
Mof_O 	O 	0.3281	0.93125	0.29856	-0.295
Mof_C 	C 	0.2983	0.9232	0.305	0.262
Mof_H 	H 	0.2975	0.9106	0.321	-0.057
Mof_H 	H 	0.2871	0.9398	0.309	-0.02
Mof_C 	C 	0.28832	0.90896	0.27898	-0.505
Mof_H 	H 	0.2708	0.9179	0.2726	0.192
Mof_C 	C 	0.2837	0.87885	0.2821	1.057
Mof_H 	H 	0.2779	0.872	0.2635	-0.301
Mof_C 	C 	0.3087	0.8618	0.2902	-1.571
Mof_H 	H 	0.3245	0.8669	0.2786	0.486
Mof_H 	H 	0.3046	0.8422	0.2876	0.453
Mof_H 	H 	0.3132	0.8652	0.3096	0.478
Mof_C 	C 	0.2592	0.8721	0.3022	-1.534
Mof_H 	H 	0.2564	0.8521	0.3029	0.458
Mof_H 	H 	0.2424	0.881	0.2955	0.492
Mof_H 	H 	0.2636	0.879	0.3207	0.48
Mof_N 	N 	0.2812	0.95768	0.15922	-0.177
Mof_C 	C 	0.2582	0.9529	0.1436	0.391
Mof_O 	O 	0.2455	0.9321	0.1418	-0.291
Mof_O 	O 	0.2483	0.9763	0.1318	-0.244
Mof_C 	C 	0.2631	0.998	0.1427	0.026
Mof_H 	H 	0.2511	0.0086	0.1554	0.064
Mof_H 	H 	0.2687	0.0105	0.1276	0.055
Mof_C 	C 	0.2899	0.988	0.1591	0.004
Mof_H 	H 	0.2882	0.995	0.1784	0.049
Mof_O 	O 	0.30439	0.00268	0.29806	-0.435
Mof_N 	N 	0.33334	0.00454	0.34152	-0.131
Mof_C 	C 	0.30454	0.00454	0.32302	1.015
Mof_H 	H 	0.3285	0.0017	0.2961	-0.547
Mof_C 	C 	0.32396	0.00842	0.37123	-0.095
Mof_H 	H 	0.3299	0.9942	0.3846	0.083
Mof_H 	H 	0.3047	0.0148	0.374	0.083
Mof_C 	C 	0.27786	0.46136	0.72495	0.417
Mof_O 	O 	0.28903	0.4705	0.747	-0.452
Mof_O 	O 	0.25556	0.4697	0.71412	-0.456
Mof_C 	C 	0.29286	0.43743	0.71072	-0.209
Mof_C 	C 	0.30749	0.41705	0.72619	0.164
Mof_C 	C 	0.31979	0.39468	0.71312	-0.203
Mof_H 	H 	0.3292	0.3813	0.7238	0.087
Mof_C 	C 	0.31849	0.39161	0.68376	0.103
Mof_C 	C 	0.30387	0.41178	0.66837	-0.212
Mof_H 	H 	0.3028	0.4101	0.6489	0.117
Mof_C 	C 	0.29099	0.43416	0.68129	0.176
Mof_C 	C 	0.35513	0.35374	0.68096	-0.077
Mof_H 	H 	0.3634	0.3613	0.697	0.051
Mof_C 	C 	0.33126	0.36654	0.66971	-0.005
Mof_N 	N 	0.31096	0.41506	0.75857	-0.115
Mof_C 	C 	0.3335	0.4279	0.7714	0.349
Mof_O 	O 	0.3544	0.4368	0.7605	-0.261
Mof_O 	O 	0.3281	0.43125	0.79856	-0.295
Mof_C 	C 	0.2983	0.4232	0.805	0.262
Mof_H 	H 	0.2975	0.4106	0.821	-0.057
Mof_H 	H 	0.2871	0.4398	0.809	-0.02
Mof_C 	C 	0.28832	0.40896	0.77898	-0.505
Mof_H 	H 	0.2708	0.4179	0.7726	0.192
Mof_C 	C 	0.2837	0.37885	0.7821	1.057
Mof_H 	H 	0.2779	0.372	0.7635	-0.302
Mof_C 	C 	0.3087	0.3618	0.7902	-1.571
Mof_H 	H 	0.3245	0.3669	0.7786	0.486
Mof_H 	H 	0.3046	0.3422	0.7876	0.453
Mof_H 	H 	0.3132	0.3652	0.8096	0.478
Mof_C 	C 	0.2592	0.3721	0.8022	-1.534
Mof_H 	H 	0.2564	0.3521	0.8029	0.458
Mof_H 	H 	0.2424	0.381	0.7955	0.492
Mof_H 	H 	0.2636	0.379	0.8207	0.48
Mof_N 	N 	0.2812	0.45768	0.65922	-0.178
Mof_C 	C 	0.2582	0.4529	0.6436	0.391
Mof_O 	O 	0.2455	0.4321	0.6418	-0.291
Mof_O 	O 	0.2483	0.4763	0.6318	-0.243
Mof_C 	C 	0.2631	0.498	0.6427	0.018
Mof_H 	H 	0.2511	0.5086	0.6554	0.067
Mof_H 	H 	0.2687	0.5105	0.6276	0.058
Mof_C 	C 	0.2899	0.488	0.6591	0.005
Mof_H 	H 	0.2882	0.495	0.6784	0.048
Mof_O 	O 	0.30439	0.50268	0.79806	-0.447
Mof_N 	N 	0.33334	0.50454	0.84152	-0.127
Mof_C 	C 	0.30454	0.50454	0.82302	1.004
Mof_H 	H 	0.3285	0.5017	0.7961	-0.552
Mof_C 	C 	0.32396	0.50842	0.87123	-0.092
Mof_H 	H 	0.3299	0.4942	0.8846	0.081
Mof_H 	H 	0.3047	0.5148	0.874	0.082
Mof_C 	C 	0.77786	0.96136	0.72495	0.417
Mof_O 	O 	0.78903	0.9705	0.747	-0.452
Mof_O 	O 	0.75556	0.9697	0.71412	-0.455
Mof_C 	C 	0.79286	0.93743	0.71072	-0.208
Mof_C 	C 	0.80749	0.91705	0.72619	0.164
Mof_C 	C 	0.81979	0.89468	0.71312	-0.203
Mof_H 	H 	0.8292	0.8813	0.7238	0.087
Mof_C 	C 	0.81849	0.89161	0.68376	0.103
Mof_C 	C 	0.80387	0.91178	0.66837	-0.212
Mof_H 	H 	0.8028	0.9101	0.6489	0.117
Mof_C 	C 	0.79099	0.93416	0.68129	0.176
Mof_C 	C 	0.85513	0.85374	0.68096	-0.077
Mof_H 	H 	0.8634	0.8613	0.697	0.051
Mof_C 	C 	0.83126	0.86654	0.66971	-0.005
Mof_N 	N 	0.81096	0.91506	0.75857	-0.115
Mof_C 	C 	0.8335	0.9279	0.7714	0.349
Mof_O 	O 	0.8544	0.9368	0.7605	-0.26
Mof_O 	O 	0.8281	0.93125	0.79856	-0.295
Mof_C 	C 	0.7983	0.9232	0.805	0.262
Mof_H 	H 	0.7975	0.9106	0.821	-0.057
Mof_H 	H 	0.7871	0.9398	0.809	-0.02
Mof_C 	C 	0.78832	0.90896	0.77898	-0.505
Mof_H 	H 	0.7708	0.9179	0.7726	0.192
Mof_C 	C 	0.7837	0.87885	0.7821	1.057
Mof_H 	H 	0.7779	0.872	0.7635	-0.301
Mof_C 	C 	0.8087	0.8618	0.7902	-1.571
Mof_H 	H 	0.8245	0.8669	0.7786	0.486
Mof_H 	H 	0.8046	0.8422	0.7876	0.453
Mof_H 	H 	0.8132	0.8652	0.8096	0.478
Mof_C 	C 	0.7592	0.8721	0.8022	-1.534
Mof_H 	H 	0.7564	0.8521	0.8029	0.458
Mof_H 	H 	0.7424	0.881	0.7955	0.492
Mof_H 	H 	0.7636	0.879	0.8207	0.48
Mof_N 	N 	0.7812	0.95768	0.65922	-0.177
Mof_C 	C 	0.7582	0.9529	0.6436	0.391
Mof_O 	O 	0.7455	0.9321	0.6418	-0.291
Mof_O 	O 	0.7483	0.9763	0.6318	-0.244
Mof_C 	C 	0.7631	0.998	0.6427	0.026
Mof_H 	H 	0.7511	0.0086	0.6554	0.064
Mof_H 	H 	0.7687	0.0105	0.6276	0.055
Mof_C 	C 	0.7899	0.988	0.6591	0.004
Mof_H 	H 	0.7882	0.995	0.6784	0.049
Mof_O 	O 	0.80439	0.00268	0.79806	-0.435
Mof_N 	N 	0.83334	0.00454	0.84152	-0.131
Mof_C 	C 	0.80454	0.00454	0.82302	1.015
Mof_H 	H 	0.8285	0.0017	0.7961	-0.547
Mof_C 	C 	0.82396	0.00842	0.87123	-0.095
Mof_H 	H 	0.8299	0.9942	0.8846	0.083
Mof_H 	H 	0.8047	0.0148	0.874	0.083
Mof_C 	C 	0.77786	0.46136	0.22495	0.417
Mof_O 	O 	0.78903	0.4705	0.247	-0.452
Mof_O 	O 	0.75556	0.4697	0.21412	-0.456
Mof_C 	C 	0.79286	0.43743	0.21072	-0.209
Mof_C 	C 	0.80749	0.41705	0.22619	0.164
Mof_C 	C 	0.81979	0.39468	0.21312	-0.203
Mof_H 	H 	0.8292	0.3813	0.2238	0.087
Mof_C 	C 	0.81849	0.39161	0.18376	0.103
Mof_C 	C 	0.80387	0.41178	0.16837	-0.212
Mof_H 	H 	0.8028	0.4101	0.1489	0.117
Mof_C 	C 	0.79099	0.43416	0.18129	0.176
Mof_C 	C 	0.85513	0.35374	0.18096	-0.077
Mof_H 	H 	0.8634	0.3613	0.197	0.051
Mof_C 	C 	0.83126	0.36654	0.16971	-0.005
Mof_N 	N 	0.81096	0.41506	0.25857	-0.115
Mof_C 	C 	0.8335	0.4279	0.2714	0.349
Mof_O 	O 	0.8544	0.4368	0.2605	-0.261
Mof_O 	O 	0.8281	0.43125	0.29856	-0.295
Mof_C 	C 	0.7983	0.4232	0.305	0.262
Mof_H 	H 	0.7975	0.4106	0.321	-0.057
Mof_H 	H 	0.7871	0.4398	0.309	-0.02
Mof_C 	C 	0.78832	0.40896	0.27898	-0.505
Mof_H 	H 	0.7708	0.4179	0.2726	0.192
Mof_C 	C 	0.7837	0.37885	0.2821	1.057
Mof_H 	H 	0.7779	0.372	0.2635	-0.302
Mof_C 	C 	0.8087	0.3618	0.2902	-1.571
Mof_H 	H 	0.8245	0.3669	0.2786	0.486
Mof_H 	H 	0.8046	0.3422	0.2876	0.453
Mof_H 	H 	0.8132	0.3652	0.3096	0.478
Mof_C 	C 	0.7592	0.3721	0.3022	-1.534
Mof_H 	H 	0.7564	0.3521	0.3029	0.458
Mof_H 	H 	0.7424	0.381	0.2955	0.492
Mof_H 	H 	0.7636	0.379	0.3207	0.48
Mof_N 	N 	0.7812	0.45768	0.15922	-0.178
Mof_C 	C 	0.7582	0.4529	0.1436	0.391
Mof_O 	O 	0.7455	0.4321	0.1418	-0.291
Mof_O 	O 	0.7483	0.4763	0.1318	-0.243
Mof_C 	C 	0.7631	0.498	0.1427	0.018
Mof_H 	H 	0.7511	0.5086	0.1554	0.067
Mof_H 	H 	0.7687	0.5105	0.1276	0.058
Mof_C 	C 	0.7899	0.488	0.1591	0.005
Mof_H 	H 	0.7882	0.495	0.1784	0.048
Mof_O 	O 	0.80439	0.50268	0.29806	-0.447
Mof_N 	N 	0.83334	0.50454	0.34152	-0.127
Mof_C 	C 	0.80454	0.50454	0.32302	1.004
Mof_H 	H 	0.8285	0.5017	0.2961	-0.552
Mof_C 	C 	0.82396	0.50842	0.37123	-0.092
Mof_H 	H 	0.8299	0.4942	0.3846	0.081
Mof_H 	H 	0.8047	0.5148	0.374	0.082
Mof_C 	C 	0.96136	0.22495	0.27786	0.417
Mof_O 	O 	0.9705	0.247	0.28903	-0.452
Mof_O 	O 	0.9697	0.21412	0.25556	-0.455
Mof_C 	C 	0.93743	0.21072	0.29286	-0.208
Mof_C 	C 	0.91705	0.22619	0.30749	0.164
Mof_C 	C 	0.89468	0.21312	0.31979	-0.203
Mof_H 	H 	0.8813	0.2238	0.3292	0.087
Mof_C 	C 	0.89161	0.18376	0.31849	0.103
Mof_C 	C 	0.91178	0.16837	0.30387	-0.212
Mof_H 	H 	0.9101	0.1489	0.3028	0.117
Mof_C 	C 	0.93416	0.18129	0.29099	0.176
Mof_C 	C 	0.85374	0.18096	0.35513	-0.077
Mof_H 	H 	0.8613	0.197	0.3634	0.051
Mof_C 	C 	0.86654	0.16971	0.33126	-0.005
Mof_N 	N 	0.91506	0.25857	0.31096	-0.115
Mof_C 	C 	0.9279	0.2714	0.3335	0.349
Mof_O 	O 	0.9368	0.2605	0.3544	-0.261
Mof_O 	O 	0.93125	0.29856	0.3281	-0.295
Mof_C 	C 	0.9232	0.305	0.2983	0.262
Mof_H 	H 	0.9106	0.321	0.2975	-0.057
Mof_H 	H 	0.9398	0.309	0.2871	-0.02
Mof_C 	C 	0.90896	0.27898	0.28832	-0.505
Mof_H 	H 	0.9179	0.2726	0.2708	0.192
Mof_C 	C 	0.87885	0.2821	0.2837	1.057
Mof_H 	H 	0.872	0.2635	0.2779	-0.301
Mof_C 	C 	0.8618	0.2902	0.3087	-1.571
Mof_H 	H 	0.8669	0.2786	0.3245	0.486
Mof_H 	H 	0.8422	0.2876	0.3046	0.453
Mof_H 	H 	0.8652	0.3096	0.3132	0.478
Mof_C 	C 	0.8721	0.3022	0.2592	-1.534
Mof_H 	H 	0.8521	0.3029	0.2564	0.458
Mof_H 	H 	0.881	0.2955	0.2424	0.492
Mof_H 	H 	0.879	0.3207	0.2636	0.48
Mof_N 	N 	0.95768	0.15922	0.2812	-0.177
Mof_C 	C 	0.9529	0.1436	0.2582	0.391
Mof_O 	O 	0.9321	0.1418	0.2455	-0.291
Mof_O 	O 	0.9763	0.1318	0.2483	-0.244
Mof_C 	C 	0.998	0.1427	0.2631	0.026
Mof_H 	H 	0.0086	0.1554	0.2511	0.064
Mof_H 	H 	0.0105	0.1276	0.2687	0.055
Mof_C 	C 	0.988	0.1591	0.2899	0.004
Mof_H 	H 	0.995	0.1784	0.2882	0.049
Mof_O 	O 	0.00268	0.29806	0.30439	-0.435
Mof_N 	N 	0.00454	0.34152	0.33334	-0.131
Mof_C 	C 	0.00454	0.32302	0.30454	1.015
Mof_H 	H 	0.0017	0.2961	0.3285	-0.547
Mof_C 	C 	0.00842	0.37123	0.32396	-0.095
Mof_H 	H 	0.9942	0.3846	0.3299	0.083
Mof_H 	H 	0.0148	0.374	0.3047	0.083
Mof_C 	C 	0.96136	0.72495	0.77786	0.417
Mof_O 	O 	0.9705	0.747	0.78903	-0.452
Mof_O 	O 	0.9697	0.71412	0.75556	-0.455
Mof_C 	C 	0.93743	0.71072	0.79286	-0.208
Mof_C 	C 	0.91705	0.72619	0.80749	0.164
Mof_C 	C 	0.89468	0.71312	0.81979	-0.203
Mof_H 	H 	0.8813	0.7238	0.8292	0.087
Mof_C 	C 	0.89161	0.68376	0.81849	0.103
Mof_C 	C 	0.91178	0.66837	0.80387	-0.212
Mof_H 	H 	0.9101	0.6489	0.8028	0.117
Mof_C 	C 	0.93416	0.68129	0.79099	0.176
Mof_C 	C 	0.85374	0.68096	0.85513	-0.077
Mof_H 	H 	0.8613	0.697	0.8634	0.051
Mof_C 	C 	0.86654	0.66971	0.83126	-0.005
Mof_N 	N 	0.91506	0.75857	0.81096	-0.115
Mof_C 	C 	0.9279	0.7714	0.8335	0.349
Mof_O 	O 	0.9368	0.7605	0.8544	-0.26
Mof_O 	O 	0.93125	0.79856	0.8281	-0.295
Mof_C 	C 	0.9232	0.805	0.7983	0.262
Mof_H 	H 	0.9106	0.821	0.7975	-0.057
Mof_H 	H 	0.9398	0.809	0.7871	-0.02
Mof_C 	C 	0.90896	0.77898	0.78832	-0.505
Mof_H 	H 	0.9179	0.7726	0.7708	0.192
Mof_C 	C 	0.87885	0.7821	0.7837	1.057
Mof_H 	H 	0.872	0.7635	0.7779	-0.301
Mof_C 	C 	0.8618	0.7902	0.8087	-1.571
Mof_H 	H 	0.8669	0.7786	0.8245	0.486
Mof_H 	H 	0.8422	0.7876	0.8046	0.453
Mof_H 	H 	0.8652	0.8096	0.8132	0.478
Mof_C 	C 	0.8721	0.8022	0.7592	-1.534
Mof_H 	H 	0.8521	0.8029	0.7564	0.458
Mof_H 	H 	0.881	0.7955	0.7424	0.492
Mof_H 	H 	0.879	0.8207	0.7636	0.48
Mof_N 	N 	0.95768	0.65922	0.7812	-0.177
Mof_C 	C 	0.9529	0.6436	0.7582	0.391
Mof_O 	O 	0.9321	0.6418	0.7455	-0.291
Mof_O 	O 	0.9763	0.6318	0.7483	-0.244
Mof_C 	C 	0.998	0.6427	0.7631	0.026
Mof_H 	H 	0.0086	0.6554	0.7511	0.064
Mof_H 	H 	0.0105	0.6276	0.7687	0.055
Mof_C 	C 	0.988	0.6591	0.7899	0.004
Mof_H 	H 	0.995	0.6784	0.7882	0.049
Mof_O 	O 	0.00268	0.79806	0.80439	-0.435
Mof_N 	N 	0.00454	0.84152	0.83334	-0.131
Mof_C 	C 	0.00454	0.82302	0.80454	1.015
Mof_H 	H 	0.0017	0.7961	0.8285	-0.547
Mof_C 	C 	0.00842	0.87123	0.82396	-0.095
Mof_H 	H 	0.9942	0.8846	0.8299	0.083
Mof_H 	H 	0.0148	0.874	0.8047	0.083
Mof_C 	C 	0.46136	0.22495	0.77786	0.417
Mof_O 	O 	0.4705	0.247	0.78903	-0.452
Mof_O 	O 	0.4697	0.21412	0.75556	-0.456
Mof_C 	C 	0.43743	0.21072	0.79286	-0.209
Mof_C 	C 	0.41705	0.22619	0.80749	0.164
Mof_C 	C 	0.39468	0.21312	0.81979	-0.203
Mof_H 	H 	0.3813	0.2238	0.8292	0.087
Mof_C 	C 	0.39161	0.18376	0.81849	0.103
Mof_C 	C 	0.41178	0.16837	0.80387	-0.212
Mof_H 	H 	0.4101	0.1489	0.8028	0.117
Mof_C 	C 	0.43416	0.18129	0.79099	0.176
Mof_C 	C 	0.35374	0.18096	0.85513	-0.077
Mof_H 	H 	0.3613	0.197	0.8634	0.051
Mof_C 	C 	0.36654	0.16971	0.83126	-0.005
Mof_N 	N 	0.41506	0.25857	0.81096	-0.115
Mof_C 	C 	0.4279	0.2714	0.8335	0.349
Mof_O 	O 	0.4368	0.2605	0.8544	-0.261
Mof_O 	O 	0.43125	0.29856	0.8281	-0.295
Mof_C 	C 	0.4232	0.305	0.7983	0.262
Mof_H 	H 	0.4106	0.321	0.7975	-0.057
Mof_H 	H 	0.4398	0.309	0.7871	-0.02
Mof_C 	C 	0.40896	0.27898	0.78832	-0.505
Mof_H 	H 	0.4179	0.2726	0.7708	0.192
Mof_C 	C 	0.37885	0.2821	0.7837	1.057
Mof_H 	H 	0.372	0.2635	0.7779	-0.302
Mof_C 	C 	0.3618	0.2902	0.8087	-1.571
Mof_H 	H 	0.3669	0.2786	0.8245	0.486
Mof_H 	H 	0.3422	0.2876	0.8046	0.453
Mof_H 	H 	0.3652	0.3096	0.8132	0.478
Mof_C 	C 	0.3721	0.3022	0.7592	-1.534
Mof_H 	H 	0.3521	0.3029	0.7564	0.458
Mof_H 	H 	0.381	0.2955	0.7424	0.492
Mof_H 	H 	0.379	0.3207	0.7636	0.48
Mof_N 	N 	0.45768	0.15922	0.7812	-0.178
Mof_C 	C 	0.4529	0.1436	0.7582	0.391
Mof_O 	O 	0.4321	0.1418	0.7455	-0.291
Mof_O 	O 	0.4763	0.1318	0.7483	-0.243
Mof_C 	C 	0.498	0.1427	0.7631	0.018
Mof_H 	H 	0.5086	0.1554	0.7511	0.067
Mof_H 	H 	0.5105	0.1276	0.7687	0.058
Mof_C 	C 	0.488	0.1591	0.7899	0.005
Mof_H 	H 	0.495	0.1784	0.7882	0.048
Mof_O 	O 	0.50268	0.29806	0.80439	-0.447
Mof_N 	N 	0.50454	0.34152	0.83334	-0.127
Mof_C 	C 	0.50454	0.32302	0.80454	1.004
Mof_H 	H 	0.5017	0.2961	0.8285	-0.552
Mof_C 	C 	0.50842	0.37123	0.82396	-0.092
Mof_H 	H 	0.4942	0.3846	0.8299	0.081
Mof_H 	H 	0.5148	0.374	0.8047	0.082
Mof_C 	C 	0.46136	0.72495	0.27786	0.417
Mof_O 	O 	0.4705	0.747	0.28903	-0.452
Mof_O 	O 	0.4697	0.71412	0.25556	-0.456
Mof_C 	C 	0.43743	0.71072	0.29286	-0.209
Mof_C 	C 	0.41705	0.72619	0.30749	0.164
Mof_C 	C 	0.39468	0.71312	0.31979	-0.203
Mof_H 	H 	0.3813	0.7238	0.3292	0.087
Mof_C 	C 	0.39161	0.68376	0.31849	0.103
Mof_C 	C 	0.41178	0.66837	0.30387	-0.212
Mof_H 	H 	0.4101	0.6489	0.3028	0.117
Mof_C 	C 	0.43416	0.68129	0.29099	0.176
Mof_C 	C 	0.35374	0.68096	0.35513	-0.077
Mof_H 	H 	0.3613	0.697	0.3634	0.051
Mof_C 	C 	0.36654	0.66971	0.33126	-0.005
Mof_N 	N 	0.41506	0.75857	0.31096	-0.115
Mof_C 	C 	0.4279	0.7714	0.3335	0.349
Mof_O 	O 	0.4368	0.7605	0.3544	-0.261
Mof_O 	O 	0.43125	0.79856	0.3281	-0.295
Mof_C 	C 	0.4232	0.805	0.2983	0.262
Mof_H 	H 	0.4106	0.821	0.2975	-0.057
Mof_H 	H 	0.4398	0.809	0.2871	-0.02
Mof_C 	C 	0.40896	0.77898	0.28832	-0.505
Mof_H 	H 	0.4179	0.7726	0.2708	0.192
Mof_C 	C 	0.37885	0.7821	0.2837	1.057
Mof_H 	H 	0.372	0.7635	0.2779	-0.302
Mof_C 	C 	0.3618	0.7902	0.3087	-1.571
Mof_H 	H 	0.3669	0.7786	0.3245	0.486
Mof_H 	H 	0.3422	0.7876	0.3046	0.453
Mof_H 	H 	0.3652	0.8096	0.3132	0.478
Mof_C 	C 	0.3721	0.8022	0.2592	-1.534
Mof_H 	H 	0.3521	0.8029	0.2564	0.458
Mof_H 	H 	0.381	0.7955	0.2424	0.492
Mof_H 	H 	0.379	0.8207	0.2636	0.48
Mof_N 	N 	0.45768	0.65922	0.2812	-0.178
Mof_C 	C 	0.4529	0.6436	0.2582	0.391
Mof_O 	O 	0.4321	0.6418	0.2455	-0.291
Mof_O 	O 	0.4763	0.6318	0.2483	-0.243
Mof_C 	C 	0.498	0.6427	0.2631	0.018
Mof_H 	H 	0.5086	0.6554	0.2511	0.067
Mof_H 	H 	0.5105	0.6276	0.2687	0.058
Mof_C 	C 	0.488	0.6591	0.2899	0.005
Mof_H 	H 	0.495	0.6784	0.2882	0.048
Mof_O 	O 	0.50268	0.79806	0.30439	-0.447
Mof_N 	N 	0.50454	0.84152	0.33334	-0.127
Mof_C 	C 	0.50454	0.82302	0.30454	1.004
Mof_H 	H 	0.5017	0.7961	0.3285	-0.552
Mof_C 	C 	0.50842	0.87123	0.32396	-0.092
Mof_H 	H 	0.4942	0.8846	0.3299	0.081
Mof_H 	H 	0.5148	0.874	0.3047	0.082
Mof_C 	C 	0.03864	0.22495	0.72214	0.417
Mof_O 	O 	0.0295	0.247	0.71097	-0.453
Mof_O 	O 	0.0303	0.21412	0.74444	-0.456
Mof_C 	C 	0.06257	0.21072	0.70714	-0.209
Mof_C 	C 	0.08295	0.22619	0.69251	0.164
Mof_C 	C 	0.10532	0.21312	0.68021	-0.203
Mof_H 	H 	0.1187	0.2238	0.6708	0.087
Mof_C 	C 	0.10839	0.18376	0.68151	0.103
Mof_C 	C 	0.08822	0.16837	0.69613	-0.212
Mof_H 	H 	0.0899	0.1489	0.6972	0.117
Mof_C 	C 	0.06584	0.18129	0.70901	0.176
Mof_C 	C 	0.14626	0.18096	0.64487	-0.077
Mof_H 	H 	0.1387	0.197	0.6366	0.051
Mof_C 	C 	0.13346	0.16971	0.66874	-0.005
Mof_N 	N 	0.08494	0.25857	0.68904	-0.115
Mof_C 	C 	0.0721	0.2714	0.6665	0.349
Mof_O 	O 	0.0632	0.2605	0.6456	-0.261
Mof_O 	O 	0.06875	0.29856	0.6719	-0.296
Mof_C 	C 	0.0768	0.305	0.7017	0.263
Mof_H 	H 	0.0894	0.321	0.7025	-0.058
Mof_H 	H 	0.0602	0.309	0.7129	-0.021
Mof_C 	C 	0.09104	0.27898	0.71168	-0.505
Mof_H 	H 	0.0821	0.2726	0.7292	0.192
Mof_C 	C 	0.12115	0.2821	0.7163	1.057
Mof_H 	H 	0.128	0.2635	0.7221	-0.302
Mof_C 	C 	0.1382	0.2902	0.6913	-1.571
Mof_H 	H 	0.1331	0.2786	0.6755	0.486
Mof_H 	H 	0.1578	0.2876	0.6954	0.453
Mof_H 	H 	0.1348	0.3096	0.6868	0.478
Mof_C 	C 	0.1279	0.3022	0.7408	-1.534
Mof_H 	H 	0.1479	0.3029	0.7436	0.458
Mof_H 	H 	0.119	0.2955	0.7576	0.492
Mof_H 	H 	0.121	0.3207	0.7364	0.48
Mof_N 	N 	0.04232	0.15922	0.7188	-0.178
Mof_C 	C 	0.0471	0.1436	0.7418	0.391
Mof_O 	O 	0.0679	0.1418	0.7545	-0.291
Mof_O 	O 	0.0237	0.1318	0.7517	-0.242
Mof_C 	C 	0.002	0.1427	0.7369	0.01
Mof_H 	H 	0.9914	0.1554	0.7489	0.07
Mof_H 	H 	0.9895	0.1276	0.7313	0.062
Mof_C 	C 	0.012	0.1591	0.7101	0.007
Mof_H 	H 	0.005	0.1784	0.7118	0.047
Mof_O 	O 	0.99732	0.29806	0.69561	-0.458
Mof_N 	N 	0.99546	0.34152	0.66666	-0.123
Mof_C 	C 	0.99546	0.32302	0.69546	0.992
Mof_H 	H 	0.9983	0.2961	0.6715	-0.556
Mof_C 	C 	0.99158	0.37123	0.67604	-0.09
Mof_H 	H 	0.0058	0.3846	0.6701	0.079
Mof_H 	H 	0.9852	0.374	0.6953	0.082
Mof_C 	C 	0.03864	0.72495	0.22214	0.417
Mof_O 	O 	0.0295	0.747	0.21097	-0.453
Mof_O 	O 	0.0303	0.71412	0.24444	-0.456
Mof_C 	C 	0.06257	0.71072	0.20714	-0.209
Mof_C 	C 	0.08295	0.72619	0.19251	0.164
Mof_C 	C 	0.10532	0.71312	0.18021	-0.203
Mof_H 	H 	0.1187	0.7238	0.1708	0.087
Mof_C 	C 	0.10839	0.68376	0.18151	0.103
Mof_C 	C 	0.08822	0.66837	0.19613	-0.212
Mof_H 	H 	0.0899	0.6489	0.1972	0.117
Mof_C 	C 	0.06584	0.68129	0.20901	0.176
Mof_C 	C 	0.14626	0.68096	0.14487	-0.077
Mof_H 	H 	0.1387	0.697	0.1366	0.051
Mof_C 	C 	0.13346	0.66971	0.16874	-0.005
Mof_N 	N 	0.08494	0.75857	0.18904	-0.115
Mof_C 	C 	0.0721	0.7714	0.1665	0.349
Mof_O 	O 	0.0632	0.7605	0.1456	-0.261
Mof_O 	O 	0.06875	0.79856	0.1719	-0.296
Mof_C 	C 	0.0768	0.805	0.2017	0.263
Mof_H 	H 	0.0894	0.821	0.2025	-0.057
Mof_H 	H 	0.0602	0.809	0.2129	-0.021
Mof_C 	C 	0.09104	0.77898	0.21168	-0.505
Mof_H 	H 	0.0821	0.7726	0.2292	0.192
Mof_C 	C 	0.12115	0.7821	0.2163	1.057
Mof_H 	H 	0.128	0.7635	0.2221	-0.302
Mof_C 	C 	0.1382	0.7902	0.1913	-1.571
Mof_H 	H 	0.1331	0.7786	0.1755	0.486
Mof_H 	H 	0.1578	0.7876	0.1954	0.453
Mof_H 	H 	0.1348	0.8096	0.1868	0.478
Mof_C 	C 	0.1279	0.8022	0.2408	-1.534
Mof_H 	H 	0.1479	0.8029	0.2436	0.458
Mof_H 	H 	0.119	0.7955	0.2576	0.492
Mof_H 	H 	0.121	0.8207	0.2364	0.48
Mof_N 	N 	0.04232	0.65922	0.2188	-0.178
Mof_C 	C 	0.0471	0.6436	0.2418	0.391
Mof_O 	O 	0.0679	0.6418	0.2545	-0.291
Mof_O 	O 	0.0237	0.6318	0.2517	-0.242
Mof_C 	C 	0.002	0.6427	0.2369	0.01
Mof_H 	H 	0.9914	0.6554	0.2489	0.07
Mof_H 	H 	0.9895	0.6276	0.2313	0.062
Mof_C 	C 	0.012	0.6591	0.2101	0.007
Mof_H 	H 	0.005	0.6784	0.2118	0.047
Mof_O 	O 	0.99732	0.79806	0.19561	-0.458
Mof_N 	N 	0.99546	0.84152	0.16666	-0.123
Mof_C 	C 	0.99546	0.82302	0.19546	0.992
Mof_H 	H 	0.9983	0.7961	0.1715	-0.556
Mof_C 	C 	0.99158	0.87123	0.17604	-0.09
Mof_H 	H 	0.0058	0.8846	0.1701	0.079
Mof_H 	H 	0.9852	0.874	0.1953	0.082
Mof_C 	C 	0.53864	0.22495	0.22214	0.417
Mof_O 	O 	0.5295	0.247	0.21097	-0.452
Mof_O 	O 	0.5303	0.21412	0.24444	-0.456
Mof_C 	C 	0.56257	0.21072	0.20714	-0.209
Mof_C 	C 	0.58295	0.22619	0.19251	0.164
Mof_C 	C 	0.60532	0.21312	0.18021	-0.203
Mof_H 	H 	0.6187	0.2238	0.1708	0.087
Mof_C 	C 	0.60839	0.18376	0.18151	0.103
Mof_C 	C 	0.58822	0.16837	0.19613	-0.212
Mof_H 	H 	0.5899	0.1489	0.1972	0.117
Mof_C 	C 	0.56584	0.18129	0.20901	0.176
Mof_C 	C 	0.64626	0.18096	0.14487	-0.077
Mof_H 	H 	0.6387	0.197	0.1366	0.051
Mof_C 	C 	0.63346	0.16971	0.16874	-0.005
Mof_N 	N 	0.58494	0.25857	0.18904	-0.115
Mof_C 	C 	0.5721	0.2714	0.1665	0.349
Mof_O 	O 	0.5632	0.2605	0.1456	-0.261
Mof_O 	O 	0.56875	0.29856	0.1719	-0.295
Mof_C 	C 	0.5768	0.305	0.2017	0.262
Mof_H 	H 	0.5894	0.321	0.2025	-0.057
Mof_H 	H 	0.5602	0.309	0.2129	-0.02
Mof_C 	C 	0.59104	0.27898	0.21168	-0.505
Mof_H 	H 	0.5821	0.2726	0.2292	0.192
Mof_C 	C 	0.62115	0.2821	0.2163	1.057
Mof_H 	H 	0.628	0.2635	0.2221	-0.302
Mof_C 	C 	0.6382	0.2902	0.1913	-1.571
Mof_H 	H 	0.6331	0.2786	0.1755	0.486
Mof_H 	H 	0.6578	0.2876	0.1954	0.453
Mof_H 	H 	0.6348	0.3096	0.1868	0.478
Mof_C 	C 	0.6279	0.3022	0.2408	-1.534
Mof_H 	H 	0.6479	0.3029	0.2436	0.458
Mof_H 	H 	0.619	0.2955	0.2576	0.492
Mof_H 	H 	0.621	0.3207	0.2364	0.48
Mof_N 	N 	0.54232	0.15922	0.2188	-0.178
Mof_C 	C 	0.5471	0.1436	0.2418	0.391
Mof_O 	O 	0.5679	0.1418	0.2545	-0.291
Mof_O 	O 	0.5237	0.1318	0.2517	-0.243
Mof_C 	C 	0.502	0.1427	0.2369	0.018
Mof_H 	H 	0.4914	0.1554	0.2489	0.067
Mof_H 	H 	0.4895	0.1276	0.2313	0.058
Mof_C 	C 	0.512	0.1591	0.2101	0.005
Mof_H 	H 	0.505	0.1784	0.2118	0.048
Mof_O 	O 	0.49732	0.29806	0.19561	-0.447
Mof_N 	N 	0.49546	0.34152	0.16666	-0.127
Mof_C 	C 	0.49546	0.32302	0.19546	1.004
Mof_H 	H 	0.4983	0.2961	0.1715	-0.552
Mof_C 	C 	0.49158	0.37123	0.17604	-0.092
Mof_H 	H 	0.5058	0.3846	0.1701	0.081
Mof_H 	H 	0.4852	0.374	0.1953	0.082
Mof_C 	C 	0.53864	0.72495	0.72214	0.417
Mof_O 	O 	0.5295	0.747	0.71097	-0.452
Mof_O 	O 	0.5303	0.71412	0.74444	-0.456
Mof_C 	C 	0.56257	0.71072	0.70714	-0.209
Mof_C 	C 	0.58295	0.72619	0.69251	0.164
Mof_C 	C 	0.60532	0.71312	0.68021	-0.203
Mof_H 	H 	0.6187	0.7238	0.6708	0.087
Mof_C 	C 	0.60839	0.68376	0.68151	0.103
Mof_C 	C 	0.58822	0.66837	0.69613	-0.212
Mof_H 	H 	0.5899	0.6489	0.6972	0.117
Mof_C 	C 	0.56584	0.68129	0.70901	0.176
Mof_C 	C 	0.64626	0.68096	0.64487	-0.077
Mof_H 	H 	0.6387	0.697	0.6366	0.051
Mof_C 	C 	0.63346	0.66971	0.66874	-0.005
Mof_N 	N 	0.58494	0.75857	0.68904	-0.115
Mof_C 	C 	0.5721	0.7714	0.6665	0.349
Mof_O 	O 	0.5632	0.7605	0.6456	-0.261
Mof_O 	O 	0.56875	0.79856	0.6719	-0.295
Mof_C 	C 	0.5768	0.805	0.7017	0.262
Mof_H 	H 	0.5894	0.821	0.7025	-0.057
Mof_H 	H 	0.5602	0.809	0.7129	-0.02
Mof_C 	C 	0.59104	0.77898	0.71168	-0.505
Mof_H 	H 	0.5821	0.7726	0.7292	0.192
Mof_C 	C 	0.62115	0.7821	0.7163	1.057
Mof_H 	H 	0.628	0.7635	0.7221	-0.302
Mof_C 	C 	0.6382	0.7902	0.6913	-1.571
Mof_H 	H 	0.6331	0.7786	0.6755	0.486
Mof_H 	H 	0.6578	0.7876	0.6954	0.453
Mof_H 	H 	0.6348	0.8096	0.6868	0.478
Mof_C 	C 	0.6279	0.8022	0.7408	-1.534
Mof_H 	H 	0.6479	0.8029	0.7436	0.458
Mof_H 	H 	0.619	0.7955	0.7576	0.492
Mof_H 	H 	0.621	0.8207	0.7364	0.48
Mof_N 	N 	0.54232	0.65922	0.7188	-0.178
Mof_C 	C 	0.5471	0.6436	0.7418	0.391
Mof_O 	O 	0.5679	0.6418	0.7545	-0.291
Mof_O 	O 	0.5237	0.6318	0.7517	-0.243
Mof_C 	C 	0.502	0.6427	0.7369	0.018
Mof_H 	H 	0.4914	0.6554	0.7489	0.067
Mof_H 	H 	0.4895	0.6276	0.7313	0.058
Mof_C 	C 	0.512	0.6591	0.7101	0.005
Mof_H 	H 	0.505	0.6784	0.7118	0.048
Mof_O 	O 	0.49732	0.79806	0.69561	-0.447
Mof_N 	N 	0.49546	0.84152	0.66666	-0.127
Mof_C 	C 	0.49546	0.82302	0.69546	1.004
Mof_H 	H 	0.4983	0.7961	0.6715	-0.552
Mof_C 	C 	0.49158	0.87123	0.67604	-0.092
Mof_H 	H 	0.5058	0.8846	0.6701	0.081
Mof_H 	H 	0.4852	0.874	0.6953	0.082
Mof_C 	C 	0.03864	0.77505	0.27786	0.417
Mof_O 	O 	0.0295	0.753	0.28903	-0.453
Mof_O 	O 	0.0303	0.78588	0.25556	-0.456
Mof_C 	C 	0.06257	0.78928	0.29286	-0.209
Mof_C 	C 	0.08295	0.77381	0.30749	0.164
Mof_C 	C 	0.10532	0.78688	0.31979	-0.203
Mof_H 	H 	0.1187	0.7762	0.3292	0.087
Mof_C 	C 	0.10839	0.81624	0.31849	0.103
Mof_C 	C 	0.08822	0.83163	0.30387	-0.212
Mof_H 	H 	0.0899	0.8511	0.3028	0.117
Mof_C 	C 	0.06584	0.81871	0.29099	0.176
Mof_C 	C 	0.14626	0.81904	0.35513	-0.077
Mof_H 	H 	0.1387	0.803	0.3634	0.051
Mof_C 	C 	0.13346	0.83029	0.33126	-0.005
Mof_N 	N 	0.08494	0.74143	0.31096	-0.115
Mof_C 	C 	0.0721	0.7286	0.3335	0.349
Mof_O 	O 	0.0632	0.7395	0.3544	-0.261
Mof_O 	O 	0.06875	0.70144	0.3281	-0.296
Mof_C 	C 	0.0768	0.695	0.2983	0.263
Mof_H 	H 	0.0894	0.679	0.2975	-0.058
Mof_H 	H 	0.0602	0.691	0.2871	-0.021
Mof_C 	C 	0.09104	0.72102	0.28832	-0.505
Mof_H 	H 	0.0821	0.7274	0.2708	0.192
Mof_C 	C 	0.12115	0.7179	0.2837	1.057
Mof_H 	H 	0.128	0.7365	0.2779	-0.302
Mof_C 	C 	0.1382	0.7098	0.3087	-1.571
Mof_H 	H 	0.1331	0.7214	0.3245	0.486
Mof_H 	H 	0.1578	0.7124	0.3046	0.453
Mof_H 	H 	0.1348	0.6904	0.3132	0.478
Mof_C 	C 	0.1279	0.6978	0.2592	-1.534
Mof_H 	H 	0.1479	0.6971	0.2564	0.458
Mof_H 	H 	0.119	0.7045	0.2424	0.492
Mof_H 	H 	0.121	0.6793	0.2636	0.48
Mof_N 	N 	0.04232	0.84078	0.2812	-0.178
Mof_C 	C 	0.0471	0.8564	0.2582	0.391
Mof_O 	O 	0.0679	0.8582	0.2455	-0.291
Mof_O 	O 	0.0237	0.8682	0.2483	-0.242
Mof_C 	C 	0.002	0.8573	0.2631	0.01
Mof_H 	H 	0.9914	0.8446	0.2511	0.071
Mof_H 	H 	0.9895	0.8724	0.2687	0.062
Mof_C 	C 	0.012	0.8409	0.2899	0.007
Mof_H 	H 	0.005	0.8216	0.2882	0.047
Mof_O 	O 	0.99732	0.70194	0.30439	-0.458
Mof_N 	N 	0.99546	0.65848	0.33334	-0.123
Mof_C 	C 	0.99546	0.67698	0.30454	0.992
Mof_H 	H 	0.9983	0.7039	0.3285	-0.556
Mof_C 	C 	0.99158	0.62877	0.32396	-0.09
Mof_H 	H 	0.0058	0.6154	0.3299	0.079
Mof_H 	H 	0.9852	0.626	0.3047	0.082
Mof_C 	C 	0.03864	0.27505	0.77786	0.417
Mof_O 	O 	0.0295	0.253	0.78903	-0.453
Mof_O 	O 	0.0303	0.28588	0.75556	-0.456
Mof_C 	C 	0.06257	0.28928	0.79286	-0.209
Mof_C 	C 	0.08295	0.27381	0.80749	0.164
Mof_C 	C 	0.10532	0.28688	0.81979	-0.203
Mof_H 	H 	0.1187	0.2762	0.8292	0.087
Mof_C 	C 	0.10839	0.31624	0.81849	0.103
Mof_C 	C 	0.08822	0.33163	0.80387	-0.212
Mof_H 	H 	0.0899	0.3511	0.8028	0.117
Mof_C 	C 	0.06584	0.31871	0.79099	0.176
Mof_C 	C 	0.14626	0.31904	0.85513	-0.077
Mof_H 	H 	0.1387	0.303	0.8634	0.051
Mof_C 	C 	0.13346	0.33029	0.83126	-0.005
Mof_N 	N 	0.08494	0.24143	0.81096	-0.115
Mof_C 	C 	0.0721	0.2286	0.8335	0.349
Mof_O 	O 	0.0632	0.2395	0.8544	-0.261
Mof_O 	O 	0.06875	0.20144	0.8281	-0.296
Mof_C 	C 	0.0768	0.195	0.7983	0.263
Mof_H 	H 	0.0894	0.179	0.7975	-0.058
Mof_H 	H 	0.0602	0.191	0.7871	-0.021
Mof_C 	C 	0.09104	0.22102	0.78832	-0.505
Mof_H 	H 	0.0821	0.2274	0.7708	0.192
Mof_C 	C 	0.12115	0.2179	0.7837	1.057
Mof_H 	H 	0.128	0.2365	0.7779	-0.302
Mof_C 	C 	0.1382	0.2098	0.8087	-1.571
Mof_H 	H 	0.1331	0.2214	0.8245	0.486
Mof_H 	H 	0.1578	0.2124	0.8046	0.453
Mof_H 	H 	0.1348	0.1904	0.8132	0.478
Mof_C 	C 	0.1279	0.1978	0.7592	-1.534
Mof_H 	H 	0.1479	0.1971	0.7564	0.458
Mof_H 	H 	0.119	0.2045	0.7424	0.492
Mof_H 	H 	0.121	0.1793	0.7636	0.48
Mof_N 	N 	0.04232	0.34078	0.7812	-0.178
Mof_C 	C 	0.0471	0.3564	0.7582	0.391
Mof_O 	O 	0.0679	0.3582	0.7455	-0.291
Mof_O 	O 	0.0237	0.3682	0.7483	-0.242
Mof_C 	C 	0.002	0.3573	0.7631	0.01
Mof_H 	H 	0.9914	0.3446	0.7511	0.07
Mof_H 	H 	0.9895	0.3724	0.7687	0.062
Mof_C 	C 	0.012	0.3409	0.7899	0.007
Mof_H 	H 	0.005	0.3216	0.7882	0.047
Mof_O 	O 	0.99732	0.20194	0.80439	-0.458
Mof_N 	N 	0.99546	0.15848	0.83334	-0.123
Mof_C 	C 	0.99546	0.17698	0.80454	0.992
Mof_H 	H 	0.9983	0.2039	0.8285	-0.556
Mof_C 	C 	0.99158	0.12877	0.82396	-0.09
Mof_H 	H 	0.0058	0.1154	0.8299	0.079
Mof_H 	H 	0.9852	0.126	0.8047	0.082
Mof_C 	C 	0.53864	0.77505	0.77786	0.417
Mof_O 	O 	0.5295	0.753	0.78903	-0.452
Mof_O 	O 	0.5303	0.78588	0.75556	-0.456
Mof_C 	C 	0.56257	0.78928	0.79286	-0.209
Mof_C 	C 	0.58295	0.77381	0.80749	0.164
Mof_C 	C 	0.60532	0.78688	0.81979	-0.203
Mof_H 	H 	0.6187	0.7762	0.8292	0.087
Mof_C 	C 	0.60839	0.81624	0.81849	0.103
Mof_C 	C 	0.58822	0.83163	0.80387	-0.212
Mof_H 	H 	0.5899	0.8511	0.8028	0.117
Mof_C 	C 	0.56584	0.81871	0.79099	0.176
Mof_C 	C 	0.64626	0.81904	0.85513	-0.077
Mof_H 	H 	0.6387	0.803	0.8634	0.051
Mof_C 	C 	0.63346	0.83029	0.83126	-0.005
Mof_N 	N 	0.58494	0.74143	0.81096	-0.115
Mof_C 	C 	0.5721	0.7286	0.8335	0.349
Mof_O 	O 	0.5632	0.7395	0.8544	-0.261
Mof_O 	O 	0.56875	0.70144	0.8281	-0.295
Mof_C 	C 	0.5768	0.695	0.7983	0.262
Mof_H 	H 	0.5894	0.679	0.7975	-0.057
Mof_H 	H 	0.5602	0.691	0.7871	-0.02
Mof_C 	C 	0.59104	0.72102	0.78832	-0.505
Mof_H 	H 	0.5821	0.7274	0.7708	0.192
Mof_C 	C 	0.62115	0.7179	0.7837	1.057
Mof_H 	H 	0.628	0.7365	0.7779	-0.302
Mof_C 	C 	0.6382	0.7098	0.8087	-1.571
Mof_H 	H 	0.6331	0.7214	0.8245	0.486
Mof_H 	H 	0.6578	0.7124	0.8046	0.453
Mof_H 	H 	0.6348	0.6904	0.8132	0.478
Mof_C 	C 	0.6279	0.6978	0.7592	-1.534
Mof_H 	H 	0.6479	0.6971	0.7564	0.458
Mof_H 	H 	0.619	0.7045	0.7424	0.492
Mof_H 	H 	0.621	0.6793	0.7636	0.48
Mof_N 	N 	0.54232	0.84078	0.7812	-0.178
Mof_C 	C 	0.5471	0.8564	0.7582	0.391
Mof_O 	O 	0.5679	0.8582	0.7455	-0.291
Mof_O 	O 	0.5237	0.8682	0.7483	-0.243
Mof_C 	C 	0.502	0.8573	0.7631	0.018
Mof_H 	H 	0.4914	0.8446	0.7511	0.067
Mof_H 	H 	0.4895	0.8724	0.7687	0.059
Mof_C 	C 	0.512	0.8409	0.7899	0.005
Mof_H 	H 	0.505	0.8216	0.7882	0.048
Mof_O 	O 	0.49732	0.70194	0.80439	-0.447
Mof_N 	N 	0.49546	0.65848	0.83334	-0.127
Mof_C 	C 	0.49546	0.67698	0.80454	1.004
Mof_H 	H 	0.4983	0.7039	0.8285	-0.552
Mof_C 	C 	0.49158	0.62877	0.82396	-0.092
Mof_H 	H 	0.5058	0.6154	0.8299	0.081
Mof_H 	H 	0.4852	0.626	0.8047	0.082
Mof_C 	C 	0.53864	0.27505	0.27786	0.417
Mof_O 	O 	0.5295	0.253	0.28903	-0.452
Mof_O 	O 	0.5303	0.28588	0.25556	-0.456
Mof_C 	C 	0.56257	0.28928	0.29286	-0.209
Mof_C 	C 	0.58295	0.27381	0.30749	0.164
Mof_C 	C 	0.60532	0.28688	0.31979	-0.203
Mof_H 	H 	0.6187	0.2762	0.3292	0.087
Mof_C 	C 	0.60839	0.31624	0.31849	0.103
Mof_C 	C 	0.58822	0.33163	0.30387	-0.212
Mof_H 	H 	0.5899	0.3511	0.3028	0.117
Mof_C 	C 	0.56584	0.31871	0.29099	0.176
Mof_C 	C 	0.64626	0.31904	0.35513	-0.077
Mof_H 	H 	0.6387	0.303	0.3634	0.051
Mof_C 	C 	0.63346	0.33029	0.33126	-0.005
Mof_N 	N 	0.58494	0.24143	0.31096	-0.115
Mof_C 	C 	0.5721	0.2286	0.3335	0.349
Mof_O 	O 	0.5632	0.2395	0.3544	-0.261
Mof_O 	O 	0.56875	0.20144	0.3281	-0.295
Mof_C 	C 	0.5768	0.195	0.2983	0.262
Mof_H 	H 	0.5894	0.179	0.2975	-0.057
Mof_H 	H 	0.5602	0.191	0.2871	-0.02
Mof_C 	C 	0.59104	0.22102	0.28832	-0.505
Mof_H 	H 	0.5821	0.2274	0.2708	0.192
Mof_C 	C 	0.62115	0.2179	0.2837	1.057
Mof_H 	H 	0.628	0.2365	0.2779	-0.302
Mof_C 	C 	0.6382	0.2098	0.3087	-1.571
Mof_H 	H 	0.6331	0.2214	0.3245	0.486
Mof_H 	H 	0.6578	0.2124	0.3046	0.453
Mof_H 	H 	0.6348	0.1904	0.3132	0.478
Mof_C 	C 	0.6279	0.1978	0.2592	-1.534
Mof_H 	H 	0.6479	0.1971	0.2564	0.458
Mof_H 	H 	0.619	0.2045	0.2424	0.492
Mof_H 	H 	0.621	0.1793	0.2636	0.48
Mof_N 	N 	0.54232	0.34078	0.2812	-0.178
Mof_C 	C 	0.5471	0.3564	0.2582	0.391
Mof_O 	O 	0.5679	0.3582	0.2455	-0.291
Mof_O 	O 	0.5237	0.3682	0.2483	-0.243
Mof_C 	C 	0.502	0.3573	0.2631	0.018
Mof_H 	H 	0.4914	0.3446	0.2511	0.067
Mof_H 	H 	0.4895	0.3724	0.2687	0.058
Mof_C 	C 	0.512	0.3409	0.2899	0.005
Mof_H 	H 	0.505	0.3216	0.2882	0.048
Mof_O 	O 	0.49732	0.20194	0.30439	-0.447
Mof_N 	N 	0.49546	0.15848	0.33334	-0.127
Mof_C 	C 	0.49546	0.17698	0.30454	1.004
Mof_H 	H 	0.4983	0.2039	0.3285	-0.552
Mof_C 	C 	0.49158	0.12877	0.32396	-0.092
Mof_H 	H 	0.5058	0.1154	0.3299	0.081
Mof_H 	H 	0.4852	0.126	0.3047	0.082
Mof_C 	C 	0.96136	0.77505	0.72214	0.417
Mof_O 	O 	0.9705	0.753	0.71097	-0.452
Mof_O 	O 	0.9697	0.78588	0.74444	-0.455
Mof_C 	C 	0.93743	0.78928	0.70714	-0.208
Mof_C 	C 	0.91705	0.77381	0.69251	0.164
Mof_C 	C 	0.89468	0.78688	0.68021	-0.203
Mof_H 	H 	0.8813	0.7762	0.6708	0.087
Mof_C 	C 	0.89161	0.81624	0.68151	0.103
Mof_C 	C 	0.91178	0.83163	0.69613	-0.212
Mof_H 	H 	0.9101	0.8511	0.6972	0.117
Mof_C 	C 	0.93416	0.81871	0.70901	0.176
Mof_C 	C 	0.85374	0.81904	0.64487	-0.077
Mof_H 	H 	0.8613	0.803	0.6366	0.051
Mof_C 	C 	0.86654	0.83029	0.66874	-0.005
Mof_N 	N 	0.91506	0.74143	0.68904	-0.115
Mof_C 	C 	0.9279	0.7286	0.6665	0.349
Mof_O 	O 	0.9368	0.7395	0.6456	-0.261
Mof_O 	O 	0.93125	0.70144	0.6719	-0.295
Mof_C 	C 	0.9232	0.695	0.7017	0.262
Mof_H 	H 	0.9106	0.679	0.7025	-0.057
Mof_H 	H 	0.9398	0.691	0.7129	-0.02
Mof_C 	C 	0.90896	0.72102	0.71168	-0.504
Mof_H 	H 	0.9179	0.7274	0.7292	0.192
Mof_C 	C 	0.87885	0.7179	0.7163	1.057
Mof_H 	H 	0.872	0.7365	0.7221	-0.301
Mof_C 	C 	0.8618	0.7098	0.6913	-1.571
Mof_H 	H 	0.8669	0.7214	0.6755	0.486
Mof_H 	H 	0.8422	0.7124	0.6954	0.453
Mof_H 	H 	0.8652	0.6904	0.6868	0.478
Mof_C 	C 	0.8721	0.6978	0.7408	-1.534
Mof_H 	H 	0.8521	0.6971	0.7436	0.458
Mof_H 	H 	0.881	0.7045	0.7576	0.492
Mof_H 	H 	0.879	0.6793	0.7364	0.48
Mof_N 	N 	0.95768	0.84078	0.7188	-0.177
Mof_C 	C 	0.9529	0.8564	0.7418	0.391
Mof_O 	O 	0.9321	0.8582	0.7545	-0.291
Mof_O 	O 	0.9763	0.8682	0.7517	-0.244
Mof_C 	C 	0.998	0.8573	0.7369	0.026
Mof_H 	H 	0.0086	0.8446	0.7489	0.064
Mof_H 	H 	0.0105	0.8724	0.7313	0.055
Mof_C 	C 	0.988	0.8409	0.7101	0.004
Mof_H 	H 	0.995	0.8216	0.7118	0.049
Mof_O 	O 	0.00268	0.70194	0.69561	-0.435
Mof_N 	N 	0.00454	0.65848	0.66666	-0.131
Mof_C 	C 	0.00454	0.67698	0.69546	1.015
Mof_H 	H 	0.0017	0.7039	0.6715	-0.547
Mof_C 	C 	0.00842	0.62877	0.67604	-0.095
Mof_H 	H 	0.9942	0.6154	0.6701	0.083
Mof_H 	H 	0.0148	0.626	0.6953	0.083
Mof_C 	C 	0.96136	0.27505	0.22214	0.417
Mof_O 	O 	0.9705	0.253	0.21097	-0.452
Mof_O 	O 	0.9697	0.28588	0.24444	-0.455
Mof_C 	C 	0.93743	0.28928	0.20714	-0.208
Mof_C 	C 	0.91705	0.27381	0.19251	0.164
Mof_C 	C 	0.89468	0.28688	0.18021	-0.203
Mof_H 	H 	0.8813	0.2762	0.1708	0.087
Mof_C 	C 	0.89161	0.31624	0.18151	0.103
Mof_C 	C 	0.91178	0.33163	0.19613	-0.212
Mof_H 	H 	0.9101	0.3511	0.1972	0.117
Mof_C 	C 	0.93416	0.31871	0.20901	0.176
Mof_C 	C 	0.85374	0.31904	0.14487	-0.077
Mof_H 	H 	0.8613	0.303	0.1366	0.051
Mof_C 	C 	0.86654	0.33029	0.16874	-0.005
Mof_N 	N 	0.91506	0.24143	0.18904	-0.115
Mof_C 	C 	0.9279	0.2286	0.1665	0.349
Mof_O 	O 	0.9368	0.2395	0.1456	-0.261
Mof_O 	O 	0.93125	0.20144	0.1719	-0.295
Mof_C 	C 	0.9232	0.195	0.2017	0.262
Mof_H 	H 	0.9106	0.179	0.2025	-0.057
Mof_H 	H 	0.9398	0.191	0.2129	-0.02
Mof_C 	C 	0.90896	0.22102	0.21168	-0.504
Mof_H 	H 	0.9179	0.2274	0.2292	0.192
Mof_C 	C 	0.87885	0.2179	0.2163	1.057
Mof_H 	H 	0.872	0.2365	0.2221	-0.301
Mof_C 	C 	0.8618	0.2098	0.1913	-1.57
Mof_H 	H 	0.8669	0.2214	0.1755	0.486
Mof_H 	H 	0.8422	0.2124	0.1954	0.453
Mof_H 	H 	0.8652	0.1904	0.1868	0.478
Mof_C 	C 	0.8721	0.1978	0.2408	-1.534
Mof_H 	H 	0.8521	0.1971	0.2436	0.458
Mof_H 	H 	0.881	0.2045	0.2576	0.492
Mof_H 	H 	0.879	0.1793	0.2364	0.48
Mof_N 	N 	0.95768	0.34078	0.2188	-0.177
Mof_C 	C 	0.9529	0.3564	0.2418	0.391
Mof_O 	O 	0.9321	0.3582	0.2545	-0.291
Mof_O 	O 	0.9763	0.3682	0.2517	-0.244
Mof_C 	C 	0.998	0.3573	0.2369	0.026
Mof_H 	H 	0.0086	0.3446	0.2489	0.064
Mof_H 	H 	0.0105	0.3724	0.2313	0.055
Mof_C 	C 	0.988	0.3409	0.2101	0.004
Mof_H 	H 	0.995	0.3216	0.2118	0.049
Mof_O 	O 	0.00268	0.20194	0.19561	-0.435
Mof_N 	N 	0.00454	0.15848	0.16666	-0.131
Mof_C 	C 	0.00454	0.17698	0.19546	1.015
Mof_H 	H 	0.0017	0.2039	0.1715	-0.547
Mof_C 	C 	0.00842	0.12877	0.17604	-0.095
Mof_H 	H 	0.9942	0.1154	0.1701	0.083
Mof_H 	H 	0.0148	0.126	0.1953	0.083
Mof_C 	C 	0.46136	0.77505	0.22214	0.417
Mof_O 	O 	0.4705	0.753	0.21097	-0.452
Mof_O 	O 	0.4697	0.78588	0.24444	-0.456
Mof_C 	C 	0.43743	0.78928	0.20714	-0.209
Mof_C 	C 	0.41705	0.77381	0.19251	0.164
Mof_C 	C 	0.39468	0.78688	0.18021	-0.203
Mof_H 	H 	0.3813	0.7762	0.1708	0.087
Mof_C 	C 	0.39161	0.81624	0.18151	0.103
Mof_C 	C 	0.41178	0.83163	0.19613	-0.212
Mof_H 	H 	0.4101	0.8511	0.1972	0.117
Mof_C 	C 	0.43416	0.81871	0.20901	0.176
Mof_C 	C 	0.35374	0.81904	0.14487	-0.077
Mof_H 	H 	0.3613	0.803	0.1366	0.051
Mof_C 	C 	0.36654	0.83029	0.16874	-0.005
Mof_N 	N 	0.41506	0.74143	0.18904	-0.115
Mof_C 	C 	0.4279	0.7286	0.1665	0.349
Mof_O 	O 	0.4368	0.7395	0.1456	-0.261
Mof_O 	O 	0.43125	0.70144	0.1719	-0.295
Mof_C 	C 	0.4232	0.695	0.2017	0.262
Mof_H 	H 	0.4106	0.679	0.2025	-0.057
Mof_H 	H 	0.4398	0.691	0.2129	-0.02
Mof_C 	C 	0.40896	0.72102	0.21168	-0.505
Mof_H 	H 	0.4179	0.7274	0.2292	0.192
Mof_C 	C 	0.37885	0.7179	0.2163	1.057
Mof_H 	H 	0.372	0.7365	0.2221	-0.302
Mof_C 	C 	0.3618	0.7098	0.1913	-1.571
Mof_H 	H 	0.3669	0.7214	0.1755	0.486
Mof_H 	H 	0.3422	0.7124	0.1954	0.453
Mof_H 	H 	0.3652	0.6904	0.1868	0.478
Mof_C 	C 	0.3721	0.6978	0.2408	-1.534
Mof_H 	H 	0.3521	0.6971	0.2436	0.458
Mof_H 	H 	0.381	0.7045	0.2576	0.492
Mof_H 	H 	0.379	0.6793	0.2364	0.48
Mof_N 	N 	0.45768	0.84078	0.2188	-0.178
Mof_C 	C 	0.4529	0.8564	0.2418	0.391
Mof_O 	O 	0.4321	0.8582	0.2545	-0.291
Mof_O 	O 	0.4763	0.8682	0.2517	-0.243
Mof_C 	C 	0.498	0.8573	0.2369	0.018
Mof_H 	H 	0.5086	0.8446	0.2489	0.067
Mof_H 	H 	0.5105	0.8724	0.2313	0.058
Mof_C 	C 	0.488	0.8409	0.2101	0.005
Mof_H 	H 	0.495	0.8216	0.2118	0.048
Mof_O 	O 	0.50268	0.70194	0.19561	-0.447
Mof_N 	N 	0.50454	0.65848	0.16666	-0.127
Mof_C 	C 	0.50454	0.67698	0.19546	1.004
Mof_H 	H 	0.5017	0.7039	0.1715	-0.552
Mof_C 	C 	0.50842	0.62877	0.17604	-0.092
Mof_H 	H 	0.4942	0.6154	0.1701	0.081
Mof_H 	H 	0.5148	0.626	0.1953	0.082
Mof_C 	C 	0.46136	0.27505	0.72214	0.417
Mof_O 	O 	0.4705	0.253	0.71097	-0.452
Mof_O 	O 	0.4697	0.28588	0.74444	-0.456
Mof_C 	C 	0.43743	0.28928	0.70714	-0.209
Mof_C 	C 	0.41705	0.27381	0.69251	0.164
Mof_C 	C 	0.39468	0.28688	0.68021	-0.203
Mof_H 	H 	0.3813	0.2762	0.6708	0.087
Mof_C 	C 	0.39161	0.31624	0.68151	0.103
Mof_C 	C 	0.41178	0.33163	0.69613	-0.212
Mof_H 	H 	0.4101	0.3511	0.6972	0.117
Mof_C 	C 	0.43416	0.31871	0.70901	0.176
Mof_C 	C 	0.35374	0.31904	0.64487	-0.077
Mof_H 	H 	0.3613	0.303	0.6366	0.051
Mof_C 	C 	0.36654	0.33029	0.66874	-0.005
Mof_N 	N 	0.41506	0.24143	0.68904	-0.115
Mof_C 	C 	0.4279	0.2286	0.6665	0.349
Mof_O 	O 	0.4368	0.2395	0.6456	-0.261
Mof_O 	O 	0.43125	0.20144	0.6719	-0.295
Mof_C 	C 	0.4232	0.195	0.7017	0.262
Mof_H 	H 	0.4106	0.179	0.7025	-0.057
Mof_H 	H 	0.4398	0.191	0.7129	-0.02
Mof_C 	C 	0.40896	0.22102	0.71168	-0.505
Mof_H 	H 	0.4179	0.2274	0.7292	0.192
Mof_C 	C 	0.37885	0.2179	0.7163	1.057
Mof_H 	H 	0.372	0.2365	0.7221	-0.302
Mof_C 	C 	0.3618	0.2098	0.6913	-1.571
Mof_H 	H 	0.3669	0.2214	0.6755	0.486
Mof_H 	H 	0.3422	0.2124	0.6954	0.453
Mof_H 	H 	0.3652	0.1904	0.6868	0.478
Mof_C 	C 	0.3721	0.1978	0.7408	-1.534
Mof_H 	H 	0.3521	0.1971	0.7436	0.458
Mof_H 	H 	0.381	0.2045	0.7576	0.492
Mof_H 	H 	0.379	0.1793	0.7364	0.48
Mof_N 	N 	0.45768	0.34078	0.7188	-0.178
Mof_C 	C 	0.4529	0.3564	0.7418	0.391
Mof_O 	O 	0.4321	0.3582	0.7545	-0.291
Mof_O 	O 	0.4763	0.3682	0.7517	-0.243
Mof_C 	C 	0.498	0.3573	0.7369	0.018
Mof_H 	H 	0.5086	0.3446	0.7489	0.067
Mof_H 	H 	0.5105	0.3724	0.7313	0.058
Mof_C 	C 	0.488	0.3409	0.7101	0.005
Mof_H 	H 	0.495	0.3216	0.7118	0.048
Mof_O 	O 	0.50268	0.20194	0.69561	-0.447
Mof_N 	N 	0.50454	0.15848	0.66666	-0.127
Mof_C 	C 	0.50454	0.17698	0.69546	1.004
Mof_H 	H 	0.5017	0.2039	0.6715	-0.552
Mof_C 	C 	0.50842	0.12877	0.67604	-0.092
Mof_H 	H 	0.4942	0.1154	0.6701	0.081
Mof_H 	H 	0.5148	0.126	0.6953	0.082
Mof_C 	C 	0.22495	0.72214	0.03864	0.417
Mof_O 	O 	0.247	0.71097	0.0295	-0.453
Mof_O 	O 	0.21412	0.74444	0.0303	-0.456
Mof_C 	C 	0.21072	0.70714	0.06257	-0.209
Mof_C 	C 	0.22619	0.69251	0.08295	0.164
Mof_C 	C 	0.21312	0.68021	0.10532	-0.203
Mof_H 	H 	0.2238	0.6708	0.1187	0.087
Mof_C 	C 	0.18376	0.68151	0.10839	0.103
Mof_C 	C 	0.16837	0.69613	0.08822	-0.212
Mof_H 	H 	0.1489	0.6972	0.0899	0.117
Mof_C 	C 	0.18129	0.70901	0.06584	0.176
Mof_C 	C 	0.18096	0.64487	0.14626	-0.077
Mof_H 	H 	0.197	0.6366	0.1387	0.051
Mof_C 	C 	0.16971	0.66874	0.13346	-0.005
Mof_N 	N 	0.25857	0.68904	0.08494	-0.115
Mof_C 	C 	0.2714	0.6665	0.0721	0.349
Mof_O 	O 	0.2605	0.6456	0.0632	-0.261
Mof_O 	O 	0.29856	0.6719	0.06875	-0.296
Mof_C 	C 	0.305	0.7017	0.0768	0.263
Mof_H 	H 	0.321	0.7025	0.0894	-0.058
Mof_H 	H 	0.309	0.7129	0.0602	-0.021
Mof_C 	C 	0.27898	0.71168	0.09104	-0.505
Mof_H 	H 	0.2726	0.7292	0.0821	0.192
Mof_C 	C 	0.2821	0.7163	0.12115	1.057
Mof_H 	H 	0.2635	0.7221	0.128	-0.302
Mof_C 	C 	0.2902	0.6913	0.1382	-1.571
Mof_H 	H 	0.2786	0.6755	0.1331	0.486
Mof_H 	H 	0.2876	0.6954	0.1578	0.453
Mof_H 	H 	0.3096	0.6868	0.1348	0.478
Mof_C 	C 	0.3022	0.7408	0.1279	-1.534
Mof_H 	H 	0.3029	0.7436	0.1479	0.458
Mof_H 	H 	0.2955	0.7576	0.119	0.492
Mof_H 	H 	0.3207	0.7364	0.121	0.48
Mof_N 	N 	0.15922	0.7188	0.04232	-0.178
Mof_C 	C 	0.1436	0.7418	0.0471	0.391
Mof_O 	O 	0.1418	0.7545	0.0679	-0.291
Mof_O 	O 	0.1318	0.7517	0.0237	-0.242
Mof_C 	C 	0.1427	0.7369	0.002	0.01
Mof_H 	H 	0.1554	0.7489	0.9914	0.07
Mof_H 	H 	0.1276	0.7313	0.9895	0.062
Mof_C 	C 	0.1591	0.7101	0.012	0.007
Mof_H 	H 	0.1784	0.7118	0.005	0.047
Mof_O 	O 	0.29806	0.69561	0.99732	-0.458
Mof_N 	N 	0.34152	0.66666	0.99546	-0.123
Mof_C 	C 	0.32302	0.69546	0.99546	0.992
Mof_H 	H 	0.2961	0.6715	0.9983	-0.556
Mof_C 	C 	0.37123	0.67604	0.99158	-0.09
Mof_H 	H 	0.3846	0.6701	0.0058	0.079
Mof_H 	H 	0.374	0.6953	0.9852	0.082
Mof_C 	C 	0.22495	0.22214	0.53864	0.417
Mof_O 	O 	0.247	0.21097	0.5295	-0.452
Mof_O 	O 	0.21412	0.24444	0.5303	-0.456
Mof_C 	C 	0.21072	0.20714	0.56257	-0.209
Mof_C 	C 	0.22619	0.19251	0.58295	0.164
Mof_C 	C 	0.21312	0.18021	0.60532	-0.203
Mof_H 	H 	0.2238	0.1708	0.6187	0.087
Mof_C 	C 	0.18376	0.18151	0.60839	0.103
Mof_C 	C 	0.16837	0.19613	0.58822	-0.212
Mof_H 	H 	0.1489	0.1972	0.5899	0.117
Mof_C 	C 	0.18129	0.20901	0.56584	0.176
Mof_C 	C 	0.18096	0.14487	0.64626	-0.077
Mof_H 	H 	0.197	0.1366	0.6387	0.051
Mof_C 	C 	0.16971	0.16874	0.63346	-0.005
Mof_N 	N 	0.25857	0.18904	0.58494	-0.115
Mof_C 	C 	0.2714	0.1665	0.5721	0.349
Mof_O 	O 	0.2605	0.1456	0.5632	-0.261
Mof_O 	O 	0.29856	0.1719	0.56875	-0.295
Mof_C 	C 	0.305	0.2017	0.5768	0.262
Mof_H 	H 	0.321	0.2025	0.5894	-0.057
Mof_H 	H 	0.309	0.2129	0.5602	-0.02
Mof_C 	C 	0.27898	0.21168	0.59104	-0.505
Mof_H 	H 	0.2726	0.2292	0.5821	0.192
Mof_C 	C 	0.2821	0.2163	0.62115	1.057
Mof_H 	H 	0.2635	0.2221	0.628	-0.302
Mof_C 	C 	0.2902	0.1913	0.6382	-1.571
Mof_H 	H 	0.2786	0.1755	0.6331	0.486
Mof_H 	H 	0.2876	0.1954	0.6578	0.453
Mof_H 	H 	0.3096	0.1868	0.6348	0.478
Mof_C 	C 	0.3022	0.2408	0.6279	-1.534
Mof_H 	H 	0.3029	0.2436	0.6479	0.458
Mof_H 	H 	0.2955	0.2576	0.619	0.492
Mof_H 	H 	0.3207	0.2364	0.621	0.48
Mof_N 	N 	0.15922	0.2188	0.54232	-0.178
Mof_C 	C 	0.1436	0.2418	0.5471	0.391
Mof_O 	O 	0.1418	0.2545	0.5679	-0.291
Mof_O 	O 	0.1318	0.2517	0.5237	-0.243
Mof_C 	C 	0.1427	0.2369	0.502	0.018
Mof_H 	H 	0.1554	0.2489	0.4914	0.067
Mof_H 	H 	0.1276	0.2313	0.4895	0.058
Mof_C 	C 	0.1591	0.2101	0.512	0.005
Mof_H 	H 	0.1784	0.2118	0.505	0.048
Mof_O 	O 	0.29806	0.19561	0.49732	-0.447
Mof_N 	N 	0.34152	0.16666	0.49546	-0.127
Mof_C 	C 	0.32302	0.19546	0.49546	1.004
Mof_H 	H 	0.2961	0.1715	0.4983	-0.552
Mof_C 	C 	0.37123	0.17604	0.49158	-0.092
Mof_H 	H 	0.3846	0.1701	0.5058	0.081
Mof_H 	H 	0.374	0.1953	0.4852	0.082
Mof_C 	C 	0.72495	0.72214	0.53864	0.417
Mof_O 	O 	0.747	0.71097	0.5295	-0.452
Mof_O 	O 	0.71412	0.74444	0.5303	-0.456
Mof_C 	C 	0.71072	0.70714	0.56257	-0.209
Mof_C 	C 	0.72619	0.69251	0.58295	0.164
Mof_C 	C 	0.71312	0.68021	0.60532	-0.203
Mof_H 	H 	0.7238	0.6708	0.6187	0.087
Mof_C 	C 	0.68376	0.68151	0.60839	0.103
Mof_C 	C 	0.66837	0.69613	0.58822	-0.212
Mof_H 	H 	0.6489	0.6972	0.5899	0.117
Mof_C 	C 	0.68129	0.70901	0.56584	0.176
Mof_C 	C 	0.68096	0.64487	0.64626	-0.077
Mof_H 	H 	0.697	0.6366	0.6387	0.051
Mof_C 	C 	0.66971	0.66874	0.63346	-0.005
Mof_N 	N 	0.75857	0.68904	0.58494	-0.115
Mof_C 	C 	0.7714	0.6665	0.5721	0.349
Mof_O 	O 	0.7605	0.6456	0.5632	-0.261
Mof_O 	O 	0.79856	0.6719	0.56875	-0.295
Mof_C 	C 	0.805	0.7017	0.5768	0.262
Mof_H 	H 	0.821	0.7025	0.5894	-0.057
Mof_H 	H 	0.809	0.7129	0.5602	-0.02
Mof_C 	C 	0.77898	0.71168	0.59104	-0.505
Mof_H 	H 	0.7726	0.7292	0.5821	0.192
Mof_C 	C 	0.7821	0.7163	0.62115	1.057
Mof_H 	H 	0.7635	0.7221	0.628	-0.302
Mof_C 	C 	0.7902	0.6913	0.6382	-1.571
Mof_H 	H 	0.7786	0.6755	0.6331	0.486
Mof_H 	H 	0.7876	0.6954	0.6578	0.453
Mof_H 	H 	0.8096	0.6868	0.6348	0.478
Mof_C 	C 	0.8022	0.7408	0.6279	-1.534
Mof_H 	H 	0.8029	0.7436	0.6479	0.458
Mof_H 	H 	0.7955	0.7576	0.619	0.492
Mof_H 	H 	0.8207	0.7364	0.621	0.48
Mof_N 	N 	0.65922	0.7188	0.54232	-0.178
Mof_C 	C 	0.6436	0.7418	0.5471	0.391
Mof_O 	O 	0.6418	0.7545	0.5679	-0.291
Mof_O 	O 	0.6318	0.7517	0.5237	-0.243
Mof_C 	C 	0.6427	0.7369	0.502	0.018
Mof_H 	H 	0.6554	0.7489	0.4914	0.067
Mof_H 	H 	0.6276	0.7313	0.4895	0.058
Mof_C 	C 	0.6591	0.7101	0.512	0.005
Mof_H 	H 	0.6784	0.7118	0.505	0.048
Mof_O 	O 	0.79806	0.69561	0.49732	-0.447
Mof_N 	N 	0.84152	0.66666	0.49546	-0.127
Mof_C 	C 	0.82302	0.69546	0.49546	1.004
Mof_H 	H 	0.7961	0.6715	0.4983	-0.552
Mof_C 	C 	0.87123	0.67604	0.49158	-0.092
Mof_H 	H 	0.8846	0.6701	0.5058	0.081
Mof_H 	H 	0.874	0.6953	0.4852	0.082
Mof_C 	C 	0.72495	0.22214	0.03864	0.417
Mof_O 	O 	0.747	0.21097	0.0295	-0.453
Mof_O 	O 	0.71412	0.24444	0.0303	-0.456
Mof_C 	C 	0.71072	0.20714	0.06257	-0.209
Mof_C 	C 	0.72619	0.19251	0.08295	0.164
Mof_C 	C 	0.71312	0.18021	0.10532	-0.203
Mof_H 	H 	0.7238	0.1708	0.1187	0.087
Mof_C 	C 	0.68376	0.18151	0.10839	0.103
Mof_C 	C 	0.66837	0.19613	0.08822	-0.212
Mof_H 	H 	0.6489	0.1972	0.0899	0.117
Mof_C 	C 	0.68129	0.20901	0.06584	0.176
Mof_C 	C 	0.68096	0.14487	0.14626	-0.077
Mof_H 	H 	0.697	0.1366	0.1387	0.051
Mof_C 	C 	0.66971	0.16874	0.13346	-0.005
Mof_N 	N 	0.75857	0.18904	0.08494	-0.115
Mof_C 	C 	0.7714	0.1665	0.0721	0.349
Mof_O 	O 	0.7605	0.1456	0.0632	-0.261
Mof_O 	O 	0.79856	0.1719	0.06875	-0.296
Mof_C 	C 	0.805	0.2017	0.0768	0.263
Mof_H 	H 	0.821	0.2025	0.0894	-0.057
Mof_H 	H 	0.809	0.2129	0.0602	-0.021
Mof_C 	C 	0.77898	0.21168	0.09104	-0.505
Mof_H 	H 	0.7726	0.2292	0.0821	0.192
Mof_C 	C 	0.7821	0.2163	0.12115	1.057
Mof_H 	H 	0.7635	0.2221	0.128	-0.302
Mof_C 	C 	0.7902	0.1913	0.1382	-1.571
Mof_H 	H 	0.7786	0.1755	0.1331	0.486
Mof_H 	H 	0.7876	0.1954	0.1578	0.453
Mof_H 	H 	0.8096	0.1868	0.1348	0.478
Mof_C 	C 	0.8022	0.2408	0.1279	-1.534
Mof_H 	H 	0.8029	0.2436	0.1479	0.458
Mof_H 	H 	0.7955	0.2576	0.119	0.492
Mof_H 	H 	0.8207	0.2364	0.121	0.48
Mof_N 	N 	0.65922	0.2188	0.04232	-0.178
Mof_C 	C 	0.6436	0.2418	0.0471	0.391
Mof_O 	O 	0.6418	0.2545	0.0679	-0.291
Mof_O 	O 	0.6318	0.2517	0.0237	-0.242
Mof_C 	C 	0.6427	0.2369	0.002	0.01
Mof_H 	H 	0.6554	0.2489	0.9914	0.07
Mof_H 	H 	0.6276	0.2313	0.9895	0.062
Mof_C 	C 	0.6591	0.2101	0.012	0.007
Mof_H 	H 	0.6784	0.2118	0.005	0.047
Mof_O 	O 	0.79806	0.19561	0.99732	-0.458
Mof_N 	N 	0.84152	0.16666	0.99546	-0.123
Mof_C 	C 	0.82302	0.19546	0.99546	0.992
Mof_H 	H 	0.7961	0.1715	0.9983	-0.556
Mof_C 	C 	0.87123	0.17604	0.99158	-0.09
Mof_H 	H 	0.8846	0.1701	0.0058	0.079
Mof_H 	H 	0.874	0.1953	0.9852	0.082
Mof_C 	C 	0.22495	0.27786	0.96136	0.417
Mof_O 	O 	0.247	0.28903	0.9705	-0.452
Mof_O 	O 	0.21412	0.25556	0.9697	-0.455
Mof_C 	C 	0.21072	0.29286	0.93743	-0.208
Mof_C 	C 	0.22619	0.30749	0.91705	0.164
Mof_C 	C 	0.21312	0.31979	0.89468	-0.203
Mof_H 	H 	0.2238	0.3292	0.8813	0.087
Mof_C 	C 	0.18376	0.31849	0.89161	0.103
Mof_C 	C 	0.16837	0.30387	0.91178	-0.212
Mof_H 	H 	0.1489	0.3028	0.9101	0.117
Mof_C 	C 	0.18129	0.29099	0.93416	0.176
Mof_C 	C 	0.18096	0.35513	0.85374	-0.077
Mof_H 	H 	0.197	0.3634	0.8613	0.051
Mof_C 	C 	0.16971	0.33126	0.86654	-0.005
Mof_N 	N 	0.25857	0.31096	0.91506	-0.115
Mof_C 	C 	0.2714	0.3335	0.9279	0.349
Mof_O 	O 	0.2605	0.3544	0.9368	-0.261
Mof_O 	O 	0.29856	0.3281	0.93125	-0.295
Mof_C 	C 	0.305	0.2983	0.9232	0.262
Mof_H 	H 	0.321	0.2975	0.9106	-0.057
Mof_H 	H 	0.309	0.2871	0.9398	-0.02
Mof_C 	C 	0.27898	0.28832	0.90896	-0.505
Mof_H 	H 	0.2726	0.2708	0.9179	0.192
Mof_C 	C 	0.2821	0.2837	0.87885	1.057
Mof_H 	H 	0.2635	0.2779	0.872	-0.301
Mof_C 	C 	0.2902	0.3087	0.8618	-1.571
Mof_H 	H 	0.2786	0.3245	0.8669	0.486
Mof_H 	H 	0.2876	0.3046	0.8422	0.453
Mof_H 	H 	0.3096	0.3132	0.8652	0.478
Mof_C 	C 	0.3022	0.2592	0.8721	-1.534
Mof_H 	H 	0.3029	0.2564	0.8521	0.458
Mof_H 	H 	0.2955	0.2424	0.881	0.492
Mof_H 	H 	0.3207	0.2636	0.879	0.48
Mof_N 	N 	0.15922	0.2812	0.95768	-0.177
Mof_C 	C 	0.1436	0.2582	0.9529	0.391
Mof_O 	O 	0.1418	0.2455	0.9321	-0.291
Mof_O 	O 	0.1318	0.2483	0.9763	-0.244
Mof_C 	C 	0.1427	0.2631	0.998	0.026
Mof_H 	H 	0.1554	0.2511	0.0086	0.064
Mof_H 	H 	0.1276	0.2687	0.0105	0.055
Mof_C 	C 	0.1591	0.2899	0.988	0.004
Mof_H 	H 	0.1784	0.2882	0.995	0.049
Mof_O 	O 	0.29806	0.30439	0.00268	-0.435
Mof_N 	N 	0.34152	0.33334	0.00454	-0.131
Mof_C 	C 	0.32302	0.30454	0.00454	1.015
Mof_H 	H 	0.2961	0.3285	0.0017	-0.547
Mof_C 	C 	0.37123	0.32396	0.00842	-0.095
Mof_H 	H 	0.3846	0.3299	0.9942	0.083
Mof_H 	H 	0.374	0.3047	0.0148	0.083
Mof_C 	C 	0.22495	0.77786	0.46136	0.417
Mof_O 	O 	0.247	0.78903	0.4705	-0.452
Mof_O 	O 	0.21412	0.75556	0.4697	-0.456
Mof_C 	C 	0.21072	0.79286	0.43743	-0.209
Mof_C 	C 	0.22619	0.80749	0.41705	0.164
Mof_C 	C 	0.21312	0.81979	0.39468	-0.203
Mof_H 	H 	0.2238	0.8292	0.3813	0.087
Mof_C 	C 	0.18376	0.81849	0.39161	0.103
Mof_C 	C 	0.16837	0.80387	0.41178	-0.212
Mof_H 	H 	0.1489	0.8028	0.4101	0.117
Mof_C 	C 	0.18129	0.79099	0.43416	0.176
Mof_C 	C 	0.18096	0.85513	0.35374	-0.077
Mof_H 	H 	0.197	0.8634	0.3613	0.051
Mof_C 	C 	0.16971	0.83126	0.36654	-0.005
Mof_N 	N 	0.25857	0.81096	0.41506	-0.115
Mof_C 	C 	0.2714	0.8335	0.4279	0.349
Mof_O 	O 	0.2605	0.8544	0.4368	-0.261
Mof_O 	O 	0.29856	0.8281	0.43125	-0.295
Mof_C 	C 	0.305	0.7983	0.4232	0.262
Mof_H 	H 	0.321	0.7975	0.4106	-0.057
Mof_H 	H 	0.309	0.7871	0.4398	-0.02
Mof_C 	C 	0.27898	0.78832	0.40896	-0.505
Mof_H 	H 	0.2726	0.7708	0.4179	0.192
Mof_C 	C 	0.2821	0.7837	0.37885	1.057
Mof_H 	H 	0.2635	0.7779	0.372	-0.302
Mof_C 	C 	0.2902	0.8087	0.3618	-1.571
Mof_H 	H 	0.2786	0.8245	0.3669	0.486
Mof_H 	H 	0.2876	0.8046	0.3422	0.453
Mof_H 	H 	0.3096	0.8132	0.3652	0.478
Mof_C 	C 	0.3022	0.7592	0.3721	-1.534
Mof_H 	H 	0.3029	0.7564	0.3521	0.458
Mof_H 	H 	0.2955	0.7424	0.381	0.492
Mof_H 	H 	0.3207	0.7636	0.379	0.48
Mof_N 	N 	0.15922	0.7812	0.45768	-0.178
Mof_C 	C 	0.1436	0.7582	0.4529	0.391
Mof_O 	O 	0.1418	0.7455	0.4321	-0.291
Mof_O 	O 	0.1318	0.7483	0.4763	-0.243
Mof_C 	C 	0.1427	0.7631	0.498	0.018
Mof_H 	H 	0.1554	0.7511	0.5086	0.067
Mof_H 	H 	0.1276	0.7687	0.5105	0.058
Mof_C 	C 	0.1591	0.7899	0.488	0.005
Mof_H 	H 	0.1784	0.7882	0.495	0.048
Mof_O 	O 	0.29806	0.80439	0.50268	-0.447
Mof_N 	N 	0.34152	0.83334	0.50454	-0.127
Mof_C 	C 	0.32302	0.80454	0.50454	1.004
Mof_H 	H 	0.2961	0.8285	0.5017	-0.552
Mof_C 	C 	0.37123	0.82396	0.50842	-0.092
Mof_H 	H 	0.3846	0.8299	0.4942	0.081
Mof_H 	H 	0.374	0.8047	0.5148	0.082
Mof_C 	C 	0.72495	0.27786	0.46136	0.417
Mof_O 	O 	0.747	0.28903	0.4705	-0.452
Mof_O 	O 	0.71412	0.25556	0.4697	-0.456
Mof_C 	C 	0.71072	0.29286	0.43743	-0.209
Mof_C 	C 	0.72619	0.30749	0.41705	0.164
Mof_C 	C 	0.71312	0.31979	0.39468	-0.203
Mof_H 	H 	0.7238	0.3292	0.3813	0.087
Mof_C 	C 	0.68376	0.31849	0.39161	0.103
Mof_C 	C 	0.66837	0.30387	0.41178	-0.212
Mof_H 	H 	0.6489	0.3028	0.4101	0.117
Mof_C 	C 	0.68129	0.29099	0.43416	0.176
Mof_C 	C 	0.68096	0.35513	0.35374	-0.077
Mof_H 	H 	0.697	0.3634	0.3613	0.051
Mof_C 	C 	0.66971	0.33126	0.36654	-0.005
Mof_N 	N 	0.75857	0.31096	0.41506	-0.115
Mof_C 	C 	0.7714	0.3335	0.4279	0.349
Mof_O 	O 	0.7605	0.3544	0.4368	-0.261
Mof_O 	O 	0.79856	0.3281	0.43125	-0.295
Mof_C 	C 	0.805	0.2983	0.4232	0.262
Mof_H 	H 	0.821	0.2975	0.4106	-0.057
Mof_H 	H 	0.809	0.2871	0.4398	-0.02
Mof_C 	C 	0.77898	0.28832	0.40896	-0.505
Mof_H 	H 	0.7726	0.2708	0.4179	0.192
Mof_C 	C 	0.7821	0.2837	0.37885	1.057
Mof_H 	H 	0.7635	0.2779	0.372	-0.302
Mof_C 	C 	0.7902	0.3087	0.3618	-1.571
Mof_H 	H 	0.7786	0.3245	0.3669	0.486
Mof_H 	H 	0.7876	0.3046	0.3422	0.453
Mof_H 	H 	0.8096	0.3132	0.3652	0.478
Mof_C 	C 	0.8022	0.2592	0.3721	-1.534
Mof_H 	H 	0.8029	0.2564	0.3521	0.458
Mof_H 	H 	0.7955	0.2424	0.381	0.492
Mof_H 	H 	0.8207	0.2636	0.379	0.48
Mof_N 	N 	0.65922	0.2812	0.45768	-0.178
Mof_C 	C 	0.6436	0.2582	0.4529	0.391
Mof_O 	O 	0.6418	0.2455	0.4321	-0.291
Mof_O 	O 	0.6318	0.2483	0.4763	-0.243
Mof_C 	C 	0.6427	0.2631	0.498	0.018
Mof_H 	H 	0.6554	0.2511	0.5086	0.067
Mof_H 	H 	0.6276	0.2687	0.5105	0.058
Mof_C 	C 	0.6591	0.2899	0.488	0.005
Mof_H 	H 	0.6784	0.2882	0.495	0.048
Mof_O 	O 	0.79806	0.30439	0.50268	-0.447
Mof_N 	N 	0.84152	0.33334	0.50454	-0.127
Mof_C 	C 	0.82302	0.30454	0.50454	1.004
Mof_H 	H 	0.7961	0.3285	0.5017	-0.552
Mof_C 	C 	0.87123	0.32396	0.50842	-0.092
Mof_H 	H 	0.8846	0.3299	0.4942	0.081
Mof_H 	H 	0.874	0.3047	0.5148	0.082
Mof_C 	C 	0.72495	0.77786	0.96136	0.417
Mof_O 	O 	0.747	0.78903	0.9705	-0.452
Mof_O 	O 	0.71412	0.75556	0.9697	-0.455
Mof_C 	C 	0.71072	0.79286	0.93743	-0.208
Mof_C 	C 	0.72619	0.80749	0.91705	0.164
Mof_C 	C 	0.71312	0.81979	0.89468	-0.203
Mof_H 	H 	0.7238	0.8292	0.8813	0.087
Mof_C 	C 	0.68376	0.81849	0.89161	0.103
Mof_C 	C 	0.66837	0.80387	0.91178	-0.212
Mof_H 	H 	0.6489	0.8028	0.9101	0.117
Mof_C 	C 	0.68129	0.79099	0.93416	0.176
Mof_C 	C 	0.68096	0.85513	0.85374	-0.077
Mof_H 	H 	0.697	0.8634	0.8613	0.051
Mof_C 	C 	0.66971	0.83126	0.86654	-0.005
Mof_N 	N 	0.75857	0.81096	0.91506	-0.115
Mof_C 	C 	0.7714	0.8335	0.9279	0.349
Mof_O 	O 	0.7605	0.8544	0.9368	-0.26
Mof_O 	O 	0.79856	0.8281	0.93125	-0.295
Mof_C 	C 	0.805	0.7983	0.9232	0.262
Mof_H 	H 	0.821	0.7975	0.9106	-0.057
Mof_H 	H 	0.809	0.7871	0.9398	-0.02
Mof_C 	C 	0.77898	0.78832	0.90896	-0.505
Mof_H 	H 	0.7726	0.7708	0.9179	0.192
Mof_C 	C 	0.7821	0.7837	0.87885	1.057
Mof_H 	H 	0.7635	0.7779	0.872	-0.301
Mof_C 	C 	0.7902	0.8087	0.8618	-1.571
Mof_H 	H 	0.7786	0.8245	0.8669	0.486
Mof_H 	H 	0.7876	0.8046	0.8422	0.453
Mof_H 	H 	0.8096	0.8132	0.8652	0.478
Mof_C 	C 	0.8022	0.7592	0.8721	-1.534
Mof_H 	H 	0.8029	0.7564	0.8521	0.458
Mof_H 	H 	0.7955	0.7424	0.881	0.492
Mof_H 	H 	0.8207	0.7636	0.879	0.48
Mof_N 	N 	0.65922	0.7812	0.95768	-0.177
Mof_C 	C 	0.6436	0.7582	0.9529	0.391
Mof_O 	O 	0.6418	0.7455	0.9321	-0.291
Mof_O 	O 	0.6318	0.7483	0.9763	-0.244
Mof_C 	C 	0.6427	0.7631	0.998	0.026
Mof_H 	H 	0.6554	0.7511	0.0086	0.064
Mof_H 	H 	0.6276	0.7687	0.0105	0.055
Mof_C 	C 	0.6591	0.7899	0.988	0.004
Mof_H 	H 	0.6784	0.7882	0.995	0.049
Mof_O 	O 	0.79806	0.80439	0.00268	-0.435
Mof_N 	N 	0.84152	0.83334	0.00454	-0.131
Mof_C 	C 	0.82302	0.80454	0.00454	1.015
Mof_H 	H 	0.7961	0.8285	0.0017	-0.547
Mof_C 	C 	0.87123	0.82396	0.00842	-0.095
Mof_H 	H 	0.8846	0.8299	0.9942	0.083
Mof_H 	H 	0.874	0.8047	0.0148	0.083
Mof_C 	C 	0.77505	0.72214	0.96136	0.417
Mof_O 	O 	0.753	0.71097	0.9705	-0.452
Mof_O 	O 	0.78588	0.74444	0.9697	-0.455
Mof_C 	C 	0.78928	0.70714	0.93743	-0.208
Mof_C 	C 	0.77381	0.69251	0.91705	0.164
Mof_C 	C 	0.78688	0.68021	0.89468	-0.203
Mof_H 	H 	0.7762	0.6708	0.8813	0.087
Mof_C 	C 	0.81624	0.68151	0.89161	0.103
Mof_C 	C 	0.83163	0.69613	0.91178	-0.212
Mof_H 	H 	0.8511	0.6972	0.9101	0.117
Mof_C 	C 	0.81871	0.70901	0.93416	0.176
Mof_C 	C 	0.81904	0.64487	0.85374	-0.077
Mof_H 	H 	0.803	0.6366	0.8613	0.051
Mof_C 	C 	0.83029	0.66874	0.86654	-0.005
Mof_N 	N 	0.74143	0.68904	0.91506	-0.115
Mof_C 	C 	0.7286	0.6665	0.9279	0.349
Mof_O 	O 	0.7395	0.6456	0.9368	-0.261
Mof_O 	O 	0.70144	0.6719	0.93125	-0.295
Mof_C 	C 	0.695	0.7017	0.9232	0.262
Mof_H 	H 	0.679	0.7025	0.9106	-0.057
Mof_H 	H 	0.691	0.7129	0.9398	-0.02
Mof_C 	C 	0.72102	0.71168	0.90896	-0.504
Mof_H 	H 	0.7274	0.7292	0.9179	0.192
Mof_C 	C 	0.7179	0.7163	0.87885	1.057
Mof_H 	H 	0.7365	0.7221	0.872	-0.301
Mof_C 	C 	0.7098	0.6913	0.8618	-1.571
Mof_H 	H 	0.7214	0.6755	0.8669	0.486
Mof_H 	H 	0.7124	0.6954	0.8422	0.453
Mof_H 	H 	0.6904	0.6868	0.8652	0.478
Mof_C 	C 	0.6978	0.7408	0.8721	-1.534
Mof_H 	H 	0.6971	0.7436	0.8521	0.458
Mof_H 	H 	0.7045	0.7576	0.881	0.492
Mof_H 	H 	0.6793	0.7364	0.879	0.48
Mof_N 	N 	0.84078	0.7188	0.95768	-0.177
Mof_C 	C 	0.8564	0.7418	0.9529	0.391
Mof_O 	O 	0.8582	0.7545	0.9321	-0.291
Mof_O 	O 	0.8682	0.7517	0.9763	-0.244
Mof_C 	C 	0.8573	0.7369	0.998	0.026
Mof_H 	H 	0.8446	0.7489	0.0086	0.064
Mof_H 	H 	0.8724	0.7313	0.0105	0.055
Mof_C 	C 	0.8409	0.7101	0.988	0.004
Mof_H 	H 	0.8216	0.7118	0.995	0.049
Mof_O 	O 	0.70194	0.69561	0.00268	-0.435
Mof_N 	N 	0.65848	0.66666	0.00454	-0.131
Mof_C 	C 	0.67698	0.69546	0.00454	1.015
Mof_H 	H 	0.7039	0.6715	0.0017	-0.547
Mof_C 	C 	0.62877	0.67604	0.00842	-0.095
Mof_H 	H 	0.6154	0.6701	0.9942	0.083
Mof_H 	H 	0.626	0.6953	0.0148	0.083
Mof_C 	C 	0.77505	0.22214	0.46136	0.417
Mof_O 	O 	0.753	0.21097	0.4705	-0.452
Mof_O 	O 	0.78588	0.24444	0.4697	-0.456
Mof_C 	C 	0.78928	0.20714	0.43743	-0.209
Mof_C 	C 	0.77381	0.19251	0.41705	0.164
Mof_C 	C 	0.78688	0.18021	0.39468	-0.203
Mof_H 	H 	0.7762	0.1708	0.3813	0.087
Mof_C 	C 	0.81624	0.18151	0.39161	0.103
Mof_C 	C 	0.83163	0.19613	0.41178	-0.212
Mof_H 	H 	0.8511	0.1972	0.4101	0.117
Mof_C 	C 	0.81871	0.20901	0.43416	0.176
Mof_C 	C 	0.81904	0.14487	0.35374	-0.077
Mof_H 	H 	0.803	0.1366	0.3613	0.051
Mof_C 	C 	0.83029	0.16874	0.36654	-0.005
Mof_N 	N 	0.74143	0.18904	0.41506	-0.115
Mof_C 	C 	0.7286	0.1665	0.4279	0.349
Mof_O 	O 	0.7395	0.1456	0.4368	-0.261
Mof_O 	O 	0.70144	0.1719	0.43125	-0.295
Mof_C 	C 	0.695	0.2017	0.4232	0.262
Mof_H 	H 	0.679	0.2025	0.4106	-0.057
Mof_H 	H 	0.691	0.2129	0.4398	-0.02
Mof_C 	C 	0.72102	0.21168	0.40896	-0.505
Mof_H 	H 	0.7274	0.2292	0.4179	0.192
Mof_C 	C 	0.7179	0.2163	0.37885	1.057
Mof_H 	H 	0.7365	0.2221	0.372	-0.302
Mof_C 	C 	0.7098	0.1913	0.3618	-1.571
Mof_H 	H 	0.7214	0.1755	0.3669	0.486
Mof_H 	H 	0.7124	0.1954	0.3422	0.453
Mof_H 	H 	0.6904	0.1868	0.3652	0.478
Mof_C 	C 	0.6978	0.2408	0.3721	-1.534
Mof_H 	H 	0.6971	0.2436	0.3521	0.458
Mof_H 	H 	0.7045	0.2576	0.381	0.492
Mof_H 	H 	0.6793	0.2364	0.379	0.48
Mof_N 	N 	0.84078	0.2188	0.45768	-0.178
Mof_C 	C 	0.8564	0.2418	0.4529	0.391
Mof_O 	O 	0.8582	0.2545	0.4321	-0.291
Mof_O 	O 	0.8682	0.2517	0.4763	-0.243
Mof_C 	C 	0.8573	0.2369	0.498	0.018
Mof_H 	H 	0.8446	0.2489	0.5086	0.067
Mof_H 	H 	0.8724	0.2313	0.5105	0.058
Mof_C 	C 	0.8409	0.2101	0.488	0.005
Mof_H 	H 	0.8216	0.2118	0.495	0.048
Mof_O 	O 	0.70194	0.19561	0.50268	-0.447
Mof_N 	N 	0.65848	0.16666	0.50454	-0.127
Mof_C 	C 	0.67698	0.19546	0.50454	1.004
Mof_H 	H 	0.7039	0.1715	0.5017	-0.552
Mof_C 	C 	0.62877	0.17604	0.50842	-0.092
Mof_H 	H 	0.6154	0.1701	0.4942	0.081
Mof_H 	H 	0.626	0.1953	0.5148	0.082
Mof_C 	C 	0.27505	0.72214	0.46136	0.417
Mof_O 	O 	0.253	0.71097	0.4705	-0.452
Mof_O 	O 	0.28588	0.74444	0.4697	-0.456
Mof_C 	C 	0.28928	0.70714	0.43743	-0.209
Mof_C 	C 	0.27381	0.69251	0.41705	0.164
Mof_C 	C 	0.28688	0.68021	0.39468	-0.203
Mof_H 	H 	0.2762	0.6708	0.3813	0.087
Mof_C 	C 	0.31624	0.68151	0.39161	0.103
Mof_C 	C 	0.33163	0.69613	0.41178	-0.212
Mof_H 	H 	0.3511	0.6972	0.4101	0.117
Mof_C 	C 	0.31871	0.70901	0.43416	0.176
Mof_C 	C 	0.31904	0.64487	0.35374	-0.077
Mof_H 	H 	0.303	0.6366	0.3613	0.051
Mof_C 	C 	0.33029	0.66874	0.36654	-0.005
Mof_N 	N 	0.24143	0.68904	0.41506	-0.115
Mof_C 	C 	0.2286	0.6665	0.4279	0.349
Mof_O 	O 	0.2395	0.6456	0.4368	-0.261
Mof_O 	O 	0.20144	0.6719	0.43125	-0.295
Mof_C 	C 	0.195	0.7017	0.4232	0.262
Mof_H 	H 	0.179	0.7025	0.4106	-0.057
Mof_H 	H 	0.191	0.7129	0.4398	-0.02
Mof_C 	C 	0.22102	0.71168	0.40896	-0.505
Mof_H 	H 	0.2274	0.7292	0.4179	0.192
Mof_C 	C 	0.2179	0.7163	0.37885	1.057
Mof_H 	H 	0.2365	0.7221	0.372	-0.302
Mof_C 	C 	0.2098	0.6913	0.3618	-1.571
Mof_H 	H 	0.2214	0.6755	0.3669	0.486
Mof_H 	H 	0.2124	0.6954	0.3422	0.453
Mof_H 	H 	0.1904	0.6868	0.3652	0.478
Mof_C 	C 	0.1978	0.7408	0.3721	-1.534
Mof_H 	H 	0.1971	0.7436	0.3521	0.458
Mof_H 	H 	0.2045	0.7576	0.381	0.492
Mof_H 	H 	0.1793	0.7364	0.379	0.48
Mof_N 	N 	0.34078	0.7188	0.45768	-0.178
Mof_C 	C 	0.3564	0.7418	0.4529	0.391
Mof_O 	O 	0.3582	0.7545	0.4321	-0.291
Mof_O 	O 	0.3682	0.7517	0.4763	-0.243
Mof_C 	C 	0.3573	0.7369	0.498	0.018
Mof_H 	H 	0.3446	0.7489	0.5086	0.067
Mof_H 	H 	0.3724	0.7313	0.5105	0.058
Mof_C 	C 	0.3409	0.7101	0.488	0.005
Mof_H 	H 	0.3216	0.7118	0.495	0.048
Mof_O 	O 	0.20194	0.69561	0.50268	-0.447
Mof_N 	N 	0.15848	0.66666	0.50454	-0.127
Mof_C 	C 	0.17698	0.69546	0.50454	1.004
Mof_H 	H 	0.2039	0.6715	0.5017	-0.552
Mof_C 	C 	0.12877	0.67604	0.50842	-0.092
Mof_H 	H 	0.1154	0.6701	0.4942	0.081
Mof_H 	H 	0.126	0.6953	0.5148	0.082
Mof_C 	C 	0.27505	0.22214	0.96136	0.417
Mof_O 	O 	0.253	0.21097	0.9705	-0.452
Mof_O 	O 	0.28588	0.24444	0.9697	-0.455
Mof_C 	C 	0.28928	0.20714	0.93743	-0.208
Mof_C 	C 	0.27381	0.19251	0.91705	0.164
Mof_C 	C 	0.28688	0.18021	0.89468	-0.203
Mof_H 	H 	0.2762	0.1708	0.8813	0.087
Mof_C 	C 	0.31624	0.18151	0.89161	0.103
Mof_C 	C 	0.33163	0.19613	0.91178	-0.212
Mof_H 	H 	0.3511	0.1972	0.9101	0.117
Mof_C 	C 	0.31871	0.20901	0.93416	0.176
Mof_C 	C 	0.31904	0.14487	0.85374	-0.077
Mof_H 	H 	0.303	0.1366	0.8613	0.051
Mof_C 	C 	0.33029	0.16874	0.86654	-0.005
Mof_N 	N 	0.24143	0.18904	0.91506	-0.115
Mof_C 	C 	0.2286	0.1665	0.9279	0.349
Mof_O 	O 	0.2395	0.1456	0.9368	-0.261
Mof_O 	O 	0.20144	0.1719	0.93125	-0.295
Mof_C 	C 	0.195	0.2017	0.9232	0.262
Mof_H 	H 	0.179	0.2025	0.9106	-0.057
Mof_H 	H 	0.191	0.2129	0.9398	-0.02
Mof_C 	C 	0.22102	0.21168	0.90896	-0.504
Mof_H 	H 	0.2274	0.2292	0.9179	0.192
Mof_C 	C 	0.2179	0.2163	0.87885	1.057
Mof_H 	H 	0.2365	0.2221	0.872	-0.301
Mof_C 	C 	0.2098	0.1913	0.8618	-1.57
Mof_H 	H 	0.2214	0.1755	0.8669	0.486
Mof_H 	H 	0.2124	0.1954	0.8422	0.453
Mof_H 	H 	0.1904	0.1868	0.8652	0.478
Mof_C 	C 	0.1978	0.2408	0.8721	-1.534
Mof_H 	H 	0.1971	0.2436	0.8521	0.458
Mof_H 	H 	0.2045	0.2576	0.881	0.492
Mof_H 	H 	0.1793	0.2364	0.879	0.48
Mof_N 	N 	0.34078	0.2188	0.95768	-0.177
Mof_C 	C 	0.3564	0.2418	0.9529	0.391
Mof_O 	O 	0.3582	0.2545	0.9321	-0.291
Mof_O 	O 	0.3682	0.2517	0.9763	-0.244
Mof_C 	C 	0.3573	0.2369	0.998	0.026
Mof_H 	H 	0.3446	0.2489	0.0086	0.064
Mof_H 	H 	0.3724	0.2313	0.0105	0.055
Mof_C 	C 	0.3409	0.2101	0.988	0.004
Mof_H 	H 	0.3216	0.2118	0.995	0.049
Mof_O 	O 	0.20194	0.19561	0.00268	-0.435
Mof_N 	N 	0.15848	0.16666	0.00454	-0.131
Mof_C 	C 	0.17698	0.19546	0.00454	1.015
Mof_H 	H 	0.2039	0.1715	0.0017	-0.547
Mof_C 	C 	0.12877	0.17604	0.00842	-0.095
Mof_H 	H 	0.1154	0.1701	0.9942	0.083
Mof_H 	H 	0.126	0.1953	0.0148	0.083
Mof_C 	C 	0.77505	0.27786	0.03864	0.417
Mof_O 	O 	0.753	0.28903	0.0295	-0.453
Mof_O 	O 	0.78588	0.25556	0.0303	-0.456
Mof_C 	C 	0.78928	0.29286	0.06257	-0.209
Mof_C 	C 	0.77381	0.30749	0.08295	0.164
Mof_C 	C 	0.78688	0.31979	0.10532	-0.203
Mof_H 	H 	0.7762	0.3292	0.1187	0.087
Mof_C 	C 	0.81624	0.31849	0.10839	0.103
Mof_C 	C 	0.83163	0.30387	0.08822	-0.212
Mof_H 	H 	0.8511	0.3028	0.0899	0.117
Mof_C 	C 	0.81871	0.29099	0.06584	0.176
Mof_C 	C 	0.81904	0.35513	0.14626	-0.077
Mof_H 	H 	0.803	0.3634	0.1387	0.051
Mof_C 	C 	0.83029	0.33126	0.13346	-0.005
Mof_N 	N 	0.74143	0.31096	0.08494	-0.115
Mof_C 	C 	0.7286	0.3335	0.0721	0.349
Mof_O 	O 	0.7395	0.3544	0.0632	-0.261
Mof_O 	O 	0.70144	0.3281	0.06875	-0.296
Mof_C 	C 	0.695	0.2983	0.0768	0.263
Mof_H 	H 	0.679	0.2975	0.0894	-0.058
Mof_H 	H 	0.691	0.2871	0.0602	-0.021
Mof_C 	C 	0.72102	0.28832	0.09104	-0.505
Mof_H 	H 	0.7274	0.2708	0.0821	0.192
Mof_C 	C 	0.7179	0.2837	0.12115	1.057
Mof_H 	H 	0.7365	0.2779	0.128	-0.302
Mof_C 	C 	0.7098	0.3087	0.1382	-1.571
Mof_H 	H 	0.7214	0.3245	0.1331	0.486
Mof_H 	H 	0.7124	0.3046	0.1578	0.453
Mof_H 	H 	0.6904	0.3132	0.1348	0.478
Mof_C 	C 	0.6978	0.2592	0.1279	-1.534
Mof_H 	H 	0.6971	0.2564	0.1479	0.458
Mof_H 	H 	0.7045	0.2424	0.119	0.492
Mof_H 	H 	0.6793	0.2636	0.121	0.48
Mof_N 	N 	0.84078	0.2812	0.04232	-0.178
Mof_C 	C 	0.8564	0.2582	0.0471	0.391
Mof_O 	O 	0.8582	0.2455	0.0679	-0.291
Mof_O 	O 	0.8682	0.2483	0.0237	-0.242
Mof_C 	C 	0.8573	0.2631	0.002	0.01
Mof_H 	H 	0.8446	0.2511	0.9914	0.071
Mof_H 	H 	0.8724	0.2687	0.9895	0.062
Mof_C 	C 	0.8409	0.2899	0.012	0.007
Mof_H 	H 	0.8216	0.2882	0.005	0.047
Mof_O 	O 	0.70194	0.30439	0.99732	-0.458
Mof_N 	N 	0.65848	0.33334	0.99546	-0.123
Mof_C 	C 	0.67698	0.30454	0.99546	0.992
Mof_H 	H 	0.7039	0.3285	0.9983	-0.556
Mof_C 	C 	0.62877	0.32396	0.99158	-0.09
Mof_H 	H 	0.6154	0.3299	0.0058	0.079
Mof_H 	H 	0.626	0.3047	0.9852	0.082
Mof_C 	C 	0.77505	0.77786	0.53864	0.417
Mof_O 	O 	0.753	0.78903	0.5295	-0.452
Mof_O 	O 	0.78588	0.75556	0.5303	-0.456
Mof_C 	C 	0.78928	0.79286	0.56257	-0.209
Mof_C 	C 	0.77381	0.80749	0.58295	0.164
Mof_C 	C 	0.78688	0.81979	0.60532	-0.203
Mof_H 	H 	0.7762	0.8292	0.6187	0.087
Mof_C 	C 	0.81624	0.81849	0.60839	0.103
Mof_C 	C 	0.83163	0.80387	0.58822	-0.212
Mof_H 	H 	0.8511	0.8028	0.5899	0.117
Mof_C 	C 	0.81871	0.79099	0.56584	0.176
Mof_C 	C 	0.81904	0.85513	0.64626	-0.077
Mof_H 	H 	0.803	0.8634	0.6387	0.051
Mof_C 	C 	0.83029	0.83126	0.63346	-0.005
Mof_N 	N 	0.74143	0.81096	0.58494	-0.115
Mof_C 	C 	0.7286	0.8335	0.5721	0.349
Mof_O 	O 	0.7395	0.8544	0.5632	-0.261
Mof_O 	O 	0.70144	0.8281	0.56875	-0.295
Mof_C 	C 	0.695	0.7983	0.5768	0.262
Mof_H 	H 	0.679	0.7975	0.5894	-0.057
Mof_H 	H 	0.691	0.7871	0.5602	-0.02
Mof_C 	C 	0.72102	0.78832	0.59104	-0.505
Mof_H 	H 	0.7274	0.7708	0.5821	0.192
Mof_C 	C 	0.7179	0.7837	0.62115	1.057
Mof_H 	H 	0.7365	0.7779	0.628	-0.302
Mof_C 	C 	0.7098	0.8087	0.6382	-1.571
Mof_H 	H 	0.7214	0.8245	0.6331	0.486
Mof_H 	H 	0.7124	0.8046	0.6578	0.453
Mof_H 	H 	0.6904	0.8132	0.6348	0.478
Mof_C 	C 	0.6978	0.7592	0.6279	-1.534
Mof_H 	H 	0.6971	0.7564	0.6479	0.458
Mof_H 	H 	0.7045	0.7424	0.619	0.492
Mof_H 	H 	0.6793	0.7636	0.621	0.48
Mof_N 	N 	0.84078	0.7812	0.54232	-0.178
Mof_C 	C 	0.8564	0.7582	0.5471	0.391
Mof_O 	O 	0.8582	0.7455	0.5679	-0.291
Mof_O 	O 	0.8682	0.7483	0.5237	-0.243
Mof_C 	C 	0.8573	0.7631	0.502	0.018
Mof_H 	H 	0.8446	0.7511	0.4914	0.067
Mof_H 	H 	0.8724	0.7687	0.4895	0.059
Mof_C 	C 	0.8409	0.7899	0.512	0.005
Mof_H 	H 	0.8216	0.7882	0.505	0.048
Mof_O 	O 	0.70194	0.80439	0.49732	-0.447
Mof_N 	N 	0.65848	0.83334	0.49546	-0.127
Mof_C 	C 	0.67698	0.80454	0.49546	1.004
Mof_H 	H 	0.7039	0.8285	0.4983	-0.552
Mof_C 	C 	0.62877	0.82396	0.49158	-0.092
Mof_H 	H 	0.6154	0.8299	0.5058	0.081
Mof_H 	H 	0.626	0.8047	0.4852	0.082
Mof_C 	C 	0.27505	0.27786	0.53864	0.417
Mof_O 	O 	0.253	0.28903	0.5295	-0.452
Mof_O 	O 	0.28588	0.25556	0.5303	-0.456
Mof_C 	C 	0.28928	0.29286	0.56257	-0.209
Mof_C 	C 	0.27381	0.30749	0.58295	0.164
Mof_C 	C 	0.28688	0.31979	0.60532	-0.203
Mof_H 	H 	0.2762	0.3292	0.6187	0.087
Mof_C 	C 	0.31624	0.31849	0.60839	0.103
Mof_C 	C 	0.33163	0.30387	0.58822	-0.212
Mof_H 	H 	0.3511	0.3028	0.5899	0.117
Mof_C 	C 	0.31871	0.29099	0.56584	0.176
Mof_C 	C 	0.31904	0.35513	0.64626	-0.077
Mof_H 	H 	0.303	0.3634	0.6387	0.051
Mof_C 	C 	0.33029	0.33126	0.63346	-0.005
Mof_N 	N 	0.24143	0.31096	0.58494	-0.115
Mof_C 	C 	0.2286	0.3335	0.5721	0.349
Mof_O 	O 	0.2395	0.3544	0.5632	-0.261
Mof_O 	O 	0.20144	0.3281	0.56875	-0.295
Mof_C 	C 	0.195	0.2983	0.5768	0.262
Mof_H 	H 	0.179	0.2975	0.5894	-0.057
Mof_H 	H 	0.191	0.2871	0.5602	-0.02
Mof_C 	C 	0.22102	0.28832	0.59104	-0.505
Mof_H 	H 	0.2274	0.2708	0.5821	0.192
Mof_C 	C 	0.2179	0.2837	0.62115	1.057
Mof_H 	H 	0.2365	0.2779	0.628	-0.302
Mof_C 	C 	0.2098	0.3087	0.6382	-1.571
Mof_H 	H 	0.2214	0.3245	0.6331	0.486
Mof_H 	H 	0.2124	0.3046	0.6578	0.453
Mof_H 	H 	0.1904	0.3132	0.6348	0.478
Mof_C 	C 	0.1978	0.2592	0.6279	-1.534
Mof_H 	H 	0.1971	0.2564	0.6479	0.458
Mof_H 	H 	0.2045	0.2424	0.619	0.492
Mof_H 	H 	0.1793	0.2636	0.621	0.48
Mof_N 	N 	0.34078	0.2812	0.54232	-0.178
Mof_C 	C 	0.3564	0.2582	0.5471	0.391
Mof_O 	O 	0.3582	0.2455	0.5679	-0.291
Mof_O 	O 	0.3682	0.2483	0.5237	-0.243
Mof_C 	C 	0.3573	0.2631	0.502	0.018
Mof_H 	H 	0.3446	0.2511	0.4914	0.067
Mof_H 	H 	0.3724	0.2687	0.4895	0.058
Mof_C 	C 	0.3409	0.2899	0.512	0.005
Mof_H 	H 	0.3216	0.2882	0.505	0.048
Mof_O 	O 	0.20194	0.30439	0.49732	-0.447
Mof_N 	N 	0.15848	0.33334	0.49546	-0.127
Mof_C 	C 	0.17698	0.30454	0.49546	1.004
Mof_H 	H 	0.2039	0.3285	0.4983	-0.552
Mof_C 	C 	0.12877	0.32396	0.49158	-0.092
Mof_H 	H 	0.1154	0.3299	0.5058	0.081
Mof_H 	H 	0.126	0.3047	0.4852	0.082
Mof_C 	C 	0.27505	0.77786	0.03864	0.417
Mof_O 	O 	0.253	0.78903	0.0295	-0.453
Mof_O 	O 	0.28588	0.75556	0.0303	-0.456
Mof_C 	C 	0.28928	0.79286	0.06257	-0.209
Mof_C 	C 	0.27381	0.80749	0.08295	0.164
Mof_C 	C 	0.28688	0.81979	0.10532	-0.203
Mof_H 	H 	0.2762	0.8292	0.1187	0.087
Mof_C 	C 	0.31624	0.81849	0.10839	0.103
Mof_C 	C 	0.33163	0.80387	0.08822	-0.212
Mof_H 	H 	0.3511	0.8028	0.0899	0.117
Mof_C 	C 	0.31871	0.79099	0.06584	0.176
Mof_C 	C 	0.31904	0.85513	0.14626	-0.077
Mof_H 	H 	0.303	0.8634	0.1387	0.051
Mof_C 	C 	0.33029	0.83126	0.13346	-0.005
Mof_N 	N 	0.24143	0.81096	0.08494	-0.115
Mof_C 	C 	0.2286	0.8335	0.0721	0.349
Mof_O 	O 	0.2395	0.8544	0.0632	-0.261
Mof_O 	O 	0.20144	0.8281	0.06875	-0.296
Mof_C 	C 	0.195	0.7983	0.0768	0.263
Mof_H 	H 	0.179	0.7975	0.0894	-0.058
Mof_H 	H 	0.191	0.7871	0.0602	-0.021
Mof_C 	C 	0.22102	0.78832	0.09104	-0.505
Mof_H 	H 	0.2274	0.7708	0.0821	0.192
Mof_C 	C 	0.2179	0.7837	0.12115	1.057
Mof_H 	H 	0.2365	0.7779	0.128	-0.302
Mof_C 	C 	0.2098	0.8087	0.1382	-1.571
Mof_H 	H 	0.2214	0.8245	0.1331	0.486
Mof_H 	H 	0.2124	0.8046	0.1578	0.453
Mof_H 	H 	0.1904	0.8132	0.1348	0.478
Mof_C 	C 	0.1978	0.7592	0.1279	-1.534
Mof_H 	H 	0.1971	0.7564	0.1479	0.458
Mof_H 	H 	0.2045	0.7424	0.119	0.492
Mof_H 	H 	0.1793	0.7636	0.121	0.48
Mof_N 	N 	0.34078	0.7812	0.04232	-0.178
Mof_C 	C 	0.3564	0.7582	0.0471	0.391
Mof_O 	O 	0.3582	0.7455	0.0679	-0.291
Mof_O 	O 	0.3682	0.7483	0.0237	-0.242
Mof_C 	C 	0.3573	0.7631	0.002	0.01
Mof_H 	H 	0.3446	0.7511	0.9914	0.07
Mof_H 	H 	0.3724	0.7687	0.9895	0.062
Mof_C 	C 	0.3409	0.7899	0.012	0.007
Mof_H 	H 	0.3216	0.7882	0.005	0.047
Mof_O 	O 	0.20194	0.80439	0.99732	-0.458
Mof_N 	N 	0.15848	0.83334	0.99546	-0.123
Mof_C 	C 	0.17698	0.80454	0.99546	0.992
Mof_H 	H 	0.2039	0.8285	0.9983	-0.556
Mof_C 	C 	0.12877	0.82396	0.99158	-0.09
Mof_H 	H 	0.1154	0.8299	0.0058	0.079
Mof_H 	H 	0.126	0.8047	0.9852	0.082
Mof_Zn	Zn	-6.50964e-33	0.7278	0.2722	1.248
Mof_Zn	Zn	-4.63494e-33	0.2278	0.7722	1.248
Mof_Zn	Zn	0.5	0.7278	0.7722	1.249
Mof_Zn	Zn	0.5	0.2278	0.2722	1.249
Mof_Zn	Zn	-2.74453e-33	0.2722	0.2722	1.248
Mof_Zn	Zn	2.89529e-33	0.7722	0.7722	1.248
Mof_Zn	Zn	0.5	0.2722	0.7722	1.249
Mof_Zn	Zn	0.5	0.7722	0.2722	1.249
Mof_Zn	Zn	2.72881e-33	0.7278	0.7278	1.248
Mof_Zn	Zn	8.54113e-34	0.2278	0.2278	1.248
Mof_Zn	Zn	0.5	0.7278	0.2278	1.249
Mof_Zn	Zn	0.5	0.2278	0.7278	1.249
Mof_Zn	Zn	-4.80142e-33	0.2722	0.7278	1.248
Mof_Zn	Zn	-2.911e-33	0.7722	0.2278	1.248
Mof_Zn	Zn	0.5	0.2722	0.2278	1.249
Mof_Zn	Zn	0.5	0.7722	0.7278	1.249
Mof_Zn	Zn	0.2722	0	0.7278	1.248
Mof_Zn	Zn	0.2722	0.5	0.2278	1.249
Mof_Zn	Zn	0.7722	1.88256e-33	0.2278	1.248
Mof_Zn	Zn	0.7722	0.5	0.7278	1.249
Mof_Zn	Zn	0.2722	0	0.2722	1.248
Mof_Zn	Zn	0.2722	0.5	0.7722	1.249
Mof_Zn	Zn	0.7722	0	0.7722	1.248
Mof_Zn	Zn	0.7722	0.5	0.2722	1.249
Mof_Zn	Zn	0.7278	0	0.7278	1.248
Mof_Zn	Zn	0.7278	0.5	0.2278	1.249
Mof_Zn	Zn	0.2278	1.88256e-33	0.2278	1.248
Mof_Zn	Zn	0.2278	0.5	0.7278	1.249
Mof_Zn	Zn	0.7278	0	0.2722	1.248
Mof_Zn	Zn	0.7278	0.5	0.7722	1.249
Mof_Zn	Zn	0.2278	0	0.7722	1.248
Mof_Zn	Zn	0.2278	0.5	0.2722	1.249
Mof_Zn	Zn	0.7278	0.2722	-0	1.248
Mof_Zn	Zn	0.7278	0.7722	0.5	1.249
Mof_Zn	Zn	0.2278	0.2722	0.5	1.249
Mof_Zn	Zn	0.2278	0.7722	-0	1.248
Mof_Zn	Zn	0.2722	0.2722	-0	1.248
Mof_Zn	Zn	0.2722	0.7722	0.5	1.249
Mof_Zn	Zn	0.7722	0.2722	0.5	1.249
Mof_Zn	Zn	0.7722	0.7722	-0	1.248
Mof_Zn	Zn	0.7278	0.7278	-0	1.248
Mof_Zn	Zn	0.7278	0.2278	0.5	1.249
Mof_Zn	Zn	0.2278	0.7278	0.5	1.249
Mof_Zn	Zn	0.2278	0.2278	-0	1.248
Mof_Zn	Zn	0.2722	0.7278	-0	1.248
Mof_Zn	Zn	0.2722	0.2278	0.5	1.249
Mof_Zn	Zn	0.7722	0.7278	0.5	1.249
Mof_Zn	Zn	0.7722	0.2278	-0	1.248
_end
