data_functionalizedCrystal
_audit_creation_method	'EQeq! by Chris Wilmer'
_symmetry_space_group_name_H-M	'P1'
_symmetry_Int_Tables_number	1
_symmetry_cell_setting	triclinic
loop_
_symmetry_equiv_pos_as_xyz
  x,y,z
_cell_length_a	11.7056
_cell_length_b	12.3216
_cell_length_c	12.7812
_cell_angle_alpha	90
_cell_angle_beta	98.154
_cell_angle_gamma	90
loop_
_atom_site_label
_atom_site_type_symbol
_atom_site_fract_x
_atom_site_fract_y
_atom_site_fract_z
_atom_site_charge
Mof_Mn	Mn	0.3596	0.8762	0.3351	0.936
Mof_Mn	Mn	0.6404	0.3762	0.1649	0.927
Mof_Mn	Mn	0.6404	0.1238	0.6649	0.902
Mof_Mn	Mn	0.3596	0.6238	0.8351	0.91
Mof_Mn	Mn	0.5	0.5	0.5	0.903
Mof_Mn	Mn	0.5	0	-0	0.843
Mof_H 	H 	0.4075	0.6636	0.2765	0.131
Mof_H 	H 	0.4204	0.7922	0.1472	0.108
Mof_H 	H 	0.5609	0.0015	0.3689	0.084
Mof_H 	H 	0.5473	0.8742	0.4977	0.128
Mof_H 	H 	0.278	0.6478	0.4597	-0.007
Mof_H 	H 	0.0829	0.6548	0.4563	0.108
Mof_H 	H 	0.0932	0.3443	0.5435	0.105
Mof_H 	H 	0.2877	0.3482	0.5441	0.011
Mof_H 	H 	0.5925	0.1636	0.2235	0.12
Mof_H 	H 	0.5796	0.2922	0.3528	0.119
Mof_H 	H 	0.4391	0.5015	0.1311	0.115
Mof_H 	H 	0.4527	0.3742	0.0023	0.106
Mof_H 	H 	0.722	0.1478	0.0403	-0.012
Mof_H 	H 	0.9171	0.1548	0.0437	0.134
Mof_H 	H 	0.9068	0.8443	0.9565	0.131
Mof_H 	H 	0.7123	0.8482	0.9559	0
Mof_H 	H 	0.5925	0.3364	0.7235	0.12
Mof_H 	H 	0.5796	0.2078	0.8528	0.128
Mof_H 	H 	0.4391	0.9985	0.6311	0.146
Mof_H 	H 	0.4527	0.1258	0.5023	0.101
Mof_H 	H 	0.722	0.3522	0.5403	-0.002
Mof_H 	H 	0.9171	0.3452	0.5437	0.094
Mof_H 	H 	0.9068	0.6557	0.4565	0.092
Mof_H 	H 	0.7123	0.6518	0.4559	0.015
Mof_H 	H 	0.4075	0.8364	0.7765	0.127
Mof_H 	H 	0.4204	0.7078	0.6472	0.118
Mof_H 	H 	0.5609	0.4985	0.8689	0.121
Mof_H 	H 	0.5473	0.6258	0.9977	0.12
Mof_H 	H 	0.278	0.8522	0.9597	0.007
Mof_H 	H 	0.0829	0.8452	0.9563	0.067
Mof_H 	H 	0.0932	0.1557	0.0435	0.065
Mof_H 	H 	0.2877	0.1518	0.0441	0.029
Mof_C 	C 	0.4933	0.7439	0.4024	0.218
Mof_C 	C 	0.446	0.7282	0.2955	-0.241
Mof_C 	C 	0.4546	0.8068	0.216	-0.197
Mof_C 	C 	0.5135	0.9071	0.2374	0.18
Mof_C 	C 	0.5382	0.9314	0.3485	-0.154
Mof_C 	C 	0.5293	0.854	0.4271	-0.243
Mof_C 	C 	0.3005	0.8711	0.4568	-0.165
Mof_C 	C 	0.228	0.8248	0.2625	-0.156
Mof_C 	C 	0.3159	0.0147	0.3091	-0.184
Mof_C 	C 	0.2402	0.5853	0.4771	0.12
Mof_C 	C 	0.1224	0.5907	0.4749	-0.16
Mof_C 	C 	0.0639	0.4997	0.5006	0.101
Mof_C 	C 	0.1285	0.4081	0.5262	-0.157
Mof_C 	C 	0.2459	0.4113	0.5261	0.117
Mof_C 	C 	0.5067	0.2439	0.0976	0.197
Mof_C 	C 	0.554	0.2282	0.2045	-0.219
Mof_C 	C 	0.5454	0.3068	0.284	-0.219
Mof_C 	C 	0.4865	0.4071	0.2626	0.208
Mof_C 	C 	0.4618	0.4314	0.1515	-0.216
Mof_C 	C 	0.4707	0.354	0.0729	-0.208
Mof_C 	C 	0.6995	0.3711	0.0432	-0.201
Mof_C 	C 	0.772	0.3248	0.2375	-0.16
Mof_C 	C 	0.6841	0.5147	0.1909	-0.167
Mof_C 	C 	0.7598	0.0853	0.0229	0.119
Mof_C 	C 	0.8776	0.0907	0.0251	-0.264
Mof_C 	C 	0.9361	0.9997	0.9994	0.23
Mof_C 	C 	0.8715	0.9081	0.9738	-0.226
Mof_C 	C 	0.7541	0.9113	0.9739	0.162
Mof_C 	C 	0.5067	0.2561	0.5976	0.189
Mof_C 	C 	0.554	0.2718	0.7045	-0.207
Mof_C 	C 	0.5454	0.1932	0.784	-0.227
Mof_C 	C 	0.4865	0.0929	0.7626	0.225
Mof_C 	C 	0.4618	0.0686	0.6515	-0.261
Mof_C 	C 	0.4707	0.146	0.5729	-0.181
Mof_C 	C 	0.6995	0.1289	0.5432	-0.168
Mof_C 	C 	0.772	0.1752	0.7375	-0.157
Mof_C 	C 	0.6841	0.9853	0.6909	-0.14
Mof_C 	C 	0.7598	0.4147	0.5229	0.106
Mof_C 	C 	0.8776	0.4093	0.5251	-0.135
Mof_C 	C 	0.9361	0.5003	0.4994	0.061
Mof_C 	C 	0.8715	0.5919	0.4738	-0.133
Mof_C 	C 	0.7541	0.5887	0.4739	0.104
Mof_C 	C 	0.4933	0.7561	0.9024	0.198
Mof_C 	C 	0.446	0.7718	0.7955	-0.218
Mof_C 	C 	0.4546	0.6932	0.716	-0.216
Mof_C 	C 	0.5135	0.5929	0.7374	0.208
Mof_C 	C 	0.5382	0.5686	0.8485	-0.212
Mof_C 	C 	0.5293	0.646	0.9271	-0.205
Mof_C 	C 	0.3005	0.6289	0.9568	-0.134
Mof_C 	C 	0.228	0.6752	0.7625	-0.154
Mof_C 	C 	0.3159	0.4853	0.8091	-0.157
Mof_C 	C 	0.2402	0.9147	0.9771	0.104
Mof_C 	C 	0.1224	0.9093	0.9749	-0.032
Mof_C 	C 	0.0639	0.0003	0.0006	-0.068
Mof_C 	C 	0.1285	0.0919	0.0262	-0.062
Mof_C 	C 	0.2459	0.0887	0.0261	0.057
Mof_N 	N 	0.3035	0.4981	0.5021	-0.197
Mof_N 	N 	0.6965	0.9981	0.9979	-0.18
Mof_N 	N 	0.6965	0.5019	0.4979	-0.192
Mof_N 	N 	0.3035	0.0019	0.0021	-0.198
Mof_O 	O 	0.4955	0.6731	0.4755	-0.332
Mof_O 	O 	0.5356	0.9756	0.1684	-0.301
Mof_O 	O 	0.2671	0.8658	0.5366	-0.093
Mof_O 	O 	0.1469	0.7892	0.2156	-0.089
Mof_O 	O 	0.2899	0.103	0.2933	-0.088
Mof_O 	O 	0.5045	0.1731	0.0245	-0.33
Mof_O 	O 	0.4644	0.4756	0.3316	-0.326
Mof_O 	O 	0.7329	0.3658	0.9634	-0.068
Mof_O 	O 	0.8531	0.2892	0.2844	-0.094
Mof_O 	O 	0.7101	0.603	0.2067	-0.096
Mof_O 	O 	0.5045	0.3269	0.5245	-0.324
Mof_O 	O 	0.4644	0.0244	0.8316	-0.324
Mof_O 	O 	0.7329	0.1342	0.4634	-0.103
Mof_O 	O 	0.8531	0.2108	0.7844	-0.09
Mof_O 	O 	0.7101	0.897	0.7067	-0.096
Mof_O 	O 	0.4955	0.8269	0.9755	-0.306
Mof_O 	O 	0.5356	0.5244	0.6684	-0.324
Mof_O 	O 	0.2671	0.6342	0.0366	-0.125
Mof_O 	O 	0.1469	0.7108	0.7156	-0.086
Mof_O 	O 	0.2899	0.397	0.7933	-0.088
_end
