data_functionalizedCrystal
_audit_creation_method	'EQeq! by Chris Wilmer'
_symmetry_space_group_name_H-M	'P1'
_symmetry_Int_Tables_number	1
_symmetry_cell_setting	triclinic
loop_
_symmetry_equiv_pos_as_xyz
  x,y,z
_cell_length_a	15.0144
_cell_length_b	15.0144
_cell_length_c	15.6165
_cell_angle_alpha	90
_cell_angle_beta	90
_cell_angle_gamma	120
loop_
_atom_site_label
_atom_site_type_symbol
_atom_site_fract_x
_atom_site_fract_y
_atom_site_fract_z
_atom_site_charge
Mof_Yb	Yb	0.66667	0.33334	0.25	1.695
Mof_Yb	Yb	0.33333	0.66666	0.25	1.695
Mof_Yb	Yb	0.33333	0.66666	0.75	1.71
Mof_Yb	Yb	0.66667	0.33334	0.75	1.71
Mof_Co	Co	0.5	0	0.5	1.132
Mof_Co	Co	0.5	0.5	0.5	1.169
Mof_Co	Co	1.089e-17	0.5	0.5	1.132
Mof_Co	Co	0.5	0	-0	1.065
Mof_Co	Co	3.72889e-17	0.5	-0	1.065
Mof_Co	Co	0.5	0.5	-0	1.101
Mof_H 	H 	0.7678	0.055	0.3468	0.036
Mof_H 	H 	0.2872	0.2322	0.3468	0.042
Mof_H 	H 	0.945	0.7128	0.3468	0.076
Mof_H 	H 	0.2322	0.945	0.3468	0.067
Mof_H 	H 	0.7128	0.7678	0.3468	0.06
Mof_H 	H 	0.055	0.2872	0.3468	0.027
Mof_H 	H 	0.7128	0.945	0.1532	0.057
Mof_H 	H 	0.055	0.7678	0.1532	0.017
Mof_H 	H 	0.2322	0.2872	0.1532	0.023
Mof_H 	H 	0.2872	0.055	0.1532	0.008
Mof_H 	H 	0.945	0.2322	0.1532	0.049
Mof_H 	H 	0.7678	0.7128	0.1532	0.041
Mof_H 	H 	0.2322	0.945	0.6532	0.07
Mof_H 	H 	0.7128	0.7678	0.6532	0.064
Mof_H 	H 	0.055	0.2872	0.6532	0.031
Mof_H 	H 	0.7678	0.055	0.6532	0.04
Mof_H 	H 	0.2872	0.2322	0.6532	0.046
Mof_H 	H 	0.945	0.7128	0.6532	0.079
Mof_H 	H 	0.2872	0.055	0.8468	0.053
Mof_H 	H 	0.945	0.2322	0.8468	0.091
Mof_H 	H 	0.7678	0.7128	0.8468	0.084
Mof_H 	H 	0.7128	0.945	0.8468	0.099
Mof_H 	H 	0.055	0.7678	0.8468	0.061
Mof_H 	H 	0.2322	0.2872	0.8468	0.067
Mof_H 	H 	0.9016	0.0984	0.25	0.034
Mof_H 	H 	0.1968	0.0984	0.25	0.007
Mof_H 	H 	0.9016	0.8032	0.25	0.061
Mof_H 	H 	0.0984	0.9016	0.25	0.034
Mof_H 	H 	0.8032	0.9016	0.25	0.061
Mof_H 	H 	0.0984	0.1968	0.25	0.007
Mof_H 	H 	0.0984	0.9016	0.75	0.039
Mof_H 	H 	0.8032	0.9016	0.75	0.066
Mof_H 	H 	0.0984	0.1968	0.75	0.013
Mof_H 	H 	0.9016	0.0984	0.75	0.039
Mof_H 	H 	0.1968	0.0984	0.75	0.013
Mof_H 	H 	0.9016	0.8032	0.75	0.065
Mof_C 	C 	0.7858	0.1076	0.3073	-0.031
Mof_C 	C 	0.734	0.1616	0.3039	-0.033
Mof_C 	C 	0.6444	0.1385	0.3613	0.364
Mof_C 	C 	0.3218	0.2142	0.3073	-0.035
Mof_C 	C 	0.4276	0.266	0.3039	-0.033
Mof_C 	C 	0.4941	0.3556	0.3613	0.362
Mof_C 	C 	0.8924	0.6782	0.3073	-0.025
Mof_C 	C 	0.8384	0.5724	0.3039	-0.013
Mof_C 	C 	0.8615	0.5059	0.3613	0.359
Mof_C 	C 	0.2142	0.8924	0.3073	-0.03
Mof_C 	C 	0.266	0.8384	0.3039	-0.018
Mof_C 	C 	0.3556	0.8615	0.3613	0.358
Mof_C 	C 	0.6782	0.7858	0.3073	-0.024
Mof_C 	C 	0.5724	0.734	0.3039	-0.021
Mof_C 	C 	0.5059	0.6444	0.3613	0.364
Mof_C 	C 	0.1076	0.3218	0.3073	-0.036
Mof_C 	C 	0.1616	0.4276	0.3039	-0.04
Mof_C 	C 	0.1385	0.4941	0.3613	0.363
Mof_C 	C 	0.6782	0.8924	0.1927	-0.024
Mof_C 	C 	0.5724	0.8384	0.1961	-0.024
Mof_C 	C 	0.5059	0.8615	0.1387	0.359
Mof_C 	C 	0.1076	0.7858	0.1927	-0.03
Mof_C 	C 	0.1616	0.734	0.1961	-0.045
Mof_C 	C 	0.1385	0.6444	0.1387	0.364
Mof_C 	C 	0.2142	0.3218	0.1927	-0.034
Mof_C 	C 	0.266	0.4276	0.1961	-0.044
Mof_C 	C 	0.3556	0.4941	0.1387	0.362
Mof_C 	C 	0.3218	0.1076	0.1927	-0.035
Mof_C 	C 	0.4276	0.1616	0.1961	-0.051
Mof_C 	C 	0.4941	0.1385	0.1387	0.363
Mof_C 	C 	0.8924	0.2142	0.1927	-0.03
Mof_C 	C 	0.8384	0.266	0.1961	-0.029
Mof_C 	C 	0.8615	0.3556	0.1387	0.358
Mof_C 	C 	0.7858	0.6782	0.1927	-0.024
Mof_C 	C 	0.734	0.5724	0.1961	-0.032
Mof_C 	C 	0.6444	0.5059	0.1387	0.364
Mof_C 	C 	0.2142	0.8924	0.6927	-0.039
Mof_C 	C 	0.266	0.8384	0.6961	-0.011
Mof_C 	C 	0.3556	0.8615	0.6387	0.356
Mof_C 	C 	0.6782	0.7858	0.6927	-0.033
Mof_C 	C 	0.5724	0.734	0.6961	-0.014
Mof_C 	C 	0.5059	0.6444	0.6387	0.362
Mof_C 	C 	0.1076	0.3218	0.6927	-0.045
Mof_C 	C 	0.1616	0.4276	0.6961	-0.032
Mof_C 	C 	0.1385	0.4941	0.6387	0.362
Mof_C 	C 	0.7858	0.1076	0.6927	-0.039
Mof_C 	C 	0.734	0.1616	0.6961	-0.026
Mof_C 	C 	0.6444	0.1385	0.6387	0.363
Mof_C 	C 	0.3218	0.2142	0.6927	-0.044
Mof_C 	C 	0.4276	0.266	0.6961	-0.025
Mof_C 	C 	0.4941	0.3556	0.6387	0.361
Mof_C 	C 	0.8924	0.6782	0.6927	-0.034
Mof_C 	C 	0.8384	0.5724	0.6961	-0.006
Mof_C 	C 	0.8615	0.5059	0.6387	0.357
Mof_C 	C 	0.3218	0.1076	0.8073	-0.047
Mof_C 	C 	0.4276	0.1616	0.8039	-0.017
Mof_C 	C 	0.4941	0.1385	0.8613	0.355
Mof_C 	C 	0.8924	0.2142	0.8073	-0.041
Mof_C 	C 	0.8384	0.266	0.8039	0.003
Mof_C 	C 	0.8615	0.3556	0.8613	0.35
Mof_C 	C 	0.7858	0.6782	0.8073	-0.035
Mof_C 	C 	0.734	0.5724	0.8039	0.001
Mof_C 	C 	0.6444	0.5059	0.8613	0.356
Mof_C 	C 	0.6782	0.8924	0.8073	-0.035
Mof_C 	C 	0.5724	0.8384	0.8039	0.008
Mof_C 	C 	0.5059	0.8615	0.8613	0.351
Mof_C 	C 	0.1076	0.7858	0.8073	-0.042
Mof_C 	C 	0.1616	0.734	0.8039	-0.012
Mof_C 	C 	0.1385	0.6444	0.8613	0.356
Mof_C 	C 	0.2142	0.3218	0.8073	-0.046
Mof_C 	C 	0.266	0.4276	0.8039	-0.01
Mof_C 	C 	0.3556	0.4941	0.8613	0.354
Mof_C 	C 	0.8658	0.1342	0.25	-0.044
Mof_C 	C 	0.2684	0.1342	0.25	-0.055
Mof_C 	C 	0.8658	0.7316	0.25	-0.033
Mof_C 	C 	0.1342	0.8658	0.25	-0.044
Mof_C 	C 	0.7316	0.8658	0.25	-0.033
Mof_C 	C 	0.1342	0.2684	0.25	-0.055
Mof_C 	C 	0.1342	0.8658	0.75	-0.022
Mof_C 	C 	0.7316	0.8658	0.75	-0.012
Mof_C 	C 	0.1342	0.2684	0.75	-0.033
Mof_C 	C 	0.8658	0.1342	0.75	-0.022
Mof_C 	C 	0.2684	0.1342	0.75	-0.033
Mof_C 	C 	0.8658	0.7316	0.75	-0.012
Mof_N 	N 	0.76	0.24	0.25	-0.177
Mof_N 	N 	0.48	0.24	0.25	-0.177
Mof_N 	N 	0.76	0.52	0.25	-0.177
Mof_N 	N 	0.24	0.76	0.25	-0.177
Mof_N 	N 	0.52	0.76	0.25	-0.177
Mof_N 	N 	0.24	0.48	0.25	-0.177
Mof_N 	N 	0.24	0.76	0.75	-0.182
Mof_N 	N 	0.52	0.76	0.75	-0.181
Mof_N 	N 	0.24	0.48	0.75	-0.182
Mof_N 	N 	0.76	0.24	0.75	-0.182
Mof_N 	N 	0.48	0.24	0.75	-0.182
Mof_N 	N 	0.76	0.52	0.75	-0.182
Mof_O 	O 	0.6092	0.1996	0.3554	-0.426
Mof_O 	O 	0.613	0.0625	0.4084	-0.451
Mof_O 	O 	0.5904	0.3908	0.3554	-0.418
Mof_O 	O 	0.4495	0.387	0.4084	-0.43
Mof_O 	O 	0.8004	0.4096	0.3554	-0.404
Mof_O 	O 	0.9375	0.5505	0.4084	-0.384
Mof_O 	O 	0.3908	0.8004	0.3554	-0.405
Mof_O 	O 	0.387	0.9375	0.4084	-0.387
Mof_O 	O 	0.4096	0.6092	0.3554	-0.417
Mof_O 	O 	0.5505	0.613	0.4084	-0.423
Mof_O 	O 	0.1996	0.5904	0.3554	-0.427
Mof_O 	O 	0.0625	0.4495	0.4084	-0.454
Mof_O 	O 	0.4096	0.8004	0.1446	-0.427
Mof_O 	O 	0.5505	0.9375	0.0916	-0.421
Mof_O 	O 	0.1996	0.6092	0.1446	-0.449
Mof_O 	O 	0.0625	0.613	0.0916	-0.488
Mof_O 	O 	0.3908	0.5904	0.1446	-0.441
Mof_O 	O 	0.387	0.4495	0.0916	-0.468
Mof_O 	O 	0.5904	0.1996	0.1446	-0.45
Mof_O 	O 	0.4495	0.0625	0.0916	-0.492
Mof_O 	O 	0.8004	0.3908	0.1446	-0.428
Mof_O 	O 	0.9375	0.387	0.0916	-0.425
Mof_O 	O 	0.6092	0.4096	0.1446	-0.439
Mof_O 	O 	0.613	0.5505	0.0916	-0.461
Mof_O 	O 	0.3908	0.8004	0.6446	-0.407
Mof_O 	O 	0.387	0.9375	0.5916	-0.387
Mof_O 	O 	0.4096	0.6092	0.6446	-0.418
Mof_O 	O 	0.5505	0.613	0.5916	-0.423
Mof_O 	O 	0.1996	0.5904	0.6446	-0.429
Mof_O 	O 	0.0625	0.4495	0.5916	-0.453
Mof_O 	O 	0.6092	0.1996	0.6446	-0.428
Mof_O 	O 	0.613	0.0625	0.5916	-0.45
Mof_O 	O 	0.5904	0.3908	0.6446	-0.42
Mof_O 	O 	0.4495	0.387	0.5916	-0.429
Mof_O 	O 	0.8004	0.4096	0.6446	-0.406
Mof_O 	O 	0.9375	0.5505	0.5916	-0.384
Mof_O 	O 	0.5904	0.1996	0.8554	-0.398
Mof_O 	O 	0.4495	0.0625	0.9084	-0.387
Mof_O 	O 	0.8004	0.3908	0.8554	-0.377
Mof_O 	O 	0.9375	0.387	0.9084	-0.324
Mof_O 	O 	0.6092	0.4096	0.8554	-0.388
Mof_O 	O 	0.613	0.5505	0.9084	-0.357
Mof_O 	O 	0.4096	0.8004	0.8554	-0.376
Mof_O 	O 	0.5505	0.9375	0.9084	-0.321
Mof_O 	O 	0.1996	0.6092	0.8554	-0.397
Mof_O 	O 	0.0625	0.613	0.9084	-0.384
Mof_O 	O 	0.3908	0.5904	0.8554	-0.39
Mof_O 	O 	0.387	0.4495	0.9084	-0.363
_end
