# CIF file generated by openbabel 3.1.0, see https://openbabel.org
data_I
_chemical_name_common 'LECGEH_clean'
_cell_length_a 8.0231
_cell_length_b 9.5304
_cell_length_c 15.4714
_cell_angle_alpha 96.709
_cell_angle_beta 103.637
_cell_angle_gamma 99.063
_space_group_name_H-M_alt 'P 1'
_space_group_name_Hall 'P 1'
loop_
    _symmetry_equiv_pos_as_xyz
    x,y,z
loop_
    _atom_site_label
    _atom_site_type_symbol
    _atom_site_fract_x
    _atom_site_fract_y
    _atom_site_fract_z
    _atom_site_occupancy
    Co1      Co       0.00000    0.50000    0.00000    1.000
    Co2      Co       0.00000    0.00000    0.50000    1.000
    H1       H        0.44500    0.74390    0.83390    1.000
    H2       H        0.11310    0.46650    0.62120    1.000
    H3       H        0.52430    0.33640    0.77790    1.000
    H4       H        0.15650    0.71900    0.55940    1.000
    H5       H        0.23820    0.05700    0.88890    1.000
    H6       H        0.26430    0.04050    0.04400    1.000
    H7       H        0.17190    0.82440    0.08480    1.000
    H8       H        0.03370    0.62920    0.83270    1.000
    H9       H        0.55500    0.25610    0.16610    1.000
    H10      H        0.88690    0.53350    0.37880    1.000
    H11      H        0.47570    0.66360    0.22210    1.000
    H12      H        0.84350    0.28100    0.44060    1.000
    H13      H        0.76180    0.94300    0.11110    1.000
    H14      H        0.73570    0.95950    0.95600    1.000
    H15      H        0.82810    0.17560    0.91520    1.000
    H16      H        0.96630    0.37080    0.16730    1.000
    C1       C        0.65950    0.57220    0.90310    1.000
    C2       C        0.50480    0.54300    0.81980    1.000
    C3       C        0.41150    0.65100    0.79810    1.000
    C4       C        0.26770    0.62080    0.72290    1.000
    C5       C        0.21450    0.48590    0.67040    1.000
    C6       C        0.31110    0.37850    0.69040    1.000
    C7       C        0.45690    0.40840    0.76470    1.000
    C8       C        0.26070    0.23370    0.63150    1.000
    C9       C        0.13810    0.77150    0.61130    1.000
    C10      C        0.12820    0.83930    0.74910    1.000
    C11      C        0.13830    0.84090    0.84540    1.000
    C12      C        0.20390    0.96780    0.90750    1.000
    C13      C        0.21700    0.95770    0.99910    1.000
    C14      C        0.16140    0.82850    0.02270    1.000
    C15      C        0.08180    0.71410    0.87590    1.000
    C16      C        0.34050    0.42780    0.09690    1.000
    C17      C        0.49520    0.45700    0.18020    1.000
    C18      C        0.58850    0.34900    0.20190    1.000
    C19      C        0.73230    0.37920    0.27710    1.000
    C20      C        0.78550    0.51410    0.32960    1.000
    C21      C        0.68890    0.62150    0.30960    1.000
    C22      C        0.54310    0.59160    0.23530    1.000
    C23      C        0.73930    0.76630    0.36850    1.000
    C24      C        0.86190    0.22850    0.38870    1.000
    C25      C        0.87180    0.16070    0.25090    1.000
    C26      C        0.86170    0.15910    0.15460    1.000
    C27      C        0.79610    0.03220    0.09250    1.000
    C28      C        0.78300    0.04230    0.00090    1.000
    C29      C        0.83860    0.17150    0.97730    1.000
    C30      C        0.91820    0.28590    0.12410    1.000
    N1       N        0.17730    0.73540    0.69608    1.000
    N2       N        0.07210    0.88770    0.61204    1.000
    N3       N        0.06410    0.93250    0.69959    1.000
    N4       N        0.09190    0.70560    0.96290    1.000
    N5       N        0.82270    0.26460    0.30392    1.000
    N6       N        0.92790    0.11230    0.38796    1.000
    N7       N        0.93590    0.06750    0.30041    1.000
    N8       N        0.90810    0.29440    0.03710    1.000
    O1       O        0.67360    0.67960    0.96138    1.000
    O2       O        0.76150    0.48160    0.90682    1.000
    O3       O        0.37780    0.15790    0.63272    1.000
    O4       O        0.10470    0.19760    0.58259    1.000
    O5       O        0.32640    0.32040    0.03862    1.000
    O6       O        0.23850    0.51840    0.09318    1.000
    O7       O        0.62220    0.84210    0.36728    1.000
    O8       O        0.89530    0.80240    0.41741    1.000
