data_functionalizedCrystal
_audit_creation_method	'EQeq! by Chris Wilmer'
_symmetry_space_group_name_H-M	'P1'
_symmetry_Int_Tables_number	1
_symmetry_cell_setting	triclinic
loop_
_symmetry_equiv_pos_as_xyz
  x,y,z
_cell_length_a	19.111
_cell_length_b	19.111
_cell_length_c	19.915
_cell_angle_alpha	90
_cell_angle_beta	90
_cell_angle_gamma	90
loop_
_atom_site_label
_atom_site_type_symbol
_atom_site_fract_x
_atom_site_fract_y
_atom_site_fract_z
_atom_site_charge
Mof_N 	N 	0.458	0.8639	0.94051	-0.029
Mof_N 	N 	0.492	0.9253	0.92965	-0.157
Mof_C 	C 	0.5256	0.9176	0.8719	0.042
Mof_H 	H 	0.5549	0.952	0.852	0.022
Mof_C 	C 	0.5118	0.8518	0.8444	-0.046
Mof_C 	C 	0.4691	0.8191	0.8898	0.033
Mof_H 	H 	0.4507	0.7731	0.886	0.044
Mof_C 	C 	0.5373	0.8247	0.7791	0.092
Mof_C 	C 	0.4998	0.774	0.744	-0.133
Mof_H 	H 	0.4569	0.757	0.7616	0.078
Mof_C 	C 	0.5247	0.7483	0.6837	0.058
Mof_H 	H 	0.4985	0.714	0.66	0.024
Mof_C 	C 	0.5874	0.7722	0.6576	-0.123
Mof_C 	C 	0.6245	0.8232	0.6916	0.059
Mof_H 	H 	0.6671	0.8405	0.6736	0.026
Mof_C 	C 	0.5993	0.849	0.7521	-0.13
Mof_H 	H 	0.6251	0.884	0.7753	0.082
Mof_C 	C 	0.6175	0.7425	0.5942	0.355
Mof_O 	O 	0.58776	0.68798	0.57055	-0.399
Mof_O 	O 	0.67092	0.77154	0.5704	-0.413
Mof_C 	C 	0.5522	0.4973	0.4572	-0.001
Mof_H 	H 	0.5894	0.4941	0.4257	0.035
Mof_N 	N 	0.542	0.1361	0.94051	-0.031
Mof_N 	N 	0.508	0.0747	0.92965	-0.164
Mof_C 	C 	0.4744	0.0824	0.8719	0.039
Mof_H 	H 	0.4451	0.048	0.852	0.013
Mof_C 	C 	0.4882	0.1482	0.8444	-0.048
Mof_C 	C 	0.5309	0.1809	0.8898	0.031
Mof_H 	H 	0.5493	0.2269	0.886	0.043
Mof_C 	C 	0.4627	0.1753	0.7791	0.09
Mof_C 	C 	0.5002	0.226	0.744	-0.134
Mof_H 	H 	0.5431	0.243	0.7616	0.077
Mof_C 	C 	0.4753	0.2517	0.6837	0.057
Mof_H 	H 	0.5015	0.286	0.66	0.024
Mof_C 	C 	0.4126	0.2278	0.6576	-0.123
Mof_C 	C 	0.3755	0.1768	0.6916	0.057
Mof_H 	H 	0.3329	0.1595	0.6736	0.024
Mof_C 	C 	0.4007	0.151	0.7521	-0.132
Mof_H 	H 	0.3749	0.116	0.7753	0.079
Mof_C 	C 	0.3825	0.2575	0.5942	0.355
Mof_O 	O 	0.41224	0.31202	0.57055	-0.399
Mof_O 	O 	0.32908	0.22846	0.5704	-0.414
Mof_C 	C 	0.4478	0.5027	0.4572	-0.001
Mof_H 	H 	0.4106	0.5059	0.4257	0.035
Mof_N 	N 	0.8639	0.458	0.05949	-0.083
Mof_N 	N 	0.9253	0.492	0.07035	-0.199
Mof_C 	C 	0.9176	0.5256	0.1281	0.031
Mof_H 	H 	0.952	0.5549	0.148	0.012
Mof_C 	C 	0.8518	0.5118	0.1556	-0.056
Mof_C 	C 	0.8191	0.4691	0.1102	0.019
Mof_H 	H 	0.7731	0.4507	0.114	0.016
Mof_C 	C 	0.8247	0.5373	0.2209	0.083
Mof_C 	C 	0.774	0.4998	0.256	-0.135
Mof_H 	H 	0.757	0.4569	0.2384	0.071
Mof_C 	C 	0.7483	0.5247	0.3163	0.053
Mof_H 	H 	0.714	0.4985	0.34	0.022
Mof_C 	C 	0.7722	0.5874	0.3424	-0.123
Mof_C 	C 	0.8232	0.6245	0.3084	0.054
Mof_H 	H 	0.8405	0.6671	0.3264	0.025
Mof_C 	C 	0.849	0.5993	0.2479	-0.131
Mof_H 	H 	0.884	0.6251	0.2247	0.074
Mof_C 	C 	0.7425	0.6175	0.4058	0.353
Mof_O 	O 	0.68798	0.58776	0.42945	-0.4
Mof_O 	O 	0.77154	0.67092	0.4296	-0.414
Mof_C 	C 	0.4973	0.5522	0.5428	-0
Mof_H 	H 	0.4941	0.5894	0.5743	0.037
Mof_N 	N 	0.1361	0.542	0.05949	-0.084
Mof_N 	N 	0.0747	0.508	0.07035	-0.206
Mof_C 	C 	0.0824	0.4744	0.1281	0.028
Mof_H 	H 	0.048	0.4451	0.148	0.003
Mof_C 	C 	0.1482	0.4882	0.1556	-0.058
Mof_C 	C 	0.1809	0.5309	0.1102	0.018
Mof_H 	H 	0.2269	0.5493	0.114	0.016
Mof_C 	C 	0.1753	0.4627	0.2209	0.081
Mof_C 	C 	0.226	0.5002	0.256	-0.135
Mof_H 	H 	0.243	0.5431	0.2384	0.07
Mof_C 	C 	0.2517	0.4753	0.3163	0.052
Mof_H 	H 	0.286	0.5015	0.34	0.023
Mof_C 	C 	0.2278	0.4126	0.3424	-0.124
Mof_C 	C 	0.1768	0.3755	0.3084	0.052
Mof_H 	H 	0.1595	0.3329	0.3264	0.023
Mof_C 	C 	0.151	0.4007	0.2479	-0.133
Mof_H 	H 	0.116	0.3749	0.2247	0.07
Mof_C 	C 	0.2575	0.3825	0.4058	0.353
Mof_O 	O 	0.31202	0.41224	0.42945	-0.401
Mof_O 	O 	0.22846	0.32908	0.4296	-0.415
Mof_C 	C 	0.5027	0.4478	0.5428	-0
Mof_H 	H 	0.5059	0.4106	0.5743	0.037
Mof_N 	N 	0.542	0.1361	0.05949	-0.084
Mof_N 	N 	0.508	0.0747	0.07035	-0.206
Mof_C 	C 	0.4744	0.0824	0.1281	0.028
Mof_H 	H 	0.4451	0.048	0.148	0.003
Mof_C 	C 	0.4882	0.1482	0.1556	-0.058
Mof_C 	C 	0.5309	0.1809	0.1102	0.018
Mof_H 	H 	0.5493	0.2269	0.114	0.016
Mof_C 	C 	0.4627	0.1753	0.2209	0.081
Mof_C 	C 	0.5002	0.226	0.256	-0.135
Mof_H 	H 	0.5431	0.243	0.2384	0.07
Mof_C 	C 	0.4753	0.2517	0.3163	0.052
Mof_H 	H 	0.5015	0.286	0.34	0.023
Mof_C 	C 	0.4126	0.2278	0.3424	-0.124
Mof_C 	C 	0.3755	0.1768	0.3084	0.052
Mof_H 	H 	0.3329	0.1595	0.3264	0.023
Mof_C 	C 	0.4007	0.151	0.2479	-0.133
Mof_H 	H 	0.3749	0.116	0.2247	0.07
Mof_C 	C 	0.3825	0.2575	0.4058	0.353
Mof_O 	O 	0.41224	0.31202	0.42945	-0.401
Mof_O 	O 	0.32908	0.22846	0.4296	-0.415
Mof_C 	C 	0.4478	0.5027	0.5428	-0
Mof_H 	H 	0.4106	0.5059	0.5743	0.037
Mof_N 	N 	0.458	0.8639	0.05949	-0.083
Mof_N 	N 	0.492	0.9253	0.07035	-0.199
Mof_C 	C 	0.5256	0.9176	0.1281	0.031
Mof_H 	H 	0.5549	0.952	0.148	0.012
Mof_C 	C 	0.5118	0.8518	0.1556	-0.056
Mof_C 	C 	0.4691	0.8191	0.1102	0.019
Mof_H 	H 	0.4507	0.7731	0.114	0.016
Mof_C 	C 	0.5373	0.8247	0.2209	0.083
Mof_C 	C 	0.4998	0.774	0.256	-0.135
Mof_H 	H 	0.4569	0.757	0.2384	0.071
Mof_C 	C 	0.5247	0.7483	0.3163	0.053
Mof_H 	H 	0.4985	0.714	0.34	0.022
Mof_C 	C 	0.5874	0.7722	0.3424	-0.123
Mof_C 	C 	0.6245	0.8232	0.3084	0.054
Mof_H 	H 	0.6671	0.8405	0.3264	0.025
Mof_C 	C 	0.5993	0.849	0.2479	-0.131
Mof_H 	H 	0.6251	0.884	0.2247	0.074
Mof_C 	C 	0.6175	0.7425	0.4058	0.353
Mof_O 	O 	0.58776	0.68798	0.42945	-0.4
Mof_O 	O 	0.67092	0.77154	0.4296	-0.414
Mof_C 	C 	0.5522	0.4973	0.5428	-0
Mof_H 	H 	0.5894	0.4941	0.5743	0.037
Mof_N 	N 	0.1361	0.542	0.94051	-0.031
Mof_N 	N 	0.0747	0.508	0.92965	-0.164
Mof_C 	C 	0.0824	0.4744	0.8719	0.039
Mof_H 	H 	0.048	0.4451	0.852	0.013
Mof_C 	C 	0.1482	0.4882	0.8444	-0.048
Mof_C 	C 	0.1809	0.5309	0.8898	0.031
Mof_H 	H 	0.2269	0.5493	0.886	0.043
Mof_C 	C 	0.1753	0.4627	0.7791	0.09
Mof_C 	C 	0.226	0.5002	0.744	-0.134
Mof_H 	H 	0.243	0.5431	0.7616	0.077
Mof_C 	C 	0.2517	0.4753	0.6837	0.057
Mof_H 	H 	0.286	0.5015	0.66	0.024
Mof_C 	C 	0.2278	0.4126	0.6576	-0.123
Mof_C 	C 	0.1768	0.3755	0.6916	0.057
Mof_H 	H 	0.1595	0.3329	0.6736	0.024
Mof_C 	C 	0.151	0.4007	0.7521	-0.132
Mof_H 	H 	0.116	0.3749	0.7753	0.079
Mof_C 	C 	0.2575	0.3825	0.5942	0.355
Mof_O 	O 	0.31202	0.41224	0.57055	-0.399
Mof_O 	O 	0.22846	0.32908	0.5704	-0.414
Mof_C 	C 	0.5027	0.4478	0.4572	-0.001
Mof_H 	H 	0.5059	0.4106	0.4257	0.035
Mof_N 	N 	0.8639	0.458	0.94051	-0.03
Mof_N 	N 	0.9253	0.492	0.92965	-0.158
Mof_C 	C 	0.9176	0.5256	0.8719	0.041
Mof_H 	H 	0.952	0.5549	0.852	0.021
Mof_C 	C 	0.8518	0.5118	0.8444	-0.047
Mof_C 	C 	0.8191	0.4691	0.8898	0.032
Mof_H 	H 	0.7731	0.4507	0.886	0.043
Mof_C 	C 	0.8247	0.5373	0.7791	0.091
Mof_C 	C 	0.774	0.4998	0.744	-0.134
Mof_H 	H 	0.757	0.4569	0.7616	0.078
Mof_C 	C 	0.7483	0.5247	0.6837	0.058
Mof_H 	H 	0.714	0.4985	0.66	0.024
Mof_C 	C 	0.7722	0.5874	0.6576	-0.123
Mof_C 	C 	0.8232	0.6245	0.6916	0.059
Mof_H 	H 	0.8405	0.6671	0.6736	0.026
Mof_C 	C 	0.849	0.5993	0.7521	-0.13
Mof_H 	H 	0.884	0.6251	0.7753	0.082
Mof_C 	C 	0.7425	0.6175	0.5942	0.355
Mof_O 	O 	0.68798	0.58776	0.57055	-0.399
Mof_O 	O 	0.77154	0.67092	0.5704	-0.413
Mof_C 	C 	0.4973	0.5522	0.4572	-0.001
Mof_H 	H 	0.4941	0.5894	0.4257	0.035
Mof_Cu	Cu	0.63126	0.63126	0.5	0.914
Mof_Cu	Cu	0.72847	0.72847	0.5	0.899
Mof_N 	N 	0.5511	0.5511	0.5	-0.169
Mof_Cu	Cu	0.36874	0.36874	0.5	0.914
Mof_Cu	Cu	0.27153	0.27153	0.5	0.898
Mof_N 	N 	0.4489	0.4489	0.5	-0.169
Mof_C 	C 	0.4154	0.8542	-0	-0.122
Mof_H 	H 	0.3765	0.8884	-0	0.043
Mof_H 	H 	0.3951	0.8065	-0	0.042
Mof_C 	C 	0.5846	0.1458	-0	-0.124
Mof_H 	H 	0.6235	0.1116	-0	0.039
Mof_H 	H 	0.6049	0.1935	-0	0.041
Mof_C 	C 	0.8542	0.4154	-0	-0.122
Mof_H 	H 	0.8884	0.3765	-0	0.043
Mof_H 	H 	0.8065	0.3951	-0	0.042
Mof_C 	C 	0.1458	0.5846	-0	-0.124
Mof_H 	H 	0.1116	0.6235	-0	0.039
Mof_H 	H 	0.1935	0.6049	-0	0.041
Mof_Cu	Cu	0.5	0	-0	0.814
Mof_Cu	Cu	3.47059e-33	0.5	-0	0.814
Mof_N 	N 	0.6361	0.958	0.44051	-0.085
Mof_N 	N 	0.5747	0.992	0.42965	-0.179
Mof_C 	C 	0.5824	0.0256	0.3719	0.013
Mof_H 	H 	0.548	0.0549	0.352	0.015
Mof_C 	C 	0.6482	0.0118	0.3444	-0.049
Mof_C 	C 	0.6809	0.9691	0.3898	0.04
Mof_H 	H 	0.7269	0.9507	0.386	0.023
Mof_C 	C 	0.6753	0.0373	0.2791	0.03
Mof_C 	C 	0.726	0.9998	0.244	-0.041
Mof_H 	H 	0.743	0.9569	0.2616	0.044
Mof_C 	C 	0.7517	0.0247	0.1837	-0.045
Mof_H 	H 	0.786	0.9985	0.16	0.061
Mof_C 	C 	0.7278	0.0874	0.1576	-0.081
Mof_C 	C 	0.6768	0.1245	0.1916	0.013
Mof_H 	H 	0.6595	0.1671	0.1736	0.037
Mof_C 	C 	0.651	0.0993	0.2521	-0.09
Mof_H 	H 	0.616	0.1251	0.2753	0.061
Mof_C 	C 	0.7575	0.1175	0.0942	0.335
Mof_O 	O 	0.81202	0.08776	0.07055	-0.418
Mof_O 	O 	0.72846	0.17092	0.0704	-0.426
Mof_C 	C 	0.0027	0.0522	0.9572	0.048
Mof_H 	H 	0.0059	0.0894	0.9257	0.031
Mof_N 	N 	0.3639	0.042	0.44051	-0.085
Mof_N 	N 	0.4253	0.008	0.42965	-0.203
Mof_C 	C 	0.4176	0.9744	0.3719	0.06
Mof_H 	H 	0.452	0.9451	0.352	0.005
Mof_C 	C 	0.3518	0.9882	0.3444	-0.064
Mof_C 	C 	0.3191	0.0309	0.3898	0.02
Mof_H 	H 	0.2731	0.0493	0.386	0.02
Mof_C 	C 	0.3247	0.9627	0.2791	0.15
Mof_C 	C 	0.274	0.0002	0.244	-0.24
Mof_H 	H 	0.257	0.0431	0.2616	0.102
Mof_C 	C 	0.2483	0.9753	0.1837	0.162
Mof_H 	H 	0.214	0.0015	0.16	-0.03
Mof_C 	C 	0.2722	0.9126	0.1576	-0.181
Mof_C 	C 	0.3232	0.8755	0.1916	0.107
Mof_H 	H 	0.3405	0.8329	0.1736	0.007
Mof_C 	C 	0.349	0.9007	0.2521	-0.182
Mof_H 	H 	0.384	0.8749	0.2753	0.093
Mof_C 	C 	0.2425	0.8825	0.0942	0.373
Mof_O 	O 	0.18798	0.91224	0.07055	-0.419
Mof_O 	O 	0.27154	0.82908	0.0704	-0.434
Mof_C 	C 	0.9973	0.9478	0.9572	0.078
Mof_H 	H 	0.9941	0.9106	0.9257	0.031
Mof_N 	N 	0.042	0.3639	0.55949	-0.085
Mof_N 	N 	0.008	0.4253	0.57035	-0.202
Mof_C 	C 	0.9744	0.4176	0.6281	0.057
Mof_H 	H 	0.9451	0.452	0.648	0.005
Mof_C 	C 	0.9882	0.3518	0.6556	-0.06
Mof_C 	C 	0.0309	0.3191	0.6102	0.018
Mof_H 	H 	0.0493	0.2731	0.614	0.022
Mof_C 	C 	0.9627	0.3247	0.7209	0.139
Mof_C 	C 	0.0002	0.274	0.756	-0.221
Mof_H 	H 	0.0431	0.257	0.7384	0.101
Mof_C 	C 	0.9753	0.2483	0.8163	0.145
Mof_H 	H 	0.0015	0.214	0.84	-0.009
Mof_C 	C 	0.9126	0.2722	0.8424	-0.153
Mof_C 	C 	0.8755	0.3232	0.8084	0.091
Mof_H 	H 	0.8329	0.3405	0.8264	0.019
Mof_C 	C 	0.9007	0.349	0.7479	-0.168
Mof_H 	H 	0.8749	0.384	0.7247	0.088
Mof_C 	C 	0.8825	0.2425	0.9058	0.362
Mof_O 	O 	0.91224	0.18798	0.92945	-0.354
Mof_O 	O 	0.82908	0.27154	0.9296	-0.364
Mof_C 	C 	0.9478	0.9973	0.0428	-0.005
Mof_H 	H 	0.9106	0.9941	0.0743	0.033
Mof_N 	N 	0.958	0.6361	0.55949	-0.085
Mof_N 	N 	0.992	0.5747	0.57035	-0.179
Mof_C 	C 	0.0256	0.5824	0.6281	0.012
Mof_H 	H 	0.0549	0.548	0.648	0.015
Mof_C 	C 	0.0118	0.6482	0.6556	-0.047
Mof_C 	C 	0.9691	0.6809	0.6102	0.038
Mof_H 	H 	0.9507	0.7269	0.614	0.024
Mof_C 	C 	0.0373	0.6753	0.7209	0.027
Mof_C 	C 	0.9998	0.726	0.756	-0.036
Mof_H 	H 	0.9569	0.743	0.7384	0.047
Mof_C 	C 	0.0247	0.7517	0.8163	-0.046
Mof_H 	H 	0.9985	0.786	0.84	0.075
Mof_C 	C 	0.0874	0.7278	0.8424	-0.06
Mof_C 	C 	0.1245	0.6768	0.8084	0.005
Mof_H 	H 	0.1671	0.6595	0.8264	0.047
Mof_C 	C 	0.0993	0.651	0.7479	-0.083
Mof_H 	H 	0.1251	0.616	0.7247	0.059
Mof_C 	C 	0.1175	0.7575	0.9058	0.327
Mof_O 	O 	0.08776	0.81202	0.92945	-0.353
Mof_O 	O 	0.17092	0.72846	0.9296	-0.356
Mof_C 	C 	0.0522	0.0027	0.0428	-0.045
Mof_H 	H 	0.0894	0.0059	0.0743	0.035
Mof_N 	N 	0.3639	0.042	0.55949	-0.085
Mof_N 	N 	0.4253	0.008	0.57035	-0.202
Mof_C 	C 	0.4176	0.9744	0.6281	0.057
Mof_H 	H 	0.452	0.9451	0.648	0.005
Mof_C 	C 	0.3518	0.9882	0.6556	-0.06
Mof_C 	C 	0.3191	0.0309	0.6102	0.018
Mof_H 	H 	0.2731	0.0493	0.614	0.022
Mof_C 	C 	0.3247	0.9627	0.7209	0.139
Mof_C 	C 	0.274	0.0002	0.756	-0.221
Mof_H 	H 	0.257	0.0431	0.7384	0.101
Mof_C 	C 	0.2483	0.9753	0.8163	0.145
Mof_H 	H 	0.214	0.0015	0.84	-0.009
Mof_C 	C 	0.2722	0.9126	0.8424	-0.153
Mof_C 	C 	0.3232	0.8755	0.8084	0.091
Mof_H 	H 	0.3405	0.8329	0.8264	0.019
Mof_C 	C 	0.349	0.9007	0.7479	-0.168
Mof_H 	H 	0.384	0.8749	0.7247	0.088
Mof_C 	C 	0.2425	0.8825	0.9058	0.362
Mof_O 	O 	0.18798	0.91224	0.92945	-0.354
Mof_O 	O 	0.27154	0.82908	0.9296	-0.364
Mof_C 	C 	0.9973	0.9478	0.0428	-0.005
Mof_H 	H 	0.9941	0.9106	0.0743	0.033
Mof_N 	N 	0.6361	0.958	0.55949	-0.085
Mof_N 	N 	0.5747	0.992	0.57035	-0.179
Mof_C 	C 	0.5824	0.0256	0.6281	0.012
Mof_H 	H 	0.548	0.0549	0.648	0.015
Mof_C 	C 	0.6482	0.0118	0.6556	-0.047
Mof_C 	C 	0.6809	0.9691	0.6102	0.038
Mof_H 	H 	0.7269	0.9507	0.614	0.024
Mof_C 	C 	0.6753	0.0373	0.7209	0.027
Mof_C 	C 	0.726	0.9998	0.756	-0.036
Mof_H 	H 	0.743	0.9569	0.7384	0.047
Mof_C 	C 	0.7517	0.0247	0.8163	-0.046
Mof_H 	H 	0.786	0.9985	0.84	0.075
Mof_C 	C 	0.7278	0.0874	0.8424	-0.06
Mof_C 	C 	0.6768	0.1245	0.8084	0.005
Mof_H 	H 	0.6595	0.1671	0.8264	0.047
Mof_C 	C 	0.651	0.0993	0.7479	-0.083
Mof_H 	H 	0.616	0.1251	0.7247	0.059
Mof_C 	C 	0.7575	0.1175	0.9058	0.327
Mof_O 	O 	0.81202	0.08776	0.92945	-0.353
Mof_O 	O 	0.72846	0.17092	0.9296	-0.356
Mof_C 	C 	0.0027	0.0522	0.0428	-0.045
Mof_H 	H 	0.0059	0.0894	0.0743	0.035
Mof_N 	N 	0.958	0.6361	0.44051	-0.085
Mof_N 	N 	0.992	0.5747	0.42965	-0.179
Mof_C 	C 	0.0256	0.5824	0.3719	0.013
Mof_H 	H 	0.0549	0.548	0.352	0.015
Mof_C 	C 	0.0118	0.6482	0.3444	-0.049
Mof_C 	C 	0.9691	0.6809	0.3898	0.04
Mof_H 	H 	0.9507	0.7269	0.386	0.023
Mof_C 	C 	0.0373	0.6753	0.2791	0.03
Mof_C 	C 	0.9998	0.726	0.244	-0.041
Mof_H 	H 	0.9569	0.743	0.2616	0.044
Mof_C 	C 	0.0247	0.7517	0.1837	-0.045
Mof_H 	H 	0.9985	0.786	0.16	0.061
Mof_C 	C 	0.0874	0.7278	0.1576	-0.081
Mof_C 	C 	0.1245	0.6768	0.1916	0.013
Mof_H 	H 	0.1671	0.6595	0.1736	0.037
Mof_C 	C 	0.0993	0.651	0.2521	-0.09
Mof_H 	H 	0.1251	0.616	0.2753	0.061
Mof_C 	C 	0.1175	0.7575	0.0942	0.335
Mof_O 	O 	0.08776	0.81202	0.07055	-0.418
Mof_O 	O 	0.17092	0.72846	0.0704	-0.426
Mof_C 	C 	0.0522	0.0027	0.9572	0.048
Mof_H 	H 	0.0894	0.0059	0.9257	0.031
Mof_N 	N 	0.042	0.3639	0.44051	-0.085
Mof_N 	N 	0.008	0.4253	0.42965	-0.203
Mof_C 	C 	0.9744	0.4176	0.3719	0.06
Mof_H 	H 	0.9451	0.452	0.352	0.005
Mof_C 	C 	0.9882	0.3518	0.3444	-0.064
Mof_C 	C 	0.0309	0.3191	0.3898	0.02
Mof_H 	H 	0.0493	0.2731	0.386	0.02
Mof_C 	C 	0.9627	0.3247	0.2791	0.15
Mof_C 	C 	0.0002	0.274	0.244	-0.24
Mof_H 	H 	0.0431	0.257	0.2616	0.102
Mof_C 	C 	0.9753	0.2483	0.1837	0.162
Mof_H 	H 	0.0015	0.214	0.16	-0.03
Mof_C 	C 	0.9126	0.2722	0.1576	-0.181
Mof_C 	C 	0.8755	0.3232	0.1916	0.107
Mof_H 	H 	0.8329	0.3405	0.1736	0.007
Mof_C 	C 	0.9007	0.349	0.2521	-0.182
Mof_H 	H 	0.8749	0.384	0.2753	0.093
Mof_C 	C 	0.8825	0.2425	0.0942	0.373
Mof_O 	O 	0.91224	0.18798	0.07055	-0.419
Mof_O 	O 	0.82908	0.27154	0.0704	-0.434
Mof_C 	C 	0.9478	0.9973	0.9572	0.078
Mof_H 	H 	0.9106	0.9941	0.9257	0.031
Mof_Cu	Cu	0.86874	0.13126	-0	0.874
Mof_Cu	Cu	0.77153	0.22847	-0	0.856
Mof_N 	N 	0.9489	0.0511	-0	-0.238
Mof_Cu	Cu	0.13126	0.86874	-0	0.874
Mof_Cu	Cu	0.22847	0.77153	-0	0.856
Mof_N 	N 	0.0511	0.9489	-0	-0.238
Mof_C 	C 	0.6458	0.9154	0.5	-0.036
Mof_H 	H 	0.6116	0.8765	0.5	0.048
Mof_H 	H 	0.6935	0.8951	0.5	0.05
Mof_C 	C 	0.3542	0.0846	0.5	-0.04
Mof_H 	H 	0.3884	0.1235	0.5	0.048
Mof_H 	H 	0.3065	0.1049	0.5	0.049
Mof_C 	C 	0.0846	0.3542	0.5	-0.04
Mof_H 	H 	0.1235	0.3884	0.5	0.048
Mof_H 	H 	0.1049	0.3065	0.5	0.049
Mof_C 	C 	0.9154	0.6458	0.5	-0.036
Mof_H 	H 	0.8765	0.6116	0.5	0.048
Mof_H 	H 	0.8951	0.6935	0.5	0.05
Mof_Cu	Cu	0.5	0	0.5	0.854
Mof_Cu	Cu	8.89475e-33	0.5	0.5	0.854
_end
