data_functionalizedCrystal
_audit_creation_method	'EQeq! by Chris Wilmer'
_symmetry_space_group_name_H-M	'P1'
_symmetry_Int_Tables_number	1
_symmetry_cell_setting	triclinic
loop_
_symmetry_equiv_pos_as_xyz
  x,y,z
_cell_length_a	19.1999
_cell_length_b	19.1999
_cell_length_c	25.815
_cell_angle_alpha	90
_cell_angle_beta	90
_cell_angle_gamma	90
loop_
_atom_site_label
_atom_site_type_symbol
_atom_site_fract_x
_atom_site_fract_y
_atom_site_fract_z
_atom_site_charge
Mof_Mn	Mn	0.27324	0.78719	0.98364	0.959
Mof_Mn	Mn	0.38754	0.80931	0.09078	0.722
Mof_O 	O 	0.1566	0.2076	0.4091	-0.386
Mof_O 	O 	0.2955	0.8713	0.4512	-0.403
Mof_O 	O 	0.2097	0.1879	0.48405	-0.386
Mof_O 	O 	0.257	0.9057	0.99115	-0.316
Mof_O 	O 	0.2919	0.9424	0.5185	-0.395
Mof_O 	O 	0.22	0.2083	0.08813	-0.314
Mof_O 	O 	0.2856	0.8433	0.05969	-0.412
Mof_O 	O 	0.2237	0.159	0.0115	-0.325
Mof_C 	C 	0.2649	0.9005	0.0388	0.303
Mof_C 	C 	0.249	0.962	0.0738	-0.068
Mof_C 	C 	0.2418	0.0268	0.0523	-0.006
Mof_H 	H 	0.2454	0.0326	0.0167	0.066
Mof_C 	C 	0.2293	0.0835	0.0838	-0.05
Mof_C 	C 	0.224	0.154	0.059	0.292
Mof_C 	C 	0.2224	0.0745	0.1362	-0.039
Mof_H 	H 	0.2134	0.1125	0.1576	0.061
Mof_C 	C 	0.229	0.0085	0.1573	0.004
Mof_C 	C 	0.2444	0.9523	0.1259	-0.033
Mof_H 	H 	0.2515	0.9084	0.1401	0.048
Mof_C 	C 	0.2197	0.9975	0.2124	0.05
Mof_C 	C 	0.2296	0.0405	0.2534	-0.01
Mof_H 	H 	0.2408	0.0876	0.2521	0.04
Mof_C 	C 	0.1909	0.1709	0.4391	0.389
Mof_C 	C 	0.2047	0.0842	0.3682	-0.055
Mof_H 	H 	0.1853	0.1165	0.3455	0.067
Mof_C 	C 	0.213	0.1006	0.4208	-0.086
Mof_C 	C 	0.2255	0.0204	0.3506	0.082
Mof_C 	C 	0.2513	0.9698	0.3841	-0.053
Mof_H 	H 	0.2641	0.9262	0.3715	0.079
Mof_C 	C 	0.2579	0.9851	0.4365	-0.082
Mof_C 	C 	0.2399	0.0517	0.454	0.026
Mof_H 	H 	0.2462	0.063	0.4887	0.044
Mof_C 	C 	0.2845	0.9279	0.4723	0.4
Mof_N 	N 	0.199	0.9362	0.2807	-0.045
Mof_N 	N 	0.2008	0.9338	0.2315	-0.078
Mof_N 	N 	0.2201	0.0021	0.2961	-0.09
Mof_Mn	Mn	0.72676	0.21281	0.98364	0.959
Mof_Mn	Mn	0.61246	0.19069	0.09078	0.722
Mof_O 	O 	0.8434	0.7924	0.4091	-0.386
Mof_O 	O 	0.7045	0.1287	0.4512	-0.403
Mof_O 	O 	0.7903	0.8121	0.48405	-0.386
Mof_O 	O 	0.743	0.0943	0.99115	-0.316
Mof_O 	O 	0.7081	0.0576	0.5185	-0.395
Mof_O 	O 	0.78	0.7917	0.08813	-0.314
Mof_O 	O 	0.7144	0.1567	0.05969	-0.412
Mof_O 	O 	0.7763	0.841	0.0115	-0.325
Mof_C 	C 	0.7351	0.0995	0.0388	0.303
Mof_C 	C 	0.751	0.038	0.0738	-0.068
Mof_C 	C 	0.7582	0.9732	0.0523	-0.006
Mof_H 	H 	0.7546	0.9674	0.0167	0.066
Mof_C 	C 	0.7707	0.9165	0.0838	-0.05
Mof_C 	C 	0.776	0.846	0.059	0.292
Mof_C 	C 	0.7776	0.9255	0.1362	-0.039
Mof_H 	H 	0.7866	0.8875	0.1576	0.061
Mof_C 	C 	0.771	0.9915	0.1573	0.004
Mof_C 	C 	0.7556	0.0477	0.1259	-0.033
Mof_H 	H 	0.7485	0.0916	0.1401	0.048
Mof_C 	C 	0.7803	0.0025	0.2124	0.05
Mof_C 	C 	0.7704	0.9595	0.2534	-0.01
Mof_H 	H 	0.7592	0.9124	0.2521	0.04
Mof_C 	C 	0.8091	0.8291	0.4391	0.389
Mof_C 	C 	0.7953	0.9158	0.3682	-0.055
Mof_H 	H 	0.8147	0.8835	0.3455	0.067
Mof_C 	C 	0.787	0.8994	0.4208	-0.086
Mof_C 	C 	0.7745	0.9796	0.3506	0.082
Mof_C 	C 	0.7487	0.0302	0.3841	-0.053
Mof_H 	H 	0.7359	0.0738	0.3715	0.079
Mof_C 	C 	0.7421	0.0149	0.4365	-0.082
Mof_C 	C 	0.7601	0.9483	0.454	0.026
Mof_H 	H 	0.7538	0.937	0.4887	0.044
Mof_C 	C 	0.7155	0.0721	0.4723	0.4
Mof_N 	N 	0.801	0.0638	0.2807	-0.045
Mof_N 	N 	0.7992	0.0662	0.2315	-0.078
Mof_N 	N 	0.7799	0.9979	0.2961	-0.09
Mof_Mn	Mn	0.78719	0.72676	0.01636	0.959
Mof_Mn	Mn	0.80931	0.61246	0.90922	0.722
Mof_O 	O 	0.2076	0.8434	0.5909	-0.386
Mof_O 	O 	0.8713	0.7045	0.5488	-0.403
Mof_O 	O 	0.1879	0.7903	0.51595	-0.386
Mof_O 	O 	0.9057	0.743	0.00885	-0.316
Mof_O 	O 	0.9424	0.7081	0.4815	-0.395
Mof_O 	O 	0.2083	0.78	0.91187	-0.314
Mof_O 	O 	0.8433	0.7144	0.94031	-0.412
Mof_O 	O 	0.159	0.7763	0.9885	-0.325
Mof_C 	C 	0.9005	0.7351	0.9612	0.303
Mof_C 	C 	0.962	0.751	0.9262	-0.068
Mof_C 	C 	0.0268	0.7582	0.9477	-0.006
Mof_H 	H 	0.0326	0.7546	0.9833	0.066
Mof_C 	C 	0.0835	0.7707	0.9162	-0.05
Mof_C 	C 	0.154	0.776	0.941	0.292
Mof_C 	C 	0.0745	0.7776	0.8638	-0.039
Mof_H 	H 	0.1125	0.7866	0.8424	0.061
Mof_C 	C 	0.0085	0.771	0.8427	0.004
Mof_C 	C 	0.9523	0.7556	0.8741	-0.033
Mof_H 	H 	0.9084	0.7485	0.8599	0.048
Mof_C 	C 	0.9975	0.7803	0.7876	0.05
Mof_C 	C 	0.0405	0.7704	0.7466	-0.01
Mof_H 	H 	0.0876	0.7592	0.7479	0.04
Mof_C 	C 	0.1709	0.8091	0.5609	0.389
Mof_C 	C 	0.0842	0.7953	0.6318	-0.055
Mof_H 	H 	0.1165	0.8147	0.6545	0.067
Mof_C 	C 	0.1006	0.787	0.5792	-0.086
Mof_C 	C 	0.0204	0.7745	0.6494	0.082
Mof_C 	C 	0.9698	0.7487	0.6159	-0.053
Mof_H 	H 	0.9262	0.7359	0.6285	0.079
Mof_C 	C 	0.9851	0.7421	0.5635	-0.082
Mof_C 	C 	0.0517	0.7601	0.546	0.026
Mof_H 	H 	0.063	0.7538	0.5113	0.044
Mof_C 	C 	0.9279	0.7155	0.5277	0.4
Mof_N 	N 	0.9362	0.801	0.7193	-0.045
Mof_N 	N 	0.9338	0.7992	0.7685	-0.078
Mof_N 	N 	0.0021	0.7799	0.7039	-0.09
Mof_Mn	Mn	0.21281	0.27324	0.01636	0.959
Mof_Mn	Mn	0.19069	0.38754	0.90922	0.722
Mof_O 	O 	0.7924	0.1566	0.5909	-0.386
Mof_O 	O 	0.1287	0.2955	0.5488	-0.403
Mof_O 	O 	0.8121	0.2097	0.51595	-0.386
Mof_O 	O 	0.0943	0.257	0.00885	-0.316
Mof_O 	O 	0.0576	0.2919	0.4815	-0.395
Mof_O 	O 	0.7917	0.22	0.91187	-0.314
Mof_O 	O 	0.1567	0.2856	0.94031	-0.412
Mof_O 	O 	0.841	0.2237	0.9885	-0.325
Mof_C 	C 	0.0995	0.2649	0.9612	0.303
Mof_C 	C 	0.038	0.249	0.9262	-0.068
Mof_C 	C 	0.9732	0.2418	0.9477	-0.006
Mof_H 	H 	0.9674	0.2454	0.9833	0.066
Mof_C 	C 	0.9165	0.2293	0.9162	-0.05
Mof_C 	C 	0.846	0.224	0.941	0.292
Mof_C 	C 	0.9255	0.2224	0.8638	-0.039
Mof_H 	H 	0.8875	0.2134	0.8424	0.061
Mof_C 	C 	0.9915	0.229	0.8427	0.004
Mof_C 	C 	0.0477	0.2444	0.8741	-0.033
Mof_H 	H 	0.0916	0.2515	0.8599	0.048
Mof_C 	C 	0.0025	0.2197	0.7876	0.05
Mof_C 	C 	0.9595	0.2296	0.7466	-0.01
Mof_H 	H 	0.9124	0.2408	0.7479	0.04
Mof_C 	C 	0.8291	0.1909	0.5609	0.389
Mof_C 	C 	0.9158	0.2047	0.6318	-0.055
Mof_H 	H 	0.8835	0.1853	0.6545	0.067
Mof_C 	C 	0.8994	0.213	0.5792	-0.086
Mof_C 	C 	0.9796	0.2255	0.6494	0.082
Mof_C 	C 	0.0302	0.2513	0.6159	-0.053
Mof_H 	H 	0.0738	0.2641	0.6285	0.079
Mof_C 	C 	0.0149	0.2579	0.5635	-0.082
Mof_C 	C 	0.9483	0.2399	0.546	0.026
Mof_H 	H 	0.937	0.2462	0.5113	0.044
Mof_C 	C 	0.0721	0.2845	0.5277	0.4
Mof_N 	N 	0.0638	0.199	0.7193	-0.045
Mof_N 	N 	0.0662	0.2008	0.7685	-0.078
Mof_N 	N 	0.9979	0.2201	0.7039	-0.09
Mof_Mn	Mn	0.22676	0.28719	0.51636	0.959
Mof_Mn	Mn	0.11246	0.30931	0.40922	0.722
Mof_O 	O 	0.3434	0.7076	0.0909	-0.386
Mof_O 	O 	0.2045	0.3713	0.0488	-0.403
Mof_O 	O 	0.2903	0.6879	0.01595	-0.386
Mof_O 	O 	0.243	0.4057	0.50885	-0.316
Mof_O 	O 	0.2081	0.4424	0.9815	-0.395
Mof_O 	O 	0.28	0.7083	0.41187	-0.314
Mof_O 	O 	0.2144	0.3433	0.44031	-0.412
Mof_O 	O 	0.2763	0.659	0.4885	-0.325
Mof_C 	C 	0.2351	0.4005	0.4612	0.303
Mof_C 	C 	0.251	0.462	0.4262	-0.068
Mof_C 	C 	0.2582	0.5268	0.4477	-0.006
Mof_H 	H 	0.2546	0.5326	0.4833	0.066
Mof_C 	C 	0.2707	0.5835	0.4162	-0.05
Mof_C 	C 	0.276	0.654	0.441	0.292
Mof_C 	C 	0.2776	0.5745	0.3638	-0.039
Mof_H 	H 	0.2866	0.6125	0.3424	0.061
Mof_C 	C 	0.271	0.5085	0.3427	0.004
Mof_C 	C 	0.2556	0.4523	0.3741	-0.033
Mof_H 	H 	0.2485	0.4084	0.3599	0.048
Mof_C 	C 	0.2803	0.4975	0.2876	0.05
Mof_C 	C 	0.2704	0.5405	0.2466	-0.01
Mof_H 	H 	0.2592	0.5876	0.2479	0.04
Mof_C 	C 	0.3091	0.6709	0.0609	0.389
Mof_C 	C 	0.2953	0.5842	0.1318	-0.055
Mof_H 	H 	0.3147	0.6165	0.1545	0.067
Mof_C 	C 	0.287	0.6006	0.0792	-0.086
Mof_C 	C 	0.2745	0.5204	0.1494	0.082
Mof_C 	C 	0.2487	0.4698	0.1159	-0.053
Mof_H 	H 	0.2359	0.4262	0.1285	0.079
Mof_C 	C 	0.2421	0.4851	0.0635	-0.082
Mof_C 	C 	0.2601	0.5517	0.046	0.026
Mof_H 	H 	0.2538	0.563	0.0113	0.044
Mof_C 	C 	0.2155	0.4279	0.0277	0.4
Mof_N 	N 	0.301	0.4362	0.2193	-0.045
Mof_N 	N 	0.2992	0.4338	0.2685	-0.078
Mof_N 	N 	0.2799	0.5021	0.2039	-0.09
Mof_Mn	Mn	0.77324	0.71281	0.51636	0.959
Mof_Mn	Mn	0.88754	0.69069	0.40922	0.722
Mof_O 	O 	0.6566	0.2924	0.0909	-0.386
Mof_O 	O 	0.7955	0.6287	0.0488	-0.403
Mof_O 	O 	0.7097	0.3121	0.01595	-0.386
Mof_O 	O 	0.757	0.5943	0.50885	-0.316
Mof_O 	O 	0.7919	0.5576	0.9815	-0.395
Mof_O 	O 	0.72	0.2917	0.41187	-0.314
Mof_O 	O 	0.7856	0.6567	0.44031	-0.412
Mof_O 	O 	0.7237	0.341	0.4885	-0.325
Mof_C 	C 	0.7649	0.5995	0.4612	0.303
Mof_C 	C 	0.749	0.538	0.4262	-0.068
Mof_C 	C 	0.7418	0.4732	0.4477	-0.006
Mof_H 	H 	0.7454	0.4674	0.4833	0.066
Mof_C 	C 	0.7293	0.4165	0.4162	-0.05
Mof_C 	C 	0.724	0.346	0.441	0.292
Mof_C 	C 	0.7224	0.4255	0.3638	-0.039
Mof_H 	H 	0.7134	0.3875	0.3424	0.061
Mof_C 	C 	0.729	0.4915	0.3427	0.004
Mof_C 	C 	0.7444	0.5477	0.3741	-0.033
Mof_H 	H 	0.7515	0.5916	0.3599	0.048
Mof_C 	C 	0.7197	0.5025	0.2876	0.05
Mof_C 	C 	0.7296	0.4595	0.2466	-0.01
Mof_H 	H 	0.7408	0.4124	0.2479	0.04
Mof_C 	C 	0.6909	0.3291	0.0609	0.389
Mof_C 	C 	0.7047	0.4158	0.1318	-0.055
Mof_H 	H 	0.6853	0.3835	0.1545	0.067
Mof_C 	C 	0.713	0.3994	0.0792	-0.086
Mof_C 	C 	0.7255	0.4796	0.1494	0.082
Mof_C 	C 	0.7513	0.5302	0.1159	-0.053
Mof_H 	H 	0.7641	0.5738	0.1285	0.079
Mof_C 	C 	0.7579	0.5149	0.0635	-0.082
Mof_C 	C 	0.7399	0.4483	0.046	0.026
Mof_H 	H 	0.7462	0.437	0.0113	0.044
Mof_C 	C 	0.7845	0.5721	0.0277	0.4
Mof_N 	N 	0.699	0.5638	0.2193	-0.045
Mof_N 	N 	0.7008	0.5662	0.2685	-0.078
Mof_N 	N 	0.7201	0.4979	0.2039	-0.09
Mof_Mn	Mn	0.71281	0.22676	0.48364	0.959
Mof_Mn	Mn	0.69069	0.11246	0.59078	0.722
Mof_O 	O 	0.2924	0.3434	0.9091	-0.386
Mof_O 	O 	0.6287	0.2045	0.9512	-0.403
Mof_O 	O 	0.3121	0.2903	0.98405	-0.386
Mof_O 	O 	0.5943	0.243	0.49115	-0.316
Mof_O 	O 	0.5576	0.2081	0.0185	-0.395
Mof_O 	O 	0.2917	0.28	0.58813	-0.314
Mof_O 	O 	0.6567	0.2144	0.55969	-0.412
Mof_O 	O 	0.341	0.2763	0.5115	-0.325
Mof_C 	C 	0.5995	0.2351	0.5388	0.303
Mof_C 	C 	0.538	0.251	0.5738	-0.068
Mof_C 	C 	0.4732	0.2582	0.5523	-0.006
Mof_H 	H 	0.4674	0.2546	0.5167	0.066
Mof_C 	C 	0.4165	0.2707	0.5838	-0.05
Mof_C 	C 	0.346	0.276	0.559	0.292
Mof_C 	C 	0.4255	0.2776	0.6362	-0.039
Mof_H 	H 	0.3875	0.2866	0.6576	0.061
Mof_C 	C 	0.4915	0.271	0.6573	0.004
Mof_C 	C 	0.5477	0.2556	0.6259	-0.033
Mof_H 	H 	0.5916	0.2485	0.6401	0.048
Mof_C 	C 	0.5025	0.2803	0.7124	0.05
Mof_C 	C 	0.4595	0.2704	0.7534	-0.01
Mof_H 	H 	0.4124	0.2592	0.7521	0.04
Mof_C 	C 	0.3291	0.3091	0.9391	0.389
Mof_C 	C 	0.4158	0.2953	0.8682	-0.055
Mof_H 	H 	0.3835	0.3147	0.8455	0.067
Mof_C 	C 	0.3994	0.287	0.9208	-0.086
Mof_C 	C 	0.4796	0.2745	0.8506	0.082
Mof_C 	C 	0.5302	0.2487	0.8841	-0.053
Mof_H 	H 	0.5738	0.2359	0.8715	0.079
Mof_C 	C 	0.5149	0.2421	0.9365	-0.082
Mof_C 	C 	0.4483	0.2601	0.954	0.026
Mof_H 	H 	0.437	0.2538	0.9887	0.044
Mof_C 	C 	0.5721	0.2155	0.9723	0.4
Mof_N 	N 	0.5638	0.301	0.7807	-0.045
Mof_N 	N 	0.5662	0.2992	0.7315	-0.078
Mof_N 	N 	0.4979	0.2799	0.7961	-0.09
Mof_Mn	Mn	0.28719	0.77324	0.48364	0.959
Mof_Mn	Mn	0.30931	0.88754	0.59078	0.722
Mof_O 	O 	0.7076	0.6566	0.9091	-0.386
Mof_O 	O 	0.3713	0.7955	0.9512	-0.403
Mof_O 	O 	0.6879	0.7097	0.98405	-0.386
Mof_O 	O 	0.4057	0.757	0.49115	-0.316
Mof_O 	O 	0.4424	0.7919	0.0185	-0.395
Mof_O 	O 	0.7083	0.72	0.58813	-0.314
Mof_O 	O 	0.3433	0.7856	0.55969	-0.412
Mof_O 	O 	0.659	0.7237	0.5115	-0.325
Mof_C 	C 	0.4005	0.7649	0.5388	0.303
Mof_C 	C 	0.462	0.749	0.5738	-0.068
Mof_C 	C 	0.5268	0.7418	0.5523	-0.006
Mof_H 	H 	0.5326	0.7454	0.5167	0.066
Mof_C 	C 	0.5835	0.7293	0.5838	-0.05
Mof_C 	C 	0.654	0.724	0.559	0.292
Mof_C 	C 	0.5745	0.7224	0.6362	-0.039
Mof_H 	H 	0.6125	0.7134	0.6576	0.061
Mof_C 	C 	0.5085	0.729	0.6573	0.004
Mof_C 	C 	0.4523	0.7444	0.6259	-0.033
Mof_H 	H 	0.4084	0.7515	0.6401	0.048
Mof_C 	C 	0.4975	0.7197	0.7124	0.05
Mof_C 	C 	0.5405	0.7296	0.7534	-0.01
Mof_H 	H 	0.5876	0.7408	0.7521	0.04
Mof_C 	C 	0.6709	0.6909	0.9391	0.389
Mof_C 	C 	0.5842	0.7047	0.8682	-0.055
Mof_H 	H 	0.6165	0.6853	0.8455	0.067
Mof_C 	C 	0.6006	0.713	0.9208	-0.086
Mof_C 	C 	0.5204	0.7255	0.8506	0.082
Mof_C 	C 	0.4698	0.7513	0.8841	-0.053
Mof_H 	H 	0.4262	0.7641	0.8715	0.079
Mof_C 	C 	0.4851	0.7579	0.9365	-0.082
Mof_C 	C 	0.5517	0.7399	0.954	0.026
Mof_H 	H 	0.563	0.7462	0.9887	0.044
Mof_C 	C 	0.4279	0.7845	0.9723	0.4
Mof_N 	N 	0.4362	0.699	0.7807	-0.045
Mof_N 	N 	0.4338	0.7008	0.7315	-0.078
Mof_N 	N 	0.5021	0.7201	0.7961	-0.09
_end
