# CIF file generated by openbabel 3.1.0, see https://openbabel.org
data_I
_chemical_name_common 'image0'
_cell_length_a 29.956
_cell_length_b 9.7331
_cell_length_c 15.5271
_cell_angle_alpha 90
_cell_angle_beta 90
_cell_angle_gamma 90
_space_group_name_H-M_alt 'P 1'
_space_group_name_Hall 'P 1'
loop_
    _symmetry_equiv_pos_as_xyz
    x,y,z
loop_
    _atom_site_label
    _atom_site_type_symbol
    _atom_site_fract_x
    _atom_site_fract_y
    _atom_site_fract_z
    _atom_site_occupancy
    S1       S        0.05245    0.69340    0.11830    1.000
    S2       S        0.05587    0.39450    0.10890    1.000
    N1       N        0.27680    0.04520    0.13620    1.000
    N2       N        0.20720    0.19760    0.21330    1.000
    C1       C        0.02360    0.54210    0.11260    1.000
    C2       C        0.16320    0.91920    0.24120    1.000
    H1       H        0.15570    0.99410    0.27540    1.000
    N3       N        0.20560    0.90650    0.21380    1.000
    C3       C        0.10470    0.48130    0.14110    1.000
    C4       C        0.15640    0.28140    0.10750    1.000
    H2       H        0.14450    0.27400    0.05240    1.000
    C5       C        0.18780    0.19290    0.13520    1.000
    H3       H        0.19680    0.12370    0.09770    1.000
    C6       C        0.13050    0.82480    0.22030    1.000
    H4       H        0.10160    0.83850    0.24080    1.000
    C7       C        0.10400    0.61680    0.14500    1.000
    C8       C        0.13920    0.71200    0.17060    1.000
    C9       C        0.14190    0.38700    0.16510    1.000
    C10      C        0.29250    0.02550    0.06990    1.000
    C11      C        0.16370    0.39680    0.24370    1.000
    H5       H        0.15710    0.46760    0.28190    1.000
    C12      C        0.21490    0.79500    0.16470    1.000
    H6       H        0.24400    0.78370    0.14520    1.000
    C13      C        0.19530    0.29950    0.26400    1.000
    H7       H        0.20920    0.30620    0.31740    1.000
    C14      C        0.18350    0.69670    0.14170    1.000
    H8       H        0.19150    0.62200    0.10770    1.000
    S3       S        0.44755    0.30660    0.61830    1.000
    S4       S        0.44413    0.60550    0.60890    1.000
    N4       N        0.22320    0.95480    0.63620    1.000
    N5       N        0.29280    0.80240    0.71330    1.000
    C15      C        0.47640    0.45790    0.61260    1.000
    C16      C        0.33680    0.08080    0.74120    1.000
    H9       H        0.34430    0.00590    0.77540    1.000
    N6       N        0.29440    0.09350    0.71380    1.000
    C17      C        0.39530    0.51870    0.64110    1.000
    C18      C        0.34360    0.71860    0.60750    1.000
    H10      H        0.35550    0.72600    0.55240    1.000
    C19      C        0.31220    0.80710    0.63520    1.000
    H11      H        0.30320    0.87630    0.59770    1.000
    C20      C        0.36950    0.17520    0.72030    1.000
    H12      H        0.39840    0.16150    0.74080    1.000
    C21      C        0.39600    0.38320    0.64500    1.000
    C22      C        0.36080    0.28800    0.67060    1.000
    C23      C        0.35810    0.61300    0.66510    1.000
    C24      C        0.20750    0.97450    0.56990    1.000
    C25      C        0.33630    0.60320    0.74370    1.000
    H13      H        0.34290    0.53240    0.78190    1.000
    C26      C        0.28510    0.20500    0.66470    1.000
    H14      H        0.25600    0.21630    0.64520    1.000
    C27      C        0.30470    0.70050    0.76400    1.000
    H15      H        0.29080    0.69380    0.81740    1.000
    C28      C        0.31650    0.30330    0.64170    1.000
    H16      H        0.30850    0.37800    0.60770    1.000
    S5       S        0.44755    0.69340    0.38170    1.000
    S6       S        0.44413    0.39450    0.39110    1.000
    N7       N        0.22320    0.04520    0.36380    1.000
    N8       N        0.29280    0.19760    0.28670    1.000
    C29      C        0.47640    0.54210    0.38740    1.000
    C30      C        0.33680    0.91920    0.25880    1.000
    H17      H        0.34430    0.99410    0.22460    1.000
    N9       N        0.29440    0.90650    0.28620    1.000
    C31      C        0.39530    0.48130    0.35890    1.000
    C32      C        0.34360    0.28140    0.39250    1.000
    H18      H        0.35550    0.27400    0.44760    1.000
    C33      C        0.31220    0.19290    0.36480    1.000
    H19      H        0.30320    0.12370    0.40230    1.000
    C34      C        0.36950    0.82480    0.27970    1.000
    H20      H        0.39840    0.83850    0.25920    1.000
    C35      C        0.39600    0.61680    0.35500    1.000
    C36      C        0.36080    0.71200    0.32940    1.000
    C37      C        0.35810    0.38700    0.33490    1.000
    C38      C        0.20750    0.02550    0.43010    1.000
    C39      C        0.33630    0.39680    0.25630    1.000
    H21      H        0.34290    0.46760    0.21810    1.000
    C40      C        0.28510    0.79500    0.33530    1.000
    H22      H        0.25600    0.78370    0.35480    1.000
    C41      C        0.30470    0.29950    0.23600    1.000
    H23      H        0.29080    0.30620    0.18260    1.000
    C42      C        0.31650    0.69670    0.35830    1.000
    H24      H        0.30850    0.62200    0.39230    1.000
    S7       S        0.05245    0.30660    0.88170    1.000
    S8       S        0.05587    0.60550    0.89110    1.000
    N10      N        0.27680    0.95480    0.86380    1.000
    N11      N        0.20720    0.80240    0.78670    1.000
    C43      C        0.02360    0.45790    0.88740    1.000
    C44      C        0.16320    0.08080    0.75880    1.000
    H25      H        0.15570    0.00590    0.72460    1.000
    N12      N        0.20560    0.09350    0.78620    1.000
    C45      C        0.10470    0.51870    0.85890    1.000
    C46      C        0.15640    0.71860    0.89250    1.000
    H26      H        0.14450    0.72600    0.94760    1.000
    C47      C        0.18780    0.80710    0.86480    1.000
    H27      H        0.19680    0.87630    0.90230    1.000
    C48      C        0.13050    0.17520    0.77970    1.000
    H28      H        0.10160    0.16150    0.75920    1.000
    C49      C        0.10400    0.38320    0.85500    1.000
    C50      C        0.13920    0.28800    0.82940    1.000
    C51      C        0.14190    0.61300    0.83490    1.000
    C52      C        0.29250    0.97450    0.93010    1.000
    C53      C        0.16370    0.60320    0.75630    1.000
    H29      H        0.15710    0.53240    0.71810    1.000
    C54      C        0.21490    0.20500    0.83530    1.000
    H30      H        0.24400    0.21630    0.85480    1.000
    C55      C        0.19530    0.70050    0.73600    1.000
    H31      H        0.20920    0.69380    0.68260    1.000
    C56      C        0.18350    0.30330    0.85830    1.000
    H32      H        0.19150    0.37800    0.89230    1.000
    S9       S        0.94755    0.30660    0.88170    1.000
    S10      S        0.94413    0.60550    0.89110    1.000
    N13      N        0.72320    0.95480    0.86380    1.000
    N14      N        0.79280    0.80240    0.78670    1.000
    C57      C        0.97640    0.45790    0.88740    1.000
    C58      C        0.83680    0.08080    0.75880    1.000
    H33      H        0.84430    0.00590    0.72460    1.000
    N15      N        0.79440    0.09350    0.78620    1.000
    C59      C        0.89530    0.51870    0.85890    1.000
    C60      C        0.84360    0.71860    0.89250    1.000
    H34      H        0.85550    0.72600    0.94760    1.000
    C61      C        0.81220    0.80710    0.86480    1.000
    H35      H        0.80320    0.87630    0.90230    1.000
    C62      C        0.86950    0.17520    0.77970    1.000
    H36      H        0.89840    0.16150    0.75920    1.000
    C63      C        0.89600    0.38320    0.85500    1.000
    C64      C        0.86080    0.28800    0.82940    1.000
    C65      C        0.85810    0.61300    0.83490    1.000
    C66      C        0.70750    0.97450    0.93010    1.000
    C67      C        0.83630    0.60320    0.75630    1.000
    H37      H        0.84290    0.53240    0.71810    1.000
    C68      C        0.78510    0.20500    0.83530    1.000
    H38      H        0.75600    0.21630    0.85480    1.000
    C69      C        0.80470    0.70050    0.73600    1.000
    H39      H        0.79080    0.69380    0.68260    1.000
    C70      C        0.81650    0.30330    0.85830    1.000
    H40      H        0.80850    0.37800    0.89230    1.000
    S11      S        0.55245    0.69340    0.38170    1.000
    S12      S        0.55587    0.39450    0.39110    1.000
    N16      N        0.77680    0.04520    0.36380    1.000
    N17      N        0.70720    0.19760    0.28670    1.000
    C71      C        0.52360    0.54210    0.38740    1.000
    C72      C        0.66320    0.91920    0.25880    1.000
    H41      H        0.65570    0.99410    0.22460    1.000
    N18      N        0.70560    0.90650    0.28620    1.000
    C73      C        0.60470    0.48130    0.35890    1.000
    C74      C        0.65640    0.28140    0.39250    1.000
    H42      H        0.64450    0.27400    0.44760    1.000
    C75      C        0.68780    0.19290    0.36480    1.000
    H43      H        0.69680    0.12370    0.40230    1.000
    C76      C        0.63050    0.82480    0.27970    1.000
    H44      H        0.60160    0.83850    0.25920    1.000
    C77      C        0.60400    0.61680    0.35500    1.000
    C78      C        0.63920    0.71200    0.32940    1.000
    C79      C        0.64190    0.38700    0.33490    1.000
    C80      C        0.79250    0.02550    0.43010    1.000
    C81      C        0.66370    0.39680    0.25630    1.000
    H45      H        0.65710    0.46760    0.21810    1.000
    C82      C        0.71490    0.79500    0.33530    1.000
    H46      H        0.74400    0.78370    0.35480    1.000
    C83      C        0.69530    0.29950    0.23600    1.000
    H47      H        0.70920    0.30620    0.18260    1.000
    C84      C        0.68350    0.69670    0.35830    1.000
    H48      H        0.69150    0.62200    0.39230    1.000
    S13      S        0.55245    0.30660    0.61830    1.000
    S14      S        0.55587    0.60550    0.60890    1.000
    N19      N        0.77680    0.95480    0.63620    1.000
    N20      N        0.70720    0.80240    0.71330    1.000
    C85      C        0.52360    0.45790    0.61260    1.000
    C86      C        0.66320    0.08080    0.74120    1.000
    H49      H        0.65570    0.00590    0.77540    1.000
    N21      N        0.70560    0.09350    0.71380    1.000
    C87      C        0.60470    0.51870    0.64110    1.000
    C88      C        0.65640    0.71860    0.60750    1.000
    H50      H        0.64450    0.72600    0.55240    1.000
    C89      C        0.68780    0.80710    0.63520    1.000
    H51      H        0.69680    0.87630    0.59770    1.000
    C90      C        0.63050    0.17520    0.72030    1.000
    H52      H        0.60160    0.16150    0.74080    1.000
    C91      C        0.60400    0.38320    0.64500    1.000
    C92      C        0.63920    0.28800    0.67060    1.000
    C93      C        0.64190    0.61300    0.66510    1.000
    C94      C        0.79250    0.97450    0.56990    1.000
    C95      C        0.66370    0.60320    0.74370    1.000
    H53      H        0.65710    0.53240    0.78190    1.000
    C96      C        0.71490    0.20500    0.66470    1.000
    H54      H        0.74400    0.21630    0.64520    1.000
    C97      C        0.69530    0.70050    0.76400    1.000
    H55      H        0.70920    0.69380    0.81740    1.000
    C98      C        0.68350    0.30330    0.64170    1.000
    H56      H        0.69150    0.37800    0.60770    1.000
    S15      S        0.94755    0.69340    0.11830    1.000
    S16      S        0.94413    0.39450    0.10890    1.000
    N22      N        0.72320    0.04520    0.13620    1.000
    N23      N        0.79280    0.19760    0.21330    1.000
    C99      C        0.97640    0.54210    0.11260    1.000
    C100     C        0.83680    0.91920    0.24120    1.000
    H57      H        0.84430    0.99410    0.27540    1.000
    N24      N        0.79440    0.90650    0.21380    1.000
    C101     C        0.89530    0.48130    0.14110    1.000
    C102     C        0.84360    0.28140    0.10750    1.000
    H58      H        0.85550    0.27400    0.05240    1.000
    C103     C        0.81220    0.19290    0.13520    1.000
    H59      H        0.80320    0.12370    0.09770    1.000
    C104     C        0.86950    0.82480    0.22030    1.000
    H60      H        0.89840    0.83850    0.24080    1.000
    C105     C        0.89600    0.61680    0.14500    1.000
    C106     C        0.86080    0.71200    0.17060    1.000
    C107     C        0.85810    0.38700    0.16510    1.000
    C108     C        0.70750    0.02550    0.06990    1.000
    C109     C        0.83630    0.39680    0.24370    1.000
    H61      H        0.84290    0.46760    0.28190    1.000
    C110     C        0.78510    0.79500    0.16470    1.000
    H62      H        0.75600    0.78370    0.14520    1.000
    C111     C        0.80470    0.29950    0.26400    1.000
    H63      H        0.79080    0.30620    0.31740    1.000
    C112     C        0.81650    0.69670    0.14170    1.000
    H64      H        0.80850    0.62200    0.10770    1.000
    Fe1      Fe       0.25000    0.05020    0.25000    1.000
    Fe2      Fe       0.25000    0.94980    0.75000    1.000
    Fe3      Fe       0.75000    0.94980    0.75000    1.000
    Fe4      Fe       0.75000    0.05020    0.25000    1.000
    N25      N        0.31360    0.00000    0.00000    1.000
    N26      N        0.18640    0.00000    0.50000    1.000
    N27      N        0.68640    0.00000    0.00000    1.000
    N28      N        0.81360    0.00000    0.50000    1.000
