data_functionalizedCrystal
_audit_creation_method	'EQeq! by Chris Wilmer'
_symmetry_space_group_name_H-M	'P1'
_symmetry_Int_Tables_number	1
_symmetry_cell_setting	triclinic
loop_
_symmetry_equiv_pos_as_xyz
  x,y,z
_cell_length_a	34.58
_cell_length_b	34.58
_cell_length_c	20.76
_cell_angle_alpha	90
_cell_angle_beta	90
_cell_angle_gamma	120
loop_
_atom_site_label
_atom_site_type_symbol
_atom_site_fract_x
_atom_site_fract_y
_atom_site_fract_z
_atom_site_charge
Mof_Cu	Cu	0.66578	0.68723	0.23517	0.81
Mof_Cu	Cu	0.70962	0.63986	0.30223	0.801
Mof_Cu	Cu	0.62012	0.55287	0.3051	0.806
Mof_Cu	Cu	0.57448	0.59914	0.23147	0.805
Mof_Cu	Cu	0.56026	0.70466	0.22822	0.843
Mof_Cu	Cu	0.66766	0.6002	0.12553	0.837
Mof_S 	S 	0.6312	0.72783	0.26042	-0.757
Mof_S 	S 	0.63345	0.53456	0.40709	-0.682
Mof_S 	S 	0.63027	0.63417	0.15638	-0.663
Mof_S 	S 	0.67618	0.58226	0.22833	-0.68
Mof_S 	S 	0.7383	0.71268	0.26283	-0.827
Mof_S 	S 	0.55009	0.52688	0.26458	-0.68
Mof_O 	O 	0.64281	0.42031	0.5213	-0.467
Mof_O 	O 	0.60028	0.3822	0.4348	-0.603
Mof_O 	O 	0.6457	0.648	0.9266	-0.729
Mof_O 	O 	0.6713	0.7211	0.9638	-0.528
Mof_O 	O 	0.7355	0.51326	0.0841	-0.353
Mof_O 	O 	0.68467	0.45519	0.141	-0.417
Mof_O 	O 	0.8766	0.8283	0.1719	-0.372
Mof_O 	O 	0.8314	0.8127	0.0958	-0.376
Mof_O 	O 	0.4505	0.3733	0.1915	-0.495
Mof_O 	O 	0.5202	0.3903	0.1684	-0.425
Mof_N 	N 	0.58495	0.76686	0.192	-0.236
Mof_H 	H 	0.5728	0.7649	0.1519	0.004
Mof_H 	H 	0.5765	0.7828	0.2181	0.058
Mof_N 	N 	0.68563	0.49492	0.459	-0.262
Mof_H 	H 	0.7072	0.4892	0.4434	0.062
Mof_H 	H 	0.685	0.4917	0.5031	0.058
Mof_N 	N 	0.67638	0.632	0.0387	-0.258
Mof_H 	H 	0.7059	0.6447	0.0269	-0.038
Mof_H 	H 	0.6597	0.611	0.008	0.031
Mof_N 	N 	0.68622	0.55596	0.095	-0.269
Mof_H 	H 	0.6689	0.541	0.0599	0.068
Mof_H 	H 	0.7153	0.5719	0.0811	0.044
Mof_N 	N 	0.8126	0.8047	0.2578	-0.207
Mof_H 	H 	0.8139	0.8319	0.2542	0.06
Mof_H 	H 	0.8408	0.8104	0.2685	0.075
Mof_N 	N 	0.4758	0.4396	0.2873	-0.26
Mof_H 	H 	0.4674	0.4169	0.3167	-0.079
Mof_H 	H 	0.4509	0.4332	0.2633	0.004
Mof_C 	C 	0.6593	0.7893	0.236	0.874
Mof_C 	C 	0.6339	0.7911	0.1864	-0.463
Mof_H 	H 	0.6411	0.7787	0.1477	0.092
Mof_C 	C 	0.6558	0.8113	0.2937	-1.179
Mof_H 	H 	0.6247	0.8038	0.2998	0.329
Mof_H 	H 	0.6748	0.8437	0.289	0.311
Mof_H 	H 	0.6656	0.8012	0.3312	0.298
Mof_C 	C 	0.7002	0.7968	0.2173	-1.311
Mof_H 	H 	0.7163	0.7946	0.2547	0.338
Mof_H 	H 	0.7172	0.8267	0.1984	0.351
Mof_H 	H 	0.6966	0.7744	0.1852	0.342
Mof_C 	C 	0.60956	0.47593	0.4379	0.333
Mof_C 	C 	0.64212	0.46085	0.4331	-0.297
Mof_H 	H 	0.6468	0.4586	0.386	0.022
Mof_C 	C 	0.6263	0.4183	0.4582	0.382
Mof_C 	C 	0.5964	0.4748	0.5072	-0.61
Mof_H 	H 	0.5746	0.4849	0.5104	0.154
Mof_H 	H 	0.6229	0.4945	0.5327	0.162
Mof_H 	H 	0.5832	0.4442	0.5236	0.182
Mof_C 	C 	0.5662	0.4471	0.3988	-0.459
Mof_H 	H 	0.5461	0.4591	0.4038	0.082
Mof_H 	H 	0.5515	0.4163	0.4146	0.072
Mof_H 	H 	0.5737	0.4476	0.3531	0.061
Mof_C 	C 	0.62261	0.65347	0.0753	0.195
Mof_C 	C 	0.664	0.66672	0.03813	-0.175
Mof_H 	H 	0.6888	0.6943	0.058	0.024
Mof_C 	C 	0.6566	0.6779	0.96838	0.305
Mof_C 	C 	0.5814	0.6108	0.0426	-0.371
Mof_H 	H 	0.5542	0.6022	0.0673	0.082
Mof_H 	H 	0.5874	0.5859	0.042	0.103
Mof_H 	H 	0.5775	0.6181	0.9983	0.056
Mof_C 	C 	0.6146	0.6949	0.0844	-0.382
Mof_H 	H 	0.5872	0.6854	0.1091	0.061
Mof_H 	H 	0.6119	0.7058	0.0421	0.054
Mof_H 	H 	0.64	0.7188	0.1076	0.075
Mof_C 	C 	0.7053	0.54885	0.2071	0.33
Mof_C 	C 	0.68311	0.5235	0.1405	-0.232
Mof_H 	H 	0.6506	0.5034	0.1494	0.067
Mof_C 	C 	0.7006	0.4946	0.1213	0.342
Mof_C 	C 	0.75275	0.58413	0.2017	-0.611
Mof_H 	H 	0.7562	0.6044	0.1663	0.141
Mof_H 	H 	0.7711	0.5704	0.1932	0.17
Mof_H 	H 	0.7624	0.601	0.2421	0.139
Mof_C 	C 	0.69406	0.51543	0.2599	-0.549
Mof_H 	H 	0.6619	0.4942	0.2596	0.11
Mof_H 	H 	0.7026	0.5309	0.3015	0.119
Mof_H 	H 	0.7104	0.4993	0.2532	0.135
Mof_C 	C 	0.7857	0.73673	0.2023	1.04
Mof_C 	C 	0.80284	0.7858	0.2009	-0.535
Mof_H 	H 	0.7779	0.7896	0.1839	0.142
Mof_C 	C 	0.84197	0.8101	0.1524	0.503
Mof_C 	C 	0.8172	0.7257	0.2192	-1.454
Mof_H 	H 	0.8318	0.7411	0.2593	0.397
Mof_H 	H 	0.8396	0.7349	0.1849	0.407
Mof_H 	H 	0.8029	0.6934	0.2255	0.386
Mof_C 	C 	0.7667	0.7137	0.1471	-1.419
Mof_H 	H 	0.743	0.7194	0.1333	0.381
Mof_H 	H 	0.7541	0.6816	0.1549	0.359
Mof_H 	H 	0.7895	0.7233	0.1133	0.387
Mof_C 	C 	0.52904	0.47987	0.2057	0.321
Mof_C 	C 	0.5103	0.43882	0.2419	-0.253
Mof_H 	H 	0.5345	0.4393	0.2687	0.023
Mof_C 	C 	0.4915	0.3954	0.1911	0.376
Mof_C 	C 	0.49395	0.48664	0.1655	-0.542
Mof_H 	H 	0.5094	0.5153	0.1428	0.139
Mof_H 	H 	0.4715	0.4864	0.1946	0.127
Mof_H 	H 	0.4792	0.4624	0.134	0.16
Mof_C 	C 	0.5704	0.4889	0.1637	-0.589
Mof_H 	H 	0.5819	0.5175	0.1412	0.15
Mof_H 	H 	0.5614	0.4648	0.1321	0.193
Mof_H 	H 	0.5938	0.4899	0.1915	0.149
Mof_K 	K 	0.40346	0.7544	0.02	1.639
Mof_O 	O 	0.6838	0.4186	0.6474	-0.643
Mof_K 	K 	0.6898	0.6254	0.8495	3.157
Mof_Cu	Cu	0.31277	0.97855	0.90184	0.808
Mof_Cu	Cu	0.36014	0.06976	0.9689	0.8
Mof_Cu	Cu	0.44713	0.06725	0.97177	0.805
Mof_Cu	Cu	0.40086	0.97534	0.89814	0.803
Mof_Cu	Cu	0.29534	0.8556	0.89489	0.843
Mof_Cu	Cu	0.3998	0.06746	0.7922	0.839
Mof_S 	S 	0.27217	0.90337	0.92709	-0.758
Mof_S 	S 	0.46544	0.09889	0.07376	-0.678
Mof_S 	S 	0.36583	0.9961	0.82305	-0.671
Mof_S 	S 	0.41774	0.09392	0.895	-0.678
Mof_S 	S 	0.28732	0.02562	0.9295	-0.823
Mof_S 	S 	0.47312	0.02321	0.93125	-0.675
Mof_O 	O 	0.57969	0.2225	0.18797	-0.466
Mof_O 	O 	0.6178	0.21808	0.10147	-0.598
Mof_O 	O 	0.352	0.9977	0.59327	-0.735
Mof_O 	O 	0.2789	0.9502	0.63047	-0.527
Mof_O 	O 	0.48674	0.22224	0.75077	-0.354
Mof_O 	O 	0.54481	0.22948	0.80767	-0.417
Mof_O 	O 	0.1717	0.0483	0.83857	-0.367
Mof_O 	O 	0.1873	0.0187	0.76247	-0.371
Mof_O 	O 	0.6267	0.0772	0.85817	-0.492
Mof_O 	O 	0.6097	0.1299	0.83507	-0.424
Mof_N 	N 	0.23314	0.81809	0.85867	-0.235
Mof_H 	H 	0.2351	0.8079	0.81857	0.004
Mof_H 	H 	0.2172	0.7937	0.88477	0.059
Mof_N 	N 	0.50508	0.19071	0.12567	-0.261
Mof_H 	H 	0.5108	0.218	0.11007	0.063
Mof_H 	H 	0.5083	0.1933	0.16977	0.059
Mof_N 	N 	0.368	0.04438	0.70537	-0.252
Mof_H 	H 	0.3553	0.0612	0.69357	-0.038
Mof_H 	H 	0.389	0.0487	0.67467	0.03
Mof_N 	N 	0.44404	0.13026	0.76167	-0.267
Mof_H 	H 	0.459	0.1279	0.72657	0.068
Mof_H 	H 	0.4281	0.1434	0.74777	0.045
Mof_N 	N 	0.1953	0.0079	0.92447	-0.204
Mof_H 	H 	0.1681	0.982	0.92087	0.055
Mof_H 	H 	0.1896	0.0304	0.93517	0.076
Mof_N 	N 	0.5604	0.0362	0.95397	-0.261
Mof_H 	H 	0.5831	0.0505	0.98337	-0.078
Mof_H 	H 	0.5668	0.0177	0.92997	0.007
Mof_C 	C 	0.2107	0.87	0.90267	0.869
Mof_C 	C 	0.2089	0.8428	0.85307	-0.46
Mof_H 	H 	0.2213	0.8624	0.81437	0.091
Mof_C 	C 	0.1887	0.8445	0.96037	-1.17
Mof_H 	H 	0.1962	0.8209	0.96647	0.326
Mof_H 	H 	0.1563	0.8311	0.95567	0.308
Mof_H 	H 	0.1988	0.8644	0.99787	0.294
Mof_C 	C 	0.2032	0.9034	0.88397	-1.302
Mof_H 	H 	0.2054	0.9217	0.92137	0.334
Mof_H 	H 	0.1733	0.8905	0.86507	0.348
Mof_H 	H 	0.2256	0.9222	0.85187	0.339
Mof_C 	C 	0.52407	0.13363	0.10457	0.335
Mof_C 	C 	0.53915	0.18127	0.09977	-0.298
Mof_H 	H 	0.5414	0.1882	0.05267	0.024
Mof_C 	C 	0.5817	0.208	0.12487	0.382
Mof_C 	C 	0.5252	0.1216	0.17387	-0.612
Mof_H 	H 	0.5151	0.0897	0.17707	0.155
Mof_H 	H 	0.5055	0.1284	0.19937	0.163
Mof_H 	H 	0.5558	0.139	0.19027	0.183
Mof_C 	C 	0.5529	0.1191	0.06547	-0.465
Mof_H 	H 	0.5409	0.087	0.07047	0.085
Mof_H 	H 	0.5837	0.1352	0.08127	0.076
Mof_H 	H 	0.5524	0.1261	0.01977	0.066
Mof_C 	C 	0.34653	0.96914	0.74197	0.209
Mof_C 	C 	0.33328	0.99728	0.7048	-0.191
Mof_H 	H 	0.3057	0.9945	0.72467	0.026
Mof_C 	C 	0.3221	0.9787	0.63505	0.313
Mof_C 	C 	0.3892	0.9706	0.70927	-0.416
Mof_H 	H 	0.3978	0.952	0.73397	0.094
Mof_H 	H 	0.4141	0.0015	0.70867	0.12
Mof_H 	H 	0.3819	0.9594	0.66497	0.072
Mof_C 	C 	0.3051	0.9197	0.75107	-0.393
Mof_H 	H 	0.3146	0.9018	0.77577	0.064
Mof_H 	H 	0.2942	0.9061	0.70877	0.056
Mof_H 	H 	0.2812	0.9212	0.77427	0.078
Mof_C 	C 	0.45115	0.15645	0.87377	0.328
Mof_C 	C 	0.4765	0.15961	0.80717	-0.232
Mof_H 	H 	0.4966	0.1472	0.81607	0.067
Mof_C 	C 	0.5054	0.206	0.78797	0.342
Mof_C 	C 	0.41587	0.16862	0.86837	-0.609
Mof_H 	H 	0.3956	0.1518	0.83297	0.14
Mof_H 	H 	0.4296	0.2007	0.85987	0.169
Mof_H 	H 	0.399	0.1614	0.90877	0.137
Mof_C 	C 	0.48457	0.17863	0.92657	-0.545
Mof_H 	H 	0.5058	0.1677	0.92627	0.108
Mof_H 	H 	0.4691	0.1717	0.96817	0.116
Mof_H 	H 	0.5007	0.2111	0.91987	0.134
Mof_C 	C 	0.26327	0.04897	0.86897	1.031
Mof_C 	C 	0.2142	0.01704	0.86757	-0.522
Mof_H 	H 	0.2104	0.9883	0.85057	0.133
Mof_C 	C 	0.1899	0.03187	0.81907	0.499
Mof_C 	C 	0.2743	0.0915	0.88587	-1.443
Mof_H 	H 	0.2589	0.0907	0.92597	0.393
Mof_H 	H 	0.2651	0.1047	0.85157	0.404
Mof_H 	H 	0.3066	0.1095	0.89217	0.382
Mof_C 	C 	0.2863	0.053	0.81377	-1.41
Mof_H 	H 	0.2806	0.0236	0.79997	0.381
Mof_H 	H 	0.3184	0.0725	0.82157	0.357
Mof_H 	H 	0.2767	0.0662	0.77997	0.384
Mof_C 	C 	0.52013	0.04917	0.87237	0.307
Mof_C 	C 	0.56118	0.07148	0.90857	-0.247
Mof_H 	H 	0.5607	0.0952	0.93537	0.02
Mof_C 	C 	0.6046	0.0961	0.85777	0.374
Mof_C 	C 	0.51336	0.00731	0.83217	-0.492
Mof_H 	H 	0.4847	0.9941	0.80947	0.119
Mof_H 	H 	0.5136	0.9851	0.86127	0.108
Mof_H 	H 	0.5376	0.0168	0.80067	0.147
Mof_C 	C 	0.5111	0.0815	0.83037	-0.577
Mof_H 	H 	0.4825	0.0644	0.80787	0.147
Mof_H 	H 	0.5352	0.0966	0.79877	0.189
Mof_H 	H 	0.5101	0.1039	0.85817	0.145
Mof_K 	K 	0.2456	0.64906	0.68667	1.626
Mof_O 	O 	0.5814	0.2652	0.31407	-0.643
Mof_K 	K 	0.3746	0.0644	0.51617	3.175
Mof_Cu	Cu	0.02145	0.33422	0.5685	0.813
Mof_Cu	Cu	0.93024	0.29038	0.63556	0.801
Mof_Cu	Cu	0.93275	0.37988	0.63843	0.806
Mof_Cu	Cu	0.02466	0.42552	0.5648	0.807
Mof_Cu	Cu	0.1444	0.43974	0.56155	0.844
Mof_Cu	Cu	0.93254	0.33234	0.45886	0.836
Mof_S 	S 	0.09663	0.3688	0.59375	-0.756
Mof_S 	S 	0.90111	0.36655	0.74042	-0.682
Mof_S 	S 	0.0039	0.36973	0.48971	-0.655
Mof_S 	S 	0.90608	0.32382	0.56166	-0.681
Mof_S 	S 	0.97438	0.2617	0.59616	-0.835
Mof_S 	S 	0.97679	0.44991	0.59791	-0.691
Mof_O 	O 	0.7775	0.35719	0.85463	-0.466
Mof_O 	O 	0.78192	0.39972	0.76813	-0.601
Mof_O 	O 	0.0023	0.3543	0.25993	-0.724
Mof_O 	O 	0.0498	0.3287	0.29713	-0.524
Mof_O 	O 	0.77776	0.2645	0.41743	-0.354
Mof_O 	O 	0.77052	0.31533	0.47433	-0.417
Mof_O 	O 	0.9517	0.1234	0.50523	-0.371
Mof_O 	O 	0.9813	0.1686	0.42913	-0.379
Mof_O 	O 	0.9228	0.5495	0.52483	-0.494
Mof_O 	O 	0.8701	0.4798	0.50173	-0.425
Mof_N 	N 	0.18191	0.41505	0.52533	-0.235
Mof_H 	H 	0.1921	0.4272	0.48523	0.004
Mof_H 	H 	0.2063	0.4235	0.55143	0.059
Mof_N 	N 	0.80929	0.31437	0.79233	-0.261
Mof_H 	H 	0.782	0.2928	0.77673	0.063
Mof_H 	H 	0.8067	0.315	0.83643	0.058
Mof_N 	N 	0.95562	0.32362	0.37203	-0.259
Mof_H 	H 	0.9388	0.2941	0.36023	-0.039
Mof_H 	H 	0.9513	0.3403	0.34133	0.029
Mof_N 	N 	0.86974	0.31378	0.42833	-0.267
Mof_H 	H 	0.8721	0.3311	0.39323	0.068
Mof_H 	H 	0.8566	0.2847	0.41443	0.045
Mof_N 	N 	0.9921	0.1874	0.59113	-0.21
Mof_H 	H 	0.018	0.1861	0.58753	0.067
Mof_H 	H 	0.9696	0.1592	0.60183	0.076
Mof_N 	N 	0.9638	0.5242	0.62063	-0.259
Mof_H 	H 	0.9495	0.5326	0.65003	-0.078
Mof_H 	H 	0.9823	0.5491	0.59663	0.002
Mof_C 	C 	0.13	0.3407	0.56933	0.879
Mof_C 	C 	0.1572	0.3661	0.51973	-0.464
Mof_H 	H 	0.1376	0.3589	0.48103	0.092
Mof_C 	C 	0.1555	0.3442	0.62703	-1.182
Mof_H 	H 	0.1791	0.3753	0.63313	0.33
Mof_H 	H 	0.1689	0.3252	0.62233	0.312
Mof_H 	H 	0.1356	0.3344	0.66453	0.299
Mof_C 	C 	0.0966	0.2998	0.55063	-1.317
Mof_H 	H 	0.0783	0.2837	0.58803	0.34
Mof_H 	H 	0.1095	0.2828	0.53173	0.354
Mof_H 	H 	0.0778	0.3034	0.51853	0.344
Mof_C 	C 	0.86637	0.39044	0.77123	0.332
Mof_C 	C 	0.81873	0.35788	0.76643	-0.297
Mof_H 	H 	0.8118	0.3532	0.71933	0.022
Mof_C 	C 	0.792	0.3737	0.79153	0.382
Mof_C 	C 	0.8784	0.4036	0.84053	-0.608
Mof_H 	H 	0.9103	0.4254	0.84373	0.154
Mof_H 	H 	0.8716	0.3771	0.86603	0.161
Mof_H 	H 	0.861	0.4168	0.85693	0.182
Mof_C 	C 	0.8809	0.4338	0.73213	-0.458
Mof_H 	H 	0.913	0.4539	0.73713	0.082
Mof_H 	H 	0.8648	0.4485	0.74793	0.072
Mof_H 	H 	0.8739	0.4263	0.68643	0.061
Mof_C 	C 	0.03086	0.37739	0.40863	0.191
Mof_C 	C 	0.00272	0.336	0.37146	-0.172
Mof_H 	H 	0.0055	0.3112	0.39133	0.025
Mof_C 	C 	0.0213	0.3434	0.30171	0.308
Mof_C 	C 	0.0294	0.4186	0.37593	-0.358
Mof_H 	H 	0.048	0.4458	0.40063	0.077
Mof_H 	H 	0.9985	0.4126	0.37533	0.091
Mof_H 	H 	0.0406	0.4225	0.33163	0.056
Mof_C 	C 	0.0803	0.3854	0.41773	-0.378
Mof_H 	H 	0.0982	0.4128	0.44243	0.059
Mof_H 	H 	0.0939	0.3881	0.37543	0.051
Mof_H 	H 	0.0788	0.36	0.44093	0.073
Mof_C 	C 	0.84355	0.2947	0.54043	0.33
Mof_C 	C 	0.84039	0.31689	0.47383	-0.233
Mof_H 	H 	0.8528	0.3494	0.48273	0.067
Mof_C 	C 	0.794	0.2994	0.45463	0.342
Mof_C 	C 	0.83138	0.24725	0.53503	-0.612
Mof_H 	H 	0.8482	0.2438	0.49963	0.141
Mof_H 	H 	0.7993	0.2289	0.52653	0.17
Mof_H 	H 	0.8386	0.2376	0.57543	0.139
Mof_C 	C 	0.82137	0.30594	0.59323	-0.549
Mof_H 	H 	0.8323	0.3381	0.59293	0.11
Mof_H 	H 	0.8283	0.2974	0.63483	0.12
Mof_H 	H 	0.7889	0.2896	0.58653	0.136
Mof_C 	C 	0.95103	0.2143	0.53563	1.049
Mof_C 	C 	0.98296	0.19716	0.53423	-0.549
Mof_H 	H 	0.0117	0.2221	0.51723	0.151
Mof_C 	C 	0.96813	0.15803	0.48573	0.506
Mof_C 	C 	0.9085	0.1828	0.55253	-1.463
Mof_H 	H 	0.9093	0.1682	0.59263	0.4
Mof_H 	H 	0.8953	0.1604	0.51823	0.41
Mof_H 	H 	0.8905	0.1971	0.55883	0.388
Mof_C 	C 	0.947	0.2333	0.48043	-1.425
Mof_H 	H 	0.9764	0.257	0.46663	0.38
Mof_H 	H 	0.9275	0.2459	0.48823	0.36
Mof_H 	H 	0.9338	0.2105	0.44663	0.388
Mof_C 	C 	0.95083	0.47096	0.53903	0.337
Mof_C 	C 	0.92852	0.4897	0.57523	-0.26
Mof_H 	H 	0.9048	0.4655	0.60203	0.025
Mof_C 	C 	0.9039	0.5085	0.52443	0.377
Mof_C 	C 	0.99269	0.50605	0.49883	-0.597
Mof_H 	H 	0.0059	0.4906	0.47613	0.159
Mof_H 	H 	0.0149	0.5285	0.52793	0.148
Mof_H 	H 	0.9832	0.5208	0.46733	0.173
Mof_C 	C 	0.9185	0.4296	0.49703	-0.6
Mof_H 	H 	0.9356	0.4181	0.47453	0.151
Mof_H 	H 	0.9034	0.4386	0.46543	0.195
Mof_H 	H 	0.8961	0.4062	0.52483	0.152
Mof_K 	K 	0.35094	0.59654	0.35333	1.626
Mof_O 	O 	0.7348	0.3162	0.98073	-0.644
Mof_K 	K 	0.9356	0.3102	0.18283	3.146
Mof_Cu	Cu	0.33422	0.31277	0.73517	0.811
Mof_Cu	Cu	0.29038	0.36014	0.80223	0.802
Mof_Cu	Cu	0.37988	0.44713	0.8051	0.807
Mof_Cu	Cu	0.42552	0.40086	0.73147	0.806
Mof_Cu	Cu	0.43974	0.29534	0.72822	0.844
Mof_Cu	Cu	0.33234	0.3998	0.62553	0.838
Mof_S 	S 	0.3688	0.27217	0.76042	-0.756
Mof_S 	S 	0.36655	0.46544	0.90709	-0.681
Mof_S 	S 	0.36973	0.36583	0.65638	-0.662
Mof_S 	S 	0.32382	0.41774	0.72833	-0.679
Mof_S 	S 	0.2617	0.28732	0.76283	-0.826
Mof_S 	S 	0.44991	0.47312	0.76458	-0.679
Mof_O 	O 	0.35719	0.57969	0.0213	-0.462
Mof_O 	O 	0.39972	0.6178	0.9348	-0.601
Mof_O 	O 	0.3543	0.352	0.4266	-0.729
Mof_O 	O 	0.3287	0.2789	0.4638	-0.525
Mof_O 	O 	0.2645	0.48674	0.5841	-0.354
Mof_O 	O 	0.31533	0.54481	0.641	-0.417
Mof_O 	O 	0.1234	0.1717	0.6719	-0.368
Mof_O 	O 	0.1686	0.1873	0.5958	-0.373
Mof_O 	O 	0.5495	0.6267	0.6915	-0.494
Mof_O 	O 	0.4798	0.6097	0.6684	-0.424
Mof_N 	N 	0.41505	0.23314	0.692	-0.235
Mof_H 	H 	0.4272	0.2351	0.6519	0.004
Mof_H 	H 	0.4235	0.2172	0.7181	0.059
Mof_N 	N 	0.31437	0.50508	0.959	-0.265
Mof_H 	H 	0.2928	0.5108	0.9434	0.062
Mof_H 	H 	0.315	0.5083	0.0031	0.063
Mof_N 	N 	0.32362	0.368	0.5387	-0.255
Mof_H 	H 	0.2941	0.3553	0.5269	-0.039
Mof_H 	H 	0.3403	0.389	0.508	0.029
Mof_N 	N 	0.31378	0.44404	0.595	-0.267
Mof_H 	H 	0.3311	0.459	0.5599	0.068
Mof_H 	H 	0.2847	0.4281	0.5811	0.045
Mof_N 	N 	0.1874	0.1953	0.7578	-0.206
Mof_H 	H 	0.1861	0.1681	0.7542	0.062
Mof_H 	H 	0.1592	0.1896	0.7685	0.077
Mof_N 	N 	0.5242	0.5604	0.7873	-0.259
Mof_H 	H 	0.5326	0.5831	0.8167	-0.078
Mof_H 	H 	0.5491	0.5668	0.7633	0.005
Mof_C 	C 	0.3407	0.2107	0.736	0.877
Mof_C 	C 	0.3661	0.2089	0.6864	-0.463
Mof_H 	H 	0.3589	0.2213	0.6477	0.092
Mof_C 	C 	0.3442	0.1887	0.7937	-1.18
Mof_H 	H 	0.3753	0.1962	0.7998	0.33
Mof_H 	H 	0.3252	0.1563	0.789	0.312
Mof_H 	H 	0.3344	0.1988	0.8312	0.299
Mof_C 	C 	0.2998	0.2032	0.7173	-1.314
Mof_H 	H 	0.2837	0.2054	0.7547	0.339
Mof_H 	H 	0.2828	0.1733	0.6984	0.353
Mof_H 	H 	0.3034	0.2256	0.6852	0.343
Mof_C 	C 	0.39044	0.52407	0.9379	0.325
Mof_C 	C 	0.35788	0.53915	0.9331	-0.293
Mof_H 	H 	0.3532	0.5414	0.886	0.021
Mof_C 	C 	0.3737	0.5817	0.9582	0.376
Mof_C 	C 	0.4036	0.5252	0.0072	-0.598
Mof_H 	H 	0.4254	0.5151	0.0104	0.153
Mof_H 	H 	0.3771	0.5055	0.0327	0.16
Mof_H 	H 	0.4168	0.5558	0.0236	0.18
Mof_C 	C 	0.4338	0.5529	0.8988	-0.453
Mof_H 	H 	0.4539	0.5409	0.9038	0.08
Mof_H 	H 	0.4485	0.5837	0.9146	0.07
Mof_H 	H 	0.4263	0.5524	0.8531	0.06
Mof_C 	C 	0.37739	0.34653	0.5753	0.2
Mof_C 	C 	0.336	0.33328	0.53813	-0.181
Mof_H 	H 	0.3112	0.3057	0.558	0.025
Mof_C 	C 	0.3434	0.3221	0.46838	0.31
Mof_C 	C 	0.4186	0.3892	0.5426	-0.387
Mof_H 	H 	0.4458	0.3978	0.5673	0.085
Mof_H 	H 	0.4126	0.4141	0.542	0.106
Mof_H 	H 	0.4225	0.3819	0.4983	0.064
Mof_C 	C 	0.3854	0.3051	0.5844	-0.385
Mof_H 	H 	0.4128	0.3146	0.6091	0.061
Mof_H 	H 	0.3881	0.2942	0.5421	0.053
Mof_H 	H 	0.36	0.2812	0.6076	0.075
Mof_C 	C 	0.2947	0.45115	0.7071	0.33
Mof_C 	C 	0.31689	0.4765	0.6405	-0.233
Mof_H 	H 	0.3494	0.4966	0.6494	0.067
Mof_C 	C 	0.2994	0.5054	0.6213	0.342
Mof_C 	C 	0.24725	0.41587	0.7017	-0.611
Mof_H 	H 	0.2438	0.3956	0.6663	0.141
Mof_H 	H 	0.2289	0.4296	0.6932	0.17
Mof_H 	H 	0.2376	0.399	0.7421	0.139
Mof_C 	C 	0.30594	0.48457	0.7599	-0.549
Mof_H 	H 	0.3381	0.5058	0.7596	0.11
Mof_H 	H 	0.2974	0.4691	0.8015	0.12
Mof_H 	H 	0.2896	0.5007	0.7532	0.136
Mof_C 	C 	0.2143	0.26327	0.7023	1.039
Mof_C 	C 	0.19716	0.2142	0.7009	-0.534
Mof_H 	H 	0.2221	0.2104	0.6839	0.142
Mof_C 	C 	0.15803	0.1899	0.6524	0.502
Mof_C 	C 	0.1828	0.2743	0.7192	-1.453
Mof_H 	H 	0.1682	0.2589	0.7593	0.397
Mof_H 	H 	0.1604	0.2651	0.6849	0.407
Mof_H 	H 	0.1971	0.3066	0.7255	0.385
Mof_C 	C 	0.2333	0.2863	0.6471	-1.417
Mof_H 	H 	0.257	0.2806	0.6333	0.381
Mof_H 	H 	0.2459	0.3184	0.6549	0.358
Mof_H 	H 	0.2105	0.2767	0.6133	0.386
Mof_C 	C 	0.47096	0.52013	0.7057	0.321
Mof_C 	C 	0.4897	0.56118	0.7419	-0.253
Mof_H 	H 	0.4655	0.5607	0.7687	0.023
Mof_C 	C 	0.5085	0.6046	0.6911	0.375
Mof_C 	C 	0.50605	0.51336	0.6655	-0.541
Mof_H 	H 	0.4906	0.4847	0.6428	0.138
Mof_H 	H 	0.5285	0.5136	0.6946	0.127
Mof_H 	H 	0.5208	0.5376	0.634	0.159
Mof_C 	C 	0.4296	0.5111	0.6637	-0.588
Mof_H 	H 	0.4181	0.4825	0.6412	0.149
Mof_H 	H 	0.4386	0.5352	0.6321	0.192
Mof_H 	H 	0.4062	0.5101	0.6915	0.148
Mof_K 	K 	0.59654	0.2456	0.52	1.626
Mof_O 	O 	0.3162	0.5814	0.1474	-0.644
Mof_K 	K 	0.3102	0.3746	0.3495	3.167
Mof_Cu	Cu	0.68723	0.02145	0.40184	0.813
Mof_Cu	Cu	0.63986	0.93024	0.4689	0.801
Mof_Cu	Cu	0.55287	0.93275	0.47177	0.806
Mof_Cu	Cu	0.59914	0.02466	0.39814	0.807
Mof_Cu	Cu	0.70466	0.1444	0.39489	0.844
Mof_Cu	Cu	0.6002	0.93254	0.2922	0.836
Mof_S 	S 	0.72783	0.09663	0.42709	-0.756
Mof_S 	S 	0.53456	0.90111	0.57376	-0.682
Mof_S 	S 	0.63417	0.0039	0.32305	-0.655
Mof_S 	S 	0.58226	0.90608	0.395	-0.681
Mof_S 	S 	0.71268	0.97438	0.4295	-0.834
Mof_S 	S 	0.52688	0.97679	0.43125	-0.691
Mof_O 	O 	0.42031	0.7775	0.68797	-0.466
Mof_O 	O 	0.3822	0.78192	0.60147	-0.601
Mof_O 	O 	0.648	0.0023	0.09327	-0.722
Mof_O 	O 	0.7211	0.0498	0.13047	-0.521
Mof_O 	O 	0.51326	0.77776	0.25077	-0.354
Mof_O 	O 	0.45519	0.77052	0.30767	-0.417
Mof_O 	O 	0.8283	0.9517	0.33857	-0.373
Mof_O 	O 	0.8127	0.9813	0.26247	-0.379
Mof_O 	O 	0.3733	0.9228	0.35817	-0.494
Mof_O 	O 	0.3903	0.8701	0.33507	-0.425
Mof_N 	N 	0.76686	0.18191	0.35867	-0.235
Mof_H 	H 	0.7649	0.1921	0.31857	0.005
Mof_H 	H 	0.7828	0.2063	0.38477	0.059
Mof_N 	N 	0.49492	0.80929	0.62567	-0.261
Mof_H 	H 	0.4892	0.782	0.61007	0.063
Mof_H 	H 	0.4917	0.8067	0.66977	0.059
Mof_N 	N 	0.632	0.95562	0.20537	-0.259
Mof_H 	H 	0.6447	0.9388	0.19357	-0.039
Mof_H 	H 	0.611	0.9513	0.17467	0.029
Mof_N 	N 	0.55596	0.86974	0.26167	-0.267
Mof_H 	H 	0.541	0.8721	0.22657	0.068
Mof_H 	H 	0.5719	0.8566	0.24777	0.045
Mof_N 	N 	0.8047	0.9921	0.42447	-0.209
Mof_H 	H 	0.8319	0.018	0.42087	0.066
Mof_H 	H 	0.8104	0.9696	0.43517	0.076
Mof_N 	N 	0.4396	0.9638	0.45397	-0.259
Mof_H 	H 	0.4169	0.9495	0.48337	-0.079
Mof_H 	H 	0.4332	0.9823	0.42997	0.002
Mof_C 	C 	0.7893	0.13	0.40267	0.878
Mof_C 	C 	0.7911	0.1572	0.35307	-0.464
Mof_H 	H 	0.7787	0.1376	0.31437	0.092
Mof_C 	C 	0.8113	0.1555	0.46037	-1.181
Mof_H 	H 	0.8038	0.1791	0.46647	0.33
Mof_H 	H 	0.8437	0.1689	0.45567	0.312
Mof_H 	H 	0.8012	0.1356	0.49787	0.299
Mof_C 	C 	0.7968	0.0966	0.38397	-1.316
Mof_H 	H 	0.7946	0.0783	0.42137	0.34
Mof_H 	H 	0.8267	0.1095	0.36507	0.353
Mof_H 	H 	0.7744	0.0778	0.35187	0.344
Mof_C 	C 	0.47593	0.86637	0.60457	0.333
Mof_C 	C 	0.46085	0.81873	0.59977	-0.297
Mof_H 	H 	0.4586	0.8118	0.55267	0.022
Mof_C 	C 	0.4183	0.792	0.62487	0.382
Mof_C 	C 	0.4748	0.8784	0.67387	-0.61
Mof_H 	H 	0.4849	0.9103	0.67707	0.154
Mof_H 	H 	0.4945	0.8716	0.69937	0.162
Mof_H 	H 	0.4442	0.861	0.69027	0.182
Mof_C 	C 	0.4471	0.8809	0.56547	-0.459
Mof_H 	H 	0.4591	0.913	0.57047	0.082
Mof_H 	H 	0.4163	0.8648	0.58127	0.073
Mof_H 	H 	0.4476	0.8739	0.51977	0.061
Mof_C 	C 	0.65347	0.03086	0.24197	0.191
Mof_C 	C 	0.66672	0.00272	0.2048	-0.172
Mof_H 	H 	0.6943	0.0055	0.22467	0.025
Mof_C 	C 	0.6779	0.0213	0.13505	0.309
Mof_C 	C 	0.6108	0.0294	0.20927	-0.359
Mof_H 	H 	0.6022	0.048	0.23397	0.078
Mof_H 	H 	0.5859	0.9985	0.20867	0.091
Mof_H 	H 	0.6181	0.0406	0.16497	0.057
Mof_C 	C 	0.6949	0.0803	0.25107	-0.379
Mof_H 	H 	0.6854	0.0982	0.27577	0.06
Mof_H 	H 	0.7058	0.0939	0.20877	0.052
Mof_H 	H 	0.7188	0.0788	0.27427	0.074
Mof_C 	C 	0.54885	0.84355	0.37377	0.33
Mof_C 	C 	0.5235	0.84039	0.30717	-0.233
Mof_H 	H 	0.5034	0.8528	0.31607	0.067
Mof_C 	C 	0.4946	0.794	0.28797	0.342
Mof_C 	C 	0.58413	0.83138	0.36837	-0.612
Mof_H 	H 	0.6044	0.8482	0.33297	0.141
Mof_H 	H 	0.5704	0.7993	0.35987	0.17
Mof_H 	H 	0.601	0.8386	0.40877	0.139
Mof_C 	C 	0.51543	0.82137	0.42657	-0.549
Mof_H 	H 	0.4942	0.8323	0.42627	0.11
Mof_H 	H 	0.5309	0.8283	0.46817	0.12
Mof_H 	H 	0.4993	0.7889	0.41987	0.136
Mof_C 	C 	0.73673	0.95103	0.36897	1.048
Mof_C 	C 	0.7858	0.98296	0.36757	-0.548
Mof_H 	H 	0.7896	0.0117	0.35057	0.151
Mof_C 	C 	0.8101	0.96813	0.31907	0.507
Mof_C 	C 	0.7257	0.9085	0.38587	-1.463
Mof_H 	H 	0.7411	0.9093	0.42597	0.4
Mof_H 	H 	0.7349	0.8953	0.35157	0.41
Mof_H 	H 	0.6934	0.8905	0.39217	0.388
Mof_C 	C 	0.7137	0.947	0.31377	-1.424
Mof_H 	H 	0.7194	0.9764	0.29997	0.38
Mof_H 	H 	0.6816	0.9275	0.32157	0.36
Mof_H 	H 	0.7233	0.9338	0.27997	0.387
Mof_C 	C 	0.47987	0.95083	0.37237	0.337
Mof_C 	C 	0.43882	0.92852	0.40857	-0.26
Mof_H 	H 	0.4393	0.9048	0.43537	0.025
Mof_C 	C 	0.3954	0.9039	0.35777	0.377
Mof_C 	C 	0.48664	0.99269	0.33217	-0.599
Mof_H 	H 	0.5153	0.0059	0.30947	0.16
Mof_H 	H 	0.4864	0.0149	0.36127	0.149
Mof_H 	H 	0.4624	0.9832	0.30067	0.174
Mof_C 	C 	0.4889	0.9185	0.33037	-0.601
Mof_H 	H 	0.5175	0.9356	0.30787	0.152
Mof_H 	H 	0.4648	0.9034	0.29877	0.195
Mof_H 	H 	0.4899	0.8961	0.35817	0.152
Mof_K 	K 	0.7544	0.35094	0.18667	1.631
Mof_O 	O 	0.4186	0.7348	0.81407	-0.644
Mof_K 	K 	0.6254	0.9356	0.01617	3.148
Mof_Cu	Cu	0.97855	0.66578	0.0685	0.81
Mof_Cu	Cu	0.06976	0.70962	0.13556	0.802
Mof_Cu	Cu	0.06725	0.62012	0.13843	0.808
Mof_Cu	Cu	0.97534	0.57448	0.0648	0.805
Mof_Cu	Cu	0.8556	0.56026	0.06155	0.844
Mof_Cu	Cu	0.06746	0.66766	0.95886	0.838
Mof_S 	S 	0.90337	0.6312	0.09375	-0.754
Mof_S 	S 	0.09889	0.63345	0.24042	-0.68
Mof_S 	S 	0.9961	0.63027	0.98971	-0.676
Mof_S 	S 	0.09392	0.67618	0.06166	-0.674
Mof_S 	S 	0.02562	0.7383	0.09616	-0.821
Mof_S 	S 	0.02321	0.55009	0.09791	-0.673
Mof_O 	O 	0.2225	0.64281	0.35463	-0.466
Mof_O 	O 	0.21808	0.60028	0.26813	-0.602
Mof_O 	O 	0.9977	0.6457	0.75993	-0.735
Mof_O 	O 	0.9502	0.6713	0.79713	-0.527
Mof_O 	O 	0.22224	0.7355	0.91743	-0.354
Mof_O 	O 	0.22948	0.68467	0.97433	-0.419
Mof_O 	O 	0.0483	0.8766	0.00523	-0.362
Mof_O 	O 	0.0187	0.8314	0.92913	-0.372
Mof_O 	O 	0.0772	0.4505	0.02483	-0.491
Mof_O 	O 	0.1299	0.5202	0.00173	-0.422
Mof_N 	N 	0.81809	0.58495	0.02533	-0.232
Mof_H 	H 	0.8079	0.5728	0.98523	0
Mof_H 	H 	0.7937	0.5765	0.05143	0.059
Mof_N 	N 	0.19071	0.68563	0.29233	-0.261
Mof_H 	H 	0.218	0.7072	0.27673	0.063
Mof_H 	H 	0.1933	0.685	0.33643	0.059
Mof_N 	N 	0.04438	0.67638	0.87203	-0.252
Mof_H 	H 	0.0612	0.7059	0.86023	-0.039
Mof_H 	H 	0.0487	0.6597	0.84133	0.03
Mof_N 	N 	0.13026	0.68622	0.92833	-0.267
Mof_H 	H 	0.1279	0.6689	0.89323	0.068
Mof_H 	H 	0.1434	0.7153	0.91443	0.045
Mof_N 	N 	0.0079	0.8126	0.09113	-0.204
Mof_H 	H 	0.982	0.8139	0.08753	0.056
Mof_H 	H 	0.0304	0.8408	0.10183	0.076
Mof_N 	N 	0.0362	0.4758	0.12063	-0.259
Mof_H 	H 	0.0505	0.4674	0.15003	-0.078
Mof_H 	H 	0.0177	0.4509	0.09663	0.007
Mof_C 	C 	0.87	0.6593	0.06933	0.868
Mof_C 	C 	0.8428	0.6339	0.01973	-0.453
Mof_H 	H 	0.8624	0.6411	0.98103	0.085
Mof_C 	C 	0.8445	0.6558	0.12703	-1.171
Mof_H 	H 	0.8209	0.6247	0.13313	0.327
Mof_H 	H 	0.8311	0.6748	0.12233	0.309
Mof_H 	H 	0.8644	0.6656	0.16453	0.296
Mof_C 	C 	0.9034	0.7002	0.05063	-1.302
Mof_H 	H 	0.9217	0.7163	0.08803	0.335
Mof_H 	H 	0.8905	0.7172	0.03173	0.349
Mof_H 	H 	0.9222	0.6966	0.01853	0.34
Mof_C 	C 	0.13363	0.60956	0.27123	0.332
Mof_C 	C 	0.18127	0.64212	0.26643	-0.297
Mof_H 	H 	0.1882	0.6468	0.21933	0.022
Mof_C 	C 	0.208	0.6263	0.29153	0.382
Mof_C 	C 	0.1216	0.5964	0.34053	-0.609
Mof_H 	H 	0.0897	0.5746	0.34373	0.154
Mof_H 	H 	0.1284	0.6229	0.36603	0.162
Mof_H 	H 	0.139	0.5832	0.35693	0.182
Mof_C 	C 	0.1191	0.5662	0.23213	-0.459
Mof_H 	H 	0.087	0.5461	0.23713	0.082
Mof_H 	H 	0.1352	0.5515	0.24793	0.072
Mof_H 	H 	0.1261	0.5737	0.18643	0.061
Mof_C 	C 	0.96914	0.62261	0.90863	0.209
Mof_C 	C 	0.99728	0.664	0.87146	-0.191
Mof_H 	H 	0.9945	0.6888	0.89133	0.025
Mof_C 	C 	0.9787	0.6566	0.80171	0.313
Mof_C 	C 	0.9706	0.5814	0.87593	-0.417
Mof_H 	H 	0.952	0.5542	0.90063	0.093
Mof_H 	H 	0.0015	0.5874	0.87533	0.12
Mof_H 	H 	0.9594	0.5775	0.83163	0.072
Mof_C 	C 	0.9197	0.6146	0.91773	-0.391
Mof_H 	H 	0.9018	0.5872	0.94243	0.062
Mof_H 	H 	0.9061	0.6119	0.87543	0.055
Mof_H 	H 	0.9212	0.64	0.94093	0.076
Mof_C 	C 	0.15645	0.7053	0.04043	0.329
Mof_C 	C 	0.15961	0.68311	0.97383	-0.235
Mof_H 	H 	0.1472	0.6506	0.98273	0.066
Mof_C 	C 	0.206	0.7006	0.95463	0.342
Mof_C 	C 	0.16862	0.75275	0.03503	-0.597
Mof_H 	H 	0.1518	0.7562	0.99963	0.134
Mof_H 	H 	0.2007	0.7711	0.02653	0.168
Mof_H 	H 	0.1614	0.7624	0.07543	0.135
Mof_C 	C 	0.17863	0.69406	0.09323	-0.547
Mof_H 	H 	0.1677	0.6619	0.09293	0.109
Mof_H 	H 	0.1717	0.7026	0.13483	0.119
Mof_H 	H 	0.2111	0.7104	0.08653	0.135
Mof_C 	C 	0.04897	0.7857	0.03563	1.046
Mof_C 	C 	0.01704	0.80284	0.03423	-0.523
Mof_H 	H 	0.9883	0.7779	0.01723	0.135
Mof_C 	C 	0.03187	0.84197	0.98573	0.49
Mof_C 	C 	0.0915	0.8172	0.05253	-1.461
Mof_H 	H 	0.0907	0.8318	0.09263	0.399
Mof_H 	H 	0.1047	0.8396	0.01823	0.411
Mof_H 	H 	0.1095	0.8029	0.05883	0.389
Mof_C 	C 	0.053	0.7667	0.98043	-1.431
Mof_H 	H 	0.0236	0.743	0.96663	0.386
Mof_H 	H 	0.0725	0.7541	0.98823	0.361
Mof_H 	H 	0.0662	0.7895	0.94663	0.39
Mof_C 	C 	0.04917	0.52904	0.03903	0.326
Mof_C 	C 	0.07148	0.5103	0.07523	-0.254
Mof_H 	H 	0.0952	0.5345	0.10203	0.023
Mof_C 	C 	0.0961	0.4915	0.02443	0.376
Mof_C 	C 	0.00731	0.49395	0.99883	-0.521
Mof_H 	H 	0.9941	0.5094	0.97613	0.126
Mof_H 	H 	0.9851	0.4715	0.02793	0.119
Mof_H 	H 	0.0168	0.4792	0.96733	0.154
Mof_C 	C 	0.0815	0.5704	0.99703	-0.61
Mof_H 	H 	0.0644	0.5819	0.97453	0.156
Mof_H 	H 	0.0966	0.5614	0.96543	0.197
Mof_H 	H 	0.1039	0.5938	0.02483	0.158
Mof_K 	K 	0.64906	0.40346	0.85333	1.623
Mof_O 	O 	0.2652	0.6838	0.48073	-0.643
Mof_K 	K 	0.0644	0.6898	0.68283	3.173
Mof_Cu	Cu	0.68723	0.66578	0.4315	0.811
Mof_Cu	Cu	0.63986	0.70962	0.36444	0.802
Mof_Cu	Cu	0.55287	0.62012	0.36157	0.807
Mof_Cu	Cu	0.59914	0.57448	0.4352	0.806
Mof_Cu	Cu	0.70466	0.56026	0.43845	0.844
Mof_Cu	Cu	0.6002	0.66766	0.54114	0.838
Mof_S 	S 	0.72783	0.6312	0.40625	-0.756
Mof_S 	S 	0.53456	0.63345	0.25958	-0.681
Mof_S 	S 	0.63417	0.63027	0.51029	-0.662
Mof_S 	S 	0.58226	0.67618	0.43834	-0.679
Mof_S 	S 	0.71268	0.7383	0.40384	-0.825
Mof_S 	S 	0.52688	0.55009	0.40209	-0.679
Mof_O 	O 	0.42031	0.64281	0.14537	-0.466
Mof_O 	O 	0.3822	0.60028	0.23187	-0.602
Mof_O 	O 	0.648	0.6457	0.74007	-0.728
Mof_O 	O 	0.7211	0.6713	0.70287	-0.526
Mof_O 	O 	0.51326	0.7355	0.58257	-0.354
Mof_O 	O 	0.45519	0.68467	0.52567	-0.417
Mof_O 	O 	0.8283	0.8766	0.49477	-0.371
Mof_O 	O 	0.8127	0.8314	0.57087	-0.377
Mof_O 	O 	0.3733	0.4505	0.47517	-0.494
Mof_O 	O 	0.3903	0.5202	0.49827	-0.425
Mof_N 	N 	0.76686	0.58495	0.47467	-0.235
Mof_H 	H 	0.7649	0.5728	0.51477	0.004
Mof_H 	H 	0.7828	0.5765	0.44857	0.059
Mof_N 	N 	0.49492	0.68563	0.20767	-0.261
Mof_H 	H 	0.4892	0.7072	0.22327	0.062
Mof_H 	H 	0.4917	0.685	0.16357	0.059
Mof_N 	N 	0.632	0.67638	0.62797	-0.255
Mof_H 	H 	0.6447	0.7059	0.63977	-0.039
Mof_H 	H 	0.611	0.6597	0.65867	0.029
Mof_N 	N 	0.55596	0.68622	0.57167	-0.267
Mof_H 	H 	0.541	0.6689	0.60677	0.068
Mof_H 	H 	0.5719	0.7153	0.58557	0.045
Mof_N 	N 	0.8047	0.8126	0.40887	-0.206
Mof_H 	H 	0.8319	0.8139	0.41247	0.061
Mof_H 	H 	0.8104	0.8408	0.39817	0.076
Mof_N 	N 	0.4396	0.4758	0.37937	-0.259
Mof_H 	H 	0.4169	0.4674	0.34997	-0.078
Mof_H 	H 	0.4332	0.4509	0.40337	0.005
Mof_C 	C 	0.7893	0.6593	0.43067	0.875
Mof_C 	C 	0.7911	0.6339	0.48027	-0.462
Mof_H 	H 	0.7787	0.6411	0.51897	0.092
Mof_C 	C 	0.8113	0.6558	0.37297	-1.178
Mof_H 	H 	0.8038	0.6247	0.36687	0.329
Mof_H 	H 	0.8437	0.6748	0.37767	0.311
Mof_H 	H 	0.8012	0.6656	0.33547	0.298
Mof_C 	C 	0.7968	0.7002	0.44937	-1.31
Mof_H 	H 	0.7946	0.7163	0.41197	0.338
Mof_H 	H 	0.8267	0.7172	0.46827	0.351
Mof_H 	H 	0.7744	0.6966	0.48147	0.342
Mof_C 	C 	0.47593	0.60956	0.22877	0.333
Mof_C 	C 	0.46085	0.64212	0.23357	-0.297
Mof_H 	H 	0.4586	0.6468	0.28067	0.022
Mof_C 	C 	0.4183	0.6263	0.20847	0.382
Mof_C 	C 	0.4748	0.5964	0.15947	-0.611
Mof_H 	H 	0.4849	0.5746	0.15627	0.155
Mof_H 	H 	0.4945	0.6229	0.13397	0.163
Mof_H 	H 	0.4442	0.5832	0.14307	0.183
Mof_C 	C 	0.4471	0.5662	0.26787	-0.459
Mof_H 	H 	0.4591	0.5461	0.26287	0.082
Mof_H 	H 	0.4163	0.5515	0.25207	0.072
Mof_H 	H 	0.4476	0.5737	0.31357	0.061
Mof_C 	C 	0.65347	0.62261	0.59137	0.2
Mof_C 	C 	0.66672	0.664	0.62854	-0.181
Mof_H 	H 	0.6943	0.6888	0.60867	0.025
Mof_C 	C 	0.6779	0.6566	0.69829	0.31
Mof_C 	C 	0.6108	0.5814	0.62407	-0.388
Mof_H 	H 	0.6022	0.5542	0.59937	0.086
Mof_H 	H 	0.5859	0.5874	0.62467	0.106
Mof_H 	H 	0.6181	0.5775	0.66837	0.064
Mof_C 	C 	0.6949	0.6146	0.58227	-0.385
Mof_H 	H 	0.6854	0.5872	0.55757	0.061
Mof_H 	H 	0.7058	0.6119	0.62457	0.053
Mof_H 	H 	0.7188	0.64	0.55907	0.075
Mof_C 	C 	0.54885	0.7053	0.45957	0.33
Mof_C 	C 	0.5235	0.68311	0.52617	-0.233
Mof_H 	H 	0.5034	0.6506	0.51727	0.067
Mof_C 	C 	0.4946	0.7006	0.54537	0.342
Mof_C 	C 	0.58413	0.75275	0.46497	-0.611
Mof_H 	H 	0.6044	0.7562	0.50037	0.141
Mof_H 	H 	0.5704	0.7711	0.47347	0.17
Mof_H 	H 	0.601	0.7624	0.42457	0.139
Mof_C 	C 	0.51543	0.69406	0.40677	-0.549
Mof_H 	H 	0.4942	0.6619	0.40707	0.11
Mof_H 	H 	0.5309	0.7026	0.36517	0.119
Mof_H 	H 	0.4993	0.7104	0.41347	0.135
Mof_C 	C 	0.73673	0.7857	0.46437	1.039
Mof_C 	C 	0.7858	0.80284	0.46577	-0.535
Mof_H 	H 	0.7896	0.7779	0.48277	0.142
Mof_C 	C 	0.8101	0.84197	0.51427	0.503
Mof_C 	C 	0.7257	0.8172	0.44747	-1.453
Mof_H 	H 	0.7411	0.8318	0.40737	0.397
Mof_H 	H 	0.7349	0.8396	0.48177	0.407
Mof_H 	H 	0.6934	0.8029	0.44117	0.385
Mof_C 	C 	0.7137	0.7667	0.51957	-1.416
Mof_H 	H 	0.7194	0.743	0.53337	0.38
Mof_H 	H 	0.6816	0.7541	0.51177	0.358
Mof_H 	H 	0.7233	0.7895	0.55337	0.386
Mof_C 	C 	0.47987	0.52904	0.46097	0.321
Mof_C 	C 	0.43882	0.5103	0.42477	-0.253
Mof_H 	H 	0.4393	0.5345	0.39797	0.023
Mof_C 	C 	0.3954	0.4915	0.47557	0.376
Mof_C 	C 	0.48664	0.49395	0.50117	-0.541
Mof_H 	H 	0.5153	0.5094	0.52387	0.138
Mof_H 	H 	0.4864	0.4715	0.47207	0.127
Mof_H 	H 	0.4624	0.4792	0.53267	0.159
Mof_C 	C 	0.4889	0.5704	0.50297	-0.587
Mof_H 	H 	0.5175	0.5819	0.52547	0.149
Mof_H 	H 	0.4648	0.5614	0.53457	0.192
Mof_H 	H 	0.4899	0.5938	0.47517	0.148
Mof_K 	K 	0.7544	0.40346	0.64667	1.627
Mof_O 	O 	0.4186	0.6838	0.01927	-0.643
Mof_K 	K 	0.6254	0.6898	0.81717	3.161
Mof_Cu	Cu	0.97855	0.31277	0.76483	0.808
Mof_Cu	Cu	0.06976	0.36014	0.69777	0.802
Mof_Cu	Cu	0.06725	0.44713	0.6949	0.807
Mof_Cu	Cu	0.97534	0.40086	0.76853	0.803
Mof_Cu	Cu	0.8556	0.29534	0.77178	0.844
Mof_Cu	Cu	0.06746	0.3998	0.87447	0.839
Mof_S 	S 	0.90337	0.27217	0.73958	-0.757
Mof_S 	S 	0.09889	0.46544	0.59291	-0.68
Mof_S 	S 	0.9961	0.36583	0.84362	-0.673
Mof_S 	S 	0.09392	0.41774	0.77167	-0.677
Mof_S 	S 	0.02562	0.28732	0.73717	-0.818
Mof_S 	S 	0.02321	0.47312	0.73542	-0.67
Mof_O 	O 	0.2225	0.57969	0.4787	-0.466
Mof_O 	O 	0.21808	0.6178	0.5652	-0.601
Mof_O 	O 	0.9977	0.352	0.0734	-0.736
Mof_O 	O 	0.9502	0.2789	0.0362	-0.525
Mof_O 	O 	0.22224	0.48674	0.9159	-0.355
Mof_O 	O 	0.22948	0.54481	0.859	-0.418
Mof_O 	O 	0.0483	0.1717	0.8281	-0.367
Mof_O 	O 	0.0187	0.1873	0.9042	-0.372
Mof_O 	O 	0.0772	0.6267	0.8085	-0.493
Mof_O 	O 	0.1299	0.6097	0.8316	-0.424
Mof_N 	N 	0.81809	0.23314	0.808	-0.235
Mof_H 	H 	0.8079	0.2351	0.8481	0.004
Mof_H 	H 	0.7937	0.2172	0.7819	0.059
Mof_N 	N 	0.19071	0.50508	0.541	-0.261
Mof_H 	H 	0.218	0.5108	0.5566	0.062
Mof_H 	H 	0.1933	0.5083	0.4969	0.059
Mof_N 	N 	0.04438	0.368	0.9613	-0.25
Mof_H 	H 	0.0612	0.3553	0.9731	-0.04
Mof_H 	H 	0.0487	0.389	0.992	0.027
Mof_N 	N 	0.13026	0.44404	0.905	-0.267
Mof_H 	H 	0.1279	0.459	0.9401	0.066
Mof_H 	H 	0.1434	0.4281	0.9189	0.044
Mof_N 	N 	0.0079	0.1953	0.7422	-0.203
Mof_H 	H 	0.982	0.1681	0.7458	0.055
Mof_H 	H 	0.0304	0.1896	0.7315	0.077
Mof_N 	N 	0.0362	0.5604	0.7127	-0.26
Mof_H 	H 	0.0505	0.5831	0.6833	-0.078
Mof_H 	H 	0.0177	0.5668	0.7367	0.008
Mof_C 	C 	0.87	0.2107	0.764	0.873
Mof_C 	C 	0.8428	0.2089	0.8136	-0.461
Mof_H 	H 	0.8624	0.2213	0.8523	0.091
Mof_C 	C 	0.8445	0.1887	0.7063	-1.176
Mof_H 	H 	0.8209	0.1962	0.7002	0.329
Mof_H 	H 	0.8311	0.1563	0.711	0.311
Mof_H 	H 	0.8644	0.1988	0.6688	0.297
Mof_C 	C 	0.9034	0.2032	0.7827	-1.306
Mof_H 	H 	0.9217	0.2054	0.7453	0.335
Mof_H 	H 	0.8905	0.1733	0.8016	0.35
Mof_H 	H 	0.9222	0.2256	0.8148	0.34
Mof_C 	C 	0.13363	0.52407	0.5621	0.333
Mof_C 	C 	0.18127	0.53915	0.5669	-0.297
Mof_H 	H 	0.1882	0.5414	0.614	0.022
Mof_C 	C 	0.208	0.5817	0.5418	0.382
Mof_C 	C 	0.1216	0.5252	0.4928	-0.61
Mof_H 	H 	0.0897	0.5151	0.4896	0.154
Mof_H 	H 	0.1284	0.5055	0.4673	0.162
Mof_H 	H 	0.139	0.5558	0.4764	0.182
Mof_C 	C 	0.1191	0.5529	0.6012	-0.459
Mof_H 	H 	0.087	0.5409	0.5962	0.082
Mof_H 	H 	0.1352	0.5837	0.5854	0.072
Mof_H 	H 	0.1261	0.5524	0.6469	0.061
Mof_C 	C 	0.96914	0.34653	0.9247	0.215
Mof_C 	C 	0.99728	0.33328	0.96187	-0.199
Mof_H 	H 	0.9945	0.3057	0.942	0.027
Mof_C 	C 	0.9787	0.3221	0.03162	0.319
Mof_C 	C 	0.9706	0.3892	0.9574	-0.438
Mof_H 	H 	0.952	0.3978	0.9327	0.099
Mof_H 	H 	0.0015	0.4141	0.958	0.125
Mof_H 	H 	0.9594	0.3819	0.0017	0.082
Mof_C 	C 	0.9197	0.3051	0.9156	-0.396
Mof_H 	H 	0.9018	0.3146	0.8909	0.065
Mof_H 	H 	0.9061	0.2942	0.9579	0.055
Mof_H 	H 	0.9212	0.2812	0.8924	0.078
Mof_C 	C 	0.15645	0.45115	0.7929	0.33
Mof_C 	C 	0.15961	0.4765	0.8595	-0.233
Mof_H 	H 	0.1472	0.4966	0.8506	0.067
Mof_C 	C 	0.206	0.5054	0.8787	0.342
Mof_C 	C 	0.16862	0.41587	0.7983	-0.611
Mof_H 	H 	0.1518	0.3956	0.8337	0.141
Mof_H 	H 	0.2007	0.4296	0.8068	0.17
Mof_H 	H 	0.1614	0.399	0.7579	0.139
Mof_C 	C 	0.17863	0.48457	0.7401	-0.549
Mof_H 	H 	0.1677	0.5058	0.7404	0.11
Mof_H 	H 	0.1717	0.4691	0.6985	0.119
Mof_H 	H 	0.2111	0.5007	0.7468	0.135
Mof_C 	C 	0.04897	0.26327	0.7977	1.029
Mof_C 	C 	0.01704	0.2142	0.7991	-0.52
Mof_H 	H 	0.9883	0.2104	0.8161	0.132
Mof_C 	C 	0.03187	0.1899	0.8476	0.499
Mof_C 	C 	0.0915	0.2743	0.7808	-1.442
Mof_H 	H 	0.0907	0.2589	0.7407	0.394
Mof_H 	H 	0.1047	0.2651	0.8151	0.404
Mof_H 	H 	0.1095	0.3066	0.7745	0.382
Mof_C 	C 	0.053	0.2863	0.8529	-1.407
Mof_H 	H 	0.0236	0.2806	0.8667	0.38
Mof_H 	H 	0.0725	0.3184	0.8451	0.356
Mof_H 	H 	0.0662	0.2767	0.8867	0.383
Mof_C 	C 	0.04917	0.52013	0.7943	0.304
Mof_C 	C 	0.07148	0.56118	0.7581	-0.246
Mof_H 	H 	0.0952	0.5607	0.7313	0.021
Mof_C 	C 	0.0961	0.6046	0.8089	0.374
Mof_C 	C 	0.00731	0.51336	0.8345	-0.484
Mof_H 	H 	0.9941	0.4847	0.8572	0.116
Mof_H 	H 	0.9851	0.5136	0.8054	0.105
Mof_H 	H 	0.0168	0.5376	0.866	0.144
Mof_C 	C 	0.0815	0.5111	0.8363	-0.573
Mof_H 	H 	0.0644	0.4825	0.8588	0.146
Mof_H 	H 	0.0966	0.5352	0.8679	0.187
Mof_H 	H 	0.1039	0.5101	0.8085	0.144
Mof_K 	K 	0.64906	0.2456	0.98	1.612
Mof_O 	O 	0.2652	0.5814	0.3526	-0.643
Mof_K 	K 	0.0644	0.3746	0.1505	3.183
Mof_Cu	Cu	0.33422	0.02145	0.09816	0.813
Mof_Cu	Cu	0.29038	0.93024	0.0311	0.802
Mof_Cu	Cu	0.37988	0.93275	0.02823	0.807
Mof_Cu	Cu	0.42552	0.02466	0.10186	0.808
Mof_Cu	Cu	0.43974	0.1444	0.10511	0.844
Mof_Cu	Cu	0.33234	0.93254	0.2078	0.836
Mof_S 	S 	0.3688	0.09663	0.07291	-0.755
Mof_S 	S 	0.36655	0.90111	0.92624	-0.684
Mof_S 	S 	0.36973	0.0039	0.17695	-0.655
Mof_S 	S 	0.32382	0.90608	0.105	-0.681
Mof_S 	S 	0.2617	0.97438	0.0705	-0.834
Mof_S 	S 	0.44991	0.97679	0.06875	-0.69
Mof_O 	O 	0.35719	0.7775	0.81203	-0.466
Mof_O 	O 	0.39972	0.78192	0.89853	-0.604
Mof_O 	O 	0.3543	0.0023	0.40673	-0.723
Mof_O 	O 	0.3287	0.0498	0.36953	-0.524
Mof_O 	O 	0.2645	0.77776	0.24923	-0.354
Mof_O 	O 	0.31533	0.77052	0.19233	-0.417
Mof_O 	O 	0.1234	0.9517	0.16143	-0.371
Mof_O 	O 	0.1686	0.9813	0.23753	-0.379
Mof_O 	O 	0.5495	0.9228	0.14183	-0.494
Mof_O 	O 	0.4798	0.8701	0.16493	-0.425
Mof_N 	N 	0.41505	0.18191	0.14133	-0.234
Mof_H 	H 	0.4272	0.1921	0.18143	0.004
Mof_H 	H 	0.4235	0.2063	0.11523	0.059
Mof_N 	N 	0.31437	0.80929	0.87433	-0.261
Mof_H 	H 	0.2928	0.782	0.88993	0.062
Mof_H 	H 	0.315	0.8067	0.83023	0.059
Mof_N 	N 	0.32362	0.95562	0.29463	-0.26
Mof_H 	H 	0.2941	0.9388	0.30643	-0.039
Mof_H 	H 	0.3403	0.9513	0.32533	0.029
Mof_N 	N 	0.31378	0.86974	0.23833	-0.267
Mof_H 	H 	0.3311	0.8721	0.27343	0.068
Mof_H 	H 	0.2847	0.8566	0.25223	0.045
Mof_N 	N 	0.1874	0.9921	0.07553	-0.211
Mof_H 	H 	0.1861	0.018	0.07913	0.069
Mof_H 	H 	0.1592	0.9696	0.06483	0.077
Mof_N 	N 	0.5242	0.9638	0.04603	-0.259
Mof_H 	H 	0.5326	0.9495	0.01663	-0.077
Mof_H 	H 	0.5491	0.9823	0.07003	0.003
Mof_C 	C 	0.3407	0.13	0.09733	0.885
Mof_C 	C 	0.3661	0.1572	0.14693	-0.467
Mof_H 	H 	0.3589	0.1376	0.18563	0.093
Mof_C 	C 	0.3442	0.1555	0.03963	-1.192
Mof_H 	H 	0.3753	0.1791	0.03353	0.334
Mof_H 	H 	0.3252	0.1689	0.04433	0.317
Mof_H 	H 	0.3344	0.1356	0.00213	0.305
Mof_C 	C 	0.2998	0.0966	0.11603	-1.326
Mof_H 	H 	0.2837	0.0783	0.07863	0.344
Mof_H 	H 	0.2828	0.1095	0.13493	0.357
Mof_H 	H 	0.3034	0.0778	0.14813	0.347
Mof_C 	C 	0.39044	0.86637	0.89543	0.331
Mof_C 	C 	0.35788	0.81873	0.90023	-0.296
Mof_H 	H 	0.3532	0.8118	0.94733	0.02
Mof_C 	C 	0.3737	0.792	0.87513	0.382
Mof_C 	C 	0.4036	0.8784	0.82613	-0.609
Mof_H 	H 	0.4254	0.9103	0.82293	0.154
Mof_H 	H 	0.3771	0.8716	0.80063	0.162
Mof_H 	H 	0.4168	0.861	0.80973	0.182
Mof_C 	C 	0.4338	0.8809	0.93453	-0.455
Mof_H 	H 	0.4539	0.913	0.92953	0.08
Mof_H 	H 	0.4485	0.8648	0.91873	0.07
Mof_H 	H 	0.4263	0.8739	0.98023	0.058
Mof_C 	C 	0.37739	0.03086	0.25803	0.19
Mof_C 	C 	0.336	0.00272	0.2952	-0.171
Mof_H 	H 	0.3112	0.0055	0.27533	0.025
Mof_C 	C 	0.3434	0.0213	0.36495	0.308
Mof_C 	C 	0.4186	0.0294	0.29073	-0.356
Mof_H 	H 	0.4458	0.048	0.26603	0.077
Mof_H 	H 	0.4126	0.9985	0.29133	0.09
Mof_H 	H 	0.4225	0.0406	0.33503	0.056
Mof_C 	C 	0.3854	0.0803	0.24893	-0.377
Mof_H 	H 	0.4128	0.0982	0.22423	0.059
Mof_H 	H 	0.3881	0.0939	0.29123	0.05
Mof_H 	H 	0.36	0.0788	0.22573	0.073
Mof_C 	C 	0.2947	0.84355	0.12623	0.332
Mof_C 	C 	0.31689	0.84039	0.19283	-0.233
Mof_H 	H 	0.3494	0.8528	0.18393	0.067
Mof_C 	C 	0.2994	0.794	0.21203	0.342
Mof_C 	C 	0.24725	0.83138	0.13163	-0.614
Mof_H 	H 	0.2438	0.8482	0.16703	0.141
Mof_H 	H 	0.2289	0.7993	0.14013	0.171
Mof_H 	H 	0.2376	0.8386	0.09123	0.14
Mof_C 	C 	0.30594	0.82137	0.07343	-0.552
Mof_H 	H 	0.3381	0.8323	0.07373	0.111
Mof_H 	H 	0.2974	0.8283	0.03183	0.122
Mof_H 	H 	0.2896	0.7889	0.08013	0.137
Mof_C 	C 	0.2143	0.95103	0.13103	1.05
Mof_C 	C 	0.19716	0.98296	0.13243	-0.55
Mof_H 	H 	0.2221	0.0117	0.14943	0.152
Mof_C 	C 	0.15803	0.96813	0.18093	0.507
Mof_C 	C 	0.1828	0.9085	0.11413	-1.465
Mof_H 	H 	0.1682	0.9093	0.07403	0.401
Mof_H 	H 	0.1604	0.8953	0.14843	0.41
Mof_H 	H 	0.1971	0.8905	0.10783	0.39
Mof_C 	C 	0.2333	0.947	0.18623	-1.426
Mof_H 	H 	0.257	0.9764	0.20003	0.38
Mof_H 	H 	0.2459	0.9275	0.17843	0.36
Mof_H 	H 	0.2105	0.9338	0.22003	0.388
Mof_C 	C 	0.47096	0.95083	0.12763	0.338
Mof_C 	C 	0.4897	0.92852	0.09143	-0.26
Mof_H 	H 	0.4655	0.9048	0.06463	0.026
Mof_C 	C 	0.5085	0.9039	0.14223	0.377
Mof_C 	C 	0.50605	0.99269	0.16783	-0.602
Mof_H 	H 	0.4906	0.0059	0.19053	0.161
Mof_H 	H 	0.5285	0.0149	0.13873	0.15
Mof_H 	H 	0.5208	0.9832	0.19933	0.175
Mof_C 	C 	0.4296	0.9185	0.16963	-0.601
Mof_H 	H 	0.4181	0.9356	0.19213	0.152
Mof_H 	H 	0.4386	0.9034	0.20123	0.195
Mof_H 	H 	0.4062	0.8961	0.14183	0.152
Mof_K 	K 	0.59654	0.35094	0.31333	1.627
Mof_O 	O 	0.3162	0.7348	0.68593	-0.643
Mof_K 	K 	0.3102	0.9356	0.48383	3.139
Mof_Cu	Cu	0.31277	0.33422	0.9315	0.81
Mof_Cu	Cu	0.36014	0.29038	0.86444	0.801
Mof_Cu	Cu	0.44713	0.37988	0.86157	0.807
Mof_Cu	Cu	0.40086	0.42552	0.9352	0.804
Mof_Cu	Cu	0.29534	0.43974	0.93845	0.843
Mof_Cu	Cu	0.3998	0.33234	0.04114	0.839
Mof_S 	S 	0.27217	0.3688	0.90625	-0.759
Mof_S 	S 	0.46544	0.36655	0.75958	-0.681
Mof_S 	S 	0.36583	0.36973	0.01029	-0.657
Mof_S 	S 	0.41774	0.32382	0.93834	-0.683
Mof_S 	S 	0.28732	0.2617	0.90384	-0.824
Mof_S 	S 	0.47312	0.44991	0.90209	-0.677
Mof_O 	O 	0.57969	0.35719	0.64537	-0.466
Mof_O 	O 	0.6178	0.39972	0.73187	-0.601
Mof_O 	O 	0.352	0.3543	0.24007	-0.729
Mof_O 	O 	0.2789	0.3287	0.20287	-0.525
Mof_O 	O 	0.48674	0.2645	0.08257	-0.353
Mof_O 	O 	0.54481	0.31533	0.02567	-0.414
Mof_O 	O 	0.1717	0.1234	0.99477	-0.377
Mof_O 	O 	0.1873	0.1686	0.07087	-0.375
Mof_O 	O 	0.6267	0.5495	0.97517	-0.496
Mof_O 	O 	0.6097	0.4798	0.99827	-0.426
Mof_N 	N 	0.23314	0.41505	0.97467	-0.237
Mof_H 	H 	0.2351	0.4272	0.01477	0.008
Mof_H 	H 	0.2172	0.4235	0.94857	0.059
Mof_N 	N 	0.50508	0.31437	0.70767	-0.261
Mof_H 	H 	0.5108	0.2928	0.72327	0.063
Mof_H 	H 	0.5083	0.315	0.66357	0.059
Mof_N 	N 	0.368	0.32362	0.12797	-0.255
Mof_H 	H 	0.3553	0.2941	0.13977	-0.039
Mof_H 	H 	0.389	0.3403	0.15867	0.029
Mof_N 	N 	0.44404	0.31378	0.07167	-0.267
Mof_H 	H 	0.459	0.3311	0.10677	0.068
Mof_H 	H 	0.4281	0.2847	0.08557	0.045
Mof_N 	N 	0.1953	0.1874	0.90887	-0.206
Mof_H 	H 	0.1681	0.1861	0.91247	0.061
Mof_H 	H 	0.1896	0.1592	0.89817	0.077
Mof_N 	N 	0.5604	0.5242	0.87937	-0.26
Mof_H 	H 	0.5831	0.5326	0.84997	-0.078
Mof_H 	H 	0.5668	0.5491	0.90337	0.005
Mof_C 	C 	0.2107	0.3407	0.93067	0.882
Mof_C 	C 	0.2089	0.3661	0.98027	-0.472
Mof_H 	H 	0.2213	0.3589	0.01897	0.098
Mof_C 	C 	0.1887	0.3442	0.87297	-1.185
Mof_H 	H 	0.1962	0.3753	0.86687	0.331
Mof_H 	H 	0.1563	0.3252	0.87767	0.313
Mof_H 	H 	0.1988	0.3344	0.83547	0.3
Mof_C 	C 	0.2032	0.2998	0.94937	-1.318
Mof_H 	H 	0.2054	0.2837	0.91197	0.34
Mof_H 	H 	0.1733	0.2828	0.96827	0.353
Mof_H 	H 	0.2256	0.3034	0.98147	0.343
Mof_C 	C 	0.52407	0.39044	0.72877	0.333
Mof_C 	C 	0.53915	0.35788	0.73357	-0.297
Mof_H 	H 	0.5414	0.3532	0.78067	0.022
Mof_C 	C 	0.5817	0.3737	0.70847	0.382
Mof_C 	C 	0.5252	0.4036	0.65947	-0.61
Mof_H 	H 	0.5151	0.4254	0.65627	0.154
Mof_H 	H 	0.5055	0.3771	0.63397	0.162
Mof_H 	H 	0.5558	0.4168	0.64307	0.182
Mof_C 	C 	0.5529	0.4338	0.76787	-0.459
Mof_H 	H 	0.5409	0.4539	0.76287	0.082
Mof_H 	H 	0.5837	0.4485	0.75207	0.073
Mof_H 	H 	0.5524	0.4263	0.81357	0.061
Mof_C 	C 	0.34653	0.37739	0.09137	0.2
Mof_C 	C 	0.33328	0.336	0.12854	-0.182
Mof_H 	H 	0.3057	0.3112	0.10867	0.026
Mof_C 	C 	0.3221	0.3434	0.19829	0.311
Mof_C 	C 	0.3892	0.4186	0.12407	-0.388
Mof_H 	H 	0.3978	0.4458	0.09937	0.086
Mof_H 	H 	0.4141	0.4126	0.12467	0.106
Mof_H 	H 	0.3819	0.4225	0.16837	0.064
Mof_C 	C 	0.3051	0.3854	0.08227	-0.386
Mof_H 	H 	0.3146	0.4128	0.05757	0.063
Mof_H 	H 	0.2942	0.3881	0.12457	0.053
Mof_H 	H 	0.2812	0.36	0.05907	0.077
Mof_C 	C 	0.45115	0.2947	0.95957	0.332
Mof_C 	C 	0.4765	0.31689	0.02617	-0.23
Mof_H 	H 	0.4966	0.3494	0.01727	0.069
Mof_C 	C 	0.5054	0.2994	0.04537	0.342
Mof_C 	C 	0.41587	0.24725	0.96497	-0.63
Mof_H 	H 	0.3956	0.2438	0.00037	0.15
Mof_H 	H 	0.4296	0.2289	0.97347	0.174
Mof_H 	H 	0.399	0.2376	0.92457	0.144
Mof_C 	C 	0.48457	0.30594	0.90677	-0.551
Mof_H 	H 	0.5058	0.3381	0.90707	0.11
Mof_H 	H 	0.4691	0.2974	0.86517	0.12
Mof_H 	H 	0.5007	0.2896	0.91347	0.135
Mof_C 	C 	0.26327	0.2143	0.96437	1.021
Mof_C 	C 	0.2142	0.19716	0.96577	-0.534
Mof_H 	H 	0.2104	0.2221	0.98277	0.14
Mof_C 	C 	0.1899	0.15803	0.01427	0.516
Mof_C 	C 	0.2743	0.1828	0.94747	-1.433
Mof_H 	H 	0.2589	0.1682	0.90737	0.392
Mof_H 	H 	0.2651	0.1604	0.98177	0.399
Mof_H 	H 	0.3066	0.1971	0.94117	0.378
Mof_C 	C 	0.2863	0.2333	0.01957	-1.39
Mof_H 	H 	0.2806	0.257	0.03337	0.375
Mof_H 	H 	0.3184	0.2459	0.01177	0.352
Mof_H 	H 	0.2767	0.2105	0.05337	0.38
Mof_C 	C 	0.52013	0.47096	0.96097	0.298
Mof_C 	C 	0.56118	0.4897	0.92477	-0.245
Mof_H 	H 	0.5607	0.4655	0.89797	0.02
Mof_C 	C 	0.6046	0.5085	0.97557	0.373
Mof_C 	C 	0.51336	0.50605	0.00117	-0.503
Mof_H 	H 	0.4847	0.4906	0.02387	0.128
Mof_H 	H 	0.5136	0.5285	0.97207	0.113
Mof_H 	H 	0.5376	0.5208	0.03267	0.15
Mof_C 	C 	0.5111	0.4296	0.00297	-0.548
Mof_H 	H 	0.4825	0.4181	0.02547	0.139
Mof_H 	H 	0.5352	0.4386	0.03457	0.182
Mof_H 	H 	0.5101	0.4062	0.97517	0.134
Mof_K 	K 	0.2456	0.59654	0.14667	1.629
Mof_O 	O 	0.5814	0.3162	0.51927	-0.643
Mof_K 	K 	0.3746	0.3102	0.31717	3.167
Mof_Cu	Cu	0.02145	0.68723	0.26483	0.813
Mof_Cu	Cu	0.93024	0.63986	0.19777	0.801
Mof_Cu	Cu	0.93275	0.55287	0.1949	0.806
Mof_Cu	Cu	0.02466	0.59914	0.26853	0.807
Mof_Cu	Cu	0.1444	0.70466	0.27178	0.844
Mof_Cu	Cu	0.93254	0.6002	0.37447	0.836
Mof_S 	S 	0.09663	0.72783	0.23958	-0.756
Mof_S 	S 	0.90111	0.53456	0.09291	-0.681
Mof_S 	S 	0.0039	0.63417	0.34362	-0.656
Mof_S 	S 	0.90608	0.58226	0.27167	-0.681
Mof_S 	S 	0.97438	0.71268	0.23717	-0.834
Mof_S 	S 	0.97679	0.52688	0.23542	-0.69
Mof_O 	O 	0.7775	0.42031	0.9787	-0.47
Mof_O 	O 	0.78192	0.3822	0.0652	-0.602
Mof_O 	O 	0.0023	0.648	0.5734	-0.723
Mof_O 	O 	0.0498	0.7211	0.5362	-0.524
Mof_O 	O 	0.77776	0.51326	0.4159	-0.354
Mof_O 	O 	0.77052	0.45519	0.359	-0.417
Mof_O 	O 	0.9517	0.8283	0.3281	-0.373
Mof_O 	O 	0.9813	0.8127	0.4042	-0.38
Mof_O 	O 	0.9228	0.3733	0.3085	-0.494
Mof_O 	O 	0.8701	0.3903	0.3316	-0.425
Mof_N 	N 	0.18191	0.76686	0.308	-0.235
Mof_H 	H 	0.1921	0.7649	0.3481	0.004
Mof_H 	H 	0.2063	0.7828	0.2819	0.059
Mof_N 	N 	0.80929	0.49492	0.041	-0.257
Mof_H 	H 	0.782	0.4892	0.0566	0.063
Mof_H 	H 	0.8067	0.4917	0.9969	0.054
Mof_N 	N 	0.95562	0.632	0.4613	-0.259
Mof_H 	H 	0.9388	0.6447	0.4731	-0.039
Mof_H 	H 	0.9513	0.611	0.492	0.029
Mof_N 	N 	0.86974	0.55596	0.405	-0.267
Mof_H 	H 	0.8721	0.541	0.4401	0.068
Mof_H 	H 	0.8566	0.5719	0.4189	0.045
Mof_N 	N 	0.9921	0.8047	0.2422	-0.209
Mof_H 	H 	0.018	0.8319	0.2458	0.066
Mof_H 	H 	0.9696	0.8104	0.2315	0.076
Mof_N 	N 	0.9638	0.4396	0.2127	-0.259
Mof_H 	H 	0.9495	0.4169	0.1833	-0.079
Mof_H 	H 	0.9823	0.4332	0.2367	0.002
Mof_C 	C 	0.13	0.7893	0.264	0.877
Mof_C 	C 	0.1572	0.7911	0.3136	-0.463
Mof_H 	H 	0.1376	0.7787	0.3523	0.092
Mof_C 	C 	0.1555	0.8113	0.2063	-1.18
Mof_H 	H 	0.1791	0.8038	0.2002	0.33
Mof_H 	H 	0.1689	0.8437	0.211	0.312
Mof_H 	H 	0.1356	0.8012	0.1688	0.299
Mof_C 	C 	0.0966	0.7968	0.2827	-1.314
Mof_H 	H 	0.0783	0.7946	0.2453	0.339
Mof_H 	H 	0.1095	0.8267	0.3016	0.352
Mof_H 	H 	0.0778	0.7744	0.3148	0.344
Mof_C 	C 	0.86637	0.47593	0.0621	0.341
Mof_C 	C 	0.81873	0.46085	0.0669	-0.301
Mof_H 	H 	0.8118	0.4586	0.114	0.023
Mof_C 	C 	0.792	0.4183	0.0418	0.389
Mof_C 	C 	0.8784	0.4748	0.9928	-0.622
Mof_H 	H 	0.9103	0.4849	0.9896	0.156
Mof_H 	H 	0.8716	0.4945	0.9673	0.165
Mof_H 	H 	0.861	0.4442	0.9764	0.184
Mof_C 	C 	0.8809	0.4471	0.1012	-0.465
Mof_H 	H 	0.913	0.4591	0.0962	0.084
Mof_H 	H 	0.8648	0.4163	0.0854	0.075
Mof_H 	H 	0.8739	0.4476	0.1469	0.062
Mof_C 	C 	0.03086	0.65347	0.4247	0.191
Mof_C 	C 	0.00272	0.66672	0.46187	-0.172
Mof_H 	H 	0.0055	0.6943	0.442	0.025
Mof_C 	C 	0.0213	0.6779	0.53162	0.308
Mof_C 	C 	0.0294	0.6108	0.4574	-0.359
Mof_H 	H 	0.048	0.6022	0.4327	0.078
Mof_H 	H 	0.9985	0.5859	0.458	0.092
Mof_H 	H 	0.0406	0.6181	0.5017	0.057
Mof_C 	C 	0.0803	0.6949	0.4156	-0.378
Mof_H 	H 	0.0982	0.6854	0.3909	0.059
Mof_H 	H 	0.0939	0.7058	0.4579	0.051
Mof_H 	H 	0.0788	0.7188	0.3924	0.074
Mof_C 	C 	0.84355	0.54885	0.2929	0.33
Mof_C 	C 	0.84039	0.5235	0.3595	-0.233
Mof_H 	H 	0.8528	0.5034	0.3506	0.067
Mof_C 	C 	0.794	0.4946	0.3787	0.342
Mof_C 	C 	0.83138	0.58413	0.2983	-0.611
Mof_H 	H 	0.8482	0.6044	0.3337	0.141
Mof_H 	H 	0.7993	0.5704	0.3068	0.17
Mof_H 	H 	0.8386	0.601	0.2579	0.139
Mof_C 	C 	0.82137	0.51543	0.2401	-0.549
Mof_H 	H 	0.8323	0.4942	0.2404	0.109
Mof_H 	H 	0.8283	0.5309	0.1985	0.119
Mof_H 	H 	0.7889	0.4993	0.2468	0.135
Mof_C 	C 	0.95103	0.73673	0.2977	1.047
Mof_C 	C 	0.98296	0.7858	0.2991	-0.547
Mof_H 	H 	0.0117	0.7896	0.3161	0.15
Mof_C 	C 	0.96813	0.8101	0.3476	0.506
Mof_C 	C 	0.9085	0.7257	0.2808	-1.462
Mof_H 	H 	0.9093	0.7411	0.2407	0.4
Mof_H 	H 	0.8953	0.7349	0.3151	0.409
Mof_H 	H 	0.8905	0.6934	0.2745	0.388
Mof_C 	C 	0.947	0.7137	0.3529	-1.424
Mof_H 	H 	0.9764	0.7194	0.3667	0.38
Mof_H 	H 	0.9275	0.6816	0.3451	0.359
Mof_H 	H 	0.9338	0.7233	0.3867	0.387
Mof_C 	C 	0.95083	0.47987	0.2943	0.336
Mof_C 	C 	0.92852	0.43882	0.2581	-0.26
Mof_H 	H 	0.9048	0.4393	0.2313	0.025
Mof_C 	C 	0.9039	0.3954	0.3089	0.377
Mof_C 	C 	0.99269	0.48664	0.3345	-0.596
Mof_H 	H 	0.0059	0.5153	0.3572	0.158
Mof_H 	H 	0.0149	0.4864	0.3054	0.148
Mof_H 	H 	0.9832	0.4624	0.366	0.173
Mof_C 	C 	0.9185	0.4889	0.3363	-0.6
Mof_H 	H 	0.9356	0.5175	0.3588	0.151
Mof_H 	H 	0.9034	0.4648	0.3679	0.195
Mof_H 	H 	0.8961	0.4899	0.3085	0.152
Mof_K 	K 	0.35094	0.7544	0.48	1.627
Mof_O 	O 	0.7348	0.4186	0.8526	-0.643
Mof_K 	K 	0.9356	0.6254	0.6505	3.139
Mof_Cu	Cu	0.66578	0.97855	0.59816	0.809
Mof_Cu	Cu	0.70962	0.06976	0.5311	0.802
Mof_Cu	Cu	0.62012	0.06725	0.52823	0.807
Mof_Cu	Cu	0.57448	0.97534	0.60186	0.803
Mof_Cu	Cu	0.56026	0.8556	0.60511	0.844
Mof_Cu	Cu	0.66766	0.06746	0.7078	0.839
Mof_S 	S 	0.6312	0.90337	0.57291	-0.757
Mof_S 	S 	0.63345	0.09889	0.42624	-0.68
Mof_S 	S 	0.63027	0.9961	0.67695	-0.67
Mof_S 	S 	0.67618	0.09392	0.605	-0.677
Mof_S 	S 	0.7383	0.02562	0.5705	-0.819
Mof_S 	S 	0.55009	0.02321	0.56875	-0.671
Mof_O 	O 	0.64281	0.2225	0.31203	-0.466
Mof_O 	O 	0.60028	0.21808	0.39853	-0.602
Mof_O 	O 	0.6457	0.9977	0.90673	-0.733
Mof_O 	O 	0.6713	0.9502	0.86953	-0.528
Mof_O 	O 	0.7355	0.22224	0.74923	-0.354
Mof_O 	O 	0.68467	0.22948	0.69233	-0.417
Mof_O 	O 	0.8766	0.0483	0.66143	-0.369
Mof_O 	O 	0.8314	0.0187	0.73753	-0.373
Mof_O 	O 	0.4505	0.0772	0.64183	-0.493
Mof_O 	O 	0.5202	0.1299	0.66493	-0.424
Mof_N 	N 	0.58495	0.81809	0.64133	-0.235
Mof_H 	H 	0.5728	0.8079	0.68143	0.004
Mof_H 	H 	0.5765	0.7937	0.61523	0.059
Mof_N 	N 	0.68563	0.19071	0.37433	-0.261
Mof_H 	H 	0.7072	0.218	0.38993	0.063
Mof_H 	H 	0.685	0.1933	0.33023	0.059
Mof_N 	N 	0.67638	0.04438	0.79463	-0.252
Mof_H 	H 	0.7059	0.0612	0.80643	-0.038
Mof_H 	H 	0.6597	0.0487	0.82533	0.03
Mof_N 	N 	0.68622	0.13026	0.73833	-0.267
Mof_H 	H 	0.6689	0.1279	0.77343	0.068
Mof_H 	H 	0.7153	0.1434	0.75223	0.045
Mof_N 	N 	0.8126	0.0079	0.57553	-0.203
Mof_H 	H 	0.8139	0.982	0.57913	0.055
Mof_H 	H 	0.8408	0.0304	0.56483	0.076
Mof_N 	N 	0.4758	0.0362	0.54603	-0.26
Mof_H 	H 	0.4674	0.0505	0.51663	-0.078
Mof_H 	H 	0.4509	0.0177	0.57003	0.007
Mof_C 	C 	0.6593	0.87	0.59733	0.873
Mof_C 	C 	0.6339	0.8428	0.64693	-0.462
Mof_H 	H 	0.6411	0.8624	0.68563	0.091
Mof_C 	C 	0.6558	0.8445	0.53963	-1.176
Mof_H 	H 	0.6247	0.8209	0.53353	0.329
Mof_H 	H 	0.6748	0.8311	0.54433	0.31
Mof_H 	H 	0.6656	0.8644	0.50213	0.297
Mof_C 	C 	0.7002	0.9034	0.61603	-1.306
Mof_H 	H 	0.7163	0.9217	0.57863	0.336
Mof_H 	H 	0.7172	0.8905	0.63493	0.35
Mof_H 	H 	0.6966	0.9222	0.64813	0.34
Mof_C 	C 	0.60956	0.13363	0.39543	0.333
Mof_C 	C 	0.64212	0.18127	0.40023	-0.297
Mof_H 	H 	0.6468	0.1882	0.44733	0.022
Mof_C 	C 	0.6263	0.208	0.37513	0.382
Mof_C 	C 	0.5964	0.1216	0.32613	-0.61
Mof_H 	H 	0.5746	0.0897	0.32293	0.154
Mof_H 	H 	0.6229	0.1284	0.30063	0.162
Mof_H 	H 	0.5832	0.139	0.30973	0.182
Mof_C 	C 	0.5662	0.1191	0.43453	-0.459
Mof_H 	H 	0.5461	0.087	0.42953	0.082
Mof_H 	H 	0.5515	0.1352	0.41873	0.072
Mof_H 	H 	0.5737	0.1261	0.48023	0.061
Mof_C 	C 	0.62261	0.96914	0.75803	0.208
Mof_C 	C 	0.664	0.99728	0.7952	-0.19
Mof_H 	H 	0.6888	0.9945	0.77533	0.026
Mof_C 	C 	0.6566	0.9787	0.86495	0.312
Mof_C 	C 	0.5814	0.9706	0.79073	-0.413
Mof_H 	H 	0.5542	0.952	0.76603	0.093
Mof_H 	H 	0.5874	0.0015	0.79133	0.119
Mof_H 	H 	0.5775	0.9594	0.83503	0.071
Mof_C 	C 	0.6146	0.9197	0.74893	-0.391
Mof_H 	H 	0.5872	0.9018	0.72423	0.063
Mof_H 	H 	0.6119	0.9061	0.79123	0.055
Mof_H 	H 	0.64	0.9212	0.72573	0.077
Mof_C 	C 	0.7053	0.15645	0.62623	0.33
Mof_C 	C 	0.68311	0.15961	0.69283	-0.233
Mof_H 	H 	0.6506	0.1472	0.68393	0.067
Mof_C 	C 	0.7006	0.206	0.71203	0.342
Mof_C 	C 	0.75275	0.16862	0.63163	-0.611
Mof_H 	H 	0.7562	0.1518	0.66703	0.141
Mof_H 	H 	0.7711	0.2007	0.64013	0.17
Mof_H 	H 	0.7624	0.1614	0.59123	0.139
Mof_C 	C 	0.69406	0.17863	0.57343	-0.549
Mof_H 	H 	0.6619	0.1677	0.57373	0.11
Mof_H 	H 	0.7026	0.1717	0.53183	0.119
Mof_H 	H 	0.7104	0.2111	0.58013	0.135
Mof_C 	C 	0.7857	0.04897	0.63103	1.032
Mof_C 	C 	0.80284	0.01704	0.63243	-0.523
Mof_H 	H 	0.7779	0.9883	0.64943	0.133
Mof_C 	C 	0.84197	0.03187	0.68093	0.5
Mof_C 	C 	0.8172	0.0915	0.61413	-1.445
Mof_H 	H 	0.8318	0.0907	0.57403	0.395
Mof_H 	H 	0.8396	0.1047	0.64843	0.404
Mof_H 	H 	0.8029	0.1095	0.60783	0.383
Mof_C 	C 	0.7667	0.053	0.68623	-1.41
Mof_H 	H 	0.743	0.0236	0.70003	0.381
Mof_H 	H 	0.7541	0.0725	0.67843	0.357
Mof_H 	H 	0.7895	0.0662	0.72003	0.384
Mof_C 	C 	0.52904	0.04917	0.62763	0.306
Mof_C 	C 	0.5103	0.07148	0.59143	-0.247
Mof_H 	H 	0.5345	0.0952	0.56463	0.021
Mof_C 	C 	0.4915	0.0961	0.64223	0.374
Mof_C 	C 	0.49395	0.00731	0.66783	-0.489
Mof_H 	H 	0.5094	0.9941	0.69053	0.118
Mof_H 	H 	0.4715	0.9851	0.63873	0.107
Mof_H 	H 	0.4792	0.0168	0.69933	0.146
Mof_C 	C 	0.5704	0.0815	0.66963	-0.576
Mof_H 	H 	0.5819	0.0644	0.69213	0.147
Mof_H 	H 	0.5614	0.0966	0.70123	0.189
Mof_H 	H 	0.5938	0.1039	0.64183	0.145
Mof_K 	K 	0.40346	0.64906	0.81333	1.623
Mof_O 	O 	0.6838	0.2652	0.18593	-0.643
Mof_K 	K 	0.6898	0.0644	0.98383	3.145
Mof_Cu	Cu	0.77027	0.77027	0.33333	0.828
Mof_Cu	Cu	0.49269	0.49269	0.33333	0.843
Mof_Cl	Cl	0.63118	0.63118	0.33333	-1.11
Mof_Cu	Cu	0.22973	0	-0	0.834
Mof_Cu	Cu	0.50731	0	-0	0.85
Mof_Cl	Cl	0.36882	0	-0	-1.098
Mof_Cu	Cu	1.44431e-17	0.22973	0.66667	0.831
Mof_Cu	Cu	-4.90144e-17	0.50731	0.66667	0.847
Mof_Cl	Cl	3.55957e-17	0.36882	0.66667	-1.103
Mof_Cu	Cu	0.22973	0.22973	0.83333	0.828
Mof_Cu	Cu	0.50731	0.50731	0.83333	0.844
Mof_Cl	Cl	0.36882	0.36882	0.83333	-1.11
Mof_Cu	Cu	0.77027	0	0.5	0.831
Mof_Cu	Cu	0.49269	0	0.5	0.847
Mof_Cl	Cl	0.63118	0	0.5	-1.104
Mof_Cu	Cu	-1.22538e-17	0.77027	0.16667	0.83
Mof_Cu	Cu	-1.22538e-17	0.49269	0.16667	0.846
Mof_Cl	Cl	-5.45588e-17	0.63118	0.16667	-1.104
Mof_Co	Co	0.63271	0.36729	0.58333	1.008
Mof_Co	Co	0.63271	0.26542	0.25	1.008
Mof_Co	Co	0.73458	0.36729	0.91667	1.008
Mof_Co	Co	0.36729	0.63271	0.08333	1.008
Mof_Co	Co	0.36729	0.73458	0.75	1.008
Mof_Co	Co	0.26542	0.63271	0.41667	1.008
Mof_O 	O 	0.6643	0.6643	0.83333	-1.53
Mof_O 	O 	0.3357	0	0.5	-1.524
Mof_O 	O 	-3.34063e-17	0.3357	0.16667	-1.526
Mof_O 	O 	0.3357	0.3357	0.33333	-1.532
Mof_O 	O 	0.6643	0	-0	-1.516
Mof_O 	O 	-4.90144e-17	0.6643	0.66667	-1.524
_end
