data_functionalizedCrystal
_audit_creation_method	'EQeq! by Chris Wilmer'
_symmetry_space_group_name_H-M	'P1'
_symmetry_Int_Tables_number	1
_symmetry_cell_setting	triclinic
loop_
_symmetry_equiv_pos_as_xyz
  x,y,z
_cell_length_a	8.3661
_cell_length_b	29.139
_cell_length_c	18.8583
_cell_angle_alpha	90
_cell_angle_beta	94.307
_cell_angle_gamma	90
loop_
_atom_site_label
_atom_site_type_symbol
_atom_site_fract_x
_atom_site_fract_y
_atom_site_fract_z
_atom_site_charge
Mof_Ni	Ni	0.02097	0.74354	0.72388	1.086
Mof_N 	N 	0.2104	0.51525	0.45409	-0.24
Mof_N 	N 	0.4204	0.55753	0.43398	-0.162
Mof_N 	N 	0.8266	0.72767	0.26475	-0.223
Mof_N 	N 	0.6858	0.68903	0.33822	-0.159
Mof_N 	N 	0.8958	0.6915	0.6755	-0.226
Mof_N 	N 	0.7636	0.65361	0.58925	-0.166
Mof_O 	O 	0.8724	0.51214	0.40532	-0.409
Mof_O 	O 	0.9328	0.58619	0.39258	-0.267
Mof_O 	O 	0.104	0.7104	0.81409	-0.401
Mof_O 	O 	0.2452	0.70206	0.72174	-0.355
Mof_O 	O 	0.9822	0.2866	0.86442	-0.364
Mof_O 	O 	0.8422	0.30613	0.76658	-0.356
Mof_C 	C 	0.5983	0.60444	0.51	-0.294
Mof_H 	H 	0.582	0.5849	0.5478	0.137
Mof_C 	C 	0.528	0.59538	0.44313	0.24
Mof_C 	C 	0.5535	0.62313	0.38544	-0.29
Mof_H 	H 	0.5059	0.6167	0.3404	0.142
Mof_C 	C 	0.6522	0.66066	0.39737	0.248
Mof_C 	C 	0.7213	0.67163	0.46364	-0.29
Mof_H 	H 	0.7851	0.6976	0.4703	0.148
Mof_C 	C 	0.6939	0.64308	0.52023	0.24
Mof_C 	C 	0.3112	0.54627	0.48035	0.108
Mof_H 	H 	0.308	0.559	0.5254	-0.019
Mof_C 	C 	0.2564	0.50606	0.3872	0.003
Mof_H 	H 	0.206	0.4852	0.3556	0.012
Mof_C 	C 	0.3851	0.53166	0.374	0.008
Mof_H 	H 	0.439	0.5318	0.3326	0.029
Mof_C 	C 	0.8319	0.70413	0.3241	0.114
Mof_H 	H 	0.9251	0.6986	0.3529	0.01
Mof_C 	C 	0.5796	0.70424	0.284	0.003
Mof_H 	H 	0.4696	0.6991	0.2789	0.046
Mof_C 	C 	0.6681	0.72812	0.2398	0.013
Mof_H 	H 	0.6276	0.7428	0.1985	0.028
Mof_C 	C 	0.8501	0.69056	0.60817	0.119
Mof_H 	H 	0.8753	0.7134	0.5764	-0.003
Mof_C 	C 	0.8388	0.65228	0.7018	0.013
Mof_H 	H 	0.8528	0.6431	0.7491	0.031
Mof_C 	C 	0.7594	0.62876	0.6501	0.011
Mof_H 	H 	0.71	0.6004	0.6547	0.022
Mof_C 	C 	0.8268	0.54507	0.2914	-0.089
Mof_C 	C 	0.7911	0.50282	0.26063	0.02
Mof_H 	H 	0.7931	0.4766	0.2888	0.038
Mof_C 	C 	0.7523	0.49926	0.18799	-0.09
Mof_H 	H 	0.7273	0.4707	0.1682	0.065
Mof_C 	C 	0.7502	0.53769	0.14431	0.022
Mof_C 	C 	0.7796	0.57993	0.17613	-0.084
Mof_H 	H 	0.7733	0.6064	0.1484	0.067
Mof_C 	C 	0.8182	0.58347	0.24838	0.021
Mof_H 	H 	0.8388	0.6122	0.2684	0.046
Mof_C 	C 	0.7195	0.53332	0.06593	0.086
Mof_C 	C 	0.7669	0.49371	0.03161	-0.158
Mof_H 	H 	0.8166	0.4702	0.0584	0.087
Mof_C 	C 	0.7416	0.48842	0.95826	0.087
Mof_C 	C 	0.6679	0.52417	0.91915	-0.142
Mof_H 	H 	0.6516	0.5213	0.87	0.081
Mof_C 	C 	0.6183	0.56382	0.95155	0.097
Mof_C 	C 	0.6458	0.56819	0.02506	-0.166
Mof_H 	H 	0.6144	0.5949	0.0472	0.086
Mof_C 	C 	0.5255	0.59933	0.90928	0.017
Mof_C 	C 	0.5504	0.60782	0.8383	-0.084
Mof_H 	H 	0.6324	0.5926	0.8172	0.059
Mof_C 	C 	0.4543	0.63865	0.79872	0.012
Mof_H 	H 	0.4722	0.6438	0.7513	0.039
Mof_C 	C 	0.3319	0.66189	0.82881	-0.086
Mof_C 	C 	0.3081	0.65398	0.8995	0.016
Mof_H 	H 	0.2265	0.6693	0.9206	0.042
Mof_C 	C 	0.4042	0.62361	0.93894	-0.087
Mof_H 	H 	0.3876	0.6192	0.9867	0.072
Mof_C 	C 	0.2223	0.69317	0.78551	0.299
Mof_C 	C 	0.7839	0.44478	0.92433	0.052
Mof_C 	C 	0.6989	0.42945	0.8624	-0.117
Mof_H 	H 	0.6176	0.4476	0.841	0.073
Mof_C 	C 	0.7336	0.38766	0.8322	0.055
Mof_H 	H 	0.6758	0.3782	0.7907	0.025
Mof_C 	C 	0.853	0.35981	0.86291	-0.124
Mof_C 	C 	0.9373	0.37438	0.92507	0.114
Mof_H 	H 	0.0162	0.3557	0.9471	-0.014
Mof_C 	C 	0.9047	0.41665	0.95453	-0.14
Mof_H 	H 	0.9648	0.4263	0.9953	0.099
Mof_C 	C 	0.8932	0.31541	0.82976	0.312
Mof_C 	C 	0.8814	0.54836	0.36932	0.334
Mof_Ni	Ni	0.97903	0.24354	0.77612	1.109
Mof_N 	N 	0.7896	0.01525	0.04591	-0.221
Mof_N 	N 	0.5796	0.05753	0.06602	-0.155
Mof_N 	N 	0.1734	0.22767	0.23525	-0.241
Mof_N 	N 	0.3142	0.18903	0.16178	-0.16
Mof_N 	N 	0.1042	0.1915	0.8245	-0.246
Mof_N 	N 	0.2364	0.15361	0.91075	-0.167
Mof_O 	O 	0.1276	0.01214	0.09468	-0.435
Mof_O 	O 	0.0672	0.08619	0.10742	-0.291
Mof_O 	O 	0.896	0.2104	0.68591	-0.374
Mof_O 	O 	0.7548	0.20206	0.77826	-0.341
Mof_O 	O 	0.0178	0.7866	0.63558	-0.393
Mof_O 	O 	0.1578	0.80613	0.73342	-0.362
Mof_C 	C 	0.4017	0.10444	0.99	-0.268
Mof_H 	H 	0.418	0.0849	0.9522	0.13
Mof_C 	C 	0.472	0.09538	0.05687	0.217
Mof_C 	C 	0.4465	0.12313	0.11456	-0.281
Mof_H 	H 	0.4941	0.1167	0.1596	0.142
Mof_C 	C 	0.3478	0.16066	0.10263	0.247
Mof_C 	C 	0.2787	0.17163	0.03636	-0.311
Mof_H 	H 	0.2149	0.1976	0.0297	0.142
Mof_C 	C 	0.3061	0.14308	0.97977	0.25
Mof_C 	C 	0.6888	0.04627	0.01965	0.076
Mof_H 	H 	0.692	0.059	0.9746	0.011
Mof_C 	C 	0.7436	0.00606	0.1128	-0.014
Mof_H 	H 	0.794	0.9852	0.1444	0.039
Mof_C 	C 	0.6149	0.03166	0.126	0.021
Mof_H 	H 	0.561	0.0318	0.1674	0.025
Mof_C 	C 	0.1681	0.20413	0.1759	0.109
Mof_H 	H 	0.0749	0.1986	0.1471	-0.01
Mof_C 	C 	0.4204	0.20424	0.216	0.002
Mof_H 	H 	0.5304	0.1991	0.2211	0.049
Mof_C 	C 	0.3319	0.22812	0.2602	0.011
Mof_H 	H 	0.3724	0.2428	0.3015	0.027
Mof_C 	C 	0.1499	0.19056	0.89183	0.116
Mof_H 	H 	0.1247	0.2134	0.9236	-0.014
Mof_C 	C 	0.1612	0.15228	0.7982	0.009
Mof_H 	H 	0.1472	0.1431	0.7509	0.016
Mof_C 	C 	0.2406	0.12876	0.8499	0.005
Mof_H 	H 	0.29	0.1004	0.8453	0.021
Mof_C 	C 	0.1732	0.04507	0.2086	-0.071
Mof_C 	C 	0.2089	0.00282	0.23937	-0.046
Mof_H 	H 	0.2069	0.9766	0.2112	0.057
Mof_C 	C 	0.2477	0.99926	0.31201	-0.038
Mof_H 	H 	0.2727	0.9707	0.3318	0.044
Mof_C 	C 	0.2498	0.03769	0.35569	-0.012
Mof_C 	C 	0.2204	0.07993	0.32387	-0.068
Mof_H 	H 	0.2267	0.1064	0.3516	0.052
Mof_C 	C 	0.1818	0.08347	0.25162	-0.008
Mof_H 	H 	0.1612	0.1122	0.2316	0.047
Mof_C 	C 	0.2805	0.03332	0.43407	0.064
Mof_C 	C 	0.2331	0.99371	0.46839	-0.135
Mof_H 	H 	0.1834	0.9702	0.4416	0.077
Mof_C 	C 	0.2584	0.98842	0.54174	0.088
Mof_C 	C 	0.3321	0.02417	0.58085	-0.157
Mof_H 	H 	0.3484	0.0213	0.63	0.079
Mof_C 	C 	0.3817	0.06382	0.54845	0.071
Mof_C 	C 	0.3542	0.06819	0.47494	-0.14
Mof_H 	H 	0.3856	0.0949	0.4528	0.079
Mof_C 	C 	0.4745	0.09933	0.59072	0.014
Mof_C 	C 	0.4496	0.10782	0.6617	-0.082
Mof_H 	H 	0.3676	0.0926	0.6828	0.052
Mof_C 	C 	0.5457	0.13865	0.70128	0.005
Mof_H 	H 	0.5278	0.1438	0.7487	0.043
Mof_C 	C 	0.6681	0.16189	0.67119	-0.074
Mof_C 	C 	0.6919	0.15398	0.6005	0.008
Mof_H 	H 	0.7735	0.1693	0.5794	0.051
Mof_C 	C 	0.5958	0.12361	0.56106	-0.083
Mof_H 	H 	0.6124	0.1192	0.5133	0.064
Mof_C 	C 	0.7777	0.19317	0.71449	0.294
Mof_C 	C 	0.2161	0.94478	0.57567	-0.025
Mof_C 	C 	0.3011	0.92945	0.6376	-0.049
Mof_H 	H 	0.3824	0.9476	0.659	0.048
Mof_C 	C 	0.2664	0.88766	0.6678	-0.031
Mof_H 	H 	0.3242	0.8782	0.7093	0.05
Mof_C 	C 	0.147	0.85981	0.63709	-0.032
Mof_C 	C 	0.0627	0.87438	0.57493	-0.115
Mof_H 	H 	0.9838	0.8557	0.5529	0.113
Mof_C 	C 	0.0953	0.91665	0.54547	-0.014
Mof_H 	H 	0.0352	0.9263	0.5047	0.027
Mof_C 	C 	0.1068	0.81541	0.67024	0.27
Mof_C 	C 	0.1186	0.04836	0.13068	0.323
Mof_Ni	Ni	0.97903	0.25646	0.27612	1.109
Mof_N 	N 	0.7896	0.48475	0.54591	-0.226
Mof_N 	N 	0.5796	0.44247	0.56602	-0.161
Mof_N 	N 	0.1734	0.27233	0.73525	-0.24
Mof_N 	N 	0.3142	0.31097	0.66178	-0.159
Mof_N 	N 	0.1042	0.3085	0.3245	-0.247
Mof_N 	N 	0.2364	0.34639	0.41075	-0.167
Mof_O 	O 	0.1276	0.48786	0.59468	-0.431
Mof_O 	O 	0.0672	0.41381	0.60742	-0.291
Mof_O 	O 	0.896	0.2896	0.18591	-0.377
Mof_O 	O 	0.7548	0.29794	0.27826	-0.343
Mof_O 	O 	0.0178	0.7134	0.13558	-0.397
Mof_O 	O 	0.1578	0.69387	0.23342	-0.364
Mof_C 	C 	0.4017	0.39556	0.49	-0.293
Mof_H 	H 	0.418	0.4151	0.4522	0.137
Mof_C 	C 	0.472	0.40462	0.55687	0.242
Mof_C 	C 	0.4465	0.37687	0.61456	-0.287
Mof_H 	H 	0.4941	0.3833	0.6596	0.145
Mof_C 	C 	0.3478	0.33934	0.60263	0.246
Mof_C 	C 	0.2787	0.32837	0.53636	-0.288
Mof_H 	H 	0.2149	0.3024	0.5297	0.14
Mof_C 	C 	0.3061	0.35692	0.47977	0.235
Mof_C 	C 	0.6888	0.45373	0.51965	0.114
Mof_H 	H 	0.692	0.441	0.4746	-0.012
Mof_C 	C 	0.7436	0.49394	0.6128	0.009
Mof_H 	H 	0.794	0.5148	0.6444	0.025
Mof_C 	C 	0.6149	0.46834	0.626	0.013
Mof_H 	H 	0.561	0.4682	0.6674	0.03
Mof_C 	C 	0.1681	0.29587	0.6759	0.11
Mof_H 	H 	0.0749	0.3014	0.6471	-0.009
Mof_C 	C 	0.4204	0.29576	0.716	0.003
Mof_H 	H 	0.5304	0.3009	0.7211	0.049
Mof_C 	C 	0.3319	0.27188	0.7602	0.011
Mof_H 	H 	0.3724	0.2572	0.8015	0.028
Mof_C 	C 	0.1499	0.30944	0.39183	0.114
Mof_H 	H 	0.1247	0.2866	0.4236	-0.017
Mof_C 	C 	0.1612	0.34772	0.2982	0.009
Mof_H 	H 	0.1472	0.3569	0.2509	0.015
Mof_C 	C 	0.2406	0.37124	0.3499	0.003
Mof_H 	H 	0.29	0.3996	0.3453	0.021
Mof_C 	C 	0.1732	0.45493	0.7086	-0.115
Mof_C 	C 	0.2089	0.49718	0.73937	0.039
Mof_H 	H 	0.2069	0.5234	0.7112	0.022
Mof_C 	C 	0.2477	0.50074	0.81201	-0.124
Mof_H 	H 	0.2727	0.5293	0.8318	0.073
Mof_C 	C 	0.2498	0.46231	0.85569	0.055
Mof_C 	C 	0.2204	0.42007	0.82387	-0.121
Mof_H 	H 	0.2267	0.3936	0.8516	0.072
Mof_C 	C 	0.1818	0.41653	0.75162	0.04
Mof_H 	H 	0.1612	0.3878	0.7316	0.031
Mof_C 	C 	0.2805	0.46668	0.93407	0.014
Mof_C 	C 	0.2331	0.50629	0.96839	-0.073
Mof_H 	H 	0.1834	0.5298	0.9416	0.057
Mof_C 	C 	0.2584	0.51158	0.04174	0.018
Mof_C 	C 	0.3321	0.47583	0.08085	-0.094
Mof_H 	H 	0.3484	0.4787	0.13	0.06
Mof_C 	C 	0.3817	0.43618	0.04845	0.007
Mof_C 	C 	0.3542	0.43181	0.97494	-0.069
Mof_H 	H 	0.3856	0.4051	0.9528	0.059
Mof_C 	C 	0.4745	0.40067	0.09072	0.043
Mof_C 	C 	0.4496	0.39218	0.1617	-0.104
Mof_H 	H 	0.3676	0.4074	0.1828	0.06
Mof_C 	C 	0.5457	0.36135	0.20128	0.02
Mof_H 	H 	0.5278	0.3562	0.2487	0.037
Mof_C 	C 	0.6681	0.33811	0.17119	-0.087
Mof_C 	C 	0.6919	0.34602	0.1005	0.023
Mof_H 	H 	0.7735	0.3307	0.0794	0.042
Mof_C 	C 	0.5958	0.37639	0.06106	-0.106
Mof_H 	H 	0.6124	0.3808	0.0133	0.065
Mof_C 	C 	0.7777	0.30683	0.21449	0.299
Mof_C 	C 	0.2161	0.55522	0.07567	0.004
Mof_C 	C 	0.3011	0.57055	0.1376	-0.073
Mof_H 	H 	0.3824	0.5524	0.159	0.055
Mof_C 	C 	0.2664	0.61234	0.1678	-0.016
Mof_H 	H 	0.3242	0.6218	0.2093	0.044
Mof_C 	C 	0.147	0.64019	0.13709	-0.045
Mof_C 	C 	0.0627	0.62562	0.07493	-0.102
Mof_H 	H 	0.9838	0.6443	0.0529	0.105
Mof_C 	C 	0.0953	0.58335	0.04547	-0.038
Mof_H 	H 	0.0352	0.5737	0.0047	0.029
Mof_C 	C 	0.1068	0.68459	0.17024	0.274
Mof_C 	C 	0.1186	0.45164	0.63068	0.339
Mof_Ni	Ni	0.02097	0.75646	0.22388	1.086
Mof_N 	N 	0.2104	0.98475	0.95409	-0.241
Mof_N 	N 	0.4204	0.94247	0.93398	-0.167
Mof_N 	N 	0.8266	0.77233	0.76475	-0.222
Mof_N 	N 	0.6858	0.81097	0.83822	-0.158
Mof_N 	N 	0.8958	0.8085	0.1755	-0.226
Mof_N 	N 	0.7636	0.84639	0.08925	-0.165
Mof_O 	O 	0.8724	0.98786	0.90532	-0.401
Mof_O 	O 	0.9328	0.91381	0.89258	-0.266
Mof_O 	O 	0.104	0.7896	0.31409	-0.404
Mof_O 	O 	0.2452	0.79794	0.22174	-0.357
Mof_O 	O 	0.9822	0.2134	0.36442	-0.367
Mof_O 	O 	0.8422	0.19387	0.26658	-0.358
Mof_C 	C 	0.5983	0.89556	0.01	-0.319
Mof_H 	H 	0.582	0.9151	0.0478	0.144
Mof_C 	C 	0.528	0.90462	0.94313	0.265
Mof_C 	C 	0.5535	0.87687	0.88544	-0.297
Mof_H 	H 	0.5059	0.8833	0.8404	0.145
Mof_C 	C 	0.6522	0.83934	0.89737	0.247
Mof_C 	C 	0.7213	0.82837	0.96364	-0.269
Mof_H 	H 	0.7851	0.8024	0.9703	0.146
Mof_C 	C 	0.6939	0.85692	0.02023	0.226
Mof_C 	C 	0.3112	0.95373	0.98035	0.147
Mof_H 	H 	0.308	0.941	0.0254	-0.042
Mof_C 	C 	0.2564	0.99394	0.8872	0.026
Mof_H 	H 	0.206	0.0148	0.8556	-0.001
Mof_C 	C 	0.3851	0.96834	0.874	0.001
Mof_H 	H 	0.439	0.9682	0.8326	0.034
Mof_C 	C 	0.8319	0.79587	0.8241	0.115
Mof_H 	H 	0.9251	0.8014	0.8529	0.011
Mof_C 	C 	0.5796	0.79576	0.784	0.004
Mof_H 	H 	0.4696	0.8009	0.7789	0.046
Mof_C 	C 	0.6681	0.77188	0.7398	0.013
Mof_H 	H 	0.6276	0.7572	0.6985	0.03
Mof_C 	C 	0.8501	0.80944	0.10817	0.117
Mof_H 	H 	0.8753	0.7866	0.0764	-0.007
Mof_C 	C 	0.8388	0.84772	0.2018	0.013
Mof_H 	H 	0.8528	0.8569	0.2491	0.031
Mof_C 	C 	0.7594	0.87124	0.1501	0.01
Mof_H 	H 	0.71	0.8996	0.1547	0.023
Mof_C 	C 	0.8268	0.95493	0.7914	-0.132
Mof_C 	C 	0.7911	0.99718	0.76063	0.103
Mof_H 	H 	0.7931	0.0234	0.7888	0.003
Mof_C 	C 	0.7523	0.00074	0.68799	-0.175
Mof_H 	H 	0.7273	0.0293	0.6682	0.094
Mof_C 	C 	0.7502	0.96231	0.64431	0.087
Mof_C 	C 	0.7796	0.92007	0.67613	-0.136
Mof_H 	H 	0.7733	0.8936	0.6484	0.087
Mof_C 	C 	0.8182	0.91653	0.74838	0.068
Mof_H 	H 	0.8388	0.8878	0.7684	0.031
Mof_C 	C 	0.7195	0.96668	0.56593	0.036
Mof_C 	C 	0.7669	0.00629	0.53161	-0.097
Mof_H 	H 	0.8166	0.0298	0.5584	0.068
Mof_C 	C 	0.7416	0.01158	0.45826	0.017
Mof_C 	C 	0.6679	0.97583	0.41915	-0.08
Mof_H 	H 	0.6516	0.9787	0.37	0.062
Mof_C 	C 	0.6183	0.93618	0.45155	0.035
Mof_C 	C 	0.6458	0.93181	0.52506	-0.095
Mof_H 	H 	0.6144	0.9051	0.5472	0.066
Mof_C 	C 	0.5255	0.90067	0.40928	0.046
Mof_C 	C 	0.5504	0.89218	0.3383	-0.106
Mof_H 	H 	0.6324	0.9074	0.3172	0.068
Mof_C 	C 	0.4543	0.86135	0.29872	0.028
Mof_H 	H 	0.4722	0.8562	0.2513	0.033
Mof_C 	C 	0.3319	0.83811	0.32881	-0.099
Mof_C 	C 	0.3081	0.84602	0.3995	0.031
Mof_H 	H 	0.2265	0.8307	0.4206	0.033
Mof_C 	C 	0.4042	0.87639	0.43894	-0.11
Mof_H 	H 	0.3876	0.8808	0.4867	0.073
Mof_C 	C 	0.2223	0.80683	0.28551	0.304
Mof_C 	C 	0.7839	0.05522	0.42433	0.082
Mof_C 	C 	0.6989	0.07055	0.3624	-0.142
Mof_H 	H 	0.6176	0.0524	0.341	0.08
Mof_C 	C 	0.7336	0.11234	0.3322	0.071
Mof_H 	H 	0.6758	0.1218	0.2907	0.019
Mof_C 	C 	0.853	0.14019	0.36291	-0.139
Mof_C 	C 	0.9373	0.12562	0.42507	0.132
Mof_H 	H 	0.0162	0.1443	0.4471	-0.025
Mof_C 	C 	0.9047	0.08335	0.45453	-0.166
Mof_H 	H 	0.9648	0.0737	0.4953	0.102
Mof_C 	C 	0.8932	0.18459	0.32976	0.316
Mof_C 	C 	0.8814	0.95164	0.86932	0.348
Mof_Ni	Ni	4.54318e-33	0.5	0.5	1.05
Mof_Ni	Ni	-0	0	-0	1.039
_end
