# CIF file generated by openbabel 3.1.0, see https://openbabel.org
data_I
_chemical_name_common 'image0'
_cell_length_a 23.474
_cell_length_b 23.474
_cell_length_c 6.6926
_cell_angle_alpha 90
_cell_angle_beta 90
_cell_angle_gamma 90
_space_group_name_H-M_alt 'P 1'
_space_group_name_Hall 'P 1'
loop_
    _symmetry_equiv_pos_as_xyz
    x,y,z
loop_
    _atom_site_label
    _atom_site_type_symbol
    _atom_site_fract_x
    _atom_site_fract_y
    _atom_site_fract_z
    _atom_site_occupancy
    O1       O        0.61465    0.23751    0.81530    1.000
    O2       O        0.38535    0.76249    0.81530    1.000
    O3       O        0.76249    0.61465    0.81530    1.000
    O4       O        0.23751    0.38535    0.81530    1.000
    O5       O        0.88535    0.73751    0.68470    1.000
    O6       O        0.11465    0.26249    0.68470    1.000
    O7       O        0.73751    0.11465    0.68470    1.000
    O8       O        0.26249    0.88535    0.68470    1.000
    O9       O        0.38535    0.76249    0.18470    1.000
    O10      O        0.61465    0.23751    0.18470    1.000
    O11      O        0.23751    0.38535    0.18470    1.000
    O12      O        0.76249    0.61465    0.18470    1.000
    O13      O        0.11465    0.26249    0.31530    1.000
    O14      O        0.88535    0.73751    0.31530    1.000
    O15      O        0.26249    0.88535    0.31530    1.000
    O16      O        0.73751    0.11465    0.31530    1.000
    In1      In       0.12300    0.27548    0.00000    1.000
    P1       P        0.60476    0.20059    0.00000    1.000
    C1       C        0.51500    0.12370    0.00000    1.000
    H1       H        0.54300    0.09570    0.00000    1.000
    O17      O        0.63910    0.14540    0.00000    1.000
    O18      O        0.21820    0.25190    0.00000    1.000
    O19      O        0.15420    0.18470    0.00000    1.000
    C2       C        0.53010    0.17970    0.00000    1.000
    C3       C        0.20570    0.19990    0.00000    1.000
    O20      O        0.21550    0.97900    0.00000    1.000
    O21      O        0.30670    0.96170    0.00000    1.000
    C4       C        0.41380    0.14770    0.00000    1.000
    C5       C        0.30850    0.17140    0.00000    1.000
    H2       H        0.31780    0.20990    0.00000    1.000
    C6       C        0.27960    0.05820    0.00000    1.000
    C7       C        0.35240    0.13200    0.00000    1.000
    C8       C        0.23740    0.09860    0.00000    1.000
    H3       H        0.19930    0.08760    0.00000    1.000
    C9       C        0.25210    0.15620    0.00000    1.000
    C10      C        0.43080    0.20350    0.00000    1.000
    H4       H        0.40330    0.23200    0.00000    1.000
    C11      C        0.26570    0.99630    0.00000    1.000
    C12      C        0.48870    0.21890    0.00000    1.000
    H5       H        0.49840    0.25730    0.00000    1.000
    C13      C        0.33650    0.07430    0.00000    1.000
    H6       H        0.36460    0.04640    0.00000    1.000
    C14      C        0.45600    0.10790    0.00000    1.000
    H7       H        0.44630    0.06950    0.00000    1.000
    In2      In       0.87700    0.72452    0.00000    1.000
    P2       P        0.39524    0.79941    0.00000    1.000
    C15      C        0.48500    0.87630    0.00000    1.000
    H8       H        0.45700    0.90430    0.00000    1.000
    O22      O        0.36090    0.85460    0.00000    1.000
    O23      O        0.78180    0.74810    0.00000    1.000
    O24      O        0.84580    0.81530    0.00000    1.000
    C16      C        0.46990    0.82030    0.00000    1.000
    C17      C        0.79430    0.80010    0.00000    1.000
    O25      O        0.78450    0.02100    0.00000    1.000
    O26      O        0.69330    0.03830    0.00000    1.000
    C18      C        0.58620    0.85230    0.00000    1.000
    C19      C        0.69150    0.82860    0.00000    1.000
    H9       H        0.68220    0.79010    0.00000    1.000
    C20      C        0.72040    0.94180    0.00000    1.000
    C21      C        0.64760    0.86800    0.00000    1.000
    C22      C        0.76260    0.90140    0.00000    1.000
    H10      H        0.80070    0.91240    0.00000    1.000
    C23      C        0.74790    0.84380    0.00000    1.000
    C24      C        0.56920    0.79650    0.00000    1.000
    H11      H        0.59670    0.76800    0.00000    1.000
    C25      C        0.73430    0.00370    0.00000    1.000
    C26      C        0.51130    0.78110    0.00000    1.000
    H12      H        0.50160    0.74270    0.00000    1.000
    C27      C        0.66350    0.92570    0.00000    1.000
    H13      H        0.63540    0.95360    0.00000    1.000
    C28      C        0.54400    0.89210    0.00000    1.000
    H14      H        0.55370    0.93050    0.00000    1.000
    In3      In       0.72452    0.12300    0.00000    1.000
    P3       P        0.79941    0.60476    0.00000    1.000
    C29      C        0.87630    0.51500    0.00000    1.000
    H15      H        0.90430    0.54300    0.00000    1.000
    O27      O        0.85460    0.63910    0.00000    1.000
    O28      O        0.74810    0.21820    0.00000    1.000
    O29      O        0.81530    0.15420    0.00000    1.000
    C30      C        0.82030    0.53010    0.00000    1.000
    C31      C        0.80010    0.20570    0.00000    1.000
    O30      O        0.02100    0.21550    0.00000    1.000
    O31      O        0.03830    0.30670    0.00000    1.000
    C32      C        0.85230    0.41380    0.00000    1.000
    C33      C        0.82860    0.30850    0.00000    1.000
    H16      H        0.79010    0.31780    0.00000    1.000
    C34      C        0.94180    0.27960    0.00000    1.000
    C35      C        0.86800    0.35240    0.00000    1.000
    C36      C        0.90140    0.23740    0.00000    1.000
    H17      H        0.91240    0.19930    0.00000    1.000
    C37      C        0.84380    0.25210    0.00000    1.000
    C38      C        0.79650    0.43080    0.00000    1.000
    H18      H        0.76800    0.40330    0.00000    1.000
    C39      C        0.00370    0.26570    0.00000    1.000
    C40      C        0.78110    0.48870    0.00000    1.000
    H19      H        0.74270    0.49840    0.00000    1.000
    C41      C        0.92570    0.33650    0.00000    1.000
    H20      H        0.95360    0.36460    0.00000    1.000
    C42      C        0.89210    0.45600    0.00000    1.000
    H21      H        0.93050    0.44630    0.00000    1.000
    In4      In       0.27548    0.87700    0.00000    1.000
    P4       P        0.20059    0.39524    0.00000    1.000
    C43      C        0.12370    0.48500    0.00000    1.000
    H22      H        0.09570    0.45700    0.00000    1.000
    O32      O        0.14540    0.36090    0.00000    1.000
    O33      O        0.25190    0.78180    0.00000    1.000
    O34      O        0.18470    0.84580    0.00000    1.000
    C44      C        0.17970    0.46990    0.00000    1.000
    C45      C        0.19990    0.79430    0.00000    1.000
    O35      O        0.97900    0.78450    0.00000    1.000
    O36      O        0.96170    0.69330    0.00000    1.000
    C46      C        0.14770    0.58620    0.00000    1.000
    C47      C        0.17140    0.69150    0.00000    1.000
    H23      H        0.20990    0.68220    0.00000    1.000
    C48      C        0.05820    0.72040    0.00000    1.000
    C49      C        0.13200    0.64760    0.00000    1.000
    C50      C        0.09860    0.76260    0.00000    1.000
    H24      H        0.08760    0.80070    0.00000    1.000
    C51      C        0.15620    0.74790    0.00000    1.000
    C52      C        0.20350    0.56920    0.00000    1.000
    H25      H        0.23200    0.59670    0.00000    1.000
    C53      C        0.99630    0.73430    0.00000    1.000
    C54      C        0.21890    0.51130    0.00000    1.000
    H26      H        0.25730    0.50160    0.00000    1.000
    C55      C        0.07430    0.66350    0.00000    1.000
    H27      H        0.04640    0.63540    0.00000    1.000
    C56      C        0.10790    0.54400    0.00000    1.000
    H28      H        0.06950    0.55370    0.00000    1.000
    In5      In       0.37700    0.77548    0.50000    1.000
    P5       P        0.89524    0.70059    0.50000    1.000
    C57      C        0.98500    0.62370    0.50000    1.000
    H29      H        0.95700    0.59570    0.50000    1.000
    O37      O        0.86090    0.64540    0.50000    1.000
    O38      O        0.28180    0.75190    0.50000    1.000
    O39      O        0.34580    0.68470    0.50000    1.000
    C58      C        0.96990    0.67970    0.50000    1.000
    C59      C        0.29430    0.69990    0.50000    1.000
    O40      O        0.28450    0.47900    0.50000    1.000
    O41      O        0.19330    0.46170    0.50000    1.000
    C60      C        0.08620    0.64770    0.50000    1.000
    C61      C        0.19150    0.67140    0.50000    1.000
    H30      H        0.18220    0.70990    0.50000    1.000
    C62      C        0.22040    0.55820    0.50000    1.000
    C63      C        0.14760    0.63200    0.50000    1.000
    C64      C        0.26260    0.59860    0.50000    1.000
    H31      H        0.30070    0.58760    0.50000    1.000
    C65      C        0.24790    0.65620    0.50000    1.000
    C66      C        0.06920    0.70350    0.50000    1.000
    H32      H        0.09670    0.73200    0.50000    1.000
    C67      C        0.23430    0.49630    0.50000    1.000
    C68      C        0.01130    0.71890    0.50000    1.000
    H33      H        0.00160    0.75730    0.50000    1.000
    C69      C        0.16350    0.57430    0.50000    1.000
    H34      H        0.13540    0.54640    0.50000    1.000
    C70      C        0.04400    0.60790    0.50000    1.000
    H35      H        0.05370    0.56950    0.50000    1.000
    In6      In       0.62300    0.22452    0.50000    1.000
    P6       P        0.10476    0.29941    0.50000    1.000
    C71      C        0.01500    0.37630    0.50000    1.000
    H36      H        0.04300    0.40430    0.50000    1.000
    O42      O        0.13910    0.35460    0.50000    1.000
    O43      O        0.71820    0.24810    0.50000    1.000
    O44      O        0.65420    0.31530    0.50000    1.000
    C72      C        0.03010    0.32030    0.50000    1.000
    C73      C        0.70570    0.30010    0.50000    1.000
    O45      O        0.71550    0.52100    0.50000    1.000
    O46      O        0.80670    0.53830    0.50000    1.000
    C74      C        0.91380    0.35230    0.50000    1.000
    C75      C        0.80850    0.32860    0.50000    1.000
    H37      H        0.81780    0.29010    0.50000    1.000
    C76      C        0.77960    0.44180    0.50000    1.000
    C77      C        0.85240    0.36800    0.50000    1.000
    C78      C        0.73740    0.40140    0.50000    1.000
    H38      H        0.69930    0.41240    0.50000    1.000
    C79      C        0.75210    0.34380    0.50000    1.000
    C80      C        0.93080    0.29650    0.50000    1.000
    H39      H        0.90330    0.26800    0.50000    1.000
    C81      C        0.76570    0.50370    0.50000    1.000
    C82      C        0.98870    0.28110    0.50000    1.000
    H40      H        0.99840    0.24270    0.50000    1.000
    C83      C        0.83650    0.42570    0.50000    1.000
    H41      H        0.86460    0.45360    0.50000    1.000
    C84      C        0.95600    0.39210    0.50000    1.000
    H42      H        0.94630    0.43050    0.50000    1.000
    In7      In       0.77548    0.62300    0.50000    1.000
    P7       P        0.70059    0.10476    0.50000    1.000
    C85      C        0.62370    0.01500    0.50000    1.000
    H43      H        0.59570    0.04300    0.50000    1.000
    O47      O        0.64540    0.13910    0.50000    1.000
    O48      O        0.75190    0.71820    0.50000    1.000
    O49      O        0.68470    0.65420    0.50000    1.000
    C86      C        0.67970    0.03010    0.50000    1.000
    C87      C        0.69990    0.70570    0.50000    1.000
    O50      O        0.47900    0.71550    0.50000    1.000
    O51      O        0.46170    0.80670    0.50000    1.000
    C88      C        0.64770    0.91380    0.50000    1.000
    C89      C        0.67140    0.80850    0.50000    1.000
    H44      H        0.70990    0.81780    0.50000    1.000
    C90      C        0.55820    0.77960    0.50000    1.000
    C91      C        0.63200    0.85240    0.50000    1.000
    C92      C        0.59860    0.73740    0.50000    1.000
    H45      H        0.58760    0.69930    0.50000    1.000
    C93      C        0.65620    0.75210    0.50000    1.000
    C94      C        0.70350    0.93080    0.50000    1.000
    H46      H        0.73200    0.90330    0.50000    1.000
    C95      C        0.49630    0.76570    0.50000    1.000
    C96      C        0.71890    0.98870    0.50000    1.000
    H47      H        0.75730    0.99840    0.50000    1.000
    C97      C        0.57430    0.83650    0.50000    1.000
    H48      H        0.54640    0.86460    0.50000    1.000
    C98      C        0.60790    0.95600    0.50000    1.000
    H49      H        0.56950    0.94630    0.50000    1.000
    In8      In       0.22452    0.37700    0.50000    1.000
    P8       P        0.29941    0.89524    0.50000    1.000
    C99      C        0.37630    0.98500    0.50000    1.000
    H50      H        0.40430    0.95700    0.50000    1.000
    O52      O        0.35460    0.86090    0.50000    1.000
    O53      O        0.24810    0.28180    0.50000    1.000
    O54      O        0.31530    0.34580    0.50000    1.000
    C100     C        0.32030    0.96990    0.50000    1.000
    C101     C        0.30010    0.29430    0.50000    1.000
    O55      O        0.52100    0.28450    0.50000    1.000
    O56      O        0.53830    0.19330    0.50000    1.000
    C102     C        0.35230    0.08620    0.50000    1.000
    C103     C        0.32860    0.19150    0.50000    1.000
    H51      H        0.29010    0.18220    0.50000    1.000
    C104     C        0.44180    0.22040    0.50000    1.000
    C105     C        0.36800    0.14760    0.50000    1.000
    C106     C        0.40140    0.26260    0.50000    1.000
    H52      H        0.41240    0.30070    0.50000    1.000
    C107     C        0.34380    0.24790    0.50000    1.000
    C108     C        0.29650    0.06920    0.50000    1.000
    H53      H        0.26800    0.09670    0.50000    1.000
    C109     C        0.50370    0.23430    0.50000    1.000
    C110     C        0.28110    0.01130    0.50000    1.000
    H54      H        0.24270    0.00160    0.50000    1.000
    C111     C        0.42570    0.16350    0.50000    1.000
    H55      H        0.45360    0.13540    0.50000    1.000
    C112     C        0.39210    0.04400    0.50000    1.000
    H56      H        0.43050    0.05370    0.50000    1.000
