data_functionalizedCrystal
_audit_creation_method	'EQeq! by Chris Wilmer'
_symmetry_space_group_name_H-M	'P1'
_symmetry_Int_Tables_number	1
_symmetry_cell_setting	triclinic
loop_
_symmetry_equiv_pos_as_xyz
  x,y,z
_cell_length_a	8.8345
_cell_length_b	35.591
_cell_length_c	16.246
_cell_angle_alpha	90
_cell_angle_beta	93.437
_cell_angle_gamma	90
loop_
_atom_site_label
_atom_site_type_symbol
_atom_site_fract_x
_atom_site_fract_y
_atom_site_fract_z
_atom_site_charge
Mof_C 	C 	0.7858	0.2391	0.293	0.26
Mof_C 	C 	0.3295	0.1242	0.3099	0.244
Mof_C 	C 	0.4104	0.14231	0.3867	0.268
Mof_C 	C 	0.5008	0.02214	0.3602	0.249
Mof_C 	C 	0.3458	0.00271	0.3652	0.268
Mof_C 	C 	0.2707	0.06728	0.5998	0.286
Mof_C 	C 	0.1171	0.08	0.5582	0.249
Mof_C 	C 	0.958	0.36598	0.2905	0.363
Mof_C 	C 	0.7202	0.25833	0.2126	0.27
Mof_Cr	Cr	0.31644	0.07284	0.43526	2.137
Mof_O 	O 	0.9141	0.25227	0.3212	-0.36
Mof_O 	O 	0.7128	0.21379	0.3231	-0.237
Mof_O 	O 	0.7991	0.28591	0.1877	-0.377
Mof_O 	O 	0.9351	0.33273	0.3203	-0.385
Mof_O 	O 	0.471	0.17323	0.3783	-0.258
Mof_O 	O 	0.3285	0.14141	0.2436	-0.262
Mof_O 	O 	0.4038	0.12339	0.4534	-0.482
Mof_O 	O 	0.263	0.09273	0.3239	-0.502
Mof_O 	O 	0.5118	0.05419	0.3979	-0.471
Mof_O 	O 	0.2461	0.02196	0.4028	-0.506
Mof_O 	O 	0.1205	0.08567	0.4804	-0.508
Mof_O 	O 	0.3728	0.05957	0.5501	-0.521
Mof_O 	O 	0.3232	0.9718	0.3335	-0.272
Mof_O 	O 	0.5991	0.00686	0.3226	-0.233
Mof_O 	O 	0.9274	0.39604	0.322	-0.199
Mof_O 	O 	0.2833	0.06594	0.6761	-0.286
Mof_O 	O 	0.0053	0.0849	0.5982	-0.199
Mof_O 	O 	0.6022	0.24659	0.1811	-0.252
Mof_C 	C 	0.2858	0.7391	0.293	0.261
Mof_C 	C 	0.8295	0.6242	0.3099	0.261
Mof_C 	C 	0.9104	0.64231	0.3867	0.279
Mof_C 	C 	0.0008	0.52214	0.3602	0.139
Mof_C 	C 	0.8458	0.50271	0.3652	0.379
Mof_C 	C 	0.7707	0.56728	0.5998	0.288
Mof_C 	C 	0.6171	0.58	0.5582	0.259
Mof_C 	C 	0.458	0.86598	0.2905	0.262
Mof_C 	C 	0.2202	0.75833	0.2126	0.267
Mof_Cr	Cr	0.81644	0.57284	0.43526	2.272
Mof_O 	O 	0.4141	0.75227	0.3212	-0.48
Mof_O 	O 	0.2128	0.71379	0.3231	-0.271
Mof_O 	O 	0.2991	0.78591	0.1877	-0.483
Mof_O 	O 	0.4351	0.83273	0.3203	-0.484
Mof_O 	O 	0.971	0.67323	0.3783	-0.186
Mof_O 	O 	0.8285	0.64141	0.2436	-0.196
Mof_O 	O 	0.9038	0.62339	0.4534	-0.464
Mof_O 	O 	0.763	0.59273	0.3239	-0.487
Mof_O 	O 	0.0118	0.55419	0.3979	-0.546
Mof_O 	O 	0.7461	0.52196	0.4028	-0.511
Mof_O 	O 	0.6205	0.58567	0.4804	-0.502
Mof_O 	O 	0.8728	0.55957	0.5501	-0.492
Mof_O 	O 	0.8232	0.4718	0.3335	-0.228
Mof_O 	O 	0.0991	0.50686	0.3226	-0.234
Mof_O 	O 	0.4274	0.89604	0.322	-0.258
Mof_O 	O 	0.7833	0.56594	0.6761	-0.223
Mof_O 	O 	0.5053	0.5849	0.5982	-0.15
Mof_O 	O 	0.1022	0.74659	0.1811	-0.285
Mof_C 	C 	0.2142	0.2391	0.207	0.259
Mof_C 	C 	0.6705	0.1242	0.1901	0.246
Mof_C 	C 	0.5896	0.14231	0.1133	0.278
Mof_C 	C 	0.4992	0.02214	0.1398	0.261
Mof_C 	C 	0.6542	0.00271	0.1348	0.263
Mof_C 	C 	0.7293	0.06728	0.9002	0.309
Mof_C 	C 	0.8829	0.08	0.9418	0.237
Mof_C 	C 	0.042	0.36598	0.2095	0.145
Mof_C 	C 	0.2798	0.25833	0.2874	0.258
Mof_Cr	Cr	0.68356	0.07284	0.06474	2.158
Mof_O 	O 	0.0859	0.25227	0.1788	-0.471
Mof_O 	O 	0.2872	0.21379	0.1769	-0.27
Mof_O 	O 	0.2009	0.28591	0.3123	-0.445
Mof_O 	O 	0.0649	0.33273	0.1797	-0.437
Mof_O 	O 	0.529	0.17323	0.1217	-0.262
Mof_O 	O 	0.6715	0.14141	0.2564	-0.227
Mof_O 	O 	0.5962	0.12339	0.0466	-0.488
Mof_O 	O 	0.737	0.09273	0.1761	-0.466
Mof_O 	O 	0.4882	0.05419	0.1021	-0.495
Mof_O 	O 	0.7539	0.02196	0.0972	-0.46
Mof_O 	O 	0.8795	0.08567	0.0196	-0.447
Mof_O 	O 	0.6272	0.05957	0.9499	-0.532
Mof_O 	O 	0.6768	0.9718	0.1665	-0.229
Mof_O 	O 	0.4009	0.00686	0.1774	-0.257
Mof_O 	O 	0.0726	0.39604	0.178	-0.246
Mof_O 	O 	0.7167	0.06594	0.8239	-0.262
Mof_O 	O 	0.9947	0.0849	0.9018	-0.089
Mof_O 	O 	0.3978	0.24659	0.3189	-0.258
Mof_C 	C 	0.7142	0.7391	0.207	0.268
Mof_C 	C 	0.1705	0.6242	0.1901	0.232
Mof_C 	C 	0.0896	0.64231	0.1133	0.263
Mof_C 	C 	0.9992	0.52214	0.1398	0.376
Mof_C 	C 	0.1542	0.50271	0.1348	0.149
Mof_C 	C 	0.2293	0.56728	0.9002	0.296
Mof_C 	C 	0.3829	0.58	0.9418	0.235
Mof_C 	C 	0.542	0.86598	0.2095	0.259
Mof_C 	C 	0.7798	0.75833	0.2874	0.271
Mof_Cr	Cr	0.18356	0.57284	0.06474	2.021
Mof_O 	O 	0.5859	0.75227	0.1788	-0.468
Mof_O 	O 	0.7872	0.71379	0.1769	-0.196
Mof_O 	O 	0.7009	0.78591	0.3123	-0.456
Mof_O 	O 	0.5649	0.83273	0.1797	-0.462
Mof_O 	O 	0.029	0.67323	0.1217	-0.288
Mof_O 	O 	0.1715	0.64141	0.2564	-0.259
Mof_O 	O 	0.0962	0.62339	0.0466	-0.501
Mof_O 	O 	0.237	0.59273	0.1761	-0.479
Mof_O 	O 	0.9882	0.55419	0.1021	-0.418
Mof_O 	O 	0.2539	0.52196	0.0972	-0.452
Mof_O 	O 	0.3795	0.58567	0.0196	-0.453
Mof_O 	O 	0.1272	0.55957	0.9499	-0.547
Mof_O 	O 	0.1768	0.4718	0.1665	-0.228
Mof_O 	O 	0.9009	0.50686	0.1774	-0.224
Mof_O 	O 	0.5726	0.89604	0.178	-0.232
Mof_O 	O 	0.2167	0.56594	0.8239	-0.275
Mof_O 	O 	0.4947	0.5849	0.9018	-0.135
Mof_O 	O 	0.8978	0.74659	0.3189	-0.194
Mof_C 	C 	0.2142	0.7609	0.707	0.259
Mof_C 	C 	0.6705	0.8758	0.6901	0.246
Mof_C 	C 	0.5896	0.85769	0.6133	0.278
Mof_C 	C 	0.4992	0.97786	0.6398	0.261
Mof_C 	C 	0.6542	0.99729	0.6348	0.263
Mof_C 	C 	0.7293	0.93272	0.4002	0.307
Mof_C 	C 	0.8829	0.92	0.4418	0.244
Mof_C 	C 	0.042	0.63402	0.7095	0.146
Mof_C 	C 	0.2798	0.74167	0.7874	0.258
Mof_Cr	Cr	0.68356	0.92716	0.56474	2.153
Mof_O 	O 	0.0859	0.74773	0.6788	-0.472
Mof_O 	O 	0.2872	0.78621	0.6769	-0.271
Mof_O 	O 	0.2009	0.71409	0.8123	-0.445
Mof_O 	O 	0.0649	0.66727	0.6797	-0.439
Mof_O 	O 	0.529	0.82677	0.6217	-0.263
Mof_O 	O 	0.6715	0.85859	0.7564	-0.228
Mof_O 	O 	0.5962	0.87661	0.5466	-0.489
Mof_O 	O 	0.737	0.90727	0.6761	-0.466
Mof_O 	O 	0.4882	0.94581	0.6021	-0.496
Mof_O 	O 	0.7539	0.97804	0.5972	-0.461
Mof_O 	O 	0.8795	0.91433	0.5196	-0.451
Mof_O 	O 	0.6272	0.94043	0.4499	-0.528
Mof_O 	O 	0.6768	0.0282	0.6665	-0.23
Mof_O 	O 	0.4009	0.99314	0.6774	-0.257
Mof_O 	O 	0.0726	0.60396	0.678	-0.247
Mof_O 	O 	0.7167	0.93406	0.3239	-0.261
Mof_O 	O 	0.9947	0.9151	0.4018	-0.088
Mof_O 	O 	0.3978	0.75341	0.8189	-0.259
Mof_C 	C 	0.7142	0.2609	0.707	0.267
Mof_C 	C 	0.1705	0.3758	0.6901	0.231
Mof_C 	C 	0.0896	0.35769	0.6133	0.263
Mof_C 	C 	0.9992	0.47786	0.6398	0.375
Mof_C 	C 	0.1542	0.49729	0.6348	0.149
Mof_C 	C 	0.2293	0.43272	0.4002	0.294
Mof_C 	C 	0.3829	0.42	0.4418	0.24
Mof_C 	C 	0.542	0.13402	0.7095	0.259
Mof_C 	C 	0.7798	0.24167	0.7874	0.271
Mof_Cr	Cr	0.18356	0.42716	0.56474	2.017
Mof_O 	O 	0.5859	0.24773	0.6788	-0.469
Mof_O 	O 	0.7872	0.28621	0.6769	-0.197
Mof_O 	O 	0.7009	0.21409	0.8123	-0.457
Mof_O 	O 	0.5649	0.16727	0.6797	-0.463
Mof_O 	O 	0.029	0.32677	0.6217	-0.289
Mof_O 	O 	0.1715	0.35859	0.7564	-0.259
Mof_O 	O 	0.0962	0.37661	0.5466	-0.502
Mof_O 	O 	0.237	0.40727	0.6761	-0.478
Mof_O 	O 	0.9882	0.44581	0.6021	-0.418
Mof_O 	O 	0.2539	0.47804	0.5972	-0.452
Mof_O 	O 	0.3795	0.41433	0.5196	-0.457
Mof_O 	O 	0.1272	0.44043	0.4499	-0.544
Mof_O 	O 	0.1768	0.5282	0.6665	-0.229
Mof_O 	O 	0.9009	0.49314	0.6774	-0.225
Mof_O 	O 	0.5726	0.10396	0.678	-0.233
Mof_O 	O 	0.2167	0.43406	0.3239	-0.275
Mof_O 	O 	0.4947	0.4151	0.4018	-0.135
Mof_O 	O 	0.8978	0.25341	0.8189	-0.195
Mof_C 	C 	0.7858	0.7609	0.793	0.261
Mof_C 	C 	0.3295	0.8758	0.8099	0.244
Mof_C 	C 	0.4104	0.85769	0.8867	0.269
Mof_C 	C 	0.5008	0.97786	0.8602	0.25
Mof_C 	C 	0.3458	0.99729	0.8652	0.269
Mof_C 	C 	0.2707	0.93272	0.0998	0.285
Mof_C 	C 	0.1171	0.92	0.0582	0.255
Mof_C 	C 	0.958	0.63402	0.7905	0.363
Mof_C 	C 	0.7202	0.74167	0.7126	0.27
Mof_Cr	Cr	0.31644	0.92716	0.93526	2.132
Mof_O 	O 	0.9141	0.74773	0.8212	-0.362
Mof_O 	O 	0.7128	0.78621	0.8231	-0.238
Mof_O 	O 	0.7991	0.71409	0.6877	-0.379
Mof_O 	O 	0.9351	0.66727	0.8203	-0.387
Mof_O 	O 	0.471	0.82677	0.8783	-0.259
Mof_O 	O 	0.3285	0.85859	0.7436	-0.262
Mof_O 	O 	0.4038	0.87661	0.9534	-0.484
Mof_O 	O 	0.263	0.90727	0.8239	-0.501
Mof_O 	O 	0.5118	0.94581	0.8979	-0.472
Mof_O 	O 	0.2461	0.97804	0.9028	-0.506
Mof_O 	O 	0.1205	0.91433	0.9804	-0.511
Mof_O 	O 	0.3728	0.94043	0.0501	-0.518
Mof_O 	O 	0.3232	0.0282	0.8335	-0.272
Mof_O 	O 	0.5991	0.99314	0.8226	-0.233
Mof_O 	O 	0.9274	0.60396	0.822	-0.201
Mof_O 	O 	0.2833	0.93406	0.1761	-0.285
Mof_O 	O 	0.0053	0.9151	0.0982	-0.199
Mof_O 	O 	0.6022	0.75341	0.6811	-0.253
Mof_C 	C 	0.2858	0.2609	0.793	0.261
Mof_C 	C 	0.8295	0.3758	0.8099	0.26
Mof_C 	C 	0.9104	0.35769	0.8867	0.279
Mof_C 	C 	0.0008	0.47786	0.8602	0.141
Mof_C 	C 	0.8458	0.49729	0.8652	0.377
Mof_C 	C 	0.7707	0.43272	0.0998	0.286
Mof_C 	C 	0.6171	0.42	0.0582	0.265
Mof_C 	C 	0.458	0.13402	0.7905	0.262
Mof_C 	C 	0.2202	0.24167	0.7126	0.267
Mof_Cr	Cr	0.81644	0.42716	0.93526	2.263
Mof_O 	O 	0.4141	0.24773	0.8212	-0.48
Mof_O 	O 	0.2128	0.28621	0.8231	-0.271
Mof_O 	O 	0.2991	0.21409	0.6877	-0.483
Mof_O 	O 	0.4351	0.16727	0.8203	-0.485
Mof_O 	O 	0.971	0.32677	0.8783	-0.188
Mof_O 	O 	0.8285	0.35859	0.7436	-0.196
Mof_O 	O 	0.9038	0.37661	0.9534	-0.466
Mof_O 	O 	0.763	0.40727	0.8239	-0.486
Mof_O 	O 	0.0118	0.44581	0.8979	-0.545
Mof_O 	O 	0.7461	0.47804	0.9028	-0.511
Mof_O 	O 	0.6205	0.41433	0.9804	-0.506
Mof_O 	O 	0.8728	0.44043	0.0501	-0.488
Mof_O 	O 	0.8232	0.5282	0.8335	-0.228
Mof_O 	O 	0.0991	0.49314	0.8226	-0.234
Mof_O 	O 	0.4274	0.10396	0.822	-0.258
Mof_O 	O 	0.7833	0.43406	0.1761	-0.222
Mof_O 	O 	0.5053	0.4151	0.0982	-0.15
Mof_O 	O 	0.1022	0.25341	0.6811	-0.285
Mof_Cr	Cr	-5.57395e-18	0.29117	0.25	1.722
Mof_Mn	Mn	-5.57395e-18	0.44948	0.25	0.819
Mof_Cr	Cr	0.5	0.79117	0.25	2.08
Mof_Mn	Mn	0.5	0.94948	0.25	0.991
Mof_Cr	Cr	-1.11479e-17	0.70883	0.75	1.726
Mof_Mn	Mn	5.48117e-33	0.55052	0.75	0.82
Mof_Cr	Cr	0.5	0.20883	0.75	2.08
Mof_Mn	Mn	0.5	0.05052	0.75	0.991
Mof_Mn	Mn	0.5	0.19466	0.25	0.964
Mof_Mn	Mn	-5.57395e-18	0.69466	0.25	0.794
Mof_Mn	Mn	0.5	0.80534	0.75	0.963
Mof_Mn	Mn	-1.11479e-17	0.30534	0.75	0.795
_end
