# CIF file generated by openbabel 3.1.0, see https://openbabel.org
data_I
_chemical_name_common 'XENMIO_clean'
_cell_length_a 6.3108
_cell_length_b 12.639
_cell_length_c 15.631
_cell_angle_alpha 95.723
_cell_angle_beta 99.878
_cell_angle_gamma 97.86
_space_group_name_H-M_alt 'P 1'
_space_group_name_Hall 'P 1'
loop_
    _symmetry_equiv_pos_as_xyz
    x,y,z
loop_
    _atom_site_label
    _atom_site_type_symbol
    _atom_site_fract_x
    _atom_site_fract_y
    _atom_site_fract_z
    _atom_site_occupancy
    Zn1      Zn       0.47996    0.04582    0.89945    1.000
    Zn2      Zn       0.94143    0.03806    0.81373    1.000
    Zn3      Zn       0.52004    0.95418    0.10055    1.000
    Zn4      Zn       0.05857    0.96194    0.18627    1.000
    Zn5      Zn       0.00000    0.00000    0.00000    1.000
    H6       H        0.81630    0.26990    0.64420    1.000
    H7       H        0.42290    0.48680    0.58880    1.000
    H8       H        0.35610    0.31710    0.78820    1.000
    H9       H        0.53230    0.57660    0.79580    1.000
    H10      H        0.54430    0.72900    0.89190    1.000
    H11      H        0.89460    0.69390    0.84190    1.000
    H12      H        0.88120    0.54200    0.74510    1.000
    H13      H        0.45070    0.25280    0.45770    1.000
    H14      H        0.47780    0.12850    0.34390    1.000
    H15      H        0.10390    0.25450    0.36450    1.000
    H16      H        0.06750    0.38390    0.47330    1.000
    H17      H        0.18370    0.73010    0.35580    1.000
    H18      H        0.57710    0.51320    0.41120    1.000
    H19      H        0.64390    0.68290    0.21180    1.000
    H20      H        0.46770    0.42340    0.20420    1.000
    H21      H        0.45570    0.27100    0.10810    1.000
    H22      H        0.10540    0.30610    0.15810    1.000
    H23      H        0.11880    0.45800    0.25490    1.000
    H24      H        0.54930    0.74720    0.54230    1.000
    H25      H        0.52220    0.87150    0.65610    1.000
    H26      H        0.89610    0.74550    0.63550    1.000
    H27      H        0.93250    0.61610    0.52670    1.000
    C28      C        0.66940    0.19568    0.77999    1.000
    C29      C        0.59780    0.27978    0.72433    1.000
    C30      C        0.70160    0.30447    0.65588    1.000
    C31      C        0.63280    0.38064    0.60560    1.000
    C32      C        0.46610    0.43428    0.62260    1.000
    C33      C        0.36490    0.40870    0.69037    1.000
    C34      C        0.42630    0.33292    0.74225    1.000
    C35      C        0.20630    0.54458    0.76105    1.000
    C36      C        0.40380    0.60027    0.80483    1.000
    C37      C        0.41040    0.69154    0.86234    1.000
    C38      C        0.22050    0.72815    0.87672    1.000
    C39      C        0.02340    0.67075    0.83253    1.000
    C40      C        0.01490    0.57970    0.77476    1.000
    C41      C        0.22510    0.82723    0.93664    1.000
    C42      C        0.75590    0.32948    0.47562    1.000
    C43      C        0.58170    0.25370    0.43795    1.000
    C44      C        0.59880    0.17850    0.37087    1.000
    C45      C        0.79560    0.17665    0.34299    1.000
    C46      C        0.97080    0.25430    0.38241    1.000
    C47      C        0.94990    0.33110    0.44794    1.000
    C48      C        0.81750    0.09368    0.27158    1.000
    C49      C        0.33060    0.80432    0.22001    1.000
    C50      C        0.40220    0.72022    0.27567    1.000
    C51      C        0.29840    0.69553    0.34412    1.000
    C52      C        0.36720    0.61936    0.39440    1.000
    C53      C        0.53390    0.56572    0.37740    1.000
    C54      C        0.63510    0.59130    0.30963    1.000
    C55      C        0.57370    0.66708    0.25775    1.000
    C56      C        0.79370    0.45542    0.23895    1.000
    C57      C        0.59620    0.39973    0.19517    1.000
    C58      C        0.58960    0.30846    0.13766    1.000
    C59      C        0.77950    0.27185    0.12328    1.000
    C60      C        0.97660    0.32925    0.16747    1.000
    C61      C        0.98510    0.42030    0.22524    1.000
    C62      C        0.77490    0.17277    0.06336    1.000
    C63      C        0.24410    0.67052    0.52438    1.000
    C64      C        0.41830    0.74630    0.56205    1.000
    C65      C        0.40120    0.82150    0.62913    1.000
    C66      C        0.20440    0.82335    0.65701    1.000
    C67      C        0.02920    0.74570    0.61759    1.000
    C68      C        0.05010    0.66890    0.55206    1.000
    C69      C        0.18250    0.90632    0.72842    1.000
    O70      O        0.74990    0.98124    0.89217    1.000
    O71      O        0.18610    0.08209    0.91391    1.000
    O72      O        0.57970    0.18061    0.84367    1.000
    O73      O        0.81740    0.14819    0.75734    1.000
    O74      O        0.18190    0.45429    0.70266    1.000
    O75      O        0.04820    0.84941    0.95237    1.000
    O76      O        0.40900    0.88502    0.96788    1.000
    O77      O        0.73970    0.41092    0.53903    1.000
    O78      O        0.64720    0.04594    0.22278    1.000
    O79      O        0.00720    0.07790    0.26538    1.000
    O80      O        0.25010    0.01876    0.10783    1.000
    O81      O        0.81390    0.91791    0.08609    1.000
    O82      O        0.42030    0.81939    0.15633    1.000
    O83      O        0.18260    0.85181    0.24266    1.000
    O84      O        0.81810    0.54571    0.29734    1.000
    O85      O        0.95180    0.15059    0.04763    1.000
    O86      O        0.59100    0.11498    0.03212    1.000
    O87      O        0.26030    0.58908    0.46097    1.000
    O88      O        0.35280    0.95406    0.77722    1.000
    O89      O        0.99280    0.92210    0.73462    1.000
    H90      H        0.18610    0.16161    0.92032    1.000
    H91      H        0.25010    0.09828    0.11424    1.000
    H92      H        0.81390    0.83839    0.07968    1.000
    H93      H        0.74990    0.90172    0.88576    1.000
