# CIF file generated by openbabel 3.1.0, see https://openbabel.org
data_I
_chemical_name_common 'image0'
_cell_length_a 12.1827
_cell_length_b 12.1827
_cell_length_c 7.0923
_cell_angle_alpha 90
_cell_angle_beta 90
_cell_angle_gamma 120
_space_group_name_H-M_alt 'P 1'
_space_group_name_Hall 'P 1'
loop_
    _symmetry_equiv_pos_as_xyz
    x,y,z
loop_
    _atom_site_label
    _atom_site_type_symbol
    _atom_site_fract_x
    _atom_site_fract_y
    _atom_site_fract_z
    _atom_site_occupancy
    Co1      Co       0.50000    0.00000    0.00000    1.000
    Co2      Co       0.00000    0.50000    0.00000    1.000
    Co3      Co       0.50000    0.50000    0.00000    1.000
    O1       O        0.70290    0.12770    0.00000    1.000
    N1       N        0.50460    0.16230    0.00000    1.000
    O2       O        0.87230    0.57520    0.00000    1.000
    N2       N        0.83770    0.34230    0.00000    1.000
    O3       O        0.42480    0.29710    0.00000    1.000
    N3       N        0.65770    0.49540    0.00000    1.000
    O4       O        0.29710    0.87230    0.00000    1.000
    N4       N        0.49540    0.83770    0.00000    1.000
    O5       O        0.12770    0.42480    0.00000    1.000
    N5       N        0.16230    0.65770    0.00000    1.000
    O6       O        0.57520    0.70290    0.00000    1.000
    N6       N        0.34230    0.50460    0.00000    1.000
    O7       O        0.12770    0.70290    0.00000    1.000
    N7       N        0.16230    0.50460    0.00000    1.000
    O8       O        0.57520    0.87230    0.00000    1.000
    N8       N        0.34230    0.83770    0.00000    1.000
    O9       O        0.29710    0.42480    0.00000    1.000
    N9       N        0.49540    0.65770    0.00000    1.000
    O10      O        0.87230    0.29710    0.00000    1.000
    N10      N        0.83770    0.49540    0.00000    1.000
    O11      O        0.42480    0.12770    0.00000    1.000
    N11      N        0.65770    0.16230    0.00000    1.000
    O12      O        0.70290    0.57520    0.00000    1.000
    N12      N        0.50460    0.34230    0.00000    1.000
    C1       C        0.62895    0.25790    0.00000    1.000
    C2       C        0.74210    0.37105    0.00000    1.000
    C3       C        0.62895    0.37105    0.00000    1.000
    C4       C        0.37105    0.74210    0.00000    1.000
    C5       C        0.25790    0.62895    0.00000    1.000
    C6       C        0.37105    0.62895    0.00000    1.000
    C7       C        0.78570    0.21430    0.00000    1.000
    H1       H        0.83120    0.16880    0.00000    1.000
    C8       C        0.75030    0.24970    0.00000    1.000
    C9       C        0.78570    0.57140    0.00000    1.000
    H2       H        0.83120    0.66240    0.00000    1.000
    C10      C        0.75030    0.50060    0.00000    1.000
    C11      C        0.42860    0.21430    0.00000    1.000
    H3       H        0.33760    0.16880    0.00000    1.000
    C12      C        0.49940    0.24970    0.00000    1.000
    C13      C        0.21430    0.78570    0.00000    1.000
    H4       H        0.16880    0.83120    0.00000    1.000
    C14      C        0.24970    0.75030    0.00000    1.000
    C15      C        0.21430    0.42860    0.00000    1.000
    H5       H        0.16880    0.33760    0.00000    1.000
    C16      C        0.24970    0.49940    0.00000    1.000
    C17      C        0.57140    0.78570    0.00000    1.000
    H6       H        0.66240    0.83120    0.00000    1.000
    C18      C        0.50060    0.75030    0.00000    1.000
    N13      N        0.50000    0.00000    0.69500    1.000
    N14      N        0.00000    0.50000    0.69500    1.000
    N15      N        0.50000    0.50000    0.69500    1.000
    N16      N        0.00000    0.50000    0.30500    1.000
    N17      N        0.50000    0.00000    0.30500    1.000
    N18      N        0.50000    0.50000    0.30500    1.000
    C19      C        0.59220    0.00000    0.59870    1.000
    H7       H        0.66020    0.00000    0.66440    1.000
    C20      C        0.00000    0.59220    0.59870    1.000
    H8       H        0.00000    0.66020    0.66440    1.000
    C21      C        0.40780    0.40780    0.59870    1.000
    H9       H        0.33980    0.33980    0.66440    1.000
    C22      C        0.40780    0.00000    0.59870    1.000
    H10      H        0.33980    0.00000    0.66440    1.000
    C23      C        0.00000    0.40780    0.59870    1.000
    H11      H        0.00000    0.33980    0.66440    1.000
    C24      C        0.59220    0.59220    0.59870    1.000
    H12      H        0.66020    0.66020    0.66440    1.000
    C25      C        0.00000    0.59220    0.40130    1.000
    H13      H        0.00000    0.66020    0.33560    1.000
    C26      C        0.59220    0.00000    0.40130    1.000
    H14      H        0.66020    0.00000    0.33560    1.000
    C27      C        0.40780    0.40780    0.40130    1.000
    H15      H        0.33980    0.33980    0.33560    1.000
    C28      C        0.00000    0.40780    0.40130    1.000
    H16      H        0.00000    0.33980    0.33560    1.000
    C29      C        0.40780    0.00000    0.40130    1.000
    H17      H        0.33980    0.00000    0.33560    1.000
    C30      C        0.59220    0.59220    0.40130    1.000
    H18      H        0.66020    0.66020    0.33560    1.000
