data_functionalizedCrystal
_audit_creation_method	'EQeq! by Chris Wilmer'
_symmetry_space_group_name_H-M	'P1'
_symmetry_Int_Tables_number	1
_symmetry_cell_setting	triclinic
loop_
_symmetry_equiv_pos_as_xyz
  x,y,z
_cell_length_a	8.274
_cell_length_b	20.563
_cell_length_c	54.367
_cell_angle_alpha	90
_cell_angle_beta	90
_cell_angle_gamma	90
loop_
_atom_site_label
_atom_site_type_symbol
_atom_site_fract_x
_atom_site_fract_y
_atom_site_fract_z
_atom_site_charge
Mof_N 	N 	0.1207	0.19925	0.59671	-0.272
Mof_C 	C 	0.1355	0.2915	0.55883	0.126
Mof_C 	C 	0.1383	0.3389	0.53829	-0.041
Mof_N 	N 	0.233	0.25654	0.51078	-0.082
Mof_N 	N 	0.1304	0.4294	0.4997	-0.11
Mof_C 	C 	0.1733	0.3676	0.49589	-0.015
Mof_H 	H 	0.2004	0.3549	0.48	0.054
Mof_C 	C 	0.1793	0.3215	0.51453	0.069
Mof_C 	C 	0.0336	0.2367	0.55733	-0.183
Mof_H 	H 	0.9687	0.2302	0.5436	0.105
Mof_C 	C 	0.0976	0.4467	0.52202	0.047
Mof_H 	H 	0.0714	0.49	0.5249	0.025
Mof_C 	C 	0.0994	0.4037	0.54215	-0.07
Mof_H 	H 	0.0747	0.4185	0.5579	0.052
Mof_C 	C 	0.0318	0.1927	0.57655	0.102
Mof_H 	H 	0.9645	0.1566	0.5753	-0.036
Mof_C 	C 	0.2191	0.2987	0.57975	-0.19
Mof_H 	H 	0.2836	0.3353	0.5819	0.09
Mof_C 	C 	0.2115	0.2529	0.59825	0.099
Mof_H 	H 	0.2723	0.2596	0.6124	-0.036
Mof_N 	N 	0.1207	0.69925	0.09671	-0.272
Mof_C 	C 	0.1355	0.7915	0.05883	0.126
Mof_C 	C 	0.1383	0.8389	0.03829	-0.041
Mof_N 	N 	0.233	0.75654	0.01078	-0.082
Mof_N 	N 	0.1304	0.9294	0.9997	-0.11
Mof_C 	C 	0.1733	0.8676	0.99589	-0.015
Mof_H 	H 	0.2004	0.8549	0.98	0.054
Mof_C 	C 	0.1793	0.8215	0.01453	0.069
Mof_C 	C 	0.0336	0.7367	0.05733	-0.183
Mof_H 	H 	0.9687	0.7302	0.0436	0.105
Mof_C 	C 	0.0976	0.9467	0.02202	0.047
Mof_H 	H 	0.0714	0.99	0.0249	0.025
Mof_C 	C 	0.0994	0.9037	0.04215	-0.07
Mof_H 	H 	0.0747	0.9185	0.0579	0.052
Mof_C 	C 	0.0318	0.6927	0.07655	0.102
Mof_H 	H 	0.9645	0.6566	0.0753	-0.036
Mof_C 	C 	0.2191	0.7987	0.07975	-0.19
Mof_H 	H 	0.2836	0.8353	0.0819	0.09
Mof_C 	C 	0.2115	0.7529	0.09825	0.099
Mof_H 	H 	0.2723	0.7596	0.1124	-0.036
Mof_N 	N 	0.6207	0.19925	0.09671	-0.272
Mof_C 	C 	0.6355	0.2915	0.05883	0.126
Mof_C 	C 	0.6383	0.3389	0.03829	-0.041
Mof_N 	N 	0.733	0.25654	0.01078	-0.082
Mof_N 	N 	0.6304	0.4294	0.9997	-0.11
Mof_C 	C 	0.6733	0.3676	0.99589	-0.015
Mof_H 	H 	0.7004	0.3549	0.98	0.054
Mof_C 	C 	0.6793	0.3215	0.01453	0.069
Mof_C 	C 	0.5336	0.2367	0.05733	-0.183
Mof_H 	H 	0.4687	0.2302	0.0436	0.105
Mof_C 	C 	0.5976	0.4467	0.02202	0.047
Mof_H 	H 	0.5714	0.49	0.0249	0.025
Mof_C 	C 	0.5994	0.4037	0.04215	-0.07
Mof_H 	H 	0.5747	0.4185	0.0579	0.051
Mof_C 	C 	0.5318	0.1927	0.07655	0.102
Mof_H 	H 	0.4645	0.1566	0.0753	-0.035
Mof_C 	C 	0.7191	0.2987	0.07975	-0.19
Mof_H 	H 	0.7836	0.3353	0.0819	0.09
Mof_C 	C 	0.7115	0.2529	0.09825	0.099
Mof_H 	H 	0.7723	0.2596	0.1124	-0.037
Mof_N 	N 	0.6207	0.69925	0.59671	-0.272
Mof_C 	C 	0.6355	0.7915	0.55883	0.126
Mof_C 	C 	0.6383	0.8389	0.53829	-0.041
Mof_N 	N 	0.733	0.75654	0.51078	-0.082
Mof_N 	N 	0.6304	0.9294	0.4997	-0.11
Mof_C 	C 	0.6733	0.8676	0.49589	-0.015
Mof_H 	H 	0.7004	0.8549	0.48	0.054
Mof_C 	C 	0.6793	0.8215	0.51453	0.069
Mof_C 	C 	0.5336	0.7367	0.55733	-0.183
Mof_H 	H 	0.4687	0.7302	0.5436	0.105
Mof_C 	C 	0.5976	0.9467	0.52202	0.047
Mof_H 	H 	0.5714	0.99	0.5249	0.025
Mof_C 	C 	0.5994	0.9037	0.54215	-0.07
Mof_H 	H 	0.5747	0.9185	0.5579	0.051
Mof_C 	C 	0.5318	0.6927	0.57655	0.102
Mof_H 	H 	0.4645	0.6566	0.5753	-0.035
Mof_C 	C 	0.7191	0.7987	0.57975	-0.19
Mof_H 	H 	0.7836	0.8353	0.5819	0.09
Mof_C 	C 	0.7115	0.7529	0.59825	0.099
Mof_H 	H 	0.7723	0.7596	0.6124	-0.037
Mof_N 	N 	0.6293	0.55075	0.59671	-0.272
Mof_C 	C 	0.6145	0.4585	0.55883	0.126
Mof_C 	C 	0.6117	0.4111	0.53829	-0.041
Mof_N 	N 	0.517	0.49346	0.51078	-0.082
Mof_N 	N 	0.6196	0.3206	0.4997	-0.11
Mof_C 	C 	0.5767	0.3824	0.49589	-0.015
Mof_H 	H 	0.5496	0.3951	0.48	0.054
Mof_C 	C 	0.5707	0.4285	0.51453	0.069
Mof_C 	C 	0.7164	0.5133	0.55733	-0.183
Mof_H 	H 	0.7813	0.5198	0.5436	0.105
Mof_C 	C 	0.6524	0.3033	0.52202	0.047
Mof_H 	H 	0.6786	0.26	0.5249	0.025
Mof_C 	C 	0.6506	0.3463	0.54215	-0.07
Mof_H 	H 	0.6753	0.3315	0.5579	0.051
Mof_C 	C 	0.7182	0.5573	0.57655	0.102
Mof_H 	H 	0.7855	0.5934	0.5753	-0.035
Mof_C 	C 	0.5309	0.4513	0.57975	-0.19
Mof_H 	H 	0.4664	0.4147	0.5819	0.09
Mof_C 	C 	0.5385	0.4971	0.59825	0.099
Mof_H 	H 	0.4777	0.4904	0.6124	-0.036
Mof_N 	N 	0.6293	0.05075	0.09671	-0.272
Mof_C 	C 	0.6145	0.9585	0.05883	0.126
Mof_C 	C 	0.6117	0.9111	0.03829	-0.041
Mof_N 	N 	0.517	0.99346	0.01078	-0.082
Mof_N 	N 	0.6196	0.8206	0.9997	-0.11
Mof_C 	C 	0.5767	0.8824	0.99589	-0.015
Mof_H 	H 	0.5496	0.8951	0.98	0.054
Mof_C 	C 	0.5707	0.9285	0.01453	0.069
Mof_C 	C 	0.7164	0.0133	0.05733	-0.183
Mof_H 	H 	0.7813	0.0198	0.0436	0.105
Mof_C 	C 	0.6524	0.8033	0.02202	0.047
Mof_H 	H 	0.6786	0.76	0.0249	0.025
Mof_C 	C 	0.6506	0.8463	0.04215	-0.07
Mof_H 	H 	0.6753	0.8315	0.0579	0.051
Mof_C 	C 	0.7182	0.0573	0.07655	0.102
Mof_H 	H 	0.7855	0.0934	0.0753	-0.035
Mof_C 	C 	0.5309	0.9513	0.07975	-0.19
Mof_H 	H 	0.4664	0.9147	0.0819	0.09
Mof_C 	C 	0.5385	0.9971	0.09825	0.099
Mof_H 	H 	0.4777	0.9904	0.1124	-0.036
Mof_N 	N 	0.1293	0.55075	0.09671	-0.272
Mof_C 	C 	0.1145	0.4585	0.05883	0.126
Mof_C 	C 	0.1117	0.4111	0.03829	-0.04
Mof_N 	N 	0.017	0.49346	0.01078	-0.082
Mof_N 	N 	0.1196	0.3206	0.9997	-0.11
Mof_C 	C 	0.0767	0.3824	0.99589	-0.015
Mof_H 	H 	0.0496	0.3951	0.98	0.054
Mof_C 	C 	0.0707	0.4285	0.01453	0.069
Mof_C 	C 	0.2164	0.5133	0.05733	-0.183
Mof_H 	H 	0.2813	0.5198	0.0436	0.105
Mof_C 	C 	0.1524	0.3033	0.02202	0.047
Mof_H 	H 	0.1786	0.26	0.0249	0.025
Mof_C 	C 	0.1506	0.3463	0.04215	-0.07
Mof_H 	H 	0.1753	0.3315	0.0579	0.052
Mof_C 	C 	0.2182	0.5573	0.07655	0.102
Mof_H 	H 	0.2855	0.5934	0.0753	-0.035
Mof_C 	C 	0.0309	0.4513	0.07975	-0.19
Mof_H 	H 	0.9664	0.4147	0.0819	0.089
Mof_C 	C 	0.0385	0.4971	0.09825	0.099
Mof_H 	H 	0.9777	0.4904	0.1124	-0.037
Mof_N 	N 	0.1293	0.05075	0.59671	-0.272
Mof_C 	C 	0.1145	0.9585	0.55883	0.126
Mof_C 	C 	0.1117	0.9111	0.53829	-0.04
Mof_N 	N 	0.017	0.99346	0.51078	-0.082
Mof_N 	N 	0.1196	0.8206	0.4997	-0.11
Mof_C 	C 	0.0767	0.8824	0.49589	-0.015
Mof_H 	H 	0.0496	0.8951	0.48	0.054
Mof_C 	C 	0.0707	0.9285	0.51453	0.069
Mof_C 	C 	0.2164	0.0133	0.55733	-0.183
Mof_H 	H 	0.2813	0.0198	0.5436	0.105
Mof_C 	C 	0.1524	0.8033	0.52202	0.047
Mof_H 	H 	0.1786	0.76	0.5249	0.025
Mof_C 	C 	0.1506	0.8463	0.54215	-0.07
Mof_H 	H 	0.1753	0.8315	0.5579	0.052
Mof_C 	C 	0.2182	0.0573	0.57655	0.102
Mof_H 	H 	0.2855	0.0934	0.5753	-0.035
Mof_C 	C 	0.0309	0.9513	0.57975	-0.19
Mof_H 	H 	0.9664	0.9147	0.5819	0.089
Mof_C 	C 	0.0385	0.9971	0.59825	0.099
Mof_H 	H 	0.9777	0.9904	0.6124	-0.037
Mof_N 	N 	0.6293	0.19925	0.15329	-0.272
Mof_C 	C 	0.6145	0.2915	0.19117	0.126
Mof_C 	C 	0.6117	0.3389	0.21171	-0.041
Mof_N 	N 	0.517	0.25654	0.23922	-0.082
Mof_N 	N 	0.6196	0.4294	0.2503	-0.11
Mof_C 	C 	0.5767	0.3676	0.25411	-0.015
Mof_H 	H 	0.5496	0.3549	0.27	0.054
Mof_C 	C 	0.5707	0.3215	0.23547	0.069
Mof_C 	C 	0.7164	0.2367	0.19267	-0.183
Mof_H 	H 	0.7813	0.2302	0.2064	0.105
Mof_C 	C 	0.6524	0.4467	0.22798	0.047
Mof_H 	H 	0.6786	0.49	0.2251	0.025
Mof_C 	C 	0.6506	0.4037	0.20785	-0.07
Mof_H 	H 	0.6753	0.4185	0.1921	0.051
Mof_C 	C 	0.7182	0.1927	0.17345	0.102
Mof_H 	H 	0.7855	0.1566	0.1747	-0.035
Mof_C 	C 	0.5309	0.2987	0.17025	-0.19
Mof_H 	H 	0.4664	0.3353	0.1681	0.09
Mof_C 	C 	0.5385	0.2529	0.15175	0.099
Mof_H 	H 	0.4777	0.2596	0.1376	-0.036
Mof_N 	N 	0.6293	0.69925	0.65329	-0.272
Mof_C 	C 	0.6145	0.7915	0.69117	0.126
Mof_C 	C 	0.6117	0.8389	0.71171	-0.041
Mof_N 	N 	0.517	0.75654	0.73922	-0.082
Mof_N 	N 	0.6196	0.9294	0.7503	-0.11
Mof_C 	C 	0.5767	0.8676	0.75411	-0.015
Mof_H 	H 	0.5496	0.8549	0.77	0.054
Mof_C 	C 	0.5707	0.8215	0.73547	0.069
Mof_C 	C 	0.7164	0.7367	0.69267	-0.183
Mof_H 	H 	0.7813	0.7302	0.7064	0.105
Mof_C 	C 	0.6524	0.9467	0.72798	0.047
Mof_H 	H 	0.6786	0.99	0.7251	0.025
Mof_C 	C 	0.6506	0.9037	0.70785	-0.07
Mof_H 	H 	0.6753	0.9185	0.6921	0.051
Mof_C 	C 	0.7182	0.6927	0.67345	0.102
Mof_H 	H 	0.7855	0.6566	0.6747	-0.035
Mof_C 	C 	0.5309	0.7987	0.67025	-0.19
Mof_H 	H 	0.4664	0.8353	0.6681	0.09
Mof_C 	C 	0.5385	0.7529	0.65175	0.099
Mof_H 	H 	0.4777	0.7596	0.6376	-0.036
Mof_N 	N 	0.1293	0.19925	0.65329	-0.272
Mof_C 	C 	0.1145	0.2915	0.69117	0.126
Mof_C 	C 	0.1117	0.3389	0.71171	-0.04
Mof_N 	N 	0.017	0.25654	0.73922	-0.082
Mof_N 	N 	0.1196	0.4294	0.7503	-0.11
Mof_C 	C 	0.0767	0.3676	0.75411	-0.015
Mof_H 	H 	0.0496	0.3549	0.77	0.054
Mof_C 	C 	0.0707	0.3215	0.73547	0.069
Mof_C 	C 	0.2164	0.2367	0.69267	-0.183
Mof_H 	H 	0.2813	0.2302	0.7064	0.105
Mof_C 	C 	0.1524	0.4467	0.72798	0.047
Mof_H 	H 	0.1786	0.49	0.7251	0.025
Mof_C 	C 	0.1506	0.4037	0.70785	-0.07
Mof_H 	H 	0.1753	0.4185	0.6921	0.052
Mof_C 	C 	0.2182	0.1927	0.67345	0.102
Mof_H 	H 	0.2855	0.1566	0.6747	-0.035
Mof_C 	C 	0.0309	0.2987	0.67025	-0.19
Mof_H 	H 	0.9664	0.3353	0.6681	0.089
Mof_C 	C 	0.0385	0.2529	0.65175	0.099
Mof_H 	H 	0.9777	0.2596	0.6376	-0.037
Mof_N 	N 	0.1293	0.69925	0.15329	-0.272
Mof_C 	C 	0.1145	0.7915	0.19117	0.126
Mof_C 	C 	0.1117	0.8389	0.21171	-0.041
Mof_N 	N 	0.017	0.75654	0.23922	-0.082
Mof_N 	N 	0.1196	0.9294	0.2503	-0.11
Mof_C 	C 	0.0767	0.8676	0.25411	-0.015
Mof_H 	H 	0.0496	0.8549	0.27	0.054
Mof_C 	C 	0.0707	0.8215	0.23547	0.069
Mof_C 	C 	0.2164	0.7367	0.19267	-0.183
Mof_H 	H 	0.2813	0.7302	0.2064	0.105
Mof_C 	C 	0.1524	0.9467	0.22798	0.047
Mof_H 	H 	0.1786	0.99	0.2251	0.025
Mof_C 	C 	0.1506	0.9037	0.20785	-0.07
Mof_H 	H 	0.1753	0.9185	0.1921	0.052
Mof_C 	C 	0.2182	0.6927	0.17345	0.102
Mof_H 	H 	0.2855	0.6566	0.1747	-0.035
Mof_C 	C 	0.0309	0.7987	0.17025	-0.19
Mof_H 	H 	0.9664	0.8353	0.1681	0.089
Mof_C 	C 	0.0385	0.7529	0.15175	0.099
Mof_H 	H 	0.9777	0.7596	0.1376	-0.037
Mof_N 	N 	0.1207	0.55075	0.15329	-0.272
Mof_C 	C 	0.1355	0.4585	0.19117	0.126
Mof_C 	C 	0.1383	0.4111	0.21171	-0.041
Mof_N 	N 	0.233	0.49346	0.23922	-0.082
Mof_N 	N 	0.1304	0.3206	0.2503	-0.11
Mof_C 	C 	0.1733	0.3824	0.25411	-0.015
Mof_H 	H 	0.2004	0.3951	0.27	0.054
Mof_C 	C 	0.1793	0.4285	0.23547	0.069
Mof_C 	C 	0.0336	0.5133	0.19267	-0.183
Mof_H 	H 	0.9687	0.5198	0.2064	0.105
Mof_C 	C 	0.0976	0.3033	0.22798	0.047
Mof_H 	H 	0.0714	0.26	0.2251	0.025
Mof_C 	C 	0.0994	0.3463	0.20785	-0.07
Mof_H 	H 	0.0747	0.3315	0.1921	0.052
Mof_C 	C 	0.0318	0.5573	0.17345	0.102
Mof_H 	H 	0.9645	0.5934	0.1747	-0.036
Mof_C 	C 	0.2191	0.4513	0.17025	-0.19
Mof_H 	H 	0.2836	0.4147	0.1681	0.09
Mof_C 	C 	0.2115	0.4971	0.15175	0.099
Mof_H 	H 	0.2723	0.4904	0.1376	-0.036
Mof_N 	N 	0.1207	0.05075	0.65329	-0.272
Mof_C 	C 	0.1355	0.9585	0.69117	0.126
Mof_C 	C 	0.1383	0.9111	0.71171	-0.041
Mof_N 	N 	0.233	0.99346	0.73922	-0.082
Mof_N 	N 	0.1304	0.8206	0.7503	-0.11
Mof_C 	C 	0.1733	0.8824	0.75411	-0.015
Mof_H 	H 	0.2004	0.8951	0.77	0.054
Mof_C 	C 	0.1793	0.9285	0.73547	0.069
Mof_C 	C 	0.0336	0.0133	0.69267	-0.182
Mof_H 	H 	0.9687	0.0198	0.7064	0.105
Mof_C 	C 	0.0976	0.8033	0.72798	0.047
Mof_H 	H 	0.0714	0.76	0.7251	0.025
Mof_C 	C 	0.0994	0.8463	0.70785	-0.07
Mof_H 	H 	0.0747	0.8315	0.6921	0.052
Mof_C 	C 	0.0318	0.0573	0.67345	0.102
Mof_H 	H 	0.9645	0.0934	0.6747	-0.036
Mof_C 	C 	0.2191	0.9513	0.67025	-0.19
Mof_H 	H 	0.2836	0.9147	0.6681	0.09
Mof_C 	C 	0.2115	0.9971	0.65175	0.099
Mof_H 	H 	0.2723	0.9904	0.6376	-0.036
Mof_N 	N 	0.6207	0.55075	0.65329	-0.272
Mof_C 	C 	0.6355	0.4585	0.69117	0.126
Mof_C 	C 	0.6383	0.4111	0.71171	-0.041
Mof_N 	N 	0.733	0.49346	0.73922	-0.082
Mof_N 	N 	0.6304	0.3206	0.7503	-0.11
Mof_C 	C 	0.6733	0.3824	0.75411	-0.015
Mof_H 	H 	0.7004	0.3951	0.77	0.054
Mof_C 	C 	0.6793	0.4285	0.73547	0.069
Mof_C 	C 	0.5336	0.5133	0.69267	-0.183
Mof_H 	H 	0.4687	0.5198	0.7064	0.105
Mof_C 	C 	0.5976	0.3033	0.72798	0.047
Mof_H 	H 	0.5714	0.26	0.7251	0.025
Mof_C 	C 	0.5994	0.3463	0.70785	-0.07
Mof_H 	H 	0.5747	0.3315	0.6921	0.051
Mof_C 	C 	0.5318	0.5573	0.67345	0.102
Mof_H 	H 	0.4645	0.5934	0.6747	-0.035
Mof_C 	C 	0.7191	0.4513	0.67025	-0.19
Mof_H 	H 	0.7836	0.4147	0.6681	0.09
Mof_C 	C 	0.7115	0.4971	0.65175	0.099
Mof_H 	H 	0.7723	0.4904	0.6376	-0.037
Mof_N 	N 	0.6207	0.05075	0.15329	-0.272
Mof_C 	C 	0.6355	0.9585	0.19117	0.126
Mof_C 	C 	0.6383	0.9111	0.21171	-0.041
Mof_N 	N 	0.733	0.99346	0.23922	-0.082
Mof_N 	N 	0.6304	0.8206	0.2503	-0.11
Mof_C 	C 	0.6733	0.8824	0.25411	-0.015
Mof_H 	H 	0.7004	0.8951	0.27	0.054
Mof_C 	C 	0.6793	0.9285	0.23547	0.069
Mof_C 	C 	0.5336	0.0133	0.19267	-0.183
Mof_H 	H 	0.4687	0.0198	0.2064	0.105
Mof_C 	C 	0.5976	0.8033	0.22798	0.047
Mof_H 	H 	0.5714	0.76	0.2251	0.025
Mof_C 	C 	0.5994	0.8463	0.20785	-0.07
Mof_H 	H 	0.5747	0.8315	0.1921	0.051
Mof_C 	C 	0.5318	0.0573	0.17345	0.102
Mof_H 	H 	0.4645	0.0934	0.1747	-0.035
Mof_C 	C 	0.7191	0.9513	0.17025	-0.19
Mof_H 	H 	0.7836	0.9147	0.1681	0.09
Mof_C 	C 	0.7115	0.9971	0.15175	0.099
Mof_H 	H 	0.7723	0.9904	0.1376	-0.037
Mof_N 	N 	0.8793	0.80075	0.40329	-0.272
Mof_C 	C 	0.8645	0.7085	0.44117	0.126
Mof_C 	C 	0.8617	0.6611	0.46171	-0.041
Mof_N 	N 	0.767	0.74346	0.48922	-0.082
Mof_N 	N 	0.8696	0.5706	0.5003	-0.11
Mof_C 	C 	0.8267	0.6324	0.50411	-0.015
Mof_H 	H 	0.7996	0.6451	0.52	0.054
Mof_C 	C 	0.8207	0.6785	0.48547	0.069
Mof_C 	C 	0.9664	0.7633	0.44267	-0.183
Mof_H 	H 	0.0313	0.7698	0.4564	0.105
Mof_C 	C 	0.9024	0.5533	0.47798	0.047
Mof_H 	H 	0.9286	0.51	0.4751	0.025
Mof_C 	C 	0.9006	0.5963	0.45785	-0.07
Mof_H 	H 	0.9253	0.5815	0.4421	0.052
Mof_C 	C 	0.9682	0.8073	0.42345	0.102
Mof_H 	H 	0.0355	0.8434	0.4247	-0.036
Mof_C 	C 	0.7809	0.7013	0.42025	-0.19
Mof_H 	H 	0.7164	0.6647	0.4181	0.09
Mof_C 	C 	0.7885	0.7471	0.40175	0.099
Mof_H 	H 	0.7277	0.7404	0.3876	-0.036
Mof_N 	N 	0.8793	0.30075	0.90329	-0.272
Mof_C 	C 	0.8645	0.2085	0.94117	0.126
Mof_C 	C 	0.8617	0.1611	0.96171	-0.041
Mof_N 	N 	0.767	0.24346	0.98922	-0.082
Mof_N 	N 	0.8696	0.0706	0.0003	-0.11
Mof_C 	C 	0.8267	0.1324	0.00411	-0.015
Mof_H 	H 	0.7996	0.1451	0.02	0.054
Mof_C 	C 	0.8207	0.1785	0.98547	0.069
Mof_C 	C 	0.9664	0.2633	0.94267	-0.183
Mof_H 	H 	0.0313	0.2698	0.9564	0.105
Mof_C 	C 	0.9024	0.0533	0.97798	0.047
Mof_H 	H 	0.9286	0.01	0.9751	0.025
Mof_C 	C 	0.9006	0.0963	0.95785	-0.07
Mof_H 	H 	0.9253	0.0815	0.9421	0.052
Mof_C 	C 	0.9682	0.3073	0.92345	0.102
Mof_H 	H 	0.0355	0.3434	0.9247	-0.036
Mof_C 	C 	0.7809	0.2013	0.92025	-0.19
Mof_H 	H 	0.7164	0.1647	0.9181	0.09
Mof_C 	C 	0.7885	0.2471	0.90175	0.099
Mof_H 	H 	0.7277	0.2404	0.8876	-0.036
Mof_N 	N 	0.3793	0.80075	0.90329	-0.272
Mof_C 	C 	0.3645	0.7085	0.94117	0.126
Mof_C 	C 	0.3617	0.6611	0.96171	-0.041
Mof_N 	N 	0.267	0.74346	0.98922	-0.082
Mof_N 	N 	0.3696	0.5706	0.0003	-0.11
Mof_C 	C 	0.3267	0.6324	0.00411	-0.015
Mof_H 	H 	0.2996	0.6451	0.02	0.054
Mof_C 	C 	0.3207	0.6785	0.98547	0.069
Mof_C 	C 	0.4664	0.7633	0.94267	-0.183
Mof_H 	H 	0.5313	0.7698	0.9564	0.105
Mof_C 	C 	0.4024	0.5533	0.97798	0.047
Mof_H 	H 	0.4286	0.51	0.9751	0.025
Mof_C 	C 	0.4006	0.5963	0.95785	-0.07
Mof_H 	H 	0.4253	0.5815	0.9421	0.051
Mof_C 	C 	0.4682	0.8073	0.92345	0.102
Mof_H 	H 	0.5355	0.8434	0.9247	-0.035
Mof_C 	C 	0.2809	0.7013	0.92025	-0.19
Mof_H 	H 	0.2164	0.6647	0.9181	0.09
Mof_C 	C 	0.2885	0.7471	0.90175	0.099
Mof_H 	H 	0.2277	0.7404	0.8876	-0.037
Mof_N 	N 	0.3793	0.30075	0.40329	-0.272
Mof_C 	C 	0.3645	0.2085	0.44117	0.126
Mof_C 	C 	0.3617	0.1611	0.46171	-0.041
Mof_N 	N 	0.267	0.24346	0.48922	-0.082
Mof_N 	N 	0.3696	0.0706	0.5003	-0.11
Mof_C 	C 	0.3267	0.1324	0.50411	-0.015
Mof_H 	H 	0.2996	0.1451	0.52	0.054
Mof_C 	C 	0.3207	0.1785	0.48547	0.069
Mof_C 	C 	0.4664	0.2633	0.44267	-0.183
Mof_H 	H 	0.5313	0.2698	0.4564	0.105
Mof_C 	C 	0.4024	0.0533	0.47798	0.047
Mof_H 	H 	0.4286	0.01	0.4751	0.025
Mof_C 	C 	0.4006	0.0963	0.45785	-0.07
Mof_H 	H 	0.4253	0.0815	0.4421	0.051
Mof_C 	C 	0.4682	0.3073	0.42345	0.102
Mof_H 	H 	0.5355	0.3434	0.4247	-0.035
Mof_C 	C 	0.2809	0.2013	0.42025	-0.19
Mof_H 	H 	0.2164	0.1647	0.4181	0.09
Mof_C 	C 	0.2885	0.2471	0.40175	0.099
Mof_H 	H 	0.2277	0.2404	0.3876	-0.037
Mof_N 	N 	0.3707	0.44925	0.40329	-0.272
Mof_C 	C 	0.3855	0.5415	0.44117	0.126
Mof_C 	C 	0.3883	0.5889	0.46171	-0.041
Mof_N 	N 	0.483	0.50654	0.48922	-0.082
Mof_N 	N 	0.3804	0.6794	0.5003	-0.11
Mof_C 	C 	0.4233	0.6176	0.50411	-0.015
Mof_H 	H 	0.4504	0.6049	0.52	0.054
Mof_C 	C 	0.4293	0.5715	0.48547	0.069
Mof_C 	C 	0.2836	0.4867	0.44267	-0.183
Mof_H 	H 	0.2187	0.4802	0.4564	0.105
Mof_C 	C 	0.3476	0.6967	0.47798	0.047
Mof_H 	H 	0.3214	0.74	0.4751	0.025
Mof_C 	C 	0.3494	0.6537	0.45785	-0.07
Mof_H 	H 	0.3247	0.6685	0.4421	0.051
Mof_C 	C 	0.2818	0.4427	0.42345	0.102
Mof_H 	H 	0.2145	0.4066	0.4247	-0.035
Mof_C 	C 	0.4691	0.5487	0.42025	-0.19
Mof_H 	H 	0.5336	0.5853	0.4181	0.09
Mof_C 	C 	0.4615	0.5029	0.40175	0.099
Mof_H 	H 	0.5223	0.5096	0.3876	-0.036
Mof_N 	N 	0.3707	0.94925	0.90329	-0.272
Mof_C 	C 	0.3855	0.0415	0.94117	0.126
Mof_C 	C 	0.3883	0.0889	0.96171	-0.041
Mof_N 	N 	0.483	0.00654	0.98922	-0.082
Mof_N 	N 	0.3804	0.1794	0.0003	-0.11
Mof_C 	C 	0.4233	0.1176	0.00411	-0.015
Mof_H 	H 	0.4504	0.1049	0.02	0.054
Mof_C 	C 	0.4293	0.0715	0.98547	0.069
Mof_C 	C 	0.2836	0.9867	0.94267	-0.183
Mof_H 	H 	0.2187	0.9802	0.9564	0.105
Mof_C 	C 	0.3476	0.1967	0.97798	0.047
Mof_H 	H 	0.3214	0.24	0.9751	0.025
Mof_C 	C 	0.3494	0.1537	0.95785	-0.07
Mof_H 	H 	0.3247	0.1685	0.9421	0.051
Mof_C 	C 	0.2818	0.9427	0.92345	0.102
Mof_H 	H 	0.2145	0.9066	0.9247	-0.035
Mof_C 	C 	0.4691	0.0487	0.92025	-0.19
Mof_H 	H 	0.5336	0.0853	0.9181	0.09
Mof_C 	C 	0.4615	0.0029	0.90175	0.099
Mof_H 	H 	0.5223	0.0096	0.8876	-0.036
Mof_N 	N 	0.8707	0.44925	0.90329	-0.272
Mof_C 	C 	0.8855	0.5415	0.94117	0.126
Mof_C 	C 	0.8883	0.5889	0.96171	-0.04
Mof_N 	N 	0.983	0.50654	0.98922	-0.082
Mof_N 	N 	0.8804	0.6794	0.0003	-0.11
Mof_C 	C 	0.9233	0.6176	0.00411	-0.015
Mof_H 	H 	0.9504	0.6049	0.02	0.054
Mof_C 	C 	0.9293	0.5715	0.98547	0.069
Mof_C 	C 	0.7836	0.4867	0.94267	-0.183
Mof_H 	H 	0.7187	0.4802	0.9564	0.105
Mof_C 	C 	0.8476	0.6967	0.97798	0.047
Mof_H 	H 	0.8214	0.74	0.9751	0.025
Mof_C 	C 	0.8494	0.6537	0.95785	-0.07
Mof_H 	H 	0.8247	0.6685	0.9421	0.052
Mof_C 	C 	0.7818	0.4427	0.92345	0.102
Mof_H 	H 	0.7145	0.4066	0.9247	-0.035
Mof_C 	C 	0.9691	0.5487	0.92025	-0.19
Mof_H 	H 	0.0336	0.5853	0.9181	0.089
Mof_C 	C 	0.9615	0.5029	0.90175	0.099
Mof_H 	H 	0.0223	0.5096	0.8876	-0.037
Mof_N 	N 	0.8707	0.94925	0.40329	-0.272
Mof_C 	C 	0.8855	0.0415	0.44117	0.126
Mof_C 	C 	0.8883	0.0889	0.46171	-0.04
Mof_N 	N 	0.983	0.00654	0.48922	-0.082
Mof_N 	N 	0.8804	0.1794	0.5003	-0.11
Mof_C 	C 	0.9233	0.1176	0.50411	-0.015
Mof_H 	H 	0.9504	0.1049	0.52	0.054
Mof_C 	C 	0.9293	0.0715	0.48547	0.069
Mof_C 	C 	0.7836	0.9867	0.44267	-0.183
Mof_H 	H 	0.7187	0.9802	0.4564	0.105
Mof_C 	C 	0.8476	0.1967	0.47798	0.047
Mof_H 	H 	0.8214	0.24	0.4751	0.025
Mof_C 	C 	0.8494	0.1537	0.45785	-0.07
Mof_H 	H 	0.8247	0.1685	0.4421	0.052
Mof_C 	C 	0.7818	0.9427	0.42345	0.102
Mof_H 	H 	0.7145	0.9066	0.4247	-0.035
Mof_C 	C 	0.9691	0.0487	0.42025	-0.19
Mof_H 	H 	0.0336	0.0853	0.4181	0.089
Mof_C 	C 	0.9615	0.0029	0.40175	0.099
Mof_H 	H 	0.0223	0.0096	0.3876	-0.037
Mof_N 	N 	0.3707	0.80075	0.84671	-0.272
Mof_C 	C 	0.3855	0.7085	0.80883	0.126
Mof_C 	C 	0.3883	0.6611	0.78829	-0.041
Mof_N 	N 	0.483	0.74346	0.76078	-0.082
Mof_N 	N 	0.3804	0.5706	0.7497	-0.11
Mof_C 	C 	0.4233	0.6324	0.74589	-0.015
Mof_H 	H 	0.4504	0.6451	0.73	0.054
Mof_C 	C 	0.4293	0.6785	0.76453	0.069
Mof_C 	C 	0.2836	0.7633	0.80733	-0.183
Mof_H 	H 	0.2187	0.7698	0.7936	0.105
Mof_C 	C 	0.3476	0.5533	0.77202	0.047
Mof_H 	H 	0.3214	0.51	0.7749	0.025
Mof_C 	C 	0.3494	0.5963	0.79215	-0.07
Mof_H 	H 	0.3247	0.5815	0.8079	0.051
Mof_C 	C 	0.2818	0.8073	0.82655	0.102
Mof_H 	H 	0.2145	0.8434	0.8253	-0.035
Mof_C 	C 	0.4691	0.7013	0.82975	-0.19
Mof_H 	H 	0.5336	0.6647	0.8319	0.09
Mof_C 	C 	0.4615	0.7471	0.84825	0.099
Mof_H 	H 	0.5223	0.7404	0.8624	-0.036
Mof_N 	N 	0.3707	0.30075	0.34671	-0.272
Mof_C 	C 	0.3855	0.2085	0.30883	0.126
Mof_C 	C 	0.3883	0.1611	0.28829	-0.041
Mof_N 	N 	0.483	0.24346	0.26078	-0.082
Mof_N 	N 	0.3804	0.0706	0.2497	-0.11
Mof_C 	C 	0.4233	0.1324	0.24589	-0.015
Mof_H 	H 	0.4504	0.1451	0.23	0.054
Mof_C 	C 	0.4293	0.1785	0.26453	0.069
Mof_C 	C 	0.2836	0.2633	0.30733	-0.183
Mof_H 	H 	0.2187	0.2698	0.2936	0.105
Mof_C 	C 	0.3476	0.0533	0.27202	0.047
Mof_H 	H 	0.3214	0.01	0.2749	0.025
Mof_C 	C 	0.3494	0.0963	0.29215	-0.07
Mof_H 	H 	0.3247	0.0815	0.3079	0.051
Mof_C 	C 	0.2818	0.3073	0.32655	0.102
Mof_H 	H 	0.2145	0.3434	0.3253	-0.035
Mof_C 	C 	0.4691	0.2013	0.32975	-0.19
Mof_H 	H 	0.5336	0.1647	0.3319	0.09
Mof_C 	C 	0.4615	0.2471	0.34825	0.099
Mof_H 	H 	0.5223	0.2404	0.3624	-0.036
Mof_N 	N 	0.8707	0.80075	0.34671	-0.272
Mof_C 	C 	0.8855	0.7085	0.30883	0.126
Mof_C 	C 	0.8883	0.6611	0.28829	-0.04
Mof_N 	N 	0.983	0.74346	0.26078	-0.082
Mof_N 	N 	0.8804	0.5706	0.2497	-0.11
Mof_C 	C 	0.9233	0.6324	0.24589	-0.015
Mof_H 	H 	0.9504	0.6451	0.23	0.054
Mof_C 	C 	0.9293	0.6785	0.26453	0.069
Mof_C 	C 	0.7836	0.7633	0.30733	-0.183
Mof_H 	H 	0.7187	0.7698	0.2936	0.105
Mof_C 	C 	0.8476	0.5533	0.27202	0.047
Mof_H 	H 	0.8214	0.51	0.2749	0.025
Mof_C 	C 	0.8494	0.5963	0.29215	-0.07
Mof_H 	H 	0.8247	0.5815	0.3079	0.052
Mof_C 	C 	0.7818	0.8073	0.32655	0.102
Mof_H 	H 	0.7145	0.8434	0.3253	-0.035
Mof_C 	C 	0.9691	0.7013	0.32975	-0.19
Mof_H 	H 	0.0336	0.6647	0.3319	0.089
Mof_C 	C 	0.9615	0.7471	0.34825	0.099
Mof_H 	H 	0.0223	0.7404	0.3624	-0.037
Mof_N 	N 	0.8707	0.30075	0.84671	-0.272
Mof_C 	C 	0.8855	0.2085	0.80883	0.126
Mof_C 	C 	0.8883	0.1611	0.78829	-0.041
Mof_N 	N 	0.983	0.24346	0.76078	-0.082
Mof_N 	N 	0.8804	0.0706	0.7497	-0.11
Mof_C 	C 	0.9233	0.1324	0.74589	-0.015
Mof_H 	H 	0.9504	0.1451	0.73	0.054
Mof_C 	C 	0.9293	0.1785	0.76453	0.069
Mof_C 	C 	0.7836	0.2633	0.80733	-0.183
Mof_H 	H 	0.7187	0.2698	0.7936	0.105
Mof_C 	C 	0.8476	0.0533	0.77202	0.047
Mof_H 	H 	0.8214	0.01	0.7749	0.025
Mof_C 	C 	0.8494	0.0963	0.79215	-0.07
Mof_H 	H 	0.8247	0.0815	0.8079	0.052
Mof_C 	C 	0.7818	0.3073	0.82655	0.102
Mof_H 	H 	0.7145	0.3434	0.8253	-0.035
Mof_C 	C 	0.9691	0.2013	0.82975	-0.19
Mof_H 	H 	0.0336	0.1647	0.8319	0.089
Mof_C 	C 	0.9615	0.2471	0.84825	0.099
Mof_H 	H 	0.0223	0.2404	0.8624	-0.037
Mof_N 	N 	0.8793	0.44925	0.84671	-0.272
Mof_C 	C 	0.8645	0.5415	0.80883	0.126
Mof_C 	C 	0.8617	0.5889	0.78829	-0.041
Mof_N 	N 	0.767	0.50654	0.76078	-0.082
Mof_N 	N 	0.8696	0.6794	0.7497	-0.11
Mof_C 	C 	0.8267	0.6176	0.74589	-0.015
Mof_H 	H 	0.7996	0.6049	0.73	0.054
Mof_C 	C 	0.8207	0.5715	0.76453	0.069
Mof_C 	C 	0.9664	0.4867	0.80733	-0.183
Mof_H 	H 	0.0313	0.4802	0.7936	0.105
Mof_C 	C 	0.9024	0.6967	0.77202	0.047
Mof_H 	H 	0.9286	0.74	0.7749	0.025
Mof_C 	C 	0.9006	0.6537	0.79215	-0.07
Mof_H 	H 	0.9253	0.6685	0.8079	0.052
Mof_C 	C 	0.9682	0.4427	0.82655	0.102
Mof_H 	H 	0.0355	0.4066	0.8253	-0.036
Mof_C 	C 	0.7809	0.5487	0.82975	-0.19
Mof_H 	H 	0.7164	0.5853	0.8319	0.09
Mof_C 	C 	0.7885	0.5029	0.84825	0.099
Mof_H 	H 	0.7277	0.5096	0.8624	-0.036
Mof_N 	N 	0.8793	0.94925	0.34671	-0.272
Mof_C 	C 	0.8645	0.0415	0.30883	0.126
Mof_C 	C 	0.8617	0.0889	0.28829	-0.041
Mof_N 	N 	0.767	0.00654	0.26078	-0.082
Mof_N 	N 	0.8696	0.1794	0.2497	-0.11
Mof_C 	C 	0.8267	0.1176	0.24589	-0.015
Mof_H 	H 	0.7996	0.1049	0.23	0.054
Mof_C 	C 	0.8207	0.0715	0.26453	0.069
Mof_C 	C 	0.9664	0.9867	0.30733	-0.182
Mof_H 	H 	0.0313	0.9802	0.2936	0.105
Mof_C 	C 	0.9024	0.1967	0.27202	0.047
Mof_H 	H 	0.9286	0.24	0.2749	0.025
Mof_C 	C 	0.9006	0.1537	0.29215	-0.07
Mof_H 	H 	0.9253	0.1685	0.3079	0.052
Mof_C 	C 	0.9682	0.9427	0.32655	0.102
Mof_H 	H 	0.0355	0.9066	0.3253	-0.036
Mof_C 	C 	0.7809	0.0487	0.32975	-0.19
Mof_H 	H 	0.7164	0.0853	0.3319	0.09
Mof_C 	C 	0.7885	0.0029	0.34825	0.099
Mof_H 	H 	0.7277	0.0096	0.3624	-0.036
Mof_N 	N 	0.3793	0.44925	0.34671	-0.272
Mof_C 	C 	0.3645	0.5415	0.30883	0.126
Mof_C 	C 	0.3617	0.5889	0.28829	-0.041
Mof_N 	N 	0.267	0.50654	0.26078	-0.082
Mof_N 	N 	0.3696	0.6794	0.2497	-0.11
Mof_C 	C 	0.3267	0.6176	0.24589	-0.015
Mof_H 	H 	0.2996	0.6049	0.23	0.054
Mof_C 	C 	0.3207	0.5715	0.26453	0.069
Mof_C 	C 	0.4664	0.4867	0.30733	-0.183
Mof_H 	H 	0.5313	0.4802	0.2936	0.105
Mof_C 	C 	0.4024	0.6967	0.27202	0.047
Mof_H 	H 	0.4286	0.74	0.2749	0.025
Mof_C 	C 	0.4006	0.6537	0.29215	-0.07
Mof_H 	H 	0.4253	0.6685	0.3079	0.051
Mof_C 	C 	0.4682	0.4427	0.32655	0.102
Mof_H 	H 	0.5355	0.4066	0.3253	-0.035
Mof_C 	C 	0.2809	0.5487	0.32975	-0.19
Mof_H 	H 	0.2164	0.5853	0.3319	0.09
Mof_C 	C 	0.2885	0.5029	0.34825	0.099
Mof_H 	H 	0.2277	0.5096	0.3624	-0.037
Mof_N 	N 	0.3793	0.94925	0.84671	-0.272
Mof_C 	C 	0.3645	0.0415	0.80883	0.126
Mof_C 	C 	0.3617	0.0889	0.78829	-0.041
Mof_N 	N 	0.267	0.00654	0.76078	-0.082
Mof_N 	N 	0.3696	0.1794	0.7497	-0.11
Mof_C 	C 	0.3267	0.1176	0.74589	-0.015
Mof_H 	H 	0.2996	0.1049	0.73	0.054
Mof_C 	C 	0.3207	0.0715	0.76453	0.069
Mof_C 	C 	0.4664	0.9867	0.80733	-0.183
Mof_H 	H 	0.5313	0.9802	0.7936	0.105
Mof_C 	C 	0.4024	0.1967	0.77202	0.047
Mof_H 	H 	0.4286	0.24	0.7749	0.025
Mof_C 	C 	0.4006	0.1537	0.79215	-0.07
Mof_H 	H 	0.4253	0.1685	0.8079	0.051
Mof_C 	C 	0.4682	0.9427	0.82655	0.102
Mof_H 	H 	0.5355	0.9066	0.8253	-0.035
Mof_C 	C 	0.2809	0.0487	0.82975	-0.19
Mof_H 	H 	0.2164	0.0853	0.8319	0.09
Mof_C 	C 	0.2885	0.0029	0.84825	0.099
Mof_H 	H 	0.2277	0.0096	0.8624	-0.037
Mof_Co	Co	0.125	0.125	0.625	1.065
Mof_Co	Co	0.625	0.625	0.625	1.065
Mof_Co	Co	0.625	0.125	0.125	1.065
Mof_Co	Co	0.125	0.625	0.125	1.065
Mof_Co	Co	0.875	0.875	0.375	1.065
Mof_Co	Co	0.375	0.375	0.375	1.065
Mof_Co	Co	0.375	0.875	0.875	1.065
Mof_Co	Co	0.875	0.375	0.875	1.065
_end
