data_functionalizedCrystal
_audit_creation_method	'EQeq! by Chris Wilmer'
_symmetry_space_group_name_H-M	'P1'
_symmetry_Int_Tables_number	1
_symmetry_cell_setting	triclinic
loop_
_symmetry_equiv_pos_as_xyz
  x,y,z
_cell_length_a	38.1682
_cell_length_b	38.1682
_cell_length_c	55.0917
_cell_angle_alpha	90
_cell_angle_beta	90
_cell_angle_gamma	90
loop_
_atom_site_label
_atom_site_type_symbol
_atom_site_fract_x
_atom_site_fract_y
_atom_site_fract_z
_atom_site_charge
Mof_C 	C 	0.35535	0.25372	0.06578	-0.075
Mof_H 	H 	0.3565	0.2315	0.0588	0.076
Mof_C 	C 	0.33255	0.2923	0.09638	-0.076
Mof_H 	H 	0.3185	0.2957	0.11	0.091
Mof_C 	C 	0.30849	0.14293	0.12177	-0.06
Mof_C 	C 	0.33719	0.12137	0.11709	-0.024
Mof_H 	H 	0.3574	0.13	0.1098	0.04
Mof_C 	C 	0.2823	0.12997	0.13526	-0.02
Mof_H 	H 	0.2637	0.1442	0.1398	0.049
Mof_C 	C 	0.33433	0.08638	0.12379	-0.066
Mof_H 	H 	0.3514	0.071	0.1181	0.052
Mof_C 	C 	0.2832	0.09432	0.14261	-0.069
Mof_H 	H 	0.2644	0.0855	0.1514	0.056
Mof_C 	C 	0.30917	0.07339	0.13763	0.013
Mof_C 	C 	0.30961	0.03657	0.1463	0.077
Mof_C 	C 	0.28982	0.02688	0.16661	-0.149
Mof_H 	H 	0.2762	0.0434	0.1747	0.085
Mof_C 	C 	0.33198	0.01184	0.1355	-0.146
Mof_H 	H 	0.3462	0.0186	0.1226	0.082
Mof_Zn	Zn	0.42579	0.62831	0.10213	1.228
Mof_Zn	Zn	0.40114	0.67051	0.13618	1.228
Mof_O 	O 	0.38111	0.70423	0.16402	-0.463
Mof_H 	H 	0.3625	0.6964	0.169	0.258
Mof_O 	O 	0.44667	0.59448	0.07431	-0.456
Mof_H 	H 	0.4669	0.6002	0.0713	0.258
Mof_O 	O 	0.41891	0.70752	0.11529	-0.451
Mof_O 	O 	0.51902	0.71797	0.02533	-0.484
Mof_O 	O 	0.44189	0.67165	0.08757	-0.468
Mof_O 	O 	0.53259	0.7752	0.02494	-0.485
Mof_C 	C 	0.47453	0.72703	0.06377	-0.005
Mof_H 	H 	0.4802	0.7043	0.0591	0.068
Mof_C 	C 	0.43689	0.70137	0.0964	0.362
Mof_N 	N 	0.44657	0.82891	0.08339	-0.093
Mof_C 	C 	0.48943	0.75523	0.05182	-0.049
Mof_C 	C 	0.51661	0.74912	0.03203	0.386
Mof_C 	C 	0.48053	0.78902	0.05819	-0.073
Mof_H 	H 	0.4902	0.808	0.05	0.088
Mof_C 	C 	0.45124	0.73263	0.08264	-0.044
Mof_C 	C 	0.37376	0.89175	0.12182	-0.093
Mof_H 	H 	0.3703	0.868	0.1248	0.068
Mof_N 	N 	0.44963	0.88421	0.084	-0.077
Mof_C 	C 	0.23031	0.96396	0.23693	0.07
Mof_C 	C 	0.44196	0.76637	0.08934	-0.078
Mof_H 	H 	0.4261	0.7702	0.1019	0.085
Mof_C 	C 	0.4568	0.7942	0.077	0.103
Mof_C 	C 	0.26911	0.98216	0.19609	-0.046
Mof_C 	C 	0.33314	0.97705	0.1438	0.099
Mof_C 	C 	0.31223	0.96795	0.16281	-0.163
Mof_H 	H 	0.3123	0.9448	0.1681	0.091
Mof_C 	C 	0.24007	0.9952	0.23351	-0.112
Mof_H 	H 	0.2343	0.0121	0.245	0.075
Mof_C 	C 	0.42039	0.84022	0.09707	0.004
Mof_H 	H 	0.4035	0.8265	0.1047	0.038
Mof_C 	C 	0.29079	0.99202	0.17461	0.101
Mof_C 	C 	0.39905	0.90109	0.10887	0.052
Mof_C 	C 	0.3865	0.96028	0.12064	-0.012
Mof_H 	H 	0.3926	0.9839	0.1204	0.037
Mof_C 	C 	0.35657	0.95112	0.1319	-0.033
Mof_C 	C 	0.2579	0.94936	0.19952	0.006
Mof_H 	H 	0.2643	0.9321	0.1885	0.031
Mof_C 	C 	0.42288	0.87541	0.09779	0.04
Mof_C 	C 	0.25917	0.00534	0.21312	0.009
Mof_H 	H 	0.2652	0.0288	0.2112	0.031
Mof_C 	C 	0.2371	0.94039	0.21879	-0.101
Mof_H 	H 	0.2275	0.918	0.2196	0.081
Mof_C 	C 	0.34952	0.91696	0.13242	-0.012
Mof_H 	H 	0.3289	0.9091	0.1396	0.037
Mof_C 	C 	0.4093	0.93625	0.10917	-0.083
Mof_H 	H 	0.4302	0.9435	0.1021	0.073
Mof_N 	N 	0.46468	0.85635	0.07577	-0.043
Mof_C 	C 	0.37259	0.28198	0.05513	-0.054
Mof_C 	C 	0.36936	0.31518	0.06465	-0.004
Mof_H 	H 	0.3803	0.3341	0.0572	0.072
Mof_C 	C 	0.34956	0.32004	0.08561	-0.04
Mof_C 	C 	0.39636	0.27558	0.03345	0.39
Mof_N 	N 	0.32025	0.22946	0.09859	-0.089
Mof_C 	C 	0.33675	0.25906	0.08649	0.099
Mof_C 	C 	0.33156	0.19674	0.09874	-0.014
Mof_H 	H 	0.3511	0.1878	0.0908	0.041
Mof_C 	C 	0.30809	0.17874	0.11313	0.066
Mof_N 	N 	0.2843	0.20308	0.12126	-0.079
Mof_N 	N 	0.17948	0.95083	0.29107	-0.094
Mof_C 	C 	0.19734	0.97234	0.27727	0.013
Mof_H 	H 	0.2006	0.9962	0.28	0.035
Mof_C 	C 	0.20991	0.95392	0.25873	0.028
Mof_N 	N 	0.1794	0.91982	0.28106	-0.041
Mof_N 	N 	0.1975	0.92097	0.26134	-0.073
Mof_O 	O 	0.41181	0.30137	0.02522	-0.484
Mof_O 	O 	0.3982	0.2448	0.02554	-0.489
Mof_C 	C 	0.16205	0.98873	0.32419	-0.081
Mof_H 	H 	0.1739	0.0071	0.3167	0.086
Mof_C 	C 	0.14513	0.92802	0.32451	-0.076
Mof_H 	H 	0.1459	0.906	0.3173	0.092
Mof_C 	C 	0.16155	0.95647	0.31381	0.106
Mof_C 	C 	0.12722	0.96589	0.35688	-0.006
Mof_H 	H 	0.1153	0.9693	0.3714	0.074
Mof_C 	C 	0.12754	0.93336	0.34631	-0.045
Mof_C 	C 	0.14474	0.99416	0.34599	-0.044
Mof_C 	C 	0.34799	0.35593	0.09792	0.369
Mof_C 	C 	0.14644	0.02881	0.35877	0.365
Mof_C 	C 	0.11136	0.90216	0.35879	0.374
Mof_N 	N 	0.29249	0.2337	0.11258	-0.041
Mof_O 	O 	0.12775	0.03245	0.37742	-0.462
Mof_O 	O 	0.36489	0.37959	0.0869	-0.448
Mof_O 	O 	0.3311	0.35781	0.11665	-0.468
Mof_O 	O 	0.0952	0.90925	0.37801	-0.45
Mof_O 	O 	0.16514	0.05202	0.34938	-0.451
Mof_O 	O 	0.11384	0.87357	0.34859	-0.471
Mof_H 	H 	0.2969	0.1349	0.1069	0.057
Mof_C 	C 	0.85535	0.75372	0.56578	-0.074
Mof_H 	H 	0.8565	0.7315	0.5588	0.077
Mof_C 	C 	0.83255	0.7923	0.59638	-0.075
Mof_H 	H 	0.8185	0.7957	0.61	0.092
Mof_C 	C 	0.80849	0.64293	0.62177	-0.059
Mof_C 	C 	0.83719	0.62137	0.61709	-0.023
Mof_H 	H 	0.8574	0.63	0.6098	0.041
Mof_C 	C 	0.7823	0.62997	0.63526	-0.019
Mof_H 	H 	0.7637	0.6442	0.6398	0.05
Mof_C 	C 	0.83433	0.58638	0.62379	-0.065
Mof_H 	H 	0.8514	0.571	0.6181	0.053
Mof_C 	C 	0.7832	0.59432	0.64261	-0.068
Mof_H 	H 	0.7644	0.5855	0.6514	0.057
Mof_C 	C 	0.80917	0.57339	0.63763	0.013
Mof_C 	C 	0.80961	0.53657	0.6463	0.077
Mof_C 	C 	0.78982	0.52688	0.66661	-0.149
Mof_H 	H 	0.7762	0.5434	0.6747	0.085
Mof_C 	C 	0.83198	0.51184	0.6355	-0.146
Mof_H 	H 	0.8462	0.5186	0.6226	0.082
Mof_Zn	Zn	0.92579	0.12831	0.60213	1.228
Mof_Zn	Zn	0.90114	0.17051	0.63618	1.228
Mof_O 	O 	0.88111	0.20423	0.66402	-0.463
Mof_H 	H 	0.8625	0.1964	0.669	0.258
Mof_O 	O 	0.94667	0.09448	0.57431	-0.456
Mof_H 	H 	0.9669	0.1002	0.5713	0.258
Mof_O 	O 	0.91891	0.20752	0.61529	-0.451
Mof_O 	O 	0.01902	0.21797	0.52533	-0.483
Mof_O 	O 	0.94189	0.17165	0.58757	-0.468
Mof_O 	O 	0.03259	0.2752	0.52494	-0.485
Mof_C 	C 	0.97453	0.22703	0.56377	-0.005
Mof_H 	H 	0.9802	0.2043	0.5591	0.068
Mof_C 	C 	0.93689	0.20137	0.5964	0.362
Mof_N 	N 	0.94657	0.32891	0.58339	-0.093
Mof_C 	C 	0.98943	0.25523	0.55182	-0.049
Mof_C 	C 	0.01661	0.24912	0.53203	0.386
Mof_C 	C 	0.98053	0.28902	0.55819	-0.073
Mof_H 	H 	0.9902	0.308	0.55	0.088
Mof_C 	C 	0.95124	0.23263	0.58264	-0.044
Mof_C 	C 	0.87376	0.39175	0.62182	-0.093
Mof_H 	H 	0.8703	0.368	0.6248	0.068
Mof_N 	N 	0.94963	0.38421	0.584	-0.077
Mof_C 	C 	0.73031	0.46396	0.73693	0.07
Mof_C 	C 	0.94196	0.26637	0.58934	-0.078
Mof_H 	H 	0.9261	0.2702	0.6019	0.085
Mof_C 	C 	0.9568	0.2942	0.577	0.103
Mof_C 	C 	0.76911	0.48216	0.69609	-0.046
Mof_C 	C 	0.83314	0.47705	0.6438	0.099
Mof_C 	C 	0.81223	0.46795	0.66281	-0.163
Mof_H 	H 	0.8123	0.4448	0.6681	0.091
Mof_C 	C 	0.74007	0.4952	0.73351	-0.112
Mof_H 	H 	0.7343	0.5121	0.745	0.075
Mof_C 	C 	0.92039	0.34022	0.59707	0.004
Mof_H 	H 	0.9035	0.3265	0.6047	0.038
Mof_C 	C 	0.79079	0.49202	0.67461	0.101
Mof_C 	C 	0.89905	0.40109	0.60887	0.052
Mof_C 	C 	0.8865	0.46028	0.62064	-0.012
Mof_H 	H 	0.8926	0.4839	0.6204	0.037
Mof_C 	C 	0.85657	0.45112	0.6319	-0.033
Mof_C 	C 	0.7579	0.44936	0.69952	0.006
Mof_H 	H 	0.7643	0.4321	0.6885	0.031
Mof_C 	C 	0.92288	0.37541	0.59779	0.04
Mof_C 	C 	0.75917	0.50534	0.71312	0.009
Mof_H 	H 	0.7652	0.5288	0.7112	0.031
Mof_C 	C 	0.7371	0.44039	0.71879	-0.101
Mof_H 	H 	0.7275	0.418	0.7196	0.081
Mof_C 	C 	0.84952	0.41696	0.63242	-0.012
Mof_H 	H 	0.8289	0.4091	0.6396	0.037
Mof_C 	C 	0.9093	0.43625	0.60917	-0.083
Mof_H 	H 	0.9302	0.4435	0.6021	0.073
Mof_N 	N 	0.96468	0.35635	0.57577	-0.043
Mof_C 	C 	0.87259	0.78198	0.55513	-0.054
Mof_C 	C 	0.86936	0.81518	0.56465	-0.004
Mof_H 	H 	0.8803	0.8341	0.5572	0.072
Mof_C 	C 	0.84956	0.82004	0.58561	-0.04
Mof_C 	C 	0.89636	0.77558	0.53345	0.39
Mof_N 	N 	0.82025	0.72946	0.59859	-0.089
Mof_C 	C 	0.83675	0.75906	0.58649	0.099
Mof_C 	C 	0.83156	0.69674	0.59874	-0.014
Mof_H 	H 	0.8511	0.6878	0.5908	0.041
Mof_C 	C 	0.80809	0.67874	0.61313	0.066
Mof_N 	N 	0.7843	0.70308	0.62126	-0.079
Mof_N 	N 	0.67948	0.45083	0.79107	-0.094
Mof_C 	C 	0.69734	0.47234	0.77727	0.013
Mof_H 	H 	0.7006	0.4962	0.78	0.035
Mof_C 	C 	0.70991	0.45392	0.75873	0.028
Mof_N 	N 	0.6794	0.41982	0.78106	-0.041
Mof_N 	N 	0.6975	0.42097	0.76134	-0.073
Mof_O 	O 	0.91181	0.80137	0.52522	-0.484
Mof_O 	O 	0.8982	0.7448	0.52554	-0.489
Mof_C 	C 	0.66205	0.48873	0.82419	-0.081
Mof_H 	H 	0.6739	0.5071	0.8167	0.086
Mof_C 	C 	0.64513	0.42802	0.82451	-0.076
Mof_H 	H 	0.6459	0.406	0.8173	0.092
Mof_C 	C 	0.66155	0.45647	0.81381	0.106
Mof_C 	C 	0.62722	0.46589	0.85688	-0.006
Mof_H 	H 	0.6153	0.4693	0.8714	0.074
Mof_C 	C 	0.62754	0.43336	0.84631	-0.045
Mof_C 	C 	0.64474	0.49416	0.84599	-0.044
Mof_C 	C 	0.84799	0.85593	0.59792	0.369
Mof_C 	C 	0.64644	0.52881	0.85877	0.365
Mof_C 	C 	0.61136	0.40216	0.85879	0.374
Mof_N 	N 	0.79249	0.7337	0.61258	-0.041
Mof_O 	O 	0.62775	0.53245	0.87742	-0.462
Mof_O 	O 	0.86489	0.87959	0.5869	-0.448
Mof_O 	O 	0.8311	0.85781	0.61665	-0.468
Mof_O 	O 	0.5952	0.40925	0.87801	-0.45
Mof_O 	O 	0.66514	0.55202	0.84938	-0.451
Mof_O 	O 	0.61384	0.37357	0.84859	-0.471
Mof_H 	H 	0.7969	0.6349	0.6069	0.057
Mof_C 	C 	0.64465	0.74628	0.06578	-0.074
Mof_H 	H 	0.6435	0.7685	0.0588	0.077
Mof_C 	C 	0.66745	0.7077	0.09638	-0.075
Mof_H 	H 	0.6815	0.7043	0.11	0.092
Mof_C 	C 	0.69151	0.85707	0.12177	-0.059
Mof_C 	C 	0.66281	0.87863	0.11709	-0.023
Mof_H 	H 	0.6426	0.87	0.1098	0.041
Mof_C 	C 	0.7177	0.87003	0.13526	-0.019
Mof_H 	H 	0.7363	0.8558	0.1398	0.05
Mof_C 	C 	0.66567	0.91362	0.12379	-0.065
Mof_H 	H 	0.6486	0.929	0.1181	0.053
Mof_C 	C 	0.7168	0.90568	0.14261	-0.068
Mof_H 	H 	0.7356	0.9145	0.1514	0.056
Mof_C 	C 	0.69083	0.92661	0.13763	0.013
Mof_C 	C 	0.69039	0.96343	0.1463	0.077
Mof_C 	C 	0.71018	0.97312	0.16661	-0.149
Mof_H 	H 	0.7238	0.9566	0.1747	0.085
Mof_C 	C 	0.66802	0.98816	0.1355	-0.146
Mof_H 	H 	0.6538	0.9814	0.1226	0.082
Mof_Zn	Zn	0.57421	0.37169	0.10213	1.228
Mof_Zn	Zn	0.59886	0.32949	0.13618	1.228
Mof_O 	O 	0.61889	0.29577	0.16402	-0.463
Mof_H 	H 	0.6375	0.3036	0.169	0.258
Mof_O 	O 	0.55333	0.40552	0.07431	-0.456
Mof_H 	H 	0.5331	0.3998	0.0713	0.258
Mof_O 	O 	0.58109	0.29248	0.11529	-0.451
Mof_O 	O 	0.48098	0.28203	0.02533	-0.484
Mof_O 	O 	0.55811	0.32835	0.08757	-0.468
Mof_O 	O 	0.46741	0.2248	0.02494	-0.485
Mof_C 	C 	0.52547	0.27297	0.06377	-0.005
Mof_H 	H 	0.5198	0.2957	0.0591	0.068
Mof_C 	C 	0.56311	0.29863	0.0964	0.362
Mof_N 	N 	0.55343	0.17109	0.08339	-0.093
Mof_C 	C 	0.51057	0.24477	0.05182	-0.049
Mof_C 	C 	0.48339	0.25088	0.03203	0.386
Mof_C 	C 	0.51947	0.21098	0.05819	-0.073
Mof_H 	H 	0.5098	0.192	0.05	0.088
Mof_C 	C 	0.54876	0.26737	0.08264	-0.044
Mof_C 	C 	0.62624	0.10825	0.12182	-0.093
Mof_H 	H 	0.6297	0.132	0.1248	0.068
Mof_N 	N 	0.55037	0.11579	0.084	-0.077
Mof_C 	C 	0.76969	0.03604	0.23693	0.07
Mof_C 	C 	0.55804	0.23363	0.08934	-0.078
Mof_H 	H 	0.5739	0.2298	0.1019	0.085
Mof_C 	C 	0.5432	0.2058	0.077	0.103
Mof_C 	C 	0.73089	0.01784	0.19609	-0.046
Mof_C 	C 	0.66686	0.02295	0.1438	0.099
Mof_C 	C 	0.68777	0.03205	0.16281	-0.163
Mof_H 	H 	0.6877	0.0552	0.1681	0.091
Mof_C 	C 	0.75993	0.0048	0.23351	-0.112
Mof_H 	H 	0.7657	0.9879	0.245	0.075
Mof_C 	C 	0.57961	0.15978	0.09707	0.004
Mof_H 	H 	0.5965	0.1735	0.1047	0.038
Mof_C 	C 	0.70921	0.00798	0.17461	0.101
Mof_C 	C 	0.60095	0.09891	0.10887	0.052
Mof_C 	C 	0.6135	0.03972	0.12064	-0.012
Mof_H 	H 	0.6074	0.0161	0.1204	0.037
Mof_C 	C 	0.64343	0.04888	0.1319	-0.033
Mof_C 	C 	0.7421	0.05064	0.19952	0.006
Mof_H 	H 	0.7357	0.0679	0.1885	0.031
Mof_C 	C 	0.57712	0.12459	0.09779	0.04
Mof_C 	C 	0.74083	0.99466	0.21312	0.009
Mof_H 	H 	0.7348	0.9712	0.2112	0.031
Mof_C 	C 	0.7629	0.05961	0.21879	-0.101
Mof_H 	H 	0.7725	0.082	0.2196	0.081
Mof_C 	C 	0.65048	0.08304	0.13242	-0.012
Mof_H 	H 	0.6711	0.0909	0.1396	0.037
Mof_C 	C 	0.5907	0.06375	0.10917	-0.083
Mof_H 	H 	0.5698	0.0565	0.1021	0.073
Mof_N 	N 	0.53532	0.14365	0.07577	-0.043
Mof_C 	C 	0.62741	0.71802	0.05513	-0.054
Mof_C 	C 	0.63064	0.68482	0.06465	-0.004
Mof_H 	H 	0.6197	0.6659	0.0572	0.072
Mof_C 	C 	0.65044	0.67996	0.08561	-0.04
Mof_C 	C 	0.60364	0.72442	0.03345	0.39
Mof_N 	N 	0.67975	0.77054	0.09859	-0.089
Mof_C 	C 	0.66325	0.74094	0.08649	0.099
Mof_C 	C 	0.66844	0.80326	0.09874	-0.014
Mof_H 	H 	0.6489	0.8122	0.0908	0.041
Mof_C 	C 	0.69191	0.82126	0.11313	0.066
Mof_N 	N 	0.7157	0.79692	0.12126	-0.079
Mof_N 	N 	0.82052	0.04917	0.29107	-0.094
Mof_C 	C 	0.80266	0.02766	0.27727	0.013
Mof_H 	H 	0.7994	0.0038	0.28	0.035
Mof_C 	C 	0.79009	0.04608	0.25873	0.028
Mof_N 	N 	0.8206	0.08018	0.28106	-0.041
Mof_N 	N 	0.8025	0.07903	0.26134	-0.073
Mof_O 	O 	0.58819	0.69863	0.02522	-0.484
Mof_O 	O 	0.6018	0.7552	0.02554	-0.489
Mof_C 	C 	0.83795	0.01127	0.32419	-0.081
Mof_H 	H 	0.8261	0.9929	0.3167	0.086
Mof_C 	C 	0.85487	0.07198	0.32451	-0.076
Mof_H 	H 	0.8541	0.094	0.3173	0.092
Mof_C 	C 	0.83845	0.04353	0.31381	0.106
Mof_C 	C 	0.87278	0.03411	0.35688	-0.006
Mof_H 	H 	0.8847	0.0307	0.3714	0.074
Mof_C 	C 	0.87246	0.06664	0.34631	-0.045
Mof_C 	C 	0.85526	0.00584	0.34599	-0.044
Mof_C 	C 	0.65201	0.64407	0.09792	0.369
Mof_C 	C 	0.85356	0.97119	0.35877	0.365
Mof_C 	C 	0.88864	0.09784	0.35879	0.374
Mof_N 	N 	0.70751	0.7663	0.11258	-0.041
Mof_O 	O 	0.87225	0.96755	0.37742	-0.462
Mof_O 	O 	0.63511	0.62041	0.0869	-0.448
Mof_O 	O 	0.6689	0.64219	0.11665	-0.468
Mof_O 	O 	0.9048	0.09075	0.37801	-0.45
Mof_O 	O 	0.83486	0.94798	0.34938	-0.451
Mof_O 	O 	0.88616	0.12643	0.34859	-0.471
Mof_H 	H 	0.7031	0.8651	0.1069	0.057
Mof_C 	C 	0.14465	0.24628	0.56578	-0.074
Mof_H 	H 	0.1435	0.2685	0.5588	0.077
Mof_C 	C 	0.16745	0.2077	0.59638	-0.075
Mof_H 	H 	0.1815	0.2043	0.61	0.092
Mof_C 	C 	0.19151	0.35707	0.62177	-0.059
Mof_C 	C 	0.16281	0.37863	0.61709	-0.023
Mof_H 	H 	0.1426	0.37	0.6098	0.041
Mof_C 	C 	0.2177	0.37003	0.63526	-0.019
Mof_H 	H 	0.2363	0.3558	0.6398	0.05
Mof_C 	C 	0.16567	0.41362	0.62379	-0.065
Mof_H 	H 	0.1486	0.429	0.6181	0.053
Mof_C 	C 	0.2168	0.40568	0.64261	-0.068
Mof_H 	H 	0.2356	0.4145	0.6514	0.057
Mof_C 	C 	0.19083	0.42661	0.63763	0.013
Mof_C 	C 	0.19039	0.46343	0.6463	0.077
Mof_C 	C 	0.21018	0.47312	0.66661	-0.149
Mof_H 	H 	0.2238	0.4566	0.6747	0.085
Mof_C 	C 	0.16802	0.48816	0.6355	-0.146
Mof_H 	H 	0.1538	0.4814	0.6226	0.082
Mof_Zn	Zn	0.07421	0.87169	0.60213	1.228
Mof_Zn	Zn	0.09886	0.82949	0.63618	1.228
Mof_O 	O 	0.11889	0.79577	0.66402	-0.463
Mof_H 	H 	0.1375	0.8036	0.669	0.258
Mof_O 	O 	0.05333	0.90552	0.57431	-0.456
Mof_H 	H 	0.0331	0.8998	0.5713	0.258
Mof_O 	O 	0.08109	0.79248	0.61529	-0.451
Mof_O 	O 	0.98098	0.78203	0.52533	-0.483
Mof_O 	O 	0.05811	0.82835	0.58757	-0.468
Mof_O 	O 	0.96741	0.7248	0.52494	-0.485
Mof_C 	C 	0.02547	0.77297	0.56377	-0.005
Mof_H 	H 	0.0198	0.7957	0.5591	0.068
Mof_C 	C 	0.06311	0.79863	0.5964	0.362
Mof_N 	N 	0.05343	0.67109	0.58339	-0.093
Mof_C 	C 	0.01057	0.74477	0.55182	-0.049
Mof_C 	C 	0.98339	0.75088	0.53203	0.386
Mof_C 	C 	0.01947	0.71098	0.55819	-0.073
Mof_H 	H 	0.0098	0.692	0.55	0.088
Mof_C 	C 	0.04876	0.76737	0.58264	-0.044
Mof_C 	C 	0.12624	0.60825	0.62182	-0.093
Mof_H 	H 	0.1297	0.632	0.6248	0.068
Mof_N 	N 	0.05037	0.61579	0.584	-0.077
Mof_C 	C 	0.26969	0.53604	0.73693	0.07
Mof_C 	C 	0.05804	0.73363	0.58934	-0.078
Mof_H 	H 	0.0739	0.7298	0.6019	0.085
Mof_C 	C 	0.0432	0.7058	0.577	0.103
Mof_C 	C 	0.23089	0.51784	0.69609	-0.046
Mof_C 	C 	0.16686	0.52295	0.6438	0.099
Mof_C 	C 	0.18777	0.53205	0.66281	-0.163
Mof_H 	H 	0.1877	0.5552	0.6681	0.091
Mof_C 	C 	0.25993	0.5048	0.73351	-0.112
Mof_H 	H 	0.2657	0.4879	0.745	0.075
Mof_C 	C 	0.07961	0.65978	0.59707	0.004
Mof_H 	H 	0.0965	0.6735	0.6047	0.038
Mof_C 	C 	0.20921	0.50798	0.67461	0.101
Mof_C 	C 	0.10095	0.59891	0.60887	0.052
Mof_C 	C 	0.1135	0.53972	0.62064	-0.012
Mof_H 	H 	0.1074	0.5161	0.6204	0.037
Mof_C 	C 	0.14343	0.54888	0.6319	-0.033
Mof_C 	C 	0.2421	0.55064	0.69952	0.006
Mof_H 	H 	0.2357	0.5679	0.6885	0.031
Mof_C 	C 	0.07712	0.62459	0.59779	0.04
Mof_C 	C 	0.24083	0.49466	0.71312	0.009
Mof_H 	H 	0.2348	0.4712	0.7112	0.031
Mof_C 	C 	0.2629	0.55961	0.71879	-0.101
Mof_H 	H 	0.2725	0.582	0.7196	0.081
Mof_C 	C 	0.15048	0.58304	0.63242	-0.012
Mof_H 	H 	0.1711	0.5909	0.6396	0.037
Mof_C 	C 	0.0907	0.56375	0.60917	-0.083
Mof_H 	H 	0.0698	0.5565	0.6021	0.073
Mof_N 	N 	0.03532	0.64365	0.57577	-0.043
Mof_C 	C 	0.12741	0.21802	0.55513	-0.054
Mof_C 	C 	0.13064	0.18482	0.56465	-0.004
Mof_H 	H 	0.1197	0.1659	0.5572	0.072
Mof_C 	C 	0.15044	0.17996	0.58561	-0.04
Mof_C 	C 	0.10364	0.22442	0.53345	0.39
Mof_N 	N 	0.17975	0.27054	0.59859	-0.089
Mof_C 	C 	0.16325	0.24094	0.58649	0.099
Mof_C 	C 	0.16844	0.30326	0.59874	-0.014
Mof_H 	H 	0.1489	0.3122	0.5908	0.041
Mof_C 	C 	0.19191	0.32126	0.61313	0.066
Mof_N 	N 	0.2157	0.29692	0.62126	-0.079
Mof_N 	N 	0.32052	0.54917	0.79107	-0.094
Mof_C 	C 	0.30266	0.52766	0.77727	0.013
Mof_H 	H 	0.2994	0.5038	0.78	0.035
Mof_C 	C 	0.29009	0.54608	0.75873	0.028
Mof_N 	N 	0.3206	0.58018	0.78106	-0.041
Mof_N 	N 	0.3025	0.57903	0.76134	-0.073
Mof_O 	O 	0.08819	0.19863	0.52522	-0.484
Mof_O 	O 	0.1018	0.2552	0.52554	-0.489
Mof_C 	C 	0.33795	0.51127	0.82419	-0.081
Mof_H 	H 	0.3261	0.4929	0.8167	0.086
Mof_C 	C 	0.35487	0.57198	0.82451	-0.076
Mof_H 	H 	0.3541	0.594	0.8173	0.092
Mof_C 	C 	0.33845	0.54353	0.81381	0.106
Mof_C 	C 	0.37278	0.53411	0.85688	-0.006
Mof_H 	H 	0.3847	0.5307	0.8714	0.074
Mof_C 	C 	0.37246	0.56664	0.84631	-0.045
Mof_C 	C 	0.35526	0.50584	0.84599	-0.044
Mof_C 	C 	0.15201	0.14407	0.59792	0.369
Mof_C 	C 	0.35356	0.47119	0.85877	0.365
Mof_C 	C 	0.38864	0.59784	0.85879	0.374
Mof_N 	N 	0.20751	0.2663	0.61258	-0.041
Mof_O 	O 	0.37225	0.46755	0.87742	-0.462
Mof_O 	O 	0.13511	0.12041	0.5869	-0.448
Mof_O 	O 	0.1689	0.14219	0.61665	-0.468
Mof_O 	O 	0.4048	0.59075	0.87801	-0.45
Mof_O 	O 	0.33486	0.44798	0.84938	-0.451
Mof_O 	O 	0.38616	0.62643	0.84859	-0.471
Mof_H 	H 	0.2031	0.3651	0.6069	0.057
Mof_C 	C 	0.74628	0.35535	0.06578	-0.074
Mof_H 	H 	0.7685	0.3565	0.0588	0.077
Mof_C 	C 	0.7077	0.33255	0.09638	-0.075
Mof_H 	H 	0.7043	0.3185	0.11	0.092
Mof_C 	C 	0.85707	0.30849	0.12177	-0.059
Mof_C 	C 	0.87863	0.33719	0.11709	-0.023
Mof_H 	H 	0.87	0.3574	0.1098	0.041
Mof_C 	C 	0.87003	0.2823	0.13526	-0.019
Mof_H 	H 	0.8558	0.2637	0.1398	0.05
Mof_C 	C 	0.91362	0.33433	0.12379	-0.065
Mof_H 	H 	0.929	0.3514	0.1181	0.053
Mof_C 	C 	0.90568	0.2832	0.14261	-0.068
Mof_H 	H 	0.9145	0.2644	0.1514	0.056
Mof_C 	C 	0.92661	0.30917	0.13763	0.013
Mof_C 	C 	0.96343	0.30961	0.1463	0.077
Mof_C 	C 	0.97312	0.28982	0.16661	-0.149
Mof_H 	H 	0.9566	0.2762	0.1747	0.085
Mof_C 	C 	0.98816	0.33198	0.1355	-0.146
Mof_H 	H 	0.9814	0.3462	0.1226	0.082
Mof_Zn	Zn	0.37169	0.42579	0.10213	1.228
Mof_Zn	Zn	0.32949	0.40114	0.13618	1.228
Mof_O 	O 	0.29577	0.38111	0.16402	-0.463
Mof_H 	H 	0.3036	0.3625	0.169	0.258
Mof_O 	O 	0.40552	0.44667	0.07431	-0.456
Mof_H 	H 	0.3998	0.4669	0.0713	0.258
Mof_O 	O 	0.29248	0.41891	0.11529	-0.451
Mof_O 	O 	0.28203	0.51902	0.02533	-0.484
Mof_O 	O 	0.32835	0.44189	0.08757	-0.468
Mof_O 	O 	0.2248	0.53259	0.02494	-0.485
Mof_C 	C 	0.27297	0.47453	0.06377	-0.005
Mof_H 	H 	0.2957	0.4802	0.0591	0.068
Mof_C 	C 	0.29863	0.43689	0.0964	0.362
Mof_N 	N 	0.17109	0.44657	0.08339	-0.093
Mof_C 	C 	0.24477	0.48943	0.05182	-0.049
Mof_C 	C 	0.25088	0.51661	0.03203	0.386
Mof_C 	C 	0.21098	0.48053	0.05819	-0.073
Mof_H 	H 	0.192	0.4902	0.05	0.088
Mof_C 	C 	0.26737	0.45124	0.08264	-0.044
Mof_C 	C 	0.10825	0.37376	0.12182	-0.093
Mof_H 	H 	0.132	0.3703	0.1248	0.068
Mof_N 	N 	0.11579	0.44963	0.084	-0.077
Mof_C 	C 	0.03604	0.23031	0.23693	0.07
Mof_C 	C 	0.23363	0.44196	0.08934	-0.078
Mof_H 	H 	0.2298	0.4261	0.1019	0.085
Mof_C 	C 	0.2058	0.4568	0.077	0.103
Mof_C 	C 	0.01784	0.26911	0.19609	-0.046
Mof_C 	C 	0.02295	0.33314	0.1438	0.099
Mof_C 	C 	0.03205	0.31223	0.16281	-0.163
Mof_H 	H 	0.0552	0.3123	0.1681	0.091
Mof_C 	C 	0.0048	0.24007	0.23351	-0.112
Mof_H 	H 	0.9879	0.2343	0.245	0.075
Mof_C 	C 	0.15978	0.42039	0.09707	0.004
Mof_H 	H 	0.1735	0.4035	0.1047	0.038
Mof_C 	C 	0.00798	0.29079	0.17461	0.101
Mof_C 	C 	0.09891	0.39905	0.10887	0.052
Mof_C 	C 	0.03972	0.3865	0.12064	-0.012
Mof_H 	H 	0.0161	0.3926	0.1204	0.037
Mof_C 	C 	0.04888	0.35657	0.1319	-0.033
Mof_C 	C 	0.05064	0.2579	0.19952	0.006
Mof_H 	H 	0.0679	0.2643	0.1885	0.031
Mof_C 	C 	0.12459	0.42288	0.09779	0.04
Mof_C 	C 	0.99466	0.25917	0.21312	0.009
Mof_H 	H 	0.9712	0.2652	0.2112	0.031
Mof_C 	C 	0.05961	0.2371	0.21879	-0.101
Mof_H 	H 	0.082	0.2275	0.2196	0.081
Mof_C 	C 	0.08304	0.34952	0.13242	-0.012
Mof_H 	H 	0.0909	0.3289	0.1396	0.037
Mof_C 	C 	0.06375	0.4093	0.10917	-0.083
Mof_H 	H 	0.0565	0.4302	0.1021	0.073
Mof_N 	N 	0.14365	0.46468	0.07577	-0.043
Mof_C 	C 	0.71802	0.37259	0.05513	-0.054
Mof_C 	C 	0.68482	0.36936	0.06465	-0.004
Mof_H 	H 	0.6659	0.3803	0.0572	0.072
Mof_C 	C 	0.67996	0.34956	0.08561	-0.04
Mof_C 	C 	0.72442	0.39636	0.03345	0.39
Mof_N 	N 	0.77054	0.32025	0.09859	-0.089
Mof_C 	C 	0.74094	0.33675	0.08649	0.099
Mof_C 	C 	0.80326	0.33156	0.09874	-0.014
Mof_H 	H 	0.8122	0.3511	0.0908	0.041
Mof_C 	C 	0.82126	0.30809	0.11313	0.066
Mof_N 	N 	0.79692	0.2843	0.12126	-0.079
Mof_N 	N 	0.04917	0.17948	0.29107	-0.094
Mof_C 	C 	0.02766	0.19734	0.27727	0.013
Mof_H 	H 	0.0038	0.2006	0.28	0.035
Mof_C 	C 	0.04608	0.20991	0.25873	0.028
Mof_N 	N 	0.08018	0.1794	0.28106	-0.041
Mof_N 	N 	0.07903	0.1975	0.26134	-0.073
Mof_O 	O 	0.69863	0.41181	0.02522	-0.484
Mof_O 	O 	0.7552	0.3982	0.02554	-0.489
Mof_C 	C 	0.01127	0.16205	0.32419	-0.081
Mof_H 	H 	0.9929	0.1739	0.3167	0.086
Mof_C 	C 	0.07198	0.14513	0.32451	-0.076
Mof_H 	H 	0.094	0.1459	0.3173	0.092
Mof_C 	C 	0.04353	0.16155	0.31381	0.106
Mof_C 	C 	0.03411	0.12722	0.35688	-0.006
Mof_H 	H 	0.0307	0.1153	0.3714	0.074
Mof_C 	C 	0.06664	0.12754	0.34631	-0.045
Mof_C 	C 	0.00584	0.14474	0.34599	-0.044
Mof_C 	C 	0.64407	0.34799	0.09792	0.369
Mof_C 	C 	0.97119	0.14644	0.35877	0.365
Mof_C 	C 	0.09784	0.11136	0.35879	0.374
Mof_N 	N 	0.7663	0.29249	0.11258	-0.041
Mof_O 	O 	0.96755	0.12775	0.37742	-0.462
Mof_O 	O 	0.62041	0.36489	0.0869	-0.448
Mof_O 	O 	0.64219	0.3311	0.11665	-0.468
Mof_O 	O 	0.09075	0.0952	0.37801	-0.45
Mof_O 	O 	0.94798	0.16514	0.34938	-0.451
Mof_O 	O 	0.12643	0.11384	0.34859	-0.471
Mof_H 	H 	0.8651	0.2969	0.1069	0.057
Mof_C 	C 	0.24628	0.85535	0.56578	-0.074
Mof_H 	H 	0.2685	0.8565	0.5588	0.077
Mof_C 	C 	0.2077	0.83255	0.59638	-0.075
Mof_H 	H 	0.2043	0.8185	0.61	0.092
Mof_C 	C 	0.35707	0.80849	0.62177	-0.059
Mof_C 	C 	0.37863	0.83719	0.61709	-0.023
Mof_H 	H 	0.37	0.8574	0.6098	0.041
Mof_C 	C 	0.37003	0.7823	0.63526	-0.019
Mof_H 	H 	0.3558	0.7637	0.6398	0.05
Mof_C 	C 	0.41362	0.83433	0.62379	-0.065
Mof_H 	H 	0.429	0.8514	0.6181	0.053
Mof_C 	C 	0.40568	0.7832	0.64261	-0.068
Mof_H 	H 	0.4145	0.7644	0.6514	0.057
Mof_C 	C 	0.42661	0.80917	0.63763	0.013
Mof_C 	C 	0.46343	0.80961	0.6463	0.077
Mof_C 	C 	0.47312	0.78982	0.66661	-0.149
Mof_H 	H 	0.4566	0.7762	0.6747	0.085
Mof_C 	C 	0.48816	0.83198	0.6355	-0.146
Mof_H 	H 	0.4814	0.8462	0.6226	0.082
Mof_Zn	Zn	0.87169	0.92579	0.60213	1.228
Mof_Zn	Zn	0.82949	0.90114	0.63618	1.228
Mof_O 	O 	0.79577	0.88111	0.66402	-0.463
Mof_H 	H 	0.8036	0.8625	0.669	0.258
Mof_O 	O 	0.90552	0.94667	0.57431	-0.456
Mof_H 	H 	0.8998	0.9669	0.5713	0.258
Mof_O 	O 	0.79248	0.91891	0.61529	-0.451
Mof_O 	O 	0.78203	0.01902	0.52533	-0.483
Mof_O 	O 	0.82835	0.94189	0.58757	-0.468
Mof_O 	O 	0.7248	0.03259	0.52494	-0.485
Mof_C 	C 	0.77297	0.97453	0.56377	-0.005
Mof_H 	H 	0.7957	0.9802	0.5591	0.068
Mof_C 	C 	0.79863	0.93689	0.5964	0.362
Mof_N 	N 	0.67109	0.94657	0.58339	-0.093
Mof_C 	C 	0.74477	0.98943	0.55182	-0.049
Mof_C 	C 	0.75088	0.01661	0.53203	0.386
Mof_C 	C 	0.71098	0.98053	0.55819	-0.073
Mof_H 	H 	0.692	0.9902	0.55	0.088
Mof_C 	C 	0.76737	0.95124	0.58264	-0.044
Mof_C 	C 	0.60825	0.87376	0.62182	-0.093
Mof_H 	H 	0.632	0.8703	0.6248	0.068
Mof_N 	N 	0.61579	0.94963	0.584	-0.077
Mof_C 	C 	0.53604	0.73031	0.73693	0.07
Mof_C 	C 	0.73363	0.94196	0.58934	-0.078
Mof_H 	H 	0.7298	0.9261	0.6019	0.085
Mof_C 	C 	0.7058	0.9568	0.577	0.103
Mof_C 	C 	0.51784	0.76911	0.69609	-0.046
Mof_C 	C 	0.52295	0.83314	0.6438	0.099
Mof_C 	C 	0.53205	0.81223	0.66281	-0.163
Mof_H 	H 	0.5552	0.8123	0.6681	0.091
Mof_C 	C 	0.5048	0.74007	0.73351	-0.112
Mof_H 	H 	0.4879	0.7343	0.745	0.075
Mof_C 	C 	0.65978	0.92039	0.59707	0.004
Mof_H 	H 	0.6735	0.9035	0.6047	0.038
Mof_C 	C 	0.50798	0.79079	0.67461	0.101
Mof_C 	C 	0.59891	0.89905	0.60887	0.052
Mof_C 	C 	0.53972	0.8865	0.62064	-0.012
Mof_H 	H 	0.5161	0.8926	0.6204	0.037
Mof_C 	C 	0.54888	0.85657	0.6319	-0.033
Mof_C 	C 	0.55064	0.7579	0.69952	0.006
Mof_H 	H 	0.5679	0.7643	0.6885	0.031
Mof_C 	C 	0.62459	0.92288	0.59779	0.04
Mof_C 	C 	0.49466	0.75917	0.71312	0.009
Mof_H 	H 	0.4712	0.7652	0.7112	0.031
Mof_C 	C 	0.55961	0.7371	0.71879	-0.101
Mof_H 	H 	0.582	0.7275	0.7196	0.081
Mof_C 	C 	0.58304	0.84952	0.63242	-0.012
Mof_H 	H 	0.5909	0.8289	0.6396	0.037
Mof_C 	C 	0.56375	0.9093	0.60917	-0.083
Mof_H 	H 	0.5565	0.9302	0.6021	0.073
Mof_N 	N 	0.64365	0.96468	0.57577	-0.043
Mof_C 	C 	0.21802	0.87259	0.55513	-0.054
Mof_C 	C 	0.18482	0.86936	0.56465	-0.004
Mof_H 	H 	0.1659	0.8803	0.5572	0.072
Mof_C 	C 	0.17996	0.84956	0.58561	-0.04
Mof_C 	C 	0.22442	0.89636	0.53345	0.39
Mof_N 	N 	0.27054	0.82025	0.59859	-0.089
Mof_C 	C 	0.24094	0.83675	0.58649	0.099
Mof_C 	C 	0.30326	0.83156	0.59874	-0.014
Mof_H 	H 	0.3122	0.8511	0.5908	0.041
Mof_C 	C 	0.32126	0.80809	0.61313	0.066
Mof_N 	N 	0.29692	0.7843	0.62126	-0.079
Mof_N 	N 	0.54917	0.67948	0.79107	-0.094
Mof_C 	C 	0.52766	0.69734	0.77727	0.013
Mof_H 	H 	0.5038	0.7006	0.78	0.035
Mof_C 	C 	0.54608	0.70991	0.75873	0.028
Mof_N 	N 	0.58018	0.6794	0.78106	-0.041
Mof_N 	N 	0.57903	0.6975	0.76134	-0.073
Mof_O 	O 	0.19863	0.91181	0.52522	-0.484
Mof_O 	O 	0.2552	0.8982	0.52554	-0.489
Mof_C 	C 	0.51127	0.66205	0.82419	-0.081
Mof_H 	H 	0.4929	0.6739	0.8167	0.086
Mof_C 	C 	0.57198	0.64513	0.82451	-0.076
Mof_H 	H 	0.594	0.6459	0.8173	0.092
Mof_C 	C 	0.54353	0.66155	0.81381	0.106
Mof_C 	C 	0.53411	0.62722	0.85688	-0.006
Mof_H 	H 	0.5307	0.6153	0.8714	0.074
Mof_C 	C 	0.56664	0.62754	0.84631	-0.045
Mof_C 	C 	0.50584	0.64474	0.84599	-0.044
Mof_C 	C 	0.14407	0.84799	0.59792	0.369
Mof_C 	C 	0.47119	0.64644	0.85877	0.365
Mof_C 	C 	0.59784	0.61136	0.85879	0.374
Mof_N 	N 	0.2663	0.79249	0.61258	-0.041
Mof_O 	O 	0.46755	0.62775	0.87742	-0.462
Mof_O 	O 	0.12041	0.86489	0.5869	-0.448
Mof_O 	O 	0.14219	0.8311	0.61665	-0.468
Mof_O 	O 	0.59075	0.5952	0.87801	-0.45
Mof_O 	O 	0.44798	0.66514	0.84938	-0.451
Mof_O 	O 	0.62643	0.61384	0.84859	-0.471
Mof_H 	H 	0.3651	0.7969	0.6069	0.057
Mof_C 	C 	0.25372	0.64465	0.06578	-0.074
Mof_H 	H 	0.2315	0.6435	0.0588	0.077
Mof_C 	C 	0.2923	0.66745	0.09638	-0.075
Mof_H 	H 	0.2957	0.6815	0.11	0.092
Mof_C 	C 	0.14293	0.69151	0.12177	-0.059
Mof_C 	C 	0.12137	0.66281	0.11709	-0.023
Mof_H 	H 	0.13	0.6426	0.1098	0.041
Mof_C 	C 	0.12997	0.7177	0.13526	-0.019
Mof_H 	H 	0.1442	0.7363	0.1398	0.05
Mof_C 	C 	0.08638	0.66567	0.12379	-0.065
Mof_H 	H 	0.071	0.6486	0.1181	0.053
Mof_C 	C 	0.09432	0.7168	0.14261	-0.068
Mof_H 	H 	0.0855	0.7356	0.1514	0.056
Mof_C 	C 	0.07339	0.69083	0.13763	0.013
Mof_C 	C 	0.03657	0.69039	0.1463	0.077
Mof_C 	C 	0.02688	0.71018	0.16661	-0.149
Mof_H 	H 	0.0434	0.7238	0.1747	0.085
Mof_C 	C 	0.01184	0.66802	0.1355	-0.146
Mof_H 	H 	0.0186	0.6538	0.1226	0.082
Mof_Zn	Zn	0.62831	0.57421	0.10213	1.228
Mof_Zn	Zn	0.67051	0.59886	0.13618	1.228
Mof_O 	O 	0.70423	0.61889	0.16402	-0.463
Mof_H 	H 	0.6964	0.6375	0.169	0.258
Mof_O 	O 	0.59448	0.55333	0.07431	-0.456
Mof_H 	H 	0.6002	0.5331	0.0713	0.258
Mof_O 	O 	0.70752	0.58109	0.11529	-0.451
Mof_O 	O 	0.71797	0.48098	0.02533	-0.484
Mof_O 	O 	0.67165	0.55811	0.08757	-0.468
Mof_O 	O 	0.7752	0.46741	0.02494	-0.485
Mof_C 	C 	0.72703	0.52547	0.06377	-0.005
Mof_H 	H 	0.7043	0.5198	0.0591	0.068
Mof_C 	C 	0.70137	0.56311	0.0964	0.362
Mof_N 	N 	0.82891	0.55343	0.08339	-0.093
Mof_C 	C 	0.75523	0.51057	0.05182	-0.049
Mof_C 	C 	0.74912	0.48339	0.03203	0.386
Mof_C 	C 	0.78902	0.51947	0.05819	-0.073
Mof_H 	H 	0.808	0.5098	0.05	0.088
Mof_C 	C 	0.73263	0.54876	0.08264	-0.044
Mof_C 	C 	0.89175	0.62624	0.12182	-0.093
Mof_H 	H 	0.868	0.6297	0.1248	0.068
Mof_N 	N 	0.88421	0.55037	0.084	-0.077
Mof_C 	C 	0.96396	0.76969	0.23693	0.07
Mof_C 	C 	0.76637	0.55804	0.08934	-0.078
Mof_H 	H 	0.7702	0.5739	0.1019	0.085
Mof_C 	C 	0.7942	0.5432	0.077	0.103
Mof_C 	C 	0.98216	0.73089	0.19609	-0.046
Mof_C 	C 	0.97705	0.66686	0.1438	0.099
Mof_C 	C 	0.96795	0.68777	0.16281	-0.163
Mof_H 	H 	0.9448	0.6877	0.1681	0.091
Mof_C 	C 	0.9952	0.75993	0.23351	-0.112
Mof_H 	H 	0.0121	0.7657	0.245	0.075
Mof_C 	C 	0.84022	0.57961	0.09707	0.004
Mof_H 	H 	0.8265	0.5965	0.1047	0.038
Mof_C 	C 	0.99202	0.70921	0.17461	0.101
Mof_C 	C 	0.90109	0.60095	0.10887	0.052
Mof_C 	C 	0.96028	0.6135	0.12064	-0.012
Mof_H 	H 	0.9839	0.6074	0.1204	0.037
Mof_C 	C 	0.95112	0.64343	0.1319	-0.033
Mof_C 	C 	0.94936	0.7421	0.19952	0.006
Mof_H 	H 	0.9321	0.7357	0.1885	0.031
Mof_C 	C 	0.87541	0.57712	0.09779	0.04
Mof_C 	C 	0.00534	0.74083	0.21312	0.009
Mof_H 	H 	0.0288	0.7348	0.2112	0.031
Mof_C 	C 	0.94039	0.7629	0.21879	-0.101
Mof_H 	H 	0.918	0.7725	0.2196	0.081
Mof_C 	C 	0.91696	0.65048	0.13242	-0.012
Mof_H 	H 	0.9091	0.6711	0.1396	0.037
Mof_C 	C 	0.93625	0.5907	0.10917	-0.083
Mof_H 	H 	0.9435	0.5698	0.1021	0.073
Mof_N 	N 	0.85635	0.53532	0.07577	-0.043
Mof_C 	C 	0.28198	0.62741	0.05513	-0.054
Mof_C 	C 	0.31518	0.63064	0.06465	-0.004
Mof_H 	H 	0.3341	0.6197	0.0572	0.072
Mof_C 	C 	0.32004	0.65044	0.08561	-0.04
Mof_C 	C 	0.27558	0.60364	0.03345	0.39
Mof_N 	N 	0.22946	0.67975	0.09859	-0.089
Mof_C 	C 	0.25906	0.66325	0.08649	0.099
Mof_C 	C 	0.19674	0.66844	0.09874	-0.014
Mof_H 	H 	0.1878	0.6489	0.0908	0.041
Mof_C 	C 	0.17874	0.69191	0.11313	0.066
Mof_N 	N 	0.20308	0.7157	0.12126	-0.079
Mof_N 	N 	0.95083	0.82052	0.29107	-0.094
Mof_C 	C 	0.97234	0.80266	0.27727	0.013
Mof_H 	H 	0.9962	0.7994	0.28	0.035
Mof_C 	C 	0.95392	0.79009	0.25873	0.028
Mof_N 	N 	0.91982	0.8206	0.28106	-0.041
Mof_N 	N 	0.92097	0.8025	0.26134	-0.073
Mof_O 	O 	0.30137	0.58819	0.02522	-0.484
Mof_O 	O 	0.2448	0.6018	0.02554	-0.489
Mof_C 	C 	0.98873	0.83795	0.32419	-0.081
Mof_H 	H 	0.0071	0.8261	0.3167	0.086
Mof_C 	C 	0.92802	0.85487	0.32451	-0.076
Mof_H 	H 	0.906	0.8541	0.3173	0.092
Mof_C 	C 	0.95647	0.83845	0.31381	0.106
Mof_C 	C 	0.96589	0.87278	0.35688	-0.006
Mof_H 	H 	0.9693	0.8847	0.3714	0.074
Mof_C 	C 	0.93336	0.87246	0.34631	-0.045
Mof_C 	C 	0.99416	0.85526	0.34599	-0.044
Mof_C 	C 	0.35593	0.65201	0.09792	0.369
Mof_C 	C 	0.02881	0.85356	0.35877	0.365
Mof_C 	C 	0.90216	0.88864	0.35879	0.374
Mof_N 	N 	0.2337	0.70751	0.11258	-0.041
Mof_O 	O 	0.03245	0.87225	0.37742	-0.462
Mof_O 	O 	0.37959	0.63511	0.0869	-0.448
Mof_O 	O 	0.35781	0.6689	0.11665	-0.468
Mof_O 	O 	0.90925	0.9048	0.37801	-0.45
Mof_O 	O 	0.05202	0.83486	0.34938	-0.451
Mof_O 	O 	0.87357	0.88616	0.34859	-0.471
Mof_H 	H 	0.1349	0.7031	0.1069	0.057
Mof_C 	C 	0.75372	0.14465	0.56578	-0.074
Mof_H 	H 	0.7315	0.1435	0.5588	0.077
Mof_C 	C 	0.7923	0.16745	0.59638	-0.075
Mof_H 	H 	0.7957	0.1815	0.61	0.092
Mof_C 	C 	0.64293	0.19151	0.62177	-0.059
Mof_C 	C 	0.62137	0.16281	0.61709	-0.023
Mof_H 	H 	0.63	0.1426	0.6098	0.041
Mof_C 	C 	0.62997	0.2177	0.63526	-0.019
Mof_H 	H 	0.6442	0.2363	0.6398	0.05
Mof_C 	C 	0.58638	0.16567	0.62379	-0.065
Mof_H 	H 	0.571	0.1486	0.6181	0.053
Mof_C 	C 	0.59432	0.2168	0.64261	-0.068
Mof_H 	H 	0.5855	0.2356	0.6514	0.057
Mof_C 	C 	0.57339	0.19083	0.63763	0.013
Mof_C 	C 	0.53657	0.19039	0.6463	0.077
Mof_C 	C 	0.52688	0.21018	0.66661	-0.149
Mof_H 	H 	0.5434	0.2238	0.6747	0.085
Mof_C 	C 	0.51184	0.16802	0.6355	-0.146
Mof_H 	H 	0.5186	0.1538	0.6226	0.082
Mof_Zn	Zn	0.12831	0.07421	0.60213	1.228
Mof_Zn	Zn	0.17051	0.09886	0.63618	1.228
Mof_O 	O 	0.20423	0.11889	0.66402	-0.463
Mof_H 	H 	0.1964	0.1375	0.669	0.258
Mof_O 	O 	0.09448	0.05333	0.57431	-0.456
Mof_H 	H 	0.1002	0.0331	0.5713	0.258
Mof_O 	O 	0.20752	0.08109	0.61529	-0.451
Mof_O 	O 	0.21797	0.98098	0.52533	-0.483
Mof_O 	O 	0.17165	0.05811	0.58757	-0.468
Mof_O 	O 	0.2752	0.96741	0.52494	-0.485
Mof_C 	C 	0.22703	0.02547	0.56377	-0.005
Mof_H 	H 	0.2043	0.0198	0.5591	0.068
Mof_C 	C 	0.20137	0.06311	0.5964	0.362
Mof_N 	N 	0.32891	0.05343	0.58339	-0.093
Mof_C 	C 	0.25523	0.01057	0.55182	-0.049
Mof_C 	C 	0.24912	0.98339	0.53203	0.386
Mof_C 	C 	0.28902	0.01947	0.55819	-0.073
Mof_H 	H 	0.308	0.0098	0.55	0.088
Mof_C 	C 	0.23263	0.04876	0.58264	-0.044
Mof_C 	C 	0.39175	0.12624	0.62182	-0.093
Mof_H 	H 	0.368	0.1297	0.6248	0.068
Mof_N 	N 	0.38421	0.05037	0.584	-0.077
Mof_C 	C 	0.46396	0.26969	0.73693	0.07
Mof_C 	C 	0.26637	0.05804	0.58934	-0.078
Mof_H 	H 	0.2702	0.0739	0.6019	0.085
Mof_C 	C 	0.2942	0.0432	0.577	0.103
Mof_C 	C 	0.48216	0.23089	0.69609	-0.046
Mof_C 	C 	0.47705	0.16686	0.6438	0.099
Mof_C 	C 	0.46795	0.18777	0.66281	-0.163
Mof_H 	H 	0.4448	0.1877	0.6681	0.091
Mof_C 	C 	0.4952	0.25993	0.73351	-0.112
Mof_H 	H 	0.5121	0.2657	0.745	0.075
Mof_C 	C 	0.34022	0.07961	0.59707	0.004
Mof_H 	H 	0.3265	0.0965	0.6047	0.038
Mof_C 	C 	0.49202	0.20921	0.67461	0.101
Mof_C 	C 	0.40109	0.10095	0.60887	0.052
Mof_C 	C 	0.46028	0.1135	0.62064	-0.012
Mof_H 	H 	0.4839	0.1074	0.6204	0.037
Mof_C 	C 	0.45112	0.14343	0.6319	-0.033
Mof_C 	C 	0.44936	0.2421	0.69952	0.006
Mof_H 	H 	0.4321	0.2357	0.6885	0.031
Mof_C 	C 	0.37541	0.07712	0.59779	0.04
Mof_C 	C 	0.50534	0.24083	0.71312	0.009
Mof_H 	H 	0.5288	0.2348	0.7112	0.031
Mof_C 	C 	0.44039	0.2629	0.71879	-0.101
Mof_H 	H 	0.418	0.2725	0.7196	0.081
Mof_C 	C 	0.41696	0.15048	0.63242	-0.012
Mof_H 	H 	0.4091	0.1711	0.6396	0.037
Mof_C 	C 	0.43625	0.0907	0.60917	-0.083
Mof_H 	H 	0.4435	0.0698	0.6021	0.073
Mof_N 	N 	0.35635	0.03532	0.57577	-0.043
Mof_C 	C 	0.78198	0.12741	0.55513	-0.054
Mof_C 	C 	0.81518	0.13064	0.56465	-0.004
Mof_H 	H 	0.8341	0.1197	0.5572	0.072
Mof_C 	C 	0.82004	0.15044	0.58561	-0.04
Mof_C 	C 	0.77558	0.10364	0.53345	0.39
Mof_N 	N 	0.72946	0.17975	0.59859	-0.089
Mof_C 	C 	0.75906	0.16325	0.58649	0.099
Mof_C 	C 	0.69674	0.16844	0.59874	-0.014
Mof_H 	H 	0.6878	0.1489	0.5908	0.041
Mof_C 	C 	0.67874	0.19191	0.61313	0.066
Mof_N 	N 	0.70308	0.2157	0.62126	-0.079
Mof_N 	N 	0.45083	0.32052	0.79107	-0.094
Mof_C 	C 	0.47234	0.30266	0.77727	0.013
Mof_H 	H 	0.4962	0.2994	0.78	0.035
Mof_C 	C 	0.45392	0.29009	0.75873	0.028
Mof_N 	N 	0.41982	0.3206	0.78106	-0.041
Mof_N 	N 	0.42097	0.3025	0.76134	-0.073
Mof_O 	O 	0.80137	0.08819	0.52522	-0.484
Mof_O 	O 	0.7448	0.1018	0.52554	-0.489
Mof_C 	C 	0.48873	0.33795	0.82419	-0.081
Mof_H 	H 	0.5071	0.3261	0.8167	0.086
Mof_C 	C 	0.42802	0.35487	0.82451	-0.076
Mof_H 	H 	0.406	0.3541	0.8173	0.092
Mof_C 	C 	0.45647	0.33845	0.81381	0.106
Mof_C 	C 	0.46589	0.37278	0.85688	-0.006
Mof_H 	H 	0.4693	0.3847	0.8714	0.074
Mof_C 	C 	0.43336	0.37246	0.84631	-0.045
Mof_C 	C 	0.49416	0.35526	0.84599	-0.044
Mof_C 	C 	0.85593	0.15201	0.59792	0.369
Mof_C 	C 	0.52881	0.35356	0.85877	0.365
Mof_C 	C 	0.40216	0.38864	0.85879	0.374
Mof_N 	N 	0.7337	0.20751	0.61258	-0.041
Mof_O 	O 	0.53245	0.37225	0.87742	-0.462
Mof_O 	O 	0.87959	0.13511	0.5869	-0.448
Mof_O 	O 	0.85781	0.1689	0.61665	-0.468
Mof_O 	O 	0.40925	0.4048	0.87801	-0.45
Mof_O 	O 	0.55202	0.33486	0.84938	-0.451
Mof_O 	O 	0.37357	0.38616	0.84859	-0.471
Mof_H 	H 	0.6349	0.2031	0.6069	0.057
Mof_C 	C 	0.64465	0.74628	0.93422	-0.074
Mof_H 	H 	0.6435	0.7685	0.9412	0.077
Mof_C 	C 	0.66745	0.7077	0.90362	-0.075
Mof_H 	H 	0.6815	0.7043	0.89	0.092
Mof_C 	C 	0.69151	0.85707	0.87823	-0.059
Mof_C 	C 	0.66281	0.87863	0.88291	-0.023
Mof_H 	H 	0.6426	0.87	0.8902	0.041
Mof_C 	C 	0.7177	0.87003	0.86474	-0.019
Mof_H 	H 	0.7363	0.8558	0.8602	0.05
Mof_C 	C 	0.66567	0.91362	0.87621	-0.065
Mof_H 	H 	0.6486	0.929	0.8819	0.053
Mof_C 	C 	0.7168	0.90568	0.85739	-0.068
Mof_H 	H 	0.7356	0.9145	0.8486	0.057
Mof_C 	C 	0.69083	0.92661	0.86237	0.013
Mof_C 	C 	0.69039	0.96343	0.8537	0.077
Mof_C 	C 	0.71018	0.97312	0.83339	-0.149
Mof_H 	H 	0.7238	0.9566	0.8253	0.085
Mof_C 	C 	0.66802	0.98816	0.8645	-0.146
Mof_H 	H 	0.6538	0.9814	0.8774	0.082
Mof_Zn	Zn	0.57421	0.37169	0.89787	1.228
Mof_Zn	Zn	0.59886	0.32949	0.86382	1.228
Mof_O 	O 	0.61889	0.29577	0.83598	-0.463
Mof_H 	H 	0.6375	0.3036	0.831	0.258
Mof_O 	O 	0.55333	0.40552	0.92569	-0.456
Mof_H 	H 	0.5331	0.3998	0.9287	0.258
Mof_O 	O 	0.58109	0.29248	0.88471	-0.451
Mof_O 	O 	0.48098	0.28203	0.97467	-0.483
Mof_O 	O 	0.55811	0.32835	0.91243	-0.468
Mof_O 	O 	0.46741	0.2248	0.97506	-0.484
Mof_C 	C 	0.52547	0.27297	0.93623	-0.005
Mof_H 	H 	0.5198	0.2957	0.9409	0.068
Mof_C 	C 	0.56311	0.29863	0.9036	0.362
Mof_N 	N 	0.55343	0.17109	0.91661	-0.093
Mof_C 	C 	0.51057	0.24477	0.94818	-0.049
Mof_C 	C 	0.48339	0.25088	0.96797	0.386
Mof_C 	C 	0.51947	0.21098	0.94181	-0.073
Mof_H 	H 	0.5098	0.192	0.95	0.088
Mof_C 	C 	0.54876	0.26737	0.91736	-0.044
Mof_C 	C 	0.62624	0.10825	0.87818	-0.093
Mof_H 	H 	0.6297	0.132	0.8752	0.068
Mof_N 	N 	0.55037	0.11579	0.916	-0.077
Mof_C 	C 	0.76969	0.03604	0.76307	0.07
Mof_C 	C 	0.55804	0.23363	0.91066	-0.078
Mof_H 	H 	0.5739	0.2298	0.8981	0.085
Mof_C 	C 	0.5432	0.2058	0.923	0.103
Mof_C 	C 	0.73089	0.01784	0.80391	-0.046
Mof_C 	C 	0.66686	0.02295	0.8562	0.099
Mof_C 	C 	0.68777	0.03205	0.83719	-0.163
Mof_H 	H 	0.6877	0.0552	0.8319	0.091
Mof_C 	C 	0.75993	0.0048	0.76649	-0.112
Mof_H 	H 	0.7657	0.9879	0.755	0.075
Mof_C 	C 	0.57961	0.15978	0.90293	0.004
Mof_H 	H 	0.5965	0.1735	0.8953	0.038
Mof_C 	C 	0.70921	0.00798	0.82539	0.101
Mof_C 	C 	0.60095	0.09891	0.89113	0.052
Mof_C 	C 	0.6135	0.03972	0.87936	-0.012
Mof_H 	H 	0.6074	0.0161	0.8796	0.037
Mof_C 	C 	0.64343	0.04888	0.8681	-0.033
Mof_C 	C 	0.7421	0.05064	0.80048	0.006
Mof_H 	H 	0.7357	0.0679	0.8115	0.031
Mof_C 	C 	0.57712	0.12459	0.90221	0.04
Mof_C 	C 	0.74083	0.99466	0.78688	0.009
Mof_H 	H 	0.7348	0.9712	0.7888	0.031
Mof_C 	C 	0.7629	0.05961	0.78121	-0.101
Mof_H 	H 	0.7725	0.082	0.7804	0.081
Mof_C 	C 	0.65048	0.08304	0.86758	-0.012
Mof_H 	H 	0.6711	0.0909	0.8604	0.037
Mof_C 	C 	0.5907	0.06375	0.89083	-0.083
Mof_H 	H 	0.5698	0.0565	0.8979	0.073
Mof_N 	N 	0.53532	0.14365	0.92423	-0.043
Mof_C 	C 	0.62741	0.71802	0.94487	-0.054
Mof_C 	C 	0.63064	0.68482	0.93535	-0.004
Mof_H 	H 	0.6197	0.6659	0.9428	0.072
Mof_C 	C 	0.65044	0.67996	0.91439	-0.04
Mof_C 	C 	0.60364	0.72442	0.96655	0.39
Mof_N 	N 	0.67975	0.77054	0.90141	-0.089
Mof_C 	C 	0.66325	0.74094	0.91351	0.099
Mof_C 	C 	0.66844	0.80326	0.90126	-0.014
Mof_H 	H 	0.6489	0.8122	0.9092	0.041
Mof_C 	C 	0.69191	0.82126	0.88687	0.066
Mof_N 	N 	0.7157	0.79692	0.87874	-0.079
Mof_N 	N 	0.82052	0.04917	0.70893	-0.094
Mof_C 	C 	0.80266	0.02766	0.72273	0.013
Mof_H 	H 	0.7994	0.0038	0.72	0.035
Mof_C 	C 	0.79009	0.04608	0.74127	0.028
Mof_N 	N 	0.8206	0.08018	0.71894	-0.041
Mof_N 	N 	0.8025	0.07903	0.73866	-0.073
Mof_O 	O 	0.58819	0.69863	0.97478	-0.483
Mof_O 	O 	0.6018	0.7552	0.97446	-0.488
Mof_C 	C 	0.83795	0.01127	0.67581	-0.081
Mof_H 	H 	0.8261	0.9929	0.6833	0.086
Mof_C 	C 	0.85487	0.07198	0.67549	-0.076
Mof_H 	H 	0.8541	0.094	0.6827	0.092
Mof_C 	C 	0.83845	0.04353	0.68619	0.106
Mof_C 	C 	0.87278	0.03411	0.64312	-0.006
Mof_H 	H 	0.8847	0.0307	0.6286	0.074
Mof_C 	C 	0.87246	0.06664	0.65369	-0.045
Mof_C 	C 	0.85526	0.00584	0.65401	-0.044
Mof_C 	C 	0.65201	0.64407	0.90208	0.369
Mof_C 	C 	0.85356	0.97119	0.64123	0.365
Mof_C 	C 	0.88864	0.09784	0.64121	0.374
Mof_N 	N 	0.70751	0.7663	0.88742	-0.041
Mof_O 	O 	0.87225	0.96755	0.62258	-0.462
Mof_O 	O 	0.63511	0.62041	0.9131	-0.448
Mof_O 	O 	0.6689	0.64219	0.88335	-0.468
Mof_O 	O 	0.9048	0.09075	0.62199	-0.45
Mof_O 	O 	0.83486	0.94798	0.65062	-0.451
Mof_O 	O 	0.88616	0.12643	0.65141	-0.471
Mof_H 	H 	0.7031	0.8651	0.8931	0.057
Mof_C 	C 	0.14465	0.24628	0.43422	-0.074
Mof_H 	H 	0.1435	0.2685	0.4412	0.077
Mof_C 	C 	0.16745	0.2077	0.40362	-0.075
Mof_H 	H 	0.1815	0.2043	0.39	0.092
Mof_C 	C 	0.19151	0.35707	0.37823	-0.059
Mof_C 	C 	0.16281	0.37863	0.38291	-0.023
Mof_H 	H 	0.1426	0.37	0.3902	0.041
Mof_C 	C 	0.2177	0.37003	0.36474	-0.019
Mof_H 	H 	0.2363	0.3558	0.3602	0.05
Mof_C 	C 	0.16567	0.41362	0.37621	-0.065
Mof_H 	H 	0.1486	0.429	0.3819	0.053
Mof_C 	C 	0.2168	0.40568	0.35739	-0.068
Mof_H 	H 	0.2356	0.4145	0.3486	0.057
Mof_C 	C 	0.19083	0.42661	0.36237	0.013
Mof_C 	C 	0.19039	0.46343	0.3537	0.077
Mof_C 	C 	0.21018	0.47312	0.33339	-0.149
Mof_H 	H 	0.2238	0.4566	0.3253	0.085
Mof_C 	C 	0.16802	0.48816	0.3645	-0.146
Mof_H 	H 	0.1538	0.4814	0.3774	0.082
Mof_Zn	Zn	0.07421	0.87169	0.39787	1.228
Mof_Zn	Zn	0.09886	0.82949	0.36382	1.228
Mof_O 	O 	0.11889	0.79577	0.33598	-0.463
Mof_H 	H 	0.1375	0.8036	0.331	0.258
Mof_O 	O 	0.05333	0.90552	0.42569	-0.456
Mof_H 	H 	0.0331	0.8998	0.4287	0.258
Mof_O 	O 	0.08109	0.79248	0.38471	-0.451
Mof_O 	O 	0.98098	0.78203	0.47467	-0.483
Mof_O 	O 	0.05811	0.82835	0.41243	-0.468
Mof_O 	O 	0.96741	0.7248	0.47506	-0.485
Mof_C 	C 	0.02547	0.77297	0.43623	-0.005
Mof_H 	H 	0.0198	0.7957	0.4409	0.068
Mof_C 	C 	0.06311	0.79863	0.4036	0.362
Mof_N 	N 	0.05343	0.67109	0.41661	-0.093
Mof_C 	C 	0.01057	0.74477	0.44818	-0.049
Mof_C 	C 	0.98339	0.75088	0.46797	0.386
Mof_C 	C 	0.01947	0.71098	0.44181	-0.073
Mof_H 	H 	0.0098	0.692	0.45	0.088
Mof_C 	C 	0.04876	0.76737	0.41736	-0.044
Mof_C 	C 	0.12624	0.60825	0.37818	-0.093
Mof_H 	H 	0.1297	0.632	0.3752	0.068
Mof_N 	N 	0.05037	0.61579	0.416	-0.077
Mof_C 	C 	0.26969	0.53604	0.26307	0.07
Mof_C 	C 	0.05804	0.73363	0.41066	-0.078
Mof_H 	H 	0.0739	0.7298	0.3981	0.085
Mof_C 	C 	0.0432	0.7058	0.423	0.103
Mof_C 	C 	0.23089	0.51784	0.30391	-0.046
Mof_C 	C 	0.16686	0.52295	0.3562	0.099
Mof_C 	C 	0.18777	0.53205	0.33719	-0.163
Mof_H 	H 	0.1877	0.5552	0.3319	0.091
Mof_C 	C 	0.25993	0.5048	0.26649	-0.112
Mof_H 	H 	0.2657	0.4879	0.255	0.075
Mof_C 	C 	0.07961	0.65978	0.40293	0.004
Mof_H 	H 	0.0965	0.6735	0.3953	0.038
Mof_C 	C 	0.20921	0.50798	0.32539	0.101
Mof_C 	C 	0.10095	0.59891	0.39113	0.052
Mof_C 	C 	0.1135	0.53972	0.37936	-0.012
Mof_H 	H 	0.1074	0.5161	0.3796	0.037
Mof_C 	C 	0.14343	0.54888	0.3681	-0.033
Mof_C 	C 	0.2421	0.55064	0.30048	0.006
Mof_H 	H 	0.2357	0.5679	0.3115	0.031
Mof_C 	C 	0.07712	0.62459	0.40221	0.04
Mof_C 	C 	0.24083	0.49466	0.28688	0.009
Mof_H 	H 	0.2348	0.4712	0.2888	0.031
Mof_C 	C 	0.2629	0.55961	0.28121	-0.101
Mof_H 	H 	0.2725	0.582	0.2804	0.081
Mof_C 	C 	0.15048	0.58304	0.36758	-0.012
Mof_H 	H 	0.1711	0.5909	0.3604	0.037
Mof_C 	C 	0.0907	0.56375	0.39083	-0.083
Mof_H 	H 	0.0698	0.5565	0.3979	0.073
Mof_N 	N 	0.03532	0.64365	0.42423	-0.043
Mof_C 	C 	0.12741	0.21802	0.44487	-0.054
Mof_C 	C 	0.13064	0.18482	0.43535	-0.004
Mof_H 	H 	0.1197	0.1659	0.4428	0.072
Mof_C 	C 	0.15044	0.17996	0.41439	-0.04
Mof_C 	C 	0.10364	0.22442	0.46655	0.39
Mof_N 	N 	0.17975	0.27054	0.40141	-0.089
Mof_C 	C 	0.16325	0.24094	0.41351	0.099
Mof_C 	C 	0.16844	0.30326	0.40126	-0.014
Mof_H 	H 	0.1489	0.3122	0.4092	0.041
Mof_C 	C 	0.19191	0.32126	0.38687	0.066
Mof_N 	N 	0.2157	0.29692	0.37874	-0.079
Mof_N 	N 	0.32052	0.54917	0.20893	-0.094
Mof_C 	C 	0.30266	0.52766	0.22273	0.013
Mof_H 	H 	0.2994	0.5038	0.22	0.035
Mof_C 	C 	0.29009	0.54608	0.24127	0.028
Mof_N 	N 	0.3206	0.58018	0.21894	-0.041
Mof_N 	N 	0.3025	0.57903	0.23866	-0.073
Mof_O 	O 	0.08819	0.19863	0.47478	-0.484
Mof_O 	O 	0.1018	0.2552	0.47446	-0.489
Mof_C 	C 	0.33795	0.51127	0.17581	-0.081
Mof_H 	H 	0.3261	0.4929	0.1833	0.086
Mof_C 	C 	0.35487	0.57198	0.17549	-0.076
Mof_H 	H 	0.3541	0.594	0.1827	0.092
Mof_C 	C 	0.33845	0.54353	0.18619	0.106
Mof_C 	C 	0.37278	0.53411	0.14312	-0.006
Mof_H 	H 	0.3847	0.5307	0.1286	0.074
Mof_C 	C 	0.37246	0.56664	0.15369	-0.045
Mof_C 	C 	0.35526	0.50584	0.15401	-0.044
Mof_C 	C 	0.15201	0.14407	0.40208	0.369
Mof_C 	C 	0.35356	0.47119	0.14123	0.365
Mof_C 	C 	0.38864	0.59784	0.14121	0.374
Mof_N 	N 	0.20751	0.2663	0.38742	-0.041
Mof_O 	O 	0.37225	0.46755	0.12258	-0.462
Mof_O 	O 	0.13511	0.12041	0.4131	-0.448
Mof_O 	O 	0.1689	0.14219	0.38335	-0.468
Mof_O 	O 	0.4048	0.59075	0.12199	-0.45
Mof_O 	O 	0.33486	0.44798	0.15062	-0.451
Mof_O 	O 	0.38616	0.62643	0.15141	-0.471
Mof_H 	H 	0.2031	0.3651	0.3931	0.057
Mof_C 	C 	0.35535	0.25372	0.93422	-0.074
Mof_H 	H 	0.3565	0.2315	0.9412	0.077
Mof_C 	C 	0.33255	0.2923	0.90362	-0.075
Mof_H 	H 	0.3185	0.2957	0.89	0.092
Mof_C 	C 	0.30849	0.14293	0.87823	-0.059
Mof_C 	C 	0.33719	0.12137	0.88291	-0.023
Mof_H 	H 	0.3574	0.13	0.8902	0.041
Mof_C 	C 	0.2823	0.12997	0.86474	-0.019
Mof_H 	H 	0.2637	0.1442	0.8602	0.05
Mof_C 	C 	0.33433	0.08638	0.87621	-0.065
Mof_H 	H 	0.3514	0.071	0.8819	0.053
Mof_C 	C 	0.2832	0.09432	0.85739	-0.068
Mof_H 	H 	0.2644	0.0855	0.8486	0.057
Mof_C 	C 	0.30917	0.07339	0.86237	0.013
Mof_C 	C 	0.30961	0.03657	0.8537	0.077
Mof_C 	C 	0.28982	0.02688	0.83339	-0.149
Mof_H 	H 	0.2762	0.0434	0.8253	0.085
Mof_C 	C 	0.33198	0.01184	0.8645	-0.146
Mof_H 	H 	0.3462	0.0186	0.8774	0.082
Mof_Zn	Zn	0.42579	0.62831	0.89787	1.228
Mof_Zn	Zn	0.40114	0.67051	0.86382	1.228
Mof_O 	O 	0.38111	0.70423	0.83598	-0.463
Mof_H 	H 	0.3625	0.6964	0.831	0.258
Mof_O 	O 	0.44667	0.59448	0.92569	-0.456
Mof_H 	H 	0.4669	0.6002	0.9287	0.258
Mof_O 	O 	0.41891	0.70752	0.88471	-0.451
Mof_O 	O 	0.51902	0.71797	0.97467	-0.483
Mof_O 	O 	0.44189	0.67165	0.91243	-0.468
Mof_O 	O 	0.53259	0.7752	0.97506	-0.484
Mof_C 	C 	0.47453	0.72703	0.93623	-0.005
Mof_H 	H 	0.4802	0.7043	0.9409	0.068
Mof_C 	C 	0.43689	0.70137	0.9036	0.362
Mof_N 	N 	0.44657	0.82891	0.91661	-0.093
Mof_C 	C 	0.48943	0.75523	0.94818	-0.049
Mof_C 	C 	0.51661	0.74912	0.96797	0.386
Mof_C 	C 	0.48053	0.78902	0.94181	-0.073
Mof_H 	H 	0.4902	0.808	0.95	0.088
Mof_C 	C 	0.45124	0.73263	0.91736	-0.044
Mof_C 	C 	0.37376	0.89175	0.87818	-0.093
Mof_H 	H 	0.3703	0.868	0.8752	0.068
Mof_N 	N 	0.44963	0.88421	0.916	-0.077
Mof_C 	C 	0.23031	0.96396	0.76307	0.07
Mof_C 	C 	0.44196	0.76637	0.91066	-0.078
Mof_H 	H 	0.4261	0.7702	0.8981	0.085
Mof_C 	C 	0.4568	0.7942	0.923	0.103
Mof_C 	C 	0.26911	0.98216	0.80391	-0.046
Mof_C 	C 	0.33314	0.97705	0.8562	0.099
Mof_C 	C 	0.31223	0.96795	0.83719	-0.163
Mof_H 	H 	0.3123	0.9448	0.8319	0.091
Mof_C 	C 	0.24007	0.9952	0.76649	-0.112
Mof_H 	H 	0.2343	0.0121	0.755	0.075
Mof_C 	C 	0.42039	0.84022	0.90293	0.004
Mof_H 	H 	0.4035	0.8265	0.8953	0.038
Mof_C 	C 	0.29079	0.99202	0.82539	0.101
Mof_C 	C 	0.39905	0.90109	0.89113	0.052
Mof_C 	C 	0.3865	0.96028	0.87936	-0.012
Mof_H 	H 	0.3926	0.9839	0.8796	0.037
Mof_C 	C 	0.35657	0.95112	0.8681	-0.033
Mof_C 	C 	0.2579	0.94936	0.80048	0.006
Mof_H 	H 	0.2643	0.9321	0.8115	0.031
Mof_C 	C 	0.42288	0.87541	0.90221	0.04
Mof_C 	C 	0.25917	0.00534	0.78688	0.009
Mof_H 	H 	0.2652	0.0288	0.7888	0.031
Mof_C 	C 	0.2371	0.94039	0.78121	-0.101
Mof_H 	H 	0.2275	0.918	0.7804	0.081
Mof_C 	C 	0.34952	0.91696	0.86758	-0.012
Mof_H 	H 	0.3289	0.9091	0.8604	0.037
Mof_C 	C 	0.4093	0.93625	0.89083	-0.083
Mof_H 	H 	0.4302	0.9435	0.8979	0.073
Mof_N 	N 	0.46468	0.85635	0.92423	-0.043
Mof_C 	C 	0.37259	0.28198	0.94487	-0.054
Mof_C 	C 	0.36936	0.31518	0.93535	-0.004
Mof_H 	H 	0.3803	0.3341	0.9428	0.072
Mof_C 	C 	0.34956	0.32004	0.91439	-0.04
Mof_C 	C 	0.39636	0.27558	0.96655	0.39
Mof_N 	N 	0.32025	0.22946	0.90141	-0.089
Mof_C 	C 	0.33675	0.25906	0.91351	0.099
Mof_C 	C 	0.33156	0.19674	0.90126	-0.014
Mof_H 	H 	0.3511	0.1878	0.9092	0.041
Mof_C 	C 	0.30809	0.17874	0.88687	0.066
Mof_N 	N 	0.2843	0.20308	0.87874	-0.079
Mof_N 	N 	0.17948	0.95083	0.70893	-0.094
Mof_C 	C 	0.19734	0.97234	0.72273	0.013
Mof_H 	H 	0.2006	0.9962	0.72	0.035
Mof_C 	C 	0.20991	0.95392	0.74127	0.028
Mof_N 	N 	0.1794	0.91982	0.71894	-0.041
Mof_N 	N 	0.1975	0.92097	0.73866	-0.073
Mof_O 	O 	0.41181	0.30137	0.97478	-0.483
Mof_O 	O 	0.3982	0.2448	0.97446	-0.488
Mof_C 	C 	0.16205	0.98873	0.67581	-0.081
Mof_H 	H 	0.1739	0.0071	0.6833	0.086
Mof_C 	C 	0.14513	0.92802	0.67549	-0.076
Mof_H 	H 	0.1459	0.906	0.6827	0.092
Mof_C 	C 	0.16155	0.95647	0.68619	0.106
Mof_C 	C 	0.12722	0.96589	0.64312	-0.006
Mof_H 	H 	0.1153	0.9693	0.6286	0.074
Mof_C 	C 	0.12754	0.93336	0.65369	-0.045
Mof_C 	C 	0.14474	0.99416	0.65401	-0.044
Mof_C 	C 	0.34799	0.35593	0.90208	0.369
Mof_C 	C 	0.14644	0.02881	0.64123	0.365
Mof_C 	C 	0.11136	0.90216	0.64121	0.374
Mof_N 	N 	0.29249	0.2337	0.88742	-0.041
Mof_O 	O 	0.12775	0.03245	0.62258	-0.462
Mof_O 	O 	0.36489	0.37959	0.9131	-0.448
Mof_O 	O 	0.3311	0.35781	0.88335	-0.468
Mof_O 	O 	0.0952	0.90925	0.62199	-0.45
Mof_O 	O 	0.16514	0.05202	0.65062	-0.451
Mof_O 	O 	0.11384	0.87357	0.65141	-0.471
Mof_H 	H 	0.2969	0.1349	0.8931	0.057
Mof_C 	C 	0.85535	0.75372	0.43422	-0.074
Mof_H 	H 	0.8565	0.7315	0.4412	0.077
Mof_C 	C 	0.83255	0.7923	0.40362	-0.075
Mof_H 	H 	0.8185	0.7957	0.39	0.092
Mof_C 	C 	0.80849	0.64293	0.37823	-0.059
Mof_C 	C 	0.83719	0.62137	0.38291	-0.023
Mof_H 	H 	0.8574	0.63	0.3902	0.041
Mof_C 	C 	0.7823	0.62997	0.36474	-0.019
Mof_H 	H 	0.7637	0.6442	0.3602	0.05
Mof_C 	C 	0.83433	0.58638	0.37621	-0.065
Mof_H 	H 	0.8514	0.571	0.3819	0.053
Mof_C 	C 	0.7832	0.59432	0.35739	-0.068
Mof_H 	H 	0.7644	0.5855	0.3486	0.057
Mof_C 	C 	0.80917	0.57339	0.36237	0.013
Mof_C 	C 	0.80961	0.53657	0.3537	0.077
Mof_C 	C 	0.78982	0.52688	0.33339	-0.149
Mof_H 	H 	0.7762	0.5434	0.3253	0.085
Mof_C 	C 	0.83198	0.51184	0.3645	-0.146
Mof_H 	H 	0.8462	0.5186	0.3774	0.082
Mof_Zn	Zn	0.92579	0.12831	0.39787	1.228
Mof_Zn	Zn	0.90114	0.17051	0.36382	1.228
Mof_O 	O 	0.88111	0.20423	0.33598	-0.463
Mof_H 	H 	0.8625	0.1964	0.331	0.258
Mof_O 	O 	0.94667	0.09448	0.42569	-0.456
Mof_H 	H 	0.9669	0.1002	0.4287	0.258
Mof_O 	O 	0.91891	0.20752	0.38471	-0.451
Mof_O 	O 	0.01902	0.21797	0.47467	-0.483
Mof_O 	O 	0.94189	0.17165	0.41243	-0.468
Mof_O 	O 	0.03259	0.2752	0.47506	-0.485
Mof_C 	C 	0.97453	0.22703	0.43623	-0.005
Mof_H 	H 	0.9802	0.2043	0.4409	0.068
Mof_C 	C 	0.93689	0.20137	0.4036	0.362
Mof_N 	N 	0.94657	0.32891	0.41661	-0.093
Mof_C 	C 	0.98943	0.25523	0.44818	-0.049
Mof_C 	C 	0.01661	0.24912	0.46797	0.386
Mof_C 	C 	0.98053	0.28902	0.44181	-0.073
Mof_H 	H 	0.9902	0.308	0.45	0.088
Mof_C 	C 	0.95124	0.23263	0.41736	-0.044
Mof_C 	C 	0.87376	0.39175	0.37818	-0.093
Mof_H 	H 	0.8703	0.368	0.3752	0.068
Mof_N 	N 	0.94963	0.38421	0.416	-0.077
Mof_C 	C 	0.73031	0.46396	0.26307	0.07
Mof_C 	C 	0.94196	0.26637	0.41066	-0.078
Mof_H 	H 	0.9261	0.2702	0.3981	0.085
Mof_C 	C 	0.9568	0.2942	0.423	0.103
Mof_C 	C 	0.76911	0.48216	0.30391	-0.046
Mof_C 	C 	0.83314	0.47705	0.3562	0.099
Mof_C 	C 	0.81223	0.46795	0.33719	-0.163
Mof_H 	H 	0.8123	0.4448	0.3319	0.091
Mof_C 	C 	0.74007	0.4952	0.26649	-0.112
Mof_H 	H 	0.7343	0.5121	0.255	0.075
Mof_C 	C 	0.92039	0.34022	0.40293	0.004
Mof_H 	H 	0.9035	0.3265	0.3953	0.038
Mof_C 	C 	0.79079	0.49202	0.32539	0.101
Mof_C 	C 	0.89905	0.40109	0.39113	0.052
Mof_C 	C 	0.8865	0.46028	0.37936	-0.012
Mof_H 	H 	0.8926	0.4839	0.3796	0.037
Mof_C 	C 	0.85657	0.45112	0.3681	-0.033
Mof_C 	C 	0.7579	0.44936	0.30048	0.006
Mof_H 	H 	0.7643	0.4321	0.3115	0.031
Mof_C 	C 	0.92288	0.37541	0.40221	0.04
Mof_C 	C 	0.75917	0.50534	0.28688	0.009
Mof_H 	H 	0.7652	0.5288	0.2888	0.031
Mof_C 	C 	0.7371	0.44039	0.28121	-0.101
Mof_H 	H 	0.7275	0.418	0.2804	0.081
Mof_C 	C 	0.84952	0.41696	0.36758	-0.012
Mof_H 	H 	0.8289	0.4091	0.3604	0.037
Mof_C 	C 	0.9093	0.43625	0.39083	-0.083
Mof_H 	H 	0.9302	0.4435	0.3979	0.073
Mof_N 	N 	0.96468	0.35635	0.42423	-0.043
Mof_C 	C 	0.87259	0.78198	0.44487	-0.054
Mof_C 	C 	0.86936	0.81518	0.43535	-0.004
Mof_H 	H 	0.8803	0.8341	0.4428	0.072
Mof_C 	C 	0.84956	0.82004	0.41439	-0.04
Mof_C 	C 	0.89636	0.77558	0.46655	0.39
Mof_N 	N 	0.82025	0.72946	0.40141	-0.089
Mof_C 	C 	0.83675	0.75906	0.41351	0.099
Mof_C 	C 	0.83156	0.69674	0.40126	-0.014
Mof_H 	H 	0.8511	0.6878	0.4092	0.041
Mof_C 	C 	0.80809	0.67874	0.38687	0.066
Mof_N 	N 	0.7843	0.70308	0.37874	-0.079
Mof_N 	N 	0.67948	0.45083	0.20893	-0.094
Mof_C 	C 	0.69734	0.47234	0.22273	0.013
Mof_H 	H 	0.7006	0.4962	0.22	0.035
Mof_C 	C 	0.70991	0.45392	0.24127	0.028
Mof_N 	N 	0.6794	0.41982	0.21894	-0.041
Mof_N 	N 	0.6975	0.42097	0.23866	-0.073
Mof_O 	O 	0.91181	0.80137	0.47478	-0.484
Mof_O 	O 	0.8982	0.7448	0.47446	-0.489
Mof_C 	C 	0.66205	0.48873	0.17581	-0.081
Mof_H 	H 	0.6739	0.5071	0.1833	0.086
Mof_C 	C 	0.64513	0.42802	0.17549	-0.076
Mof_H 	H 	0.6459	0.406	0.1827	0.092
Mof_C 	C 	0.66155	0.45647	0.18619	0.106
Mof_C 	C 	0.62722	0.46589	0.14312	-0.006
Mof_H 	H 	0.6153	0.4693	0.1286	0.074
Mof_C 	C 	0.62754	0.43336	0.15369	-0.045
Mof_C 	C 	0.64474	0.49416	0.15401	-0.044
Mof_C 	C 	0.84799	0.85593	0.40208	0.369
Mof_C 	C 	0.64644	0.52881	0.14123	0.365
Mof_C 	C 	0.61136	0.40216	0.14121	0.374
Mof_N 	N 	0.79249	0.7337	0.38742	-0.041
Mof_O 	O 	0.62775	0.53245	0.12258	-0.462
Mof_O 	O 	0.86489	0.87959	0.4131	-0.448
Mof_O 	O 	0.8311	0.85781	0.38335	-0.468
Mof_O 	O 	0.5952	0.40925	0.12199	-0.45
Mof_O 	O 	0.66514	0.55202	0.15062	-0.451
Mof_O 	O 	0.61384	0.37357	0.15141	-0.471
Mof_H 	H 	0.7969	0.6349	0.3931	0.057
Mof_C 	C 	0.25372	0.64465	0.93422	-0.074
Mof_H 	H 	0.2315	0.6435	0.9412	0.077
Mof_C 	C 	0.2923	0.66745	0.90362	-0.075
Mof_H 	H 	0.2957	0.6815	0.89	0.092
Mof_C 	C 	0.14293	0.69151	0.87823	-0.059
Mof_C 	C 	0.12137	0.66281	0.88291	-0.023
Mof_H 	H 	0.13	0.6426	0.8902	0.041
Mof_C 	C 	0.12997	0.7177	0.86474	-0.019
Mof_H 	H 	0.1442	0.7363	0.8602	0.05
Mof_C 	C 	0.08638	0.66567	0.87621	-0.065
Mof_H 	H 	0.071	0.6486	0.8819	0.053
Mof_C 	C 	0.09432	0.7168	0.85739	-0.068
Mof_H 	H 	0.0855	0.7356	0.8486	0.057
Mof_C 	C 	0.07339	0.69083	0.86237	0.013
Mof_C 	C 	0.03657	0.69039	0.8537	0.077
Mof_C 	C 	0.02688	0.71018	0.83339	-0.149
Mof_H 	H 	0.0434	0.7238	0.8253	0.085
Mof_C 	C 	0.01184	0.66802	0.8645	-0.146
Mof_H 	H 	0.0186	0.6538	0.8774	0.082
Mof_Zn	Zn	0.62831	0.57421	0.89787	1.228
Mof_Zn	Zn	0.67051	0.59886	0.86382	1.228
Mof_O 	O 	0.70423	0.61889	0.83598	-0.463
Mof_H 	H 	0.6964	0.6375	0.831	0.258
Mof_O 	O 	0.59448	0.55333	0.92569	-0.456
Mof_H 	H 	0.6002	0.5331	0.9287	0.258
Mof_O 	O 	0.70752	0.58109	0.88471	-0.451
Mof_O 	O 	0.71797	0.48098	0.97467	-0.483
Mof_O 	O 	0.67165	0.55811	0.91243	-0.468
Mof_O 	O 	0.7752	0.46741	0.97506	-0.484
Mof_C 	C 	0.72703	0.52547	0.93623	-0.005
Mof_H 	H 	0.7043	0.5198	0.9409	0.068
Mof_C 	C 	0.70137	0.56311	0.9036	0.362
Mof_N 	N 	0.82891	0.55343	0.91661	-0.093
Mof_C 	C 	0.75523	0.51057	0.94818	-0.049
Mof_C 	C 	0.74912	0.48339	0.96797	0.386
Mof_C 	C 	0.78902	0.51947	0.94181	-0.073
Mof_H 	H 	0.808	0.5098	0.95	0.088
Mof_C 	C 	0.73263	0.54876	0.91736	-0.044
Mof_C 	C 	0.89175	0.62624	0.87818	-0.093
Mof_H 	H 	0.868	0.6297	0.8752	0.068
Mof_N 	N 	0.88421	0.55037	0.916	-0.077
Mof_C 	C 	0.96396	0.76969	0.76307	0.07
Mof_C 	C 	0.76637	0.55804	0.91066	-0.078
Mof_H 	H 	0.7702	0.5739	0.8981	0.085
Mof_C 	C 	0.7942	0.5432	0.923	0.103
Mof_C 	C 	0.98216	0.73089	0.80391	-0.046
Mof_C 	C 	0.97705	0.66686	0.8562	0.099
Mof_C 	C 	0.96795	0.68777	0.83719	-0.163
Mof_H 	H 	0.9448	0.6877	0.8319	0.091
Mof_C 	C 	0.9952	0.75993	0.76649	-0.112
Mof_H 	H 	0.0121	0.7657	0.755	0.075
Mof_C 	C 	0.84022	0.57961	0.90293	0.004
Mof_H 	H 	0.8265	0.5965	0.8953	0.038
Mof_C 	C 	0.99202	0.70921	0.82539	0.101
Mof_C 	C 	0.90109	0.60095	0.89113	0.052
Mof_C 	C 	0.96028	0.6135	0.87936	-0.012
Mof_H 	H 	0.9839	0.6074	0.8796	0.037
Mof_C 	C 	0.95112	0.64343	0.8681	-0.033
Mof_C 	C 	0.94936	0.7421	0.80048	0.006
Mof_H 	H 	0.9321	0.7357	0.8115	0.031
Mof_C 	C 	0.87541	0.57712	0.90221	0.04
Mof_C 	C 	0.00534	0.74083	0.78688	0.009
Mof_H 	H 	0.0288	0.7348	0.7888	0.031
Mof_C 	C 	0.94039	0.7629	0.78121	-0.101
Mof_H 	H 	0.918	0.7725	0.7804	0.081
Mof_C 	C 	0.91696	0.65048	0.86758	-0.012
Mof_H 	H 	0.9091	0.6711	0.8604	0.037
Mof_C 	C 	0.93625	0.5907	0.89083	-0.083
Mof_H 	H 	0.9435	0.5698	0.8979	0.073
Mof_N 	N 	0.85635	0.53532	0.92423	-0.043
Mof_C 	C 	0.28198	0.62741	0.94487	-0.054
Mof_C 	C 	0.31518	0.63064	0.93535	-0.004
Mof_H 	H 	0.3341	0.6197	0.9428	0.072
Mof_C 	C 	0.32004	0.65044	0.91439	-0.04
Mof_C 	C 	0.27558	0.60364	0.96655	0.39
Mof_N 	N 	0.22946	0.67975	0.90141	-0.089
Mof_C 	C 	0.25906	0.66325	0.91351	0.099
Mof_C 	C 	0.19674	0.66844	0.90126	-0.014
Mof_H 	H 	0.1878	0.6489	0.9092	0.041
Mof_C 	C 	0.17874	0.69191	0.88687	0.066
Mof_N 	N 	0.20308	0.7157	0.87874	-0.079
Mof_N 	N 	0.95083	0.82052	0.70893	-0.094
Mof_C 	C 	0.97234	0.80266	0.72273	0.013
Mof_H 	H 	0.9962	0.7994	0.72	0.035
Mof_C 	C 	0.95392	0.79009	0.74127	0.028
Mof_N 	N 	0.91982	0.8206	0.71894	-0.041
Mof_N 	N 	0.92097	0.8025	0.73866	-0.073
Mof_O 	O 	0.30137	0.58819	0.97478	-0.483
Mof_O 	O 	0.2448	0.6018	0.97446	-0.488
Mof_C 	C 	0.98873	0.83795	0.67581	-0.081
Mof_H 	H 	0.0071	0.8261	0.6833	0.086
Mof_C 	C 	0.92802	0.85487	0.67549	-0.076
Mof_H 	H 	0.906	0.8541	0.6827	0.092
Mof_C 	C 	0.95647	0.83845	0.68619	0.106
Mof_C 	C 	0.96589	0.87278	0.64312	-0.006
Mof_H 	H 	0.9693	0.8847	0.6286	0.074
Mof_C 	C 	0.93336	0.87246	0.65369	-0.045
Mof_C 	C 	0.99416	0.85526	0.65401	-0.044
Mof_C 	C 	0.35593	0.65201	0.90208	0.369
Mof_C 	C 	0.02881	0.85356	0.64123	0.365
Mof_C 	C 	0.90216	0.88864	0.64121	0.374
Mof_N 	N 	0.2337	0.70751	0.88742	-0.041
Mof_O 	O 	0.03245	0.87225	0.62258	-0.462
Mof_O 	O 	0.37959	0.63511	0.9131	-0.448
Mof_O 	O 	0.35781	0.6689	0.88335	-0.468
Mof_O 	O 	0.90925	0.9048	0.62199	-0.45
Mof_O 	O 	0.05202	0.83486	0.65062	-0.451
Mof_O 	O 	0.87357	0.88616	0.65141	-0.471
Mof_H 	H 	0.1349	0.7031	0.8931	0.057
Mof_C 	C 	0.75372	0.14465	0.43422	-0.074
Mof_H 	H 	0.7315	0.1435	0.4412	0.077
Mof_C 	C 	0.7923	0.16745	0.40362	-0.075
Mof_H 	H 	0.7957	0.1815	0.39	0.092
Mof_C 	C 	0.64293	0.19151	0.37823	-0.059
Mof_C 	C 	0.62137	0.16281	0.38291	-0.023
Mof_H 	H 	0.63	0.1426	0.3902	0.041
Mof_C 	C 	0.62997	0.2177	0.36474	-0.019
Mof_H 	H 	0.6442	0.2363	0.3602	0.05
Mof_C 	C 	0.58638	0.16567	0.37621	-0.065
Mof_H 	H 	0.571	0.1486	0.3819	0.053
Mof_C 	C 	0.59432	0.2168	0.35739	-0.068
Mof_H 	H 	0.5855	0.2356	0.3486	0.057
Mof_C 	C 	0.57339	0.19083	0.36237	0.013
Mof_C 	C 	0.53657	0.19039	0.3537	0.077
Mof_C 	C 	0.52688	0.21018	0.33339	-0.149
Mof_H 	H 	0.5434	0.2238	0.3253	0.085
Mof_C 	C 	0.51184	0.16802	0.3645	-0.146
Mof_H 	H 	0.5186	0.1538	0.3774	0.082
Mof_Zn	Zn	0.12831	0.07421	0.39787	1.228
Mof_Zn	Zn	0.17051	0.09886	0.36382	1.228
Mof_O 	O 	0.20423	0.11889	0.33598	-0.463
Mof_H 	H 	0.1964	0.1375	0.331	0.258
Mof_O 	O 	0.09448	0.05333	0.42569	-0.456
Mof_H 	H 	0.1002	0.0331	0.4287	0.258
Mof_O 	O 	0.20752	0.08109	0.38471	-0.451
Mof_O 	O 	0.21797	0.98098	0.47467	-0.483
Mof_O 	O 	0.17165	0.05811	0.41243	-0.468
Mof_O 	O 	0.2752	0.96741	0.47506	-0.485
Mof_C 	C 	0.22703	0.02547	0.43623	-0.005
Mof_H 	H 	0.2043	0.0198	0.4409	0.068
Mof_C 	C 	0.20137	0.06311	0.4036	0.362
Mof_N 	N 	0.32891	0.05343	0.41661	-0.093
Mof_C 	C 	0.25523	0.01057	0.44818	-0.049
Mof_C 	C 	0.24912	0.98339	0.46797	0.386
Mof_C 	C 	0.28902	0.01947	0.44181	-0.073
Mof_H 	H 	0.308	0.0098	0.45	0.088
Mof_C 	C 	0.23263	0.04876	0.41736	-0.044
Mof_C 	C 	0.39175	0.12624	0.37818	-0.093
Mof_H 	H 	0.368	0.1297	0.3752	0.068
Mof_N 	N 	0.38421	0.05037	0.416	-0.077
Mof_C 	C 	0.46396	0.26969	0.26307	0.07
Mof_C 	C 	0.26637	0.05804	0.41066	-0.078
Mof_H 	H 	0.2702	0.0739	0.3981	0.085
Mof_C 	C 	0.2942	0.0432	0.423	0.103
Mof_C 	C 	0.48216	0.23089	0.30391	-0.046
Mof_C 	C 	0.47705	0.16686	0.3562	0.099
Mof_C 	C 	0.46795	0.18777	0.33719	-0.163
Mof_H 	H 	0.4448	0.1877	0.3319	0.091
Mof_C 	C 	0.4952	0.25993	0.26649	-0.112
Mof_H 	H 	0.5121	0.2657	0.255	0.075
Mof_C 	C 	0.34022	0.07961	0.40293	0.004
Mof_H 	H 	0.3265	0.0965	0.3953	0.038
Mof_C 	C 	0.49202	0.20921	0.32539	0.101
Mof_C 	C 	0.40109	0.10095	0.39113	0.052
Mof_C 	C 	0.46028	0.1135	0.37936	-0.012
Mof_H 	H 	0.4839	0.1074	0.3796	0.037
Mof_C 	C 	0.45112	0.14343	0.3681	-0.033
Mof_C 	C 	0.44936	0.2421	0.30048	0.006
Mof_H 	H 	0.4321	0.2357	0.3115	0.031
Mof_C 	C 	0.37541	0.07712	0.40221	0.04
Mof_C 	C 	0.50534	0.24083	0.28688	0.009
Mof_H 	H 	0.5288	0.2348	0.2888	0.031
Mof_C 	C 	0.44039	0.2629	0.28121	-0.101
Mof_H 	H 	0.418	0.2725	0.2804	0.081
Mof_C 	C 	0.41696	0.15048	0.36758	-0.012
Mof_H 	H 	0.4091	0.1711	0.3604	0.037
Mof_C 	C 	0.43625	0.0907	0.39083	-0.083
Mof_H 	H 	0.4435	0.0698	0.3979	0.073
Mof_N 	N 	0.35635	0.03532	0.42423	-0.043
Mof_C 	C 	0.78198	0.12741	0.44487	-0.054
Mof_C 	C 	0.81518	0.13064	0.43535	-0.004
Mof_H 	H 	0.8341	0.1197	0.4428	0.072
Mof_C 	C 	0.82004	0.15044	0.41439	-0.04
Mof_C 	C 	0.77558	0.10364	0.46655	0.39
Mof_N 	N 	0.72946	0.17975	0.40141	-0.089
Mof_C 	C 	0.75906	0.16325	0.41351	0.099
Mof_C 	C 	0.69674	0.16844	0.40126	-0.014
Mof_H 	H 	0.6878	0.1489	0.4092	0.041
Mof_C 	C 	0.67874	0.19191	0.38687	0.066
Mof_N 	N 	0.70308	0.2157	0.37874	-0.079
Mof_N 	N 	0.45083	0.32052	0.20893	-0.094
Mof_C 	C 	0.47234	0.30266	0.22273	0.013
Mof_H 	H 	0.4962	0.2994	0.22	0.035
Mof_C 	C 	0.45392	0.29009	0.24127	0.028
Mof_N 	N 	0.41982	0.3206	0.21894	-0.041
Mof_N 	N 	0.42097	0.3025	0.23866	-0.073
Mof_O 	O 	0.80137	0.08819	0.47478	-0.484
Mof_O 	O 	0.7448	0.1018	0.47446	-0.489
Mof_C 	C 	0.48873	0.33795	0.17581	-0.081
Mof_H 	H 	0.5071	0.3261	0.1833	0.086
Mof_C 	C 	0.42802	0.35487	0.17549	-0.076
Mof_H 	H 	0.406	0.3541	0.1827	0.092
Mof_C 	C 	0.45647	0.33845	0.18619	0.106
Mof_C 	C 	0.46589	0.37278	0.14312	-0.006
Mof_H 	H 	0.4693	0.3847	0.1286	0.074
Mof_C 	C 	0.43336	0.37246	0.15369	-0.045
Mof_C 	C 	0.49416	0.35526	0.15401	-0.044
Mof_C 	C 	0.85593	0.15201	0.40208	0.369
Mof_C 	C 	0.52881	0.35356	0.14123	0.365
Mof_C 	C 	0.40216	0.38864	0.14121	0.374
Mof_N 	N 	0.7337	0.20751	0.38742	-0.041
Mof_O 	O 	0.53245	0.37225	0.12258	-0.462
Mof_O 	O 	0.87959	0.13511	0.4131	-0.448
Mof_O 	O 	0.85781	0.1689	0.38335	-0.468
Mof_O 	O 	0.40925	0.4048	0.12199	-0.45
Mof_O 	O 	0.55202	0.33486	0.15062	-0.451
Mof_O 	O 	0.37357	0.38616	0.15141	-0.471
Mof_H 	H 	0.6349	0.2031	0.3931	0.057
Mof_C 	C 	0.74628	0.35535	0.93422	-0.074
Mof_H 	H 	0.7685	0.3565	0.9412	0.077
Mof_C 	C 	0.7077	0.33255	0.90362	-0.075
Mof_H 	H 	0.7043	0.3185	0.89	0.092
Mof_C 	C 	0.85707	0.30849	0.87823	-0.059
Mof_C 	C 	0.87863	0.33719	0.88291	-0.023
Mof_H 	H 	0.87	0.3574	0.8902	0.041
Mof_C 	C 	0.87003	0.2823	0.86474	-0.019
Mof_H 	H 	0.8558	0.2637	0.8602	0.05
Mof_C 	C 	0.91362	0.33433	0.87621	-0.065
Mof_H 	H 	0.929	0.3514	0.8819	0.053
Mof_C 	C 	0.90568	0.2832	0.85739	-0.068
Mof_H 	H 	0.9145	0.2644	0.8486	0.057
Mof_C 	C 	0.92661	0.30917	0.86237	0.013
Mof_C 	C 	0.96343	0.30961	0.8537	0.077
Mof_C 	C 	0.97312	0.28982	0.83339	-0.149
Mof_H 	H 	0.9566	0.2762	0.8253	0.085
Mof_C 	C 	0.98816	0.33198	0.8645	-0.146
Mof_H 	H 	0.9814	0.3462	0.8774	0.082
Mof_Zn	Zn	0.37169	0.42579	0.89787	1.228
Mof_Zn	Zn	0.32949	0.40114	0.86382	1.228
Mof_O 	O 	0.29577	0.38111	0.83598	-0.463
Mof_H 	H 	0.3036	0.3625	0.831	0.258
Mof_O 	O 	0.40552	0.44667	0.92569	-0.456
Mof_H 	H 	0.3998	0.4669	0.9287	0.258
Mof_O 	O 	0.29248	0.41891	0.88471	-0.451
Mof_O 	O 	0.28203	0.51902	0.97467	-0.483
Mof_O 	O 	0.32835	0.44189	0.91243	-0.468
Mof_O 	O 	0.2248	0.53259	0.97506	-0.484
Mof_C 	C 	0.27297	0.47453	0.93623	-0.005
Mof_H 	H 	0.2957	0.4802	0.9409	0.068
Mof_C 	C 	0.29863	0.43689	0.9036	0.362
Mof_N 	N 	0.17109	0.44657	0.91661	-0.093
Mof_C 	C 	0.24477	0.48943	0.94818	-0.049
Mof_C 	C 	0.25088	0.51661	0.96797	0.386
Mof_C 	C 	0.21098	0.48053	0.94181	-0.073
Mof_H 	H 	0.192	0.4902	0.95	0.088
Mof_C 	C 	0.26737	0.45124	0.91736	-0.044
Mof_C 	C 	0.10825	0.37376	0.87818	-0.093
Mof_H 	H 	0.132	0.3703	0.8752	0.068
Mof_N 	N 	0.11579	0.44963	0.916	-0.077
Mof_C 	C 	0.03604	0.23031	0.76307	0.07
Mof_C 	C 	0.23363	0.44196	0.91066	-0.078
Mof_H 	H 	0.2298	0.4261	0.8981	0.085
Mof_C 	C 	0.2058	0.4568	0.923	0.103
Mof_C 	C 	0.01784	0.26911	0.80391	-0.046
Mof_C 	C 	0.02295	0.33314	0.8562	0.099
Mof_C 	C 	0.03205	0.31223	0.83719	-0.163
Mof_H 	H 	0.0552	0.3123	0.8319	0.091
Mof_C 	C 	0.0048	0.24007	0.76649	-0.112
Mof_H 	H 	0.9879	0.2343	0.755	0.075
Mof_C 	C 	0.15978	0.42039	0.90293	0.004
Mof_H 	H 	0.1735	0.4035	0.8953	0.038
Mof_C 	C 	0.00798	0.29079	0.82539	0.101
Mof_C 	C 	0.09891	0.39905	0.89113	0.052
Mof_C 	C 	0.03972	0.3865	0.87936	-0.012
Mof_H 	H 	0.0161	0.3926	0.8796	0.037
Mof_C 	C 	0.04888	0.35657	0.8681	-0.033
Mof_C 	C 	0.05064	0.2579	0.80048	0.006
Mof_H 	H 	0.0679	0.2643	0.8115	0.031
Mof_C 	C 	0.12459	0.42288	0.90221	0.04
Mof_C 	C 	0.99466	0.25917	0.78688	0.009
Mof_H 	H 	0.9712	0.2652	0.7888	0.031
Mof_C 	C 	0.05961	0.2371	0.78121	-0.101
Mof_H 	H 	0.082	0.2275	0.7804	0.081
Mof_C 	C 	0.08304	0.34952	0.86758	-0.012
Mof_H 	H 	0.0909	0.3289	0.8604	0.037
Mof_C 	C 	0.06375	0.4093	0.89083	-0.083
Mof_H 	H 	0.0565	0.4302	0.8979	0.073
Mof_N 	N 	0.14365	0.46468	0.92423	-0.043
Mof_C 	C 	0.71802	0.37259	0.94487	-0.054
Mof_C 	C 	0.68482	0.36936	0.93535	-0.004
Mof_H 	H 	0.6659	0.3803	0.9428	0.072
Mof_C 	C 	0.67996	0.34956	0.91439	-0.04
Mof_C 	C 	0.72442	0.39636	0.96655	0.39
Mof_N 	N 	0.77054	0.32025	0.90141	-0.089
Mof_C 	C 	0.74094	0.33675	0.91351	0.099
Mof_C 	C 	0.80326	0.33156	0.90126	-0.014
Mof_H 	H 	0.8122	0.3511	0.9092	0.041
Mof_C 	C 	0.82126	0.30809	0.88687	0.066
Mof_N 	N 	0.79692	0.2843	0.87874	-0.079
Mof_N 	N 	0.04917	0.17948	0.70893	-0.094
Mof_C 	C 	0.02766	0.19734	0.72273	0.013
Mof_H 	H 	0.0038	0.2006	0.72	0.035
Mof_C 	C 	0.04608	0.20991	0.74127	0.028
Mof_N 	N 	0.08018	0.1794	0.71894	-0.041
Mof_N 	N 	0.07903	0.1975	0.73866	-0.073
Mof_O 	O 	0.69863	0.41181	0.97478	-0.483
Mof_O 	O 	0.7552	0.3982	0.97446	-0.488
Mof_C 	C 	0.01127	0.16205	0.67581	-0.081
Mof_H 	H 	0.9929	0.1739	0.6833	0.086
Mof_C 	C 	0.07198	0.14513	0.67549	-0.076
Mof_H 	H 	0.094	0.1459	0.6827	0.092
Mof_C 	C 	0.04353	0.16155	0.68619	0.106
Mof_C 	C 	0.03411	0.12722	0.64312	-0.006
Mof_H 	H 	0.0307	0.1153	0.6286	0.074
Mof_C 	C 	0.06664	0.12754	0.65369	-0.045
Mof_C 	C 	0.00584	0.14474	0.65401	-0.044
Mof_C 	C 	0.64407	0.34799	0.90208	0.369
Mof_C 	C 	0.97119	0.14644	0.64123	0.365
Mof_C 	C 	0.09784	0.11136	0.64121	0.374
Mof_N 	N 	0.7663	0.29249	0.88742	-0.041
Mof_O 	O 	0.96755	0.12775	0.62258	-0.462
Mof_O 	O 	0.62041	0.36489	0.9131	-0.448
Mof_O 	O 	0.64219	0.3311	0.88335	-0.468
Mof_O 	O 	0.09075	0.0952	0.62199	-0.45
Mof_O 	O 	0.94798	0.16514	0.65062	-0.451
Mof_O 	O 	0.12643	0.11384	0.65141	-0.471
Mof_H 	H 	0.8651	0.2969	0.8931	0.057
Mof_C 	C 	0.24628	0.85535	0.43422	-0.074
Mof_H 	H 	0.2685	0.8565	0.4412	0.077
Mof_C 	C 	0.2077	0.83255	0.40362	-0.075
Mof_H 	H 	0.2043	0.8185	0.39	0.092
Mof_C 	C 	0.35707	0.80849	0.37823	-0.059
Mof_C 	C 	0.37863	0.83719	0.38291	-0.023
Mof_H 	H 	0.37	0.8574	0.3902	0.041
Mof_C 	C 	0.37003	0.7823	0.36474	-0.019
Mof_H 	H 	0.3558	0.7637	0.3602	0.05
Mof_C 	C 	0.41362	0.83433	0.37621	-0.065
Mof_H 	H 	0.429	0.8514	0.3819	0.053
Mof_C 	C 	0.40568	0.7832	0.35739	-0.068
Mof_H 	H 	0.4145	0.7644	0.3486	0.057
Mof_C 	C 	0.42661	0.80917	0.36237	0.013
Mof_C 	C 	0.46343	0.80961	0.3537	0.077
Mof_C 	C 	0.47312	0.78982	0.33339	-0.149
Mof_H 	H 	0.4566	0.7762	0.3253	0.085
Mof_C 	C 	0.48816	0.83198	0.3645	-0.146
Mof_H 	H 	0.4814	0.8462	0.3774	0.082
Mof_Zn	Zn	0.87169	0.92579	0.39787	1.228
Mof_Zn	Zn	0.82949	0.90114	0.36382	1.228
Mof_O 	O 	0.79577	0.88111	0.33598	-0.463
Mof_H 	H 	0.8036	0.8625	0.331	0.258
Mof_O 	O 	0.90552	0.94667	0.42569	-0.456
Mof_H 	H 	0.8998	0.9669	0.4287	0.258
Mof_O 	O 	0.79248	0.91891	0.38471	-0.451
Mof_O 	O 	0.78203	0.01902	0.47467	-0.483
Mof_O 	O 	0.82835	0.94189	0.41243	-0.468
Mof_O 	O 	0.7248	0.03259	0.47506	-0.485
Mof_C 	C 	0.77297	0.97453	0.43623	-0.005
Mof_H 	H 	0.7957	0.9802	0.4409	0.068
Mof_C 	C 	0.79863	0.93689	0.4036	0.362
Mof_N 	N 	0.67109	0.94657	0.41661	-0.093
Mof_C 	C 	0.74477	0.98943	0.44818	-0.049
Mof_C 	C 	0.75088	0.01661	0.46797	0.386
Mof_C 	C 	0.71098	0.98053	0.44181	-0.073
Mof_H 	H 	0.692	0.9902	0.45	0.088
Mof_C 	C 	0.76737	0.95124	0.41736	-0.044
Mof_C 	C 	0.60825	0.87376	0.37818	-0.093
Mof_H 	H 	0.632	0.8703	0.3752	0.068
Mof_N 	N 	0.61579	0.94963	0.416	-0.077
Mof_C 	C 	0.53604	0.73031	0.26307	0.07
Mof_C 	C 	0.73363	0.94196	0.41066	-0.078
Mof_H 	H 	0.7298	0.9261	0.3981	0.085
Mof_C 	C 	0.7058	0.9568	0.423	0.103
Mof_C 	C 	0.51784	0.76911	0.30391	-0.046
Mof_C 	C 	0.52295	0.83314	0.3562	0.099
Mof_C 	C 	0.53205	0.81223	0.33719	-0.163
Mof_H 	H 	0.5552	0.8123	0.3319	0.091
Mof_C 	C 	0.5048	0.74007	0.26649	-0.112
Mof_H 	H 	0.4879	0.7343	0.255	0.075
Mof_C 	C 	0.65978	0.92039	0.40293	0.004
Mof_H 	H 	0.6735	0.9035	0.3953	0.038
Mof_C 	C 	0.50798	0.79079	0.32539	0.101
Mof_C 	C 	0.59891	0.89905	0.39113	0.052
Mof_C 	C 	0.53972	0.8865	0.37936	-0.012
Mof_H 	H 	0.5161	0.8926	0.3796	0.037
Mof_C 	C 	0.54888	0.85657	0.3681	-0.033
Mof_C 	C 	0.55064	0.7579	0.30048	0.006
Mof_H 	H 	0.5679	0.7643	0.3115	0.031
Mof_C 	C 	0.62459	0.92288	0.40221	0.04
Mof_C 	C 	0.49466	0.75917	0.28688	0.009
Mof_H 	H 	0.4712	0.7652	0.2888	0.031
Mof_C 	C 	0.55961	0.7371	0.28121	-0.101
Mof_H 	H 	0.582	0.7275	0.2804	0.081
Mof_C 	C 	0.58304	0.84952	0.36758	-0.012
Mof_H 	H 	0.5909	0.8289	0.3604	0.037
Mof_C 	C 	0.56375	0.9093	0.39083	-0.083
Mof_H 	H 	0.5565	0.9302	0.3979	0.073
Mof_N 	N 	0.64365	0.96468	0.42423	-0.043
Mof_C 	C 	0.21802	0.87259	0.44487	-0.054
Mof_C 	C 	0.18482	0.86936	0.43535	-0.004
Mof_H 	H 	0.1659	0.8803	0.4428	0.072
Mof_C 	C 	0.17996	0.84956	0.41439	-0.04
Mof_C 	C 	0.22442	0.89636	0.46655	0.39
Mof_N 	N 	0.27054	0.82025	0.40141	-0.089
Mof_C 	C 	0.24094	0.83675	0.41351	0.099
Mof_C 	C 	0.30326	0.83156	0.40126	-0.014
Mof_H 	H 	0.3122	0.8511	0.4092	0.041
Mof_C 	C 	0.32126	0.80809	0.38687	0.066
Mof_N 	N 	0.29692	0.7843	0.37874	-0.079
Mof_N 	N 	0.54917	0.67948	0.20893	-0.094
Mof_C 	C 	0.52766	0.69734	0.22273	0.013
Mof_H 	H 	0.5038	0.7006	0.22	0.035
Mof_C 	C 	0.54608	0.70991	0.24127	0.028
Mof_N 	N 	0.58018	0.6794	0.21894	-0.041
Mof_N 	N 	0.57903	0.6975	0.23866	-0.073
Mof_O 	O 	0.19863	0.91181	0.47478	-0.484
Mof_O 	O 	0.2552	0.8982	0.47446	-0.489
Mof_C 	C 	0.51127	0.66205	0.17581	-0.081
Mof_H 	H 	0.4929	0.6739	0.1833	0.086
Mof_C 	C 	0.57198	0.64513	0.17549	-0.076
Mof_H 	H 	0.594	0.6459	0.1827	0.092
Mof_C 	C 	0.54353	0.66155	0.18619	0.106
Mof_C 	C 	0.53411	0.62722	0.14312	-0.006
Mof_H 	H 	0.5307	0.6153	0.1286	0.074
Mof_C 	C 	0.56664	0.62754	0.15369	-0.045
Mof_C 	C 	0.50584	0.64474	0.15401	-0.044
Mof_C 	C 	0.14407	0.84799	0.40208	0.369
Mof_C 	C 	0.47119	0.64644	0.14123	0.365
Mof_C 	C 	0.59784	0.61136	0.14121	0.374
Mof_N 	N 	0.2663	0.79249	0.38742	-0.041
Mof_O 	O 	0.46755	0.62775	0.12258	-0.462
Mof_O 	O 	0.12041	0.86489	0.4131	-0.448
Mof_O 	O 	0.14219	0.8311	0.38335	-0.468
Mof_O 	O 	0.59075	0.5952	0.12199	-0.45
Mof_O 	O 	0.44798	0.66514	0.15062	-0.451
Mof_O 	O 	0.62643	0.61384	0.15141	-0.471
Mof_H 	H 	0.3651	0.7969	0.3931	0.057
Mof_Zn	Zn	0.55223	0.70299	-0	1.205
Mof_Zn	Zn	0.5693	0.77028	-0	1.203
Mof_Zn	Zn	0.05223	0.20299	0.5	1.206
Mof_Zn	Zn	0.0693	0.27028	0.5	1.204
Mof_Zn	Zn	0.44777	0.29701	-0	1.205
Mof_Zn	Zn	0.4307	0.22972	-0	1.203
Mof_Zn	Zn	0.94777	0.79701	0.5	1.206
Mof_Zn	Zn	0.9307	0.72972	0.5	1.204
Mof_Zn	Zn	0.29701	0.55223	-0	1.205
Mof_Zn	Zn	0.22972	0.5693	-0	1.203
Mof_Zn	Zn	0.79701	0.05223	0.5	1.206
Mof_Zn	Zn	0.72972	0.0693	0.5	1.204
Mof_Zn	Zn	0.70299	0.44777	-0	1.205
Mof_Zn	Zn	0.77028	0.4307	-0	1.203
Mof_Zn	Zn	0.20299	0.94777	0.5	1.206
Mof_Zn	Zn	0.27028	0.9307	0.5	1.204
_end
