# CIF file generated by openbabel 3.1.0, see https://openbabel.org
data_I
_chemical_name_common 'image0'
_cell_length_a 17.937
_cell_length_b 6.4299
_cell_length_c 4.4936
_cell_angle_alpha 90
_cell_angle_beta 90
_cell_angle_gamma 90
_space_group_name_H-M_alt 'P 1'
_space_group_name_Hall 'P 1'
loop_
    _symmetry_equiv_pos_as_xyz
    x,y,z
loop_
    _atom_site_label
    _atom_site_type_symbol
    _atom_site_fract_x
    _atom_site_fract_y
    _atom_site_fract_z
    _atom_site_occupancy
    O1       O        0.41760    0.95430    0.70400    1.000
    O2       O        0.08240    0.54570    0.70400    1.000
    O3       O        0.58240    0.45430    0.29600    1.000
    O4       O        0.91760    0.04570    0.29600    1.000
    O5       O        0.58240    0.04570    0.29600    1.000
    O6       O        0.91760    0.45430    0.29600    1.000
    O7       O        0.41760    0.54570    0.70400    1.000
    O8       O        0.08240    0.95430    0.70400    1.000
    Ni1      Ni       0.50000    0.00000    0.00000    1.000
    Ni2      Ni       0.00000    0.50000    0.00000    1.000
    Ni3      Ni       0.50000    0.50000    0.00000    1.000
    Ni4      Ni       0.00000    0.00000    0.00000    1.000
    Ni5      Ni       0.59170    0.75000    0.36900    1.000
    P1       P        0.41060    0.75000    0.51300    1.000
    O9       O        0.56870    0.75000    0.82300    1.000
    O10      O        0.47290    0.75000    0.26200    1.000
    C1       C        0.32270    0.75000    0.34200    1.000
    Ni6      Ni       0.90830    0.75000    0.36900    1.000
    P2       P        0.08940    0.75000    0.51300    1.000
    O11      O        0.93130    0.75000    0.82300    1.000
    O12      O        0.02710    0.75000    0.26200    1.000
    C2       C        0.17730    0.75000    0.34200    1.000
    Ni7      Ni       0.40830    0.25000    0.63100    1.000
    P3       P        0.58940    0.25000    0.48700    1.000
    O13      O        0.43130    0.25000    0.17700    1.000
    O14      O        0.52710    0.25000    0.73800    1.000
    C3       C        0.67730    0.25000    0.65800    1.000
    Ni8      Ni       0.09170    0.25000    0.63100    1.000
    P4       P        0.91060    0.25000    0.48700    1.000
    O15      O        0.06870    0.25000    0.17700    1.000
    O16      O        0.97290    0.25000    0.73800    1.000
    C4       C        0.82270    0.25000    0.65800    1.000
    C5       C        0.25000    0.75000    0.53700    1.000
    C6       C        0.75000    0.25000    0.46300    1.000
