data_functionalizedCrystal
_audit_creation_method	'EQeq! by Chris Wilmer'
_symmetry_space_group_name_H-M	'P1'
_symmetry_Int_Tables_number	1
_symmetry_cell_setting	triclinic
loop_
_symmetry_equiv_pos_as_xyz
  x,y,z
_cell_length_a	10.142
_cell_length_b	13.222
_cell_length_c	14.872
_cell_angle_alpha	109.018
_cell_angle_beta	101.882
_cell_angle_gamma	98.999
loop_
_atom_site_label
_atom_site_type_symbol
_atom_site_fract_x
_atom_site_fract_y
_atom_site_fract_z
_atom_site_charge
Mof_Co	Co	0.53003	0.5147	0.14843	1.176
Mof_C 	C 	0.7433	0.7368	0.261	0.147
Mof_H 	H 	0.8058	0.6932	0.2478	-0.014
Mof_C 	C 	0.7963	0.8466	0.3166	-0.245
Mof_H 	H 	0.8918	0.8758	0.3402	0.142
Mof_C 	C 	0.7058	0.9137	0.3371	0.235
Mof_C 	C 	0.5649	0.8633	0.3	-0.246
Mof_H 	H 	0.4997	0.9047	0.3117	0.134
Mof_C 	C 	0.5232	0.754	0.2468	0.154
Mof_H 	H 	0.4282	0.7224	0.224	-0.019
Mof_C 	C 	0.8756	0.0943	0.4249	0.267
Mof_C 	C 	0.9782	0.2962	0.5028	0.171
Mof_H 	H 	0.0312	0.2876	0.4579	-0.01
Mof_C 	C 	0.9912	0.3995	0.5691	-0.319
Mof_H 	H 	0.0496	0.4605	0.5681	0.148
Mof_C 	C 	0.9159	0.4113	0.6375	0.333
Mof_C 	C 	0.8301	0.3211	0.639	-0.313
Mof_H 	H 	0.7812	0.3294	0.6864	0.16
Mof_C 	C 	0.8166	0.2191	0.5708	0.175
Mof_H 	H 	0.7572	0.1587	0.5721	-0.016
Mof_C 	C 	0.8884	0.203	0.5001	-0.18
Mof_C 	C 	0.0012	0.6099	0.7314	0.341
Mof_C 	C 	0.1422	0.6217	0.7457	-0.33
Mof_H 	H 	0.1797	0.5604	0.7308	0.169
Mof_C 	C 	0.2254	0.7259	0.7822	0.18
Mof_H 	H 	0.32	0.7347	0.7884	-0.01
Mof_C 	C 	0.1735	0.8185	0.8101	-0.174
Mof_C 	C 	0.0296	0.8033	0.7937	0.169
Mof_H 	H 	0.9914	0.8641	0.8094	-0.011
Mof_C 	C 	0.9458	0.7002	0.7549	-0.31
Mof_H 	H 	0.8503	0.6906	0.7441	0.159
Mof_C 	C 	0.2727	0.929	0.8532	0.265
Mof_C 	C 	0.3068	0.1179	0.972	0.245
Mof_C 	C 	0.4341	0.1634	0.9636	-0.261
Mof_H 	H 	0.4783	0.1201	0.9227	0.152
Mof_C 	C 	0.493	0.2715	0.0156	0.159
Mof_H 	H 	0.579	0.2995	0.0091	-0.022
Mof_C 	C 	0.3173	0.2971	0.0828	0.149
Mof_H 	H 	0.2743	0.3427	0.1229	-0.018
Mof_C 	C 	0.2511	0.1876	0.0347	-0.252
Mof_H 	H 	0.1674	0.1606	0.0449	0.133
Mof_C 	C 	0.5154	0.5067	0.3119	0.297
Mof_C 	C 	0.5076	0.5026	0.4087	-0.056
Mof_C 	C 	0.6127	0.48	0.4668	-0.015
Mof_H 	H 	0.6903	0.4666	0.4453	0.051
Mof_C 	C 	0.3956	0.5232	0.4423	-0.03
Mof_H 	H 	0.3237	0.5395	0.4037	0.071
Mof_C 	C 	0.9755	0.5177	0.0911	-0.016
Mof_H 	H 	0.9589	0.5299	0.1525	0.06
Mof_C 	C 	0.1077	0.5205	0.0819	-0.006
Mof_H 	H 	0.1802	0.5341	0.1373	0.054
Mof_C 	C 	0.1342	0.5036	0.9919	-0.092
Mof_C 	C 	0.2798	0.512	0.9825	0.397
Mof_N 	N 	0.6078	0.6879	0.2244	-0.249
Mof_N 	N 	0.7445	0.0253	0.3964	-0.173
Mof_N 	N 	0.2327	0.0096	0.9215	-0.179
Mof_N 	N 	0.4392	0.3417	0.0754	-0.259
Mof_O 	O 	0.9691	0.068	0.3908	-0.242
Mof_O 	O 	0.9086	0.5104	0.7033	-0.334
Mof_O 	O 	0.3815	0.9439	0.8331	-0.243
Mof_O 	O 	0.6215	0.4938	0.2831	-0.379
Mof_O 	O 	0.4131	0.5218	0.2577	-0.361
Mof_O 	O 	0.3752	0.5444	0.0605	-0.466
Mof_O 	O 	0.2964	0.4883	0.8972	-0.446
Mof_Co	Co	0.46997	0.4853	0.85157	1.177
Mof_C 	C 	0.2567	0.2632	0.739	0.148
Mof_H 	H 	0.1942	0.3068	0.7522	-0.013
Mof_C 	C 	0.2037	0.1534	0.6834	-0.244
Mof_H 	H 	0.1082	0.1242	0.6598	0.143
Mof_C 	C 	0.2942	0.0863	0.6629	0.236
Mof_C 	C 	0.4351	0.1367	0.7	-0.246
Mof_H 	H 	0.5003	0.0953	0.6883	0.134
Mof_C 	C 	0.4768	0.246	0.7532	0.154
Mof_H 	H 	0.5718	0.2776	0.776	-0.019
Mof_C 	C 	0.1244	0.9057	0.5751	0.267
Mof_C 	C 	0.0218	0.7038	0.4972	0.171
Mof_H 	H 	0.9688	0.7124	0.5421	-0.01
Mof_C 	C 	0.0088	0.6005	0.4309	-0.319
Mof_H 	H 	0.9504	0.5395	0.4319	0.148
Mof_C 	C 	0.0841	0.5887	0.3625	0.333
Mof_C 	C 	0.1699	0.6789	0.361	-0.313
Mof_H 	H 	0.2188	0.6706	0.3136	0.16
Mof_C 	C 	0.1834	0.7809	0.4292	0.175
Mof_H 	H 	0.2428	0.8413	0.4279	-0.016
Mof_C 	C 	0.1116	0.797	0.4999	-0.18
Mof_C 	C 	0.9988	0.3901	0.2686	0.341
Mof_C 	C 	0.8578	0.3783	0.2543	-0.33
Mof_H 	H 	0.8203	0.4396	0.2692	0.169
Mof_C 	C 	0.7746	0.2741	0.2178	0.18
Mof_H 	H 	0.68	0.2653	0.2116	-0.01
Mof_C 	C 	0.8265	0.1815	0.1899	-0.174
Mof_C 	C 	0.9704	0.1967	0.2063	0.169
Mof_H 	H 	0.0086	0.1359	0.1906	-0.011
Mof_C 	C 	0.0542	0.2998	0.2451	-0.31
Mof_H 	H 	0.1497	0.3094	0.2559	0.159
Mof_C 	C 	0.7273	0.071	0.1468	0.265
Mof_C 	C 	0.6932	0.8821	0.028	0.245
Mof_C 	C 	0.5659	0.8366	0.0364	-0.261
Mof_H 	H 	0.5217	0.8799	0.0773	0.152
Mof_C 	C 	0.507	0.7285	0.9844	0.159
Mof_H 	H 	0.421	0.7005	0.9909	-0.022
Mof_C 	C 	0.6827	0.7029	0.9172	0.149
Mof_H 	H 	0.7257	0.6573	0.8771	-0.018
Mof_C 	C 	0.7489	0.8124	0.9653	-0.252
Mof_H 	H 	0.8326	0.8394	0.9551	0.133
Mof_C 	C 	0.4846	0.4933	0.6881	0.297
Mof_C 	C 	0.4924	0.4974	0.5913	-0.056
Mof_C 	C 	0.3873	0.52	0.5332	-0.015
Mof_H 	H 	0.3097	0.5334	0.5547	0.051
Mof_C 	C 	0.6044	0.4768	0.5577	-0.03
Mof_H 	H 	0.6763	0.4605	0.5963	0.071
Mof_C 	C 	0.0245	0.4823	0.9089	-0.016
Mof_H 	H 	0.0411	0.4701	0.8475	0.06
Mof_C 	C 	0.8923	0.4795	0.9181	-0.006
Mof_H 	H 	0.8198	0.4659	0.8627	0.054
Mof_C 	C 	0.8658	0.4964	0.0081	-0.092
Mof_C 	C 	0.7202	0.488	0.0175	0.397
Mof_N 	N 	0.3922	0.3121	0.7756	-0.249
Mof_N 	N 	0.2555	0.9747	0.6036	-0.173
Mof_N 	N 	0.7673	0.9904	0.0785	-0.179
Mof_N 	N 	0.5608	0.6583	0.9246	-0.259
Mof_O 	O 	0.0309	0.932	0.6092	-0.242
Mof_O 	O 	0.0914	0.4896	0.2967	-0.334
Mof_O 	O 	0.6185	0.0561	0.1669	-0.243
Mof_O 	O 	0.3785	0.5062	0.7169	-0.379
Mof_O 	O 	0.5869	0.4782	0.7423	-0.361
Mof_O 	O 	0.6248	0.4556	0.9395	-0.466
Mof_O 	O 	0.7036	0.5117	0.1028	-0.446
_end
