# CIF file generated by openbabel 3.1.0, see https://openbabel.org
data_I
_chemical_name_common 'MUZHUL_charged'
_cell_length_a 7.3562
_cell_length_b 7.3562
_cell_length_c 16.3
_cell_angle_alpha 90.7568
_cell_angle_beta 90.7568
_cell_angle_gamma 95.9011
_space_group_name_H-M_alt 'P 1'
_space_group_name_Hall 'P 1'
loop_
    _symmetry_equiv_pos_as_xyz
    x,y,z
loop_
    _atom_site_label
    _atom_site_type_symbol
    _atom_site_fract_x
    _atom_site_fract_y
    _atom_site_fract_z
    _atom_site_occupancy
    Zn1      Zn       0.97958    0.02042    0.75000    1.000
    Zn2      Zn       0.02042    0.97958    0.25000    1.000
    H1       H        0.81440    0.03780    0.01140    1.000
    H2       H        0.96220    0.18560    0.48860    1.000
    H3       H        0.18560    0.96220    0.98860    1.000
    H4       H        0.03780    0.81440    0.51140    1.000
    C1       C        0.60510    0.03570    0.93010    1.000
    C2       C        0.41630    0.01370    0.92270    1.000
    C3       C        0.68760    0.02240    0.00680    1.000
    C4       C        0.73270    0.06550    0.85850    1.000
    C5       C        0.31860    0.03340    0.84150    1.000
    C6       C        0.96430    0.39490    0.56990    1.000
    C7       C        0.98630    0.58370    0.57730    1.000
    C8       C        0.97760    0.31240    0.49320    1.000
    C9       C        0.93450    0.26730    0.64150    1.000
    C10      C        0.96660    0.68140    0.65850    1.000
    C11      C        0.39490    0.96430    0.06990    1.000
    C12      C        0.58370    0.98630    0.07730    1.000
    C13      C        0.31240    0.97760    0.99320    1.000
    C14      C        0.26730    0.93450    0.14150    1.000
    C15      C        0.68140    0.96660    0.15850    1.000
    C16      C        0.03570    0.60510    0.43010    1.000
    C17      C        0.01370    0.41630    0.42270    1.000
    C18      C        0.02240    0.68760    0.50680    1.000
    C19      C        0.06550    0.73270    0.35850    1.000
    C20      C        0.03340    0.31860    0.34150    1.000
    O1       O        0.15410    0.97270    0.83810    1.000
    O2       O        0.75790    0.93010    0.81450    1.000
    O3       O        0.81710    0.21570    0.84980    1.000
    O4       O        0.40490    0.10930    0.78580    1.000
    O5       O        0.02730    0.84590    0.66190    1.000
    O6       O        0.06990    0.24210    0.68550    1.000
    O7       O        0.78430    0.18290    0.65020    1.000
    O8       O        0.89070    0.59510    0.71420    1.000
    O9       O        0.84590    0.02730    0.16190    1.000
    O10      O        0.24210    0.06990    0.18550    1.000
    O11      O        0.18290    0.78430    0.15020    1.000
    O12      O        0.59510    0.89070    0.21420    1.000
    O13      O        0.97270    0.15410    0.33810    1.000
    O14      O        0.93010    0.75790    0.31450    1.000
    O15      O        0.21570    0.81710    0.34980    1.000
    O16      O        0.10930    0.40490    0.28580    1.000
