data_functionalizedCrystal
_audit_creation_method	'EQeq! by Chris Wilmer'
_symmetry_space_group_name_H-M	'P1'
_symmetry_Int_Tables_number	1
_symmetry_cell_setting	triclinic
loop_
_symmetry_equiv_pos_as_xyz
  x,y,z
_cell_length_a	16.6304
_cell_length_b	12.4236
_cell_length_c	21.1103
_cell_angle_alpha	90
_cell_angle_beta	92.099
_cell_angle_gamma	90
loop_
_atom_site_label
_atom_site_type_symbol
_atom_site_fract_x
_atom_site_fract_y
_atom_site_fract_z
_atom_site_charge
Mof_Cu	Cu	0.14678	0.26485	0.45167	0.919
Mof_Cu	Cu	0.63868	0.78172	0.43907	0.916
Mof_S 	S 	0.91056	0.03513	0.44861	0.074
Mof_S 	S 	0.41821	0.5269	0.44184	0.071
Mof_O 	O 	0.55243	0.6751	0.42346	-0.371
Mof_O 	O 	0.05481	0.16476	0.43887	-0.368
Mof_O 	O 	0.20159	0.402	0.43667	-0.393
Mof_O 	O 	0.69182	0.9214	0.42529	-0.39
Mof_O 	O 	0.79984	0.8594	0.48009	-0.38
Mof_O 	O 	0.31558	0.3485	0.48681	-0.364
Mof_O 	O 	0.00566	0.2864	0.36966	-0.303
Mof_O 	O 	0.49143	0.7819	0.35054	-0.294
Mof_N 	N 	0.93625	0.4618	0.19508	-0.176
Mof_H 	H 	0.9594	0.40452	0.18187	0.153
Mof_N 	N 	0.07985	0.6597	0.01334	-0.21
Mof_N 	N 	0.7041	0.715	0.37115	-0.212
Mof_N 	N 	0.20457	0.1957	0.38026	-0.211
Mof_N 	N 	0.59033	0.1717	0.02649	-0.209
Mof_N 	N 	0.90329	0.6319	0.20244	-0.135
Mof_N 	N 	0.42839	0.9589	0.19092	-0.176
Mof_H 	H 	0.44996	0.90276	0.1748	0.156
Mof_N 	N 	0.88347	0.4652	0.24285	-0.08
Mof_N 	N 	0.374	0.9573	0.23703	-0.08
Mof_N 	N 	0.40105	0.1286	0.20748	-0.134
Mof_C 	C 	0.7659	0.9256	0.44461	0.352
Mof_C 	C 	0.35946	0.0618	0.24511	0.089
Mof_C 	C 	0.30243	0.1039	0.29057	0.059
Mof_C 	C 	0.86561	0.5699	0.24491	0.09
Mof_C 	C 	0.99587	0.5915	0.11807	0.046
Mof_C 	C 	0.94677	0.5613	0.1716	0.118
Mof_C 	C 	0.2769	0.4095	0.45141	0.356
Mof_C 	C 	0.44385	0.0608	0.17395	0.117
Mof_C 	C 	0.8085	0.617	0.28866	0.06
Mof_C 	C 	0.4982	0.0953	0.12442	0.051
Mof_C 	C 	0.2703	0.0411	0.33802	-0.124
Mof_H 	H 	0.28106	0.96768	0.34034	0.083
Mof_C 	C 	0.9233	0.1424	0.39865	-0.08
Mof_C 	C 	0.2217	0.0901	0.38196	0.074
Mof_H 	H 	0.20024	0.04816	0.41368	0.014
Mof_C 	C 	0.0002	0.2032	0.40166	0.32
Mof_C 	C 	0.7159	0.6085	0.37207	0.075
Mof_H 	H 	0.6883	0.56728	0.40094	0.014
Mof_C 	C 	0.4197	0.6356	0.3916	-0.078
Mof_C 	C 	0.4935	0.7035	0.38703	0.318
Mof_C 	C 	0.7674	0.5569	0.33201	-0.127
Mof_H 	H 	0.7743	0.48271	0.33423	0.084
Mof_C 	C 	0.0443	0.5206	0.08571	-0.123
Mof_H 	H 	0.04931	0.44928	0.0986	0.086
Mof_C 	C 	0.7938	0.7278	0.28546	-0.128
Mof_H 	H 	0.81884	0.77028	0.25572	0.086
Mof_C 	C 	0.31902	0.5013	0.42176	-0.095
Mof_C 	C 	0.2804	0.2118	0.28709	-0.126
Mof_H 	H 	0.29812	0.25497	0.2544	0.085
Mof_C 	C 	0.085	0.5577	0.03402	0.072
Mof_H 	H 	0.1173	0.50981	0.01265	0.014
Mof_C 	C 	0.81378	0.0163	0.4197	-0.097
Mof_C 	C 	0.7417	0.7728	0.32706	0.077
Mof_H 	H 	0.73199	0.84644	0.32466	0.014
Mof_C 	C 	0.2322	0.2541	0.33252	0.079
Mof_H 	H 	0.21827	0.32646	0.32988	0.015
Mof_C 	C 	0.8557	0.1616	0.3613	-0.019
Mof_H 	H 	0.85173	0.21621	0.3312	0.053
Mof_C 	C 	0.5835	0.0665	0.03736	0.075
Mof_H 	H 	0.61014	0.0188	0.01145	0.014
Mof_C 	C 	0.3467	0.6515	0.361	-0.019
Mof_H 	H 	0.33609	0.70703	0.33234	0.052
Mof_C 	C 	0.5382	0.0249	0.08568	-0.128
Mof_H 	H 	0.53487	0.95097	0.09191	0.092
Mof_C 	C 	0.7925	0.089	0.37367	-0.006
Mof_H 	H 	0.74233	0.09073	0.35281	0.051
Mof_C 	C 	0.9919	0.698	0.09758	-0.114
Mof_H 	H 	0.96107	0.74797	0.11878	0.083
Mof_C 	C 	0.0341	0.7286	0.04562	0.068
Mof_H 	H 	0.03079	0.79988	0.03224	0.021
Mof_C 	C 	0.2893	0.5739	0.37802	-0.007
Mof_H 	H 	0.2368	0.57227	0.36128	0.052
Mof_C 	C 	0.5545	0.2399	0.0663	0.073
Mof_H 	H 	0.56115	0.31356	0.0605	0.018
Mof_C 	C 	0.5086	0.2048	0.11512	-0.12
Mof_H 	H 	0.48461	0.25419	0.14165	0.085
Mof_Cu	Cu	0.35322	0.76485	0.04833	0.92
Mof_Cu	Cu	0.86132	0.28172	0.06093	0.917
Mof_S 	S 	0.58944	0.53513	0.05139	0.075
Mof_S 	S 	0.08179	0.0269	0.05816	0.072
Mof_O 	O 	0.94757	0.1751	0.07654	-0.371
Mof_O 	O 	0.44519	0.66476	0.06113	-0.368
Mof_O 	O 	0.29841	0.902	0.06333	-0.393
Mof_O 	O 	0.80818	0.4214	0.07471	-0.39
Mof_O 	O 	0.70016	0.3594	0.01991	-0.38
Mof_O 	O 	0.18442	0.8485	0.01319	-0.364
Mof_O 	O 	0.49434	0.7864	0.13034	-0.303
Mof_O 	O 	0.00857	0.2819	0.14946	-0.294
Mof_N 	N 	0.56375	0.9618	0.30492	-0.176
Mof_H 	H 	0.5406	0.90452	0.31813	0.153
Mof_N 	N 	0.42015	0.1597	0.48666	-0.21
Mof_N 	N 	0.7959	0.215	0.12885	-0.212
Mof_N 	N 	0.29543	0.6957	0.11974	-0.211
Mof_N 	N 	0.90967	0.6717	0.47351	-0.209
Mof_N 	N 	0.59671	0.1319	0.29756	-0.135
Mof_N 	N 	0.07161	0.4589	0.30908	-0.176
Mof_H 	H 	0.05004	0.40276	0.3252	0.156
Mof_N 	N 	0.61653	0.9652	0.25715	-0.081
Mof_N 	N 	0.126	0.4573	0.26297	-0.08
Mof_N 	N 	0.09895	0.6286	0.29252	-0.134
Mof_C 	C 	0.7341	0.4256	0.05539	0.352
Mof_C 	C 	0.14054	0.5618	0.25489	0.089
Mof_C 	C 	0.19757	0.6039	0.20943	0.06
Mof_C 	C 	0.63439	0.0699	0.25509	0.09
Mof_C 	C 	0.50413	0.0915	0.38193	0.046
Mof_C 	C 	0.55323	0.0613	0.3284	0.118
Mof_C 	C 	0.2231	0.9095	0.04859	0.355
Mof_C 	C 	0.05615	0.5608	0.32605	0.116
Mof_C 	C 	0.6915	0.117	0.21134	0.06
Mof_C 	C 	0.0018	0.5953	0.37558	0.052
Mof_C 	C 	0.2297	0.5411	0.16198	-0.124
Mof_H 	H 	0.21894	0.46768	0.15966	0.083
Mof_C 	C 	0.5767	0.6424	0.10135	-0.08
Mof_C 	C 	0.2783	0.5901	0.11804	0.074
Mof_H 	H 	0.29976	0.54816	0.08632	0.014
Mof_C 	C 	0.4998	0.7032	0.09834	0.321
Mof_C 	C 	0.7841	0.1085	0.12793	0.075
Mof_H 	H 	0.8117	0.06728	0.09906	0.014
Mof_C 	C 	0.0803	0.1356	0.1084	-0.078
Mof_C 	C 	0.0065	0.2035	0.11297	0.318
Mof_C 	C 	0.7326	0.0569	0.16799	-0.126
Mof_H 	H 	0.7257	0.98271	0.16577	0.084
Mof_C 	C 	0.4557	0.0206	0.41429	-0.124
Mof_H 	H 	0.45069	0.94928	0.4014	0.086
Mof_C 	C 	0.7062	0.2278	0.21454	-0.128
Mof_H 	H 	0.68116	0.27028	0.24428	0.086
Mof_C 	C 	0.18098	0.0013	0.07824	-0.095
Mof_C 	C 	0.2196	0.7118	0.21291	-0.126
Mof_H 	H 	0.20188	0.75497	0.2456	0.085
Mof_C 	C 	0.415	0.0577	0.46598	0.072
Mof_H 	H 	0.3827	0.00981	0.48735	0.014
Mof_C 	C 	0.68622	0.5163	0.0803	-0.098
Mof_C 	C 	0.7583	0.2728	0.17294	0.077
Mof_H 	H 	0.76801	0.34644	0.17534	0.014
Mof_C 	C 	0.2678	0.7541	0.16748	0.079
Mof_H 	H 	0.28173	0.82646	0.17012	0.015
Mof_C 	C 	0.6443	0.6616	0.1387	-0.019
Mof_H 	H 	0.64827	0.71621	0.1688	0.053
Mof_C 	C 	0.9165	0.5665	0.46264	0.076
Mof_H 	H 	0.88986	0.5188	0.48855	0.014
Mof_C 	C 	0.1533	0.1515	0.139	-0.019
Mof_H 	H 	0.16391	0.20703	0.16766	0.052
Mof_C 	C 	0.9618	0.5249	0.41432	-0.128
Mof_H 	H 	0.96513	0.45097	0.40809	0.092
Mof_C 	C 	0.7075	0.589	0.12633	-0.006
Mof_H 	H 	0.75767	0.59073	0.14719	0.051
Mof_C 	C 	0.5081	0.198	0.40242	-0.114
Mof_H 	H 	0.53893	0.24797	0.38122	0.083
Mof_C 	C 	0.4659	0.2286	0.45438	0.068
Mof_H 	H 	0.46921	0.29988	0.46776	0.021
Mof_C 	C 	0.2107	0.0739	0.12198	-0.007
Mof_H 	H 	0.2632	0.07227	0.13872	0.052
Mof_C 	C 	0.9455	0.7399	0.4337	0.073
Mof_H 	H 	0.93885	0.81356	0.4395	0.018
Mof_C 	C 	0.9914	0.7048	0.38488	-0.12
Mof_H 	H 	0.01539	0.75419	0.35835	0.085
Mof_Cu	Cu	0.85322	0.73515	0.54833	0.92
Mof_Cu	Cu	0.36132	0.21828	0.56093	0.917
Mof_S 	S 	0.08944	0.96487	0.55139	0.075
Mof_S 	S 	0.58179	0.4731	0.55816	0.072
Mof_O 	O 	0.44757	0.3249	0.57654	-0.371
Mof_O 	O 	0.94519	0.83524	0.56113	-0.368
Mof_O 	O 	0.79841	0.598	0.56333	-0.393
Mof_O 	O 	0.30818	0.0786	0.57471	-0.39
Mof_O 	O 	0.20016	0.1406	0.51991	-0.38
Mof_O 	O 	0.68442	0.6515	0.51319	-0.364
Mof_O 	O 	0.99434	0.7136	0.63034	-0.303
Mof_O 	O 	0.50857	0.2181	0.64946	-0.294
Mof_N 	N 	0.06375	0.5382	0.80492	-0.176
Mof_H 	H 	0.0406	0.59548	0.81813	0.153
Mof_N 	N 	0.92015	0.3403	0.98666	-0.21
Mof_N 	N 	0.2959	0.285	0.62885	-0.212
Mof_N 	N 	0.79543	0.8043	0.61974	-0.211
Mof_N 	N 	0.40967	0.8283	0.97351	-0.209
Mof_N 	N 	0.09671	0.3681	0.79756	-0.135
Mof_N 	N 	0.57161	0.0411	0.80908	-0.176
Mof_H 	H 	0.55004	0.09724	0.8252	0.156
Mof_N 	N 	0.11653	0.5348	0.75715	-0.08
Mof_N 	N 	0.626	0.0427	0.76297	-0.08
Mof_N 	N 	0.59895	0.8714	0.79252	-0.134
Mof_C 	C 	0.2341	0.0744	0.55539	0.352
Mof_C 	C 	0.64054	0.9382	0.75489	0.089
Mof_C 	C 	0.69757	0.8961	0.70943	0.059
Mof_C 	C 	0.13439	0.4301	0.75509	0.09
Mof_C 	C 	0.00413	0.4085	0.88193	0.046
Mof_C 	C 	0.05323	0.4387	0.8284	0.118
Mof_C 	C 	0.7231	0.5905	0.54859	0.356
Mof_C 	C 	0.55615	0.9392	0.82605	0.117
Mof_C 	C 	0.1915	0.383	0.71134	0.06
Mof_C 	C 	0.5018	0.9047	0.87558	0.051
Mof_C 	C 	0.7297	0.9589	0.66198	-0.124
Mof_H 	H 	0.71894	0.03232	0.65966	0.083
Mof_C 	C 	0.0767	0.8576	0.60135	-0.08
Mof_C 	C 	0.7783	0.9099	0.61804	0.074
Mof_H 	H 	0.79976	0.95184	0.58632	0.014
Mof_C 	C 	0.9998	0.7968	0.59834	0.32
Mof_C 	C 	0.2841	0.3915	0.62793	0.075
Mof_H 	H 	0.3117	0.43272	0.59906	0.014
Mof_C 	C 	0.5803	0.3644	0.6084	-0.078
Mof_C 	C 	0.5065	0.2965	0.61297	0.318
Mof_C 	C 	0.2326	0.4431	0.66799	-0.127
Mof_H 	H 	0.2257	0.51729	0.66577	0.084
Mof_C 	C 	0.9557	0.4794	0.91429	-0.123
Mof_H 	H 	0.95069	0.55072	0.9014	0.086
Mof_C 	C 	0.2062	0.2722	0.71454	-0.128
Mof_H 	H 	0.18116	0.22972	0.74428	0.086
Mof_C 	C 	0.68098	0.4987	0.57824	-0.095
Mof_C 	C 	0.7196	0.7882	0.71291	-0.126
Mof_H 	H 	0.70188	0.74503	0.7456	0.085
Mof_C 	C 	0.915	0.4423	0.96598	0.072
Mof_H 	H 	0.8827	0.49019	0.98735	0.014
Mof_C 	C 	0.18622	0.9837	0.5803	-0.097
Mof_C 	C 	0.2583	0.2272	0.67294	0.077
Mof_H 	H 	0.26801	0.15356	0.67534	0.014
Mof_C 	C 	0.7678	0.7459	0.66748	0.079
Mof_H 	H 	0.78173	0.67354	0.67012	0.015
Mof_C 	C 	0.1443	0.8384	0.6387	-0.019
Mof_H 	H 	0.14827	0.78379	0.6688	0.053
Mof_C 	C 	0.4165	0.9335	0.96264	0.075
Mof_H 	H 	0.38986	0.9812	0.98855	0.014
Mof_C 	C 	0.6533	0.3485	0.639	-0.019
Mof_H 	H 	0.66391	0.29297	0.66766	0.052
Mof_C 	C 	0.4618	0.9751	0.91432	-0.128
Mof_H 	H 	0.46513	0.04903	0.90809	0.092
Mof_C 	C 	0.2075	0.911	0.62633	-0.006
Mof_H 	H 	0.25767	0.90927	0.64719	0.051
Mof_C 	C 	0.0081	0.302	0.90242	-0.114
Mof_H 	H 	0.03893	0.25203	0.88122	0.083
Mof_C 	C 	0.9659	0.2714	0.95438	0.068
Mof_H 	H 	0.96921	0.20012	0.96776	0.021
Mof_C 	C 	0.7107	0.4261	0.62198	-0.007
Mof_H 	H 	0.7632	0.42773	0.63872	0.052
Mof_C 	C 	0.4455	0.7601	0.9337	0.073
Mof_H 	H 	0.43885	0.68644	0.9395	0.018
Mof_C 	C 	0.4914	0.7952	0.88488	-0.12
Mof_H 	H 	0.51539	0.74581	0.85835	0.085
Mof_Cu	Cu	0.64678	0.23515	0.95167	0.92
Mof_Cu	Cu	0.13868	0.71828	0.93907	0.917
Mof_S 	S 	0.41056	0.46487	0.94861	0.075
Mof_S 	S 	0.91821	0.9731	0.94184	0.072
Mof_O 	O 	0.05243	0.8249	0.92346	-0.371
Mof_O 	O 	0.55481	0.33524	0.93887	-0.368
Mof_O 	O 	0.70159	0.098	0.93667	-0.393
Mof_O 	O 	0.19182	0.5786	0.92529	-0.39
Mof_O 	O 	0.29984	0.6406	0.98009	-0.38
Mof_O 	O 	0.81558	0.1515	0.98681	-0.364
Mof_O 	O 	0.50566	0.2136	0.86966	-0.303
Mof_O 	O 	0.99143	0.7181	0.85054	-0.294
Mof_N 	N 	0.43625	0.0382	0.69508	-0.176
Mof_H 	H 	0.4594	0.09548	0.68187	0.153
Mof_N 	N 	0.57985	0.8403	0.51334	-0.21
Mof_N 	N 	0.2041	0.785	0.87115	-0.212
Mof_N 	N 	0.70457	0.3043	0.88026	-0.211
Mof_N 	N 	0.09033	0.3283	0.52649	-0.209
Mof_N 	N 	0.40329	0.8681	0.70244	-0.135
Mof_N 	N 	0.92839	0.5411	0.69092	-0.176
Mof_H 	H 	0.94996	0.59724	0.6748	0.156
Mof_N 	N 	0.38347	0.0348	0.74285	-0.081
Mof_N 	N 	0.874	0.5427	0.73703	-0.08
Mof_N 	N 	0.90105	0.3714	0.70748	-0.134
Mof_C 	C 	0.2659	0.5744	0.94461	0.352
Mof_C 	C 	0.85946	0.4382	0.74511	0.089
Mof_C 	C 	0.80243	0.3961	0.79057	0.06
Mof_C 	C 	0.36561	0.9301	0.74491	0.09
Mof_C 	C 	0.49587	0.9085	0.61807	0.046
Mof_C 	C 	0.44677	0.9387	0.6716	0.118
Mof_C 	C 	0.7769	0.0905	0.95141	0.355
Mof_C 	C 	0.94385	0.4392	0.67395	0.116
Mof_C 	C 	0.3085	0.883	0.78866	0.06
Mof_C 	C 	0.9982	0.4047	0.62442	0.052
Mof_C 	C 	0.7703	0.4589	0.83802	-0.124
Mof_H 	H 	0.78106	0.53232	0.84034	0.083
Mof_C 	C 	0.4233	0.3576	0.89865	-0.08
Mof_C 	C 	0.7217	0.4099	0.88196	0.074
Mof_H 	H 	0.70024	0.45184	0.91368	0.014
Mof_C 	C 	0.5002	0.2968	0.90166	0.321
Mof_C 	C 	0.2159	0.8915	0.87207	0.075
Mof_H 	H 	0.1883	0.93272	0.90094	0.014
Mof_C 	C 	0.9197	0.8644	0.8916	-0.078
Mof_C 	C 	0.9935	0.7965	0.88703	0.318
Mof_C 	C 	0.2674	0.9431	0.83201	-0.126
Mof_H 	H 	0.2743	0.01729	0.83423	0.084
Mof_C 	C 	0.5443	0.9794	0.58571	-0.124
Mof_H 	H 	0.54931	0.05072	0.5986	0.086
Mof_C 	C 	0.2938	0.7722	0.78546	-0.128
Mof_H 	H 	0.31884	0.72972	0.75572	0.086
Mof_C 	C 	0.81902	0.9987	0.92176	-0.095
Mof_C 	C 	0.7804	0.2882	0.78709	-0.126
Mof_H 	H 	0.79812	0.24503	0.7544	0.085
Mof_C 	C 	0.585	0.9423	0.53402	0.072
Mof_H 	H 	0.6173	0.99019	0.51265	0.014
Mof_C 	C 	0.31378	0.4837	0.9197	-0.098
Mof_C 	C 	0.2417	0.7272	0.82706	0.077
Mof_H 	H 	0.23199	0.65356	0.82466	0.014
Mof_C 	C 	0.7322	0.2459	0.83252	0.079
Mof_H 	H 	0.71827	0.17354	0.82988	0.015
Mof_C 	C 	0.3557	0.3384	0.8613	-0.019
Mof_H 	H 	0.35173	0.28379	0.8312	0.053
Mof_C 	C 	0.0835	0.4335	0.53736	0.076
Mof_H 	H 	0.11014	0.4812	0.51145	0.014
Mof_C 	C 	0.8467	0.8485	0.861	-0.019
Mof_H 	H 	0.83609	0.79297	0.83234	0.052
Mof_C 	C 	0.0382	0.4751	0.58568	-0.128
Mof_H 	H 	0.03487	0.54903	0.59191	0.092
Mof_C 	C 	0.2925	0.411	0.87367	-0.006
Mof_H 	H 	0.24233	0.40927	0.85281	0.051
Mof_C 	C 	0.4919	0.802	0.59758	-0.114
Mof_H 	H 	0.46107	0.75203	0.61878	0.083
Mof_C 	C 	0.5341	0.7714	0.54562	0.068
Mof_H 	H 	0.53079	0.70012	0.53224	0.021
Mof_C 	C 	0.7893	0.9261	0.87802	-0.007
Mof_H 	H 	0.7368	0.92773	0.86128	0.052
Mof_C 	C 	0.0545	0.2601	0.5663	0.073
Mof_H 	H 	0.06115	0.18644	0.5605	0.018
Mof_C 	C 	0.0086	0.2952	0.61512	-0.12
Mof_H 	H 	0.98461	0.24581	0.64165	0.085
_end
