data_functionalizedCrystal
_audit_creation_method	'EQeq! by Chris Wilmer'
_symmetry_space_group_name_H-M	'P1'
_symmetry_Int_Tables_number	1
_symmetry_cell_setting	triclinic
loop_
_symmetry_equiv_pos_as_xyz
  x,y,z
_cell_length_a	10.1472
_cell_length_b	18.9515
_cell_length_c	21.1076
_cell_angle_alpha	115.381
_cell_angle_beta	101.681
_cell_angle_gamma	94.8436
loop_
_atom_site_label
_atom_site_type_symbol
_atom_site_fract_x
_atom_site_fract_y
_atom_site_fract_z
_atom_site_charge
Mof_La	La	0.12399	0.10866	0.9384	2.456
Mof_La	La	0.05669	0.06315	0.61446	2.399
Mof_La	La	0.31441	0.82974	0.9384	2.489
Mof_La	La	0.05777	0.55131	0.61446	2.421
Mof_La	La	0.87601	0.89134	0.0616	2.455
Mof_La	La	0.94331	0.93685	0.38554	2.398
Mof_La	La	0.68559	0.17026	0.0616	2.489
Mof_La	La	0.94223	0.44869	0.38554	2.421
Mof_La	La	0.03135	0.28135	0.5627	2.487
Mof_La	La	0.96865	0.71865	0.4373	2.487
Mof_S 	S 	0.16222	0.10204	0.46642	0.883
Mof_S 	S 	0.38641	0.0237	0.92888	0.843
Mof_S 	S 	0.76609	0.09177	0.4966	0.945
Mof_S 	S 	0.2114	0.24726	0.68752	0.689
Mof_S 	S 	0.07581	0.09057	0.77612	0.673
Mof_S 	S 	0.40849	0.2726	0.04804	0.96
Mof_S 	S 	0.8042	0.36438	0.46642	0.884
Mof_S 	S 	0.04247	0.90518	0.92888	0.852
Mof_S 	S 	0.23051	0.40483	0.4966	0.948
Mof_S 	S 	0.97612	0.44026	0.68752	0.698
Mof_S 	S 	0.20031	0.68555	0.77612	0.685
Mof_S 	S 	0.13955	0.77544	0.04804	0.976
Mof_S 	S 	0.83778	0.89796	0.53358	0.883
Mof_S 	S 	0.61359	0.9763	0.07112	0.843
Mof_S 	S 	0.23391	0.90823	0.5034	0.945
Mof_S 	S 	0.7886	0.75274	0.31248	0.689
Mof_S 	S 	0.92419	0.90943	0.22388	0.673
Mof_S 	S 	0.59151	0.7274	0.95196	0.96
Mof_S 	S 	0.1958	0.63562	0.53358	0.884
Mof_S 	S 	0.95753	0.09482	0.07112	0.852
Mof_S 	S 	0.76949	0.59517	0.5034	0.948
Mof_S 	S 	0.02388	0.55974	0.31248	0.698
Mof_S 	S 	0.79969	0.31445	0.22388	0.685
Mof_S 	S 	0.86045	0.22456	0.95196	0.976
Mof_O 	O 	0.2326	0.2974	0.76464	-0.331
Mof_O 	O 	0.82364	0.07834	0.56032	-0.567
Mof_O 	O 	0.08187	0.07017	0.5042	-0.722
Mof_O 	O 	0.29584	0.03384	0.87046	-0.516
Mof_O 	O 	0.78586	0.02856	0.43022	-0.582
Mof_O 	O 	0.33659	0.06359	0.9938	-0.55
Mof_O 	O 	0.13455	0.18175	0.4807	-0.574
Mof_O 	O 	0.15577	0.15997	0.84504	-0.474
Mof_O 	O 	0.5294	0.0605	0.94288	-0.538
Mof_O 	O 	0.05977	0.21597	0.65038	-0.627
Mof_O 	O 	0.272	0.1759	0.6747	-0.485
Mof_O 	O 	0.6194	0.0915	0.48904	-0.349
Mof_O 	O 	0.38022	0.93832	0.90684	-0.554
Mof_O 	O 	0.83733	0.16943	0.50888	-0.584
Mof_O 	O 	0.10542	0.04702	0.38834	-0.532
Mof_O 	O 	0.16548	0.05308	0.72948	-0.485
Mof_O 	O 	0.00982	0.03492	0.7973	-0.459
Mof_O 	O 	0.3068	0.1049	0.49032	-0.354
Mof_O 	O 	0.25888	0.29118	0.65122	-0.485
Mof_O 	O 	0.97574	0.11744	0.73376	-0.451
Mof_O 	O 	0.27958	0.22788	0.01796	-0.665
Mof_O 	O 	0.522	0.2459	0.0136	-0.517
Mof_O 	O 	0.4718	0.2407	0.1034	-0.454
Mof_O 	O 	0.412	0.3539	0.0744	-0.41
Mof_O 	O 	0.03204	0.46724	0.76464	-0.335
Mof_O 	O 	0.23668	0.48198	0.56032	-0.573
Mof_O 	O 	0.92233	0.43403	0.5042	-0.722
Mof_O 	O 	0.07462	0.83662	0.87046	-0.515
Mof_O 	O 	0.14436	0.40166	0.43022	-0.589
Mof_O 	O 	0.15721	0.93021	0.9938	-0.546
Mof_O 	O 	0.84615	0.29895	0.4807	-0.572
Mof_O 	O 	0.18927	0.68507	0.84504	-0.477
Mof_O 	O 	0.91348	0.88238	0.94288	-0.535
Mof_O 	O 	0.09061	0.43441	0.65038	-0.629
Mof_O 	O 	0.9027	0.4988	0.6747	-0.487
Mof_O 	O 	0.36964	0.39754	0.48904	-0.35
Mof_O 	O 	0.02662	0.96852	0.90684	-0.551
Mof_O 	O 	0.17155	0.33945	0.50888	-0.588
Mof_O 	O 	0.78292	0.34132	0.38834	-0.532
Mof_O 	O 	0.064	0.6764	0.72948	-0.485
Mof_O 	O 	0.28748	0.76238	0.7973	-0.456
Mof_O 	O 	0.68352	0.38542	0.49032	-0.354
Mof_O 	O 	0.89234	0.36004	0.65122	-0.485
Mof_O 	O 	0.25802	0.61632	0.73376	-0.464
Mof_O 	O 	0.23838	0.79008	0.01796	-0.676
Mof_O 	O 	0.9916	0.7677	0.0136	-0.53
Mof_O 	O 	0.1316	0.8627	0.1034	-0.45
Mof_O 	O 	0.1624	0.7205	0.0744	-0.412
Mof_O 	O 	0.7674	0.7026	0.23536	-0.331
Mof_O 	O 	0.17636	0.92166	0.43968	-0.567
Mof_O 	O 	0.91813	0.92983	0.4958	-0.722
Mof_O 	O 	0.70416	0.96616	0.12954	-0.516
Mof_O 	O 	0.21414	0.97144	0.56978	-0.582
Mof_O 	O 	0.66341	0.93641	0.0062	-0.55
Mof_O 	O 	0.86545	0.81825	0.5193	-0.574
Mof_O 	O 	0.84423	0.84003	0.15496	-0.474
Mof_O 	O 	0.4706	0.9395	0.05712	-0.538
Mof_O 	O 	0.94023	0.78403	0.34962	-0.627
Mof_O 	O 	0.728	0.8241	0.3253	-0.485
Mof_O 	O 	0.3806	0.9085	0.51096	-0.349
Mof_O 	O 	0.61978	0.06168	0.09316	-0.554
Mof_O 	O 	0.16267	0.83057	0.49112	-0.584
Mof_O 	O 	0.89458	0.95298	0.61166	-0.532
Mof_O 	O 	0.83452	0.94692	0.27052	-0.485
Mof_O 	O 	0.99018	0.96508	0.2027	-0.459
Mof_O 	O 	0.6932	0.8951	0.50968	-0.354
Mof_O 	O 	0.74112	0.70882	0.34878	-0.485
Mof_O 	O 	0.02426	0.88256	0.26624	-0.451
Mof_O 	O 	0.72042	0.77212	0.98204	-0.665
Mof_O 	O 	0.478	0.7541	0.9864	-0.517
Mof_O 	O 	0.5282	0.7593	0.8966	-0.454
Mof_O 	O 	0.588	0.6461	0.9256	-0.41
Mof_O 	O 	0.96796	0.53276	0.23536	-0.335
Mof_O 	O 	0.76332	0.51802	0.43968	-0.573
Mof_O 	O 	0.07767	0.56597	0.4958	-0.722
Mof_O 	O 	0.92538	0.16338	0.12954	-0.515
Mof_O 	O 	0.85564	0.59834	0.56978	-0.589
Mof_O 	O 	0.84279	0.06979	0.0062	-0.546
Mof_O 	O 	0.15385	0.70105	0.5193	-0.572
Mof_O 	O 	0.81073	0.31493	0.15496	-0.477
Mof_O 	O 	0.08652	0.11762	0.05712	-0.535
Mof_O 	O 	0.90939	0.56559	0.34962	-0.629
Mof_O 	O 	0.0973	0.5012	0.3253	-0.487
Mof_O 	O 	0.63036	0.60246	0.51096	-0.35
Mof_O 	O 	0.97338	0.03148	0.09316	-0.551
Mof_O 	O 	0.82845	0.66055	0.49112	-0.588
Mof_O 	O 	0.21708	0.65868	0.61166	-0.532
Mof_O 	O 	0.936	0.3236	0.27052	-0.485
Mof_O 	O 	0.71252	0.23762	0.2027	-0.456
Mof_O 	O 	0.31648	0.61458	0.50968	-0.354
Mof_O 	O 	0.10766	0.63996	0.34878	-0.485
Mof_O 	O 	0.74198	0.38368	0.26624	-0.464
Mof_O 	O 	0.76162	0.20992	0.98204	-0.676
Mof_O 	O 	0.0084	0.2323	0.9864	-0.53
Mof_O 	O 	0.8684	0.1373	0.8966	-0.45
Mof_O 	O 	0.8376	0.2795	0.9256	-0.412
Mof_H 	H 	0.4192	0.5234	0.4136	0.159
Mof_H 	H 	0.3088	0.4481	0.3542	0.131
Mof_H 	H 	0.4283	0.4817	0.3318	0.125
Mof_H 	H 	0.5253	0.3104	0.3408	0.146
Mof_H 	H 	0.4932	0.3488	0.2876	0.134
Mof_H 	H 	0.3737	0.3152	0.31	0.123
Mof_H 	H 	0.5754	0.4449	0.404	0.138
Mof_H 	H 	0.4645	0.4137	0.4248	0.156
Mof_C 	C 	0.40392	0.47302	0.37024	-0.304
Mof_C 	C 	0.46778	0.34188	0.32656	-0.308
Mof_N 	N 	0.48655	0.42065	0.38806	-0.171
Mof_H 	H 	0.7362	0.0332	0.8602	0.127
Mof_H 	H 	0.6094	0.9724	0.7974	0.11
Mof_H 	H 	0.7576	0.9548	0.7974	0.116
Mof_H 	H 	0.7688	0.942	0.9004	0.133
Mof_H 	H 	0.624	0.827	0.8602	0.124
Mof_H 	H 	0.688	0.825	0.7974	0.108
Mof_H 	H 	0.5398	0.8426	0.7974	0.114
Mof_H 	H 	0.6316	0.9584	0.9004	0.134
Mof_C 	C 	0.69801	0.97751	0.82782	-0.267
Mof_C 	C 	0.62981	0.85031	0.82782	-0.261
Mof_N 	N 	0.68554	0.93554	0.87108	-0.176
Mof_H 	H 	0.831	0.2594	0.7416	0.124
Mof_H 	H 	0.9371	0.3385	0.7688	0.144
Mof_H 	H 	0.8411	0.3332	0.8172	0.135
Mof_H 	H 	0.1539	0.3278	0.912	0.13
Mof_H 	H 	0.041	0.3804	0.9248	0.128
Mof_H 	H 	0.1371	0.3858	0.8766	0.129
Mof_H 	H 	0.952	0.2536	0.8416	0.126
Mof_H 	H 	0.041	0.2585	0.7968	0.119
Mof_C 	C 	0.8922	0.3039	0.784	-0.31
Mof_C 	C 	0.0892	0.3507	0.8902	-0.31
Mof_N 	N 	0.99498	0.28688	0.82856	-0.139
Mof_H 	H 	0.0655	0.4416	0.1028	0.132
Mof_H 	H 	0.1839	0.3928	0.0928	0.155
Mof_H 	H 	0.192	0.4634	0.17	0.14
Mof_H 	H 	0.1028	0.2983	0.1922	0.14
Mof_H 	H 	0.2245	0.372	0.2294	0.121
Mof_H 	H 	0.2163	0.3013	0.1522	0.137
Mof_H 	H 	0.0284	0.3897	0.1712	0.124
Mof_H 	H 	0.0209	0.3245	0.1	0.105
Mof_C 	C 	0.1315	0.4204	0.126	-0.331
Mof_C 	C 	0.1637	0.3326	0.1834	-0.309
Mof_N 	N 	0.0795	0.3628	0.1418	-0.137
Mof_H 	H 	0.6914	0.103	0.2648	0.123
Mof_H 	H 	0.7768	0.1852	0.3284	0.131
Mof_H 	H 	0.807	0.1051	0.3284	0.119
Mof_H 	H 	0.8775	0.0765	0.227	0.125
Mof_H 	H 	0.0734	0.1618	0.2648	0.123
Mof_H 	H 	0.0516	0.1432	0.3284	0.131
Mof_H 	H 	0.0214	0.2233	0.3284	0.118
Mof_H 	H 	0.8495	0.1505	0.227	0.122
Mof_C 	C 	0.7803	0.1305	0.298	-0.273
Mof_C 	C 	0.0177	0.1675	0.298	-0.277
Mof_N 	N 	0.8782	0.1282	0.2564	-0.161
Mof_H 	H 	0.4944	0.8902	0.4136	0.158
Mof_H 	H 	0.5454	0.9061	0.3542	0.13
Mof_H 	H 	0.4035	0.8501	0.3318	0.124
Mof_H 	H 	0.3155	0.0304	0.3408	0.143
Mof_H 	H 	0.2944	0.9388	0.2876	0.133
Mof_H 	H 	0.4363	0.9948	0.31	0.12
Mof_H 	H 	0.3286	0.9591	0.404	0.139
Mof_H 	H 	0.4603	0.0111	0.4248	0.156
Mof_C 	C 	0.46632	0.89722	0.37024	-0.303
Mof_C 	C 	0.35878	0.98468	0.32656	-0.301
Mof_N 	N 	0.40151	0.96741	0.38806	-0.172
Mof_H 	H 	0.4106	0.4822	0.7416	0.12
Mof_H 	H 	0.3317	0.4303	0.7688	0.139
Mof_H 	H 	0.4761	0.484	0.8172	0.132
Mof_H 	H 	0.2581	0.5842	0.912	0.126
Mof_H 	H 	0.3838	0.5444	0.9248	0.126
Mof_H 	H 	0.2395	0.4908	0.8766	0.124
Mof_H 	H 	0.3896	0.588	0.8416	0.126
Mof_H 	H 	0.2558	0.5383	0.7968	0.127
Mof_C 	C 	0.3918	0.4801	0.784	-0.302
Mof_C 	C 	0.301	0.5395	0.8902	-0.294
Mof_N 	N 	0.33358	0.54168	0.82856	-0.151
Mof_H 	H 	0.5373	0.6612	0.1028	0.129
Mof_H 	H 	0.4089	0.7	0.0928	0.153
Mof_H 	H 	0.478	0.7066	0.17	0.139
Mof_H 	H 	0.5894	0.8939	0.1922	0.139
Mof_H 	H 	0.5049	0.8574	0.2294	0.12
Mof_H 	H 	0.4359	0.8509	0.1522	0.136
Mof_H 	H 	0.6428	0.7815	0.1712	0.123
Mof_H 	H 	0.5791	0.7755	0.1	0.103
Mof_C 	C 	0.4945	0.7056	0.126	-0.33
Mof_C 	C 	0.5197	0.8508	0.1834	-0.309
Mof_N 	N 	0.5623	0.779	0.1418	-0.137
Mof_H 	H 	0.5808	0.4766	0.5864	0.159
Mof_H 	H 	0.6912	0.5519	0.6458	0.131
Mof_H 	H 	0.5717	0.5183	0.6682	0.125
Mof_H 	H 	0.4747	0.6896	0.6592	0.146
Mof_H 	H 	0.5068	0.6512	0.7124	0.134
Mof_H 	H 	0.6263	0.6848	0.69	0.123
Mof_H 	H 	0.4246	0.5551	0.596	0.138
Mof_H 	H 	0.5355	0.5863	0.5752	0.156
Mof_C 	C 	0.59608	0.52698	0.62976	-0.304
Mof_C 	C 	0.53222	0.65812	0.67344	-0.308
Mof_N 	N 	0.51345	0.57935	0.61194	-0.171
Mof_H 	H 	0.2638	0.9668	0.1398	0.127
Mof_H 	H 	0.3906	0.0276	0.2026	0.11
Mof_H 	H 	0.2424	0.0452	0.2026	0.116
Mof_H 	H 	0.2312	0.058	0.0996	0.133
Mof_H 	H 	0.376	0.173	0.1398	0.124
Mof_H 	H 	0.312	0.175	0.2026	0.108
Mof_H 	H 	0.4602	0.1574	0.2026	0.114
Mof_H 	H 	0.3684	0.0416	0.0996	0.134
Mof_C 	C 	0.30199	0.02249	0.17218	-0.267
Mof_C 	C 	0.37019	0.14969	0.17218	-0.261
Mof_N 	N 	0.31446	0.06446	0.12892	-0.176
Mof_H 	H 	0.169	0.7406	0.2584	0.124
Mof_H 	H 	0.0629	0.6615	0.2312	0.144
Mof_H 	H 	0.1589	0.6668	0.1828	0.135
Mof_H 	H 	0.8461	0.6722	0.088	0.13
Mof_H 	H 	0.959	0.6196	0.0752	0.128
Mof_H 	H 	0.8629	0.6142	0.1234	0.129
Mof_H 	H 	0.048	0.7464	0.1584	0.126
Mof_H 	H 	0.959	0.7415	0.2032	0.119
Mof_C 	C 	0.1078	0.6961	0.216	-0.31
Mof_C 	C 	0.9108	0.6493	0.1098	-0.31
Mof_N 	N 	0.00502	0.71312	0.17144	-0.139
Mof_H 	H 	0.9345	0.5584	0.8972	0.132
Mof_H 	H 	0.8161	0.6072	0.9072	0.155
Mof_H 	H 	0.808	0.5366	0.83	0.14
Mof_H 	H 	0.8972	0.7017	0.8078	0.14
Mof_H 	H 	0.7755	0.628	0.7706	0.121
Mof_H 	H 	0.7837	0.6987	0.8478	0.137
Mof_H 	H 	0.9716	0.6103	0.8288	0.124
Mof_H 	H 	0.9791	0.6755	0.9	0.105
Mof_C 	C 	0.8685	0.5796	0.874	-0.331
Mof_C 	C 	0.8363	0.6674	0.8166	-0.309
Mof_N 	N 	0.9205	0.6372	0.8582	-0.137
Mof_H 	H 	0.3086	0.897	0.7352	0.123
Mof_H 	H 	0.2232	0.8148	0.6716	0.131
Mof_H 	H 	0.193	0.8949	0.6716	0.119
Mof_H 	H 	0.1225	0.9235	0.773	0.125
Mof_H 	H 	0.9266	0.8382	0.7352	0.123
Mof_H 	H 	0.9484	0.8568	0.6716	0.131
Mof_H 	H 	0.9786	0.7767	0.6716	0.118
Mof_H 	H 	0.1505	0.8495	0.773	0.122
Mof_C 	C 	0.2197	0.8695	0.702	-0.273
Mof_C 	C 	0.9823	0.8325	0.702	-0.277
Mof_N 	N 	0.1218	0.8718	0.7436	-0.161
Mof_H 	H 	0.5056	0.1098	0.5864	0.158
Mof_H 	H 	0.4546	0.0939	0.6458	0.13
Mof_H 	H 	0.5965	0.1499	0.6682	0.124
Mof_H 	H 	0.6845	0.9696	0.6592	0.143
Mof_H 	H 	0.7056	0.0612	0.7124	0.133
Mof_H 	H 	0.5637	0.0052	0.69	0.12
Mof_H 	H 	0.6714	0.0409	0.596	0.139
Mof_H 	H 	0.5397	0.9889	0.5752	0.156
Mof_C 	C 	0.53368	0.10278	0.62976	-0.303
Mof_C 	C 	0.64122	0.01532	0.67344	-0.301
Mof_N 	N 	0.59849	0.03259	0.61194	-0.172
Mof_H 	H 	0.5894	0.5178	0.2584	0.12
Mof_H 	H 	0.6683	0.5697	0.2312	0.139
Mof_H 	H 	0.5239	0.516	0.1828	0.132
Mof_H 	H 	0.7419	0.4158	0.088	0.126
Mof_H 	H 	0.6162	0.4556	0.0752	0.126
Mof_H 	H 	0.7605	0.5092	0.1234	0.124
Mof_H 	H 	0.6104	0.412	0.1584	0.126
Mof_H 	H 	0.7442	0.4617	0.2032	0.127
Mof_C 	C 	0.6082	0.5199	0.216	-0.302
Mof_C 	C 	0.699	0.4605	0.1098	-0.294
Mof_N 	N 	0.66642	0.45832	0.17144	-0.151
Mof_H 	H 	0.4627	0.3388	0.8972	0.129
Mof_H 	H 	0.5911	0.3	0.9072	0.153
Mof_H 	H 	0.522	0.2934	0.83	0.139
Mof_H 	H 	0.4106	0.1061	0.8078	0.139
Mof_H 	H 	0.4951	0.1426	0.7706	0.12
Mof_H 	H 	0.5641	0.1491	0.8478	0.136
Mof_H 	H 	0.3572	0.2185	0.8288	0.123
Mof_H 	H 	0.4209	0.2245	0.9	0.103
Mof_C 	C 	0.5055	0.2944	0.874	-0.33
Mof_C 	C 	0.4803	0.1492	0.8166	-0.309
Mof_N 	N 	0.4377	0.221	0.8582	-0.137
_end
