data_functionalizedCrystal
_audit_creation_method	'EQeq! by Chris Wilmer'
_symmetry_space_group_name_H-M	'P1'
_symmetry_Int_Tables_number	1
_symmetry_cell_setting	triclinic
loop_
_symmetry_equiv_pos_as_xyz
  x,y,z
_cell_length_a	14.3288
_cell_length_b	13.2643
_cell_length_c	14.3563
_cell_angle_alpha	90
_cell_angle_beta	91.296
_cell_angle_gamma	90
loop_
_atom_site_label
_atom_site_type_symbol
_atom_site_fract_x
_atom_site_fract_y
_atom_site_fract_z
_atom_site_charge
Mof_O 	O 	0.5853	0.6659	0.3109	-0.405
Mof_O 	O 	0.2305	0.8988	0.323	-0.461
Mof_O 	O 	0.2089	0.0943	0.1988	-0.602
Mof_O 	O 	0.3666	0.5119	0.548	-0.432
Mof_O 	O 	0.3661	0.9507	0.2646	-0.466
Mof_O 	O 	0.1325	0.4202	0.9205	-0.427
Mof_O 	O 	0.976	0.4701	0.2148	-0.414
Mof_C 	C 	0.3152	0.8882	0.3079	0.369
Mof_C 	C 	0.4579	0.6291	0.4162	-0.175
Mof_H 	H 	0.4885	0.5703	0.4394	0.101
Mof_C 	C 	0.1726	0.1825	0.1669	0.26
Mof_C 	C 	0.1995	0.2224	0.0822	-0.192
Mof_H 	H 	0.2455	0.1889	0.0469	0.089
Mof_C 	C 	0.5004	0.6862	0.3474	0.229
Mof_O 	O 	0.9645	0.3405	0.3126	-0.247
Mof_O 	O 	0.2664	0.6363	0.5778	-0.273
Mof_C 	C 	0.1076	0.2356	0.2201	-0.187
Mof_H 	H 	0.0893	0.2095	0.2786	0.089
Mof_O 	O 	0.2513	0.312	0.9122	-0.277
Mof_C 	C 	0.3634	0.796	0.3468	-0.015
Mof_C 	C 	0.0949	0.3635	0.1003	-0.067
Mof_H 	H 	0.0678	0.4241	0.0769	0.088
Mof_C 	C 	0.4508	0.7715	0.314	-0.133
Mof_H 	H 	0.478	0.8129	0.2679	0.109
Mof_C 	C 	0.323	0.7401	0.4165	-0.045
Mof_H 	H 	0.2638	0.7581	0.4398	0.08
Mof_C 	C 	0.1591	0.3121	0.0484	0.026
Mof_C 	C 	0.0694	0.3268	0.1875	0.022
Mof_C 	C 	0.1845	0.3494	0.9523	0.302
Mof_C 	C 	0.9977	0.3801	0.2438	0.295
Mof_C 	C 	0.3302	0.5996	0.5307	0.283
Mof_C 	C 	0.3719	0.6561	0.4518	0.016
Mof_Zn	Zn	0.33592	0.0496	0.16657	1.228
Mof_Zn	Zn	0.15203	0.01798	0.29943	1.231
Mof_O 	O 	0.4147	0.1659	0.1891	-0.407
Mof_O 	O 	0.7695	0.3988	0.177	-0.465
Mof_O 	O 	0.7911	0.5943	0.3012	-0.6
Mof_O 	O 	0.6334	0.0119	0.952	-0.429
Mof_O 	O 	0.6339	0.4507	0.2354	-0.47
Mof_O 	O 	0.8675	0.9202	0.5795	-0.429
Mof_O 	O 	0.024	0.9701	0.2852	-0.408
Mof_C 	C 	0.6848	0.3882	0.1921	0.371
Mof_C 	C 	0.5421	0.1291	0.0838	-0.17
Mof_H 	H 	0.5115	0.0703	0.0606	0.097
Mof_C 	C 	0.8274	0.6825	0.3331	0.261
Mof_C 	C 	0.8005	0.7224	0.4178	-0.192
Mof_H 	H 	0.7545	0.6889	0.4531	0.091
Mof_C 	C 	0.4996	0.1862	0.1526	0.226
Mof_O 	O 	0.0355	0.8405	0.1874	-0.245
Mof_O 	O 	0.7336	0.1363	0.9222	-0.272
Mof_C 	C 	0.8924	0.7356	0.2799	-0.185
Mof_H 	H 	0.9107	0.7095	0.2214	0.09
Mof_O 	O 	0.7487	0.812	0.5878	-0.278
Mof_C 	C 	0.6366	0.296	0.1532	-0.018
Mof_C 	C 	0.9051	0.8635	0.3997	-0.066
Mof_H 	H 	0.9322	0.9241	0.4231	0.086
Mof_C 	C 	0.5492	0.2715	0.186	-0.131
Mof_H 	H 	0.522	0.3129	0.2321	0.107
Mof_C 	C 	0.677	0.2401	0.0835	-0.04
Mof_H 	H 	0.7362	0.2581	0.0602	0.077
Mof_C 	C 	0.8409	0.8121	0.4516	0.028
Mof_C 	C 	0.9306	0.8268	0.3125	0.018
Mof_C 	C 	0.8155	0.8494	0.5477	0.3
Mof_C 	C 	0.0023	0.8801	0.2562	0.297
Mof_C 	C 	0.6698	0.0996	0.9693	0.29
Mof_C 	C 	0.6281	0.1561	0.0482	0.006
Mof_Zn	Zn	0.66408	0.5496	0.33343	1.23
Mof_Zn	Zn	0.84797	0.51798	0.20057	1.233
Mof_O 	O 	0.4147	0.3341	0.6891	-0.406
Mof_O 	O 	0.7695	0.1012	0.677	-0.462
Mof_O 	O 	0.7911	0.9057	0.8012	-0.603
Mof_O 	O 	0.6334	0.4881	0.452	-0.433
Mof_O 	O 	0.6339	0.0493	0.7354	-0.466
Mof_O 	O 	0.8675	0.5798	0.0795	-0.427
Mof_O 	O 	0.024	0.5299	0.7852	-0.414
Mof_C 	C 	0.6848	0.1118	0.6921	0.369
Mof_C 	C 	0.5421	0.3709	0.5838	-0.175
Mof_H 	H 	0.5115	0.4297	0.5606	0.101
Mof_C 	C 	0.8274	0.8175	0.8331	0.26
Mof_C 	C 	0.8005	0.7776	0.9178	-0.192
Mof_H 	H 	0.7545	0.8111	0.9531	0.089
Mof_C 	C 	0.4996	0.3138	0.6526	0.229
Mof_O 	O 	0.0355	0.6595	0.6874	-0.247
Mof_O 	O 	0.7336	0.3637	0.4222	-0.273
Mof_C 	C 	0.8924	0.7644	0.7799	-0.187
Mof_H 	H 	0.9107	0.7905	0.7214	0.089
Mof_O 	O 	0.7487	0.688	0.0878	-0.277
Mof_C 	C 	0.6366	0.204	0.6532	-0.015
Mof_C 	C 	0.9051	0.6365	0.8997	-0.067
Mof_H 	H 	0.9322	0.5759	0.9231	0.088
Mof_C 	C 	0.5492	0.2285	0.686	-0.133
Mof_H 	H 	0.522	0.1871	0.7321	0.109
Mof_C 	C 	0.677	0.2599	0.5835	-0.045
Mof_H 	H 	0.7362	0.2419	0.5602	0.08
Mof_C 	C 	0.8409	0.6879	0.9516	0.026
Mof_C 	C 	0.9306	0.6732	0.8125	0.022
Mof_C 	C 	0.8155	0.6506	0.0477	0.302
Mof_C 	C 	0.0023	0.6199	0.7562	0.295
Mof_C 	C 	0.6698	0.4004	0.4693	0.283
Mof_C 	C 	0.6281	0.3439	0.5482	0.016
Mof_Zn	Zn	0.66408	0.9504	0.83343	1.228
Mof_Zn	Zn	0.84797	0.98202	0.70057	1.231
Mof_O 	O 	0.5853	0.8341	0.8109	-0.407
Mof_O 	O 	0.2305	0.6012	0.823	-0.465
Mof_O 	O 	0.2089	0.4057	0.6988	-0.6
Mof_O 	O 	0.3666	0.9881	0.048	-0.429
Mof_O 	O 	0.3661	0.5493	0.7646	-0.47
Mof_O 	O 	0.1325	0.0798	0.4205	-0.429
Mof_O 	O 	0.976	0.0299	0.7148	-0.408
Mof_C 	C 	0.3152	0.6118	0.8079	0.371
Mof_C 	C 	0.4579	0.8709	0.9162	-0.17
Mof_H 	H 	0.4885	0.9297	0.9394	0.097
Mof_C 	C 	0.1726	0.3175	0.6669	0.261
Mof_C 	C 	0.1995	0.2776	0.5822	-0.192
Mof_H 	H 	0.2455	0.3111	0.5469	0.091
Mof_C 	C 	0.5004	0.8138	0.8474	0.226
Mof_O 	O 	0.9645	0.1595	0.8126	-0.245
Mof_O 	O 	0.2664	0.8637	0.0778	-0.272
Mof_C 	C 	0.1076	0.2644	0.7201	-0.185
Mof_H 	H 	0.0893	0.2905	0.7786	0.09
Mof_O 	O 	0.2513	0.188	0.4122	-0.278
Mof_C 	C 	0.3634	0.704	0.8468	-0.018
Mof_C 	C 	0.0949	0.1365	0.6003	-0.066
Mof_H 	H 	0.0678	0.0759	0.5769	0.086
Mof_C 	C 	0.4508	0.7285	0.814	-0.131
Mof_H 	H 	0.478	0.6871	0.7679	0.107
Mof_C 	C 	0.323	0.7599	0.9165	-0.04
Mof_H 	H 	0.2638	0.7419	0.9398	0.077
Mof_C 	C 	0.1591	0.1879	0.5484	0.028
Mof_C 	C 	0.0694	0.1732	0.6875	0.018
Mof_C 	C 	0.1845	0.1506	0.4523	0.3
Mof_C 	C 	0.9977	0.1199	0.7438	0.297
Mof_C 	C 	0.3302	0.9004	0.0307	0.29
Mof_C 	C 	0.3719	0.8439	0.9518	0.006
Mof_Zn	Zn	0.33592	0.4504	0.66657	1.23
Mof_Zn	Zn	0.15203	0.48202	0.79943	1.233
_end
