data_functionalizedCrystal
_audit_creation_method	'EQeq! by Chris Wilmer'
_symmetry_space_group_name_H-M	'P1'
_symmetry_Int_Tables_number	1
_symmetry_cell_setting	triclinic
loop_
_symmetry_equiv_pos_as_xyz
  x,y,z
_cell_length_a	13.4158
_cell_length_b	21.8551
_cell_length_c	14.4779
_cell_angle_alpha	90
_cell_angle_beta	92.291
_cell_angle_gamma	90
loop_
_atom_site_label
_atom_site_type_symbol
_atom_site_fract_x
_atom_site_fract_y
_atom_site_fract_z
_atom_site_charge
Mof_Cd	Cd	0.67501	0.01922	0.82615	0.492
Mof_O 	O 	0.6727	0.98717	0.98	-0.277
Mof_O 	O 	0.794	0.94882	0.74583	-0.258
Mof_O 	O 	0.7468	0.03878	0.69267	-0.273
Mof_C 	C 	0.7596	0.00878	0.9998	0.325
Mof_C 	C 	0.5353	0.11528	0.8618	0.374
Mof_C 	C 	0.8379	0.97537	0.5929	-0.169
Mof_O 	O 	0.0268	0.42972	0.60581	-0.291
Mof_O 	O 	0.6209	0.11893	0.8338	-0.281
Mof_C 	C 	0.4762	0.17474	0.8689	-0.199
Mof_C 	C 	0.8071	0.99261	0.0923	-0.15
Mof_C 	C 	0.791	0.98852	0.6836	0.344
Mof_O 	O 	0.9508	0.93539	0.33719	-0.295
Mof_O 	O 	0.4928	0.0672	0.8817	-0.304
Mof_C 	C 	0.9557	0.9832	0.1901	-0.229
Mof_H 	H 	0.0241	0.9886	0.1997	0.139
Mof_C 	C 	0.901	0.95709	0.2574	0.282
Mof_C 	C 	0.7531	0.96592	0.1612	0.13
Mof_H 	H 	0.6849	0.9596	0.1514	0.013
Mof_C 	C 	0.8803	0.91925	0.5756	0.163
Mof_H 	H 	0.8843	0.8899	0.6222	-0.008
Mof_C 	C 	0.8345	0.0193	0.5235	0.158
Mof_H 	H 	0.8073	0.0576	0.5348	0.009
Mof_C 	C 	0.7987	0.94866	0.2439	-0.257
Mof_H 	H 	0.7615	0.9316	0.2903	0.136
Mof_O 	O 	0.8057	0.03859	0.94255	-0.263
Mof_C 	C 	0.0981	0.40337	0.7511	-0.199
Mof_C 	C 	0.3742	0.2821	0.8943	0.332
Mof_C 	C 	0.5138	0.22996	0.8396	0.193
Mof_H 	H 	0.5746	0.2308	0.811	-0.01
Mof_O 	O 	0.9408	0.45231	0.73056	-0.278
Mof_C 	C 	0.3331	0.2277	0.9213	-0.31
Mof_H 	H 	0.2708	0.2271	0.9472	0.16
Mof_C 	C 	0.9169	0.90593	0.4895	-0.289
Mof_H 	H 	0.945	0.8679	0.478	0.161
Mof_C 	C 	0.8711	0.0065	0.4377	-0.301
Mof_H 	H 	0.8688	0.036	0.3914	0.153
Mof_O 	O 	0.3304	0.3367	0.9199	-0.313
Mof_C 	C 	0.0143	0.43136	0.6916	0.362
Mof_C 	C 	0.2665	0.3671	0.7662	-0.309
Mof_H 	H 	0.3277	0.3597	0.7404	0.148
Mof_C 	C 	0.4633	0.28326	0.852	-0.321
Mof_H 	H 	0.4894	0.3201	0.8317	0.156
Mof_C 	C 	0.1884	0.39098	0.7133	0.182
Mof_H 	H 	0.1968	0.3989	0.651	-0.01
Mof_C 	C 	0.9088	0.0015	0.1079	0.106
Mof_H 	H 	0.9458	0.0199	0.0626	0.014
Mof_C 	C 	0.911	0.9498	0.4217	0.325
Mof_C 	C 	0.1643	0.367	0.897	-0.306
Mof_H 	H 	0.1564	0.3594	0.9595	0.163
Mof_C 	C 	0.2525	0.3544	0.8577	0.317
Mof_C 	C 	0.3841	0.17449	0.9102	0.188
Mof_H 	H 	0.3574	0.1378	0.9302	-0.007
Mof_C 	C 	0.0871	0.391	0.8433	0.184
Mof_H 	H 	0.0264	0.399	0.8697	-0.009
Mof_Cd	Cd	0.82499	0.51922	0.67385	0.501
Mof_O 	O 	0.8273	0.48717	0.52	-0.295
Mof_O 	O 	0.706	0.44882	0.75417	-0.263
Mof_O 	O 	0.7532	0.53878	0.80733	-0.268
Mof_C 	C 	0.7404	0.50878	0.5002	0.343
Mof_C 	C 	0.9647	0.61528	0.6382	0.403
Mof_C 	C 	0.6621	0.47537	0.9071	-0.211
Mof_O 	O 	0.4732	0.92972	0.89419	-0.281
Mof_O 	O 	0.8791	0.61893	0.6662	-0.288
Mof_C 	C 	0.0238	0.67474	0.6311	-0.244
Mof_C 	C 	0.6929	0.49261	0.4077	-0.188
Mof_C 	C 	0.709	0.48852	0.8164	0.349
Mof_O 	O 	0.5492	0.43539	0.16281	-0.314
Mof_O 	O 	0.0072	0.5672	0.6183	-0.32
Mof_C 	C 	0.5443	0.4832	0.3099	-0.295
Mof_H 	H 	0.4759	0.4886	0.3003	0.166
Mof_C 	C 	0.599	0.45709	0.2426	0.315
Mof_C 	C 	0.7469	0.46592	0.3388	0.162
Mof_H 	H 	0.8151	0.4596	0.3486	0.001
Mof_C 	C 	0.6197	0.41925	0.9244	0.216
Mof_H 	H 	0.6157	0.3899	0.8778	-0.026
Mof_C 	C 	0.6655	0.5193	0.9765	0.22
Mof_H 	H 	0.6927	0.5576	0.9652	-0.007
Mof_C 	C 	0.7013	0.44866	0.2561	-0.291
Mof_H 	H 	0.7385	0.4316	0.2097	0.146
Mof_O 	O 	0.6943	0.53859	0.55745	-0.27
Mof_C 	C 	0.4019	0.90337	0.7489	-0.199
Mof_C 	C 	0.1258	0.7821	0.6057	0.358
Mof_C 	C 	0.9862	0.72996	0.6604	0.248
Mof_H 	H 	0.9254	0.7308	0.689	-0.027
Mof_O 	O 	0.5592	0.95231	0.76944	-0.281
Mof_C 	C 	0.1669	0.7277	0.5787	-0.343
Mof_H 	H 	0.2292	0.7271	0.5528	0.169
Mof_C 	C 	0.5831	0.40593	0.0105	-0.343
Mof_H 	H 	0.555	0.3679	0.022	0.173
Mof_C 	C 	0.6289	0.5065	0.0623	-0.348
Mof_H 	H 	0.6312	0.536	0.1086	0.169
Mof_O 	O 	0.1696	0.8367	0.5801	-0.324
Mof_C 	C 	0.4857	0.93136	0.8084	0.37
Mof_C 	C 	0.2335	0.8671	0.7338	-0.31
Mof_H 	H 	0.1723	0.8597	0.7596	0.149
Mof_C 	C 	0.0367	0.78326	0.648	-0.368
Mof_H 	H 	0.0106	0.8201	0.6683	0.169
Mof_C 	C 	0.3116	0.89098	0.7867	0.183
Mof_H 	H 	0.3032	0.8989	0.849	-0.007
Mof_C 	C 	0.5912	0.5015	0.3921	0.168
Mof_H 	H 	0.5542	0.5199	0.4374	-0.004
Mof_C 	C 	0.589	0.4498	0.0783	0.351
Mof_C 	C 	0.3357	0.867	0.603	-0.307
Mof_H 	H 	0.3436	0.8594	0.5405	0.161
Mof_C 	C 	0.2475	0.8544	0.6423	0.319
Mof_C 	C 	0.1159	0.67449	0.5898	0.222
Mof_H 	H 	0.1426	0.6378	0.5698	-0.022
Mof_C 	C 	0.4129	0.891	0.6567	0.185
Mof_H 	H 	0.4736	0.899	0.6303	-0.008
Mof_Cd	Cd	0.32499	0.98078	0.17385	0.504
Mof_O 	O 	0.3273	0.01283	0.02	-0.309
Mof_O 	O 	0.206	0.05118	0.25417	-0.264
Mof_O 	O 	0.2532	0.96122	0.30733	-0.262
Mof_C 	C 	0.2404	0.99122	0.0002	0.352
Mof_C 	C 	0.4647	0.88472	0.1382	0.374
Mof_C 	C 	0.1621	0.02463	0.4071	-0.185
Mof_O 	O 	0.9732	0.57028	0.39419	-0.29
Mof_O 	O 	0.3791	0.88107	0.1662	-0.284
Mof_C 	C 	0.5238	0.82526	0.1311	-0.203
Mof_C 	C 	0.1929	0.00739	0.9077	-0.21
Mof_C 	C 	0.209	0.01148	0.3164	0.33
Mof_O 	O 	0.0492	0.06461	0.66281	-0.31
Mof_O 	O 	0.5072	0.9328	0.1183	-0.306
Mof_C 	C 	0.0443	0.0168	0.8099	-0.338
Mof_H 	H 	0.9759	0.0114	0.8003	0.183
Mof_C 	C 	0.099	0.04291	0.7426	0.332
Mof_C 	C 	0.2469	0.03408	0.8388	0.181
Mof_H 	H 	0.3151	0.0404	0.8486	-0.005
Mof_C 	C 	0.1197	0.08075	0.4244	0.163
Mof_H 	H 	0.1157	0.1101	0.3778	-0.012
Mof_C 	C 	0.1655	0.9807	0.4765	0.172
Mof_H 	H 	0.1927	0.9424	0.4652	0.005
Mof_C 	C 	0.2013	0.05134	0.7561	-0.309
Mof_H 	H 	0.2385	0.0684	0.7097	0.152
Mof_O 	O 	0.1943	0.96141	0.05745	-0.277
Mof_C 	C 	0.9019	0.59663	0.2489	-0.206
Mof_C 	C 	0.6258	0.7179	0.1057	0.333
Mof_C 	C 	0.4862	0.77004	0.1604	0.194
Mof_H 	H 	0.4254	0.7692	0.189	-0.013
Mof_O 	O 	0.0592	0.54769	0.26944	-0.296
Mof_C 	C 	0.6669	0.7723	0.0787	-0.315
Mof_H 	H 	0.7292	0.7729	0.0528	0.158
Mof_C 	C 	0.0831	0.09407	0.5105	-0.289
Mof_H 	H 	0.055	0.1321	0.522	0.157
Mof_C 	C 	0.1289	0.9935	0.5623	-0.287
Mof_H 	H 	0.1312	0.964	0.6086	0.15
Mof_O 	O 	0.6696	0.6633	0.0801	-0.32
Mof_C 	C 	0.9857	0.56864	0.3084	0.381
Mof_C 	C 	0.7335	0.6329	0.2338	-0.314
Mof_H 	H 	0.6723	0.6403	0.2596	0.15
Mof_C 	C 	0.5367	0.71674	0.148	-0.325
Mof_H 	H 	0.5106	0.6799	0.1683	0.154
Mof_C 	C 	0.8116	0.60902	0.2867	0.187
Mof_H 	H 	0.8032	0.6011	0.349	-0.012
Mof_C 	C 	0.0912	0.9985	0.8921	0.211
Mof_H 	H 	0.0542	0.9801	0.9374	-0.014
Mof_C 	C 	0.089	0.0502	0.5783	0.309
Mof_C 	C 	0.8357	0.633	0.103	-0.311
Mof_H 	H 	0.8436	0.6406	0.0405	0.16
Mof_C 	C 	0.7475	0.6456	0.1423	0.319
Mof_C 	C 	0.6159	0.82551	0.0898	0.189
Mof_H 	H 	0.6426	0.8622	0.0698	-0.012
Mof_C 	C 	0.9129	0.609	0.1567	0.188
Mof_H 	H 	0.9736	0.601	0.1303	-0.01
Mof_Cd	Cd	0.17501	0.48078	0.32615	0.495
Mof_O 	O 	0.1727	0.51283	0.48	-0.297
Mof_O 	O 	0.294	0.55118	0.24583	-0.259
Mof_O 	O 	0.2468	0.46122	0.19267	-0.267
Mof_C 	C 	0.2596	0.49122	0.4998	0.343
Mof_C 	C 	0.0353	0.38472	0.3618	0.347
Mof_C 	C 	0.3379	0.52463	0.0929	-0.143
Mof_O 	O 	0.5268	0.07028	0.10581	-0.296
Mof_O 	O 	0.1209	0.38107	0.3338	-0.278
Mof_C 	C 	0.9762	0.32526	0.3689	-0.16
Mof_C 	C 	0.3071	0.50739	0.5923	-0.185
Mof_C 	C 	0.291	0.51148	0.1836	0.323
Mof_O 	O 	0.4508	0.56461	0.83719	-0.294
Mof_O 	O 	0.9928	0.4328	0.3817	-0.294
Mof_C 	C 	0.4557	0.5168	0.6901	-0.288
Mof_H 	H 	0.5241	0.5114	0.6997	0.165
Mof_C 	C 	0.401	0.54291	0.7574	0.307
Mof_C 	C 	0.2531	0.53408	0.6612	0.158
Mof_H 	H 	0.1849	0.5404	0.6514	0.003
Mof_C 	C 	0.3803	0.58075	0.0756	0.108
Mof_H 	H 	0.3843	0.6101	0.1222	0.007
Mof_C 	C 	0.3345	0.4807	0.0235	0.111
Mof_H 	H 	0.3073	0.4424	0.0348	0.021
Mof_C 	C 	0.2987	0.55134	0.7439	-0.284
Mof_H 	H 	0.2615	0.5684	0.7903	0.145
Mof_O 	O 	0.3057	0.46141	0.44255	-0.271
Mof_C 	C 	0.5981	0.09663	0.2511	-0.205
Mof_C 	C 	0.8742	0.2179	0.3943	0.308
Mof_C 	C 	0.0138	0.27004	0.3396	0.141
Mof_H 	H 	0.0746	0.2692	0.311	0.004
Mof_O 	O 	0.4408	0.04769	0.23056	-0.29
Mof_C 	C 	0.8331	0.2723	0.4213	-0.284
Mof_H 	H 	0.7708	0.2729	0.4472	0.149
Mof_C 	C 	0.4169	0.59407	0.9895	-0.233
Mof_H 	H 	0.445	0.6321	0.978	0.144
Mof_C 	C 	0.3711	0.4935	0.9377	-0.237
Mof_H 	H 	0.3688	0.464	0.8914	0.134
Mof_O 	O 	0.8304	0.1633	0.4199	-0.31
Mof_C 	C 	0.5143	0.06864	0.1916	0.371
Mof_C 	C 	0.7665	0.1329	0.2662	-0.312
Mof_H 	H 	0.8277	0.1403	0.2404	0.148
Mof_C 	C 	0.9633	0.21674	0.352	-0.28
Mof_H 	H 	0.9894	0.1799	0.3317	0.142
Mof_C 	C 	0.6884	0.10902	0.2133	0.184
Mof_H 	H 	0.6968	0.1011	0.151	-0.014
Mof_C 	C 	0.4088	0.4985	0.6079	0.164
Mof_H 	H 	0.4458	0.4801	0.5626	-0.002
Mof_C 	C 	0.411	0.5502	0.9217	0.281
Mof_C 	C 	0.6643	0.133	0.397	-0.309
Mof_H 	H 	0.6564	0.1406	0.4595	0.161
Mof_C 	C 	0.7525	0.1456	0.3577	0.316
Mof_C 	C 	0.8841	0.32551	0.4102	0.157
Mof_H 	H 	0.8574	0.3622	0.4302	0.002
Mof_C 	C 	0.5871	0.109	0.3433	0.186
Mof_H 	H 	0.5264	0.101	0.3697	-0.011
Mof_Cd	Cd	0.5	0	-0	0.504
Mof_Cd	Cd	2.10399e-33	0.5	0.5	0.517
_end
