data_functionalizedCrystal
_audit_creation_method	'EQeq! by Chris Wilmer'
_symmetry_space_group_name_H-M	'P1'
_symmetry_Int_Tables_number	1
_symmetry_cell_setting	triclinic
loop_
_symmetry_equiv_pos_as_xyz
  x,y,z
_cell_length_a	15.638
_cell_length_b	15.638
_cell_length_c	18.499
_cell_angle_alpha	90
_cell_angle_beta	90
_cell_angle_gamma	120
loop_
_atom_site_label
_atom_site_type_symbol
_atom_site_fract_x
_atom_site_fract_y
_atom_site_fract_z
_atom_site_charge
Mof_Ni	Ni	0.82381	-1.28866e-32	0.5	1.071
Mof_Ni	Ni	3.38907e-17	0.82381	0.16667	1.071
Mof_Ni	Ni	0.17619	0.17619	0.83333	1.075
Mof_H 	H 	0.9891	0.8969	0.01713	0.021
Mof_H 	H 	0.8055	0.6544	0.11373	0.001
Mof_H 	H 	0.6024	0.7053	0.65213	0.102
Mof_H 	H 	0.6833	0.6214	0.21343	0.079
Mof_H 	H 	0.9381	0.3167	0.54677	0.087
Mof_H 	H 	0.3786	0.0619	0.8801	0.073
Mof_H 	H 	0.0922	0.1031	0.98287	-0
Mof_H 	H 	0.3456	0.1511	0.7804	0.001
Mof_H 	H 	0.0619	0.3786	0.78657	0.072
Mof_H 	H 	0.8971	0.2947	0.34787	0.103
Mof_H 	H 	0.9566	0.1053	0.24937	0.1
Mof_H 	H 	0.4399	0.4995	0.73473	0.102
Mof_H 	H 	0.2954	0.3561	0.73913	0.011
Mof_H 	H 	0.8513	0.8947	0.75063	0.107
Mof_H 	H 	0.8489	0.1945	0.44707	0
Mof_H 	H 	0.1053	0.9566	0.4173	0.1
Mof_H 	H 	0.8969	0.9891	0.64953	0.022
Mof_H 	H 	0.7053	0.6024	0.01453	0.104
Mof_H 	H 	0.9393	0.6439	0.26087	0.012
Mof_H 	H 	0.1511	0.3456	0.88627	0.001
Mof_H 	H 	0.9078	0.0109	0.35047	0.001
Mof_H 	H 	0.0596	0.5601	0.06807	0.096
Mof_H 	H 	0.6214	0.6833	0.45323	0.08
Mof_H 	H 	0.0607	0.7046	0.07247	0.011
Mof_H 	H 	0.2947	0.8971	0.3188	0.103
Mof_H 	H 	0.1487	0.0434	0.5827	0.093
Mof_H 	H 	0.9404	0.5005	0.26527	0.096
Mof_H 	H 	0.6439	0.9393	0.4058	0.011
Mof_H 	H 	0.1029	0.3976	0.98547	0.101
Mof_H 	H 	0.8947	0.8513	0.91603	0.106
Mof_H 	H 	0.0109	0.9078	0.3162	0.001
Mof_H 	H 	0.3561	0.2954	0.92753	0.011
Mof_H 	H 	0.3167	0.9381	0.1199	0.086
Mof_H 	H 	0.5005	0.9404	0.4014	0.096
Mof_H 	H 	0.3976	0.1029	0.6812	0.101
Mof_H 	H 	0.1031	0.0922	0.6838	0.001
Mof_H 	H 	0.7046	0.0607	0.5942	0.011
Mof_H 	H 	0.4995	0.4399	0.93193	0.102
Mof_H 	H 	0.1945	0.8489	0.2196	0
Mof_H 	H 	0.0434	0.1487	0.08397	0.094
Mof_H 	H 	0.5601	0.0596	0.5986	0.096
Mof_H 	H 	0.6544	0.8055	0.55293	0.002
Mof_C 	C 	0.2634	0.9787	0.0346	-0.015
Mof_C 	C 	0.0687	0.9047	0.317	0.095
Mof_C 	C 	0.5118	-1.28866e-32	0.5	0.05
Mof_C 	C 	0.7867	0.7216	0.95393	0.088
Mof_C 	C 	0.7153	0.7366	0.36793	-0.033
Mof_C 	C 	0.8097	0.8744	0.71063	-0.134
Mof_C 	C 	4.87264e-18	0.4171	0.16667	0.098
Mof_C 	C 	0.6712	0.631	0.26113	-0.054
Mof_C 	C 	0.631	0.6712	0.40553	-0.054
Mof_C 	C 	0.836	0.9313	0.65033	0.099
Mof_C 	C 	0.1739	0.9631	0.0761	0.38
Mof_C 	C 	0.2784	0.0651	0.6206	0.08
Mof_C 	C 	0.338	0.3729	0.77833	0.099
Mof_C 	C 	0.3288	0.9598	0.0722	-0.068
Mof_C 	C 	0.8261	0.7892	0.25723	0.36
Mof_C 	C 	0.2847	0.0213	0.9654	-0.057
Mof_C 	C 	0.5829	0.5829	0.83333	0.112
Mof_C 	C 	0.4171	-1.28866e-32	0.5	0.098
Mof_C 	C 	0.2133	0.9349	0.3794	0.079
Mof_C 	C 	0.9747	0.4138	0.63077	0.101
Mof_C 	C 	0.0253	0.4391	0.70257	0.041
Mof_C 	C 	0.4391	0.0253	0.9641	0.044
Mof_C 	C 	4.87264e-18	0.5118	0.16667	0.05
Mof_C 	C 	0.278	0.9678	0.4431	0.122
Mof_C 	C 	0.0647	0.1903	0.04397	-0.142
Mof_C 	C 	0.1758	0.8703	0.2604	0.102
Mof_C 	C 	0.9646	0.5406	0.22457	-0.112
Mof_C 	C 	0.6898	0.722	0.77643	0.106
Mof_C 	C 	0.2108	0.0369	0.9239	0.343
Mof_C 	C 	0.0651	0.2784	0.04607	0.077
Mof_C 	C 	0.164	0.0953	0.683	0.093
Mof_C 	C 	0.7892	0.8261	0.40943	0.36
Mof_C 	C 	0.7631	0.6634	0.01373	-0.149
Mof_C 	C 	0.8703	0.1758	0.40627	0.102
Mof_C 	C 	0.9787	0.2634	0.63207	-0.01
Mof_C 	C 	0.0322	0.3102	0.10977	0.099
Mof_C 	C 	0.4594	0.424	0.89123	-0.142
Mof_C 	C 	0.1297	0.3055	0.92707	0.1
Mof_C 	C 	0.2369	0.9003	0.3196	-0.143
Mof_C 	C 	0.9631	0.1739	0.59057	0.38
Mof_C 	C 	0.0213	0.2847	0.70127	-0.062
Mof_C 	C 	0.1256	0.9353	0.3773	-0.136
Mof_C 	C 	0.5406	0.9646	0.4421	-0.112
Mof_C 	C 	0.9047	0.0687	0.34967	0.095
Mof_C 	C 	0.9353	0.1256	0.28937	-0.136
Mof_C 	C 	0.0354	0.576	0.10877	-0.132
Mof_C 	C 	0.9651	0.6271	0.22167	0.113
Mof_C 	C 	0.9349	0.2133	0.28727	0.079
Mof_C 	C 	0.0369	0.2108	0.74277	0.348
Mof_C 	C 	0.3729	0.338	0.88833	0.099
Mof_C 	C 	0.3055	0.1297	0.7396	0.101
Mof_C 	C 	0.6945	0.8242	0.59373	0.107
Mof_C 	C 	0.9678	0.278	0.22357	0.121
Mof_C 	C 	0.5862	0.5609	0.29743	0.071
Mof_C 	C 	0.5609	0.5862	0.36923	0.071
Mof_C 	C 	0.9313	0.836	0.01633	0.094
Mof_C 	C 	0.424	0.4594	0.77543	-0.142
Mof_C 	C 	0.722	0.6898	0.89023	0.106
Mof_C 	C 	0.576	0.0354	0.5579	-0.132
Mof_C 	C 	0.3366	0.0997	0.6804	-0.146
Mof_C 	C 	0.4138	0.9747	0.0359	0.097
Mof_C 	C 	0.0349	0.662	0.11167	0.087
Mof_C 	C 	0.7366	0.7153	0.29873	-0.033
Mof_C 	C 	0.1903	0.0647	0.6227	-0.139
Mof_C 	C 	0.3102	0.0322	0.5569	0.099
Mof_C 	C 	0.7216	0.7867	0.71273	0.086
Mof_C 	C 	0.6271	0.9651	0.445	0.113
Mof_C 	C 	0.0997	0.3366	0.98627	-0.142
Mof_C 	C 	0.9598	0.3288	0.59447	-0.071
Mof_C 	C 	0.6634	0.7631	0.65293	-0.144
Mof_C 	C 	0.0402	0.369	0.73887	-0.035
Mof_C 	C 	0.0953	0.164	0.98367	0.097
Mof_C 	C 	0.4882	0.4882	0.83333	0.079
Mof_C 	C 	0.369	0.0402	0.9278	-0.039
Mof_C 	C 	0.662	0.0349	0.555	0.087
Mof_C 	C 	0.9003	0.2369	0.34707	-0.143
Mof_C 	C 	0.8744	0.8097	0.95603	-0.129
Mof_C 	C 	0.8242	0.6945	0.07293	0.108
Mof_N 	N 	0.9082	0.7786	0.07434	-0.229
Mof_N 	N 	0.7516	0.7516	0.83333	-0.129
Mof_N 	N 	0.0626	0.5366	0.73747	-0.002
Mof_N 	N 	0.2214	0.1296	0.74101	-0.238
Mof_N 	N 	0.2484	-1.28866e-32	0.5	-0.146
Mof_N 	N 	0.6373	0.6044	0.89213	-0.134
Mof_N 	N 	0.6044	0.6373	0.77453	-0.135
Mof_N 	N 	0.7786	0.9082	0.59232	-0.229
Mof_N 	N 	0.5366	0.0626	0.9292	-0.002
Mof_N 	N 	0.6896	-1.28866e-32	0.5	-0.243
Mof_N 	N 	0.526	0.4634	0.26253	-0.005
Mof_N 	N 	0.0329	0.3956	0.10787	-0.136
Mof_N 	N 	0.1296	0.2214	0.92566	-0.239
Mof_N 	N 	0.474	0.9374	0.0708	-0.009
Mof_N 	N 	3.38907e-17	0.6896	0.16667	-0.243
Mof_N 	N 	0.9374	0.474	0.59587	-0.009
Mof_N 	N 	0.0918	0.8704	0.25899	-0.239
Mof_N 	N 	1.93817e-17	0.2484	0.16667	-0.146
Mof_N 	N 	0.3627	0.9671	0.4412	-0.126
Mof_N 	N 	0.9671	0.3627	0.22547	-0.126
Mof_N 	N 	0.8704	0.0918	0.40768	-0.239
Mof_N 	N 	0.3956	0.0329	0.5588	-0.135
Mof_N 	N 	0.3104	0.3104	0.83333	-0.231
Mof_N 	N 	0.4634	0.526	0.40413	-0.005
Mof_O 	O 	0.881	0.1248	0.56404	-0.426
Mof_O 	O 	0.461	0.4037	0.30233	-0.077
Mof_O 	O 	0.119	0.2438	0.7693	-0.417
Mof_O 	O 	0.0317	0.1576	0.58617	-0.311
Mof_O 	O 	0.926	0.472	0.53037	-0.097
Mof_O 	O 	0.0573	0.5963	0.69767	-0.084
Mof_O 	O 	0.528	0.454	0.19703	-0.104
Mof_O 	O 	0.1259	0.9683	0.9195	-0.27
Mof_O 	O 	0.472	0.926	0.1363	-0.097
Mof_O 	O 	0.5963	0.0573	0.969	-0.084
Mof_O 	O 	0.7562	0.8752	0.43596	-0.407
Mof_O 	O 	0.074	0.546	0.80297	-0.105
Mof_O 	O 	0.539	0.9427	0.031	-0.063
Mof_O 	O 	0.8741	0.8424	0.41383	-0.272
Mof_O 	O 	0.9683	0.1259	0.74717	-0.275
Mof_O 	O 	0.454	0.528	0.46963	-0.103
Mof_O 	O 	0.8424	0.8741	0.25283	-0.273
Mof_O 	O 	0.1248	0.881	0.10263	-0.426
Mof_O 	O 	0.2438	0.119	0.89737	-0.415
Mof_O 	O 	0.1576	0.0317	0.0805	-0.311
Mof_O 	O 	0.9427	0.539	0.63567	-0.062
Mof_O 	O 	0.4037	0.461	0.36433	-0.077
Mof_O 	O 	0.546	0.074	0.8637	-0.106
Mof_O 	O 	0.8752	0.7562	0.2307	-0.407
_end
