data_functionalizedCrystal
_audit_creation_method	'EQeq! by Chris Wilmer'
_symmetry_space_group_name_H-M	'P1'
_symmetry_Int_Tables_number	1
_symmetry_cell_setting	triclinic
loop_
_symmetry_equiv_pos_as_xyz
  x,y,z
_cell_length_a	10.626
_cell_length_b	10.626
_cell_length_c	25.718
_cell_angle_alpha	90
_cell_angle_beta	90
_cell_angle_gamma	90
loop_
_atom_site_label
_atom_site_type_symbol
_atom_site_fract_x
_atom_site_fract_y
_atom_site_fract_z
_atom_site_charge
Mof_N 	N 	0.0395	0.0883	0.1668	-0.271
Mof_C 	C 	0.133	0.0113	0.1541	0.113
Mof_C 	C 	0.1737	0.9117	0.1811	-0.2
Mof_C 	C 	0.118	0.8871	0.228	0.141
Mof_C 	C 	0.022	0.9662	0.2454	-0.279
Mof_C 	C 	0.9828	0.0618	0.2135	0.198
Mof_C 	C 	0.8822	0.1437	0.229	-0.119
Mof_C 	C 	0.7976	0.2104	0.2424	0.028
Mof_H 	H 	0.1755	0.0287	0.1225	-0.025
Mof_H 	H 	0.2392	0.8596	0.1681	0.092
Mof_H 	H 	0.1446	0.8175	0.2484	-0.026
Mof_H 	H 	0.9846	0.9541	0.2786	0.139
Mof_N 	N 	0.5395	0.5883	0.6668	-0.241
Mof_C 	C 	0.633	0.5113	0.6541	0.093
Mof_C 	C 	0.6737	0.4117	0.6811	-0.155
Mof_C 	C 	0.618	0.3871	0.728	0.072
Mof_C 	C 	0.522	0.4662	0.7454	-0.156
Mof_C 	C 	0.4828	0.5618	0.7135	0.116
Mof_C 	C 	0.3822	0.6437	0.729	-0.098
Mof_C 	C 	0.2976	0.7104	0.7424	0.015
Mof_H 	H 	0.6755	0.5287	0.6225	-0.015
Mof_H 	H 	0.7392	0.3596	0.6681	0.078
Mof_H 	H 	0.6446	0.3175	0.7484	0.002
Mof_H 	H 	0.4846	0.4541	0.7786	0.082
Mof_N 	N 	0.4605	0.9117	0.6668	-0.242
Mof_C 	C 	0.367	0.9887	0.6541	0.1
Mof_C 	C 	0.3263	0.0883	0.6811	-0.163
Mof_C 	C 	0.382	0.1129	0.728	0.076
Mof_C 	C 	0.478	0.0338	0.7454	-0.161
Mof_C 	C 	0.5172	0.9382	0.7135	0.116
Mof_C 	C 	0.6178	0.8563	0.729	-0.086
Mof_C 	C 	0.7024	0.7896	0.7424	-0.003
Mof_H 	H 	0.3245	0.9713	0.6225	-0.019
Mof_H 	H 	0.2608	0.1404	0.6681	0.078
Mof_H 	H 	0.3554	0.1825	0.7484	-0
Mof_H 	H 	0.5154	0.0459	0.7786	0.082
Mof_N 	N 	0.9605	0.4117	0.1668	-0.205
Mof_C 	C 	0.867	0.4887	0.1541	0.06
Mof_C 	C 	0.8263	0.5883	0.1811	-0.092
Mof_C 	C 	0.882	0.6129	0.228	-0.012
Mof_C 	C 	0.978	0.5338	0.2454	-0.016
Mof_C 	C 	0.0172	0.4382	0.2135	0.02
Mof_C 	C 	0.1178	0.3563	0.229	-0.06
Mof_C 	C 	0.2024	0.2896	0.2424	-0.018
Mof_H 	H 	0.8245	0.4713	0.1225	-0.003
Mof_H 	H 	0.7608	0.6404	0.1681	0.058
Mof_H 	H 	0.8554	0.6825	0.2484	0.035
Mof_H 	H 	0.0154	0.5459	0.2786	0.019
Mof_N 	N 	0.6617	0.2895	0.4168	-0.24
Mof_C 	C 	0.7387	0.383	0.4041	0.094
Mof_C 	C 	0.8383	0.4237	0.4311	-0.151
Mof_C 	C 	0.8629	0.368	0.478	0.071
Mof_C 	C 	0.7838	0.272	0.4954	-0.151
Mof_C 	C 	0.6882	0.2328	0.4635	0.112
Mof_C 	C 	0.6063	0.1322	0.479	-0.088
Mof_C 	C 	0.5396	0.0476	0.4924	-0.001
Mof_H 	H 	0.7213	0.4255	0.3725	-0.014
Mof_H 	H 	0.8904	0.4892	0.4181	0.082
Mof_H 	H 	0.9325	0.3946	0.4984	0.01
Mof_H 	H 	0.7959	0.2346	0.5286	0.082
Mof_N 	N 	0.1617	0.7895	0.9168	-0.241
Mof_C 	C 	0.2387	0.883	0.9041	0.089
Mof_C 	C 	0.3383	0.9237	0.9311	-0.149
Mof_C 	C 	0.3629	0.868	0.978	0.065
Mof_C 	C 	0.2838	0.772	0.9954	-0.147
Mof_C 	C 	0.1882	0.7328	0.9635	0.099
Mof_C 	C 	0.1063	0.6322	0.979	-0.072
Mof_C 	C 	0.0396	0.5476	0.9924	-0.044
Mof_H 	H 	0.2213	0.9255	0.8725	-0.016
Mof_H 	H 	0.3904	0.9892	0.9181	0.076
Mof_H 	H 	0.4325	0.8946	0.9984	0.005
Mof_H 	H 	0.2959	0.7346	0.0286	0.077
Mof_N 	N 	0.8383	0.7105	0.9168	-0.238
Mof_C 	C 	0.7613	0.617	0.9041	0.097
Mof_C 	C 	0.6617	0.5763	0.9311	-0.158
Mof_C 	C 	0.6371	0.632	0.978	0.077
Mof_C 	C 	0.7162	0.728	0.9954	-0.164
Mof_C 	C 	0.8118	0.7672	0.9635	0.129
Mof_C 	C 	0.8937	0.8678	0.979	-0.111
Mof_C 	C 	0.9604	0.9524	0.9924	0.061
Mof_H 	H 	0.7787	0.5745	0.8725	-0.014
Mof_H 	H 	0.6096	0.5108	0.9181	0.078
Mof_H 	H 	0.5675	0.6054	0.9984	0
Mof_H 	H 	0.7041	0.7654	0.0286	0.086
Mof_N 	N 	0.3383	0.2105	0.4168	-0.241
Mof_C 	C 	0.2613	0.117	0.4041	0.091
Mof_C 	C 	0.1617	0.0763	0.4311	-0.155
Mof_C 	C 	0.1371	0.132	0.478	0.068
Mof_C 	C 	0.2162	0.228	0.4954	-0.157
Mof_C 	C 	0.3118	0.2672	0.4635	0.112
Mof_C 	C 	0.3937	0.3678	0.479	-0.092
Mof_C 	C 	0.4604	0.4524	0.4924	0.006
Mof_H 	H 	0.2787	0.0745	0.3725	-0.017
Mof_H 	H 	0.1096	0.0108	0.4181	0.07
Mof_H 	H 	0.0675	0.1054	0.4984	-0.006
Mof_H 	H 	0.2041	0.2654	0.5286	0.079
Mof_N 	N 	0.9605	0.9117	0.8332	-0.208
Mof_C 	C 	0.867	0.9887	0.8459	0.068
Mof_C 	C 	0.8263	0.0883	0.8189	-0.103
Mof_C 	C 	0.882	0.1129	0.772	-0.004
Mof_C 	C 	0.978	0.0338	0.7546	-0.026
Mof_C 	C 	0.0172	0.9382	0.7865	0.027
Mof_C 	C 	0.1178	0.8563	0.771	-0.062
Mof_C 	C 	0.2024	0.7896	0.7576	-0.017
Mof_H 	H 	0.8245	0.9713	0.8775	-0.005
Mof_H 	H 	0.7608	0.1404	0.8319	0.061
Mof_H 	H 	0.8554	0.1825	0.7516	0.032
Mof_H 	H 	0.0154	0.0459	0.7214	0.022
Mof_N 	N 	0.4605	0.4117	0.3332	-0.24
Mof_C 	C 	0.367	0.4887	0.3459	0.092
Mof_C 	C 	0.3263	0.5883	0.3189	-0.152
Mof_C 	C 	0.382	0.6129	0.272	0.069
Mof_C 	C 	0.478	0.5338	0.2546	-0.152
Mof_C 	C 	0.5172	0.4382	0.2865	0.11
Mof_C 	C 	0.6178	0.3563	0.271	-0.085
Mof_C 	C 	0.7024	0.2896	0.2576	-0.004
Mof_H 	H 	0.3245	0.4713	0.3775	-0.017
Mof_H 	H 	0.2608	0.6404	0.3319	0.075
Mof_H 	H 	0.3554	0.6825	0.2516	0.002
Mof_H 	H 	0.5154	0.5459	0.2214	0.08
Mof_N 	N 	0.5395	0.0883	0.3332	-0.239
Mof_C 	C 	0.633	0.0113	0.3459	0.083
Mof_C 	C 	0.6737	0.9117	0.3189	-0.141
Mof_C 	C 	0.618	0.8871	0.272	0.062
Mof_C 	C 	0.522	0.9662	0.2546	-0.145
Mof_C 	C 	0.4828	0.0618	0.2865	0.108
Mof_C 	C 	0.3822	0.1437	0.271	-0.096
Mof_C 	C 	0.2976	0.2104	0.2576	0.014
Mof_H 	H 	0.6755	0.0287	0.3775	-0.012
Mof_H 	H 	0.7392	0.8596	0.3319	0.075
Mof_H 	H 	0.6446	0.8175	0.2516	0.006
Mof_H 	H 	0.4846	0.9541	0.2214	0.079
Mof_N 	N 	0.0395	0.5883	0.8332	-0.273
Mof_C 	C 	0.133	0.5113	0.8459	0.124
Mof_C 	C 	0.1737	0.4117	0.8189	-0.214
Mof_C 	C 	0.118	0.3871	0.772	0.152
Mof_C 	C 	0.022	0.4662	0.7546	-0.292
Mof_C 	C 	0.9828	0.5618	0.7865	0.206
Mof_C 	C 	0.8822	0.6437	0.771	-0.121
Mof_C 	C 	0.7976	0.7104	0.7576	0.03
Mof_H 	H 	0.1755	0.5287	0.8775	-0.028
Mof_H 	H 	0.2392	0.3596	0.8319	0.096
Mof_H 	H 	0.1446	0.3175	0.7516	-0.03
Mof_H 	H 	0.9846	0.4541	0.7214	0.143
Mof_N 	N 	0.3383	0.7105	0.5832	-0.241
Mof_C 	C 	0.2613	0.617	0.5959	0.091
Mof_C 	C 	0.1617	0.5763	0.5689	-0.156
Mof_C 	C 	0.1371	0.632	0.522	0.069
Mof_C 	C 	0.2162	0.728	0.5046	-0.158
Mof_C 	C 	0.3118	0.7672	0.5365	0.114
Mof_C 	C 	0.3937	0.8678	0.521	-0.095
Mof_C 	C 	0.4604	0.9524	0.5076	0.012
Mof_H 	H 	0.2787	0.5745	0.6275	-0.017
Mof_H 	H 	0.1096	0.5108	0.5819	0.071
Mof_H 	H 	0.0675	0.6054	0.5016	-0.005
Mof_H 	H 	0.2041	0.7654	0.4714	0.08
Mof_N 	N 	0.8383	0.2105	0.0832	-0.238
Mof_C 	C 	0.7613	0.117	0.0959	0.096
Mof_C 	C 	0.6617	0.0763	0.0689	-0.157
Mof_C 	C 	0.6371	0.132	0.022	0.075
Mof_C 	C 	0.7162	0.228	0.0046	-0.162
Mof_C 	C 	0.8118	0.2672	0.0365	0.127
Mof_C 	C 	0.8937	0.3678	0.021	-0.109
Mof_C 	C 	0.9604	0.4524	0.0076	0.056
Mof_H 	H 	0.7787	0.0745	0.1275	-0.014
Mof_H 	H 	0.6096	0.0108	0.0819	0.077
Mof_H 	H 	0.5675	0.1054	0.0016	-0
Mof_H 	H 	0.7041	0.2654	0.9714	0.084
Mof_N 	N 	0.1617	0.2895	0.0832	-0.241
Mof_C 	C 	0.2387	0.383	0.0959	0.088
Mof_C 	C 	0.3383	0.4237	0.0689	-0.149
Mof_C 	C 	0.3629	0.368	0.022	0.063
Mof_C 	C 	0.2838	0.272	0.0046	-0.145
Mof_C 	C 	0.1882	0.2328	0.0365	0.097
Mof_C 	C 	0.1063	0.1322	0.021	-0.07
Mof_C 	C 	0.0396	0.0476	0.0076	-0.05
Mof_H 	H 	0.2213	0.4255	0.1275	-0.016
Mof_H 	H 	0.3904	0.4892	0.0819	0.075
Mof_H 	H 	0.4325	0.3946	0.0016	0.004
Mof_H 	H 	0.2959	0.2346	0.9714	0.076
Mof_N 	N 	0.6617	0.7895	0.5832	-0.24
Mof_C 	C 	0.7387	0.883	0.5959	0.094
Mof_C 	C 	0.8383	0.9237	0.5689	-0.151
Mof_C 	C 	0.8629	0.868	0.522	0.072
Mof_C 	C 	0.7838	0.772	0.5046	-0.152
Mof_C 	C 	0.6882	0.7328	0.5365	0.114
Mof_C 	C 	0.6063	0.6322	0.521	-0.09
Mof_C 	C 	0.5396	0.5476	0.5076	0.006
Mof_H 	H 	0.7213	0.9255	0.6275	-0.014
Mof_H 	H 	0.8904	0.9892	0.5819	0.083
Mof_H 	H 	0.9325	0.8946	0.5016	0.01
Mof_H 	H 	0.7959	0.7346	0.4714	0.083
Mof_Cu	Cu	0.5	0.25	0.375	0.857
Mof_Cu	Cu	-9.44585e-33	0.75	0.875	0.846
Mof_Cu	Cu	0.5	0.75	0.625	0.857
Mof_Cu	Cu	3.3076e-33	0.25	0.125	0.846
_end
