# CIF file generated by openbabel 3.1.0, see https://openbabel.org
data_I
_chemical_name_common 'image0'
_cell_length_a 6.5581
_cell_length_b 16.425
_cell_length_c 13.1592
_cell_angle_alpha 90
_cell_angle_beta 90
_cell_angle_gamma 90.5028
_space_group_name_H-M_alt 'P 1'
_space_group_name_Hall 'P 1'
loop_
    _symmetry_equiv_pos_as_xyz
    x,y,z
loop_
    _atom_site_label
    _atom_site_type_symbol
    _atom_site_fract_x
    _atom_site_fract_y
    _atom_site_fract_z
    _atom_site_occupancy
    O1       O        0.16050    0.17310    0.84840    1.000
    O2       O        0.81980    0.66140    0.16820    1.000
    C1       C        0.80710    0.02480    0.95240    1.000
    C2       C        0.00450    0.06600    0.94360    1.000
    C3       C        0.99190    0.13500    0.86550    1.000
    C4       C        0.19770    0.53990    0.02430    1.000
    O3       O        0.66050    0.67310    0.34840    1.000
    O4       O        0.31980    0.16140    0.66820    1.000
    C5       C        0.30710    0.52480    0.45240    1.000
    C6       C        0.50450    0.56600    0.44360    1.000
    C7       C        0.49190    0.63500    0.36550    1.000
    C8       C        0.69770    0.03990    0.52430    1.000
    O5       O        0.83950    0.32690    0.84840    1.000
    O6       O        0.18020    0.83860    0.16820    1.000
    C9       C        0.19290    0.47520    0.95240    1.000
    C10      C        0.99550    0.43400    0.94360    1.000
    C11      C        0.00810    0.36500    0.86550    1.000
    C12      C        0.80230    0.96010    0.02430    1.000
    O7       O        0.33950    0.82690    0.34840    1.000
    O8       O        0.68020    0.33860    0.66820    1.000
    C13      C        0.69290    0.97520    0.45240    1.000
    C14      C        0.49550    0.93400    0.44360    1.000
    C15      C        0.50810    0.86500    0.36550    1.000
    C16      C        0.30230    0.46010    0.52430    1.000
    O9       O        0.83950    0.82690    0.15160    1.000
    O10      O        0.18020    0.33860    0.83180    1.000
    C17      C        0.19290    0.97520    0.04760    1.000
    C18      C        0.99550    0.93400    0.05640    1.000
    C19      C        0.00810    0.86500    0.13450    1.000
    C20      C        0.80230    0.46010    0.97570    1.000
    O11      O        0.33950    0.32690    0.65160    1.000
    O12      O        0.68020    0.83860    0.33180    1.000
    C21      C        0.69290    0.47520    0.54760    1.000
    C22      C        0.49550    0.43400    0.55640    1.000
    C23      C        0.50810    0.36500    0.63450    1.000
    C24      C        0.30230    0.96010    0.47570    1.000
    O13      O        0.16050    0.67310    0.15160    1.000
    O14      O        0.81980    0.16140    0.83180    1.000
    C25      C        0.80710    0.52480    0.04760    1.000
    C26      C        0.00450    0.56600    0.05640    1.000
    C27      C        0.99190    0.63500    0.13450    1.000
    C28      C        0.19770    0.03990    0.97570    1.000
    O15      O        0.66050    0.17310    0.65160    1.000
    O16      O        0.31980    0.66140    0.33180    1.000
    C29      C        0.30710    0.02480    0.54760    1.000
    C30      C        0.50450    0.06600    0.55640    1.000
    C31      C        0.49190    0.13500    0.63450    1.000
    C32      C        0.69770    0.53990    0.47570    1.000
    Al1      Al       0.25000    0.25000    0.75000    1.000
    Al2      Al       0.75000    0.25000    0.75000    1.000
    Al3      Al       0.75000    0.75000    0.25000    1.000
    Al4      Al       0.25000    0.75000    0.25000    1.000
    F1       F        0.00000    0.25000    0.69120    1.000
    F2       F        0.50000    0.75000    0.19120    1.000
    F3       F        0.00000    0.75000    0.30880    1.000
    F4       F        0.50000    0.25000    0.80880    1.000
