# CIF file generated by openbabel 3.1.0, see https://openbabel.org
data_I
_chemical_name_common 'ABAVIJ_clean\(2)'
_cell_length_a 9.8064
_cell_length_b 10.6685
_cell_length_c 13.9712
_cell_angle_alpha 95.3024
_cell_angle_beta 110.546
_cell_angle_gamma 74.7329
_space_group_name_H-M_alt 'P 1'
_space_group_name_Hall 'P 1'
loop_
    _symmetry_equiv_pos_as_xyz
    x,y,z
loop_
    _atom_site_label
    _atom_site_type_symbol
    _atom_site_fract_x
    _atom_site_fract_y
    _atom_site_fract_z
    _atom_site_occupancy
    Co1      Co       0.62243    0.88012    0.24882    1.000
    Co2      Co       0.87488    0.38395    0.74792    1.000
    Co3      Co       0.37361    0.38012    0.75118    1.000
    Co4      Co       0.12696    0.88395    0.25208    1.000
    H1       H        0.83300    0.76730    0.12580    1.000
    H2       H        0.84280    0.63980    0.98340    1.000
    H3       H        0.41800    0.61460    0.93560    1.000
    H4       H        0.42310    0.74200    0.08080    1.000
    H5       H        0.90470    0.49070    0.56220    1.000
    H6       H        0.76160    0.61190    0.41520    1.000
    H7       H        0.39070    0.63690    0.48940    1.000
    H8       H        0.54530    0.51100    0.63360    1.000
    H9       H        0.50620    0.16690    0.30840    1.000
    H10      H        0.50480    0.29630    0.45120    1.000
    H11      H        0.74350    0.98270    0.62960    1.000
    H12      H        0.72890    0.85810    0.48460    1.000
    H13      H        0.97890    0.40650    0.98620    1.000
    H14      H        0.11330    0.28220    0.13260    1.000
    H15      H        0.22400    0.98020    0.95260    1.000
    H16      H        0.06760    0.10740    0.81120    1.000
    H17      H        0.70720    0.26730    0.87420    1.000
    H18      H        0.85940    0.13980    0.01660    1.000
    H19      H        0.48240    0.11460    0.06440    1.000
    H20      H        0.34230    0.24200    0.91920    1.000
    H21      H        0.34250    0.99070    0.43780    1.000
    H22      H        0.34640    0.11190    0.58480    1.000
    H23      H        0.90130    0.13690    0.51060    1.000
    H24      H        0.91170    0.01100    0.36640    1.000
    H25      H        0.19780    0.66690    0.69160    1.000
    H26      H        0.05360    0.79630    0.54880    1.000
    H27      H        0.11390    0.48270    0.37040    1.000
    H28      H        0.24430    0.35810    0.51540    1.000
    H29      H        0.99270    0.90650    0.01380    1.000
    H30      H        0.98070    0.78220    0.86740    1.000
    H31      H        0.27140    0.48020    0.04740    1.000
    H32      H        0.25640    0.60740    0.18880    1.000
    C1       C        0.74818    0.73530    0.08696    1.000
    C2       C        0.75461    0.66020    0.00142    1.000
    C3       C        0.62945    0.61520    0.94230    1.000
    C4       C        0.50461    0.64510    0.97322    1.000
    C5       C        0.50919    0.72060    0.06038    1.000
    C6       C        0.63180    0.53350    0.84780    1.000
    C7       C        0.79931    0.52100    0.54722    1.000
    C8       C        0.71486    0.59400    0.45972    1.000
    C9       C        0.56235    0.64040    0.43790    1.000
    C10      C        0.49614    0.60830    0.50328    1.000
    C11      C        0.58939    0.53340    0.58898    1.000
    C12      C        0.46520    0.72610    0.34600    1.000
    C13      C        0.55325    0.12850    0.37430    1.000
    C14      C        0.55271    0.20620    0.45922    1.000
    C15      C        0.62239    0.15190    0.55618    1.000
    C16      C        0.69129    0.02200    0.56418    1.000
    C17      C        0.68481    0.94890    0.47742    1.000
    C18      C        0.61960    0.23330    0.65060    1.000
    C19      C        0.02628    0.31790    0.97916    1.000
    C20      C        0.10899    0.24480    0.06758    1.000
    C21      C        0.18560    0.11620    0.06000    1.000
    C22      C        0.17157    0.06650    0.96154    1.000
    C23      C        0.08068    0.14440    0.87736    1.000
    C24      C        0.28070    0.03230    0.15220    1.000
    C25      C        0.66122    0.23530    0.91304    1.000
    C26      C        0.75319    0.16020    0.99858    1.000
    C27      C        0.68715    0.11520    0.05770    1.000
    C28      C        0.53139    0.14510    0.02678    1.000
    C29      C        0.44881    0.22060    0.93962    1.000
    C30      C        0.78400    0.03350    0.15220    1.000
    C31      C        0.25209    0.02100    0.45278    1.000
    C32      C        0.25514    0.09400    0.54028    1.000
    C33      C        0.12445    0.14040    0.56210    1.000
    C34      C        0.99286    0.10830    0.49672    1.000
    C35      C        0.00041    0.03340    0.41102    1.000
    C36      C        0.11920    0.22610    0.65400    1.000
    C37      C        0.17895    0.62850    0.62570    1.000
    C38      C        0.09349    0.70620    0.54078    1.000
    C39      C        0.06621    0.65190    0.44382    1.000
    C40      C        0.12711    0.52200    0.43582    1.000
    C41      C        0.20739    0.44890    0.52258    1.000
    C42      C        0.96900    0.73330    0.34940    1.000
    C43      C        0.04712    0.81790    0.02084    1.000
    C44      C        0.04141    0.74480    0.93242    1.000
    C45      C        0.12560    0.61620    0.94000    1.000
    C46      C        0.21003    0.56650    0.03846    1.000
    C47      C        0.20332    0.64440    0.12264    1.000
    C48      C        0.12850    0.53230    0.84780    1.000
    N1       N        0.62944    0.76470    0.11708    1.000
    N2       N        0.73837    0.49130    0.61174    1.000
    N3       N        0.61891    0.99930    0.38222    1.000
    N4       N        0.00939    0.27050    0.88438    1.000
    N5       N        0.51236    0.26470    0.88292    1.000
    N6       N        0.12663    0.99130    0.38826    1.000
    N7       N        0.23669    0.49930    0.61778    1.000
    N8       N        0.12501    0.77050    0.11562    1.000
    O1       O        0.75424    0.50320    0.83188    1.000
    O2       O        0.50910    0.50880    0.79320    1.000
    O3       O        0.52483    0.74940    0.28586    1.000
    O4       O        0.32857    0.76720    0.33674    1.000
    O5       O        0.73931    0.25120    0.71422    1.000
    O6       O        0.49046    0.27300    0.65812    1.000
    O7       O        0.21939    0.02230    0.21578    1.000
    O8       O        0.41244    0.98540    0.15648    1.000
    O9       O        0.92236    0.00320    0.16812    1.000
    O10      O        0.71590    0.00880    0.20680    1.000
    O11      O        0.23897    0.24940    0.71414    1.000
    O12      O        0.99183    0.26720    0.66326    1.000
    O13      O        0.02509    0.75120    0.28578    1.000
    O14      O        0.83234    0.77300    0.34188    1.000
    O15      O        0.00361    0.52230    0.78422    1.000
    O16      O        0.25596    0.48540    0.84352    1.000
