data_functionalizedCrystal
_audit_creation_method	'EQeq! by Chris Wilmer'
_symmetry_space_group_name_H-M	'P1'
_symmetry_Int_Tables_number	1
_symmetry_cell_setting	triclinic
loop_
_symmetry_equiv_pos_as_xyz
  x,y,z
_cell_length_a	10.98
_cell_length_b	13.029
_cell_length_c	13.599
_cell_angle_alpha	62.312
_cell_angle_beta	70.921
_cell_angle_gamma	72.954
loop_
_atom_site_label
_atom_site_type_symbol
_atom_site_fract_x
_atom_site_fract_y
_atom_site_fract_z
_atom_site_charge
Mof_Zn	Zn	0.88754	0.47444	0.64676	1.241
Mof_U 	U 	0.57353	0.37904	0.14296	0.037
Mof_U 	U 	0.67639	0.89669	0.47709	0.036
Mof_U 	U 	0.67482	0.37505	0.51718	0.032
Mof_P 	P 	0.7126	0.3737	0.9026	0.493
Mof_P 	P 	0.6754	0.1606	0.4057	0.477
Mof_P 	P 	0.6195	0.5954	0.5801	0.475
Mof_P 	P 	0.9877	0.7019	0.4657	0.497
Mof_O 	O 	0.6641	0.2936	0.8692	-0.154
Mof_O 	O 	0.8259	0.4257	0.8109	-0.381
Mof_O 	O 	0.597	0.4638	0.9287	-0.142
Mof_O 	O 	0.7459	0.2948	0.0197	-0.134
Mof_O 	O 	0.5543	0.0977	0.4599	-0.127
Mof_O 	O 	0.7891	0.0564	0.4173	-0.127
Mof_O 	O 	0.6814	0.2384	0.2812	-0.139
Mof_O 	O 	0.6731	0.2262	0.4727	-0.142
Mof_O 	O 	0.7391	0.4929	0.5849	-0.363
Mof_O 	O 	0.5349	0.566	0.5295	-0.128
Mof_O 	O 	0.662	0.7138	0.4966	-0.163
Mof_O 	O 	0.5574	0.5931	0.6972	-0.175
Mof_O 	O 	0.9454	0.6226	0.5938	-0.381
Mof_O 	O 	0.1262	0.7248	0.4432	-0.164
Mof_O 	O 	0.9829	0.6424	0.3937	-0.431
Mof_O 	O 	0.8934	0.8189	0.4371	-0.137
Mof_Zn	Zn	0.11246	0.52556	0.35324	1.241
Mof_U 	U 	0.42647	0.62096	0.85704	0.037
Mof_U 	U 	0.32361	0.10331	0.52291	0.036
Mof_U 	U 	0.32518	0.62495	0.48282	0.032
Mof_P 	P 	0.2874	0.6263	0.0974	0.493
Mof_P 	P 	0.3246	0.8394	0.5943	0.477
Mof_P 	P 	0.3805	0.4046	0.4199	0.475
Mof_P 	P 	0.0123	0.2981	0.5343	0.497
Mof_O 	O 	0.3359	0.7064	0.1308	-0.154
Mof_O 	O 	0.1741	0.5743	0.1891	-0.381
Mof_O 	O 	0.403	0.5362	0.0713	-0.142
Mof_O 	O 	0.2541	0.7052	0.9803	-0.134
Mof_O 	O 	0.4457	0.9023	0.5401	-0.127
Mof_O 	O 	0.2109	0.9436	0.5827	-0.127
Mof_O 	O 	0.3186	0.7616	0.7188	-0.139
Mof_O 	O 	0.3269	0.7738	0.5273	-0.142
Mof_O 	O 	0.2609	0.5071	0.4151	-0.363
Mof_O 	O 	0.4651	0.434	0.4705	-0.128
Mof_O 	O 	0.338	0.2862	0.5034	-0.163
Mof_O 	O 	0.4426	0.4069	0.3028	-0.175
Mof_O 	O 	0.0546	0.3774	0.4062	-0.381
Mof_O 	O 	0.8738	0.2752	0.5568	-0.164
Mof_O 	O 	0.0171	0.3576	0.6063	-0.431
Mof_O 	O 	0.1066	0.1811	0.5629	-0.137
_end
