data_functionalizedCrystal
_audit_creation_method	'EQeq! by Chris Wilmer'
_symmetry_space_group_name_H-M	'P1'
_symmetry_Int_Tables_number	1
_symmetry_cell_setting	triclinic
loop_
_symmetry_equiv_pos_as_xyz
  x,y,z
_cell_length_a	10.0154
_cell_length_b	10.7448
_cell_length_c	10.9746
_cell_angle_alpha	80.363
_cell_angle_beta	72.521
_cell_angle_gamma	74.593
loop_
_atom_site_label
_atom_site_type_symbol
_atom_site_fract_x
_atom_site_fract_y
_atom_site_fract_z
_atom_site_charge
Mof_Pr	Pr	0.82313	0.30429	0.46464	2.329
Mof_Zn	Zn	0.70708	0.13197	0.88491	1.191
Mof_N 	N 	0.8684	0.1975	0.9247	-0.252
Mof_N 	N 	0.5237	0.2934	0.9326	-0.236
Mof_C 	C 	0.8903	0.1475	0.0397	0.024
Mof_C 	C 	0.7808	0.073	0.1239	0.299
Mof_C 	C 	0.0075	0.1615	0.0746	-0.177
Mof_C 	C 	0.104	0.2264	0.9862	0.095
Mof_H 	H 	0.188	0.226	0.009	-0.009
Mof_C 	C 	0.0795	0.278	0.8691	-0.176
Mof_H 	H 	0.144	0.319	0.804	0.105
Mof_C 	C 	0.9602	0.2622	0.8421	0.128
Mof_H 	H 	0.933	0.299	0.772	-0.046
Mof_C 	C 	0.4421	0.3232	0.0495	0.072
Mof_H 	H 	0.477	0.274	0.117	0.001
Mof_C 	C 	0.3192	0.4222	0.068	-0.118
Mof_H 	H 	0.261	0.44	0.151	0.088
Mof_C 	C 	0.2787	0.4908	0.9615	0.025
Mof_H 	H 	0.201	0.555	0.965	0.028
Mof_C 	C 	0.362	0.4621	0.8392	-0.071
Mof_C 	C 	0.4862	0.3631	0.8296	-0.013
Mof_C 	C 	0.3132	0.5373	0.7254	0.342
Mof_C 	C 	0.5925	0.3302	0.7034	0.306
Mof_C 	C 	0.9397	0.5224	0.5608	0.268
Mof_C 	C 	0.0328	0.1139	0.2047	0.517
Mof_O 	O 	0.6889	0.0582	0.07308	-0.442
Mof_O 	O 	0.7891	0.0307	0.23409	-0.287
Mof_O 	O 	0.976	0.1928	0.28737	-0.611
Mof_O 	O 	0.1136	0.00593	0.22165	-0.514
Mof_O 	O 	0.70443	0.24044	0.70557	-0.619
Mof_O 	O 	0.5724	0.39471	0.603	-0.438
Mof_O 	O 	0.3336	0.65009	0.6922	-0.441
Mof_O 	O 	0.2442	0.48975	0.6747	-0.451
Mof_O 	O 	0.8368	0.4675	0.59454	-0.458
Mof_O 	O 	0.9545	0.6088	0.61478	-0.461
Mof_Pr	Pr	0.17687	0.69571	0.53536	2.33
Mof_Zn	Zn	0.29292	0.86803	0.11509	1.192
Mof_N 	N 	0.1316	0.8025	0.0753	-0.251
Mof_N 	N 	0.4763	0.7066	0.0674	-0.235
Mof_C 	C 	0.1097	0.8525	0.9603	0.024
Mof_C 	C 	0.2192	0.927	0.8761	0.299
Mof_C 	C 	0.9925	0.8385	0.9254	-0.177
Mof_C 	C 	0.896	0.7736	0.0138	0.095
Mof_H 	H 	0.812	0.774	0.991	-0.009
Mof_C 	C 	0.9205	0.722	0.1309	-0.176
Mof_H 	H 	0.856	0.681	0.196	0.105
Mof_C 	C 	0.0398	0.7378	0.1579	0.128
Mof_H 	H 	0.067	0.701	0.228	-0.046
Mof_C 	C 	0.5579	0.6768	0.9505	0.072
Mof_H 	H 	0.523	0.726	0.883	0.001
Mof_C 	C 	0.6808	0.5778	0.932	-0.118
Mof_H 	H 	0.739	0.56	0.849	0.088
Mof_C 	C 	0.7213	0.5092	0.0385	0.025
Mof_H 	H 	0.799	0.445	0.035	0.028
Mof_C 	C 	0.638	0.5379	0.1608	-0.071
Mof_C 	C 	0.5138	0.6369	0.1704	-0.013
Mof_C 	C 	0.6868	0.4627	0.2746	0.342
Mof_C 	C 	0.4075	0.6698	0.2966	0.306
Mof_C 	C 	0.0603	0.4776	0.4392	0.268
Mof_C 	C 	0.9672	0.8861	0.7953	0.517
Mof_O 	O 	0.3111	0.9418	0.92692	-0.442
Mof_O 	O 	0.2109	0.9693	0.76591	-0.287
Mof_O 	O 	0.024	0.8072	0.71263	-0.611
Mof_O 	O 	0.8864	0.99407	0.77835	-0.514
Mof_O 	O 	0.29557	0.75956	0.29443	-0.619
Mof_O 	O 	0.4276	0.60529	0.397	-0.438
Mof_O 	O 	0.6664	0.34991	0.3078	-0.441
Mof_O 	O 	0.7558	0.51025	0.3253	-0.451
Mof_O 	O 	0.1632	0.5325	0.40546	-0.458
Mof_O 	O 	0.0455	0.3912	0.38522	-0.461
_end
