data_functionalizedCrystal
_audit_creation_method	'EQeq! by Chris Wilmer'
_symmetry_space_group_name_H-M	'P1'
_symmetry_Int_Tables_number	1
_symmetry_cell_setting	triclinic
loop_
_symmetry_equiv_pos_as_xyz
  x,y,z
_cell_length_a	26.0119
_cell_length_b	26.0119
_cell_length_c	26.0119
_cell_angle_alpha	90
_cell_angle_beta	90
_cell_angle_gamma	90
loop_
_atom_site_label
_atom_site_type_symbol
_atom_site_fract_x
_atom_site_fract_y
_atom_site_fract_z
_atom_site_charge
Mof_Zn	Zn	0.45548	0.54749	0.54579	1.232
Mof_C 	C 	0.3707	0.6015	0.5086	0.528
Mof_C 	C 	0.3305	0.6154	0.47	-0.436
Mof_C 	C 	0.3177	0.5826	0.4293	0.487
Mof_C 	C 	0.2774	0.5957	0.3964	-0.455
Mof_H 	H 	0.2687	0.5731	0.3701	0.202
Mof_C 	C 	0.2502	0.6402	0.4013	0.343
Mof_C 	C 	0.263	0.672	0.4423	-0.474
Mof_H 	H 	0.245	0.7025	0.4472	0.208
Mof_C 	C 	0.3018	0.6594	0.4759	0.517
Mof_C 	C 	0.2061	0.654	0.3674	-0.165
Mof_C 	C 	0.1945	0.6213	0.3257	0.083
Mof_H 	H 	0.2151	0.5927	0.3192	-0.007
Mof_C 	C 	0.1518	0.6317	0.2938	-0.157
Mof_C 	C 	0.121	0.6736	0.3055	0.085
Mof_H 	H 	0.0922	0.6801	0.2853	-0.002
Mof_C 	C 	0.1319	0.7057	0.346	-0.154
Mof_C 	C 	0.1751	0.6951	0.3764	0.089
Mof_H 	H 	0.1829	0.7169	0.4036	-0.004
Mof_C 	C 	0.1388	0.5962	0.2505	0.335
Mof_C 	C 	0.1749	0.5603	0.2332	-0.446
Mof_H 	H 	0.2072	0.5591	0.2484	0.209
Mof_C 	C 	0.1631	0.5267	0.1939	0.488
Mof_C 	C 	0.1144	0.5275	0.1702	-0.481
Mof_C 	C 	0.0783	0.5626	0.1883	0.591
Mof_C 	C 	0.0907	0.5965	0.2282	-0.483
Mof_H 	H 	0.0661	0.6197	0.2398	0.234
Mof_C 	C 	0.1005	0.4902	0.1289	0.543
Mof_C 	C 	0.0971	0.7485	0.3599	0.303
Mof_C 	C 	0.0605	0.7663	0.3238	-0.415
Mof_H 	H 	0.0594	0.7519	0.2911	0.19
Mof_C 	C 	0.0265	0.8047	0.3365	0.462
Mof_C 	C 	0.0272	0.8268	0.3853	-0.429
Mof_C 	C 	0.0633	0.8098	0.4209	0.503
Mof_C 	C 	0.0971	0.7712	0.409	-0.447
Mof_H 	H 	0.1204	0.7598	0.4337	0.216
Mof_C 	C 	0.9902	0.8683	0.3998	0.53
Mof_O 	O 	0.3967	0.5602	0.5002	-0.476
Mof_O 	O 	0.3781	0.6302	0.5454	-0.479
Mof_O 	O 	0.1317	0.4543	0.1209	-0.512
Mof_O 	O 	0.0615	0.4982	0.1026	-0.505
Mof_O 	O 	0.9541	0.8785	0.3688	-0.492
Mof_O 	O 	0.9982	0.893	0.4401	-0.488
Mof_O 	O 	0.3142	0.695	0.5086	-0.513
Mof_H 	H 	0.2979	0.6909	0.5353	0.285
Mof_O 	O 	0.1996	0.4917	0.182	-0.496
Mof_H 	H 	0.1868	0.4688	0.1644	0.313
Mof_O 	O 	0.9924	0.8178	0.2992	-0.49
Mof_H 	H 	0.9666	0.8301	0.3124	0.322
Mof_O 	O 	0.037	0.561	0.181	-0.351
Mof_O 	O 	0.0625	0.8268	0.4688	-0.487
Mof_H 	H 	0.0431	0.8088	0.486	0.3
Mof_O 	O 	0.351	0.5472	0.4143	-0.491
Mof_H 	H 	0.3508	0.5232	0.4347	0.296
Mof_Zn	Zn	0.04452	0.45251	0.04579	1.233
Mof_C 	C 	0.1293	0.3985	0.0086	0.529
Mof_C 	C 	0.1695	0.3846	0.97	-0.435
Mof_C 	C 	0.1823	0.4174	0.9293	0.488
Mof_C 	C 	0.2226	0.4043	0.8964	-0.454
Mof_H 	H 	0.2313	0.4269	0.8701	0.203
Mof_C 	C 	0.2498	0.3598	0.9013	0.344
Mof_C 	C 	0.237	0.328	0.9423	-0.473
Mof_H 	H 	0.255	0.2975	0.9472	0.209
Mof_C 	C 	0.1982	0.3406	0.9759	0.518
Mof_C 	C 	0.2939	0.346	0.8674	-0.164
Mof_C 	C 	0.3055	0.3787	0.8257	0.084
Mof_H 	H 	0.2849	0.4073	0.8192	-0.006
Mof_C 	C 	0.3482	0.3683	0.7938	-0.156
Mof_C 	C 	0.379	0.3264	0.8055	0.086
Mof_H 	H 	0.4078	0.3199	0.7853	-0.001
Mof_C 	C 	0.3681	0.2943	0.846	-0.153
Mof_C 	C 	0.3249	0.3049	0.8764	0.09
Mof_H 	H 	0.3171	0.2831	0.9036	-0.003
Mof_C 	C 	0.3612	0.4038	0.7505	0.336
Mof_C 	C 	0.3251	0.4397	0.7332	-0.445
Mof_H 	H 	0.2928	0.4409	0.7484	0.21
Mof_C 	C 	0.3369	0.4733	0.6939	0.489
Mof_C 	C 	0.3856	0.4725	0.6702	-0.48
Mof_C 	C 	0.4217	0.4374	0.6883	0.592
Mof_C 	C 	0.4093	0.4035	0.7282	-0.482
Mof_H 	H 	0.4339	0.3803	0.7398	0.235
Mof_C 	C 	0.3995	0.5098	0.6289	0.544
Mof_C 	C 	0.4029	0.2515	0.8599	0.303
Mof_C 	C 	0.4395	0.2337	0.8238	-0.415
Mof_H 	H 	0.4406	0.2481	0.7911	0.19
Mof_C 	C 	0.4735	0.1953	0.8365	0.462
Mof_C 	C 	0.4728	0.1732	0.8853	-0.429
Mof_C 	C 	0.4367	0.1902	0.9209	0.503
Mof_C 	C 	0.4029	0.2288	0.909	-0.447
Mof_H 	H 	0.3796	0.2402	0.9337	0.216
Mof_C 	C 	0.5098	0.1317	0.8998	0.53
Mof_O 	O 	0.1033	0.4398	0.0002	-0.476
Mof_O 	O 	0.1219	0.3698	0.0454	-0.479
Mof_O 	O 	0.3683	0.5457	0.6209	-0.512
Mof_O 	O 	0.4385	0.5018	0.6026	-0.505
Mof_O 	O 	0.5459	0.1215	0.8688	-0.492
Mof_O 	O 	0.5018	0.107	0.9401	-0.488
Mof_O 	O 	0.1858	0.305	0.0086	-0.513
Mof_H 	H 	0.2021	0.3091	0.0353	0.285
Mof_O 	O 	0.3004	0.5083	0.682	-0.496
Mof_H 	H 	0.3132	0.5312	0.6644	0.313
Mof_O 	O 	0.5076	0.1822	0.7992	-0.49
Mof_H 	H 	0.5334	0.1699	0.8124	0.322
Mof_O 	O 	0.463	0.439	0.681	-0.351
Mof_O 	O 	0.4375	0.1732	0.9688	-0.487
Mof_H 	H 	0.4569	0.1912	0.986	0.3
Mof_O 	O 	0.149	0.4528	0.9143	-0.491
Mof_H 	H 	0.1492	0.4768	0.9347	0.296
Mof_Zn	Zn	0.54452	0.04749	0.95421	1.233
Mof_C 	C 	0.6293	0.1015	0.9914	0.529
Mof_C 	C 	0.6695	0.1154	0.03	-0.434
Mof_C 	C 	0.6823	0.0826	0.0707	0.488
Mof_C 	C 	0.7226	0.0957	0.1036	-0.454
Mof_H 	H 	0.7313	0.0731	0.1299	0.203
Mof_C 	C 	0.7498	0.1402	0.0987	0.344
Mof_C 	C 	0.737	0.172	0.0577	-0.473
Mof_H 	H 	0.755	0.2025	0.0528	0.209
Mof_C 	C 	0.6982	0.1594	0.0241	0.518
Mof_C 	C 	0.7939	0.154	0.1326	-0.164
Mof_C 	C 	0.8055	0.1213	0.1743	0.084
Mof_H 	H 	0.7849	0.0927	0.1808	-0.006
Mof_C 	C 	0.8482	0.1317	0.2062	-0.156
Mof_C 	C 	0.879	0.1736	0.1945	0.086
Mof_H 	H 	0.9078	0.1801	0.2147	-0.001
Mof_C 	C 	0.8681	0.2057	0.154	-0.153
Mof_C 	C 	0.8249	0.1951	0.1236	0.09
Mof_H 	H 	0.8171	0.2169	0.0964	-0.003
Mof_C 	C 	0.8612	0.0962	0.2495	0.336
Mof_C 	C 	0.8251	0.0603	0.2668	-0.445
Mof_H 	H 	0.7928	0.0591	0.2516	0.21
Mof_C 	C 	0.8369	0.0267	0.3061	0.489
Mof_C 	C 	0.8856	0.0275	0.3298	-0.48
Mof_C 	C 	0.9217	0.0626	0.3117	0.592
Mof_C 	C 	0.9093	0.0965	0.2718	-0.483
Mof_H 	H 	0.9339	0.1197	0.2602	0.235
Mof_C 	C 	0.8995	0.9902	0.3711	0.544
Mof_C 	C 	0.9029	0.2485	0.1401	0.303
Mof_C 	C 	0.9395	0.2663	0.1762	-0.415
Mof_H 	H 	0.9406	0.2519	0.2089	0.19
Mof_C 	C 	0.9735	0.3047	0.1635	0.462
Mof_C 	C 	0.9728	0.3268	0.1147	-0.429
Mof_C 	C 	0.9367	0.3098	0.0791	0.503
Mof_C 	C 	0.9029	0.2712	0.091	-0.447
Mof_H 	H 	0.8796	0.2598	0.0663	0.216
Mof_C 	C 	0.0098	0.3683	0.1002	0.53
Mof_O 	O 	0.6033	0.0602	0.9998	-0.476
Mof_O 	O 	0.6219	0.1302	0.9546	-0.479
Mof_O 	O 	0.8683	0.9543	0.3791	-0.512
Mof_O 	O 	0.9385	0.9982	0.3974	-0.505
Mof_O 	O 	0.0459	0.3785	0.1312	-0.492
Mof_O 	O 	0.0018	0.393	0.0599	-0.488
Mof_O 	O 	0.6858	0.195	0.9914	-0.513
Mof_H 	H 	0.7021	0.1909	0.9647	0.286
Mof_O 	O 	0.8004	0.9917	0.318	-0.496
Mof_H 	H 	0.8132	0.9688	0.3356	0.313
Mof_O 	O 	0.0076	0.3178	0.2008	-0.49
Mof_H 	H 	0.0334	0.3301	0.1876	0.322
Mof_O 	O 	0.963	0.061	0.319	-0.351
Mof_O 	O 	0.9375	0.3268	0.0312	-0.487
Mof_H 	H 	0.9569	0.3088	0.014	0.3
Mof_O 	O 	0.649	0.0472	0.0857	-0.491
Mof_H 	H 	0.6492	0.0232	0.0653	0.296
Mof_Zn	Zn	0.95548	0.95251	0.45421	1.233
Mof_C 	C 	0.8707	0.8985	0.4914	0.529
Mof_C 	C 	0.8305	0.8846	0.53	-0.435
Mof_C 	C 	0.8177	0.9174	0.5707	0.488
Mof_C 	C 	0.7774	0.9043	0.6036	-0.454
Mof_H 	H 	0.7687	0.9269	0.6299	0.203
Mof_C 	C 	0.7502	0.8598	0.5987	0.344
Mof_C 	C 	0.763	0.828	0.5577	-0.473
Mof_H 	H 	0.745	0.7975	0.5528	0.209
Mof_C 	C 	0.8018	0.8406	0.5241	0.518
Mof_C 	C 	0.7061	0.846	0.6326	-0.164
Mof_C 	C 	0.6945	0.8787	0.6743	0.084
Mof_H 	H 	0.7151	0.9073	0.6808	-0.006
Mof_C 	C 	0.6518	0.8683	0.7062	-0.156
Mof_C 	C 	0.621	0.8264	0.6945	0.086
Mof_H 	H 	0.5922	0.8199	0.7147	-0.001
Mof_C 	C 	0.6319	0.7943	0.654	-0.153
Mof_C 	C 	0.6751	0.8049	0.6236	0.09
Mof_H 	H 	0.6829	0.7831	0.5964	-0.003
Mof_C 	C 	0.6388	0.9038	0.7495	0.336
Mof_C 	C 	0.6749	0.9397	0.7668	-0.446
Mof_H 	H 	0.7072	0.9409	0.7516	0.21
Mof_C 	C 	0.6631	0.9733	0.8061	0.489
Mof_C 	C 	0.6144	0.9725	0.8298	-0.48
Mof_C 	C 	0.5783	0.9374	0.8117	0.592
Mof_C 	C 	0.5907	0.9035	0.7718	-0.482
Mof_H 	H 	0.5661	0.8803	0.7602	0.235
Mof_C 	C 	0.6005	0.0098	0.8711	0.544
Mof_C 	C 	0.5971	0.7515	0.6401	0.303
Mof_C 	C 	0.5605	0.7337	0.6762	-0.415
Mof_H 	H 	0.5594	0.7481	0.7089	0.19
Mof_C 	C 	0.5265	0.6953	0.6635	0.462
Mof_C 	C 	0.5272	0.6732	0.6147	-0.429
Mof_C 	C 	0.5633	0.6902	0.5791	0.503
Mof_C 	C 	0.5971	0.7288	0.591	-0.447
Mof_H 	H 	0.6204	0.7402	0.5663	0.216
Mof_C 	C 	0.4902	0.6317	0.6002	0.53
Mof_O 	O 	0.8967	0.9398	0.4998	-0.476
Mof_O 	O 	0.8781	0.8698	0.4546	-0.479
Mof_O 	O 	0.6317	0.0457	0.8791	-0.512
Mof_O 	O 	0.5615	0.0018	0.8974	-0.505
Mof_O 	O 	0.4541	0.6215	0.6312	-0.492
Mof_O 	O 	0.4982	0.607	0.5599	-0.488
Mof_O 	O 	0.8142	0.805	0.4914	-0.513
Mof_H 	H 	0.7979	0.8091	0.4647	0.285
Mof_O 	O 	0.6996	0.0083	0.818	-0.497
Mof_H 	H 	0.6868	0.0312	0.8356	0.313
Mof_O 	O 	0.4924	0.6822	0.7008	-0.49
Mof_H 	H 	0.4666	0.6699	0.6876	0.322
Mof_O 	O 	0.537	0.939	0.819	-0.351
Mof_O 	O 	0.5625	0.6732	0.5312	-0.487
Mof_H 	H 	0.5431	0.6912	0.514	0.3
Mof_O 	O 	0.851	0.9528	0.5857	-0.491
Mof_H 	H 	0.8508	0.9768	0.5653	0.296
Mof_Zn	Zn	0.54579	0.45548	0.54749	1.233
Mof_C 	C 	0.5086	0.3707	0.6015	0.529
Mof_C 	C 	0.47	0.3305	0.6154	-0.435
Mof_C 	C 	0.4293	0.3177	0.5826	0.488
Mof_C 	C 	0.3964	0.2774	0.5957	-0.454
Mof_H 	H 	0.3701	0.2687	0.5731	0.203
Mof_C 	C 	0.4013	0.2502	0.6402	0.344
Mof_C 	C 	0.4423	0.263	0.672	-0.473
Mof_H 	H 	0.4472	0.245	0.7025	0.209
Mof_C 	C 	0.4759	0.3018	0.6594	0.518
Mof_C 	C 	0.3674	0.2061	0.654	-0.164
Mof_C 	C 	0.3257	0.1945	0.6213	0.084
Mof_H 	H 	0.3192	0.2151	0.5927	-0.006
Mof_C 	C 	0.2938	0.1518	0.6317	-0.156
Mof_C 	C 	0.3055	0.121	0.6736	0.086
Mof_H 	H 	0.2853	0.0922	0.6801	-0.001
Mof_C 	C 	0.346	0.1319	0.7057	-0.153
Mof_C 	C 	0.3764	0.1751	0.6951	0.09
Mof_H 	H 	0.4036	0.1829	0.7169	-0.003
Mof_C 	C 	0.2505	0.1388	0.5962	0.336
Mof_C 	C 	0.2332	0.1749	0.5603	-0.445
Mof_H 	H 	0.2484	0.2072	0.5591	0.21
Mof_C 	C 	0.1939	0.1631	0.5267	0.489
Mof_C 	C 	0.1702	0.1144	0.5275	-0.48
Mof_C 	C 	0.1883	0.0783	0.5626	0.592
Mof_C 	C 	0.2282	0.0907	0.5965	-0.482
Mof_H 	H 	0.2398	0.0661	0.6197	0.235
Mof_C 	C 	0.1289	0.1005	0.4902	0.544
Mof_C 	C 	0.3599	0.0971	0.7485	0.303
Mof_C 	C 	0.3238	0.0605	0.7663	-0.415
Mof_H 	H 	0.2911	0.0594	0.7519	0.19
Mof_C 	C 	0.3365	0.0265	0.8047	0.462
Mof_C 	C 	0.3853	0.0272	0.8268	-0.429
Mof_C 	C 	0.4209	0.0633	0.8098	0.503
Mof_C 	C 	0.409	0.0971	0.7712	-0.447
Mof_H 	H 	0.4337	0.1204	0.7598	0.216
Mof_C 	C 	0.3998	0.9902	0.8683	0.53
Mof_O 	O 	0.5002	0.3967	0.5602	-0.476
Mof_O 	O 	0.5454	0.3781	0.6302	-0.479
Mof_O 	O 	0.1209	0.1317	0.4543	-0.512
Mof_O 	O 	0.1026	0.0615	0.4982	-0.505
Mof_O 	O 	0.3688	0.9541	0.8785	-0.492
Mof_O 	O 	0.4401	0.9982	0.893	-0.488
Mof_O 	O 	0.5086	0.3142	0.695	-0.513
Mof_H 	H 	0.5353	0.2979	0.6909	0.285
Mof_O 	O 	0.182	0.1996	0.4917	-0.496
Mof_H 	H 	0.1644	0.1868	0.4688	0.313
Mof_O 	O 	0.2992	0.9924	0.8178	-0.49
Mof_H 	H 	0.3124	0.9666	0.8301	0.322
Mof_O 	O 	0.181	0.037	0.561	-0.351
Mof_O 	O 	0.4688	0.0625	0.8268	-0.487
Mof_H 	H 	0.486	0.0431	0.8088	0.3
Mof_O 	O 	0.4143	0.351	0.5472	-0.491
Mof_H 	H 	0.4347	0.3508	0.5232	0.296
Mof_Zn	Zn	0.04579	0.04452	0.45251	1.233
Mof_C 	C 	0.0086	0.1293	0.3985	0.529
Mof_C 	C 	0.97	0.1695	0.3846	-0.435
Mof_C 	C 	0.9293	0.1823	0.4174	0.488
Mof_C 	C 	0.8964	0.2226	0.4043	-0.454
Mof_H 	H 	0.8701	0.2313	0.4269	0.203
Mof_C 	C 	0.9013	0.2498	0.3598	0.344
Mof_C 	C 	0.9423	0.237	0.328	-0.473
Mof_H 	H 	0.9472	0.255	0.2975	0.209
Mof_C 	C 	0.9759	0.1982	0.3406	0.518
Mof_C 	C 	0.8674	0.2939	0.346	-0.164
Mof_C 	C 	0.8257	0.3055	0.3787	0.084
Mof_H 	H 	0.8192	0.2849	0.4073	-0.006
Mof_C 	C 	0.7938	0.3482	0.3683	-0.156
Mof_C 	C 	0.8055	0.379	0.3264	0.086
Mof_H 	H 	0.7853	0.4078	0.3199	-0.001
Mof_C 	C 	0.846	0.3681	0.2943	-0.153
Mof_C 	C 	0.8764	0.3249	0.3049	0.09
Mof_H 	H 	0.9036	0.3171	0.2831	-0.003
Mof_C 	C 	0.7505	0.3612	0.4038	0.336
Mof_C 	C 	0.7332	0.3251	0.4397	-0.445
Mof_H 	H 	0.7484	0.2928	0.4409	0.21
Mof_C 	C 	0.6939	0.3369	0.4733	0.489
Mof_C 	C 	0.6702	0.3856	0.4725	-0.48
Mof_C 	C 	0.6883	0.4217	0.4374	0.592
Mof_C 	C 	0.7282	0.4093	0.4035	-0.482
Mof_H 	H 	0.7398	0.4339	0.3803	0.235
Mof_C 	C 	0.6289	0.3995	0.5098	0.544
Mof_C 	C 	0.8599	0.4029	0.2515	0.303
Mof_C 	C 	0.8238	0.4395	0.2337	-0.415
Mof_H 	H 	0.7911	0.4406	0.2481	0.19
Mof_C 	C 	0.8365	0.4735	0.1953	0.462
Mof_C 	C 	0.8853	0.4728	0.1732	-0.429
Mof_C 	C 	0.9209	0.4367	0.1902	0.503
Mof_C 	C 	0.909	0.4029	0.2288	-0.447
Mof_H 	H 	0.9337	0.3796	0.2402	0.216
Mof_C 	C 	0.8998	0.5098	0.1317	0.53
Mof_O 	O 	0.0002	0.1033	0.4398	-0.476
Mof_O 	O 	0.0454	0.1219	0.3698	-0.479
Mof_O 	O 	0.6209	0.3683	0.5457	-0.512
Mof_O 	O 	0.6026	0.4385	0.5018	-0.505
Mof_O 	O 	0.8688	0.5459	0.1215	-0.492
Mof_O 	O 	0.9401	0.5018	0.107	-0.488
Mof_O 	O 	0.0086	0.1858	0.305	-0.513
Mof_H 	H 	0.0353	0.2021	0.3091	0.285
Mof_O 	O 	0.682	0.3004	0.5083	-0.496
Mof_H 	H 	0.6644	0.3132	0.5312	0.313
Mof_O 	O 	0.7992	0.5076	0.1822	-0.49
Mof_H 	H 	0.8124	0.5334	0.1699	0.322
Mof_O 	O 	0.681	0.463	0.439	-0.351
Mof_O 	O 	0.9688	0.4375	0.1732	-0.487
Mof_H 	H 	0.986	0.4569	0.1912	0.3
Mof_O 	O 	0.9143	0.149	0.4528	-0.491
Mof_H 	H 	0.9347	0.1492	0.4768	0.296
Mof_Zn	Zn	0.95421	0.54452	0.04749	1.233
Mof_C 	C 	0.9914	0.6293	0.1015	0.529
Mof_C 	C 	0.03	0.6695	0.1154	-0.434
Mof_C 	C 	0.0707	0.6823	0.0826	0.488
Mof_C 	C 	0.1036	0.7226	0.0957	-0.454
Mof_H 	H 	0.1299	0.7313	0.0731	0.203
Mof_C 	C 	0.0987	0.7498	0.1402	0.344
Mof_C 	C 	0.0577	0.737	0.172	-0.473
Mof_H 	H 	0.0528	0.755	0.2025	0.209
Mof_C 	C 	0.0241	0.6982	0.1594	0.518
Mof_C 	C 	0.1326	0.7939	0.154	-0.164
Mof_C 	C 	0.1743	0.8055	0.1213	0.084
Mof_H 	H 	0.1808	0.7849	0.0927	-0.006
Mof_C 	C 	0.2062	0.8482	0.1317	-0.156
Mof_C 	C 	0.1945	0.879	0.1736	0.086
Mof_H 	H 	0.2147	0.9078	0.1801	-0.001
Mof_C 	C 	0.154	0.8681	0.2057	-0.153
Mof_C 	C 	0.1236	0.8249	0.1951	0.09
Mof_H 	H 	0.0964	0.8171	0.2169	-0.003
Mof_C 	C 	0.2495	0.8612	0.0962	0.336
Mof_C 	C 	0.2668	0.8251	0.0603	-0.445
Mof_H 	H 	0.2516	0.7928	0.0591	0.21
Mof_C 	C 	0.3061	0.8369	0.0267	0.489
Mof_C 	C 	0.3298	0.8856	0.0275	-0.48
Mof_C 	C 	0.3117	0.9217	0.0626	0.592
Mof_C 	C 	0.2718	0.9093	0.0965	-0.483
Mof_H 	H 	0.2602	0.9339	0.1197	0.235
Mof_C 	C 	0.3711	0.8995	0.9902	0.544
Mof_C 	C 	0.1401	0.9029	0.2485	0.303
Mof_C 	C 	0.1762	0.9395	0.2663	-0.415
Mof_H 	H 	0.2089	0.9406	0.2519	0.19
Mof_C 	C 	0.1635	0.9735	0.3047	0.462
Mof_C 	C 	0.1147	0.9728	0.3268	-0.429
Mof_C 	C 	0.0791	0.9367	0.3098	0.503
Mof_C 	C 	0.091	0.9029	0.2712	-0.447
Mof_H 	H 	0.0663	0.8796	0.2598	0.216
Mof_C 	C 	0.1002	0.0098	0.3683	0.53
Mof_O 	O 	0.9998	0.6033	0.0602	-0.476
Mof_O 	O 	0.9546	0.6219	0.1302	-0.479
Mof_O 	O 	0.3791	0.8683	0.9543	-0.512
Mof_O 	O 	0.3974	0.9385	0.9982	-0.505
Mof_O 	O 	0.1312	0.0459	0.3785	-0.492
Mof_O 	O 	0.0599	0.0018	0.393	-0.488
Mof_O 	O 	0.9914	0.6858	0.195	-0.513
Mof_H 	H 	0.9647	0.7021	0.1909	0.286
Mof_O 	O 	0.318	0.8004	0.9917	-0.496
Mof_H 	H 	0.3356	0.8132	0.9688	0.313
Mof_O 	O 	0.2008	0.0076	0.3178	-0.49
Mof_H 	H 	0.1876	0.0334	0.3301	0.322
Mof_O 	O 	0.319	0.963	0.061	-0.351
Mof_O 	O 	0.0312	0.9375	0.3268	-0.487
Mof_H 	H 	0.014	0.9569	0.3088	0.3
Mof_O 	O 	0.0857	0.649	0.0472	-0.491
Mof_H 	H 	0.0653	0.6492	0.0232	0.296
Mof_Zn	Zn	0.45421	0.95548	0.95251	1.233
Mof_C 	C 	0.4914	0.8707	0.8985	0.529
Mof_C 	C 	0.53	0.8305	0.8846	-0.435
Mof_C 	C 	0.5707	0.8177	0.9174	0.488
Mof_C 	C 	0.6036	0.7774	0.9043	-0.454
Mof_H 	H 	0.6299	0.7687	0.9269	0.203
Mof_C 	C 	0.5987	0.7502	0.8598	0.344
Mof_C 	C 	0.5577	0.763	0.828	-0.473
Mof_H 	H 	0.5528	0.745	0.7975	0.209
Mof_C 	C 	0.5241	0.8018	0.8406	0.518
Mof_C 	C 	0.6326	0.7061	0.846	-0.164
Mof_C 	C 	0.6743	0.6945	0.8787	0.084
Mof_H 	H 	0.6808	0.7151	0.9073	-0.006
Mof_C 	C 	0.7062	0.6518	0.8683	-0.156
Mof_C 	C 	0.6945	0.621	0.8264	0.086
Mof_H 	H 	0.7147	0.5922	0.8199	-0.001
Mof_C 	C 	0.654	0.6319	0.7943	-0.153
Mof_C 	C 	0.6236	0.6751	0.8049	0.09
Mof_H 	H 	0.5964	0.6829	0.7831	-0.003
Mof_C 	C 	0.7495	0.6388	0.9038	0.336
Mof_C 	C 	0.7668	0.6749	0.9397	-0.446
Mof_H 	H 	0.7516	0.7072	0.9409	0.21
Mof_C 	C 	0.8061	0.6631	0.9733	0.489
Mof_C 	C 	0.8298	0.6144	0.9725	-0.48
Mof_C 	C 	0.8117	0.5783	0.9374	0.592
Mof_C 	C 	0.7718	0.5907	0.9035	-0.482
Mof_H 	H 	0.7602	0.5661	0.8803	0.235
Mof_C 	C 	0.8711	0.6005	0.0098	0.544
Mof_C 	C 	0.6401	0.5971	0.7515	0.303
Mof_C 	C 	0.6762	0.5605	0.7337	-0.415
Mof_H 	H 	0.7089	0.5594	0.7481	0.19
Mof_C 	C 	0.6635	0.5265	0.6953	0.462
Mof_C 	C 	0.6147	0.5272	0.6732	-0.429
Mof_C 	C 	0.5791	0.5633	0.6902	0.503
Mof_C 	C 	0.591	0.5971	0.7288	-0.447
Mof_H 	H 	0.5663	0.6204	0.7402	0.216
Mof_C 	C 	0.6002	0.4902	0.6317	0.53
Mof_O 	O 	0.4998	0.8967	0.9398	-0.476
Mof_O 	O 	0.4546	0.8781	0.8698	-0.479
Mof_O 	O 	0.8791	0.6317	0.0457	-0.512
Mof_O 	O 	0.8974	0.5615	0.0018	-0.505
Mof_O 	O 	0.6312	0.4541	0.6215	-0.492
Mof_O 	O 	0.5599	0.4982	0.607	-0.488
Mof_O 	O 	0.4914	0.8142	0.805	-0.513
Mof_H 	H 	0.4647	0.7979	0.8091	0.285
Mof_O 	O 	0.818	0.6996	0.0083	-0.497
Mof_H 	H 	0.8356	0.6868	0.0312	0.313
Mof_O 	O 	0.7008	0.4924	0.6822	-0.49
Mof_H 	H 	0.6876	0.4666	0.6699	0.322
Mof_O 	O 	0.819	0.537	0.939	-0.351
Mof_O 	O 	0.5312	0.5625	0.6732	-0.487
Mof_H 	H 	0.514	0.5431	0.6912	0.3
Mof_O 	O 	0.5857	0.851	0.9528	-0.491
Mof_H 	H 	0.5653	0.8508	0.9768	0.296
Mof_Zn	Zn	0.54749	0.54579	0.45548	1.233
Mof_C 	C 	0.6015	0.5086	0.3707	0.529
Mof_C 	C 	0.6154	0.47	0.3305	-0.435
Mof_C 	C 	0.5826	0.4293	0.3177	0.488
Mof_C 	C 	0.5957	0.3964	0.2774	-0.454
Mof_H 	H 	0.5731	0.3701	0.2687	0.203
Mof_C 	C 	0.6402	0.4013	0.2502	0.344
Mof_C 	C 	0.672	0.4423	0.263	-0.473
Mof_H 	H 	0.7025	0.4472	0.245	0.209
Mof_C 	C 	0.6594	0.4759	0.3018	0.518
Mof_C 	C 	0.654	0.3674	0.2061	-0.164
Mof_C 	C 	0.6213	0.3257	0.1945	0.084
Mof_H 	H 	0.5927	0.3192	0.2151	-0.006
Mof_C 	C 	0.6317	0.2938	0.1518	-0.156
Mof_C 	C 	0.6736	0.3055	0.121	0.086
Mof_H 	H 	0.6801	0.2853	0.0922	-0.001
Mof_C 	C 	0.7057	0.346	0.1319	-0.153
Mof_C 	C 	0.6951	0.3764	0.1751	0.09
Mof_H 	H 	0.7169	0.4036	0.1829	-0.003
Mof_C 	C 	0.5962	0.2505	0.1388	0.336
Mof_C 	C 	0.5603	0.2332	0.1749	-0.445
Mof_H 	H 	0.5591	0.2484	0.2072	0.21
Mof_C 	C 	0.5267	0.1939	0.1631	0.489
Mof_C 	C 	0.5275	0.1702	0.1144	-0.48
Mof_C 	C 	0.5626	0.1883	0.0783	0.592
Mof_C 	C 	0.5965	0.2282	0.0907	-0.482
Mof_H 	H 	0.6197	0.2398	0.0661	0.235
Mof_C 	C 	0.4902	0.1289	0.1005	0.544
Mof_C 	C 	0.7485	0.3599	0.0971	0.303
Mof_C 	C 	0.7663	0.3238	0.0605	-0.415
Mof_H 	H 	0.7519	0.2911	0.0594	0.19
Mof_C 	C 	0.8047	0.3365	0.0265	0.462
Mof_C 	C 	0.8268	0.3853	0.0272	-0.429
Mof_C 	C 	0.8098	0.4209	0.0633	0.503
Mof_C 	C 	0.7712	0.409	0.0971	-0.447
Mof_H 	H 	0.7598	0.4337	0.1204	0.216
Mof_C 	C 	0.8683	0.3998	0.9902	0.53
Mof_O 	O 	0.5602	0.5002	0.3967	-0.476
Mof_O 	O 	0.6302	0.5454	0.3781	-0.479
Mof_O 	O 	0.4543	0.1209	0.1317	-0.512
Mof_O 	O 	0.4982	0.1026	0.0615	-0.505
Mof_O 	O 	0.8785	0.3688	0.9541	-0.492
Mof_O 	O 	0.893	0.4401	0.9982	-0.488
Mof_O 	O 	0.695	0.5086	0.3142	-0.513
Mof_H 	H 	0.6909	0.5353	0.2979	0.285
Mof_O 	O 	0.4917	0.182	0.1996	-0.496
Mof_H 	H 	0.4688	0.1644	0.1868	0.313
Mof_O 	O 	0.8178	0.2992	0.9924	-0.49
Mof_H 	H 	0.8301	0.3124	0.9666	0.322
Mof_O 	O 	0.561	0.181	0.037	-0.351
Mof_O 	O 	0.8268	0.4688	0.0625	-0.487
Mof_H 	H 	0.8088	0.486	0.0431	0.3
Mof_O 	O 	0.5472	0.4143	0.351	-0.491
Mof_H 	H 	0.5232	0.4347	0.3508	0.296
Mof_Zn	Zn	0.45251	0.04579	0.04452	1.233
Mof_C 	C 	0.3985	0.0086	0.1293	0.529
Mof_C 	C 	0.3846	0.97	0.1695	-0.435
Mof_C 	C 	0.4174	0.9293	0.1823	0.488
Mof_C 	C 	0.4043	0.8964	0.2226	-0.454
Mof_H 	H 	0.4269	0.8701	0.2313	0.203
Mof_C 	C 	0.3598	0.9013	0.2498	0.344
Mof_C 	C 	0.328	0.9423	0.237	-0.473
Mof_H 	H 	0.2975	0.9472	0.255	0.209
Mof_C 	C 	0.3406	0.9759	0.1982	0.518
Mof_C 	C 	0.346	0.8674	0.2939	-0.164
Mof_C 	C 	0.3787	0.8257	0.3055	0.084
Mof_H 	H 	0.4073	0.8192	0.2849	-0.006
Mof_C 	C 	0.3683	0.7938	0.3482	-0.156
Mof_C 	C 	0.3264	0.8055	0.379	0.086
Mof_H 	H 	0.3199	0.7853	0.4078	-0.001
Mof_C 	C 	0.2943	0.846	0.3681	-0.153
Mof_C 	C 	0.3049	0.8764	0.3249	0.09
Mof_H 	H 	0.2831	0.9036	0.3171	-0.003
Mof_C 	C 	0.4038	0.7505	0.3612	0.336
Mof_C 	C 	0.4397	0.7332	0.3251	-0.445
Mof_H 	H 	0.4409	0.7484	0.2928	0.21
Mof_C 	C 	0.4733	0.6939	0.3369	0.489
Mof_C 	C 	0.4725	0.6702	0.3856	-0.48
Mof_C 	C 	0.4374	0.6883	0.4217	0.592
Mof_C 	C 	0.4035	0.7282	0.4093	-0.482
Mof_H 	H 	0.3803	0.7398	0.4339	0.235
Mof_C 	C 	0.5098	0.6289	0.3995	0.544
Mof_C 	C 	0.2515	0.8599	0.4029	0.303
Mof_C 	C 	0.2337	0.8238	0.4395	-0.415
Mof_H 	H 	0.2481	0.7911	0.4406	0.19
Mof_C 	C 	0.1953	0.8365	0.4735	0.462
Mof_C 	C 	0.1732	0.8853	0.4728	-0.429
Mof_C 	C 	0.1902	0.9209	0.4367	0.503
Mof_C 	C 	0.2288	0.909	0.4029	-0.447
Mof_H 	H 	0.2402	0.9337	0.3796	0.216
Mof_C 	C 	0.1317	0.8998	0.5098	0.53
Mof_O 	O 	0.4398	0.0002	0.1033	-0.476
Mof_O 	O 	0.3698	0.0454	0.1219	-0.479
Mof_O 	O 	0.5457	0.6209	0.3683	-0.512
Mof_O 	O 	0.5018	0.6026	0.4385	-0.505
Mof_O 	O 	0.1215	0.8688	0.5459	-0.492
Mof_O 	O 	0.107	0.9401	0.5018	-0.488
Mof_O 	O 	0.305	0.0086	0.1858	-0.513
Mof_H 	H 	0.3091	0.0353	0.2021	0.285
Mof_O 	O 	0.5083	0.682	0.3004	-0.496
Mof_H 	H 	0.5312	0.6644	0.3132	0.313
Mof_O 	O 	0.1822	0.7992	0.5076	-0.49
Mof_H 	H 	0.1699	0.8124	0.5334	0.322
Mof_O 	O 	0.439	0.681	0.463	-0.351
Mof_O 	O 	0.1732	0.9688	0.4375	-0.487
Mof_H 	H 	0.1912	0.986	0.4569	0.3
Mof_O 	O 	0.4528	0.9143	0.149	-0.491
Mof_H 	H 	0.4768	0.9347	0.1492	0.296
Mof_Zn	Zn	0.04749	0.95421	0.54452	1.233
Mof_C 	C 	0.1015	0.9914	0.6293	0.529
Mof_C 	C 	0.1154	0.03	0.6695	-0.434
Mof_C 	C 	0.0826	0.0707	0.6823	0.488
Mof_C 	C 	0.0957	0.1036	0.7226	-0.454
Mof_H 	H 	0.0731	0.1299	0.7313	0.203
Mof_C 	C 	0.1402	0.0987	0.7498	0.344
Mof_C 	C 	0.172	0.0577	0.737	-0.473
Mof_H 	H 	0.2025	0.0528	0.755	0.209
Mof_C 	C 	0.1594	0.0241	0.6982	0.518
Mof_C 	C 	0.154	0.1326	0.7939	-0.164
Mof_C 	C 	0.1213	0.1743	0.8055	0.084
Mof_H 	H 	0.0927	0.1808	0.7849	-0.006
Mof_C 	C 	0.1317	0.2062	0.8482	-0.156
Mof_C 	C 	0.1736	0.1945	0.879	0.086
Mof_H 	H 	0.1801	0.2147	0.9078	-0.001
Mof_C 	C 	0.2057	0.154	0.8681	-0.153
Mof_C 	C 	0.1951	0.1236	0.8249	0.09
Mof_H 	H 	0.2169	0.0964	0.8171	-0.003
Mof_C 	C 	0.0962	0.2495	0.8612	0.336
Mof_C 	C 	0.0603	0.2668	0.8251	-0.445
Mof_H 	H 	0.0591	0.2516	0.7928	0.21
Mof_C 	C 	0.0267	0.3061	0.8369	0.489
Mof_C 	C 	0.0275	0.3298	0.8856	-0.48
Mof_C 	C 	0.0626	0.3117	0.9217	0.592
Mof_C 	C 	0.0965	0.2718	0.9093	-0.483
Mof_H 	H 	0.1197	0.2602	0.9339	0.235
Mof_C 	C 	0.9902	0.3711	0.8995	0.544
Mof_C 	C 	0.2485	0.1401	0.9029	0.303
Mof_C 	C 	0.2663	0.1762	0.9395	-0.415
Mof_H 	H 	0.2519	0.2089	0.9406	0.19
Mof_C 	C 	0.3047	0.1635	0.9735	0.462
Mof_C 	C 	0.3268	0.1147	0.9728	-0.429
Mof_C 	C 	0.3098	0.0791	0.9367	0.503
Mof_C 	C 	0.2712	0.091	0.9029	-0.447
Mof_H 	H 	0.2598	0.0663	0.8796	0.216
Mof_C 	C 	0.3683	0.1002	0.0098	0.53
Mof_O 	O 	0.0602	0.9998	0.6033	-0.476
Mof_O 	O 	0.1302	0.9546	0.6219	-0.479
Mof_O 	O 	0.9543	0.3791	0.8683	-0.512
Mof_O 	O 	0.9982	0.3974	0.9385	-0.505
Mof_O 	O 	0.3785	0.1312	0.0459	-0.492
Mof_O 	O 	0.393	0.0599	0.0018	-0.488
Mof_O 	O 	0.195	0.9914	0.6858	-0.513
Mof_H 	H 	0.1909	0.9647	0.7021	0.286
Mof_O 	O 	0.9917	0.318	0.8004	-0.496
Mof_H 	H 	0.9688	0.3356	0.8132	0.313
Mof_O 	O 	0.3178	0.2008	0.0076	-0.49
Mof_H 	H 	0.3301	0.1876	0.0334	0.322
Mof_O 	O 	0.061	0.319	0.963	-0.351
Mof_O 	O 	0.3268	0.0312	0.9375	-0.487
Mof_H 	H 	0.3088	0.014	0.9569	0.3
Mof_O 	O 	0.0472	0.0857	0.649	-0.491
Mof_H 	H 	0.0232	0.0653	0.6492	0.296
Mof_Zn	Zn	0.95251	0.45421	0.95548	1.233
Mof_C 	C 	0.8985	0.4914	0.8707	0.529
Mof_C 	C 	0.8846	0.53	0.8305	-0.435
Mof_C 	C 	0.9174	0.5707	0.8177	0.488
Mof_C 	C 	0.9043	0.6036	0.7774	-0.454
Mof_H 	H 	0.9269	0.6299	0.7687	0.203
Mof_C 	C 	0.8598	0.5987	0.7502	0.344
Mof_C 	C 	0.828	0.5577	0.763	-0.473
Mof_H 	H 	0.7975	0.5528	0.745	0.209
Mof_C 	C 	0.8406	0.5241	0.8018	0.518
Mof_C 	C 	0.846	0.6326	0.7061	-0.164
Mof_C 	C 	0.8787	0.6743	0.6945	0.084
Mof_H 	H 	0.9073	0.6808	0.7151	-0.006
Mof_C 	C 	0.8683	0.7062	0.6518	-0.156
Mof_C 	C 	0.8264	0.6945	0.621	0.086
Mof_H 	H 	0.8199	0.7147	0.5922	-0.001
Mof_C 	C 	0.7943	0.654	0.6319	-0.153
Mof_C 	C 	0.8049	0.6236	0.6751	0.09
Mof_H 	H 	0.7831	0.5964	0.6829	-0.003
Mof_C 	C 	0.9038	0.7495	0.6388	0.336
Mof_C 	C 	0.9397	0.7668	0.6749	-0.446
Mof_H 	H 	0.9409	0.7516	0.7072	0.21
Mof_C 	C 	0.9733	0.8061	0.6631	0.489
Mof_C 	C 	0.9725	0.8298	0.6144	-0.48
Mof_C 	C 	0.9374	0.8117	0.5783	0.592
Mof_C 	C 	0.9035	0.7718	0.5907	-0.482
Mof_H 	H 	0.8803	0.7602	0.5661	0.235
Mof_C 	C 	0.0098	0.8711	0.6005	0.544
Mof_C 	C 	0.7515	0.6401	0.5971	0.303
Mof_C 	C 	0.7337	0.6762	0.5605	-0.415
Mof_H 	H 	0.7481	0.7089	0.5594	0.19
Mof_C 	C 	0.6953	0.6635	0.5265	0.462
Mof_C 	C 	0.6732	0.6147	0.5272	-0.429
Mof_C 	C 	0.6902	0.5791	0.5633	0.503
Mof_C 	C 	0.7288	0.591	0.5971	-0.447
Mof_H 	H 	0.7402	0.5663	0.6204	0.216
Mof_C 	C 	0.6317	0.6002	0.4902	0.53
Mof_O 	O 	0.9398	0.4998	0.8967	-0.476
Mof_O 	O 	0.8698	0.4546	0.8781	-0.479
Mof_O 	O 	0.0457	0.8791	0.6317	-0.512
Mof_O 	O 	0.0018	0.8974	0.5615	-0.505
Mof_O 	O 	0.6215	0.6312	0.4541	-0.492
Mof_O 	O 	0.607	0.5599	0.4982	-0.488
Mof_O 	O 	0.805	0.4914	0.8142	-0.513
Mof_H 	H 	0.8091	0.4647	0.7979	0.285
Mof_O 	O 	0.0083	0.818	0.6996	-0.497
Mof_H 	H 	0.0312	0.8356	0.6868	0.313
Mof_O 	O 	0.6822	0.7008	0.4924	-0.49
Mof_H 	H 	0.6699	0.6876	0.4666	0.322
Mof_O 	O 	0.939	0.819	0.537	-0.351
Mof_O 	O 	0.6732	0.5312	0.5625	-0.487
Mof_H 	H 	0.6912	0.514	0.5431	0.3
Mof_O 	O 	0.9528	0.5857	0.851	-0.491
Mof_H 	H 	0.9768	0.5653	0.8508	0.296
Mof_Zn	Zn	0.29749	0.70548	0.70421	1.233
Mof_C 	C 	0.3515	0.6207	0.7414	0.529
Mof_C 	C 	0.3654	0.5805	0.78	-0.435
Mof_C 	C 	0.3326	0.5677	0.8207	0.488
Mof_C 	C 	0.3457	0.5274	0.8536	-0.454
Mof_H 	H 	0.3231	0.5187	0.8799	0.203
Mof_C 	C 	0.3902	0.5002	0.8487	0.344
Mof_C 	C 	0.422	0.513	0.8077	-0.473
Mof_H 	H 	0.4525	0.495	0.8028	0.209
Mof_C 	C 	0.4094	0.5518	0.7741	0.518
Mof_C 	C 	0.404	0.4561	0.8826	-0.164
Mof_C 	C 	0.3713	0.4445	0.9243	0.084
Mof_H 	H 	0.3427	0.4651	0.9308	-0.006
Mof_C 	C 	0.3817	0.4018	0.9562	-0.156
Mof_C 	C 	0.4236	0.371	0.9445	0.086
Mof_H 	H 	0.4301	0.3422	0.9647	-0.001
Mof_C 	C 	0.4557	0.3819	0.904	-0.153
Mof_C 	C 	0.4451	0.4251	0.8736	0.09
Mof_H 	H 	0.4669	0.4329	0.8464	-0.003
Mof_C 	C 	0.3462	0.3888	0.9995	0.335
Mof_C 	C 	0.3103	0.4249	0.0168	-0.445
Mof_H 	H 	0.3091	0.4572	0.0016	0.21
Mof_C 	C 	0.2767	0.4131	0.0561	0.488
Mof_C 	C 	0.2775	0.3644	0.0798	-0.48
Mof_C 	C 	0.3126	0.3283	0.0617	0.592
Mof_C 	C 	0.3465	0.3407	0.0218	-0.482
Mof_H 	H 	0.3697	0.3161	0.0102	0.235
Mof_C 	C 	0.2402	0.3505	0.1211	0.544
Mof_C 	C 	0.4985	0.3471	0.8901	0.303
Mof_C 	C 	0.5163	0.3105	0.9262	-0.415
Mof_H 	H 	0.5019	0.3094	0.9589	0.19
Mof_C 	C 	0.5547	0.2765	0.9135	0.462
Mof_C 	C 	0.5768	0.2772	0.8647	-0.429
Mof_C 	C 	0.5598	0.3133	0.8291	0.503
Mof_C 	C 	0.5212	0.3471	0.841	-0.447
Mof_H 	H 	0.5098	0.3704	0.8163	0.216
Mof_C 	C 	0.6183	0.2402	0.8502	0.53
Mof_O 	O 	0.3102	0.6467	0.7498	-0.476
Mof_O 	O 	0.3802	0.6281	0.7046	-0.479
Mof_O 	O 	0.2043	0.3817	0.1291	-0.512
Mof_O 	O 	0.2482	0.3115	0.1474	-0.505
Mof_O 	O 	0.6285	0.2041	0.8812	-0.492
Mof_O 	O 	0.643	0.2482	0.8099	-0.488
Mof_O 	O 	0.445	0.5642	0.7414	-0.513
Mof_H 	H 	0.4409	0.5479	0.7147	0.285
Mof_O 	O 	0.2417	0.4496	0.068	-0.496
Mof_H 	H 	0.2188	0.4368	0.0856	0.313
Mof_O 	O 	0.5678	0.2424	0.9508	-0.49
Mof_H 	H 	0.5801	0.2166	0.9376	0.322
Mof_O 	O 	0.311	0.287	0.069	-0.351
Mof_O 	O 	0.5768	0.3125	0.7812	-0.487
Mof_H 	H 	0.5588	0.2931	0.764	0.3
Mof_O 	O 	0.2972	0.601	0.8357	-0.491
Mof_H 	H 	0.2732	0.6008	0.8153	0.296
Mof_Zn	Zn	0.20251	0.29452	0.20421	1.233
Mof_C 	C 	0.1485	0.3793	0.2414	0.529
Mof_C 	C 	0.1346	0.4195	0.28	-0.435
Mof_C 	C 	0.1674	0.4323	0.3207	0.488
Mof_C 	C 	0.1543	0.4726	0.3536	-0.454
Mof_H 	H 	0.1769	0.4813	0.3799	0.203
Mof_C 	C 	0.1098	0.4998	0.3487	0.344
Mof_C 	C 	0.078	0.487	0.3077	-0.473
Mof_H 	H 	0.0475	0.505	0.3028	0.209
Mof_C 	C 	0.0906	0.4482	0.2741	0.518
Mof_C 	C 	0.096	0.5439	0.3826	-0.164
Mof_C 	C 	0.1287	0.5555	0.4243	0.084
Mof_H 	H 	0.1573	0.5349	0.4308	-0.006
Mof_C 	C 	0.1183	0.5982	0.4562	-0.156
Mof_C 	C 	0.0764	0.629	0.4445	0.086
Mof_H 	H 	0.0699	0.6578	0.4647	-0.001
Mof_C 	C 	0.0443	0.6181	0.404	-0.153
Mof_C 	C 	0.0549	0.5749	0.3736	0.09
Mof_H 	H 	0.0331	0.5671	0.3464	-0.003
Mof_C 	C 	0.1538	0.6112	0.4995	0.336
Mof_C 	C 	0.1897	0.5751	0.5168	-0.445
Mof_H 	H 	0.1909	0.5428	0.5016	0.21
Mof_C 	C 	0.2233	0.5869	0.5561	0.489
Mof_C 	C 	0.2225	0.6356	0.5798	-0.48
Mof_C 	C 	0.1874	0.6717	0.5617	0.592
Mof_C 	C 	0.1535	0.6593	0.5218	-0.482
Mof_H 	H 	0.1303	0.6839	0.5102	0.235
Mof_C 	C 	0.2598	0.6495	0.6211	0.544
Mof_C 	C 	0.0015	0.6529	0.3901	0.303
Mof_C 	C 	0.9837	0.6895	0.4262	-0.415
Mof_H 	H 	0.9981	0.6906	0.4589	0.19
Mof_C 	C 	0.9453	0.7235	0.4135	0.462
Mof_C 	C 	0.9232	0.7228	0.3647	-0.429
Mof_C 	C 	0.9402	0.6867	0.3291	0.503
Mof_C 	C 	0.9788	0.6529	0.341	-0.447
Mof_H 	H 	0.9902	0.6296	0.3163	0.216
Mof_C 	C 	0.8817	0.7598	0.3502	0.53
Mof_O 	O 	0.1898	0.3533	0.2498	-0.476
Mof_O 	O 	0.1198	0.3719	0.2046	-0.479
Mof_O 	O 	0.2957	0.6183	0.6291	-0.512
Mof_O 	O 	0.2518	0.6885	0.6474	-0.505
Mof_O 	O 	0.8715	0.7959	0.3812	-0.492
Mof_O 	O 	0.857	0.7518	0.3099	-0.488
Mof_O 	O 	0.055	0.4358	0.2414	-0.513
Mof_H 	H 	0.0591	0.4521	0.2147	0.286
Mof_O 	O 	0.2583	0.5504	0.568	-0.496
Mof_H 	H 	0.2812	0.5632	0.5856	0.313
Mof_O 	O 	0.9322	0.7576	0.4508	-0.49
Mof_H 	H 	0.9199	0.7834	0.4376	0.322
Mof_O 	O 	0.189	0.713	0.569	-0.351
Mof_O 	O 	0.9232	0.6875	0.2812	-0.487
Mof_H 	H 	0.9412	0.7069	0.264	0.3
Mof_O 	O 	0.2028	0.399	0.3357	-0.491
Mof_H 	H 	0.2268	0.3992	0.3153	0.296
Mof_Zn	Zn	0.79749	0.79452	0.29579	1.233
Mof_C 	C 	0.8515	0.8793	0.2586	0.529
Mof_C 	C 	0.8654	0.9195	0.22	-0.434
Mof_C 	C 	0.8326	0.9323	0.1793	0.488
Mof_C 	C 	0.8457	0.9726	0.1464	-0.453
Mof_H 	H 	0.8231	0.9813	0.1201	0.203
Mof_C 	C 	0.8902	0.9998	0.1513	0.343
Mof_C 	C 	0.922	0.987	0.1923	-0.473
Mof_H 	H 	0.9525	0.005	0.1972	0.209
Mof_C 	C 	0.9094	0.9482	0.2259	0.518
Mof_C 	C 	0.904	0.0439	0.1174	-0.164
Mof_C 	C 	0.8713	0.0555	0.0757	0.084
Mof_H 	H 	0.8427	0.0349	0.0692	-0.006
Mof_C 	C 	0.8817	0.0982	0.0438	-0.156
Mof_C 	C 	0.9236	0.129	0.0555	0.086
Mof_H 	H 	0.9301	0.1578	0.0353	-0.001
Mof_C 	C 	0.9557	0.1181	0.096	-0.153
Mof_C 	C 	0.9451	0.0749	0.1264	0.09
Mof_H 	H 	0.9669	0.0671	0.1536	-0.003
Mof_C 	C 	0.8462	0.1112	0.0005	0.336
Mof_C 	C 	0.8103	0.0751	0.9832	-0.445
Mof_H 	H 	0.8091	0.0428	0.9984	0.21
Mof_C 	C 	0.7767	0.0869	0.9439	0.489
Mof_C 	C 	0.7775	0.1356	0.9202	-0.48
Mof_C 	C 	0.8126	0.1717	0.9383	0.592
Mof_C 	C 	0.8465	0.1593	0.9782	-0.482
Mof_H 	H 	0.8697	0.1839	0.9898	0.235
Mof_C 	C 	0.7402	0.1495	0.8789	0.544
Mof_C 	C 	0.9985	0.1529	0.1099	0.302
Mof_C 	C 	0.0163	0.1895	0.0738	-0.414
Mof_H 	H 	0.0019	0.1906	0.0411	0.19
Mof_C 	C 	0.0547	0.2235	0.0865	0.462
Mof_C 	C 	0.0768	0.2228	0.1353	-0.429
Mof_C 	C 	0.0598	0.1867	0.1709	0.503
Mof_C 	C 	0.0212	0.1529	0.159	-0.446
Mof_H 	H 	0.0098	0.1296	0.1837	0.215
Mof_C 	C 	0.1183	0.2598	0.1498	0.529
Mof_O 	O 	0.8102	0.8533	0.2502	-0.476
Mof_O 	O 	0.8802	0.8719	0.2954	-0.479
Mof_O 	O 	0.7043	0.1183	0.8709	-0.512
Mof_O 	O 	0.7482	0.1885	0.8526	-0.505
Mof_O 	O 	0.1285	0.2959	0.1188	-0.492
Mof_O 	O 	0.143	0.2518	0.1901	-0.488
Mof_O 	O 	0.945	0.9358	0.2586	-0.513
Mof_H 	H 	0.9409	0.9521	0.2853	0.285
Mof_O 	O 	0.7417	0.0504	0.932	-0.496
Mof_H 	H 	0.7188	0.0632	0.9144	0.313
Mof_O 	O 	0.0678	0.2576	0.0492	-0.49
Mof_H 	H 	0.0801	0.2834	0.0624	0.322
Mof_O 	O 	0.811	0.213	0.931	-0.351
Mof_O 	O 	0.0768	0.1875	0.2188	-0.487
Mof_H 	H 	0.0588	0.2069	0.236	0.3
Mof_O 	O 	0.7972	0.899	0.1643	-0.491
Mof_H 	H 	0.7732	0.8992	0.1847	0.296
Mof_Zn	Zn	0.70251	0.20548	0.79579	1.233
Mof_C 	C 	0.6485	0.1207	0.7586	0.529
Mof_C 	C 	0.6346	0.0805	0.72	-0.435
Mof_C 	C 	0.6674	0.0677	0.6793	0.488
Mof_C 	C 	0.6543	0.0274	0.6464	-0.454
Mof_H 	H 	0.6769	0.0187	0.6201	0.203
Mof_C 	C 	0.6098	0.0002	0.6513	0.343
Mof_C 	C 	0.578	0.013	0.6923	-0.473
Mof_H 	H 	0.5475	0.995	0.6972	0.209
Mof_C 	C 	0.5906	0.0518	0.7259	0.518
Mof_C 	C 	0.596	0.9561	0.6174	-0.164
Mof_C 	C 	0.6287	0.9445	0.5757	0.084
Mof_H 	H 	0.6573	0.9651	0.5692	-0.006
Mof_C 	C 	0.6183	0.9018	0.5438	-0.156
Mof_C 	C 	0.5764	0.871	0.5555	0.086
Mof_H 	H 	0.5699	0.8422	0.5353	-0.001
Mof_C 	C 	0.5443	0.8819	0.596	-0.153
Mof_C 	C 	0.5549	0.9251	0.6264	0.09
Mof_H 	H 	0.5331	0.9329	0.6536	-0.003
Mof_C 	C 	0.6538	0.8888	0.5005	0.336
Mof_C 	C 	0.6897	0.9249	0.4832	-0.445
Mof_H 	H 	0.6909	0.9572	0.4984	0.21
Mof_C 	C 	0.7233	0.9131	0.4439	0.489
Mof_C 	C 	0.7225	0.8644	0.4202	-0.48
Mof_C 	C 	0.6874	0.8283	0.4383	0.592
Mof_C 	C 	0.6535	0.8407	0.4782	-0.482
Mof_H 	H 	0.6303	0.8161	0.4898	0.235
Mof_C 	C 	0.7598	0.8505	0.3789	0.544
Mof_C 	C 	0.5015	0.8471	0.6099	0.303
Mof_C 	C 	0.4837	0.8105	0.5738	-0.415
Mof_H 	H 	0.4981	0.8094	0.5411	0.19
Mof_C 	C 	0.4453	0.7765	0.5865	0.462
Mof_C 	C 	0.4232	0.7772	0.6353	-0.429
Mof_C 	C 	0.4402	0.8133	0.6709	0.503
Mof_C 	C 	0.4788	0.8471	0.659	-0.447
Mof_H 	H 	0.4902	0.8704	0.6837	0.216
Mof_C 	C 	0.3817	0.7402	0.6498	0.53
Mof_O 	O 	0.6898	0.1467	0.7502	-0.476
Mof_O 	O 	0.6198	0.1281	0.7954	-0.479
Mof_O 	O 	0.7957	0.8817	0.3709	-0.512
Mof_O 	O 	0.7518	0.8115	0.3526	-0.505
Mof_O 	O 	0.3715	0.7041	0.6188	-0.492
Mof_O 	O 	0.357	0.7482	0.6901	-0.488
Mof_O 	O 	0.555	0.0642	0.7586	-0.513
Mof_H 	H 	0.5591	0.0479	0.7853	0.285
Mof_O 	O 	0.7583	0.9496	0.432	-0.496
Mof_H 	H 	0.7812	0.9368	0.4144	0.313
Mof_O 	O 	0.4322	0.7424	0.5492	-0.49
Mof_H 	H 	0.4199	0.7166	0.5624	0.322
Mof_O 	O 	0.689	0.787	0.431	-0.351
Mof_O 	O 	0.4232	0.8125	0.7188	-0.487
Mof_H 	H 	0.4412	0.7931	0.736	0.3
Mof_O 	O 	0.7028	0.101	0.6643	-0.491
Mof_H 	H 	0.7268	0.1008	0.6847	0.296
Mof_Zn	Zn	0.20548	0.79579	0.70251	1.233
Mof_C 	C 	0.1207	0.7586	0.6485	0.529
Mof_C 	C 	0.0805	0.72	0.6346	-0.435
Mof_C 	C 	0.0677	0.6793	0.6674	0.488
Mof_C 	C 	0.0274	0.6464	0.6543	-0.454
Mof_H 	H 	0.0187	0.6201	0.6769	0.203
Mof_C 	C 	0.0002	0.6513	0.6098	0.343
Mof_C 	C 	0.013	0.6923	0.578	-0.473
Mof_H 	H 	0.995	0.6972	0.5475	0.209
Mof_C 	C 	0.0518	0.7259	0.5906	0.518
Mof_C 	C 	0.9561	0.6174	0.596	-0.164
Mof_C 	C 	0.9445	0.5757	0.6287	0.084
Mof_H 	H 	0.9651	0.5692	0.6573	-0.006
Mof_C 	C 	0.9018	0.5438	0.6183	-0.156
Mof_C 	C 	0.871	0.5555	0.5764	0.086
Mof_H 	H 	0.8422	0.5353	0.5699	-0.001
Mof_C 	C 	0.8819	0.596	0.5443	-0.153
Mof_C 	C 	0.9251	0.6264	0.5549	0.09
Mof_H 	H 	0.9329	0.6536	0.5331	-0.003
Mof_C 	C 	0.8888	0.5005	0.6538	0.336
Mof_C 	C 	0.9249	0.4832	0.6897	-0.445
Mof_H 	H 	0.9572	0.4984	0.6909	0.21
Mof_C 	C 	0.9131	0.4439	0.7233	0.489
Mof_C 	C 	0.8644	0.4202	0.7225	-0.48
Mof_C 	C 	0.8283	0.4383	0.6874	0.592
Mof_C 	C 	0.8407	0.4782	0.6535	-0.482
Mof_H 	H 	0.8161	0.4898	0.6303	0.235
Mof_C 	C 	0.8505	0.3789	0.7598	0.544
Mof_C 	C 	0.8471	0.6099	0.5015	0.303
Mof_C 	C 	0.8105	0.5738	0.4837	-0.415
Mof_H 	H 	0.8094	0.5411	0.4981	0.19
Mof_C 	C 	0.7765	0.5865	0.4453	0.462
Mof_C 	C 	0.7772	0.6353	0.4232	-0.429
Mof_C 	C 	0.8133	0.6709	0.4402	0.503
Mof_C 	C 	0.8471	0.659	0.4788	-0.447
Mof_H 	H 	0.8704	0.6837	0.4902	0.216
Mof_C 	C 	0.7402	0.6498	0.3817	0.53
Mof_O 	O 	0.1467	0.7502	0.6898	-0.476
Mof_O 	O 	0.1281	0.7954	0.6198	-0.479
Mof_O 	O 	0.8817	0.3709	0.7957	-0.512
Mof_O 	O 	0.8115	0.3526	0.7518	-0.505
Mof_O 	O 	0.7041	0.6188	0.3715	-0.492
Mof_O 	O 	0.7482	0.6901	0.357	-0.488
Mof_O 	O 	0.0642	0.7586	0.555	-0.513
Mof_H 	H 	0.0479	0.7853	0.5591	0.285
Mof_O 	O 	0.9496	0.432	0.7583	-0.496
Mof_H 	H 	0.9368	0.4144	0.7812	0.313
Mof_O 	O 	0.7424	0.5492	0.4322	-0.49
Mof_H 	H 	0.7166	0.5624	0.4199	0.322
Mof_O 	O 	0.787	0.431	0.689	-0.351
Mof_O 	O 	0.8125	0.7188	0.4232	-0.487
Mof_H 	H 	0.7931	0.736	0.4412	0.3
Mof_O 	O 	0.101	0.6643	0.7028	-0.491
Mof_H 	H 	0.1008	0.6847	0.7268	0.296
Mof_Zn	Zn	0.79452	0.29579	0.79749	1.233
Mof_C 	C 	0.8793	0.2586	0.8515	0.529
Mof_C 	C 	0.9195	0.22	0.8654	-0.434
Mof_C 	C 	0.9323	0.1793	0.8326	0.488
Mof_C 	C 	0.9726	0.1464	0.8457	-0.453
Mof_H 	H 	0.9813	0.1201	0.8231	0.203
Mof_C 	C 	0.9998	0.1513	0.8902	0.343
Mof_C 	C 	0.987	0.1923	0.922	-0.473
Mof_H 	H 	0.005	0.1972	0.9525	0.209
Mof_C 	C 	0.9482	0.2259	0.9094	0.518
Mof_C 	C 	0.0439	0.1174	0.904	-0.164
Mof_C 	C 	0.0555	0.0757	0.8713	0.084
Mof_H 	H 	0.0349	0.0692	0.8427	-0.006
Mof_C 	C 	0.0982	0.0438	0.8817	-0.156
Mof_C 	C 	0.129	0.0555	0.9236	0.086
Mof_H 	H 	0.1578	0.0353	0.9301	-0.001
Mof_C 	C 	0.1181	0.096	0.9557	-0.153
Mof_C 	C 	0.0749	0.1264	0.9451	0.09
Mof_H 	H 	0.0671	0.1536	0.9669	-0.003
Mof_C 	C 	0.1112	0.0005	0.8462	0.336
Mof_C 	C 	0.0751	0.9832	0.8103	-0.445
Mof_H 	H 	0.0428	0.9984	0.8091	0.21
Mof_C 	C 	0.0869	0.9439	0.7767	0.489
Mof_C 	C 	0.1356	0.9202	0.7775	-0.48
Mof_C 	C 	0.1717	0.9383	0.8126	0.592
Mof_C 	C 	0.1593	0.9782	0.8465	-0.482
Mof_H 	H 	0.1839	0.9898	0.8697	0.235
Mof_C 	C 	0.1495	0.8789	0.7402	0.544
Mof_C 	C 	0.1529	0.1099	0.9985	0.302
Mof_C 	C 	0.1895	0.0738	0.0163	-0.414
Mof_H 	H 	0.1906	0.0411	0.0019	0.19
Mof_C 	C 	0.2235	0.0865	0.0547	0.462
Mof_C 	C 	0.2228	0.1353	0.0768	-0.429
Mof_C 	C 	0.1867	0.1709	0.0598	0.503
Mof_C 	C 	0.1529	0.159	0.0212	-0.446
Mof_H 	H 	0.1296	0.1837	0.0098	0.215
Mof_C 	C 	0.2598	0.1498	0.1183	0.529
Mof_O 	O 	0.8533	0.2502	0.8102	-0.476
Mof_O 	O 	0.8719	0.2954	0.8802	-0.479
Mof_O 	O 	0.1183	0.8709	0.7043	-0.512
Mof_O 	O 	0.1885	0.8526	0.7482	-0.505
Mof_O 	O 	0.2959	0.1188	0.1285	-0.492
Mof_O 	O 	0.2518	0.1901	0.143	-0.488
Mof_O 	O 	0.9358	0.2586	0.945	-0.513
Mof_H 	H 	0.9521	0.2853	0.9409	0.285
Mof_O 	O 	0.0504	0.932	0.7417	-0.496
Mof_H 	H 	0.0632	0.9144	0.7188	0.313
Mof_O 	O 	0.2576	0.0492	0.0678	-0.49
Mof_H 	H 	0.2834	0.0624	0.0801	0.322
Mof_O 	O 	0.213	0.931	0.811	-0.351
Mof_O 	O 	0.1875	0.2188	0.0768	-0.487
Mof_H 	H 	0.2069	0.236	0.0588	0.3
Mof_O 	O 	0.899	0.1643	0.7972	-0.491
Mof_H 	H 	0.8992	0.1847	0.7732	0.296
Mof_Zn	Zn	0.29452	0.20421	0.20251	1.233
Mof_C 	C 	0.3793	0.2414	0.1485	0.529
Mof_C 	C 	0.4195	0.28	0.1346	-0.435
Mof_C 	C 	0.4323	0.3207	0.1674	0.488
Mof_C 	C 	0.4726	0.3536	0.1543	-0.454
Mof_H 	H 	0.4813	0.3799	0.1769	0.203
Mof_C 	C 	0.4998	0.3487	0.1098	0.344
Mof_C 	C 	0.487	0.3077	0.078	-0.473
Mof_H 	H 	0.505	0.3028	0.0475	0.209
Mof_C 	C 	0.4482	0.2741	0.0906	0.518
Mof_C 	C 	0.5439	0.3826	0.096	-0.164
Mof_C 	C 	0.5555	0.4243	0.1287	0.084
Mof_H 	H 	0.5349	0.4308	0.1573	-0.006
Mof_C 	C 	0.5982	0.4562	0.1183	-0.156
Mof_C 	C 	0.629	0.4445	0.0764	0.086
Mof_H 	H 	0.6578	0.4647	0.0699	-0.001
Mof_C 	C 	0.6181	0.404	0.0443	-0.153
Mof_C 	C 	0.5749	0.3736	0.0549	0.09
Mof_H 	H 	0.5671	0.3464	0.0331	-0.003
Mof_C 	C 	0.6112	0.4995	0.1538	0.336
Mof_C 	C 	0.5751	0.5168	0.1897	-0.445
Mof_H 	H 	0.5428	0.5016	0.1909	0.21
Mof_C 	C 	0.5869	0.5561	0.2233	0.489
Mof_C 	C 	0.6356	0.5798	0.2225	-0.48
Mof_C 	C 	0.6717	0.5617	0.1874	0.592
Mof_C 	C 	0.6593	0.5218	0.1535	-0.482
Mof_H 	H 	0.6839	0.5102	0.1303	0.235
Mof_C 	C 	0.6495	0.6211	0.2598	0.544
Mof_C 	C 	0.6529	0.3901	0.0015	0.303
Mof_C 	C 	0.6895	0.4262	0.9837	-0.415
Mof_H 	H 	0.6906	0.4589	0.9981	0.19
Mof_C 	C 	0.7235	0.4135	0.9453	0.462
Mof_C 	C 	0.7228	0.3647	0.9232	-0.429
Mof_C 	C 	0.6867	0.3291	0.9402	0.503
Mof_C 	C 	0.6529	0.341	0.9788	-0.447
Mof_H 	H 	0.6296	0.3163	0.9902	0.216
Mof_C 	C 	0.7598	0.3502	0.8817	0.53
Mof_O 	O 	0.3533	0.2498	0.1898	-0.476
Mof_O 	O 	0.3719	0.2046	0.1198	-0.479
Mof_O 	O 	0.6183	0.6291	0.2957	-0.512
Mof_O 	O 	0.6885	0.6474	0.2518	-0.505
Mof_O 	O 	0.7959	0.3812	0.8715	-0.492
Mof_O 	O 	0.7518	0.3099	0.857	-0.488
Mof_O 	O 	0.4358	0.2414	0.055	-0.513
Mof_H 	H 	0.4521	0.2147	0.0591	0.286
Mof_O 	O 	0.5504	0.568	0.2583	-0.496
Mof_H 	H 	0.5632	0.5856	0.2812	0.313
Mof_O 	O 	0.7576	0.4508	0.9322	-0.49
Mof_H 	H 	0.7834	0.4376	0.9199	0.322
Mof_O 	O 	0.713	0.569	0.189	-0.351
Mof_O 	O 	0.6875	0.2812	0.9232	-0.487
Mof_H 	H 	0.7069	0.264	0.9412	0.3
Mof_O 	O 	0.399	0.3357	0.2028	-0.491
Mof_H 	H 	0.3992	0.3153	0.2268	0.296
Mof_Zn	Zn	0.70548	0.70421	0.29749	1.233
Mof_C 	C 	0.6207	0.7414	0.3515	0.529
Mof_C 	C 	0.5805	0.78	0.3654	-0.435
Mof_C 	C 	0.5677	0.8207	0.3326	0.488
Mof_C 	C 	0.5274	0.8536	0.3457	-0.454
Mof_H 	H 	0.5187	0.8799	0.3231	0.203
Mof_C 	C 	0.5002	0.8487	0.3902	0.344
Mof_C 	C 	0.513	0.8077	0.422	-0.473
Mof_H 	H 	0.495	0.8028	0.4525	0.209
Mof_C 	C 	0.5518	0.7741	0.4094	0.518
Mof_C 	C 	0.4561	0.8826	0.404	-0.164
Mof_C 	C 	0.4445	0.9243	0.3713	0.084
Mof_H 	H 	0.4651	0.9308	0.3427	-0.006
Mof_C 	C 	0.4018	0.9562	0.3817	-0.156
Mof_C 	C 	0.371	0.9445	0.4236	0.086
Mof_H 	H 	0.3422	0.9647	0.4301	-0.001
Mof_C 	C 	0.3819	0.904	0.4557	-0.153
Mof_C 	C 	0.4251	0.8736	0.4451	0.09
Mof_H 	H 	0.4329	0.8464	0.4669	-0.003
Mof_C 	C 	0.3888	0.9995	0.3462	0.335
Mof_C 	C 	0.4249	0.0168	0.3103	-0.445
Mof_H 	H 	0.4572	0.0016	0.3091	0.21
Mof_C 	C 	0.4131	0.0561	0.2767	0.488
Mof_C 	C 	0.3644	0.0798	0.2775	-0.48
Mof_C 	C 	0.3283	0.0617	0.3126	0.592
Mof_C 	C 	0.3407	0.0218	0.3465	-0.482
Mof_H 	H 	0.3161	0.0102	0.3697	0.235
Mof_C 	C 	0.3505	0.1211	0.2402	0.544
Mof_C 	C 	0.3471	0.8901	0.4985	0.303
Mof_C 	C 	0.3105	0.9262	0.5163	-0.415
Mof_H 	H 	0.3094	0.9589	0.5019	0.19
Mof_C 	C 	0.2765	0.9135	0.5547	0.462
Mof_C 	C 	0.2772	0.8647	0.5768	-0.429
Mof_C 	C 	0.3133	0.8291	0.5598	0.503
Mof_C 	C 	0.3471	0.841	0.5212	-0.447
Mof_H 	H 	0.3704	0.8163	0.5098	0.216
Mof_C 	C 	0.2402	0.8502	0.6183	0.53
Mof_O 	O 	0.6467	0.7498	0.3102	-0.476
Mof_O 	O 	0.6281	0.7046	0.3802	-0.479
Mof_O 	O 	0.3817	0.1291	0.2043	-0.512
Mof_O 	O 	0.3115	0.1474	0.2482	-0.505
Mof_O 	O 	0.2041	0.8812	0.6285	-0.492
Mof_O 	O 	0.2482	0.8099	0.643	-0.488
Mof_O 	O 	0.5642	0.7414	0.445	-0.513
Mof_H 	H 	0.5479	0.7147	0.4409	0.285
Mof_O 	O 	0.4496	0.068	0.2417	-0.496
Mof_H 	H 	0.4368	0.0856	0.2188	0.313
Mof_O 	O 	0.2424	0.9508	0.5678	-0.49
Mof_H 	H 	0.2166	0.9376	0.5801	0.322
Mof_O 	O 	0.287	0.069	0.311	-0.351
Mof_O 	O 	0.3125	0.7812	0.5768	-0.487
Mof_H 	H 	0.2931	0.764	0.5588	0.3
Mof_O 	O 	0.601	0.8357	0.2972	-0.491
Mof_H 	H 	0.6008	0.8153	0.2732	0.296
Mof_Zn	Zn	0.29579	0.79749	0.79452	1.233
Mof_C 	C 	0.2586	0.8515	0.8793	0.529
Mof_C 	C 	0.22	0.8654	0.9195	-0.434
Mof_C 	C 	0.1793	0.8326	0.9323	0.488
Mof_C 	C 	0.1464	0.8457	0.9726	-0.453
Mof_H 	H 	0.1201	0.8231	0.9813	0.203
Mof_C 	C 	0.1513	0.8902	0.9998	0.343
Mof_C 	C 	0.1923	0.922	0.987	-0.473
Mof_H 	H 	0.1972	0.9525	0.005	0.209
Mof_C 	C 	0.2259	0.9094	0.9482	0.518
Mof_C 	C 	0.1174	0.904	0.0439	-0.164
Mof_C 	C 	0.0757	0.8713	0.0555	0.084
Mof_H 	H 	0.0692	0.8427	0.0349	-0.006
Mof_C 	C 	0.0438	0.8817	0.0982	-0.156
Mof_C 	C 	0.0555	0.9236	0.129	0.086
Mof_H 	H 	0.0353	0.9301	0.1578	-0.001
Mof_C 	C 	0.096	0.9557	0.1181	-0.153
Mof_C 	C 	0.1264	0.9451	0.0749	0.09
Mof_H 	H 	0.1536	0.9669	0.0671	-0.003
Mof_C 	C 	0.0005	0.8462	0.1112	0.336
Mof_C 	C 	0.9832	0.8103	0.0751	-0.445
Mof_H 	H 	0.9984	0.8091	0.0428	0.21
Mof_C 	C 	0.9439	0.7767	0.0869	0.489
Mof_C 	C 	0.9202	0.7775	0.1356	-0.48
Mof_C 	C 	0.9383	0.8126	0.1717	0.592
Mof_C 	C 	0.9782	0.8465	0.1593	-0.482
Mof_H 	H 	0.9898	0.8697	0.1839	0.235
Mof_C 	C 	0.8789	0.7402	0.1495	0.544
Mof_C 	C 	0.1099	0.9985	0.1529	0.302
Mof_C 	C 	0.0738	0.0163	0.1895	-0.414
Mof_H 	H 	0.0411	0.0019	0.1906	0.19
Mof_C 	C 	0.0865	0.0547	0.2235	0.462
Mof_C 	C 	0.1353	0.0768	0.2228	-0.429
Mof_C 	C 	0.1709	0.0598	0.1867	0.503
Mof_C 	C 	0.159	0.0212	0.1529	-0.446
Mof_H 	H 	0.1837	0.0098	0.1296	0.215
Mof_C 	C 	0.1498	0.1183	0.2598	0.529
Mof_O 	O 	0.2502	0.8102	0.8533	-0.476
Mof_O 	O 	0.2954	0.8802	0.8719	-0.479
Mof_O 	O 	0.8709	0.7043	0.1183	-0.512
Mof_O 	O 	0.8526	0.7482	0.1885	-0.505
Mof_O 	O 	0.1188	0.1285	0.2959	-0.492
Mof_O 	O 	0.1901	0.143	0.2518	-0.488
Mof_O 	O 	0.2586	0.945	0.9358	-0.513
Mof_H 	H 	0.2853	0.9409	0.9521	0.285
Mof_O 	O 	0.932	0.7417	0.0504	-0.496
Mof_H 	H 	0.9144	0.7188	0.0632	0.313
Mof_O 	O 	0.0492	0.0678	0.2576	-0.49
Mof_H 	H 	0.0624	0.0801	0.2834	0.322
Mof_O 	O 	0.931	0.811	0.213	-0.351
Mof_O 	O 	0.2188	0.0768	0.1875	-0.487
Mof_H 	H 	0.236	0.0588	0.2069	0.3
Mof_O 	O 	0.1643	0.7972	0.899	-0.491
Mof_H 	H 	0.1847	0.7732	0.8992	0.296
Mof_Zn	Zn	0.79579	0.70251	0.20548	1.233
Mof_C 	C 	0.7586	0.6485	0.1207	0.529
Mof_C 	C 	0.72	0.6346	0.0805	-0.435
Mof_C 	C 	0.6793	0.6674	0.0677	0.488
Mof_C 	C 	0.6464	0.6543	0.0274	-0.454
Mof_H 	H 	0.6201	0.6769	0.0187	0.203
Mof_C 	C 	0.6513	0.6098	0.0002	0.343
Mof_C 	C 	0.6923	0.578	0.013	-0.473
Mof_H 	H 	0.6972	0.5475	0.995	0.209
Mof_C 	C 	0.7259	0.5906	0.0518	0.518
Mof_C 	C 	0.6174	0.596	0.9561	-0.164
Mof_C 	C 	0.5757	0.6287	0.9445	0.084
Mof_H 	H 	0.5692	0.6573	0.9651	-0.006
Mof_C 	C 	0.5438	0.6183	0.9018	-0.156
Mof_C 	C 	0.5555	0.5764	0.871	0.086
Mof_H 	H 	0.5353	0.5699	0.8422	-0.001
Mof_C 	C 	0.596	0.5443	0.8819	-0.153
Mof_C 	C 	0.6264	0.5549	0.9251	0.09
Mof_H 	H 	0.6536	0.5331	0.9329	-0.003
Mof_C 	C 	0.5005	0.6538	0.8888	0.336
Mof_C 	C 	0.4832	0.6897	0.9249	-0.445
Mof_H 	H 	0.4984	0.6909	0.9572	0.21
Mof_C 	C 	0.4439	0.7233	0.9131	0.489
Mof_C 	C 	0.4202	0.7225	0.8644	-0.48
Mof_C 	C 	0.4383	0.6874	0.8283	0.592
Mof_C 	C 	0.4782	0.6535	0.8407	-0.482
Mof_H 	H 	0.4898	0.6303	0.8161	0.235
Mof_C 	C 	0.3789	0.7598	0.8505	0.544
Mof_C 	C 	0.6099	0.5015	0.8471	0.303
Mof_C 	C 	0.5738	0.4837	0.8105	-0.415
Mof_H 	H 	0.5411	0.4981	0.8094	0.19
Mof_C 	C 	0.5865	0.4453	0.7765	0.462
Mof_C 	C 	0.6353	0.4232	0.7772	-0.429
Mof_C 	C 	0.6709	0.4402	0.8133	0.503
Mof_C 	C 	0.659	0.4788	0.8471	-0.447
Mof_H 	H 	0.6837	0.4902	0.8704	0.216
Mof_C 	C 	0.6498	0.3817	0.7402	0.53
Mof_O 	O 	0.7502	0.6898	0.1467	-0.476
Mof_O 	O 	0.7954	0.6198	0.1281	-0.479
Mof_O 	O 	0.3709	0.7957	0.8817	-0.512
Mof_O 	O 	0.3526	0.7518	0.8115	-0.505
Mof_O 	O 	0.6188	0.3715	0.7041	-0.492
Mof_O 	O 	0.6901	0.357	0.7482	-0.488
Mof_O 	O 	0.7586	0.555	0.0642	-0.513
Mof_H 	H 	0.7853	0.5591	0.0479	0.285
Mof_O 	O 	0.432	0.7583	0.9496	-0.496
Mof_H 	H 	0.4144	0.7812	0.9368	0.313
Mof_O 	O 	0.5492	0.4322	0.7424	-0.49
Mof_H 	H 	0.5624	0.4199	0.7166	0.322
Mof_O 	O 	0.431	0.689	0.787	-0.351
Mof_O 	O 	0.7188	0.4232	0.8125	-0.487
Mof_H 	H 	0.736	0.4412	0.7931	0.3
Mof_O 	O 	0.6643	0.7028	0.101	-0.491
Mof_H 	H 	0.6847	0.7268	0.1008	0.296
Mof_Zn	Zn	0.70421	0.29749	0.70548	1.233
Mof_C 	C 	0.7414	0.3515	0.6207	0.529
Mof_C 	C 	0.78	0.3654	0.5805	-0.435
Mof_C 	C 	0.8207	0.3326	0.5677	0.488
Mof_C 	C 	0.8536	0.3457	0.5274	-0.454
Mof_H 	H 	0.8799	0.3231	0.5187	0.203
Mof_C 	C 	0.8487	0.3902	0.5002	0.344
Mof_C 	C 	0.8077	0.422	0.513	-0.473
Mof_H 	H 	0.8028	0.4525	0.495	0.209
Mof_C 	C 	0.7741	0.4094	0.5518	0.518
Mof_C 	C 	0.8826	0.404	0.4561	-0.164
Mof_C 	C 	0.9243	0.3713	0.4445	0.084
Mof_H 	H 	0.9308	0.3427	0.4651	-0.006
Mof_C 	C 	0.9562	0.3817	0.4018	-0.156
Mof_C 	C 	0.9445	0.4236	0.371	0.086
Mof_H 	H 	0.9647	0.4301	0.3422	-0.001
Mof_C 	C 	0.904	0.4557	0.3819	-0.153
Mof_C 	C 	0.8736	0.4451	0.4251	0.09
Mof_H 	H 	0.8464	0.4669	0.4329	-0.003
Mof_C 	C 	0.9995	0.3462	0.3888	0.335
Mof_C 	C 	0.0168	0.3103	0.4249	-0.445
Mof_H 	H 	0.0016	0.3091	0.4572	0.21
Mof_C 	C 	0.0561	0.2767	0.4131	0.488
Mof_C 	C 	0.0798	0.2775	0.3644	-0.48
Mof_C 	C 	0.0617	0.3126	0.3283	0.592
Mof_C 	C 	0.0218	0.3465	0.3407	-0.482
Mof_H 	H 	0.0102	0.3697	0.3161	0.235
Mof_C 	C 	0.1211	0.2402	0.3505	0.544
Mof_C 	C 	0.8901	0.4985	0.3471	0.303
Mof_C 	C 	0.9262	0.5163	0.3105	-0.415
Mof_H 	H 	0.9589	0.5019	0.3094	0.19
Mof_C 	C 	0.9135	0.5547	0.2765	0.462
Mof_C 	C 	0.8647	0.5768	0.2772	-0.429
Mof_C 	C 	0.8291	0.5598	0.3133	0.503
Mof_C 	C 	0.841	0.5212	0.3471	-0.447
Mof_H 	H 	0.8163	0.5098	0.3704	0.216
Mof_C 	C 	0.8502	0.6183	0.2402	0.53
Mof_O 	O 	0.7498	0.3102	0.6467	-0.476
Mof_O 	O 	0.7046	0.3802	0.6281	-0.479
Mof_O 	O 	0.1291	0.2043	0.3817	-0.512
Mof_O 	O 	0.1474	0.2482	0.3115	-0.505
Mof_O 	O 	0.8812	0.6285	0.2041	-0.492
Mof_O 	O 	0.8099	0.643	0.2482	-0.488
Mof_O 	O 	0.7414	0.445	0.5642	-0.513
Mof_H 	H 	0.7147	0.4409	0.5479	0.285
Mof_O 	O 	0.068	0.2417	0.4496	-0.496
Mof_H 	H 	0.0856	0.2188	0.4368	0.313
Mof_O 	O 	0.9508	0.5678	0.2424	-0.49
Mof_H 	H 	0.9376	0.5801	0.2166	0.322
Mof_O 	O 	0.069	0.311	0.287	-0.351
Mof_O 	O 	0.7812	0.5768	0.3125	-0.487
Mof_H 	H 	0.764	0.5588	0.2931	0.3
Mof_O 	O 	0.8357	0.2972	0.601	-0.491
Mof_H 	H 	0.8153	0.2732	0.6008	0.296
Mof_Zn	Zn	0.20421	0.20251	0.29452	1.233
Mof_C 	C 	0.2414	0.1485	0.3793	0.529
Mof_C 	C 	0.28	0.1346	0.4195	-0.435
Mof_C 	C 	0.3207	0.1674	0.4323	0.488
Mof_C 	C 	0.3536	0.1543	0.4726	-0.454
Mof_H 	H 	0.3799	0.1769	0.4813	0.203
Mof_C 	C 	0.3487	0.1098	0.4998	0.344
Mof_C 	C 	0.3077	0.078	0.487	-0.473
Mof_H 	H 	0.3028	0.0475	0.505	0.209
Mof_C 	C 	0.2741	0.0906	0.4482	0.518
Mof_C 	C 	0.3826	0.096	0.5439	-0.164
Mof_C 	C 	0.4243	0.1287	0.5555	0.084
Mof_H 	H 	0.4308	0.1573	0.5349	-0.006
Mof_C 	C 	0.4562	0.1183	0.5982	-0.156
Mof_C 	C 	0.4445	0.0764	0.629	0.086
Mof_H 	H 	0.4647	0.0699	0.6578	-0.001
Mof_C 	C 	0.404	0.0443	0.6181	-0.153
Mof_C 	C 	0.3736	0.0549	0.5749	0.09
Mof_H 	H 	0.3464	0.0331	0.5671	-0.003
Mof_C 	C 	0.4995	0.1538	0.6112	0.336
Mof_C 	C 	0.5168	0.1897	0.5751	-0.445
Mof_H 	H 	0.5016	0.1909	0.5428	0.21
Mof_C 	C 	0.5561	0.2233	0.5869	0.489
Mof_C 	C 	0.5798	0.2225	0.6356	-0.48
Mof_C 	C 	0.5617	0.1874	0.6717	0.592
Mof_C 	C 	0.5218	0.1535	0.6593	-0.482
Mof_H 	H 	0.5102	0.1303	0.6839	0.235
Mof_C 	C 	0.6211	0.2598	0.6495	0.544
Mof_C 	C 	0.3901	0.0015	0.6529	0.303
Mof_C 	C 	0.4262	0.9837	0.6895	-0.415
Mof_H 	H 	0.4589	0.9981	0.6906	0.19
Mof_C 	C 	0.4135	0.9453	0.7235	0.462
Mof_C 	C 	0.3647	0.9232	0.7228	-0.429
Mof_C 	C 	0.3291	0.9402	0.6867	0.503
Mof_C 	C 	0.341	0.9788	0.6529	-0.447
Mof_H 	H 	0.3163	0.9902	0.6296	0.216
Mof_C 	C 	0.3502	0.8817	0.7598	0.53
Mof_O 	O 	0.2498	0.1898	0.3533	-0.476
Mof_O 	O 	0.2046	0.1198	0.3719	-0.479
Mof_O 	O 	0.6291	0.2957	0.6183	-0.512
Mof_O 	O 	0.6474	0.2518	0.6885	-0.505
Mof_O 	O 	0.3812	0.8715	0.7959	-0.492
Mof_O 	O 	0.3099	0.857	0.7518	-0.488
Mof_O 	O 	0.2414	0.055	0.4358	-0.513
Mof_H 	H 	0.2147	0.0591	0.4521	0.286
Mof_O 	O 	0.568	0.2583	0.5504	-0.496
Mof_H 	H 	0.5856	0.2812	0.5632	0.313
Mof_O 	O 	0.4508	0.9322	0.7576	-0.49
Mof_H 	H 	0.4376	0.9199	0.7834	0.322
Mof_O 	O 	0.569	0.189	0.713	-0.351
Mof_O 	O 	0.2812	0.9232	0.6875	-0.487
Mof_H 	H 	0.264	0.9412	0.7069	0.3
Mof_O 	O 	0.3357	0.2028	0.399	-0.491
Mof_H 	H 	0.3153	0.2268	0.3992	0.296
Mof_Zn	Zn	0.12428	0.37428	0.125	1.248
Mof_Zn	Zn	0.37572	0.62572	0.625	1.248
Mof_Zn	Zn	0.87572	0.87428	0.375	1.248
Mof_Zn	Zn	0.62428	0.12572	0.875	1.248
Mof_Zn	Zn	0.125	0.12428	0.37428	1.248
Mof_Zn	Zn	0.625	0.37572	0.62572	1.248
Mof_Zn	Zn	0.375	0.87572	0.87428	1.248
Mof_Zn	Zn	0.875	0.62428	0.12572	1.248
Mof_Zn	Zn	0.37428	0.125	0.12428	1.248
Mof_Zn	Zn	0.62572	0.625	0.37572	1.248
Mof_Zn	Zn	0.87428	0.375	0.87572	1.248
Mof_Zn	Zn	0.12572	0.875	0.62428	1.248
Mof_O 	O 	0.5032	0.5032	0.5032	-0.628
Mof_O 	O 	0.9968	0.4968	0.0032	-0.629
Mof_O 	O 	0.4968	0.0032	0.9968	-0.629
Mof_O 	O 	0.0032	0.9968	0.4968	-0.629
Mof_O 	O 	0.2532	0.7532	0.7468	-0.628
Mof_O 	O 	0.2468	0.2468	0.2468	-0.628
Mof_O 	O 	0.7532	0.7468	0.2532	-0.628
Mof_O 	O 	0.7468	0.2532	0.7532	-0.628
_end
