# CIF file generated by openbabel 3.1.0, see https://openbabel.org
data_I
_chemical_name_common 'COWMEH_clean'
_cell_length_a 9.621
_cell_length_b 13.908
_cell_length_c 15.337
_cell_angle_alpha 90
_cell_angle_beta 93.425
_cell_angle_gamma 90
_space_group_name_H-M_alt 'P 1'
_space_group_name_Hall 'P 1'
loop_
    _symmetry_equiv_pos_as_xyz
    x,y,z
loop_
    _atom_site_label
    _atom_site_type_symbol
    _atom_site_fract_x
    _atom_site_fract_y
    _atom_site_fract_z
    _atom_site_occupancy
    Tb1      Tb       0.04234    0.11147    0.91414    1.000
    Tb2      Tb       0.45766    0.61147    0.58586    1.000
    Tb3      Tb       0.95766    0.88853    0.08586    1.000
    Tb4      Tb       0.54234    0.38853    0.41414    1.000
    H1       H        0.66740    0.89230    0.75180    1.000
    H2       H        0.73460    0.81140    0.81180    1.000
    H3       H        0.66610    0.88810    0.93400    1.000
    H4       H        0.55240    0.03630    0.92850    1.000
    H5       H        0.55080    0.03710    0.82610    1.000
    H6       H        0.40770    0.90330    0.92530    1.000
    H7       H        0.30990    0.83550    0.79770    1.000
    H8       H        0.39430    0.90650    0.74120    1.000
    H9       H        0.51420    0.76470    0.85500    1.000
    H10      H        0.83260    0.39230    0.74820    1.000
    H11      H        0.76540    0.31140    0.68820    1.000
    H12      H        0.83390    0.38810    0.56600    1.000
    H13      H        0.94760    0.53630    0.57150    1.000
    H14      H        0.94920    0.53710    0.67390    1.000
    H15      H        0.09230    0.40330    0.57470    1.000
    H16      H        0.19010    0.33550    0.70230    1.000
    H17      H        0.10570    0.40650    0.75880    1.000
    H18      H        0.98580    0.26470    0.64500    1.000
    H19      H        0.33260    0.10770    0.24820    1.000
    H20      H        0.26540    0.18860    0.18820    1.000
    H21      H        0.33390    0.11190    0.06600    1.000
    H22      H        0.44760    0.96370    0.07150    1.000
    H23      H        0.44920    0.96290    0.17390    1.000
    H24      H        0.59230    0.09670    0.07470    1.000
    H25      H        0.69010    0.16450    0.20230    1.000
    H26      H        0.60570    0.09350    0.25880    1.000
    H27      H        0.48580    0.23530    0.14500    1.000
    H28      H        0.16740    0.60770    0.25180    1.000
    H29      H        0.23460    0.68860    0.31180    1.000
    H30      H        0.16610    0.61190    0.43400    1.000
    H31      H        0.05240    0.46370    0.42850    1.000
    H32      H        0.05080    0.46290    0.32610    1.000
    H33      H        0.90770    0.59670    0.42530    1.000
    H34      H        0.80990    0.66450    0.29770    1.000
    H35      H        0.89430    0.59350    0.24120    1.000
    H36      H        0.01420    0.73530    0.35500    1.000
    C1       C        0.65870    0.85730    0.80590    1.000
    C2       C        0.67030    0.92590    0.88030    1.000
    C3       C        0.54630    0.99580    0.87690    1.000
    C4       C        0.40730    0.94250    0.87220    1.000
    C5       C        0.39600    0.87160    0.79600    1.000
    C6       C        0.51880    0.80280    0.80150    1.000
    C7       C        0.28220    0.00940    0.87610    1.000
    C8       C        0.80780    0.98200    0.88680    1.000
    C9       C        0.50470    0.73580    0.72510    1.000
    C10      C        0.84130    0.35730    0.69410    1.000
    C11      C        0.82970    0.42590    0.61970    1.000
    C12      C        0.95370    0.49580    0.62310    1.000
    C13      C        0.09270    0.44250    0.62780    1.000
    C14      C        0.10400    0.37160    0.70400    1.000
    C15      C        0.98120    0.30280    0.69850    1.000
    C16      C        0.21780    0.50940    0.62390    1.000
    C17      C        0.69220    0.48200    0.61320    1.000
    C18      C        0.99530    0.23580    0.77490    1.000
    C19      C        0.34130    0.14270    0.19410    1.000
    C20      C        0.32970    0.07410    0.11970    1.000
    C21      C        0.45370    0.00420    0.12310    1.000
    C22      C        0.59270    0.05750    0.12780    1.000
    C23      C        0.60400    0.12840    0.20400    1.000
    C24      C        0.48120    0.19720    0.19850    1.000
    C25      C        0.71780    0.99060    0.12390    1.000
    C26      C        0.19220    0.01800    0.11320    1.000
    C27      C        0.49530    0.26420    0.27490    1.000
    C28      C        0.15870    0.64270    0.30590    1.000
    C29      C        0.17030    0.57410    0.38030    1.000
    C30      C        0.04630    0.50420    0.37690    1.000
    C31      C        0.90730    0.55750    0.37220    1.000
    C32      C        0.89600    0.62840    0.29600    1.000
    C33      C        0.01880    0.69720    0.30150    1.000
    C34      C        0.78220    0.49060    0.37610    1.000
    C35      C        0.30780    0.51800    0.38680    1.000
    C36      C        0.00470    0.76420    0.22510    1.000
    O1       O        0.16180    0.97020    0.86360    1.000
    O2       O        0.29350    0.09550    0.89680    1.000
    O3       O        0.83240    0.04560    0.83330    1.000
    O4       O        0.89360    0.96290    0.94970    1.000
    O5       O        0.42480    0.66530    0.73190    1.000
    O6       O        0.56710    0.74950    0.65630    1.000
    O7       O        0.33820    0.47020    0.63640    1.000
    O8       O        0.20650    0.59550    0.60320    1.000
    O9       O        0.66760    0.54560    0.66670    1.000
    O10      O        0.60640    0.46290    0.55030    1.000
    O11      O        0.07520    0.16530    0.76810    1.000
    O12      O        0.93290    0.24950    0.84370    1.000
    O13      O        0.83820    0.02980    0.13640    1.000
    O14      O        0.70650    0.90450    0.10320    1.000
    O15      O        0.16760    0.95440    0.16670    1.000
    O16      O        0.10640    0.03710    0.05030    1.000
    O17      O        0.57520    0.33470    0.26810    1.000
    O18      O        0.43290    0.25050    0.34370    1.000
    O19      O        0.66180    0.52980    0.36360    1.000
    O20      O        0.79350    0.40450    0.39680    1.000
    O21      O        0.33240    0.45440    0.33330    1.000
    O22      O        0.39360    0.53710    0.44970    1.000
    O23      O        0.92480    0.83470    0.23190    1.000
    O24      O        0.06710    0.75050    0.15630    1.000
