data_functionalizedCrystal
_audit_creation_method	'EQeq! by Chris Wilmer'
_symmetry_space_group_name_H-M	'P1'
_symmetry_Int_Tables_number	1
_symmetry_cell_setting	triclinic
loop_
_symmetry_equiv_pos_as_xyz
  x,y,z
_cell_length_a	38.342
_cell_length_b	39.707
_cell_length_c	39.707
_cell_angle_alpha	90
_cell_angle_beta	90
_cell_angle_gamma	90
loop_
_atom_site_label
_atom_site_type_symbol
_atom_site_fract_x
_atom_site_fract_y
_atom_site_fract_z
_atom_site_charge
Mof_Cu	Cu	0.04678	0.25	0.25	0.915
Mof_Cu	Cu	0.11629	0.25	0.25	0.903
Mof_Cu	Cu	0.54678	0.25	0.25	0.915
Mof_Cu	Cu	0.61629	0.25	0.25	0.903
Mof_Cu	Cu	0.31622	0.4604	0.75	0.911
Mof_Cu	Cu	0.31846	0.5275	0.75	0.906
Mof_Cu	Cu	0.31622	0.0396	0.75	0.911
Mof_Cu	Cu	0.31846	0.9725	0.75	0.906
Mof_Cu	Cu	0.81622	0.75	0.4604	0.911
Mof_Cu	Cu	0.81846	0.75	0.5275	0.906
Mof_Cu	Cu	0.81622	0.75	0.0396	0.911
Mof_Cu	Cu	0.81846	0.75	0.9725	0.906
Mof_H 	H 	0.0279	0.4634	0.4236	0.056
Mof_H 	H 	0.0285	0.4197	0.3846	0.052
Mof_H 	H 	0.1258	0.3946	0.4136	0.051
Mof_H 	H 	0.1243	0.4371	0.4529	0.054
Mof_H 	H 	0.0249	0.363	0.3657	0.065
Mof_H 	H 	0.0299	0.32	0.3253	0.038
Mof_H 	H 	0.1326	0.3363	0.3232	0.026
Mof_H 	H 	0.1273	0.3783	0.3629	0.073
Mof_H 	H 	0.1423	0.4556	0.5352	0.045
Mof_H 	H 	0.1834	0.4549	0.578	0.061
Mof_H 	H 	0.1407	0.5411	0.6113	0.061
Mof_H 	H 	0.1055	0.5436	0.5659	0.041
Mof_H 	H 	0.1915	0.4487	0.629	0.061
Mof_H 	H 	0.2334	0.444	0.6697	0.042
Mof_H 	H 	0.2422	0.5462	0.6733	0.049
Mof_H 	H 	0.201	0.5487	0.6301	0.059
Mof_H 	H 	0.0384	0.5745	0.5327	0.054
Mof_H 	H 	0.9965	0.6181	0.5334	0.049
Mof_H 	H 	0.9524	0.5736	0.4516	0.05
Mof_H 	H 	0.9925	0.5304	0.4519	0.056
Mof_H 	H 	0.9402	0.6311	0.5409	0.09
Mof_H 	H 	0.9003	0.6753	0.5423	0.012
Mof_H 	H 	0.8924	0.6745	0.444	0.015
Mof_H 	H 	0.9334	0.6309	0.4378	0.085
Mof_H 	H 	0.0279	0.0366	0.0764	0.055
Mof_H 	H 	0.0285	0.0803	0.1154	0.051
Mof_H 	H 	0.1258	0.1054	0.0864	0.051
Mof_H 	H 	0.1243	0.0629	0.0471	0.054
Mof_H 	H 	0.0249	0.137	0.1343	0.065
Mof_H 	H 	0.0299	0.18	0.1747	0.038
Mof_H 	H 	0.1326	0.1637	0.1768	0.026
Mof_H 	H 	0.1273	0.1217	0.1371	0.073
Mof_H 	H 	0.1423	0.0444	0.9648	0.045
Mof_H 	H 	0.1834	0.0451	0.922	0.061
Mof_H 	H 	0.1407	0.9589	0.8887	0.061
Mof_H 	H 	0.1055	0.9564	0.9341	0.041
Mof_H 	H 	0.1915	0.0513	0.871	0.061
Mof_H 	H 	0.2334	0.056	0.8303	0.042
Mof_H 	H 	0.2422	0.9538	0.8267	0.048
Mof_H 	H 	0.201	0.9513	0.8699	0.059
Mof_H 	H 	0.0384	0.9255	0.9673	0.054
Mof_H 	H 	0.9965	0.8819	0.9666	0.049
Mof_H 	H 	0.9524	0.9264	0.0484	0.05
Mof_H 	H 	0.9925	0.9696	0.0481	0.056
Mof_H 	H 	0.9402	0.8689	0.9591	0.09
Mof_H 	H 	0.9003	0.8247	0.9577	0.012
Mof_H 	H 	0.8924	0.8255	0.056	0.015
Mof_H 	H 	0.9334	0.8691	0.0622	0.085
Mof_H 	H 	0.5279	0.0764	0.4634	0.055
Mof_H 	H 	0.5285	0.1154	0.4197	0.051
Mof_H 	H 	0.6258	0.0864	0.3946	0.051
Mof_H 	H 	0.6243	0.0471	0.4371	0.054
Mof_H 	H 	0.5249	0.1343	0.363	0.065
Mof_H 	H 	0.5299	0.1747	0.32	0.038
Mof_H 	H 	0.6326	0.1768	0.3363	0.026
Mof_H 	H 	0.6273	0.1371	0.3783	0.073
Mof_H 	H 	0.6423	0.9648	0.4556	0.045
Mof_H 	H 	0.6834	0.922	0.4549	0.061
Mof_H 	H 	0.6407	0.8887	0.5411	0.061
Mof_H 	H 	0.6055	0.9341	0.5436	0.041
Mof_H 	H 	0.6915	0.871	0.4487	0.061
Mof_H 	H 	0.7334	0.8303	0.444	0.042
Mof_H 	H 	0.7422	0.8267	0.5462	0.049
Mof_H 	H 	0.701	0.8699	0.5487	0.059
Mof_H 	H 	0.5384	0.9673	0.5745	0.054
Mof_H 	H 	0.4965	0.9666	0.6181	0.049
Mof_H 	H 	0.4524	0.0484	0.5736	0.05
Mof_H 	H 	0.4925	0.0481	0.5304	0.056
Mof_H 	H 	0.4402	0.9591	0.6311	0.09
Mof_H 	H 	0.4003	0.9577	0.6753	0.012
Mof_H 	H 	0.3924	0.056	0.6745	0.015
Mof_H 	H 	0.4334	0.0622	0.6309	0.085
Mof_H 	H 	0.5279	0.4236	0.0366	0.055
Mof_H 	H 	0.5285	0.3846	0.0803	0.051
Mof_H 	H 	0.6258	0.4136	0.1054	0.051
Mof_H 	H 	0.6243	0.4529	0.0629	0.054
Mof_H 	H 	0.5249	0.3657	0.137	0.065
Mof_H 	H 	0.5299	0.3253	0.18	0.038
Mof_H 	H 	0.6326	0.3232	0.1637	0.026
Mof_H 	H 	0.6273	0.3629	0.1217	0.073
Mof_H 	H 	0.6423	0.5352	0.0444	0.045
Mof_H 	H 	0.6834	0.578	0.0451	0.061
Mof_H 	H 	0.6407	0.6113	0.9589	0.061
Mof_H 	H 	0.6055	0.5659	0.9564	0.041
Mof_H 	H 	0.6915	0.629	0.0513	0.061
Mof_H 	H 	0.7334	0.6697	0.056	0.042
Mof_H 	H 	0.7422	0.6733	0.9538	0.048
Mof_H 	H 	0.701	0.6301	0.9513	0.059
Mof_H 	H 	0.5384	0.5327	0.9255	0.054
Mof_H 	H 	0.4965	0.5334	0.8819	0.049
Mof_H 	H 	0.4524	0.4516	0.9264	0.05
Mof_H 	H 	0.4925	0.4519	0.9696	0.056
Mof_H 	H 	0.4402	0.5409	0.8689	0.09
Mof_H 	H 	0.4003	0.5423	0.8247	0.012
Mof_H 	H 	0.3924	0.444	0.8255	0.015
Mof_H 	H 	0.4334	0.4378	0.8691	0.085
Mof_H 	H 	0.0279	0.4634	0.0764	0.055
Mof_H 	H 	0.0285	0.4197	0.1154	0.051
Mof_H 	H 	0.1258	0.3946	0.0864	0.051
Mof_H 	H 	0.1243	0.4371	0.0471	0.054
Mof_H 	H 	0.0249	0.363	0.1343	0.065
Mof_H 	H 	0.0299	0.32	0.1747	0.038
Mof_H 	H 	0.1326	0.3363	0.1768	0.026
Mof_H 	H 	0.1273	0.3783	0.1371	0.073
Mof_H 	H 	0.1423	0.4556	0.9648	0.045
Mof_H 	H 	0.1834	0.4549	0.922	0.061
Mof_H 	H 	0.1407	0.5411	0.8887	0.061
Mof_H 	H 	0.1055	0.5436	0.9341	0.041
Mof_H 	H 	0.1915	0.4487	0.871	0.061
Mof_H 	H 	0.2334	0.444	0.8303	0.042
Mof_H 	H 	0.2422	0.5462	0.8267	0.049
Mof_H 	H 	0.201	0.5487	0.8699	0.059
Mof_H 	H 	0.0384	0.5745	0.9673	0.054
Mof_H 	H 	0.9965	0.6181	0.9666	0.049
Mof_H 	H 	0.9524	0.5736	0.0484	0.05
Mof_H 	H 	0.9925	0.5304	0.0481	0.057
Mof_H 	H 	0.9402	0.6311	0.9591	0.09
Mof_H 	H 	0.9003	0.6753	0.9577	0.012
Mof_H 	H 	0.8924	0.6745	0.056	0.015
Mof_H 	H 	0.9334	0.6309	0.0622	0.085
Mof_H 	H 	0.0279	0.0366	0.4236	0.055
Mof_H 	H 	0.0285	0.0803	0.3846	0.051
Mof_H 	H 	0.1258	0.1054	0.4136	0.051
Mof_H 	H 	0.1243	0.0629	0.4529	0.054
Mof_H 	H 	0.0249	0.137	0.3657	0.065
Mof_H 	H 	0.0299	0.18	0.3253	0.038
Mof_H 	H 	0.1326	0.1637	0.3232	0.026
Mof_H 	H 	0.1273	0.1217	0.3629	0.073
Mof_H 	H 	0.1423	0.0444	0.5352	0.045
Mof_H 	H 	0.1834	0.0451	0.578	0.061
Mof_H 	H 	0.1407	0.9589	0.6113	0.061
Mof_H 	H 	0.1055	0.9564	0.5659	0.041
Mof_H 	H 	0.1915	0.0513	0.629	0.061
Mof_H 	H 	0.2334	0.056	0.6697	0.042
Mof_H 	H 	0.2422	0.9538	0.6733	0.048
Mof_H 	H 	0.201	0.9513	0.6301	0.059
Mof_H 	H 	0.0384	0.9255	0.5327	0.054
Mof_H 	H 	0.9965	0.8819	0.5334	0.049
Mof_H 	H 	0.9524	0.9264	0.4516	0.05
Mof_H 	H 	0.9925	0.9696	0.4519	0.056
Mof_H 	H 	0.9402	0.8689	0.5409	0.09
Mof_H 	H 	0.9003	0.8247	0.5423	0.012
Mof_H 	H 	0.8924	0.8255	0.444	0.015
Mof_H 	H 	0.9334	0.8691	0.4378	0.085
Mof_H 	H 	0.5279	0.0764	0.0366	0.055
Mof_H 	H 	0.5285	0.1154	0.0803	0.051
Mof_H 	H 	0.6258	0.0864	0.1054	0.051
Mof_H 	H 	0.6243	0.0471	0.0629	0.054
Mof_H 	H 	0.5249	0.1343	0.137	0.065
Mof_H 	H 	0.5299	0.1747	0.18	0.038
Mof_H 	H 	0.6326	0.1768	0.1637	0.026
Mof_H 	H 	0.6273	0.1371	0.1217	0.073
Mof_H 	H 	0.6423	0.9648	0.0444	0.045
Mof_H 	H 	0.6834	0.922	0.0451	0.061
Mof_H 	H 	0.6407	0.8887	0.9589	0.061
Mof_H 	H 	0.6055	0.9341	0.9564	0.041
Mof_H 	H 	0.6915	0.871	0.0513	0.061
Mof_H 	H 	0.7334	0.8303	0.056	0.042
Mof_H 	H 	0.7422	0.8267	0.9538	0.048
Mof_H 	H 	0.701	0.8699	0.9513	0.059
Mof_H 	H 	0.5384	0.9673	0.9255	0.054
Mof_H 	H 	0.4965	0.9666	0.8819	0.049
Mof_H 	H 	0.4524	0.0484	0.9264	0.05
Mof_H 	H 	0.4925	0.0481	0.9696	0.056
Mof_H 	H 	0.4402	0.9591	0.8689	0.09
Mof_H 	H 	0.4003	0.9577	0.8247	0.012
Mof_H 	H 	0.3924	0.056	0.8255	0.015
Mof_H 	H 	0.4334	0.0622	0.8691	0.085
Mof_H 	H 	0.5279	0.4236	0.4634	0.055
Mof_H 	H 	0.5285	0.3846	0.4197	0.051
Mof_H 	H 	0.6258	0.4136	0.3946	0.051
Mof_H 	H 	0.6243	0.4529	0.4371	0.054
Mof_H 	H 	0.5249	0.3657	0.363	0.065
Mof_H 	H 	0.5299	0.3253	0.32	0.038
Mof_H 	H 	0.6326	0.3232	0.3363	0.026
Mof_H 	H 	0.6273	0.3629	0.3783	0.073
Mof_H 	H 	0.6423	0.5352	0.4556	0.045
Mof_H 	H 	0.6834	0.578	0.4549	0.061
Mof_H 	H 	0.6407	0.6113	0.5411	0.061
Mof_H 	H 	0.6055	0.5659	0.5436	0.041
Mof_H 	H 	0.6915	0.629	0.4487	0.061
Mof_H 	H 	0.7334	0.6697	0.444	0.042
Mof_H 	H 	0.7422	0.6733	0.5462	0.049
Mof_H 	H 	0.701	0.6301	0.5487	0.059
Mof_H 	H 	0.5384	0.5327	0.5745	0.054
Mof_H 	H 	0.4965	0.5334	0.6181	0.049
Mof_H 	H 	0.4524	0.4516	0.5736	0.05
Mof_H 	H 	0.4925	0.4519	0.5304	0.056
Mof_H 	H 	0.4402	0.5409	0.6311	0.09
Mof_H 	H 	0.4003	0.5423	0.6753	0.012
Mof_H 	H 	0.3924	0.444	0.6745	0.015
Mof_H 	H 	0.4334	0.4378	0.6309	0.085
Mof_C 	C 	0.0742	0.4782	0.4696	0.117
Mof_C 	C 	0.0946	0.5007	0.5198	0.121
Mof_C 	C 	0.0472	0.523	0.4925	0.117
Mof_C 	C 	0.0754	0.4527	0.4425	-0.004
Mof_C 	C 	0.0471	0.4492	0.4216	-0.039
Mof_C 	C 	0.0481	0.4242	0.3976	-0.059
Mof_C 	C 	0.0781	0.4061	0.3931	0.006
Mof_C 	C 	0.1066	0.4089	0.4152	-0.058
Mof_C 	C 	0.1053	0.4333	0.439	-0.039
Mof_C 	C 	0.0765	0.3775	0.3679	0.054
Mof_C 	C 	0.0468	0.3581	0.3567	-0.102
Mof_C 	C 	0.0497	0.3316	0.3325	0.029
Mof_C 	C 	0.082	0.3235	0.3198	-0.114
Mof_C 	C 	0.1105	0.3415	0.3314	0.048
Mof_C 	C 	0.1072	0.3676	0.3554	-0.119
Mof_C 	C 	0.0788	0.2941	0.2951	0.4
Mof_C 	C 	0.1201	0.5004	0.5473	-0.029
Mof_C 	C 	0.1434	0.4732	0.5506	-0.014
Mof_C 	C 	0.1672	0.4722	0.5758	-0.087
Mof_C 	C 	0.1656	0.4983	0.5971	0.036
Mof_C 	C 	0.1417	0.5245	0.5949	-0.088
Mof_C 	C 	0.1204	0.5253	0.5689	-0.008
Mof_C 	C 	0.1928	0.4986	0.625	0.031
Mof_C 	C 	0.2021	0.468	0.6374	-0.088
Mof_C 	C 	0.2267	0.4652	0.6622	0.003
Mof_C 	C 	0.2421	0.494	0.6762	-0.051
Mof_C 	C 	0.2325	0.5267	0.6643	-0.007
Mof_C 	C 	0.2078	0.5279	0.6386	-0.08
Mof_C 	C 	0.2716	0.4946	0.7068	0.333
Mof_C 	C 	0.0193	0.5483	0.4925	-0.002
Mof_C 	C 	0.0206	0.5746	0.5167	-0.042
Mof_C 	C 	0.9957	0.601	0.5174	-0.051
Mof_C 	C 	0.9698	0.5994	0.4925	-0.001
Mof_C 	C 	0.9696	0.5733	0.4682	-0.045
Mof_C 	C 	0.9935	0.5475	0.4678	-0.041
Mof_C 	C 	0.9415	0.6277	0.4898	0.085
Mof_C 	C 	0.9311	0.6399	0.521	-0.157
Mof_C 	C 	0.9064	0.6661	0.5215	0.101
Mof_C 	C 	0.8905	0.6789	0.493	-0.194
Mof_C 	C 	0.9021	0.6655	0.4636	0.095
Mof_C 	C 	0.9271	0.6394	0.4588	-0.151
Mof_C 	C 	0.8637	0.7036	0.4927	0.446
Mof_C 	C 	0.0742	0.0218	0.0304	0.117
Mof_C 	C 	0.0946	0.9993	0.9802	0.121
Mof_C 	C 	0.0472	0.977	0.0075	0.117
Mof_C 	C 	0.0754	0.0473	0.0575	-0.004
Mof_C 	C 	0.0471	0.0508	0.0784	-0.039
Mof_C 	C 	0.0481	0.0758	0.1024	-0.059
Mof_C 	C 	0.0781	0.0939	0.1069	0.006
Mof_C 	C 	0.1066	0.0911	0.0848	-0.058
Mof_C 	C 	0.1053	0.0667	0.061	-0.039
Mof_C 	C 	0.0765	0.1225	0.1321	0.054
Mof_C 	C 	0.0468	0.1419	0.1433	-0.102
Mof_C 	C 	0.0497	0.1684	0.1675	0.029
Mof_C 	C 	0.082	0.1765	0.1802	-0.114
Mof_C 	C 	0.1105	0.1585	0.1686	0.048
Mof_C 	C 	0.1072	0.1324	0.1446	-0.119
Mof_C 	C 	0.0788	0.2059	0.2049	0.4
Mof_C 	C 	0.1201	0.9996	0.9527	-0.029
Mof_C 	C 	0.1434	0.0268	0.9494	-0.014
Mof_C 	C 	0.1672	0.0278	0.9242	-0.087
Mof_C 	C 	0.1656	0.0017	0.9029	0.036
Mof_C 	C 	0.1417	0.9755	0.9051	-0.087
Mof_C 	C 	0.1204	0.9747	0.9311	-0.009
Mof_C 	C 	0.1928	0.0014	0.875	0.031
Mof_C 	C 	0.2021	0.032	0.8626	-0.088
Mof_C 	C 	0.2267	0.0348	0.8378	0.003
Mof_C 	C 	0.2421	0.006	0.8238	-0.051
Mof_C 	C 	0.2325	0.9733	0.8357	-0.007
Mof_C 	C 	0.2078	0.9721	0.8614	-0.08
Mof_C 	C 	0.2716	0.0054	0.7932	0.333
Mof_C 	C 	0.0193	0.9517	0.0075	-0.002
Mof_C 	C 	0.0206	0.9254	0.9833	-0.042
Mof_C 	C 	0.9957	0.899	0.9826	-0.051
Mof_C 	C 	0.9698	0.9006	0.0075	-0.001
Mof_C 	C 	0.9696	0.9267	0.0318	-0.045
Mof_C 	C 	0.9935	0.9525	0.0322	-0.041
Mof_C 	C 	0.9415	0.8723	0.0102	0.085
Mof_C 	C 	0.9311	0.8601	0.979	-0.157
Mof_C 	C 	0.9064	0.8339	0.9785	0.101
Mof_C 	C 	0.8905	0.8211	0.007	-0.194
Mof_C 	C 	0.9021	0.8345	0.0364	0.095
Mof_C 	C 	0.9271	0.8606	0.0412	-0.151
Mof_C 	C 	0.8637	0.7964	0.0073	0.446
Mof_C 	C 	0.5742	0.0304	0.4782	0.117
Mof_C 	C 	0.5946	0.9802	0.5007	0.121
Mof_C 	C 	0.5472	0.0075	0.523	0.117
Mof_C 	C 	0.5754	0.0575	0.4527	-0.004
Mof_C 	C 	0.5471	0.0784	0.4492	-0.039
Mof_C 	C 	0.5481	0.1024	0.4242	-0.059
Mof_C 	C 	0.5781	0.1069	0.4061	0.006
Mof_C 	C 	0.6066	0.0848	0.4089	-0.058
Mof_C 	C 	0.6053	0.061	0.4333	-0.039
Mof_C 	C 	0.5765	0.1321	0.3775	0.054
Mof_C 	C 	0.5468	0.1433	0.3581	-0.102
Mof_C 	C 	0.5497	0.1675	0.3316	0.029
Mof_C 	C 	0.582	0.1802	0.3235	-0.114
Mof_C 	C 	0.6105	0.1686	0.3415	0.048
Mof_C 	C 	0.6072	0.1446	0.3676	-0.119
Mof_C 	C 	0.5788	0.2049	0.2941	0.4
Mof_C 	C 	0.6201	0.9527	0.5004	-0.029
Mof_C 	C 	0.6434	0.9494	0.4732	-0.014
Mof_C 	C 	0.6672	0.9242	0.4722	-0.087
Mof_C 	C 	0.6656	0.9029	0.4983	0.036
Mof_C 	C 	0.6417	0.9051	0.5245	-0.088
Mof_C 	C 	0.6204	0.9311	0.5253	-0.008
Mof_C 	C 	0.6928	0.875	0.4986	0.031
Mof_C 	C 	0.7021	0.8626	0.468	-0.088
Mof_C 	C 	0.7267	0.8378	0.4652	0.003
Mof_C 	C 	0.7421	0.8238	0.494	-0.051
Mof_C 	C 	0.7325	0.8357	0.5267	-0.007
Mof_C 	C 	0.7078	0.8614	0.5279	-0.08
Mof_C 	C 	0.7716	0.7932	0.4946	0.333
Mof_C 	C 	0.5193	0.0075	0.5483	-0.002
Mof_C 	C 	0.5206	0.9833	0.5746	-0.042
Mof_C 	C 	0.4957	0.9826	0.601	-0.051
Mof_C 	C 	0.4698	0.0075	0.5994	-0.001
Mof_C 	C 	0.4696	0.0318	0.5733	-0.045
Mof_C 	C 	0.4935	0.0322	0.5475	-0.041
Mof_C 	C 	0.4415	0.0102	0.6277	0.085
Mof_C 	C 	0.4311	0.979	0.6399	-0.157
Mof_C 	C 	0.4064	0.9785	0.6661	0.101
Mof_C 	C 	0.3905	0.007	0.6789	-0.194
Mof_C 	C 	0.4021	0.0364	0.6655	0.095
Mof_C 	C 	0.4271	0.0412	0.6394	-0.151
Mof_C 	C 	0.3637	0.0073	0.7036	0.446
Mof_C 	C 	0.5742	0.4696	0.0218	0.117
Mof_C 	C 	0.5946	0.5198	0.9993	0.121
Mof_C 	C 	0.5472	0.4925	0.977	0.117
Mof_C 	C 	0.5754	0.4425	0.0473	-0.004
Mof_C 	C 	0.5471	0.4216	0.0508	-0.039
Mof_C 	C 	0.5481	0.3976	0.0758	-0.059
Mof_C 	C 	0.5781	0.3931	0.0939	0.006
Mof_C 	C 	0.6066	0.4152	0.0911	-0.058
Mof_C 	C 	0.6053	0.439	0.0667	-0.039
Mof_C 	C 	0.5765	0.3679	0.1225	0.054
Mof_C 	C 	0.5468	0.3567	0.1419	-0.102
Mof_C 	C 	0.5497	0.3325	0.1684	0.029
Mof_C 	C 	0.582	0.3198	0.1765	-0.114
Mof_C 	C 	0.6105	0.3314	0.1585	0.048
Mof_C 	C 	0.6072	0.3554	0.1324	-0.119
Mof_C 	C 	0.5788	0.2951	0.2059	0.4
Mof_C 	C 	0.6201	0.5473	0.9996	-0.029
Mof_C 	C 	0.6434	0.5506	0.0268	-0.014
Mof_C 	C 	0.6672	0.5758	0.0278	-0.087
Mof_C 	C 	0.6656	0.5971	0.0017	0.036
Mof_C 	C 	0.6417	0.5949	0.9755	-0.087
Mof_C 	C 	0.6204	0.5689	0.9747	-0.009
Mof_C 	C 	0.6928	0.625	0.0014	0.031
Mof_C 	C 	0.7021	0.6374	0.032	-0.088
Mof_C 	C 	0.7267	0.6622	0.0348	0.003
Mof_C 	C 	0.7421	0.6762	0.006	-0.051
Mof_C 	C 	0.7325	0.6643	0.9733	-0.007
Mof_C 	C 	0.7078	0.6386	0.9721	-0.08
Mof_C 	C 	0.7716	0.7068	0.0054	0.333
Mof_C 	C 	0.5193	0.4925	0.9517	-0.002
Mof_C 	C 	0.5206	0.5167	0.9254	-0.042
Mof_C 	C 	0.4957	0.5174	0.899	-0.051
Mof_C 	C 	0.4698	0.4925	0.9006	-0.001
Mof_C 	C 	0.4696	0.4682	0.9267	-0.045
Mof_C 	C 	0.4935	0.4678	0.9525	-0.041
Mof_C 	C 	0.4415	0.4898	0.8723	0.085
Mof_C 	C 	0.4311	0.521	0.8601	-0.157
Mof_C 	C 	0.4064	0.5215	0.8339	0.101
Mof_C 	C 	0.3905	0.493	0.8211	-0.194
Mof_C 	C 	0.4021	0.4636	0.8345	0.095
Mof_C 	C 	0.4271	0.4588	0.8606	-0.151
Mof_C 	C 	0.3637	0.4927	0.7964	0.446
Mof_C 	C 	0.0742	0.4782	0.0304	0.117
Mof_C 	C 	0.0946	0.5007	0.9802	0.121
Mof_C 	C 	0.0472	0.523	0.0075	0.117
Mof_C 	C 	0.0754	0.4527	0.0575	-0.004
Mof_C 	C 	0.0471	0.4492	0.0784	-0.039
Mof_C 	C 	0.0481	0.4242	0.1024	-0.059
Mof_C 	C 	0.0781	0.4061	0.1069	0.006
Mof_C 	C 	0.1066	0.4089	0.0848	-0.058
Mof_C 	C 	0.1053	0.4333	0.061	-0.039
Mof_C 	C 	0.0765	0.3775	0.1321	0.054
Mof_C 	C 	0.0468	0.3581	0.1433	-0.102
Mof_C 	C 	0.0497	0.3316	0.1675	0.029
Mof_C 	C 	0.082	0.3235	0.1802	-0.114
Mof_C 	C 	0.1105	0.3415	0.1686	0.048
Mof_C 	C 	0.1072	0.3676	0.1446	-0.119
Mof_C 	C 	0.0788	0.2941	0.2049	0.4
Mof_C 	C 	0.1201	0.5004	0.9527	-0.029
Mof_C 	C 	0.1434	0.4732	0.9494	-0.014
Mof_C 	C 	0.1672	0.4722	0.9242	-0.087
Mof_C 	C 	0.1656	0.4983	0.9029	0.036
Mof_C 	C 	0.1417	0.5245	0.9051	-0.088
Mof_C 	C 	0.1204	0.5253	0.9311	-0.008
Mof_C 	C 	0.1928	0.4986	0.875	0.031
Mof_C 	C 	0.2021	0.468	0.8626	-0.088
Mof_C 	C 	0.2267	0.4652	0.8378	0.003
Mof_C 	C 	0.2421	0.494	0.8238	-0.051
Mof_C 	C 	0.2325	0.5267	0.8357	-0.007
Mof_C 	C 	0.2078	0.5279	0.8614	-0.08
Mof_C 	C 	0.2716	0.4946	0.7932	0.333
Mof_C 	C 	0.0193	0.5483	0.0075	-0.002
Mof_C 	C 	0.0206	0.5746	0.9833	-0.042
Mof_C 	C 	0.9957	0.601	0.9826	-0.051
Mof_C 	C 	0.9698	0.5994	0.0075	-0.001
Mof_C 	C 	0.9696	0.5733	0.0318	-0.045
Mof_C 	C 	0.9935	0.5475	0.0322	-0.041
Mof_C 	C 	0.9415	0.6277	0.0102	0.085
Mof_C 	C 	0.9311	0.6399	0.979	-0.157
Mof_C 	C 	0.9064	0.6661	0.9785	0.101
Mof_C 	C 	0.8905	0.6789	0.007	-0.194
Mof_C 	C 	0.9021	0.6655	0.0364	0.095
Mof_C 	C 	0.9271	0.6394	0.0412	-0.151
Mof_C 	C 	0.8637	0.7036	0.0073	0.446
Mof_C 	C 	0.0742	0.0218	0.4696	0.117
Mof_C 	C 	0.0946	0.9993	0.5198	0.121
Mof_C 	C 	0.0472	0.977	0.4925	0.117
Mof_C 	C 	0.0754	0.0473	0.4425	-0.004
Mof_C 	C 	0.0471	0.0508	0.4216	-0.039
Mof_C 	C 	0.0481	0.0758	0.3976	-0.059
Mof_C 	C 	0.0781	0.0939	0.3931	0.006
Mof_C 	C 	0.1066	0.0911	0.4152	-0.058
Mof_C 	C 	0.1053	0.0667	0.439	-0.039
Mof_C 	C 	0.0765	0.1225	0.3679	0.054
Mof_C 	C 	0.0468	0.1419	0.3567	-0.102
Mof_C 	C 	0.0497	0.1684	0.3325	0.029
Mof_C 	C 	0.082	0.1765	0.3198	-0.114
Mof_C 	C 	0.1105	0.1585	0.3314	0.048
Mof_C 	C 	0.1072	0.1324	0.3554	-0.119
Mof_C 	C 	0.0788	0.2059	0.2951	0.4
Mof_C 	C 	0.1201	0.9996	0.5473	-0.029
Mof_C 	C 	0.1434	0.0268	0.5506	-0.014
Mof_C 	C 	0.1672	0.0278	0.5758	-0.087
Mof_C 	C 	0.1656	0.0017	0.5971	0.036
Mof_C 	C 	0.1417	0.9755	0.5949	-0.087
Mof_C 	C 	0.1204	0.9747	0.5689	-0.009
Mof_C 	C 	0.1928	0.0014	0.625	0.031
Mof_C 	C 	0.2021	0.032	0.6374	-0.088
Mof_C 	C 	0.2267	0.0348	0.6622	0.003
Mof_C 	C 	0.2421	0.006	0.6762	-0.051
Mof_C 	C 	0.2325	0.9733	0.6643	-0.007
Mof_C 	C 	0.2078	0.9721	0.6386	-0.08
Mof_C 	C 	0.2716	0.0054	0.7068	0.333
Mof_C 	C 	0.0193	0.9517	0.4925	-0.002
Mof_C 	C 	0.0206	0.9254	0.5167	-0.042
Mof_C 	C 	0.9957	0.899	0.5174	-0.051
Mof_C 	C 	0.9698	0.9006	0.4925	-0.001
Mof_C 	C 	0.9696	0.9267	0.4682	-0.045
Mof_C 	C 	0.9935	0.9525	0.4678	-0.041
Mof_C 	C 	0.9415	0.8723	0.4898	0.085
Mof_C 	C 	0.9311	0.8601	0.521	-0.157
Mof_C 	C 	0.9064	0.8339	0.5215	0.101
Mof_C 	C 	0.8905	0.8211	0.493	-0.194
Mof_C 	C 	0.9021	0.8345	0.4636	0.095
Mof_C 	C 	0.9271	0.8606	0.4588	-0.151
Mof_C 	C 	0.8637	0.7964	0.4927	0.446
Mof_C 	C 	0.5742	0.0304	0.0218	0.117
Mof_C 	C 	0.5946	0.9802	0.9993	0.121
Mof_C 	C 	0.5472	0.0075	0.977	0.117
Mof_C 	C 	0.5754	0.0575	0.0473	-0.004
Mof_C 	C 	0.5471	0.0784	0.0508	-0.039
Mof_C 	C 	0.5481	0.1024	0.0758	-0.059
Mof_C 	C 	0.5781	0.1069	0.0939	0.006
Mof_C 	C 	0.6066	0.0848	0.0911	-0.058
Mof_C 	C 	0.6053	0.061	0.0667	-0.039
Mof_C 	C 	0.5765	0.1321	0.1225	0.054
Mof_C 	C 	0.5468	0.1433	0.1419	-0.102
Mof_C 	C 	0.5497	0.1675	0.1684	0.029
Mof_C 	C 	0.582	0.1802	0.1765	-0.114
Mof_C 	C 	0.6105	0.1686	0.1585	0.048
Mof_C 	C 	0.6072	0.1446	0.1324	-0.119
Mof_C 	C 	0.5788	0.2049	0.2059	0.4
Mof_C 	C 	0.6201	0.9527	0.9996	-0.029
Mof_C 	C 	0.6434	0.9494	0.0268	-0.014
Mof_C 	C 	0.6672	0.9242	0.0278	-0.087
Mof_C 	C 	0.6656	0.9029	0.0017	0.036
Mof_C 	C 	0.6417	0.9051	0.9755	-0.087
Mof_C 	C 	0.6204	0.9311	0.9747	-0.009
Mof_C 	C 	0.6928	0.875	0.0014	0.031
Mof_C 	C 	0.7021	0.8626	0.032	-0.088
Mof_C 	C 	0.7267	0.8378	0.0348	0.003
Mof_C 	C 	0.7421	0.8238	0.006	-0.051
Mof_C 	C 	0.7325	0.8357	0.9733	-0.007
Mof_C 	C 	0.7078	0.8614	0.9721	-0.08
Mof_C 	C 	0.7716	0.7932	0.0054	0.333
Mof_C 	C 	0.5193	0.0075	0.9517	-0.002
Mof_C 	C 	0.5206	0.9833	0.9254	-0.042
Mof_C 	C 	0.4957	0.9826	0.899	-0.051
Mof_C 	C 	0.4698	0.0075	0.9006	-0.001
Mof_C 	C 	0.4696	0.0318	0.9267	-0.045
Mof_C 	C 	0.4935	0.0322	0.9525	-0.041
Mof_C 	C 	0.4415	0.0102	0.8723	0.085
Mof_C 	C 	0.4311	0.979	0.8601	-0.157
Mof_C 	C 	0.4064	0.9785	0.8339	0.101
Mof_C 	C 	0.3905	0.007	0.8211	-0.194
Mof_C 	C 	0.4021	0.0364	0.8345	0.095
Mof_C 	C 	0.4271	0.0412	0.8606	-0.151
Mof_C 	C 	0.3637	0.0073	0.7964	0.446
Mof_C 	C 	0.5742	0.4696	0.4782	0.117
Mof_C 	C 	0.5946	0.5198	0.5007	0.121
Mof_C 	C 	0.5472	0.4925	0.523	0.117
Mof_C 	C 	0.5754	0.4425	0.4527	-0.004
Mof_C 	C 	0.5471	0.4216	0.4492	-0.039
Mof_C 	C 	0.5481	0.3976	0.4242	-0.059
Mof_C 	C 	0.5781	0.3931	0.4061	0.006
Mof_C 	C 	0.6066	0.4152	0.4089	-0.058
Mof_C 	C 	0.6053	0.439	0.4333	-0.039
Mof_C 	C 	0.5765	0.3679	0.3775	0.054
Mof_C 	C 	0.5468	0.3567	0.3581	-0.102
Mof_C 	C 	0.5497	0.3325	0.3316	0.029
Mof_C 	C 	0.582	0.3198	0.3235	-0.114
Mof_C 	C 	0.6105	0.3314	0.3415	0.048
Mof_C 	C 	0.6072	0.3554	0.3676	-0.119
Mof_C 	C 	0.5788	0.2951	0.2941	0.4
Mof_C 	C 	0.6201	0.5473	0.5004	-0.029
Mof_C 	C 	0.6434	0.5506	0.4732	-0.014
Mof_C 	C 	0.6672	0.5758	0.4722	-0.087
Mof_C 	C 	0.6656	0.5971	0.4983	0.036
Mof_C 	C 	0.6417	0.5949	0.5245	-0.088
Mof_C 	C 	0.6204	0.5689	0.5253	-0.008
Mof_C 	C 	0.6928	0.625	0.4986	0.031
Mof_C 	C 	0.7021	0.6374	0.468	-0.088
Mof_C 	C 	0.7267	0.6622	0.4652	0.003
Mof_C 	C 	0.7421	0.6762	0.494	-0.051
Mof_C 	C 	0.7325	0.6643	0.5267	-0.007
Mof_C 	C 	0.7078	0.6386	0.5279	-0.08
Mof_C 	C 	0.7716	0.7068	0.4946	0.333
Mof_C 	C 	0.5193	0.4925	0.5483	-0.002
Mof_C 	C 	0.5206	0.5167	0.5746	-0.042
Mof_C 	C 	0.4957	0.5174	0.601	-0.051
Mof_C 	C 	0.4698	0.4925	0.5994	-0.001
Mof_C 	C 	0.4696	0.4682	0.5733	-0.045
Mof_C 	C 	0.4935	0.4678	0.5475	-0.041
Mof_C 	C 	0.4415	0.4898	0.6277	0.085
Mof_C 	C 	0.4311	0.521	0.6399	-0.157
Mof_C 	C 	0.4064	0.5215	0.6661	0.101
Mof_C 	C 	0.3905	0.493	0.6789	-0.194
Mof_C 	C 	0.4021	0.4636	0.6655	0.095
Mof_C 	C 	0.4271	0.4588	0.6394	-0.151
Mof_C 	C 	0.3637	0.4927	0.7036	0.446
Mof_N 	N 	0.0479	0.5006	0.4672	-0.143
Mof_N 	N 	0.0973	0.4771	0.4952	-0.144
Mof_N 	N 	0.0694	0.5241	0.519	-0.146
Mof_N 	N 	0.0479	0.9994	0.0328	-0.143
Mof_N 	N 	0.0973	0.0229	0.0048	-0.144
Mof_N 	N 	0.0694	0.9759	0.981	-0.146
Mof_N 	N 	0.5479	0.0328	0.5006	-0.143
Mof_N 	N 	0.5973	0.0048	0.4771	-0.144
Mof_N 	N 	0.5694	0.981	0.5241	-0.146
Mof_N 	N 	0.5479	0.4672	0.9994	-0.143
Mof_N 	N 	0.5973	0.4952	0.0229	-0.144
Mof_N 	N 	0.5694	0.519	0.9759	-0.146
Mof_N 	N 	0.0479	0.5006	0.0328	-0.143
Mof_N 	N 	0.0973	0.4771	0.0048	-0.144
Mof_N 	N 	0.0694	0.5241	0.981	-0.146
Mof_N 	N 	0.0479	0.9994	0.4672	-0.143
Mof_N 	N 	0.0973	0.0229	0.4952	-0.144
Mof_N 	N 	0.0694	0.9759	0.519	-0.146
Mof_N 	N 	0.5479	0.0328	0.9994	-0.143
Mof_N 	N 	0.5973	0.0048	0.0229	-0.144
Mof_N 	N 	0.5694	0.981	0.9759	-0.146
Mof_N 	N 	0.5479	0.4672	0.5006	-0.143
Mof_N 	N 	0.5973	0.4952	0.4771	-0.144
Mof_N 	N 	0.5694	0.519	0.5241	-0.146
Mof_O 	O 	0.05177	0.2842	0.2849	-0.44
Mof_O 	O 	0.10907	0.28479	0.28471	-0.411
Mof_O 	O 	0.28049	0.46647	0.71596	-0.412
Mof_O 	O 	0.28197	0.52411	0.71555	-0.397
Mof_O 	O 	0.85467	0.71561	0.51915	-0.439
Mof_O 	O 	0.8522	0.7155	0.46514	-0.425
Mof_O 	O 	0.05177	0.2158	0.2151	-0.44
Mof_O 	O 	0.10907	0.21521	0.21529	-0.411
Mof_O 	O 	0.28049	0.03353	0.78404	-0.412
Mof_O 	O 	0.28197	0.97589	0.78445	-0.397
Mof_O 	O 	0.85467	0.78439	0.98085	-0.439
Mof_O 	O 	0.8522	0.7845	0.03486	-0.425
Mof_O 	O 	0.55177	0.2151	0.2842	-0.44
Mof_O 	O 	0.60907	0.21529	0.28479	-0.411
Mof_O 	O 	0.78049	0.78404	0.46647	-0.412
Mof_O 	O 	0.78197	0.78445	0.52411	-0.397
Mof_O 	O 	0.35467	0.98085	0.71561	-0.439
Mof_O 	O 	0.3522	0.03486	0.7155	-0.425
Mof_O 	O 	0.55177	0.2849	0.2158	-0.44
Mof_O 	O 	0.60907	0.28471	0.21521	-0.411
Mof_O 	O 	0.78049	0.71596	0.03353	-0.412
Mof_O 	O 	0.78197	0.71555	0.97589	-0.397
Mof_O 	O 	0.35467	0.51915	0.78439	-0.439
Mof_O 	O 	0.3522	0.46514	0.7845	-0.425
Mof_O 	O 	0.05177	0.2842	0.2151	-0.44
Mof_O 	O 	0.10907	0.28479	0.21529	-0.411
Mof_O 	O 	0.28049	0.46647	0.78404	-0.412
Mof_O 	O 	0.28197	0.52411	0.78445	-0.397
Mof_O 	O 	0.85467	0.71561	0.98085	-0.439
Mof_O 	O 	0.8522	0.7155	0.03486	-0.425
Mof_O 	O 	0.05177	0.2158	0.2849	-0.44
Mof_O 	O 	0.10907	0.21521	0.28471	-0.411
Mof_O 	O 	0.28049	0.03353	0.71596	-0.412
Mof_O 	O 	0.28197	0.97589	0.71555	-0.397
Mof_O 	O 	0.85467	0.78439	0.51915	-0.439
Mof_O 	O 	0.8522	0.7845	0.46514	-0.425
Mof_O 	O 	0.55177	0.2151	0.2158	-0.44
Mof_O 	O 	0.60907	0.21529	0.21521	-0.411
Mof_O 	O 	0.78049	0.78404	0.03353	-0.412
Mof_O 	O 	0.78197	0.78445	0.97589	-0.397
Mof_O 	O 	0.35467	0.98085	0.78439	-0.439
Mof_O 	O 	0.3522	0.03486	0.7845	-0.425
Mof_O 	O 	0.55177	0.2849	0.2842	-0.44
Mof_O 	O 	0.60907	0.28471	0.28479	-0.411
Mof_O 	O 	0.78049	0.71596	0.46647	-0.412
Mof_O 	O 	0.78197	0.71555	0.52411	-0.397
Mof_O 	O 	0.35467	0.51915	0.71561	-0.439
Mof_O 	O 	0.3522	0.46514	0.7155	-0.425
Mof_Cu	Cu	0.95322	0.75	0.75	0.914
Mof_Cu	Cu	0.88371	0.75	0.75	0.902
Mof_Cu	Cu	0.45322	0.75	0.75	0.914
Mof_Cu	Cu	0.38371	0.75	0.75	0.902
Mof_Cu	Cu	0.68378	0.5396	0.25	0.91
Mof_Cu	Cu	0.68154	0.4725	0.25	0.905
Mof_Cu	Cu	0.68378	0.9604	0.25	0.91
Mof_Cu	Cu	0.68154	0.0275	0.25	0.905
Mof_Cu	Cu	0.18378	0.25	0.9604	0.91
Mof_Cu	Cu	0.18154	0.25	0.0275	0.905
Mof_Cu	Cu	0.18378	0.25	0.5396	0.91
Mof_Cu	Cu	0.18154	0.25	0.4725	0.905
Mof_H 	H 	0.9721	0.5366	0.9236	0.055
Mof_H 	H 	0.9715	0.5803	0.8846	0.051
Mof_H 	H 	0.8742	0.6054	0.9136	0.051
Mof_H 	H 	0.8757	0.5629	0.9529	0.054
Mof_H 	H 	0.9751	0.637	0.8657	0.065
Mof_H 	H 	0.9701	0.68	0.8253	0.038
Mof_H 	H 	0.8674	0.6637	0.8232	0.026
Mof_H 	H 	0.8727	0.6217	0.8629	0.073
Mof_H 	H 	0.8577	0.5444	0.0352	0.045
Mof_H 	H 	0.8166	0.5451	0.078	0.061
Mof_H 	H 	0.8593	0.4589	0.1113	0.061
Mof_H 	H 	0.8945	0.4564	0.0659	0.041
Mof_H 	H 	0.8085	0.5513	0.129	0.061
Mof_H 	H 	0.7666	0.556	0.1697	0.042
Mof_H 	H 	0.7578	0.4538	0.1733	0.049
Mof_H 	H 	0.799	0.4513	0.1301	0.059
Mof_H 	H 	0.9616	0.4255	0.0327	0.054
Mof_H 	H 	0.0035	0.3819	0.0334	0.049
Mof_H 	H 	0.0476	0.4264	0.9516	0.05
Mof_H 	H 	0.0075	0.4696	0.9519	0.057
Mof_H 	H 	0.0598	0.3689	0.0409	0.09
Mof_H 	H 	0.0997	0.3247	0.0423	0.012
Mof_H 	H 	0.1076	0.3255	0.944	0.015
Mof_H 	H 	0.0666	0.3691	0.9378	0.085
Mof_H 	H 	0.9721	0.9634	0.5764	0.055
Mof_H 	H 	0.9715	0.9197	0.6154	0.051
Mof_H 	H 	0.8742	0.8946	0.5864	0.051
Mof_H 	H 	0.8757	0.9371	0.5471	0.054
Mof_H 	H 	0.9751	0.863	0.6343	0.065
Mof_H 	H 	0.9701	0.82	0.6747	0.038
Mof_H 	H 	0.8674	0.8363	0.6768	0.026
Mof_H 	H 	0.8727	0.8783	0.6371	0.073
Mof_H 	H 	0.8577	0.9556	0.4648	0.045
Mof_H 	H 	0.8166	0.9549	0.422	0.061
Mof_H 	H 	0.8593	0.0411	0.3887	0.061
Mof_H 	H 	0.8945	0.0436	0.4341	0.041
Mof_H 	H 	0.8085	0.9487	0.371	0.061
Mof_H 	H 	0.7666	0.944	0.3303	0.042
Mof_H 	H 	0.7578	0.0462	0.3267	0.048
Mof_H 	H 	0.799	0.0487	0.3699	0.059
Mof_H 	H 	0.9616	0.0745	0.4673	0.054
Mof_H 	H 	0.0035	0.1181	0.4666	0.049
Mof_H 	H 	0.0476	0.0736	0.5484	0.05
Mof_H 	H 	0.0075	0.0304	0.5481	0.056
Mof_H 	H 	0.0598	0.1311	0.4591	0.09
Mof_H 	H 	0.0997	0.1753	0.4577	0.012
Mof_H 	H 	0.1076	0.1745	0.556	0.015
Mof_H 	H 	0.0666	0.1309	0.5622	0.085
Mof_H 	H 	0.4721	0.9236	0.9634	0.055
Mof_H 	H 	0.4715	0.8846	0.9197	0.051
Mof_H 	H 	0.3742	0.9136	0.8946	0.051
Mof_H 	H 	0.3757	0.9529	0.9371	0.054
Mof_H 	H 	0.4751	0.8657	0.863	0.065
Mof_H 	H 	0.4701	0.8253	0.82	0.038
Mof_H 	H 	0.3674	0.8232	0.8363	0.026
Mof_H 	H 	0.3727	0.8629	0.8783	0.073
Mof_H 	H 	0.3577	0.0352	0.9556	0.045
Mof_H 	H 	0.3166	0.078	0.9549	0.061
Mof_H 	H 	0.3593	0.1113	0.0411	0.061
Mof_H 	H 	0.3945	0.0659	0.0436	0.041
Mof_H 	H 	0.3085	0.129	0.9487	0.061
Mof_H 	H 	0.2666	0.1697	0.944	0.042
Mof_H 	H 	0.2578	0.1733	0.0462	0.048
Mof_H 	H 	0.299	0.1301	0.0487	0.059
Mof_H 	H 	0.4616	0.0327	0.0745	0.054
Mof_H 	H 	0.5035	0.0334	0.1181	0.049
Mof_H 	H 	0.5476	0.9516	0.0736	0.05
Mof_H 	H 	0.5075	0.9519	0.0304	0.056
Mof_H 	H 	0.5598	0.0409	0.1311	0.09
Mof_H 	H 	0.5997	0.0423	0.1753	0.012
Mof_H 	H 	0.6076	0.944	0.1745	0.015
Mof_H 	H 	0.5666	0.9378	0.1309	0.085
Mof_H 	H 	0.4721	0.5764	0.5366	0.055
Mof_H 	H 	0.4715	0.6154	0.5803	0.051
Mof_H 	H 	0.3742	0.5864	0.6054	0.051
Mof_H 	H 	0.3757	0.5471	0.5629	0.054
Mof_H 	H 	0.4751	0.6343	0.637	0.065
Mof_H 	H 	0.4701	0.6747	0.68	0.038
Mof_H 	H 	0.3674	0.6768	0.6637	0.026
Mof_H 	H 	0.3727	0.6371	0.6217	0.073
Mof_H 	H 	0.3577	0.4648	0.5444	0.045
Mof_H 	H 	0.3166	0.422	0.5451	0.061
Mof_H 	H 	0.3593	0.3887	0.4589	0.061
Mof_H 	H 	0.3945	0.4341	0.4564	0.041
Mof_H 	H 	0.3085	0.371	0.5513	0.061
Mof_H 	H 	0.2666	0.3303	0.556	0.042
Mof_H 	H 	0.2578	0.3267	0.4538	0.049
Mof_H 	H 	0.299	0.3699	0.4513	0.059
Mof_H 	H 	0.4616	0.4673	0.4255	0.054
Mof_H 	H 	0.5035	0.4666	0.3819	0.049
Mof_H 	H 	0.5476	0.5484	0.4264	0.05
Mof_H 	H 	0.5075	0.5481	0.4696	0.056
Mof_H 	H 	0.5598	0.4591	0.3689	0.09
Mof_H 	H 	0.5997	0.4577	0.3247	0.012
Mof_H 	H 	0.6076	0.556	0.3255	0.015
Mof_H 	H 	0.5666	0.5622	0.3691	0.085
Mof_H 	H 	0.9721	0.5366	0.5764	0.055
Mof_H 	H 	0.9715	0.5803	0.6154	0.051
Mof_H 	H 	0.8742	0.6054	0.5864	0.051
Mof_H 	H 	0.8757	0.5629	0.5471	0.054
Mof_H 	H 	0.9751	0.637	0.6343	0.065
Mof_H 	H 	0.9701	0.68	0.6747	0.038
Mof_H 	H 	0.8674	0.6637	0.6768	0.026
Mof_H 	H 	0.8727	0.6217	0.6371	0.073
Mof_H 	H 	0.8577	0.5444	0.4648	0.045
Mof_H 	H 	0.8166	0.5451	0.422	0.061
Mof_H 	H 	0.8593	0.4589	0.3887	0.061
Mof_H 	H 	0.8945	0.4564	0.4341	0.041
Mof_H 	H 	0.8085	0.5513	0.371	0.061
Mof_H 	H 	0.7666	0.556	0.3303	0.042
Mof_H 	H 	0.7578	0.4538	0.3267	0.049
Mof_H 	H 	0.799	0.4513	0.3699	0.059
Mof_H 	H 	0.9616	0.4255	0.4673	0.054
Mof_H 	H 	0.0035	0.3819	0.4666	0.049
Mof_H 	H 	0.0476	0.4264	0.5484	0.05
Mof_H 	H 	0.0075	0.4696	0.5481	0.056
Mof_H 	H 	0.0598	0.3689	0.4591	0.09
Mof_H 	H 	0.0997	0.3247	0.4577	0.012
Mof_H 	H 	0.1076	0.3255	0.556	0.015
Mof_H 	H 	0.0666	0.3691	0.5622	0.085
Mof_H 	H 	0.9721	0.9634	0.9236	0.055
Mof_H 	H 	0.9715	0.9197	0.8846	0.051
Mof_H 	H 	0.8742	0.8946	0.9136	0.051
Mof_H 	H 	0.8757	0.9371	0.9529	0.054
Mof_H 	H 	0.9751	0.863	0.8657	0.065
Mof_H 	H 	0.9701	0.82	0.8253	0.038
Mof_H 	H 	0.8674	0.8363	0.8232	0.026
Mof_H 	H 	0.8727	0.8783	0.8629	0.073
Mof_H 	H 	0.8577	0.9556	0.0352	0.045
Mof_H 	H 	0.8166	0.9549	0.078	0.061
Mof_H 	H 	0.8593	0.0411	0.1113	0.061
Mof_H 	H 	0.8945	0.0436	0.0659	0.041
Mof_H 	H 	0.8085	0.9487	0.129	0.061
Mof_H 	H 	0.7666	0.944	0.1697	0.042
Mof_H 	H 	0.7578	0.0462	0.1733	0.048
Mof_H 	H 	0.799	0.0487	0.1301	0.059
Mof_H 	H 	0.9616	0.0745	0.0327	0.054
Mof_H 	H 	0.0035	0.1181	0.0334	0.049
Mof_H 	H 	0.0476	0.0736	0.9516	0.05
Mof_H 	H 	0.0075	0.0304	0.9519	0.056
Mof_H 	H 	0.0598	0.1311	0.0409	0.09
Mof_H 	H 	0.0997	0.1753	0.0423	0.012
Mof_H 	H 	0.1076	0.1745	0.944	0.015
Mof_H 	H 	0.0666	0.1309	0.9378	0.085
Mof_H 	H 	0.4721	0.9236	0.5366	0.055
Mof_H 	H 	0.4715	0.8846	0.5803	0.051
Mof_H 	H 	0.3742	0.9136	0.6054	0.051
Mof_H 	H 	0.3757	0.9529	0.5629	0.054
Mof_H 	H 	0.4751	0.8657	0.637	0.065
Mof_H 	H 	0.4701	0.8253	0.68	0.038
Mof_H 	H 	0.3674	0.8232	0.6637	0.026
Mof_H 	H 	0.3727	0.8629	0.6217	0.073
Mof_H 	H 	0.3577	0.0352	0.5444	0.045
Mof_H 	H 	0.3166	0.078	0.5451	0.061
Mof_H 	H 	0.3593	0.1113	0.4589	0.061
Mof_H 	H 	0.3945	0.0659	0.4564	0.041
Mof_H 	H 	0.3085	0.129	0.5513	0.061
Mof_H 	H 	0.2666	0.1697	0.556	0.042
Mof_H 	H 	0.2578	0.1733	0.4538	0.049
Mof_H 	H 	0.299	0.1301	0.4513	0.059
Mof_H 	H 	0.4616	0.0327	0.4255	0.054
Mof_H 	H 	0.5035	0.0334	0.3819	0.049
Mof_H 	H 	0.5476	0.9516	0.4264	0.05
Mof_H 	H 	0.5075	0.9519	0.4696	0.056
Mof_H 	H 	0.5598	0.0409	0.3689	0.09
Mof_H 	H 	0.5997	0.0423	0.3247	0.012
Mof_H 	H 	0.6076	0.944	0.3255	0.015
Mof_H 	H 	0.5666	0.9378	0.3691	0.085
Mof_H 	H 	0.4721	0.5764	0.9634	0.055
Mof_H 	H 	0.4715	0.6154	0.9197	0.051
Mof_H 	H 	0.3742	0.5864	0.8946	0.051
Mof_H 	H 	0.3757	0.5471	0.9371	0.054
Mof_H 	H 	0.4751	0.6343	0.863	0.065
Mof_H 	H 	0.4701	0.6747	0.82	0.038
Mof_H 	H 	0.3674	0.6768	0.8363	0.026
Mof_H 	H 	0.3727	0.6371	0.8783	0.073
Mof_H 	H 	0.3577	0.4648	0.9556	0.045
Mof_H 	H 	0.3166	0.422	0.9549	0.061
Mof_H 	H 	0.3593	0.3887	0.0411	0.061
Mof_H 	H 	0.3945	0.4341	0.0436	0.041
Mof_H 	H 	0.3085	0.371	0.9487	0.061
Mof_H 	H 	0.2666	0.3303	0.944	0.042
Mof_H 	H 	0.2578	0.3267	0.0462	0.048
Mof_H 	H 	0.299	0.3699	0.0487	0.059
Mof_H 	H 	0.4616	0.4673	0.0745	0.054
Mof_H 	H 	0.5035	0.4666	0.1181	0.049
Mof_H 	H 	0.5476	0.5484	0.0736	0.05
Mof_H 	H 	0.5075	0.5481	0.0304	0.056
Mof_H 	H 	0.5598	0.4591	0.1311	0.09
Mof_H 	H 	0.5997	0.4577	0.1753	0.012
Mof_H 	H 	0.6076	0.556	0.1745	0.015
Mof_H 	H 	0.5666	0.5622	0.1309	0.085
Mof_C 	C 	0.9258	0.5218	0.9696	0.117
Mof_C 	C 	0.9054	0.4993	0.0198	0.121
Mof_C 	C 	0.9528	0.477	0.9925	0.117
Mof_C 	C 	0.9246	0.5473	0.9425	-0.004
Mof_C 	C 	0.9529	0.5508	0.9216	-0.039
Mof_C 	C 	0.9519	0.5758	0.8976	-0.059
Mof_C 	C 	0.9219	0.5939	0.8931	0.006
Mof_C 	C 	0.8934	0.5911	0.9152	-0.058
Mof_C 	C 	0.8947	0.5667	0.939	-0.039
Mof_C 	C 	0.9235	0.6225	0.8679	0.054
Mof_C 	C 	0.9532	0.6419	0.8567	-0.102
Mof_C 	C 	0.9503	0.6684	0.8325	0.029
Mof_C 	C 	0.918	0.6765	0.8198	-0.114
Mof_C 	C 	0.8895	0.6585	0.8314	0.048
Mof_C 	C 	0.8928	0.6324	0.8554	-0.119
Mof_C 	C 	0.9212	0.7059	0.7951	0.4
Mof_C 	C 	0.8799	0.4996	0.0473	-0.029
Mof_C 	C 	0.8566	0.5268	0.0506	-0.014
Mof_C 	C 	0.8328	0.5278	0.0758	-0.087
Mof_C 	C 	0.8344	0.5017	0.0971	0.036
Mof_C 	C 	0.8583	0.4755	0.0949	-0.088
Mof_C 	C 	0.8796	0.4747	0.0689	-0.008
Mof_C 	C 	0.8072	0.5014	0.125	0.031
Mof_C 	C 	0.7979	0.532	0.1374	-0.088
Mof_C 	C 	0.7733	0.5348	0.1622	0.003
Mof_C 	C 	0.7579	0.506	0.1762	-0.051
Mof_C 	C 	0.7675	0.4733	0.1643	-0.007
Mof_C 	C 	0.7922	0.4721	0.1386	-0.08
Mof_C 	C 	0.7284	0.5054	0.2068	0.333
Mof_C 	C 	0.9807	0.4517	0.9925	-0.002
Mof_C 	C 	0.9794	0.4254	0.0167	-0.042
Mof_C 	C 	0.0043	0.399	0.0174	-0.051
Mof_C 	C 	0.0302	0.4006	0.9925	-0.001
Mof_C 	C 	0.0304	0.4267	0.9682	-0.045
Mof_C 	C 	0.0065	0.4525	0.9678	-0.041
Mof_C 	C 	0.0585	0.3723	0.9898	0.085
Mof_C 	C 	0.0689	0.3601	0.021	-0.157
Mof_C 	C 	0.0936	0.3339	0.0215	0.101
Mof_C 	C 	0.1095	0.3211	0.993	-0.194
Mof_C 	C 	0.0979	0.3345	0.9636	0.095
Mof_C 	C 	0.0729	0.3606	0.9588	-0.151
Mof_C 	C 	0.1363	0.2964	0.9927	0.446
Mof_C 	C 	0.9258	0.9782	0.5304	0.117
Mof_C 	C 	0.9054	0.0007	0.4802	0.121
Mof_C 	C 	0.9528	0.023	0.5075	0.117
Mof_C 	C 	0.9246	0.9527	0.5575	-0.004
Mof_C 	C 	0.9529	0.9492	0.5784	-0.039
Mof_C 	C 	0.9519	0.9242	0.6024	-0.059
Mof_C 	C 	0.9219	0.9061	0.6069	0.006
Mof_C 	C 	0.8934	0.9089	0.5848	-0.058
Mof_C 	C 	0.8947	0.9333	0.561	-0.039
Mof_C 	C 	0.9235	0.8775	0.6321	0.054
Mof_C 	C 	0.9532	0.8581	0.6433	-0.102
Mof_C 	C 	0.9503	0.8316	0.6675	0.029
Mof_C 	C 	0.918	0.8235	0.6802	-0.114
Mof_C 	C 	0.8895	0.8415	0.6686	0.048
Mof_C 	C 	0.8928	0.8676	0.6446	-0.119
Mof_C 	C 	0.9212	0.7941	0.7049	0.4
Mof_C 	C 	0.8799	0.0004	0.4527	-0.029
Mof_C 	C 	0.8566	0.9732	0.4494	-0.014
Mof_C 	C 	0.8328	0.9722	0.4242	-0.087
Mof_C 	C 	0.8344	0.9983	0.4029	0.036
Mof_C 	C 	0.8583	0.0245	0.4051	-0.087
Mof_C 	C 	0.8796	0.0253	0.4311	-0.009
Mof_C 	C 	0.8072	0.9986	0.375	0.031
Mof_C 	C 	0.7979	0.968	0.3626	-0.088
Mof_C 	C 	0.7733	0.9652	0.3378	0.003
Mof_C 	C 	0.7579	0.994	0.3238	-0.051
Mof_C 	C 	0.7675	0.0267	0.3357	-0.007
Mof_C 	C 	0.7922	0.0279	0.3614	-0.08
Mof_C 	C 	0.7284	0.9946	0.2932	0.333
Mof_C 	C 	0.9807	0.0483	0.5075	-0.002
Mof_C 	C 	0.9794	0.0746	0.4833	-0.042
Mof_C 	C 	0.0043	0.101	0.4826	-0.051
Mof_C 	C 	0.0302	0.0994	0.5075	-0.001
Mof_C 	C 	0.0304	0.0733	0.5318	-0.045
Mof_C 	C 	0.0065	0.0475	0.5322	-0.041
Mof_C 	C 	0.0585	0.1277	0.5102	0.085
Mof_C 	C 	0.0689	0.1399	0.479	-0.157
Mof_C 	C 	0.0936	0.1661	0.4785	0.101
Mof_C 	C 	0.1095	0.1789	0.507	-0.194
Mof_C 	C 	0.0979	0.1655	0.5364	0.095
Mof_C 	C 	0.0729	0.1394	0.5412	-0.151
Mof_C 	C 	0.1363	0.2036	0.5073	0.446
Mof_C 	C 	0.4258	0.9696	0.9782	0.117
Mof_C 	C 	0.4054	0.0198	0.0007	0.121
Mof_C 	C 	0.4528	0.9925	0.023	0.117
Mof_C 	C 	0.4246	0.9425	0.9527	-0.004
Mof_C 	C 	0.4529	0.9216	0.9492	-0.039
Mof_C 	C 	0.4519	0.8976	0.9242	-0.059
Mof_C 	C 	0.4219	0.8931	0.9061	0.006
Mof_C 	C 	0.3934	0.9152	0.9089	-0.058
Mof_C 	C 	0.3947	0.939	0.9333	-0.039
Mof_C 	C 	0.4235	0.8679	0.8775	0.054
Mof_C 	C 	0.4532	0.8567	0.8581	-0.102
Mof_C 	C 	0.4503	0.8325	0.8316	0.029
Mof_C 	C 	0.418	0.8198	0.8235	-0.114
Mof_C 	C 	0.3895	0.8314	0.8415	0.048
Mof_C 	C 	0.3928	0.8554	0.8676	-0.119
Mof_C 	C 	0.4212	0.7951	0.7941	0.4
Mof_C 	C 	0.3799	0.0473	0.0004	-0.029
Mof_C 	C 	0.3566	0.0506	0.9732	-0.014
Mof_C 	C 	0.3328	0.0758	0.9722	-0.087
Mof_C 	C 	0.3344	0.0971	0.9983	0.036
Mof_C 	C 	0.3583	0.0949	0.0245	-0.087
Mof_C 	C 	0.3796	0.0689	0.0253	-0.009
Mof_C 	C 	0.3072	0.125	0.9986	0.031
Mof_C 	C 	0.2979	0.1374	0.968	-0.088
Mof_C 	C 	0.2733	0.1622	0.9652	0.003
Mof_C 	C 	0.2579	0.1762	0.994	-0.051
Mof_C 	C 	0.2675	0.1643	0.0267	-0.007
Mof_C 	C 	0.2922	0.1386	0.0279	-0.08
Mof_C 	C 	0.2284	0.2068	0.9946	0.333
Mof_C 	C 	0.4807	0.9925	0.0483	-0.002
Mof_C 	C 	0.4794	0.0167	0.0746	-0.042
Mof_C 	C 	0.5043	0.0174	0.101	-0.051
Mof_C 	C 	0.5302	0.9925	0.0994	-0.001
Mof_C 	C 	0.5304	0.9682	0.0733	-0.045
Mof_C 	C 	0.5065	0.9678	0.0475	-0.041
Mof_C 	C 	0.5585	0.9898	0.1277	0.085
Mof_C 	C 	0.5689	0.021	0.1399	-0.157
Mof_C 	C 	0.5936	0.0215	0.1661	0.101
Mof_C 	C 	0.6095	0.993	0.1789	-0.194
Mof_C 	C 	0.5979	0.9636	0.1655	0.095
Mof_C 	C 	0.5729	0.9588	0.1394	-0.151
Mof_C 	C 	0.6363	0.9927	0.2036	0.446
Mof_C 	C 	0.4258	0.5304	0.5218	0.117
Mof_C 	C 	0.4054	0.4802	0.4993	0.121
Mof_C 	C 	0.4528	0.5075	0.477	0.117
Mof_C 	C 	0.4246	0.5575	0.5473	-0.004
Mof_C 	C 	0.4529	0.5784	0.5508	-0.039
Mof_C 	C 	0.4519	0.6024	0.5758	-0.059
Mof_C 	C 	0.4219	0.6069	0.5939	0.006
Mof_C 	C 	0.3934	0.5848	0.5911	-0.058
Mof_C 	C 	0.3947	0.561	0.5667	-0.039
Mof_C 	C 	0.4235	0.6321	0.6225	0.054
Mof_C 	C 	0.4532	0.6433	0.6419	-0.102
Mof_C 	C 	0.4503	0.6675	0.6684	0.029
Mof_C 	C 	0.418	0.6802	0.6765	-0.114
Mof_C 	C 	0.3895	0.6686	0.6585	0.048
Mof_C 	C 	0.3928	0.6446	0.6324	-0.119
Mof_C 	C 	0.4212	0.7049	0.7059	0.4
Mof_C 	C 	0.3799	0.4527	0.4996	-0.029
Mof_C 	C 	0.3566	0.4494	0.5268	-0.014
Mof_C 	C 	0.3328	0.4242	0.5278	-0.087
Mof_C 	C 	0.3344	0.4029	0.5017	0.036
Mof_C 	C 	0.3583	0.4051	0.4755	-0.088
Mof_C 	C 	0.3796	0.4311	0.4747	-0.008
Mof_C 	C 	0.3072	0.375	0.5014	0.031
Mof_C 	C 	0.2979	0.3626	0.532	-0.088
Mof_C 	C 	0.2733	0.3378	0.5348	0.003
Mof_C 	C 	0.2579	0.3238	0.506	-0.051
Mof_C 	C 	0.2675	0.3357	0.4733	-0.007
Mof_C 	C 	0.2922	0.3614	0.4721	-0.08
Mof_C 	C 	0.2284	0.2932	0.5054	0.333
Mof_C 	C 	0.4807	0.5075	0.4517	-0.002
Mof_C 	C 	0.4794	0.4833	0.4254	-0.042
Mof_C 	C 	0.5043	0.4826	0.399	-0.051
Mof_C 	C 	0.5302	0.5075	0.4006	-0.001
Mof_C 	C 	0.5304	0.5318	0.4267	-0.045
Mof_C 	C 	0.5065	0.5322	0.4525	-0.041
Mof_C 	C 	0.5585	0.5102	0.3723	0.085
Mof_C 	C 	0.5689	0.479	0.3601	-0.157
Mof_C 	C 	0.5936	0.4785	0.3339	0.101
Mof_C 	C 	0.6095	0.507	0.3211	-0.194
Mof_C 	C 	0.5979	0.5364	0.3345	0.095
Mof_C 	C 	0.5729	0.5412	0.3606	-0.151
Mof_C 	C 	0.6363	0.5073	0.2964	0.446
Mof_C 	C 	0.9258	0.5218	0.5304	0.117
Mof_C 	C 	0.9054	0.4993	0.4802	0.121
Mof_C 	C 	0.9528	0.477	0.5075	0.117
Mof_C 	C 	0.9246	0.5473	0.5575	-0.004
Mof_C 	C 	0.9529	0.5508	0.5784	-0.039
Mof_C 	C 	0.9519	0.5758	0.6024	-0.059
Mof_C 	C 	0.9219	0.5939	0.6069	0.006
Mof_C 	C 	0.8934	0.5911	0.5848	-0.058
Mof_C 	C 	0.8947	0.5667	0.561	-0.039
Mof_C 	C 	0.9235	0.6225	0.6321	0.054
Mof_C 	C 	0.9532	0.6419	0.6433	-0.102
Mof_C 	C 	0.9503	0.6684	0.6675	0.029
Mof_C 	C 	0.918	0.6765	0.6802	-0.114
Mof_C 	C 	0.8895	0.6585	0.6686	0.048
Mof_C 	C 	0.8928	0.6324	0.6446	-0.119
Mof_C 	C 	0.9212	0.7059	0.7049	0.4
Mof_C 	C 	0.8799	0.4996	0.4527	-0.029
Mof_C 	C 	0.8566	0.5268	0.4494	-0.014
Mof_C 	C 	0.8328	0.5278	0.4242	-0.087
Mof_C 	C 	0.8344	0.5017	0.4029	0.036
Mof_C 	C 	0.8583	0.4755	0.4051	-0.088
Mof_C 	C 	0.8796	0.4747	0.4311	-0.008
Mof_C 	C 	0.8072	0.5014	0.375	0.031
Mof_C 	C 	0.7979	0.532	0.3626	-0.088
Mof_C 	C 	0.7733	0.5348	0.3378	0.003
Mof_C 	C 	0.7579	0.506	0.3238	-0.051
Mof_C 	C 	0.7675	0.4733	0.3357	-0.007
Mof_C 	C 	0.7922	0.4721	0.3614	-0.08
Mof_C 	C 	0.7284	0.5054	0.2932	0.333
Mof_C 	C 	0.9807	0.4517	0.5075	-0.002
Mof_C 	C 	0.9794	0.4254	0.4833	-0.042
Mof_C 	C 	0.0043	0.399	0.4826	-0.051
Mof_C 	C 	0.0302	0.4006	0.5075	-0.001
Mof_C 	C 	0.0304	0.4267	0.5318	-0.045
Mof_C 	C 	0.0065	0.4525	0.5322	-0.041
Mof_C 	C 	0.0585	0.3723	0.5102	0.085
Mof_C 	C 	0.0689	0.3601	0.479	-0.157
Mof_C 	C 	0.0936	0.3339	0.4785	0.101
Mof_C 	C 	0.1095	0.3211	0.507	-0.194
Mof_C 	C 	0.0979	0.3345	0.5364	0.095
Mof_C 	C 	0.0729	0.3606	0.5412	-0.151
Mof_C 	C 	0.1363	0.2964	0.5073	0.446
Mof_C 	C 	0.9258	0.9782	0.9696	0.117
Mof_C 	C 	0.9054	0.0007	0.0198	0.121
Mof_C 	C 	0.9528	0.023	0.9925	0.117
Mof_C 	C 	0.9246	0.9527	0.9425	-0.004
Mof_C 	C 	0.9529	0.9492	0.9216	-0.039
Mof_C 	C 	0.9519	0.9242	0.8976	-0.059
Mof_C 	C 	0.9219	0.9061	0.8931	0.006
Mof_C 	C 	0.8934	0.9089	0.9152	-0.058
Mof_C 	C 	0.8947	0.9333	0.939	-0.039
Mof_C 	C 	0.9235	0.8775	0.8679	0.054
Mof_C 	C 	0.9532	0.8581	0.8567	-0.102
Mof_C 	C 	0.9503	0.8316	0.8325	0.029
Mof_C 	C 	0.918	0.8235	0.8198	-0.114
Mof_C 	C 	0.8895	0.8415	0.8314	0.048
Mof_C 	C 	0.8928	0.8676	0.8554	-0.119
Mof_C 	C 	0.9212	0.7941	0.7951	0.4
Mof_C 	C 	0.8799	0.0004	0.0473	-0.029
Mof_C 	C 	0.8566	0.9732	0.0506	-0.014
Mof_C 	C 	0.8328	0.9722	0.0758	-0.087
Mof_C 	C 	0.8344	0.9983	0.0971	0.036
Mof_C 	C 	0.8583	0.0245	0.0949	-0.087
Mof_C 	C 	0.8796	0.0253	0.0689	-0.009
Mof_C 	C 	0.8072	0.9986	0.125	0.031
Mof_C 	C 	0.7979	0.968	0.1374	-0.088
Mof_C 	C 	0.7733	0.9652	0.1622	0.003
Mof_C 	C 	0.7579	0.994	0.1762	-0.051
Mof_C 	C 	0.7675	0.0267	0.1643	-0.007
Mof_C 	C 	0.7922	0.0279	0.1386	-0.08
Mof_C 	C 	0.7284	0.9946	0.2068	0.333
Mof_C 	C 	0.9807	0.0483	0.9925	-0.002
Mof_C 	C 	0.9794	0.0746	0.0167	-0.042
Mof_C 	C 	0.0043	0.101	0.0174	-0.051
Mof_C 	C 	0.0302	0.0994	0.9925	-0.001
Mof_C 	C 	0.0304	0.0733	0.9682	-0.045
Mof_C 	C 	0.0065	0.0475	0.9678	-0.041
Mof_C 	C 	0.0585	0.1277	0.9898	0.085
Mof_C 	C 	0.0689	0.1399	0.021	-0.157
Mof_C 	C 	0.0936	0.1661	0.0215	0.101
Mof_C 	C 	0.1095	0.1789	0.993	-0.194
Mof_C 	C 	0.0979	0.1655	0.9636	0.095
Mof_C 	C 	0.0729	0.1394	0.9588	-0.151
Mof_C 	C 	0.1363	0.2036	0.9927	0.446
Mof_C 	C 	0.4258	0.9696	0.5218	0.117
Mof_C 	C 	0.4054	0.0198	0.4993	0.121
Mof_C 	C 	0.4528	0.9925	0.477	0.117
Mof_C 	C 	0.4246	0.9425	0.5473	-0.004
Mof_C 	C 	0.4529	0.9216	0.5508	-0.039
Mof_C 	C 	0.4519	0.8976	0.5758	-0.059
Mof_C 	C 	0.4219	0.8931	0.5939	0.006
Mof_C 	C 	0.3934	0.9152	0.5911	-0.058
Mof_C 	C 	0.3947	0.939	0.5667	-0.039
Mof_C 	C 	0.4235	0.8679	0.6225	0.054
Mof_C 	C 	0.4532	0.8567	0.6419	-0.102
Mof_C 	C 	0.4503	0.8325	0.6684	0.029
Mof_C 	C 	0.418	0.8198	0.6765	-0.114
Mof_C 	C 	0.3895	0.8314	0.6585	0.048
Mof_C 	C 	0.3928	0.8554	0.6324	-0.119
Mof_C 	C 	0.4212	0.7951	0.7059	0.4
Mof_C 	C 	0.3799	0.0473	0.4996	-0.029
Mof_C 	C 	0.3566	0.0506	0.5268	-0.014
Mof_C 	C 	0.3328	0.0758	0.5278	-0.087
Mof_C 	C 	0.3344	0.0971	0.5017	0.036
Mof_C 	C 	0.3583	0.0949	0.4755	-0.088
Mof_C 	C 	0.3796	0.0689	0.4747	-0.008
Mof_C 	C 	0.3072	0.125	0.5014	0.031
Mof_C 	C 	0.2979	0.1374	0.532	-0.088
Mof_C 	C 	0.2733	0.1622	0.5348	0.003
Mof_C 	C 	0.2579	0.1762	0.506	-0.051
Mof_C 	C 	0.2675	0.1643	0.4733	-0.007
Mof_C 	C 	0.2922	0.1386	0.4721	-0.08
Mof_C 	C 	0.2284	0.2068	0.5054	0.333
Mof_C 	C 	0.4807	0.9925	0.4517	-0.002
Mof_C 	C 	0.4794	0.0167	0.4254	-0.042
Mof_C 	C 	0.5043	0.0174	0.399	-0.051
Mof_C 	C 	0.5302	0.9925	0.4006	-0.001
Mof_C 	C 	0.5304	0.9682	0.4267	-0.045
Mof_C 	C 	0.5065	0.9678	0.4525	-0.041
Mof_C 	C 	0.5585	0.9898	0.3723	0.085
Mof_C 	C 	0.5689	0.021	0.3601	-0.157
Mof_C 	C 	0.5936	0.0215	0.3339	0.101
Mof_C 	C 	0.6095	0.993	0.3211	-0.194
Mof_C 	C 	0.5979	0.9636	0.3345	0.095
Mof_C 	C 	0.5729	0.9588	0.3606	-0.151
Mof_C 	C 	0.6363	0.9927	0.2964	0.446
Mof_C 	C 	0.4258	0.5304	0.9782	0.117
Mof_C 	C 	0.4054	0.4802	0.0007	0.121
Mof_C 	C 	0.4528	0.5075	0.023	0.117
Mof_C 	C 	0.4246	0.5575	0.9527	-0.004
Mof_C 	C 	0.4529	0.5784	0.9492	-0.039
Mof_C 	C 	0.4519	0.6024	0.9242	-0.059
Mof_C 	C 	0.4219	0.6069	0.9061	0.006
Mof_C 	C 	0.3934	0.5848	0.9089	-0.058
Mof_C 	C 	0.3947	0.561	0.9333	-0.039
Mof_C 	C 	0.4235	0.6321	0.8775	0.054
Mof_C 	C 	0.4532	0.6433	0.8581	-0.102
Mof_C 	C 	0.4503	0.6675	0.8316	0.029
Mof_C 	C 	0.418	0.6802	0.8235	-0.114
Mof_C 	C 	0.3895	0.6686	0.8415	0.048
Mof_C 	C 	0.3928	0.6446	0.8676	-0.119
Mof_C 	C 	0.4212	0.7049	0.7941	0.4
Mof_C 	C 	0.3799	0.4527	0.0004	-0.029
Mof_C 	C 	0.3566	0.4494	0.9732	-0.014
Mof_C 	C 	0.3328	0.4242	0.9722	-0.087
Mof_C 	C 	0.3344	0.4029	0.9983	0.036
Mof_C 	C 	0.3583	0.4051	0.0245	-0.087
Mof_C 	C 	0.3796	0.4311	0.0253	-0.009
Mof_C 	C 	0.3072	0.375	0.9986	0.031
Mof_C 	C 	0.2979	0.3626	0.968	-0.088
Mof_C 	C 	0.2733	0.3378	0.9652	0.003
Mof_C 	C 	0.2579	0.3238	0.994	-0.051
Mof_C 	C 	0.2675	0.3357	0.0267	-0.007
Mof_C 	C 	0.2922	0.3614	0.0279	-0.08
Mof_C 	C 	0.2284	0.2932	0.9946	0.333
Mof_C 	C 	0.4807	0.5075	0.0483	-0.002
Mof_C 	C 	0.4794	0.4833	0.0746	-0.042
Mof_C 	C 	0.5043	0.4826	0.101	-0.051
Mof_C 	C 	0.5302	0.5075	0.0994	-0.001
Mof_C 	C 	0.5304	0.5318	0.0733	-0.045
Mof_C 	C 	0.5065	0.5322	0.0475	-0.041
Mof_C 	C 	0.5585	0.5102	0.1277	0.085
Mof_C 	C 	0.5689	0.479	0.1399	-0.157
Mof_C 	C 	0.5936	0.4785	0.1661	0.101
Mof_C 	C 	0.6095	0.507	0.1789	-0.194
Mof_C 	C 	0.5979	0.5364	0.1655	0.095
Mof_C 	C 	0.5729	0.5412	0.1394	-0.151
Mof_C 	C 	0.6363	0.5073	0.2036	0.446
Mof_N 	N 	0.9521	0.4994	0.9672	-0.143
Mof_N 	N 	0.9027	0.5229	0.9952	-0.144
Mof_N 	N 	0.9306	0.4759	0.019	-0.146
Mof_N 	N 	0.9521	0.0006	0.5328	-0.143
Mof_N 	N 	0.9027	0.9771	0.5048	-0.144
Mof_N 	N 	0.9306	0.0241	0.481	-0.146
Mof_N 	N 	0.4521	0.9672	0.0006	-0.143
Mof_N 	N 	0.4027	0.9952	0.9771	-0.144
Mof_N 	N 	0.4306	0.019	0.0241	-0.146
Mof_N 	N 	0.4521	0.5328	0.4994	-0.143
Mof_N 	N 	0.4027	0.5048	0.5229	-0.144
Mof_N 	N 	0.4306	0.481	0.4759	-0.146
Mof_N 	N 	0.9521	0.4994	0.5328	-0.143
Mof_N 	N 	0.9027	0.5229	0.5048	-0.144
Mof_N 	N 	0.9306	0.4759	0.481	-0.146
Mof_N 	N 	0.9521	0.0006	0.9672	-0.143
Mof_N 	N 	0.9027	0.9771	0.9952	-0.144
Mof_N 	N 	0.9306	0.0241	0.019	-0.146
Mof_N 	N 	0.4521	0.9672	0.4994	-0.143
Mof_N 	N 	0.4027	0.9952	0.5229	-0.144
Mof_N 	N 	0.4306	0.019	0.4759	-0.146
Mof_N 	N 	0.4521	0.5328	0.0006	-0.143
Mof_N 	N 	0.4027	0.5048	0.9771	-0.144
Mof_N 	N 	0.4306	0.481	0.0241	-0.146
Mof_O 	O 	0.94823	0.7158	0.7849	-0.44
Mof_O 	O 	0.89093	0.71521	0.78471	-0.411
Mof_O 	O 	0.71951	0.53353	0.21596	-0.412
Mof_O 	O 	0.71803	0.47589	0.21555	-0.397
Mof_O 	O 	0.14533	0.28439	0.01915	-0.439
Mof_O 	O 	0.1478	0.2845	0.96514	-0.425
Mof_O 	O 	0.94823	0.7842	0.7151	-0.44
Mof_O 	O 	0.89093	0.78479	0.71529	-0.411
Mof_O 	O 	0.71951	0.96647	0.28404	-0.412
Mof_O 	O 	0.71803	0.02411	0.28445	-0.397
Mof_O 	O 	0.14533	0.21561	0.48085	-0.439
Mof_O 	O 	0.1478	0.2155	0.53486	-0.425
Mof_O 	O 	0.44823	0.7849	0.7842	-0.44
Mof_O 	O 	0.39093	0.78471	0.78479	-0.411
Mof_O 	O 	0.21951	0.21596	0.96647	-0.412
Mof_O 	O 	0.21803	0.21555	0.02411	-0.397
Mof_O 	O 	0.64533	0.01915	0.21561	-0.439
Mof_O 	O 	0.6478	0.96514	0.2155	-0.425
Mof_O 	O 	0.44823	0.7151	0.7158	-0.44
Mof_O 	O 	0.39093	0.71529	0.71521	-0.411
Mof_O 	O 	0.21951	0.28404	0.53353	-0.412
Mof_O 	O 	0.21803	0.28445	0.47589	-0.397
Mof_O 	O 	0.64533	0.48085	0.28439	-0.439
Mof_O 	O 	0.6478	0.53486	0.2845	-0.425
Mof_O 	O 	0.94823	0.7158	0.7151	-0.44
Mof_O 	O 	0.89093	0.71521	0.71529	-0.411
Mof_O 	O 	0.71951	0.53353	0.28404	-0.412
Mof_O 	O 	0.71803	0.47589	0.28445	-0.397
Mof_O 	O 	0.14533	0.28439	0.48085	-0.439
Mof_O 	O 	0.1478	0.2845	0.53486	-0.425
Mof_O 	O 	0.94823	0.7842	0.7849	-0.44
Mof_O 	O 	0.89093	0.78479	0.78471	-0.411
Mof_O 	O 	0.71951	0.96647	0.21596	-0.412
Mof_O 	O 	0.71803	0.02411	0.21555	-0.397
Mof_O 	O 	0.14533	0.21561	0.01915	-0.439
Mof_O 	O 	0.1478	0.2155	0.96514	-0.425
Mof_O 	O 	0.44823	0.7849	0.7158	-0.44
Mof_O 	O 	0.39093	0.78471	0.71521	-0.411
Mof_O 	O 	0.21951	0.21596	0.53353	-0.412
Mof_O 	O 	0.21803	0.21555	0.47589	-0.397
Mof_O 	O 	0.64533	0.01915	0.28439	-0.439
Mof_O 	O 	0.6478	0.96514	0.2845	-0.425
Mof_O 	O 	0.44823	0.7151	0.7842	-0.44
Mof_O 	O 	0.39093	0.71529	0.78479	-0.411
Mof_O 	O 	0.21951	0.28404	0.96647	-0.412
Mof_O 	O 	0.21803	0.28445	0.02411	-0.397
Mof_O 	O 	0.64533	0.48085	0.21561	-0.439
Mof_O 	O 	0.6478	0.53486	0.2155	-0.425
_end
