# CIF file generated by openbabel 3.1.0, see https://openbabel.org
data_I
_chemical_name_common 'image0'
_cell_length_a 10.1763
_cell_length_b 11.1598
_cell_length_c 14.8557
_cell_angle_alpha 90
_cell_angle_beta 107.035
_cell_angle_gamma 90
_space_group_name_H-M_alt 'P 1'
_space_group_name_Hall 'P 1'
loop_
    _symmetry_equiv_pos_as_xyz
    x,y,z
loop_
    _atom_site_label
    _atom_site_type_symbol
    _atom_site_fract_x
    _atom_site_fract_y
    _atom_site_fract_z
    _atom_site_occupancy
    Cu1      Cu       0.03066    0.25026    0.00000    1.000
    O1       O        0.85090    0.17220    0.99140    1.000
    O2       O        0.70700    0.06760    0.04630    1.000
    O3       O        0.98750    0.36550    0.08440    1.000
    O4       O        0.86710    0.42350    0.17870    1.000
    O5       O        0.94010    0.88440    0.07560    1.000
    O6       O        0.85570    0.81840    0.19050    1.000
    N1       N        0.21340    0.32910    0.01810    1.000
    C1       C        0.21880    0.44880    0.02910    1.000
    H1       H        0.14470    0.48720    0.04120    1.000
    C2       C        0.32790    0.51680    0.02330    1.000
    H2       H        0.32570    0.59950    0.03090    1.000
    C3       C        0.44160    0.46420    0.00630    1.000
    C4       C        0.43910    0.33920    0.00000    1.000
    H3       H        0.51470    0.29840    0.99220    1.000
    C5       C        0.32530    0.27580    0.00520    1.000
    H4       H        0.32590    0.19280    0.99960    1.000
    C6       C        0.93320    0.34810    0.15120    1.000
    C7       C        0.96310    0.22800    0.20150    1.000
    C8       C        0.81930    0.11900    0.05640    1.000
    C9       C        0.92010    0.11990    0.15540    1.000
    C10      C        0.95780    0.01190    0.20330    1.000
    C11      C        0.91240    0.89430    0.15300    1.000
    Cu2      Cu       0.96934    0.25026    0.50000    1.000
    O7       O        0.14910    0.17220    0.50860    1.000
    O8       O        0.29300    0.06760    0.45370    1.000
    O9       O        0.01250    0.36550    0.41560    1.000
    O10      O        0.13290    0.42350    0.32130    1.000
    O11      O        0.05990    0.88440    0.42440    1.000
    O12      O        0.14430    0.81840    0.30950    1.000
    N2       N        0.78660    0.32910    0.48190    1.000
    C12      C        0.78120    0.44880    0.47090    1.000
    H5       H        0.85530    0.48720    0.45880    1.000
    C13      C        0.67210    0.51680    0.47670    1.000
    H6       H        0.67430    0.59950    0.46910    1.000
    C14      C        0.55840    0.46420    0.49370    1.000
    C15      C        0.56090    0.33920    0.50000    1.000
    H7       H        0.48530    0.29840    0.50780    1.000
    C16      C        0.67470    0.27580    0.49480    1.000
    H8       H        0.67410    0.19280    0.50040    1.000
    C17      C        0.06680    0.34810    0.34880    1.000
    C18      C        0.03690    0.22800    0.29850    1.000
    C19      C        0.18070    0.11900    0.44360    1.000
    C20      C        0.07990    0.11990    0.34460    1.000
    C21      C        0.04220    0.01190    0.29670    1.000
    C22      C        0.08760    0.89430    0.34700    1.000
    Cu3      Cu       0.96934    0.74974    0.00000    1.000
    O13      O        0.14910    0.82780    0.00860    1.000
    O14      O        0.29300    0.93240    0.95370    1.000
    O15      O        0.01250    0.63450    0.91560    1.000
    O16      O        0.13290    0.57650    0.82130    1.000
    O17      O        0.05990    0.11560    0.92440    1.000
    O18      O        0.14430    0.18160    0.80950    1.000
    N3       N        0.78660    0.67090    0.98190    1.000
    C23      C        0.78120    0.55120    0.97090    1.000
    H9       H        0.85530    0.51280    0.95880    1.000
    C24      C        0.67210    0.48320    0.97670    1.000
    H10      H        0.67430    0.40050    0.96910    1.000
    C25      C        0.55840    0.53580    0.99370    1.000
    C26      C        0.56090    0.66080    0.00000    1.000
    H11      H        0.48530    0.70160    0.00780    1.000
    C27      C        0.67470    0.72420    0.99480    1.000
    H12      H        0.67410    0.80720    0.00040    1.000
    C28      C        0.06680    0.65190    0.84880    1.000
    C29      C        0.03690    0.77200    0.79850    1.000
    C30      C        0.18070    0.88100    0.94360    1.000
    C31      C        0.07990    0.88010    0.84460    1.000
    C32      C        0.04220    0.98810    0.79670    1.000
    C33      C        0.08760    0.10570    0.84700    1.000
    Cu4      Cu       0.03066    0.74974    0.50000    1.000
    O19      O        0.85090    0.82780    0.49140    1.000
    O20      O        0.70700    0.93240    0.54630    1.000
    O21      O        0.98750    0.63450    0.58440    1.000
    O22      O        0.86710    0.57650    0.67870    1.000
    O23      O        0.94010    0.11560    0.57560    1.000
    O24      O        0.85570    0.18160    0.69050    1.000
    N4       N        0.21340    0.67090    0.51810    1.000
    C34      C        0.21880    0.55120    0.52910    1.000
    H13      H        0.14470    0.51280    0.54120    1.000
    C35      C        0.32790    0.48320    0.52330    1.000
    H14      H        0.32570    0.40050    0.53090    1.000
    C36      C        0.44160    0.53580    0.50630    1.000
    C37      C        0.43910    0.66080    0.50000    1.000
    H15      H        0.51470    0.70160    0.49220    1.000
    C38      C        0.32530    0.72420    0.50520    1.000
    H16      H        0.32590    0.80720    0.49960    1.000
    C39      C        0.93320    0.65190    0.65120    1.000
    C40      C        0.96310    0.77200    0.70150    1.000
    C41      C        0.81930    0.88100    0.55640    1.000
    C42      C        0.92010    0.88010    0.65540    1.000
    C43      C        0.95780    0.98810    0.70330    1.000
    C44      C        0.91240    0.10570    0.65300    1.000
