data_functionalizedCrystal
_audit_creation_method	'EQeq! by Chris Wilmer'
_symmetry_space_group_name_H-M	'P1'
_symmetry_Int_Tables_number	1
_symmetry_cell_setting	triclinic
loop_
_symmetry_equiv_pos_as_xyz
  x,y,z
_cell_length_a	8.9532
_cell_length_b	15.1537
_cell_length_c	16.466
_cell_angle_alpha	90
_cell_angle_beta	90
_cell_angle_gamma	103.587
loop_
_atom_site_label
_atom_site_type_symbol
_atom_site_fract_x
_atom_site_fract_y
_atom_site_fract_z
_atom_site_charge
Mof_Eu	Eu	0.43638	0.04332	0.89354	2.453
Mof_Eu	Eu	0.06362	0.95668	0.39354	2.438
Mof_Eu	Eu	0.56362	0.95668	0.10646	2.453
Mof_Eu	Eu	0.93638	0.04332	0.60646	2.438
Mof_H 	H 	0.9936	0.861	0.987	0.141
Mof_H 	H 	0.9689	0.9122	0.0666	0.152
Mof_H 	H 	0.1481	0.7818	0.9413	0.036
Mof_H 	H 	0.2412	0.6606	0.896	0.086
Mof_H 	H 	0.1306	0.5314	0.1056	0.069
Mof_H 	H 	0.0342	0.6497	0.1516	0.061
Mof_H 	H 	0.1509	0.4218	0.0438	-0.012
Mof_H 	H 	0.6536	0.3602	0.7581	0.106
Mof_H 	H 	0.5773	0.49	0.7906	0.016
Mof_H 	H 	0.4458	0.2687	0.0576	0.139
Mof_H 	H 	0.2813	0.2031	0.0601	0.124
Mof_H 	H 	0.65	0.2352	0.7186	0.118
Mof_H 	H 	0.7789	0.2248	0.78	0.118
Mof_H 	H 	0.5064	0.139	0.487	0.115
Mof_H 	H 	0.5311	0.0878	0.5666	0.131
Mof_H 	H 	0.3519	0.2182	0.4413	0.046
Mof_H 	H 	0.2588	0.3394	0.396	0.079
Mof_H 	H 	0.3694	0.4686	0.6056	0.061
Mof_H 	H 	0.4658	0.3503	0.6516	0.072
Mof_H 	H 	0.3491	0.5782	0.5438	-0.01
Mof_H 	H 	0.8464	0.6398	0.2581	0.109
Mof_H 	H 	0.9227	0.51	0.2906	0.013
Mof_H 	H 	0.0542	0.7313	0.5576	0.139
Mof_H 	H 	0.2187	0.7969	0.5601	0.125
Mof_H 	H 	0.85	0.7648	0.2186	0.12
Mof_H 	H 	0.7211	0.7752	0.28	0.119
Mof_H 	H 	0.0064	0.139	0.013	0.141
Mof_H 	H 	0.0311	0.0878	0.9334	0.152
Mof_H 	H 	0.8519	0.2182	0.0587	0.036
Mof_H 	H 	0.7588	0.3394	0.104	0.086
Mof_H 	H 	0.8694	0.4686	0.8944	0.069
Mof_H 	H 	0.9658	0.3503	0.8484	0.061
Mof_H 	H 	0.8491	0.5782	0.9562	-0.012
Mof_H 	H 	0.3464	0.6398	0.2419	0.106
Mof_H 	H 	0.4227	0.51	0.2094	0.016
Mof_H 	H 	0.5542	0.7313	0.9424	0.139
Mof_H 	H 	0.7187	0.7969	0.9399	0.124
Mof_H 	H 	0.35	0.7648	0.2814	0.118
Mof_H 	H 	0.2211	0.7752	0.22	0.118
Mof_H 	H 	0.4936	0.861	0.513	0.115
Mof_H 	H 	0.4689	0.9122	0.4334	0.131
Mof_H 	H 	0.6481	0.7818	0.5587	0.046
Mof_H 	H 	0.7412	0.6606	0.604	0.079
Mof_H 	H 	0.6306	0.5314	0.3944	0.061
Mof_H 	H 	0.5342	0.6497	0.3484	0.072
Mof_H 	H 	0.6509	0.4218	0.4562	-0.01
Mof_H 	H 	0.1536	0.3602	0.7419	0.109
Mof_H 	H 	0.0773	0.49	0.7094	0.013
Mof_H 	H 	0.9458	0.2687	0.4424	0.139
Mof_H 	H 	0.7813	0.2031	0.4399	0.125
Mof_H 	H 	0.15	0.2352	0.7814	0.12
Mof_H 	H 	0.2789	0.2248	0.72	0.119
Mof_C 	C 	0.1968	0.9354	0.0345	0.533
Mof_C 	C 	0.0332	0.8768	0.0412	-0.321
Mof_C 	C 	0.0826	0.7287	0.0526	0.11
Mof_C 	C 	0.1449	0.732	0.9749	-0.046
Mof_C 	C 	0.2021	0.6591	0.9485	-0.105
Mof_C 	C 	0.2035	0.5858	0.9956	0.108
Mof_C 	C 	0.136	0.582	0.0728	-0.089
Mof_C 	C 	0.0777	0.6529	0.1001	-0.074
Mof_C 	C 	0.3808	0.5185	0.9037	0.229
Mof_C 	C 	0.2686	0.5085	0.9684	-0.16
Mof_C 	C 	0.2244	0.4272	0.0031	0.171
Mof_C 	C 	0.3788	0.3571	0.9255	0.158
Mof_C 	C 	0.4295	0.2781	0.909	0.001
Mof_C 	C 	0.5342	0.2829	0.8451	0.172
Mof_C 	C 	0.5856	0.3599	0.8009	-0.21
Mof_C 	C 	0.5377	0.4367	0.8191	0.088
Mof_C 	C 	0.4293	0.4355	0.8805	-0.146
Mof_C 	C 	0.3862	0.2091	0.0417	-0.25
Mof_C 	C 	0.4526	0.1366	0.0805	0.482
Mof_C 	C 	0.674	0.199	0.7631	-0.256
Mof_C 	C 	0.6593	0.1033	0.7352	0.569
Mof_C 	C 	0.3032	0.0646	0.5345	0.536
Mof_C 	C 	0.4668	0.1232	0.5412	-0.262
Mof_C 	C 	0.4174	0.2713	0.5526	0.141
Mof_C 	C 	0.3551	0.268	0.4749	-0.078
Mof_C 	C 	0.2979	0.3409	0.4485	-0.082
Mof_C 	C 	0.2965	0.4142	0.4956	0.086
Mof_C 	C 	0.364	0.418	0.5728	-0.063
Mof_C 	C 	0.4223	0.3471	0.6001	-0.097
Mof_C 	C 	0.1192	0.4815	0.4037	0.228
Mof_C 	C 	0.2314	0.4915	0.4684	-0.153
Mof_C 	C 	0.2756	0.5728	0.5031	0.167
Mof_C 	C 	0.1212	0.6429	0.4255	0.162
Mof_C 	C 	0.0705	0.7219	0.409	-0.008
Mof_C 	C 	0.9658	0.7171	0.3451	0.182
Mof_C 	C 	0.9144	0.6401	0.3009	-0.217
Mof_C 	C 	0.9623	0.5633	0.3191	0.097
Mof_C 	C 	0.0707	0.5645	0.3805	-0.152
Mof_C 	C 	0.1138	0.7909	0.5417	-0.256
Mof_C 	C 	0.0474	0.8634	0.5805	0.473
Mof_C 	C 	0.826	0.801	0.2631	-0.256
Mof_C 	C 	0.8407	0.8967	0.2352	0.57
Mof_C 	C 	0.8032	0.0646	0.9655	0.533
Mof_C 	C 	0.9668	0.1232	0.9588	-0.321
Mof_C 	C 	0.9174	0.2713	0.9474	0.11
Mof_C 	C 	0.8551	0.268	0.0251	-0.046
Mof_C 	C 	0.7979	0.3409	0.0515	-0.105
Mof_C 	C 	0.7965	0.4142	0.0044	0.108
Mof_C 	C 	0.864	0.418	0.9272	-0.089
Mof_C 	C 	0.9223	0.3471	0.8999	-0.074
Mof_C 	C 	0.6192	0.4815	0.0963	0.229
Mof_C 	C 	0.7314	0.4915	0.0316	-0.16
Mof_C 	C 	0.7756	0.5728	0.9969	0.171
Mof_C 	C 	0.6212	0.6429	0.0745	0.158
Mof_C 	C 	0.5705	0.7219	0.091	0.001
Mof_C 	C 	0.4658	0.7171	0.1549	0.172
Mof_C 	C 	0.4144	0.6401	0.1991	-0.21
Mof_C 	C 	0.4623	0.5633	0.1809	0.088
Mof_C 	C 	0.5707	0.5645	0.1195	-0.146
Mof_C 	C 	0.6138	0.7909	0.9583	-0.25
Mof_C 	C 	0.5474	0.8634	0.9195	0.482
Mof_C 	C 	0.326	0.801	0.2369	-0.256
Mof_C 	C 	0.3407	0.8967	0.2648	0.569
Mof_C 	C 	0.6968	0.9354	0.4655	0.536
Mof_C 	C 	0.5332	0.8768	0.4588	-0.262
Mof_C 	C 	0.5826	0.7287	0.4474	0.141
Mof_C 	C 	0.6449	0.732	0.5251	-0.078
Mof_C 	C 	0.7021	0.6591	0.5515	-0.082
Mof_C 	C 	0.7035	0.5858	0.5044	0.086
Mof_C 	C 	0.636	0.582	0.4272	-0.063
Mof_C 	C 	0.5777	0.6529	0.3999	-0.097
Mof_C 	C 	0.8808	0.5185	0.5963	0.228
Mof_C 	C 	0.7686	0.5085	0.5316	-0.153
Mof_C 	C 	0.7244	0.4272	0.4969	0.167
Mof_C 	C 	0.8788	0.3571	0.5745	0.162
Mof_C 	C 	0.9295	0.2781	0.591	-0.008
Mof_C 	C 	0.0342	0.2829	0.6549	0.182
Mof_C 	C 	0.0856	0.3599	0.6991	-0.217
Mof_C 	C 	0.0377	0.4367	0.6809	0.097
Mof_C 	C 	0.9293	0.4355	0.6195	-0.152
Mof_C 	C 	0.8862	0.2091	0.4583	-0.256
Mof_C 	C 	0.9526	0.1366	0.4195	0.473
Mof_C 	C 	0.174	0.199	0.7369	-0.256
Mof_C 	C 	0.1593	0.1033	0.7648	0.57
Mof_O 	O 	0.2201	0.9909	0.9786	-0.588
Mof_O 	O 	0.2917	0.9239	0.0885	-0.551
Mof_O 	O 	0.0215	0.7954	0.0865	-0.146
Mof_O 	O 	0.4369	0.5904	0.869	-0.237
Mof_O 	O 	0.2739	0.3513	0.9862	-0.243
Mof_O 	O 	0.3889	0.1998	0.9521	-0.253
Mof_O 	O 	0.4488	0.13	0.1536	-0.384
Mof_O 	O 	0.5096	0.0851	0.0352	-0.71
Mof_O 	O 	0.5722	0.2013	0.8292	-0.306
Mof_O 	O 	0.753	0.0955	0.6809	-0.597
Mof_O 	O 	0.5528	0.042	0.7623	-0.563
Mof_O 	O 	0.2799	0.0091	0.4786	-0.591
Mof_O 	O 	0.2083	0.0761	0.5885	-0.544
Mof_O 	O 	0.4785	0.2046	0.5865	-0.158
Mof_O 	O 	0.0631	0.4096	0.369	-0.236
Mof_O 	O 	0.2261	0.6487	0.4862	-0.243
Mof_O 	O 	0.1111	0.8002	0.4521	-0.247
Mof_O 	O 	0.0512	0.87	0.6536	-0.386
Mof_O 	O 	0.9904	0.9149	0.5352	-0.705
Mof_O 	O 	0.9278	0.7987	0.3292	-0.304
Mof_O 	O 	0.747	0.9045	0.1809	-0.597
Mof_O 	O 	0.9472	0.958	0.2623	-0.557
Mof_O 	O 	0.7799	0.0091	0.0214	-0.588
Mof_O 	O 	0.7083	0.0761	0.9115	-0.551
Mof_O 	O 	0.9785	0.2046	0.9135	-0.146
Mof_O 	O 	0.5631	0.4096	0.131	-0.237
Mof_O 	O 	0.7261	0.6487	0.0138	-0.243
Mof_O 	O 	0.6111	0.8002	0.0479	-0.253
Mof_O 	O 	0.5512	0.87	0.8464	-0.384
Mof_O 	O 	0.4904	0.9149	0.9648	-0.71
Mof_O 	O 	0.4278	0.7987	0.1708	-0.306
Mof_O 	O 	0.247	0.9045	0.3191	-0.597
Mof_O 	O 	0.4472	0.958	0.2377	-0.563
Mof_O 	O 	0.7201	0.9909	0.5214	-0.591
Mof_O 	O 	0.7917	0.9239	0.4115	-0.544
Mof_O 	O 	0.5215	0.7954	0.4135	-0.158
Mof_O 	O 	0.9369	0.5904	0.631	-0.236
Mof_O 	O 	0.7739	0.3513	0.5138	-0.243
Mof_O 	O 	0.8889	0.1998	0.5479	-0.247
Mof_O 	O 	0.9488	0.13	0.3464	-0.386
Mof_O 	O 	0.0096	0.0851	0.4648	-0.705
Mof_O 	O 	0.0722	0.2013	0.6708	-0.304
Mof_O 	O 	0.253	0.0955	0.8191	-0.597
Mof_O 	O 	0.0528	0.042	0.7377	-0.557
_end
