data_functionalizedCrystal
_audit_creation_method	'EQeq! by Chris Wilmer'
_symmetry_space_group_name_H-M	'P1'
_symmetry_Int_Tables_number	1
_symmetry_cell_setting	triclinic
loop_
_symmetry_equiv_pos_as_xyz
  x,y,z
_cell_length_a	9.6921
_cell_length_b	9.6921
_cell_length_c	15.6938
_cell_angle_alpha	92.7017
_cell_angle_beta	92.7017
_cell_angle_gamma	99.0196
loop_
_atom_site_label
_atom_site_type_symbol
_atom_site_fract_x
_atom_site_fract_y
_atom_site_fract_z
_atom_site_charge
Mof_Ce	Ce	0.0114	0.9886	0.75	2.048
Mof_Ce	Ce	0.9886	0.0114	0.25	2.048
Mof_P 	P 	0.35642	0.04528	0.6439	0.427
Mof_P 	P 	0.64866	0.97408	0.65165	0.427
Mof_P 	P 	0.95472	0.64358	0.8561	0.427
Mof_P 	P 	0.02592	0.35134	0.84835	0.428
Mof_P 	P 	0.64358	0.95472	0.3561	0.427
Mof_P 	P 	0.35134	0.02592	0.34835	0.427
Mof_P 	P 	0.04528	0.35642	0.1439	0.427
Mof_P 	P 	0.97408	0.64866	0.15165	0.428
Mof_H 	H 	0.4782	0.16	0.8117	0.123
Mof_H 	H 	0.6349	0.1271	0.8107	0.113
Mof_H 	H 	0.5803	0.2251	0.7416	0.117
Mof_H 	H 	0.508	0.824	0.771	0.142
Mof_H 	H 	0.84	0.5218	0.6883	0.122
Mof_H 	H 	0.8729	0.3651	0.6893	0.112
Mof_H 	H 	0.7749	0.4197	0.7584	0.117
Mof_H 	H 	0.176	0.492	0.729	0.142
Mof_H 	H 	0.5218	0.84	0.1883	0.123
Mof_H 	H 	0.3651	0.8729	0.1893	0.113
Mof_H 	H 	0.4197	0.7749	0.2584	0.117
Mof_H 	H 	0.492	0.176	0.229	0.142
Mof_H 	H 	0.16	0.4782	0.3117	0.122
Mof_H 	H 	0.1271	0.6349	0.3107	0.112
Mof_H 	H 	0.2251	0.5803	0.2416	0.117
Mof_H 	H 	0.824	0.508	0.271	0.142
Mof_Ru	Ru	0.54622	0.12006	0.50207	0.862
Mof_Ru	Ru	0.87994	0.45378	0.99793	0.863
Mof_Ru	Ru	0.45378	0.87994	0.49793	0.862
Mof_Ru	Ru	0.12006	0.54622	0.00207	0.863
Mof_C 	C 	0.504	0.0152	0.715	0.024
Mof_C 	C 	0.5538	0.1432	0.7751	-0.34
Mof_C 	C 	0.9848	0.496	0.785	0.022
Mof_C 	C 	0.8568	0.4462	0.7249	-0.339
Mof_C 	C 	0.496	0.9848	0.285	0.024
Mof_C 	C 	0.4462	0.8568	0.2249	-0.34
Mof_C 	C 	0.0152	0.504	0.215	0.022
Mof_C 	C 	0.1432	0.5538	0.2751	-0.339
Mof_O 	O 	0.41107	0.16807	0.58909	-0.392
Mof_O 	O 	0.31164	0.91088	0.58536	-0.421
Mof_O 	O 	0.24016	0.07722	0.69762	-0.486
Mof_O 	O 	0.69003	0.10125	0.59716	-0.425
Mof_O 	O 	0.59229	0.84389	0.59246	-0.391
Mof_O 	O 	0.76781	0.95005	0.71076	-0.509
Mof_O 	O 	0.44983	0.89857	0.76433	-0.295
Mof_O 	O 	0.83193	0.58893	0.91091	-0.392
Mof_O 	O 	0.08912	0.68836	0.91464	-0.422
Mof_O 	O 	0.92278	0.75984	0.80238	-0.487
Mof_O 	O 	0.89875	0.30997	0.90284	-0.425
Mof_O 	O 	0.15611	0.40771	0.90754	-0.391
Mof_O 	O 	0.04995	0.23219	0.78924	-0.508
Mof_O 	O 	0.10143	0.55017	0.73567	-0.293
Mof_O 	O 	0.58893	0.83193	0.41091	-0.392
Mof_O 	O 	0.68836	0.08912	0.41464	-0.421
Mof_O 	O 	0.75984	0.92278	0.30238	-0.486
Mof_O 	O 	0.30997	0.89875	0.40284	-0.425
Mof_O 	O 	0.40771	0.15611	0.40754	-0.391
Mof_O 	O 	0.23219	0.04995	0.28924	-0.509
Mof_O 	O 	0.55017	0.10143	0.23567	-0.295
Mof_O 	O 	0.16807	0.41107	0.08909	-0.392
Mof_O 	O 	0.91088	0.31164	0.08536	-0.422
Mof_O 	O 	0.07722	0.24016	0.19762	-0.487
Mof_O 	O 	0.10125	0.69003	0.09716	-0.425
Mof_O 	O 	0.84389	0.59229	0.09246	-0.391
Mof_O 	O 	0.95005	0.76781	0.21076	-0.508
Mof_O 	O 	0.89857	0.44983	0.26433	-0.293
_end
