data_functionalizedCrystal
_audit_creation_method	'EQeq! by Chris Wilmer'
_symmetry_space_group_name_H-M	'P1'
_symmetry_Int_Tables_number	1
_symmetry_cell_setting	triclinic
loop_
_symmetry_equiv_pos_as_xyz
  x,y,z
_cell_length_a	17.48
_cell_length_b	17.48
_cell_length_c	22.69
_cell_angle_alpha	90
_cell_angle_beta	90
_cell_angle_gamma	90
loop_
_atom_site_label
_atom_site_type_symbol
_atom_site_fract_x
_atom_site_fract_y
_atom_site_fract_z
_atom_site_charge
Mof_Zn	Zn	0.56833	0.08295	0.79704	1.22
Mof_Zn	Zn	0.43167	0.91705	0.79704	1.22
Mof_Zn	Zn	0.08295	0.43167	0.20296	1.22
Mof_Zn	Zn	0.91705	0.56833	0.20296	1.22
Mof_Zn	Zn	0.93167	0.58295	0.70296	1.22
Mof_Zn	Zn	0.06833	0.41705	0.70296	1.22
Mof_Zn	Zn	0.41705	0.93167	0.29704	1.22
Mof_Zn	Zn	0.58295	0.06833	0.29704	1.22
Mof_H 	H 	0.6399	0.9749	0.505	0.075
Mof_H 	H 	0.5545	0.7791	0.772	0.274
Mof_H 	H 	0.7096	0.6848	0.7346	0.112
Mof_H 	H 	0.4674	0.1272	0.6859	0.005
Mof_H 	H 	0.9086	0.8419	0.7428	0.273
Mof_H 	H 	0.532	0.1686	0.3962	0.013
Mof_H 	H 	0.6693	0.031	0.697	0.012
Mof_H 	H 	0.638	0.9705	0.4046	0.01
Mof_H 	H 	0.5281	0.176	0.4969	0.078
Mof_H 	H 	0.4724	0.1274	0.5849	0.078
Mof_H 	H 	0.7526	0.9422	0.7761	0.094
Mof_H 	H 	0.6807	0.0279	0.5955	0.08
Mof_H 	H 	0.3601	0.0251	0.505	0.075
Mof_H 	H 	0.4455	0.2209	0.772	0.274
Mof_H 	H 	0.2904	0.3152	0.7346	0.112
Mof_H 	H 	0.5326	0.8728	0.6859	0.005
Mof_H 	H 	0.0914	0.1581	0.7428	0.272
Mof_H 	H 	0.468	0.8314	0.3962	0.012
Mof_H 	H 	0.3307	0.969	0.697	0.011
Mof_H 	H 	0.362	0.0295	0.4046	0.009
Mof_H 	H 	0.4719	0.824	0.4969	0.077
Mof_H 	H 	0.5276	0.8726	0.5849	0.077
Mof_H 	H 	0.2474	0.0578	0.7761	0.093
Mof_H 	H 	0.3193	0.9721	0.5955	0.079
Mof_H 	H 	0.9749	0.3601	0.495	0.074
Mof_H 	H 	0.7791	0.4455	0.228	0.273
Mof_H 	H 	0.6848	0.2904	0.2654	0.111
Mof_H 	H 	0.1272	0.5326	0.3141	0.004
Mof_H 	H 	0.8419	0.0914	0.2572	0.272
Mof_H 	H 	0.1686	0.468	0.6038	0.012
Mof_H 	H 	0.031	0.3307	0.303	0.011
Mof_H 	H 	0.9705	0.362	0.5954	0.009
Mof_H 	H 	0.176	0.4719	0.5031	0.077
Mof_H 	H 	0.1274	0.5276	0.4151	0.077
Mof_H 	H 	0.9422	0.2474	0.2239	0.093
Mof_H 	H 	0.0279	0.3193	0.4045	0.079
Mof_H 	H 	0.0251	0.6399	0.495	0.074
Mof_H 	H 	0.2209	0.5545	0.228	0.273
Mof_H 	H 	0.3152	0.7096	0.2654	0.111
Mof_H 	H 	0.8728	0.4674	0.3141	0.004
Mof_H 	H 	0.1581	0.9086	0.2572	0.272
Mof_H 	H 	0.8314	0.532	0.6038	0.012
Mof_H 	H 	0.969	0.6693	0.303	0.011
Mof_H 	H 	0.0295	0.638	0.5954	0.009
Mof_H 	H 	0.824	0.5281	0.5031	0.077
Mof_H 	H 	0.8726	0.4724	0.4151	0.077
Mof_H 	H 	0.0578	0.7526	0.2239	0.093
Mof_H 	H 	0.9721	0.6807	0.4045	0.079
Mof_H 	H 	0.8601	0.4749	0.995	0.074
Mof_H 	H 	0.9455	0.2791	0.728	0.273
Mof_H 	H 	0.7904	0.1848	0.7654	0.111
Mof_H 	H 	0.0326	0.6272	0.8141	0.004
Mof_H 	H 	0.5914	0.3419	0.7572	0.272
Mof_H 	H 	0.968	0.6686	0.1038	0.012
Mof_H 	H 	0.8307	0.531	0.803	0.011
Mof_H 	H 	0.862	0.4705	0.0954	0.009
Mof_H 	H 	0.9719	0.676	0.0031	0.077
Mof_H 	H 	0.0276	0.6274	0.9151	0.077
Mof_H 	H 	0.7474	0.4422	0.7239	0.093
Mof_H 	H 	0.8193	0.5279	0.9045	0.079
Mof_H 	H 	0.1399	0.5251	0.995	0.074
Mof_H 	H 	0.0545	0.7209	0.728	0.273
Mof_H 	H 	0.2096	0.8152	0.7654	0.111
Mof_H 	H 	0.9674	0.3728	0.8141	0.004
Mof_H 	H 	0.4086	0.6581	0.7572	0.272
Mof_H 	H 	0.032	0.3314	0.1038	0.012
Mof_H 	H 	0.1693	0.469	0.803	0.011
Mof_H 	H 	0.138	0.5295	0.0954	0.009
Mof_H 	H 	0.0281	0.324	0.0031	0.077
Mof_H 	H 	0.9724	0.3726	0.9151	0.077
Mof_H 	H 	0.2526	0.5578	0.7239	0.093
Mof_H 	H 	0.1807	0.4721	0.9045	0.079
Mof_H 	H 	0.5251	0.8601	0.005	0.074
Mof_H 	H 	0.7209	0.9455	0.272	0.273
Mof_H 	H 	0.8152	0.7904	0.2346	0.111
Mof_H 	H 	0.3728	0.0326	0.1859	0.004
Mof_H 	H 	0.6581	0.5914	0.2428	0.272
Mof_H 	H 	0.3314	0.968	0.8962	0.012
Mof_H 	H 	0.469	0.8307	0.197	0.011
Mof_H 	H 	0.5295	0.862	0.9046	0.009
Mof_H 	H 	0.324	0.9719	0.9969	0.077
Mof_H 	H 	0.3726	0.0276	0.0849	0.077
Mof_H 	H 	0.5578	0.7474	0.2761	0.093
Mof_H 	H 	0.4721	0.8193	0.0955	0.079
Mof_H 	H 	0.4749	0.1399	0.005	0.074
Mof_H 	H 	0.2791	0.0545	0.272	0.273
Mof_H 	H 	0.1848	0.2096	0.2346	0.111
Mof_H 	H 	0.6272	0.9674	0.1859	0.004
Mof_H 	H 	0.3419	0.4086	0.2428	0.272
Mof_H 	H 	0.6686	0.032	0.8962	0.012
Mof_H 	H 	0.531	0.1693	0.197	0.011
Mof_H 	H 	0.4705	0.138	0.9046	0.009
Mof_H 	H 	0.676	0.0281	0.9969	0.077
Mof_H 	H 	0.6274	0.9724	0.0849	0.077
Mof_H 	H 	0.4422	0.2526	0.2761	0.093
Mof_H 	H 	0.5279	0.1807	0.0955	0.079
Mof_C 	C 	0.5816	0.0758	0.5136	0.053
Mof_C 	C 	0.5775	0.0773	0.5786	0.057
Mof_C 	C 	0.6069	0.9125	0.7903	0.438
Mof_C 	C 	0.6159	0.015	0.4835	-0.12
Mof_C 	C 	0.67	0.8596	0.7732	-0.17
Mof_C 	C 	0.7181	0.7372	0.7436	-0.111
Mof_C 	C 	0.6568	0.782	0.7608	0.255
Mof_C 	C 	0.7918	0.7667	0.7389	-0.113
Mof_C 	C 	0.5113	0.1065	0.6671	0.081
Mof_C 	C 	0.5529	0.1278	0.4187	0.071
Mof_C 	C 	0.6287	0.0506	0.6736	0.073
Mof_C 	C 	0.6149	0.013	0.4238	0.074
Mof_C 	C 	0.551	0.1326	0.4788	-0.119
Mof_C 	C 	0.8042	0.8445	0.7514	0.213
Mof_C 	C 	0.5138	0.107	0.607	-0.126
Mof_C 	C 	0.744	0.8896	0.768	-0.074
Mof_C 	C 	0.636	0.0487	0.6132	-0.122
Mof_C 	C 	0.8549	0.7153	0.7213	0.341
Mof_C 	C 	0.4184	0.9242	0.5136	0.053
Mof_C 	C 	0.4225	0.9227	0.5786	0.057
Mof_C 	C 	0.3931	0.0875	0.7903	0.438
Mof_C 	C 	0.3841	0.985	0.4835	-0.12
Mof_C 	C 	0.33	0.1404	0.7732	-0.17
Mof_C 	C 	0.2819	0.2628	0.7436	-0.111
Mof_C 	C 	0.3432	0.218	0.7608	0.255
Mof_C 	C 	0.2082	0.2333	0.7389	-0.113
Mof_C 	C 	0.4887	0.8935	0.6671	0.081
Mof_C 	C 	0.4471	0.8722	0.4187	0.071
Mof_C 	C 	0.3713	0.9494	0.6736	0.073
Mof_C 	C 	0.3851	0.987	0.4238	0.074
Mof_C 	C 	0.449	0.8674	0.4788	-0.119
Mof_C 	C 	0.1958	0.1555	0.7514	0.213
Mof_C 	C 	0.4862	0.893	0.607	-0.126
Mof_C 	C 	0.256	0.1104	0.768	-0.074
Mof_C 	C 	0.364	0.9513	0.6132	-0.122
Mof_C 	C 	0.1451	0.2847	0.7213	0.341
Mof_C 	C 	0.0758	0.4184	0.4864	0.053
Mof_C 	C 	0.0773	0.4225	0.4214	0.057
Mof_C 	C 	0.9125	0.3931	0.2097	0.438
Mof_C 	C 	0.015	0.3841	0.5165	-0.12
Mof_C 	C 	0.8596	0.33	0.2268	-0.17
Mof_C 	C 	0.7372	0.2819	0.2564	-0.111
Mof_C 	C 	0.782	0.3432	0.2392	0.255
Mof_C 	C 	0.7667	0.2082	0.2611	-0.113
Mof_C 	C 	0.1065	0.4887	0.3329	0.081
Mof_C 	C 	0.1278	0.4471	0.5813	0.071
Mof_C 	C 	0.0506	0.3713	0.3264	0.073
Mof_C 	C 	0.013	0.3851	0.5762	0.074
Mof_C 	C 	0.1326	0.449	0.5212	-0.119
Mof_C 	C 	0.8445	0.1958	0.2486	0.213
Mof_C 	C 	0.107	0.4862	0.393	-0.126
Mof_C 	C 	0.8896	0.256	0.232	-0.074
Mof_C 	C 	0.0487	0.364	0.3868	-0.122
Mof_C 	C 	0.7153	0.1451	0.2787	0.341
Mof_C 	C 	0.9242	0.5816	0.4864	0.053
Mof_C 	C 	0.9227	0.5775	0.4214	0.057
Mof_C 	C 	0.0875	0.6069	0.2097	0.438
Mof_C 	C 	0.985	0.6159	0.5165	-0.12
Mof_C 	C 	0.1404	0.67	0.2268	-0.17
Mof_C 	C 	0.2628	0.7181	0.2564	-0.111
Mof_C 	C 	0.218	0.6568	0.2392	0.255
Mof_C 	C 	0.2333	0.7918	0.2611	-0.113
Mof_C 	C 	0.8935	0.5113	0.3329	0.081
Mof_C 	C 	0.8722	0.5529	0.5813	0.071
Mof_C 	C 	0.9494	0.6287	0.3264	0.073
Mof_C 	C 	0.987	0.6149	0.5762	0.074
Mof_C 	C 	0.8674	0.551	0.5212	-0.119
Mof_C 	C 	0.1555	0.8042	0.2486	0.213
Mof_C 	C 	0.893	0.5138	0.393	-0.126
Mof_C 	C 	0.1104	0.744	0.232	-0.074
Mof_C 	C 	0.9513	0.636	0.3868	-0.122
Mof_C 	C 	0.2847	0.8549	0.2787	0.341
Mof_C 	C 	0.9184	0.5758	0.9864	0.053
Mof_C 	C 	0.9225	0.5773	0.9214	0.057
Mof_C 	C 	0.8931	0.4125	0.7097	0.438
Mof_C 	C 	0.8841	0.515	0.0165	-0.12
Mof_C 	C 	0.83	0.3596	0.7268	-0.17
Mof_C 	C 	0.7819	0.2372	0.7564	-0.111
Mof_C 	C 	0.8432	0.282	0.7392	0.255
Mof_C 	C 	0.7082	0.2667	0.7611	-0.113
Mof_C 	C 	0.9887	0.6065	0.8329	0.081
Mof_C 	C 	0.9471	0.6278	0.0813	0.071
Mof_C 	C 	0.8713	0.5506	0.8264	0.073
Mof_C 	C 	0.8851	0.513	0.0762	0.074
Mof_C 	C 	0.949	0.6326	0.0212	-0.119
Mof_C 	C 	0.6958	0.3445	0.7486	0.213
Mof_C 	C 	0.9862	0.607	0.893	-0.126
Mof_C 	C 	0.756	0.3896	0.732	-0.074
Mof_C 	C 	0.864	0.5487	0.8868	-0.122
Mof_C 	C 	0.6451	0.2153	0.7787	0.341
Mof_C 	C 	0.0816	0.4242	0.9864	0.053
Mof_C 	C 	0.0775	0.4227	0.9214	0.057
Mof_C 	C 	0.1069	0.5875	0.7097	0.438
Mof_C 	C 	0.1159	0.485	0.0165	-0.12
Mof_C 	C 	0.17	0.6404	0.7268	-0.17
Mof_C 	C 	0.2181	0.7628	0.7564	-0.111
Mof_C 	C 	0.1568	0.718	0.7392	0.255
Mof_C 	C 	0.2918	0.7333	0.7611	-0.113
Mof_C 	C 	0.0113	0.3935	0.8329	0.081
Mof_C 	C 	0.0529	0.3722	0.0813	0.071
Mof_C 	C 	0.1287	0.4494	0.8264	0.073
Mof_C 	C 	0.1149	0.487	0.0762	0.074
Mof_C 	C 	0.051	0.3674	0.0212	-0.119
Mof_C 	C 	0.3042	0.6555	0.7486	0.213
Mof_C 	C 	0.0138	0.393	0.893	-0.126
Mof_C 	C 	0.244	0.6104	0.732	-0.074
Mof_C 	C 	0.136	0.4513	0.8868	-0.122
Mof_C 	C 	0.3549	0.7847	0.7787	0.341
Mof_C 	C 	0.4242	0.9184	0.0136	0.053
Mof_C 	C 	0.4227	0.9225	0.0786	0.057
Mof_C 	C 	0.5875	0.8931	0.2903	0.438
Mof_C 	C 	0.485	0.8841	0.9835	-0.12
Mof_C 	C 	0.6404	0.83	0.2732	-0.17
Mof_C 	C 	0.7628	0.7819	0.2436	-0.111
Mof_C 	C 	0.718	0.8432	0.2608	0.255
Mof_C 	C 	0.7333	0.7082	0.2389	-0.113
Mof_C 	C 	0.3935	0.9887	0.1671	0.081
Mof_C 	C 	0.3722	0.9471	0.9187	0.071
Mof_C 	C 	0.4494	0.8713	0.1736	0.073
Mof_C 	C 	0.487	0.8851	0.9238	0.074
Mof_C 	C 	0.3674	0.949	0.9788	-0.119
Mof_C 	C 	0.6555	0.6958	0.2514	0.213
Mof_C 	C 	0.393	0.9862	0.107	-0.126
Mof_C 	C 	0.6104	0.756	0.268	-0.074
Mof_C 	C 	0.4513	0.864	0.1132	-0.122
Mof_C 	C 	0.7847	0.6451	0.2213	0.341
Mof_C 	C 	0.5758	0.0816	0.0136	0.053
Mof_C 	C 	0.5773	0.0775	0.0786	0.057
Mof_C 	C 	0.4125	0.1069	0.2903	0.438
Mof_C 	C 	0.515	0.1159	0.9835	-0.12
Mof_C 	C 	0.3596	0.17	0.2732	-0.17
Mof_C 	C 	0.2372	0.2181	0.2436	-0.111
Mof_C 	C 	0.282	0.1568	0.2608	0.255
Mof_C 	C 	0.2667	0.2918	0.2389	-0.113
Mof_C 	C 	0.6065	0.0113	0.1671	0.081
Mof_C 	C 	0.6278	0.0529	0.9187	0.071
Mof_C 	C 	0.5506	0.1287	0.1736	0.073
Mof_C 	C 	0.513	0.1149	0.9238	0.074
Mof_C 	C 	0.6326	0.051	0.9788	-0.119
Mof_C 	C 	0.3445	0.3042	0.2514	0.213
Mof_C 	C 	0.607	0.0138	0.107	-0.126
Mof_C 	C 	0.3896	0.244	0.268	-0.074
Mof_C 	C 	0.5487	0.136	0.1132	-0.122
Mof_C 	C 	0.2153	0.3549	0.2213	0.341
Mof_N 	N 	0.567	0.0786	0.7009	-0.233
Mof_N 	N 	0.5831	0.0678	0.3903	-0.24
Mof_N 	N 	0.433	0.9214	0.7009	-0.233
Mof_N 	N 	0.4169	0.9322	0.3903	-0.24
Mof_N 	N 	0.0786	0.433	0.2991	-0.233
Mof_N 	N 	0.0678	0.4169	0.6097	-0.24
Mof_N 	N 	0.9214	0.567	0.2991	-0.233
Mof_N 	N 	0.9322	0.5831	0.6097	-0.24
Mof_N 	N 	0.933	0.5786	0.7991	-0.233
Mof_N 	N 	0.9169	0.5678	0.1097	-0.24
Mof_N 	N 	0.067	0.4214	0.7991	-0.233
Mof_N 	N 	0.0831	0.4322	0.1097	-0.24
Mof_N 	N 	0.4214	0.933	0.2009	-0.233
Mof_N 	N 	0.4322	0.9169	0.8903	-0.24
Mof_N 	N 	0.5786	0.067	0.2009	-0.233
Mof_N 	N 	0.5678	0.0831	0.8903	-0.24
Mof_O 	O 	0.6221	0.9814	0.7973	-0.492
Mof_O 	O 	0.5884	0.7469	0.7637	-0.407
Mof_O 	O 	0.876	0.8764	0.7492	-0.387
Mof_O 	O 	0.5411	0.883	0.7949	-0.508
Mof_O 	O 	0.8385	0.6479	0.7082	-0.429
Mof_O 	O 	0.9227	0.7404	0.7211	-0.319
Mof_O 	O 	0.3779	0.0186	0.7973	-0.492
Mof_O 	O 	0.4116	0.2531	0.7637	-0.407
Mof_O 	O 	0.124	0.1236	0.7492	-0.387
Mof_O 	O 	0.4589	0.117	0.7949	-0.508
Mof_O 	O 	0.1615	0.3521	0.7082	-0.429
Mof_O 	O 	0.0773	0.2596	0.7211	-0.319
Mof_O 	O 	0.9814	0.3779	0.2027	-0.492
Mof_O 	O 	0.7469	0.4116	0.2363	-0.407
Mof_O 	O 	0.8764	0.124	0.2508	-0.387
Mof_O 	O 	0.883	0.4589	0.2051	-0.508
Mof_O 	O 	0.6479	0.1615	0.2918	-0.429
Mof_O 	O 	0.7404	0.0773	0.2789	-0.319
Mof_O 	O 	0.0186	0.6221	0.2027	-0.492
Mof_O 	O 	0.2531	0.5884	0.2363	-0.407
Mof_O 	O 	0.1236	0.876	0.2508	-0.387
Mof_O 	O 	0.117	0.5411	0.2051	-0.508
Mof_O 	O 	0.3521	0.8385	0.2918	-0.429
Mof_O 	O 	0.2596	0.9227	0.2789	-0.319
Mof_O 	O 	0.8779	0.4814	0.7027	-0.492
Mof_O 	O 	0.9116	0.2469	0.7363	-0.407
Mof_O 	O 	0.624	0.3764	0.7508	-0.387
Mof_O 	O 	0.9589	0.383	0.7051	-0.508
Mof_O 	O 	0.6615	0.1479	0.7918	-0.429
Mof_O 	O 	0.5773	0.2404	0.7789	-0.319
Mof_O 	O 	0.1221	0.5186	0.7027	-0.492
Mof_O 	O 	0.0884	0.7531	0.7363	-0.407
Mof_O 	O 	0.376	0.6236	0.7508	-0.387
Mof_O 	O 	0.0411	0.617	0.7051	-0.508
Mof_O 	O 	0.3385	0.8521	0.7918	-0.429
Mof_O 	O 	0.4227	0.7596	0.7789	-0.319
Mof_O 	O 	0.5186	0.8779	0.2973	-0.492
Mof_O 	O 	0.7531	0.9116	0.2637	-0.407
Mof_O 	O 	0.6236	0.624	0.2492	-0.387
Mof_O 	O 	0.617	0.9589	0.2949	-0.508
Mof_O 	O 	0.8521	0.6615	0.2082	-0.429
Mof_O 	O 	0.7596	0.5773	0.2211	-0.319
Mof_O 	O 	0.4814	0.1221	0.2973	-0.492
Mof_O 	O 	0.2469	0.0884	0.2637	-0.407
Mof_O 	O 	0.3764	0.376	0.2492	-0.387
Mof_O 	O 	0.383	0.0411	0.2949	-0.508
Mof_O 	O 	0.1479	0.3385	0.2082	-0.429
Mof_O 	O 	0.2404	0.4227	0.2211	-0.319
_end
