# CIF file generated by openbabel 3.1.0, see https://openbabel.org
data_I
_chemical_name_common 'image0'
_cell_length_a 14.061
_cell_length_b 27.192
_cell_length_c 7.59
_cell_angle_alpha 90
_cell_angle_beta 90
_cell_angle_gamma 90
_space_group_name_H-M_alt 'P 1'
_space_group_name_Hall 'P 1'
loop_
    _symmetry_equiv_pos_as_xyz
    x,y,z
loop_
    _atom_site_label
    _atom_site_type_symbol
    _atom_site_fract_x
    _atom_site_fract_y
    _atom_site_fract_z
    _atom_site_occupancy
    Cd1      Cd       0.21473    0.11592    0.12140    1.000
    N1       N        0.24000    0.17200    0.89300    1.000
    N2       N        0.24700    0.17250    0.32800    1.000
    N3       N        0.16000    0.05670    0.33800    1.000
    N4       N        0.36100    0.07700    0.11700    1.000
    N5       N        0.17200    0.05700    0.89900    1.000
    N6       N        0.05100    0.12720    0.07500    1.000
    C1       C        0.24300    0.20180    0.78600    1.000
    C2       C        0.25200    0.20130    0.43500    1.000
    C3       C        0.10100    0.03560    0.40300    1.000
    C4       C        0.41400    0.04860    0.07200    1.000
    C5       C        0.07300    0.05800    0.87800    1.000
    C6       C        0.01600    0.09200    0.93900    1.000
    C7       C        0.91000    0.09260    0.90900    1.000
    Cd2      Cd       0.28527    0.88408    0.62140    1.000
    N7       N        0.26000    0.82800    0.39300    1.000
    N8       N        0.25300    0.82750    0.82800    1.000
    N9       N        0.34000    0.94330    0.83800    1.000
    N10      N        0.13900    0.92300    0.61700    1.000
    N11      N        0.32800    0.94300    0.39900    1.000
    N12      N        0.44900    0.87280    0.57500    1.000
    C8       C        0.25700    0.79820    0.28600    1.000
    C9       C        0.24800    0.79870    0.93500    1.000
    C10      C        0.39900    0.96440    0.90300    1.000
    C11      C        0.08600    0.95140    0.57200    1.000
    C12      C        0.42700    0.94200    0.37800    1.000
    C13      C        0.48400    0.90800    0.43900    1.000
    C14      C        0.59000    0.90740    0.40900    1.000
    Cd3      Cd       0.78527    0.61592    0.87860    1.000
    N13      N        0.76000    0.67200    0.10700    1.000
    N14      N        0.75300    0.67250    0.67200    1.000
    N15      N        0.84000    0.55670    0.66200    1.000
    N16      N        0.63900    0.57700    0.88300    1.000
    N17      N        0.82800    0.55700    0.10100    1.000
    N18      N        0.94900    0.62720    0.92500    1.000
    C15      C        0.75700    0.70180    0.21400    1.000
    C16      C        0.74800    0.70130    0.56500    1.000
    C17      C        0.89900    0.53560    0.59700    1.000
    C18      C        0.58600    0.54860    0.92800    1.000
    C19      C        0.92700    0.55800    0.12200    1.000
    C20      C        0.98400    0.59200    0.06100    1.000
    C21      C        0.09000    0.59260    0.09100    1.000
    Cd4      Cd       0.71473    0.38408    0.37860    1.000
    N19      N        0.74000    0.32800    0.60700    1.000
    N20      N        0.74700    0.32750    0.17200    1.000
    N21      N        0.66000    0.44330    0.16200    1.000
    N22      N        0.86100    0.42300    0.38300    1.000
    N23      N        0.67200    0.44300    0.60100    1.000
    N24      N        0.55100    0.37280    0.42500    1.000
    C22      C        0.74300    0.29820    0.71400    1.000
    C23      C        0.75200    0.29870    0.06500    1.000
    C24      C        0.60100    0.46440    0.09700    1.000
    C25      C        0.91400    0.45140    0.42800    1.000
    C26      C        0.57300    0.44200    0.62200    1.000
    C27      C        0.51600    0.40800    0.56100    1.000
    C28      C        0.41000    0.40740    0.59100    1.000
    Cd5      Cd       0.78527    0.88408    0.87860    1.000
    N25      N        0.76000    0.82800    0.10700    1.000
    N26      N        0.75300    0.82750    0.67200    1.000
    N27      N        0.84000    0.94330    0.66200    1.000
    N28      N        0.63900    0.92300    0.88300    1.000
    N29      N        0.82800    0.94300    0.10100    1.000
    N30      N        0.94900    0.87280    0.92500    1.000
    C29      C        0.75700    0.79820    0.21400    1.000
    C30      C        0.74800    0.79870    0.56500    1.000
    C31      C        0.89900    0.96440    0.59700    1.000
    C32      C        0.58600    0.95140    0.92800    1.000
    C33      C        0.92700    0.94200    0.12200    1.000
    C34      C        0.98400    0.90800    0.06100    1.000
    C35      C        0.09000    0.90740    0.09100    1.000
    Cd6      Cd       0.71473    0.11592    0.37860    1.000
    N31      N        0.74000    0.17200    0.60700    1.000
    N32      N        0.74700    0.17250    0.17200    1.000
    N33      N        0.66000    0.05670    0.16200    1.000
    N34      N        0.86100    0.07700    0.38300    1.000
    N35      N        0.67200    0.05700    0.60100    1.000
    N36      N        0.55100    0.12720    0.42500    1.000
    C36      C        0.74300    0.20180    0.71400    1.000
    C37      C        0.75200    0.20130    0.06500    1.000
    C38      C        0.60100    0.03560    0.09700    1.000
    C39      C        0.91400    0.04860    0.42800    1.000
    C40      C        0.57300    0.05800    0.62200    1.000
    C41      C        0.51600    0.09200    0.56100    1.000
    C42      C        0.41000    0.09260    0.59100    1.000
    Cd7      Cd       0.21473    0.38408    0.12140    1.000
    N37      N        0.24000    0.32800    0.89300    1.000
    N38      N        0.24700    0.32750    0.32800    1.000
    N39      N        0.16000    0.44330    0.33800    1.000
    N40      N        0.36100    0.42300    0.11700    1.000
    N41      N        0.17200    0.44300    0.89900    1.000
    N42      N        0.05100    0.37280    0.07500    1.000
    C43      C        0.24300    0.29820    0.78600    1.000
    C44      C        0.25200    0.29870    0.43500    1.000
    C45      C        0.10100    0.46440    0.40300    1.000
    C46      C        0.41400    0.45140    0.07200    1.000
    C47      C        0.07300    0.44200    0.87800    1.000
    C48      C        0.01600    0.40800    0.93900    1.000
    C49      C        0.91000    0.40740    0.90900    1.000
    Cd8      Cd       0.28527    0.61592    0.62140    1.000
    N43      N        0.26000    0.67200    0.39300    1.000
    N44      N        0.25300    0.67250    0.82800    1.000
    N45      N        0.34000    0.55670    0.83800    1.000
    N46      N        0.13900    0.57700    0.61700    1.000
    N47      N        0.32800    0.55700    0.39900    1.000
    N48      N        0.44900    0.62720    0.57500    1.000
    C50      C        0.25700    0.70180    0.28600    1.000
    C51      C        0.24800    0.70130    0.93500    1.000
    C52      C        0.39900    0.53560    0.90300    1.000
    C53      C        0.08600    0.54860    0.57200    1.000
    C54      C        0.42700    0.55800    0.37800    1.000
    C55      C        0.48400    0.59200    0.43900    1.000
    C56      C        0.59000    0.59260    0.40900    1.000
    Ni1      Ni       0.25010    0.25000    0.61040    1.000
    C57      C        0.13000    0.25000    0.56000    1.000
    Ni2      Ni       0.24990    0.75000    0.11040    1.000
    C58      C        0.37000    0.75000    0.06000    1.000
    Ni3      Ni       0.74990    0.75000    0.38960    1.000
    C59      C        0.87000    0.75000    0.44000    1.000
    Ni4      Ni       0.75010    0.25000    0.88960    1.000
    C60      C        0.63000    0.25000    0.94000    1.000
    Ni5      Ni       0.00000    0.00000    0.50000    1.000
    Ni6      Ni       0.50000    0.00000    0.00000    1.000
    Ni7      Ni       0.00000    0.50000    0.50000    1.000
    Ni8      Ni       0.50000    0.50000    0.00000    1.000
