# CIF file generated by openbabel 3.1.0, see https://openbabel.org
data_I
_chemical_name_common 'image0'
_cell_length_a 14.291
_cell_length_b 17.345
_cell_length_c 19.371
_cell_angle_alpha 63.737
_cell_angle_beta 83.571
_cell_angle_gamma 82.359
_space_group_name_H-M_alt 'P 1'
_space_group_name_Hall 'P 1'
loop_
    _symmetry_equiv_pos_as_xyz
    x,y,z
loop_
    _atom_site_label
    _atom_site_type_symbol
    _atom_site_fract_x
    _atom_site_fract_y
    _atom_site_fract_z
    _atom_site_occupancy
    La1      La       0.17664    0.54013    0.77055    1.000
    La2      La       0.07152    0.51684    0.57933    1.000
    Ni1      Ni       0.52027    0.01140    0.76096    1.000
    O1       O        0.01390    0.37290    0.62710    1.000
    O2       O        0.90110    0.53210    0.52530    1.000
    O3       O        0.93380    0.35190    0.54380    1.000
    O4       O        0.13730    0.43180    0.70980    1.000
    O5       O        0.23820    0.38010    0.79890    1.000
    O6       O        0.65940    0.47350    0.17830    1.000
    O7       O        0.76930    0.54210    0.08900    1.000
    O8       O        0.07720    0.61100    0.64450    1.000
    O9       O        0.96750    0.73070    0.60870    1.000
    O10      O        0.90320    0.53370    0.63630    1.000
    O11      O        0.75440    0.51600    0.60130    1.000
    O12      O        0.20840    0.69610    0.71840    1.000
    O13      O        0.14700    0.64260    0.83800    1.000
    O14      O        0.01550    0.65250    0.72740    1.000
    O15      O        0.22070    0.29290    0.73380    1.000
    N1       N        0.02120    0.66330    0.65260    1.000
    N2       N        0.86050    0.52630    0.58870    1.000
    N3       N        0.19580    0.37340    0.74800    1.000
    O16      O        0.24450    0.52890    0.56210    1.000
    N4       N        0.64700    0.94730    0.80610    1.000
    C1       C        0.69230    0.99280    0.82960    1.000
    N5       N        0.47910    0.90360    0.75180    1.000
    N6       N        0.78580    0.96660    0.83550    1.000
    N7       N        0.55010    0.09200    0.81330    1.000
    N8       N        0.39280    0.08170    0.72160    1.000
    N9       N        0.59920    0.10180    0.67180    1.000
    N10      N        0.23550    0.08230    0.73700    1.000
    N11      N        0.64770    0.23390    0.62570    1.000
    N12      N        0.43090    0.77310    0.81800    1.000
    N13      N        0.43300    0.95310    0.86590    1.000
    C2       C        0.47180    0.86970    0.69910    1.000
    O17      O        0.28680    0.55570    0.65630    1.000
    C3       C        0.88200    0.09010    0.78950    1.000
    C4       C        0.90250    0.18430    0.65580    1.000
    H1       H        0.89740    0.19570    0.60470    1.000
    C5       C        0.68560    0.20010    0.57330    1.000
    C6       C        0.32070    0.04870    0.76870    1.000
    C7       C        0.13270    0.80540    0.84070    1.000
    H2       H        0.11370    0.75910    0.88570    1.000
    C8       C        0.61160    0.56480    0.04950    1.000
    C9       C        0.35300    0.14030    0.65010    1.000
    C10      C        0.39400    0.47150    0.61100    1.000
    C11      C        0.59700    0.17360    0.68070    1.000
    C12      C        0.71640    0.88790    0.79540    1.000
    C13      C        0.45250    0.84540    0.82040    1.000
    C14      C        0.41470    0.42910    0.56430    1.000
    H3       H        0.37110    0.43450    0.52980    1.000
    C15      C        0.25550    0.14130    0.65990    1.000
    C16      C        0.50000    0.37860    0.56830    1.000
    H4       H        0.51230    0.34900    0.53780    1.000
    C17      C        0.14960    0.95500    0.77290    1.000
    C18      C        0.16670    0.79210    0.77680    1.000
    C19      C        0.66030    0.31860    0.62140    1.000
    H5       H        0.70060    0.34930    0.57610    1.000
    H6       H        0.69160    0.31050    0.66640    1.000
    C20      C        0.56640    0.37250    0.61750    1.000
    C21      C        0.80320    0.89940    0.81520    1.000
    C22      C        0.45120    0.85960    0.88960    1.000
    H7       H        0.51150    0.83810    0.91310    1.000
    H8       H        0.40190    0.82940    0.92690    1.000
    C23      C        0.14600    0.04550    0.77020    1.000
    H9       H        0.09480    0.08270    0.73940    1.000
    H10      H        0.13410    0.04140    0.82200    1.000
    C24      C        0.94500    0.22580    0.74800    1.000
    H11      H        0.97090    0.26460    0.75980    1.000
    C25      C        0.47610    0.64830    0.94050    1.000
    C26      C        0.54590    0.18060    0.74950    1.000
    H12      H        0.57590    0.21860    0.76310    1.000
    H13      H        0.48070    0.20360    0.73900    1.000
    C27      C        0.76980    0.18140    0.47090    1.000
    H14      H        0.80690    0.20220    0.42500    1.000
    C28      C        0.46140    0.98400    0.91910    1.000
    H15      H        0.51960    0.95140    0.94180    1.000
    H16      H        0.41280    0.97500    0.96040    1.000
    C29      C        0.44390    0.78680    0.74020    1.000
    C30      C        0.87690    0.10840    0.71340    1.000
    H17      H        0.85550    0.06800    0.70090    1.000
    C31      C        0.45980    0.46270    0.66200    1.000
    H18      H        0.44680    0.49010    0.69430    1.000
    C32      C        0.12640    0.88590    0.83860    1.000
    H19      H        0.10590    0.89300    0.88290    1.000
    C33      C        0.85550    0.00580    0.85560    1.000
    H20      H        0.91190    0.96580    0.87060    1.000
    H21      H        0.83050    0.01650    0.89950    1.000
    C34      C        0.93630    0.24520    0.67290    1.000
    C35      C        0.30140    0.52230    0.61070    1.000
    C36      C        0.64710    0.06560    0.84400    1.000
    H22      H        0.68540    0.11390    0.81920    1.000
    H23      H        0.64220    0.04920    0.89900    1.000
    C37      C        0.54610    0.41260    0.66480    1.000
    H24      H        0.58990    0.40670    0.69930    1.000
    C38      C        0.57020    0.65110    0.91860    1.000
    H25      H        0.58870    0.68080    0.86670    1.000
    C39      C        0.68490    0.52510    0.10880    1.000
    C40      C        0.91680    0.15090    0.80720    1.000
    H26      H        0.92070    0.14050    0.85820    1.000
    C41      C        0.39730    0.18930    0.58090    1.000
    H27      H        0.46280    0.18840    0.57370    1.000
    C42      C        0.19820    0.18800    0.60100    1.000
    H28      H        0.13310    0.18560    0.60680    1.000
    C43      C        0.71120    0.82380    0.77060    1.000
    H29      H        0.65400    0.81400    0.75870    1.000
    C44      C        0.47580    0.07790    0.87730    1.000
    H30      H        0.41690    0.11080    0.85650    1.000
    H31      H        0.49500    0.09760    0.91280    1.000
    C45      C        0.74360    0.23300    0.50550    1.000
    H32      H        0.76290    0.28830    0.48550    1.000
    C46      C        0.74330    0.09610    0.50160    1.000
    H33      H        0.76380    0.06220    0.47570    1.000
    C47      C        0.68680    0.06220    0.57020    1.000
    H34      H        0.67040    0.00580    0.59170    1.000
    C48      C        0.48990    0.90340    0.62140    1.000
    H35      H        0.50930    0.95860    0.59330    1.000
    C49      C        0.43170    0.73540    0.70420    1.000
    H36      H        0.41370    0.67960    0.73160    1.000
    C50      C        0.40070    0.69390    0.88330    1.000
    H37      H        0.38450    0.65490    0.86380    1.000
    H38      H        0.34420    0.70860    0.90950    1.000
    C51      C        0.18620    0.94200    0.70740    1.000
    H39      H        0.20400    0.98830    0.66190    1.000
    C52      C        0.32980    0.98300    0.84840    1.000
    H40      H        0.29680    0.93400    0.85680    1.000
    H41      H        0.30060    0.00670    0.88340    1.000
    C53      C        0.44880    0.60310    0.01750    1.000
    H42      H        0.38490    0.60160    0.03320    1.000
    C54      C        0.79310    0.77630    0.76470    1.000
    H43      H        0.79170    0.73440    0.74740    1.000
    C55      C        0.51630    0.55980    0.07190    1.000
    H44      H        0.49740    0.52760    0.12330    1.000
    C56      C        0.88640    0.85080    0.80790    1.000
    H45      H        0.94460    0.85990    0.81890    1.000
    C57      C        0.87790    0.78910    0.78380    1.000
    H46      H        0.93170    0.75420    0.78020    1.000
    C58      C        0.33770    0.24100    0.52200    1.000
    H47      H        0.36420    0.27760    0.47440    1.000
    C59      C        0.44830    0.77290    0.62440    1.000
    H48      H        0.43830    0.74230    0.59720    1.000
    C60      C        0.47790    0.85090    0.58610    1.000
    H49      H        0.49130    0.87170    0.53320    1.000
    C61      C        0.24320    0.23960    0.53170    1.000
    H50      H        0.20660    0.27470    0.49020    1.000
    C62      C        0.96380    0.33020    0.60810    1.000
    C63      C        0.17380    0.70400    0.77920    1.000
    C64      C        0.19490    0.86120    0.71190    1.000
    H51      H        0.22090    0.85250    0.66940    1.000
    C65      C        0.63830    0.61110    0.97170    1.000
    H52      H        0.70210    0.61500    0.95560    1.000
    C66      C        0.65690    0.11700    0.60390    1.000
    La3      La       0.82336    0.45987    0.22945    1.000
    La4      La       0.92848    0.48316    0.42067    1.000
    Ni2      Ni       0.47973    0.98860    0.23904    1.000
    O18      O        0.98610    0.62710    0.37290    1.000
    O19      O        0.09890    0.46790    0.47470    1.000
    O20      O        0.06620    0.64810    0.45620    1.000
    O21      O        0.86270    0.56820    0.29020    1.000
    O22      O        0.76180    0.61990    0.20110    1.000
    O23      O        0.34060    0.52650    0.82170    1.000
    O24      O        0.23070    0.45790    0.91100    1.000
    O25      O        0.92280    0.38900    0.35550    1.000
    O26      O        0.03250    0.26930    0.39130    1.000
    O27      O        0.09680    0.46630    0.36370    1.000
    O28      O        0.24560    0.48400    0.39870    1.000
    O29      O        0.79160    0.30390    0.28160    1.000
    O30      O        0.85300    0.35740    0.16200    1.000
    O31      O        0.98450    0.34750    0.27260    1.000
    O32      O        0.77930    0.70710    0.26620    1.000
    N14      N        0.97880    0.33670    0.34740    1.000
    N15      N        0.13950    0.47370    0.41130    1.000
    N16      N        0.80420    0.62660    0.25200    1.000
    O33      O        0.75550    0.47110    0.43790    1.000
    N17      N        0.35300    0.05270    0.19390    1.000
    C67      C        0.30770    0.00720    0.17040    1.000
    N18      N        0.52090    0.09640    0.24820    1.000
    N19      N        0.21420    0.03340    0.16450    1.000
    N20      N        0.44990    0.90800    0.18670    1.000
    N21      N        0.60720    0.91830    0.27840    1.000
    N22      N        0.40080    0.89820    0.32820    1.000
    N23      N        0.76450    0.91770    0.26300    1.000
    N24      N        0.35230    0.76610    0.37430    1.000
    N25      N        0.56910    0.22690    0.18200    1.000
    N26      N        0.56700    0.04690    0.13410    1.000
    C68      C        0.52820    0.13030    0.30090    1.000
    O34      O        0.71320    0.44430    0.34370    1.000
    C69      C        0.11800    0.90990    0.21050    1.000
    C70      C        0.09750    0.81570    0.34420    1.000
    H53      H        0.10260    0.80430    0.39530    1.000
    C71      C        0.31440    0.79990    0.42670    1.000
    C72      C        0.67930    0.95130    0.23130    1.000
    C73      C        0.86730    0.19460    0.15930    1.000
    H54      H        0.88630    0.24090    0.11430    1.000
    C74      C        0.38840    0.43520    0.95050    1.000
    C75      C        0.64700    0.85970    0.34990    1.000
    C76      C        0.60600    0.52850    0.38900    1.000
    C77      C        0.40300    0.82640    0.31930    1.000
    C78      C        0.28360    0.11210    0.20460    1.000
    C79      C        0.54750    0.15460    0.17960    1.000
    C80      C        0.58530    0.57090    0.43570    1.000
    H55      H        0.62890    0.56550    0.47020    1.000
    C81      C        0.74450    0.85870    0.34010    1.000
    C82      C        0.50000    0.62140    0.43170    1.000
    H56      H        0.48770    0.65100    0.46220    1.000
    C83      C        0.85040    0.04500    0.22710    1.000
    C84      C        0.83330    0.20790    0.22320    1.000
    C85      C        0.33970    0.68140    0.37860    1.000
    H57      H        0.29940    0.65070    0.42390    1.000
    H58      H        0.30840    0.68950    0.33360    1.000
    C86      C        0.43360    0.62750    0.38250    1.000
    C87      C        0.19680    0.10060    0.18480    1.000
    C88      C        0.54880    0.14040    0.11040    1.000
    H59      H        0.48850    0.16190    0.08690    1.000
    H60      H        0.59810    0.17060    0.07310    1.000
    C89      C        0.85400    0.95450    0.22980    1.000
    H61      H        0.90520    0.91730    0.26060    1.000
    H62      H        0.86590    0.95860    0.17800    1.000
    C90      C        0.05500    0.77420    0.25200    1.000
    H63      H        0.02910    0.73540    0.24020    1.000
    C91      C        0.52390    0.35170    0.05950    1.000
    C92      C        0.45410    0.81940    0.25050    1.000
    H64      H        0.42410    0.78140    0.23690    1.000
    H65      H        0.51930    0.79640    0.26100    1.000
    C93      C        0.23020    0.81860    0.52910    1.000
    H66      H        0.19310    0.79780    0.57500    1.000
    C94      C        0.53860    0.01600    0.08090    1.000
    H67      H        0.48040    0.04860    0.05820    1.000
    H68      H        0.58720    0.02500    0.03960    1.000
    C95      C        0.55610    0.21320    0.25980    1.000
    C96      C        0.12310    0.89160    0.28660    1.000
    H69      H        0.14450    0.93200    0.29910    1.000
    C97      C        0.54020    0.53730    0.33800    1.000
    H70      H        0.55320    0.50990    0.30570    1.000
    C98      C        0.87360    0.11410    0.16140    1.000
    H71      H        0.89410    0.10700    0.11710    1.000
    C99      C        0.14450    0.99420    0.14440    1.000
    H72      H        0.08810    0.03420    0.12940    1.000
    H73      H        0.16950    0.98350    0.10050    1.000
    C100     C        0.06370    0.75480    0.32710    1.000
    C101     C        0.69860    0.47770    0.38930    1.000
    C102     C        0.35290    0.93440    0.15600    1.000
    H74      H        0.31460    0.88610    0.18080    1.000
    H75      H        0.35780    0.95080    0.10100    1.000
    C103     C        0.45390    0.58740    0.33520    1.000
    H76      H        0.41010    0.59330    0.30070    1.000
    C104     C        0.42980    0.34890    0.08140    1.000
    H77      H        0.41130    0.31920    0.13330    1.000
    C105     C        0.31510    0.47490    0.89120    1.000
    C106     C        0.08320    0.84910    0.19280    1.000
    H78      H        0.07930    0.85950    0.14180    1.000
    C107     C        0.60270    0.81070    0.41910    1.000
    H79      H        0.53720    0.81160    0.42630    1.000
    C108     C        0.80180    0.81200    0.39900    1.000
    H80      H        0.86690    0.81440    0.39320    1.000
    C109     C        0.28880    0.17620    0.22940    1.000
    H81      H        0.34600    0.18600    0.24130    1.000
    C110     C        0.52420    0.92210    0.12270    1.000
    H82      H        0.58310    0.88920    0.14350    1.000
    H83      H        0.50500    0.90240    0.08720    1.000
    C111     C        0.25640    0.76700    0.49450    1.000
    H84      H        0.23710    0.71170    0.51450    1.000
    C112     C        0.25670    0.90390    0.49840    1.000
    H85      H        0.23620    0.93780    0.52430    1.000
    C113     C        0.31320    0.93780    0.42980    1.000
    H86      H        0.32960    0.99420    0.40830    1.000
    C114     C        0.51010    0.09660    0.37860    1.000
    H87      H        0.49070    0.04140    0.40670    1.000
    C115     C        0.56830    0.26460    0.29580    1.000
    H88      H        0.58630    0.32040    0.26840    1.000
    C116     C        0.59930    0.30610    0.11670    1.000
    H89      H        0.61550    0.34510    0.13620    1.000
    H90      H        0.65580    0.29140    0.09050    1.000
    C117     C        0.81380    0.05800    0.29260    1.000
    H91      H        0.79600    0.01170    0.33810    1.000
    C118     C        0.67020    0.01700    0.15160    1.000
    H92      H        0.70320    0.06600    0.14320    1.000
    H93      H        0.69940    0.99330    0.11660    1.000
    C119     C        0.55120    0.39690    0.98250    1.000
    H94      H        0.61510    0.39840    0.96680    1.000
    C120     C        0.20690    0.22370    0.23530    1.000
    H95      H        0.20830    0.26560    0.25260    1.000
    C121     C        0.48370    0.44020    0.92810    1.000
    H96      H        0.50260    0.47240    0.87670    1.000
    C122     C        0.11360    0.14920    0.19210    1.000
    H97      H        0.05540    0.14010    0.18110    1.000
    C123     C        0.12210    0.21090    0.21620    1.000
    H98      H        0.06830    0.24580    0.21980    1.000
    C124     C        0.66230    0.75900    0.47800    1.000
    H99      H        0.63580    0.72240    0.52560    1.000
    C125     C        0.55170    0.22710    0.37560    1.000
    H100     H        0.56170    0.25770    0.40280    1.000
    C126     C        0.52210    0.14910    0.41390    1.000
    H101     H        0.50870    0.12830    0.46680    1.000
    C127     C        0.75680    0.76040    0.46830    1.000
    H102     H        0.79340    0.72530    0.50980    1.000
    C128     C        0.03620    0.66980    0.39190    1.000
    C129     C        0.82620    0.29600    0.22080    1.000
    C130     C        0.80510    0.13880    0.28810    1.000
    H103     H        0.77910    0.14750    0.33060    1.000
    C131     C        0.36170    0.38890    0.02830    1.000
    H104     H        0.29790    0.38500    0.04440    1.000
    C132     C        0.34310    0.88300    0.39610    1.000
