data_functionalizedCrystal
_audit_creation_method	'EQeq! by Chris Wilmer'
_symmetry_space_group_name_H-M	'P1'
_symmetry_Int_Tables_number	1
_symmetry_cell_setting	triclinic
loop_
_symmetry_equiv_pos_as_xyz
  x,y,z
_cell_length_a	10.6261
_cell_length_b	10.6261
_cell_length_c	10.6261
_cell_angle_alpha	103.645
_cell_angle_beta	112.461
_cell_angle_gamma	112.461
loop_
_atom_site_label
_atom_site_type_symbol
_atom_site_fract_x
_atom_site_fract_y
_atom_site_fract_z
_atom_site_charge
Mof_Co	Co	0.49422	0.69464	0.79958	1.104
Mof_Co	Co	0.50578	0.30536	0.20042	1.103
Mof_Co	Co	0.10494	0.79958	0.30536	1.083
Mof_Co	Co	0.89506	0.20042	0.69464	1.124
Mof_Mo	Mo	-3.10091e-17	0.74996	0.74996	0.674
Mof_Mo	Mo	7.75229e-18	0.25004	0.25004	0.668
Mof_H 	H 	0.3401	0.7531	0.587	0.212
Mof_H 	H 	0.6599	0.2469	0.413	0.216
Mof_H 	H 	0.8339	0.587	0.2469	0.218
Mof_H 	H 	0.1661	0.413	0.7531	0.21
Mof_C 	C 	0.19654	0.71049	0.80479	-0.104
Mof_C 	C 	0.78741	0.02739	0.07936	-0.024
Mof_C 	C 	0.80346	0.60825	0.51395	-0.039
Mof_C 	C 	0.21259	0.29195	0.23998	-0.093
Mof_C 	C 	0.0943	0.80479	0.60825	-0.127
Mof_C 	C 	0.05197	0.07936	0.29195	-0.111
Mof_C 	C 	0.9057	0.51395	0.71049	-0.017
Mof_C 	C 	0.94803	0.23998	0.02739	0
Mof_C 	C 	0.80346	0.28951	0.19521	-0.038
Mof_C 	C 	0.21259	0.97261	0.92064	-0.103
Mof_C 	C 	0.19654	0.39175	0.48605	-0.102
Mof_C 	C 	0.78741	0.70805	0.76002	-0.033
Mof_C 	C 	0.9057	0.19521	0.39175	-0.016
Mof_C 	C 	0.94803	0.92064	0.70805	-0.009
Mof_C 	C 	0.0943	0.48605	0.28951	-0.126
Mof_C 	C 	0.05197	0.76002	0.97261	-0.121
Mof_N 	N 	0.30638	0.69863	0.83161	-0.218
Mof_N 	N 	0.6717	0.9142	0.98504	-0.231
Mof_N 	N 	0.69362	0.52523	0.39225	-0.224
Mof_N 	N 	0.3283	0.31334	0.2425	-0.218
Mof_N 	N 	0.13298	0.83161	0.52523	-0.225
Mof_N 	N 	0.07084	0.98504	0.31334	-0.235
Mof_N 	N 	0.86702	0.39225	0.69863	-0.216
Mof_N 	N 	0.92916	0.2425	0.9142	-0.218
Mof_N 	N 	0.69362	0.30137	0.16839	-0.224
Mof_N 	N 	0.3283	0.0858	0.01496	-0.212
Mof_N 	N 	0.30638	0.47477	0.60775	-0.217
Mof_N 	N 	0.6717	0.68666	0.7575	-0.224
Mof_N 	N 	0.86702	0.16839	0.47477	-0.216
Mof_N 	N 	0.92916	0.01496	0.68666	-0.212
Mof_N 	N 	0.13298	0.60775	0.30137	-0.225
Mof_N 	N 	0.07084	0.7575	0.0858	-0.229
Mof_O 	O 	0.43941	0.79121	0.6482	-0.502
Mof_O 	O 	0.56059	0.20879	0.3518	-0.502
Mof_O 	O 	0.85699	0.6482	0.20879	-0.457
Mof_O 	O 	0.14301	0.3518	0.79121	-0.544
_end
