data_functionalizedCrystal
_audit_creation_method	'EQeq! by Chris Wilmer'
_symmetry_space_group_name_H-M	'P1'
_symmetry_Int_Tables_number	1
_symmetry_cell_setting	triclinic
loop_
_symmetry_equiv_pos_as_xyz
  x,y,z
_cell_length_a	20.7266
_cell_length_b	20.7266
_cell_length_c	20.7266
_cell_angle_alpha	90
_cell_angle_beta	90
_cell_angle_gamma	90
loop_
_atom_site_label
_atom_site_type_symbol
_atom_site_fract_x
_atom_site_fract_y
_atom_site_fract_z
_atom_site_charge
Mof_Zr	Zr	0.11966	0	-0	3.212
Mof_Zr	Zr	0.11966	0.5	0.5	3.275
Mof_Zr	Zr	0.61966	0	0.5	3.226
Mof_Zr	Zr	0.61966	0.5	-0	3.226
Mof_Zr	Zr	0.88034	0	-0	3.177
Mof_Zr	Zr	0.88034	0.5	0.5	3.238
Mof_Zr	Zr	0.38034	0	0.5	3.226
Mof_Zr	Zr	0.38034	0.5	-0	3.226
Mof_Zr	Zr	-0	0.11966	-0	3.212
Mof_Zr	Zr	-3.79547e-33	0.61966	0.5	3.226
Mof_Zr	Zr	0.5	0.11966	0.5	3.275
Mof_Zr	Zr	0.5	0.61966	-0	3.226
Mof_Zr	Zr	-0	0.88034	-0	3.178
Mof_Zr	Zr	-3.79547e-33	0.38034	0.5	3.227
Mof_Zr	Zr	0.5	0.88034	0.5	3.239
Mof_Zr	Zr	0.5	0.38034	-0	3.227
Mof_Zr	Zr	4.48653e-34	0	0.11966	3.213
Mof_Zr	Zr	-3.34682e-33	0.5	0.61966	3.227
Mof_Zr	Zr	0.5	0	0.61966	3.227
Mof_Zr	Zr	0.5	0.5	0.11966	3.276
Mof_Zr	Zr	3.30075e-33	0	0.88034	3.178
Mof_Zr	Zr	-1.40904e-33	0.5	0.38034	3.227
Mof_Zr	Zr	0.5	0	0.38034	3.227
Mof_Zr	Zr	0.5	0.5	0.88034	3.239
Mof_O 	O 	0.1734	0.0925	-0	-0.427
Mof_C 	C 	0.2661	0.1869	-0	-0.053
Mof_H 	H 	0.2782	0.1426	-0	0.032
Mof_O 	O 	0.201	0.067	-0	-0.299
Mof_O 	O 	0.1734	0.5925	0.5	-0.505
Mof_C 	C 	0.2661	0.6869	0.5	-0.029
Mof_H 	H 	0.2782	0.6426	0.5	0.081
Mof_O 	O 	0.201	0.567	0.5	-0.097
Mof_O 	O 	0.6734	0.0925	0.5	-0.51
Mof_C 	C 	0.7661	0.1869	0.5	-0.016
Mof_H 	H 	0.7782	0.1426	0.5	0.095
Mof_O 	O 	0.701	0.067	0.5	-0.104
Mof_O 	O 	0.6734	0.5925	-0	-0.455
Mof_C 	C 	0.7661	0.6869	-0	-0.07
Mof_H 	H 	0.7782	0.6426	-0	0.079
Mof_O 	O 	0.701	0.567	-0	-0.25
Mof_O 	O 	0.8266	0.9075	-0	-0.618
Mof_C 	C 	0.7339	0.8131	-0	0.023
Mof_H 	H 	0.7218	0.8574	-0	0.073
Mof_O 	O 	0.799	0.933	-0	0.069
Mof_O 	O 	0.8266	0.4075	0.5	-0.548
Mof_C 	C 	0.7339	0.3131	0.5	0.021
Mof_H 	H 	0.7218	0.3574	0.5	0.063
Mof_O 	O 	0.799	0.433	0.5	-0.075
Mof_O 	O 	0.3266	0.9075	0.5	-0.647
Mof_C 	C 	0.2339	0.8131	0.5	0.026
Mof_H 	H 	0.2218	0.8574	0.5	0.11
Mof_O 	O 	0.299	0.933	0.5	0.22
Mof_O 	O 	0.3266	0.4075	-0	-0.439
Mof_C 	C 	0.2339	0.3131	-0	-0.056
Mof_H 	H 	0.2218	0.3574	-0	0.035
Mof_O 	O 	0.299	0.433	-0	-0.278
Mof_O 	O 	0.8266	0.0925	-0	-0.507
Mof_C 	C 	0.7339	0.1869	-0	-0.005
Mof_H 	H 	0.7218	0.1426	-0	0.019
Mof_O 	O 	0.799	0.067	-0	-0.253
Mof_O 	O 	0.8266	0.5925	0.5	-0.547
Mof_C 	C 	0.7339	0.6869	0.5	0.005
Mof_H 	H 	0.7218	0.6426	0.5	0.07
Mof_O 	O 	0.799	0.567	0.5	-0.075
Mof_O 	O 	0.3266	0.0925	0.5	-0.495
Mof_C 	C 	0.2339	0.1869	0.5	-0.016
Mof_H 	H 	0.2218	0.1426	0.5	0.058
Mof_O 	O 	0.299	0.067	0.5	-0.129
Mof_O 	O 	0.3266	0.5925	-0	-0.441
Mof_C 	C 	0.2339	0.6869	-0	-0.076
Mof_H 	H 	0.2218	0.6426	-0	0.045
Mof_O 	O 	0.299	0.567	-0	-0.276
Mof_O 	O 	0.1734	0.9075	-0	-0.61
Mof_C 	C 	0.2661	0.8131	-0	0.001
Mof_H 	H 	0.2782	0.8574	-0	0.082
Mof_O 	O 	0.201	0.933	-0	0.07
Mof_O 	O 	0.1734	0.4075	0.5	-0.5
Mof_C 	C 	0.2661	0.3131	0.5	-0.015
Mof_H 	H 	0.2782	0.3574	0.5	0.074
Mof_O 	O 	0.201	0.433	0.5	-0.101
Mof_O 	O 	0.6734	0.9075	0.5	-0.653
Mof_C 	C 	0.7661	0.8131	0.5	0.023
Mof_H 	H 	0.7782	0.8574	0.5	0.145
Mof_O 	O 	0.701	0.933	0.5	0.234
Mof_O 	O 	0.6734	0.4075	-0	-0.451
Mof_C 	C 	0.7661	0.3131	-0	-0.063
Mof_H 	H 	0.7782	0.3574	-0	0.075
Mof_O 	O 	0.701	0.433	-0	-0.253
Mof_O 	O 	-1.77949e-33	0.1734	0.0925	-0.427
Mof_C 	C 	2.11831e-33	0.2661	0.1869	-0.053
Mof_H 	H 	-8.82879e-34	0.2782	0.1426	0.032
Mof_O 	O 	-1.16633e-33	0.201	0.067	-0.299
Mof_O 	O 	2.22152e-33	0.6734	0.5925	-0.455
Mof_C 	C 	2.57546e-33	0.7661	0.6869	-0.07
Mof_H 	H 	2.40936e-33	0.7782	0.6426	0.079
Mof_O 	O 	-3.54426e-33	0.701	0.567	-0.25
Mof_O 	O 	0.5	0.1734	0.5925	-0.505
Mof_C 	C 	0.5	0.2661	0.6869	-0.029
Mof_H 	H 	0.5	0.2782	0.6426	0.081
Mof_O 	O 	0.5	0.201	0.567	-0.097
Mof_O 	O 	0.5	0.6734	0.0925	-0.51
Mof_C 	C 	0.5	0.7661	0.1869	-0.016
Mof_H 	H 	0.5	0.7782	0.1426	0.095
Mof_O 	O 	0.5	0.701	0.067	-0.104
Mof_O 	O 	3.40258e-33	0.8266	0.9075	-0.618
Mof_C 	C 	-2.62153e-33	0.7339	0.8131	0.023
Mof_H 	H 	3.21474e-33	0.7218	0.8574	0.073
Mof_O 	O 	-7.84215e-33	0.799	0.933	0.069
Mof_O 	O 	-4.14229e-33	0.3266	0.4075	-0.439
Mof_C 	C 	-1.66115e-33	0.2339	0.3131	-0.056
Mof_H 	H 	-1.49505e-33	0.2218	0.3574	0.035
Mof_O 	O 	-4.04668e-33	0.299	0.433	-0.278
Mof_O 	O 	0.5	0.8266	0.4075	-0.548
Mof_C 	C 	0.5	0.7339	0.3131	0.021
Mof_H 	H 	0.5	0.7218	0.3574	0.063
Mof_O 	O 	0.5	0.799	0.433	-0.075
Mof_O 	O 	0.5	0.3266	0.9075	-0.647
Mof_C 	C 	0.5	0.2339	0.8131	0.026
Mof_H 	H 	0.5	0.2218	0.8574	0.11
Mof_O 	O 	0.5	0.299	0.933	0.22
Mof_O 	O 	-1.77949e-33	0.8266	0.0925	-0.507
Mof_C 	C 	-3.55187e-33	0.7339	0.1869	-0.005
Mof_H 	H 	1.04575e-32	0.7218	0.1426	0.019
Mof_O 	O 	-5.41896e-33	0.799	0.067	-0.253
Mof_O 	O 	-9.11882e-33	0.3266	0.5925	-0.441
Mof_C 	C 	2.57546e-33	0.2339	0.6869	-0.076
Mof_H 	H 	2.40936e-33	0.2218	0.6426	0.045
Mof_O 	O 	-9.21443e-33	0.299	0.567	-0.276
Mof_O 	O 	0.5	0.8266	0.5925	-0.547
Mof_C 	C 	0.5	0.7339	0.6869	0.005
Mof_H 	H 	0.5	0.7218	0.6426	0.07
Mof_O 	O 	0.5	0.799	0.567	-0.075
Mof_O 	O 	0.5	0.3266	0.0925	-0.495
Mof_C 	C 	0.5	0.2339	0.1869	-0.016
Mof_H 	H 	0.5	0.2218	0.1426	0.058
Mof_O 	O 	0.5	0.299	0.067	-0.129
Mof_O 	O 	3.40258e-33	0.1734	0.9075	-0.61
Mof_C 	C 	-8.29171e-33	0.2661	0.8131	0.001
Mof_H 	H 	-8.12561e-33	0.2782	0.8574	0.082
Mof_O 	O 	-1.91825e-32	0.201	0.933	0.07
Mof_O 	O 	1.52788e-33	0.6734	0.4075	-0.451
Mof_C 	C 	-4.49623e-33	0.7661	0.3131	-0.063
Mof_H 	H 	-1.28354e-32	0.7782	0.3574	0.075
Mof_O 	O 	-4.04668e-33	0.701	0.433	-0.253
Mof_O 	O 	0.5	0.1734	0.4075	-0.5
Mof_C 	C 	0.5	0.2661	0.3131	-0.015
Mof_H 	H 	0.5	0.2782	0.3574	0.074
Mof_O 	O 	0.5	0.201	0.433	-0.101
Mof_O 	O 	0.5	0.6734	0.9075	-0.653
Mof_C 	C 	0.5	0.7661	0.8131	0.023
Mof_H 	H 	0.5	0.7782	0.8574	0.145
Mof_O 	O 	0.5	0.701	0.933	0.234
Mof_O 	O 	0.0925	0	0.1734	-0.427
Mof_C 	C 	0.1869	0	0.2661	-0.053
Mof_H 	H 	0.1426	0	0.2782	0.032
Mof_O 	O 	0.067	0	0.201	-0.299
Mof_O 	O 	0.0925	0.5	0.6734	-0.51
Mof_C 	C 	0.1869	0.5	0.7661	-0.016
Mof_H 	H 	0.1426	0.5	0.7782	0.095
Mof_O 	O 	0.067	0.5	0.701	-0.104
Mof_O 	O 	0.5925	0	0.6734	-0.455
Mof_C 	C 	0.6869	-5.67017e-33	0.7661	-0.07
Mof_H 	H 	0.6426	-5.67017e-33	0.7782	0.079
Mof_O 	O 	0.567	0	0.701	-0.25
Mof_O 	O 	0.5925	0.5	0.1734	-0.505
Mof_C 	C 	0.6869	0.5	0.2661	-0.029
Mof_H 	H 	0.6426	0.5	0.2782	0.081
Mof_O 	O 	0.567	0.5	0.201	-0.097
Mof_O 	O 	0.9075	0	0.8266	-0.618
Mof_C 	C 	0.8131	-5.67017e-33	0.7339	0.023
Mof_H 	H 	0.8574	0	0.7218	0.073
Mof_O 	O 	0.933	-1.13403e-32	0.799	0.069
Mof_O 	O 	0.9075	0.5	0.3266	-0.647
Mof_C 	C 	0.8131	0.5	0.2339	0.026
Mof_H 	H 	0.8574	0.5	0.2218	0.11
Mof_O 	O 	0.933	0.5	0.299	0.22
Mof_O 	O 	0.4075	0	0.3266	-0.439
Mof_C 	C 	0.3131	0	0.2339	-0.056
Mof_H 	H 	0.3574	0	0.2218	0.035
Mof_O 	O 	0.433	-2.83509e-33	0.299	-0.278
Mof_O 	O 	0.4075	0.5	0.8266	-0.548
Mof_C 	C 	0.3131	0.5	0.7339	0.021
Mof_H 	H 	0.3574	0.5	0.7218	0.063
Mof_O 	O 	0.433	0.5	0.799	-0.075
Mof_O 	O 	0.0925	0	0.8266	-0.507
Mof_C 	C 	0.1869	-5.67017e-33	0.7339	-0.005
Mof_H 	H 	0.1426	0	0.7218	0.019
Mof_O 	O 	0.067	-1.13403e-32	0.799	-0.253
Mof_O 	O 	0.0925	0.5	0.3266	-0.495
Mof_C 	C 	0.1869	0.5	0.2339	-0.016
Mof_H 	H 	0.1426	0.5	0.2218	0.058
Mof_O 	O 	0.067	0.5	0.299	-0.129
Mof_O 	O 	0.5925	0	0.3266	-0.441
Mof_C 	C 	0.6869	0	0.2339	-0.076
Mof_H 	H 	0.6426	0	0.2218	0.045
Mof_O 	O 	0.567	-2.83509e-33	0.299	-0.276
Mof_O 	O 	0.5925	0.5	0.8266	-0.547
Mof_C 	C 	0.6869	0.5	0.7339	0.005
Mof_H 	H 	0.6426	0.5	0.7218	0.07
Mof_O 	O 	0.567	0.5	0.799	-0.075
Mof_O 	O 	0.9075	0	0.1734	-0.61
Mof_C 	C 	0.8131	0	0.2661	0.001
Mof_H 	H 	0.8574	0	0.2782	0.082
Mof_O 	O 	0.933	0	0.201	0.07
Mof_O 	O 	0.9075	0.5	0.6734	-0.653
Mof_C 	C 	0.8131	0.5	0.7661	0.023
Mof_H 	H 	0.8574	0.5	0.7782	0.145
Mof_O 	O 	0.933	0.5	0.701	0.234
Mof_O 	O 	0.4075	0	0.6734	-0.451
Mof_C 	C 	0.3131	-5.67017e-33	0.7661	-0.063
Mof_H 	H 	0.3574	-5.67017e-33	0.7782	0.075
Mof_O 	O 	0.433	0	0.701	-0.253
Mof_O 	O 	0.4075	0.5	0.1734	-0.5
Mof_C 	C 	0.3131	0.5	0.2661	-0.015
Mof_H 	H 	0.3574	0.5	0.2782	0.074
Mof_O 	O 	0.433	0.5	0.201	-0.101
Mof_O 	O 	0.0925	0.1734	-0	-0.427
Mof_C 	C 	0.1869	0.2661	-0	-0.053
Mof_H 	H 	0.1426	0.2782	-0	0.032
Mof_O 	O 	0.067	0.201	-0	-0.299
Mof_O 	O 	0.0925	0.6734	0.5	-0.51
Mof_C 	C 	0.1869	0.7661	0.5	-0.016
Mof_H 	H 	0.1426	0.7782	0.5	0.095
Mof_O 	O 	0.067	0.701	0.5	-0.104
Mof_O 	O 	0.5925	0.1734	0.5	-0.505
Mof_C 	C 	0.6869	0.2661	0.5	-0.029
Mof_H 	H 	0.6426	0.2782	0.5	0.081
Mof_O 	O 	0.567	0.201	0.5	-0.097
Mof_O 	O 	0.5925	0.6734	-0	-0.455
Mof_C 	C 	0.6869	0.7661	-0	-0.07
Mof_H 	H 	0.6426	0.7782	-0	0.079
Mof_O 	O 	0.567	0.701	-0	-0.25
Mof_O 	O 	0.9075	0.8266	-0	-0.618
Mof_C 	C 	0.8131	0.7339	-0	0.023
Mof_H 	H 	0.8574	0.7218	-0	0.073
Mof_O 	O 	0.933	0.799	-0	0.069
Mof_O 	O 	0.9075	0.3266	0.5	-0.647
Mof_C 	C 	0.8131	0.2339	0.5	0.026
Mof_H 	H 	0.8574	0.2218	0.5	0.11
Mof_O 	O 	0.933	0.299	0.5	0.22
Mof_O 	O 	0.4075	0.8266	0.5	-0.548
Mof_C 	C 	0.3131	0.7339	0.5	0.021
Mof_H 	H 	0.3574	0.7218	0.5	0.063
Mof_O 	O 	0.433	0.799	0.5	-0.075
Mof_O 	O 	0.4075	0.3266	-0	-0.439
Mof_C 	C 	0.3131	0.2339	-0	-0.056
Mof_H 	H 	0.3574	0.2218	-0	0.035
Mof_O 	O 	0.433	0.299	-0	-0.278
Mof_O 	O 	0.0925	0.8266	-0	-0.507
Mof_C 	C 	0.1869	0.7339	-0	-0.005
Mof_H 	H 	0.1426	0.7218	-0	0.019
Mof_O 	O 	0.067	0.799	-0	-0.253
Mof_O 	O 	0.0925	0.3266	0.5	-0.495
Mof_C 	C 	0.1869	0.2339	0.5	-0.016
Mof_H 	H 	0.1426	0.2218	0.5	0.058
Mof_O 	O 	0.067	0.299	0.5	-0.129
Mof_O 	O 	0.5925	0.8266	0.5	-0.547
Mof_C 	C 	0.6869	0.7339	0.5	0.005
Mof_H 	H 	0.6426	0.7218	0.5	0.07
Mof_O 	O 	0.567	0.799	0.5	-0.075
Mof_O 	O 	0.5925	0.3266	-0	-0.441
Mof_C 	C 	0.6869	0.2339	-0	-0.076
Mof_H 	H 	0.6426	0.2218	-0	0.045
Mof_O 	O 	0.567	0.299	-0	-0.276
Mof_O 	O 	0.9075	0.1734	-0	-0.61
Mof_C 	C 	0.8131	0.2661	-0	0.001
Mof_H 	H 	0.8574	0.2782	-0	0.082
Mof_O 	O 	0.933	0.201	-0	0.07
Mof_O 	O 	0.9075	0.6734	0.5	-0.653
Mof_C 	C 	0.8131	0.7661	0.5	0.023
Mof_H 	H 	0.8574	0.7782	0.5	0.145
Mof_O 	O 	0.933	0.701	0.5	0.234
Mof_O 	O 	0.4075	0.1734	0.5	-0.5
Mof_C 	C 	0.3131	0.2661	0.5	-0.015
Mof_H 	H 	0.3574	0.2782	0.5	0.074
Mof_O 	O 	0.433	0.201	0.5	-0.101
Mof_O 	O 	0.4075	0.6734	-0	-0.451
Mof_C 	C 	0.3131	0.7661	-0	-0.063
Mof_H 	H 	0.3574	0.7782	-0	0.075
Mof_O 	O 	0.433	0.701	-0	-0.253
Mof_O 	O 	0.1734	0	0.9075	-0.61
Mof_C 	C 	0.2661	-5.67017e-33	0.8131	0.001
Mof_H 	H 	0.2782	0	0.8574	0.082
Mof_O 	O 	0.201	-1.13403e-32	0.933	0.07
Mof_O 	O 	0.1734	0.5	0.4075	-0.5
Mof_C 	C 	0.2661	0.5	0.3131	-0.015
Mof_H 	H 	0.2782	0.5	0.3574	0.074
Mof_O 	O 	0.201	0.5	0.433	-0.101
Mof_O 	O 	0.6734	-2.83509e-33	0.4075	-0.451
Mof_C 	C 	0.7661	0	0.3131	-0.063
Mof_H 	H 	0.7782	2.83509e-33	0.3574	0.075
Mof_O 	O 	0.701	0	0.433	-0.253
Mof_O 	O 	0.6734	0.5	0.9075	-0.653
Mof_C 	C 	0.7661	0.5	0.8131	0.023
Mof_H 	H 	0.7782	0.5	0.8574	0.145
Mof_O 	O 	0.701	0.5	0.933	0.234
Mof_O 	O 	0.8266	0	0.0925	-0.507
Mof_C 	C 	0.7339	0	0.1869	-0.005
Mof_H 	H 	0.7218	0	0.1426	0.019
Mof_O 	O 	0.799	0	0.067	-0.253
Mof_O 	O 	0.8266	0.5	0.5925	-0.547
Mof_C 	C 	0.7339	0.5	0.6869	0.005
Mof_H 	H 	0.7218	0.5	0.6426	0.07
Mof_O 	O 	0.799	0.5	0.567	-0.075
Mof_O 	O 	0.3266	-5.67017e-33	0.5925	-0.441
Mof_C 	C 	0.2339	0	0.6869	-0.076
Mof_H 	H 	0.2218	0	0.6426	0.045
Mof_O 	O 	0.299	-5.67017e-33	0.567	-0.276
Mof_O 	O 	0.3266	0.5	0.0925	-0.495
Mof_C 	C 	0.2339	0.5	0.1869	-0.016
Mof_H 	H 	0.2218	0.5	0.1426	0.058
Mof_O 	O 	0.299	0.5	0.067	-0.129
Mof_O 	O 	0.8266	0	0.9075	-0.618
Mof_C 	C 	0.7339	-5.67017e-33	0.8131	0.023
Mof_H 	H 	0.7218	0	0.8574	0.073
Mof_O 	O 	0.799	-1.13403e-32	0.933	0.069
Mof_O 	O 	0.8266	0.5	0.4075	-0.548
Mof_C 	C 	0.7339	0.5	0.3131	0.021
Mof_H 	H 	0.7218	0.5	0.3574	0.063
Mof_O 	O 	0.799	0.5	0.433	-0.075
Mof_O 	O 	0.3266	-2.83509e-33	0.4075	-0.439
Mof_C 	C 	0.2339	0	0.3131	-0.056
Mof_H 	H 	0.2218	2.83509e-33	0.3574	0.035
Mof_O 	O 	0.299	0	0.433	-0.278
Mof_O 	O 	0.3266	0.5	0.9075	-0.647
Mof_C 	C 	0.2339	0.5	0.8131	0.026
Mof_H 	H 	0.2218	0.5	0.8574	0.11
Mof_O 	O 	0.299	0.5	0.933	0.22
Mof_O 	O 	0.1734	0	0.0925	-0.427
Mof_C 	C 	0.2661	0	0.1869	-0.053
Mof_H 	H 	0.2782	0	0.1426	0.032
Mof_O 	O 	0.201	0	0.067	-0.299
Mof_O 	O 	0.1734	0.5	0.5925	-0.505
Mof_C 	C 	0.2661	0.5	0.6869	-0.029
Mof_H 	H 	0.2782	0.5	0.6426	0.081
Mof_O 	O 	0.201	0.5	0.567	-0.097
Mof_O 	O 	0.6734	-5.67017e-33	0.5925	-0.455
Mof_C 	C 	0.7661	0	0.6869	-0.07
Mof_H 	H 	0.7782	0	0.6426	0.079
Mof_O 	O 	0.701	-5.67017e-33	0.567	-0.25
Mof_O 	O 	0.6734	0.5	0.0925	-0.51
Mof_C 	C 	0.7661	0.5	0.1869	-0.016
Mof_H 	H 	0.7782	0.5	0.1426	0.095
Mof_O 	O 	0.701	0.5	0.067	-0.104
Mof_O 	O 	-2.57092e-33	0.0925	0.8266	-0.507
Mof_C 	C 	-2.91849e-33	0.1869	0.7339	-0.005
Mof_H 	H 	8.37649e-33	0.1426	0.7218	0.019
Mof_O 	O 	-8.34457e-33	0.067	0.799	-0.253
Mof_O 	O 	-7.2807e-33	0.5925	0.3266	-0.441
Mof_C 	C 	3.71207e-33	0.6869	0.2339	-0.076
Mof_H 	H 	3.6667e-33	0.6426	0.2218	0.045
Mof_O 	O 	-7.38419e-33	0.567	0.299	-0.276
Mof_O 	O 	0.5	0.0925	0.3266	-0.495
Mof_C 	C 	0.5	0.1869	0.2339	-0.016
Mof_H 	H 	0.5	0.1426	0.2218	0.058
Mof_O 	O 	0.5	0.067	0.299	-0.129
Mof_O 	O 	0.5	0.5925	0.8266	-0.547
Mof_C 	C 	0.5	0.6869	0.7339	0.005
Mof_H 	H 	0.5	0.6426	0.7218	0.07
Mof_O 	O 	0.5	0.567	0.799	-0.075
Mof_O 	O 	6.50146e-34	0.9075	0.1734	-0.61
Mof_C 	C 	-1.03426e-32	0.8131	0.2661	0.001
Mof_H 	H 	-1.02973e-32	0.8574	0.2782	0.082
Mof_O 	O 	-1.76744e-32	0.933	0.201	0.07
Mof_O 	O 	2.52485e-33	0.4075	0.6734	-0.451
Mof_C 	C 	-2.79776e-33	0.3131	0.7661	-0.063
Mof_H 	H 	-1.40927e-32	0.3574	0.7782	0.075
Mof_O 	O 	-8.71201e-33	0.433	0.701	-0.253
Mof_O 	O 	0.5	0.9075	0.6734	-0.653
Mof_C 	C 	0.5	0.8131	0.7661	0.023
Mof_H 	H 	0.5	0.8574	0.7782	0.145
Mof_O 	O 	0.5	0.933	0.701	0.234
Mof_O 	O 	0.5	0.4075	0.1734	-0.5
Mof_C 	C 	0.5	0.3131	0.2661	-0.015
Mof_H 	H 	0.5	0.3574	0.2782	0.074
Mof_O 	O 	0.5	0.433	0.201	-0.101
Mof_O 	O 	-2.18494e-33	0.0925	0.1734	-0.427
Mof_C 	C 	9.97715e-34	0.1869	0.2661	-0.053
Mof_H 	H 	-1.792e-33	0.1426	0.2782	0.032
Mof_O 	O 	-6.63914e-34	0.067	0.201	-0.299
Mof_O 	O 	2.52485e-33	0.5925	0.6734	-0.455
Mof_C 	C 	-2.79776e-33	0.6869	0.7661	-0.07
Mof_H 	H 	-2.75239e-33	0.6426	0.7782	0.079
Mof_O 	O 	-8.71201e-33	0.567	0.701	-0.25
Mof_O 	O 	0.5	0.0925	0.6734	-0.51
Mof_C 	C 	0.5	0.1869	0.7661	-0.016
Mof_H 	H 	0.5	0.1426	0.7782	0.095
Mof_O 	O 	0.5	0.067	0.701	-0.104
Mof_O 	O 	0.5	0.5925	0.1734	-0.505
Mof_C 	C 	0.5	0.6869	0.2661	-0.029
Mof_H 	H 	0.5	0.6426	0.2782	0.081
Mof_O 	O 	0.5	0.567	0.201	-0.097
Mof_O 	O 	8.76943e-33	0.9075	0.8266	-0.618
Mof_C 	C 	2.75168e-33	0.8131	0.7339	0.023
Mof_H 	H 	8.37649e-33	0.8574	0.7218	0.073
Mof_O 	O 	-8.34457e-33	0.933	0.799	0.069
Mof_O 	O 	-1.61053e-33	0.4075	0.3266	-0.439
Mof_C 	C 	-1.9581e-33	0.3131	0.2339	-0.056
Mof_H 	H 	8.31617e-34	0.3574	0.2218	0.035
Mof_O 	O 	-1.71402e-33	0.433	0.299	-0.278
Mof_O 	O 	0.5	0.9075	0.3266	-0.647
Mof_C 	C 	0.5	0.8131	0.2339	0.026
Mof_H 	H 	0.5	0.8574	0.2218	0.11
Mof_O 	O 	0.5	0.933	0.299	0.22
Mof_O 	O 	0.5	0.4075	0.8266	-0.548
Mof_C 	C 	0.5	0.3131	0.7339	0.021
Mof_H 	H 	0.5	0.3574	0.7218	0.063
Mof_O 	O 	0.5	0.433	0.799	-0.075
Mof_C 	C 	0.152	0.152	-0	0.181
Mof_C 	C 	0.2031	0.2031	-0	-0.025
Mof_C 	C 	0.152	0.652	0.5	0.344
Mof_C 	C 	0.2031	0.7031	0.5	-0.017
Mof_C 	C 	0.652	0.152	0.5	0.344
Mof_C 	C 	0.7031	0.2031	0.5	-0.017
Mof_C 	C 	0.652	0.652	-0	0.202
Mof_C 	C 	0.7031	0.7031	-0	0.005
Mof_C 	C 	0.848	0.848	-0	0.412
Mof_C 	C 	0.7969	0.7969	-0	-0.093
Mof_C 	C 	0.848	0.348	0.5	0.452
Mof_C 	C 	0.7969	0.2969	0.5	-0.068
Mof_C 	C 	0.348	0.848	0.5	0.452
Mof_C 	C 	0.2969	0.7969	0.5	-0.068
Mof_C 	C 	0.348	0.348	-0	0.185
Mof_C 	C 	0.2969	0.2969	-0	-0.028
Mof_C 	C 	0.848	0.152	-0	0.33
Mof_C 	C 	0.7969	0.2031	-0	-0.068
Mof_C 	C 	0.848	0.652	0.5	0.455
Mof_C 	C 	0.7969	0.7031	0.5	-0.051
Mof_C 	C 	0.348	0.152	0.5	0.334
Mof_C 	C 	0.2969	0.2031	0.5	-0.034
Mof_C 	C 	0.348	0.652	-0	0.192
Mof_C 	C 	0.2969	0.7031	-0	-0.005
Mof_C 	C 	0.152	0.848	-0	0.33
Mof_C 	C 	0.2031	0.7969	-0	-0.068
Mof_C 	C 	0.152	0.348	0.5	0.334
Mof_C 	C 	0.2031	0.2969	0.5	-0.034
Mof_C 	C 	0.652	0.848	0.5	0.455
Mof_C 	C 	0.7031	0.7969	0.5	-0.051
Mof_C 	C 	0.652	0.348	-0	0.192
Mof_C 	C 	0.7031	0.2969	-0	-0.005
Mof_C 	C 	5.69909e-34	0.152	0.152	0.181
Mof_C 	C 	-2.07358e-33	0.2031	0.2031	-0.025
Mof_C 	C 	2.44461e-33	0.652	0.652	0.202
Mof_C 	C 	-1.43743e-32	0.7031	0.7031	0.005
Mof_C 	C 	0.5	0.152	0.652	0.344
Mof_C 	C 	0.5	0.2031	0.7031	-0.017
Mof_C 	C 	0.5	0.652	0.152	0.344
Mof_C 	C 	0.5	0.7031	0.2031	-0.017
Mof_C 	C 	3.17949e-33	0.848	0.848	0.412
Mof_C 	C 	2.9879e-33	0.7969	0.7969	-0.093
Mof_C 	C 	-4.36538e-33	0.348	0.348	0.185
Mof_C 	C 	1.1132e-33	0.2969	0.2969	-0.028
Mof_C 	C 	0.5	0.848	0.348	0.452
Mof_C 	C 	0.5	0.7969	0.2969	-0.068
Mof_C 	C 	0.5	0.348	0.848	0.452
Mof_C 	C 	0.5	0.2969	0.7969	-0.068
Mof_C 	C 	7.65762e-33	0.848	0.152	0.33
Mof_C 	C 	2.17905e-33	0.7969	0.2031	-0.068
Mof_C 	C 	2.44461e-33	0.348	0.652	0.192
Mof_C 	C 	2.6362e-33	0.2969	0.7031	-0.005
Mof_C 	C 	0.5	0.848	0.652	0.455
Mof_C 	C 	0.5	0.7969	0.7031	-0.051
Mof_C 	C 	0.5	0.348	0.152	0.334
Mof_C 	C 	0.5	0.2969	0.2031	-0.034
Mof_C 	C 	3.17949e-33	0.152	0.848	0.33
Mof_C 	C 	2.9879e-33	0.2031	0.7969	-0.068
Mof_C 	C 	1.30479e-33	0.652	0.348	0.192
Mof_C 	C 	6.78337e-33	0.7031	0.2969	-0.005
Mof_C 	C 	0.5	0.152	0.348	0.334
Mof_C 	C 	0.5	0.2031	0.2969	-0.034
Mof_C 	C 	0.5	0.652	0.848	0.455
Mof_C 	C 	0.5	0.7031	0.7969	-0.051
Mof_C 	C 	0.152	0	0.152	0.181
Mof_C 	C 	0.2031	-1.41754e-33	0.2031	-0.025
Mof_C 	C 	0.152	0.5	0.652	0.344
Mof_C 	C 	0.2031	0.5	0.7031	-0.017
Mof_C 	C 	0.652	0	0.652	0.202
Mof_C 	C 	0.7031	-5.67017e-33	0.7031	0.005
Mof_C 	C 	0.652	0.5	0.152	0.344
Mof_C 	C 	0.7031	0.5	0.2031	-0.017
Mof_C 	C 	0.848	0	0.848	0.412
Mof_C 	C 	0.7969	0	0.7969	-0.093
Mof_C 	C 	0.848	0.5	0.348	0.452
Mof_C 	C 	0.7969	0.5	0.2969	-0.068
Mof_C 	C 	0.348	-2.83509e-33	0.348	0.185
Mof_C 	C 	0.2969	0	0.2969	-0.028
Mof_C 	C 	0.348	0.5	0.848	0.452
Mof_C 	C 	0.2969	0.5	0.7969	-0.068
Mof_C 	C 	0.152	0	0.848	0.33
Mof_C 	C 	0.2031	0	0.7969	-0.068
Mof_C 	C 	0.152	0.5	0.348	0.334
Mof_C 	C 	0.2031	0.5	0.2969	-0.034
Mof_C 	C 	0.652	-2.83509e-33	0.348	0.192
Mof_C 	C 	0.7031	0	0.2969	-0.005
Mof_C 	C 	0.652	0.5	0.848	0.455
Mof_C 	C 	0.7031	0.5	0.7969	-0.051
Mof_C 	C 	0.848	0	0.152	0.33
Mof_C 	C 	0.7969	-1.41754e-33	0.2031	-0.068
Mof_C 	C 	0.848	0.5	0.652	0.455
Mof_C 	C 	0.7969	0.5	0.7031	-0.051
Mof_C 	C 	0.348	0	0.652	0.192
Mof_C 	C 	0.2969	-5.67017e-33	0.7031	-0.005
Mof_C 	C 	0.348	0.5	0.152	0.334
Mof_C 	C 	0.2969	0.5	0.2031	-0.034
Mof_O 	O 	0.0681	0.0681	0.0681	0.412
Mof_O 	O 	0.0507	0.0507	0.0507	-1.308
Mof_H 	H 	0.096	0.096	0.096	-0.167
Mof_O 	O 	0.0681	0.5681	0.5681	2.604
Mof_O 	O 	0.0507	0.5507	0.5507	-3.282
Mof_H 	H 	0.096	0.596	0.596	-0.786
Mof_O 	O 	0.5681	0.0681	0.5681	2.604
Mof_O 	O 	0.5507	0.0507	0.5507	-3.282
Mof_H 	H 	0.596	0.096	0.596	-0.786
Mof_O 	O 	0.5681	0.5681	0.0681	2.604
Mof_O 	O 	0.5507	0.5507	0.0507	-3.282
Mof_H 	H 	0.596	0.596	0.096	-0.786
Mof_O 	O 	0.9319	0.9319	0.0681	1.897
Mof_O 	O 	0.9493	0.9493	0.0507	-2.491
Mof_H 	H 	0.904	0.904	0.096	-0.445
Mof_O 	O 	0.9319	0.4319	0.5681	0.673
Mof_O 	O 	0.9493	0.4493	0.5507	-1.418
Mof_H 	H 	0.904	0.404	0.596	-0.161
Mof_O 	O 	0.4319	0.9319	0.5681	0.673
Mof_O 	O 	0.4493	0.9493	0.5507	-1.418
Mof_H 	H 	0.404	0.904	0.596	-0.161
Mof_O 	O 	0.4319	0.4319	0.0681	2.289
Mof_O 	O 	0.4493	0.4493	0.0507	-2.991
Mof_H 	H 	0.404	0.404	0.096	-0.702
Mof_O 	O 	0.9319	0.0681	0.9319	1.897
Mof_O 	O 	0.9493	0.0507	0.9493	-2.491
Mof_H 	H 	0.904	0.096	0.904	-0.445
Mof_O 	O 	0.9319	0.5681	0.4319	0.673
Mof_O 	O 	0.9493	0.5507	0.4493	-1.418
Mof_H 	H 	0.904	0.596	0.404	-0.161
Mof_O 	O 	0.4319	0.0681	0.4319	2.289
Mof_O 	O 	0.4493	0.0507	0.4493	-2.991
Mof_H 	H 	0.404	0.096	0.404	-0.702
Mof_O 	O 	0.4319	0.5681	0.9319	0.673
Mof_O 	O 	0.4493	0.5507	0.9493	-1.418
Mof_H 	H 	0.404	0.596	0.904	-0.161
Mof_O 	O 	0.0681	0.9319	0.9319	1.897
Mof_O 	O 	0.0507	0.9493	0.9493	-2.491
Mof_H 	H 	0.096	0.904	0.904	-0.445
Mof_O 	O 	0.0681	0.4319	0.4319	2.289
Mof_O 	O 	0.0507	0.4493	0.4493	-2.991
Mof_H 	H 	0.096	0.404	0.404	-0.702
Mof_O 	O 	0.5681	0.9319	0.4319	0.673
Mof_O 	O 	0.5507	0.9493	0.4493	-1.418
Mof_H 	H 	0.596	0.904	0.404	-0.161
Mof_O 	O 	0.5681	0.4319	0.9319	0.673
Mof_O 	O 	0.5507	0.4493	0.9493	-1.418
Mof_H 	H 	0.596	0.404	0.904	-0.161
Mof_O 	O 	0.0681	0.0681	0.9319	3.652
Mof_O 	O 	0.0507	0.0507	0.9493	-4.19
Mof_H 	H 	0.096	0.096	0.904	-1.02
Mof_O 	O 	0.0681	0.5681	0.4319	2.491
Mof_O 	O 	0.0507	0.5507	0.4493	-3.177
Mof_H 	H 	0.096	0.596	0.404	-0.757
Mof_O 	O 	0.5681	0.0681	0.4319	2.491
Mof_O 	O 	0.5507	0.0507	0.4493	-3.177
Mof_H 	H 	0.596	0.096	0.404	-0.757
Mof_O 	O 	0.5681	0.5681	0.9319	0.455
Mof_O 	O 	0.5507	0.5507	0.9493	-1.219
Mof_H 	H 	0.596	0.596	0.904	-0.097
Mof_O 	O 	0.9319	0.9319	0.9319	-4.854
Mof_O 	O 	0.9493	0.9493	0.9493	3.787
Mof_H 	H 	0.904	0.904	0.904	1.557
Mof_O 	O 	0.9319	0.4319	0.4319	0.802
Mof_O 	O 	0.9493	0.4493	0.4493	-1.536
Mof_H 	H 	0.904	0.404	0.404	-0.2
Mof_O 	O 	0.4319	0.9319	0.4319	0.802
Mof_O 	O 	0.4493	0.9493	0.4493	-1.536
Mof_H 	H 	0.404	0.904	0.404	-0.2
Mof_O 	O 	0.4319	0.4319	0.9319	0.802
Mof_O 	O 	0.4493	0.4493	0.9493	-1.536
Mof_H 	H 	0.404	0.404	0.904	-0.2
Mof_O 	O 	0.0681	0.9319	0.0681	3.652
Mof_O 	O 	0.0507	0.9493	0.0507	-4.19
Mof_H 	H 	0.096	0.904	0.096	-1.02
Mof_O 	O 	0.0681	0.4319	0.5681	2.491
Mof_O 	O 	0.0507	0.4493	0.5507	-3.177
Mof_H 	H 	0.096	0.404	0.596	-0.757
Mof_O 	O 	0.5681	0.9319	0.5681	0.455
Mof_O 	O 	0.5507	0.9493	0.5507	-1.219
Mof_H 	H 	0.596	0.904	0.596	-0.097
Mof_O 	O 	0.5681	0.4319	0.0681	2.491
Mof_O 	O 	0.5507	0.4493	0.0507	-3.177
Mof_H 	H 	0.596	0.404	0.096	-0.757
Mof_O 	O 	0.9319	0.0681	0.0681	3.652
Mof_O 	O 	0.9493	0.0507	0.0507	-4.19
Mof_H 	H 	0.904	0.096	0.096	-1.02
Mof_O 	O 	0.9319	0.5681	0.5681	0.455
Mof_O 	O 	0.9493	0.5507	0.5507	-1.219
Mof_H 	H 	0.904	0.596	0.596	-0.097
Mof_O 	O 	0.4319	0.0681	0.5681	2.491
Mof_O 	O 	0.4493	0.0507	0.5507	-3.177
Mof_H 	H 	0.404	0.096	0.596	-0.757
Mof_O 	O 	0.4319	0.5681	0.0681	2.491
Mof_O 	O 	0.4493	0.5507	0.0507	-3.177
Mof_H 	H 	0.404	0.596	0.096	-0.757
_end
