data_functionalizedCrystal
_audit_creation_method	'EQeq! by Chris Wilmer'
_symmetry_space_group_name_H-M	'P1'
_symmetry_Int_Tables_number	1
_symmetry_cell_setting	triclinic
loop_
_symmetry_equiv_pos_as_xyz
  x,y,z
_cell_length_a	13.5136
_cell_length_b	13.5136
_cell_length_c	14.795
_cell_angle_alpha	90
_cell_angle_beta	90
_cell_angle_gamma	120
loop_
_atom_site_label
_atom_site_type_symbol
_atom_site_fract_x
_atom_site_fract_y
_atom_site_fract_z
_atom_site_charge
Mof_La	La	0.66667	0.33334	0.333	2.329
Mof_La	La	0.33333	0.66666	0.167	2.328
Mof_La	La	0.33333	0.66666	0.667	2.336
Mof_La	La	0.66667	0.33334	0.833	2.339
Mof_Cu	Cu	0.5	0	0.5	0.899
Mof_Cu	Cu	0.5	0.5	0.5	0.928
Mof_Cu	Cu	-1.84513e-17	0.5	0.5	0.898
Mof_Cu	Cu	0.5	0	-0	0.873
Mof_Cu	Cu	-4.85873e-17	0.5	-0	0.871
Mof_Cu	Cu	0.5	0.5	-0	0.901
Mof_H 	H 	0.7998	0.1399	0.5348	0.148
Mof_H 	H 	0.753	0.0419	0.455	0.125
Mof_H 	H 	0.7251	0.1886	0.6216	0.154
Mof_H 	H 	0.6705	0.0687	0.6861	0.127
Mof_H 	H 	0.647	0.9752	0.5775	0.16
Mof_H 	H 	0.3401	0.2002	0.5348	0.133
Mof_H 	H 	0.2889	0.247	0.455	0.131
Mof_H 	H 	0.4635	0.2749	0.6216	0.154
Mof_H 	H 	0.3982	0.3295	0.6861	0.144
Mof_H 	H 	0.3282	0.353	0.5775	0.094
Mof_H 	H 	0.8601	0.6599	0.5348	0.165
Mof_H 	H 	0.9581	0.7111	0.455	0.182
Mof_H 	H 	0.8114	0.5365	0.6216	0.165
Mof_H 	H 	0.9313	0.6018	0.6861	0.179
Mof_H 	H 	0.0248	0.6718	0.5775	0.037
Mof_H 	H 	0.6599	0.8601	0.9652	0.264
Mof_H 	H 	0.7111	0.9581	0.045	0.235
Mof_H 	H 	0.5365	0.8114	0.8784	0.176
Mof_H 	H 	0.6018	0.9313	0.8139	0.181
Mof_H 	H 	0.6718	0.0248	0.9225	0.042
Mof_H 	H 	0.1399	0.7998	0.9652	0.249
Mof_H 	H 	0.0419	0.753	0.045	0.179
Mof_H 	H 	0.1886	0.7251	0.8784	0.165
Mof_H 	H 	0.0687	0.6705	0.8139	0.128
Mof_H 	H 	0.9752	0.647	0.9225	0.161
Mof_H 	H 	0.2002	0.3401	0.9652	0.24
Mof_H 	H 	0.247	0.2889	0.045	0.188
Mof_H 	H 	0.2749	0.4635	0.8784	0.165
Mof_H 	H 	0.3295	0.3982	0.8139	0.147
Mof_H 	H 	0.353	0.3282	0.9225	0.094
Mof_H 	H 	0.2002	0.8601	0.4652	0.148
Mof_H 	H 	0.247	0.9581	0.545	0.166
Mof_H 	H 	0.2749	0.8114	0.3784	0.161
Mof_H 	H 	0.3295	0.9313	0.3139	0.172
Mof_H 	H 	0.353	0.0248	0.4225	0.035
Mof_H 	H 	0.6599	0.7998	0.4652	0.164
Mof_H 	H 	0.7111	0.753	0.545	0.161
Mof_H 	H 	0.5365	0.7251	0.3784	0.162
Mof_H 	H 	0.6018	0.6705	0.3139	0.156
Mof_H 	H 	0.6718	0.647	0.4225	0.101
Mof_H 	H 	0.1399	0.3401	0.4652	0.131
Mof_H 	H 	0.0419	0.2889	0.545	0.11
Mof_H 	H 	0.1886	0.4635	0.3784	0.149
Mof_H 	H 	0.0687	0.3982	0.3139	0.118
Mof_H 	H 	0.9752	0.3282	0.4225	0.159
Mof_H 	H 	0.3401	0.1399	0.0348	0.022
Mof_H 	H 	0.2889	0.0419	0.955	0.053
Mof_H 	H 	0.4635	0.1886	0.1216	0.137
Mof_H 	H 	0.3982	0.0687	0.1861	0.115
Mof_H 	H 	0.3282	0.9752	0.0775	0.158
Mof_H 	H 	0.8601	0.2002	0.0348	0.045
Mof_H 	H 	0.9581	0.247	0.955	0.111
Mof_H 	H 	0.8114	0.2749	0.1216	0.149
Mof_H 	H 	0.9313	0.3295	0.1861	0.169
Mof_H 	H 	0.0248	0.353	0.0775	0.033
Mof_H 	H 	0.7998	0.6599	0.0348	0.061
Mof_H 	H 	0.753	0.7111	0.955	0.106
Mof_H 	H 	0.7251	0.5365	0.1216	0.15
Mof_H 	H 	0.6705	0.6018	0.1861	0.151
Mof_H 	H 	0.647	0.6718	0.0775	0.102
Mof_C 	C 	0.7266	0.1802	0.4353	0.393
Mof_C 	C 	0.7431	0.0947	0.4915	-0.335
Mof_C 	C 	0.6661	0.1129	0.6377	-0.379
Mof_C 	C 	0.5591	0.1202	0.6585	0.481
Mof_C 	C 	0.4536	0.2734	0.4353	0.397
Mof_C 	C 	0.3516	0.2569	0.4915	-0.336
Mof_C 	C 	0.4468	0.3339	0.6377	-0.394
Mof_C 	C 	0.5611	0.4409	0.6585	0.489
Mof_C 	C 	0.8198	0.5464	0.4353	0.414
Mof_C 	C 	0.9053	0.6484	0.4915	-0.366
Mof_C 	C 	0.8871	0.5532	0.6377	-0.414
Mof_C 	C 	0.8798	0.4389	0.6585	0.5
Mof_C 	C 	0.5464	0.8198	0.0647	0.461
Mof_C 	C 	0.6484	0.9053	0.0085	-0.57
Mof_C 	C 	0.5532	0.8871	0.8623	-0.423
Mof_C 	C 	0.4389	0.8798	0.8415	0.506
Mof_C 	C 	0.1802	0.7266	0.0647	0.442
Mof_C 	C 	0.0947	0.7431	0.0085	-0.544
Mof_C 	C 	0.1129	0.6661	0.8623	-0.388
Mof_C 	C 	0.1202	0.5591	0.8415	0.487
Mof_C 	C 	0.2734	0.4536	0.0647	0.448
Mof_C 	C 	0.2569	0.3516	0.0085	-0.554
Mof_C 	C 	0.3339	0.4468	0.8623	-0.404
Mof_C 	C 	0.4409	0.5611	0.8415	0.496
Mof_C 	C 	0.2734	0.8198	0.5647	0.409
Mof_C 	C 	0.2569	0.9053	0.5085	-0.355
Mof_C 	C 	0.3339	0.8871	0.3623	-0.411
Mof_C 	C 	0.4409	0.8798	0.3415	0.498
Mof_C 	C 	0.5464	0.7266	0.5647	0.406
Mof_C 	C 	0.6484	0.7431	0.5085	-0.357
Mof_C 	C 	0.5532	0.6661	0.3623	-0.4
Mof_C 	C 	0.4389	0.5591	0.3415	0.491
Mof_C 	C 	0.1802	0.4536	0.5647	0.388
Mof_C 	C 	0.0947	0.3516	0.5085	-0.324
Mof_C 	C 	0.1129	0.4468	0.3623	-0.374
Mof_C 	C 	0.1202	0.5611	0.3415	0.478
Mof_C 	C 	0.4536	0.1802	0.9353	0.336
Mof_C 	C 	0.3516	0.0947	0.9915	-0.1
Mof_C 	C 	0.4468	0.1129	0.1377	-0.36
Mof_C 	C 	0.5611	0.1202	0.1585	0.47
Mof_C 	C 	0.8198	0.2734	0.9353	0.36
Mof_C 	C 	0.9053	0.2569	0.9915	-0.142
Mof_C 	C 	0.8871	0.3339	0.1377	-0.397
Mof_C 	C 	0.8798	0.4409	0.1585	0.49
Mof_C 	C 	0.7266	0.5464	0.9353	0.357
Mof_C 	C 	0.7431	0.6484	0.9915	-0.145
Mof_C 	C 	0.6661	0.5532	0.1377	-0.386
Mof_C 	C 	0.5591	0.4389	0.1585	0.483
Mof_N 	N 	0.6499	0.0388	0.5589	-0.214
Mof_N 	N 	0.3889	0.3501	0.5589	-0.16
Mof_N 	N 	0.9612	0.6111	0.5589	-0.094
Mof_N 	N 	0.6111	0.9612	0.9411	-0.047
Mof_N 	N 	0.0388	0.6499	0.9411	-0.162
Mof_N 	N 	0.3501	0.3889	0.9411	-0.106
Mof_N 	N 	0.3501	0.9612	0.4411	-0.098
Mof_N 	N 	0.6111	0.6499	0.4411	-0.157
Mof_N 	N 	0.0388	0.3889	0.4411	-0.218
Mof_N 	N 	0.3889	0.0388	0.0589	-0.266
Mof_N 	N 	0.9612	0.3501	0.0589	-0.143
Mof_N 	N 	0.6499	0.6111	0.0589	-0.205
Mof_O 	O 	0.6362	0.1841	0.4473	-0.535
Mof_O 	O 	0.8002	0.2406	0.378	-0.417
Mof_O 	O 	0.4745	0.0703	0.6068	-0.458
Mof_O 	O 	0.5621	0.1761	0.7261	-0.544
Mof_O 	O 	0.5479	0.3638	0.4473	-0.532
Mof_O 	O 	0.4404	0.1998	0.378	-0.431
Mof_O 	O 	0.5958	0.5255	0.6068	-0.435
Mof_O 	O 	0.614	0.4379	0.7261	-0.536
Mof_O 	O 	0.8159	0.4521	0.4473	-0.524
Mof_O 	O 	0.7594	0.5596	0.378	-0.419
Mof_O 	O 	0.9297	0.4042	0.6068	-0.407
Mof_O 	O 	0.8239	0.386	0.7261	-0.531
Mof_O 	O 	0.4521	0.8159	0.0527	-0.553
Mof_O 	O 	0.5596	0.7594	0.122	-0.439
Mof_O 	O 	0.4042	0.9297	0.8932	-0.393
Mof_O 	O 	0.386	0.8239	0.7739	-0.53
Mof_O 	O 	0.1841	0.6362	0.0527	-0.564
Mof_O 	O 	0.2406	0.8002	0.122	-0.438
Mof_O 	O 	0.0703	0.4745	0.8932	-0.442
Mof_O 	O 	0.1761	0.5621	0.7739	-0.544
Mof_O 	O 	0.3638	0.5479	0.0527	-0.562
Mof_O 	O 	0.1998	0.4404	0.122	-0.452
Mof_O 	O 	0.5255	0.5958	0.8932	-0.419
Mof_O 	O 	0.4379	0.614	0.7739	-0.535
Mof_O 	O 	0.3638	0.8159	0.5527	-0.525
Mof_O 	O 	0.1998	0.7594	0.622	-0.427
Mof_O 	O 	0.5255	0.9297	0.3932	-0.406
Mof_O 	O 	0.4379	0.8239	0.2739	-0.527
Mof_O 	O 	0.4521	0.6362	0.5527	-0.534
Mof_O 	O 	0.5596	0.8002	0.622	-0.414
Mof_O 	O 	0.4042	0.4745	0.3932	-0.44
Mof_O 	O 	0.386	0.5621	0.2739	-0.537
Mof_O 	O 	0.1841	0.5479	0.5527	-0.535
Mof_O 	O 	0.2406	0.4404	0.622	-0.426
Mof_O 	O 	0.0703	0.5958	0.3932	-0.457
Mof_O 	O 	0.1761	0.614	0.2739	-0.541
Mof_O 	O 	0.5479	0.1841	0.9473	-0.498
Mof_O 	O 	0.4404	0.2406	0.878	-0.404
Mof_O 	O 	0.5958	0.0703	0.1068	-0.463
Mof_O 	O 	0.614	0.1761	0.2261	-0.541
Mof_O 	O 	0.8159	0.3638	0.9473	-0.489
Mof_O 	O 	0.7594	0.1998	0.878	-0.405
Mof_O 	O 	0.9297	0.5255	0.1068	-0.411
Mof_O 	O 	0.8239	0.4379	0.2261	-0.527
Mof_O 	O 	0.6362	0.4521	0.9473	-0.498
Mof_O 	O 	0.8002	0.5596	0.878	-0.392
Mof_O 	O 	0.4745	0.4042	0.1068	-0.447
Mof_O 	O 	0.5621	0.386	0.2261	-0.537
_end
