data_functionalizedCrystal
_audit_creation_method	'EQeq! by Chris Wilmer'
_symmetry_space_group_name_H-M	'P1'
_symmetry_Int_Tables_number	1
_symmetry_cell_setting	triclinic
loop_
_symmetry_equiv_pos_as_xyz
  x,y,z
_cell_length_a	12.056
_cell_length_b	15.987
_cell_length_c	15.383
_cell_angle_alpha	90
_cell_angle_beta	90
_cell_angle_gamma	90
loop_
_atom_site_label
_atom_site_type_symbol
_atom_site_fract_x
_atom_site_fract_y
_atom_site_fract_z
_atom_site_charge
Mof_Zn	Zn	0.02506	0.94767	0.81324	1.214
Mof_Zn	Zn	0.97494	0.55233	0.81324	1.247
Mof_Zn	Zn	0.52506	0.55233	0.68676	1.233
Mof_Zn	Zn	0.47494	0.94767	0.68676	1.231
Mof_Zn	Zn	0.97494	0.05233	0.18676	1.241
Mof_Zn	Zn	0.02506	0.44767	0.18676	1.22
Mof_Zn	Zn	0.47494	0.44767	0.31324	1.234
Mof_Zn	Zn	0.52506	0.05233	0.31324	1.233
Mof_Zn	Zn	0.25	0.84106	0.75	1.238
Mof_Zn	Zn	0.75	0.65894	0.75	1.239
Mof_Zn	Zn	0.75	0.15894	0.25	1.239
Mof_Zn	Zn	0.25	0.34106	0.25	1.238
Mof_Zn	Zn	3.02009e-33	0.25	0.18636	1.211
Mof_Zn	Zn	0.5	0.25	0.31364	1.228
Mof_Zn	Zn	2.94349e-32	0.75	0.81364	1.207
Mof_Zn	Zn	0.5	0.75	0.68636	1.228
Mof_H 	H 	0.967	0.0875	0.5743	0.132
Mof_H 	H 	0.9723	0.156	0.4448	0.11
Mof_H 	H 	0.033	0.4125	0.5743	0.004
Mof_H 	H 	0.0277	0.344	0.4448	-0.007
Mof_H 	H 	0.467	0.4125	0.9257	0.069
Mof_H 	H 	0.4723	0.344	0.0552	0.055
Mof_H 	H 	0.533	0.0875	0.9257	0.068
Mof_H 	H 	0.5277	0.156	0.0552	0.06
Mof_H 	H 	0.033	0.9125	0.4257	-0.005
Mof_H 	H 	0.0277	0.844	0.5552	-0.02
Mof_H 	H 	0.967	0.5875	0.4257	0.142
Mof_H 	H 	0.9723	0.656	0.5552	0.124
Mof_H 	H 	0.533	0.5875	0.0743	0.072
Mof_H 	H 	0.5277	0.656	0.9448	0.055
Mof_H 	H 	0.467	0.9125	0.0743	0.065
Mof_H 	H 	0.4723	0.844	0.9448	0.059
Mof_C 	C 	0.0328	0.0889	0.5429	-0.095
Mof_C 	C 	0.1264	0.0468	0.575	-0.026
Mof_C 	C 	0.1171	0.9937	0.6546	0.346
Mof_C 	C 	0.2269	0.0488	0.5267	-0.016
Mof_C 	C 	0.2308	0.1008	0.4502	-0.015
Mof_C 	C 	0.3424	0.1112	0.4062	0.342
Mof_C 	C 	0.1366	0.1401	0.4201	-0.057
Mof_C 	C 	0.1339	0.1937	0.3405	0.388
Mof_C 	C 	0.0367	0.1318	0.4666	-0.074
Mof_C 	C 	0.3255	0.9976	0.5524	0.307
Mof_C 	C 	0.9672	0.4111	0.5429	0.068
Mof_C 	C 	0.8736	0.4532	0.575	-0.077
Mof_C 	C 	0.8829	0.5063	0.6546	0.401
Mof_C 	C 	0.7731	0.4512	0.5267	-0.008
Mof_C 	C 	0.7692	0.3992	0.4502	-0.005
Mof_C 	C 	0.6576	0.3888	0.4062	0.338
Mof_C 	C 	0.8634	0.3599	0.4201	-0.086
Mof_C 	C 	0.8661	0.3063	0.3405	0.407
Mof_C 	C 	0.9633	0.3682	0.4666	0.064
Mof_C 	C 	0.6745	0.5024	0.5524	0.316
Mof_C 	C 	0.5328	0.4111	0.9571	-0.011
Mof_C 	C 	0.6264	0.4532	0.925	-0.061
Mof_C 	C 	0.6171	0.5063	0.8454	0.389
Mof_C 	C 	0.7269	0.4512	0.9733	-0.01
Mof_C 	C 	0.7308	0.3992	0.0498	-0.008
Mof_C 	C 	0.8424	0.3888	0.0938	0.335
Mof_C 	C 	0.6366	0.3599	0.0799	-0.07
Mof_C 	C 	0.6339	0.3063	0.1595	0.398
Mof_C 	C 	0.5367	0.3682	0.0334	-0.013
Mof_C 	C 	0.8255	0.5024	0.9476	0.315
Mof_C 	C 	0.4672	0.0889	0.9571	-0.001
Mof_C 	C 	0.3736	0.0468	0.925	-0.059
Mof_C 	C 	0.3829	0.9937	0.8454	0.372
Mof_C 	C 	0.2731	0.0488	0.9733	0.012
Mof_C 	C 	0.2692	0.1008	0.0498	-0.031
Mof_C 	C 	0.1576	0.1112	0.0938	0.35
Mof_C 	C 	0.3634	0.1401	0.0799	-0.059
Mof_C 	C 	0.3661	0.1937	0.1595	0.394
Mof_C 	C 	0.4633	0.1318	0.0334	-0.029
Mof_C 	C 	0.1745	0.9976	0.9476	0.283
Mof_C 	C 	0.9672	0.9111	0.4571	0.073
Mof_C 	C 	0.8736	0.9532	0.425	-0.067
Mof_C 	C 	0.8829	0.0063	0.3454	0.379
Mof_C 	C 	0.7731	0.9512	0.4733	-0.008
Mof_C 	C 	0.7692	0.8992	0.5498	-0.003
Mof_C 	C 	0.6576	0.8888	0.5938	0.338
Mof_C 	C 	0.8634	0.8599	0.5799	-0.091
Mof_C 	C 	0.8661	0.8063	0.6595	0.41
Mof_C 	C 	0.9633	0.8682	0.5334	0.082
Mof_C 	C 	0.6745	0.0024	0.4476	0.31
Mof_C 	C 	0.0328	0.5889	0.4571	-0.101
Mof_C 	C 	0.1264	0.5468	0.425	-0.04
Mof_C 	C 	0.1171	0.4937	0.3454	0.375
Mof_C 	C 	0.2269	0.5488	0.4733	-0.02
Mof_C 	C 	0.2308	0.6008	0.5498	-0.016
Mof_C 	C 	0.3424	0.6112	0.5938	0.342
Mof_C 	C 	0.1366	0.6401	0.5799	-0.051
Mof_C 	C 	0.1339	0.6937	0.6595	0.386
Mof_C 	C 	0.0367	0.6318	0.5334	-0.094
Mof_C 	C 	0.3255	0.4976	0.4476	0.319
Mof_C 	C 	0.4672	0.5889	0.0429	-0.013
Mof_C 	C 	0.3736	0.5468	0.075	-0.06
Mof_C 	C 	0.3829	0.4937	0.1546	0.388
Mof_C 	C 	0.2731	0.5488	0.0267	-0.015
Mof_C 	C 	0.2692	0.6008	0.9502	-0.016
Mof_C 	C 	0.1576	0.6112	0.9062	0.345
Mof_C 	C 	0.3634	0.6401	0.9201	-0.068
Mof_C 	C 	0.3661	0.6937	0.8405	0.397
Mof_C 	C 	0.4633	0.6318	0.9666	-0.014
Mof_C 	C 	0.1745	0.4976	0.0524	0.32
Mof_C 	C 	0.5328	0.9111	0.0429	0.003
Mof_C 	C 	0.6264	0.9532	0.075	-0.064
Mof_C 	C 	0.6171	0.0063	0.1546	0.381
Mof_C 	C 	0.7269	0.9512	0.0267	0.014
Mof_C 	C 	0.7308	0.8992	0.9502	-0.023
Mof_C 	C 	0.8424	0.8888	0.9062	0.339
Mof_C 	C 	0.6366	0.8599	0.9201	-0.06
Mof_C 	C 	0.6339	0.8063	0.8405	0.394
Mof_C 	C 	0.5367	0.8682	0.9666	-0.03
Mof_C 	C 	0.8255	0.0024	0.0524	0.285
Mof_O 	O 	0.0371	0.0112	0.7053	-0.447
Mof_O 	O 	0.1865	0.939	0.6671	-0.442
Mof_O 	O 	0.3423	0.9305	0.5161	-0.24
Mof_O 	O 	0.3872	0.028	0.612	-0.378
Mof_O 	O 	0.3724	0.0502	0.3586	-0.422
Mof_O 	O 	0.3949	0.1763	0.4176	-0.364
Mof_O 	O 	0.1947	0.2581	0.3428	-0.432
Mof_O 	O 	0.0698	0.1734	0.2803	-0.532
Mof_O 	O 	0.3906	0.8434	0.6728	-0.619
Mof_O 	O 	0.9629	0.4888	0.7053	-0.417
Mof_O 	O 	0.8135	0.561	0.6671	-0.446
Mof_O 	O 	0.6577	0.5695	0.5161	-0.237
Mof_O 	O 	0.6128	0.472	0.612	-0.385
Mof_O 	O 	0.6276	0.4498	0.3586	-0.418
Mof_O 	O 	0.6051	0.3237	0.4176	-0.363
Mof_O 	O 	0.8053	0.2419	0.3428	-0.429
Mof_O 	O 	0.9302	0.3266	0.2803	-0.483
Mof_O 	O 	0.6094	0.6566	0.6728	-0.617
Mof_O 	O 	0.5371	0.4888	0.7947	-0.443
Mof_O 	O 	0.6865	0.561	0.8329	-0.447
Mof_O 	O 	0.8423	0.5695	0.9839	-0.226
Mof_O 	O 	0.8872	0.472	0.888	-0.369
Mof_O 	O 	0.8724	0.4498	0.1414	-0.397
Mof_O 	O 	0.8949	0.3237	0.0824	-0.341
Mof_O 	O 	0.6947	0.2419	0.1572	-0.43
Mof_O 	O 	0.5698	0.3266	0.2197	-0.511
Mof_O 	O 	0.8906	0.6566	0.8272	-0.595
Mof_O 	O 	0.4629	0.0112	0.7947	-0.432
Mof_O 	O 	0.3135	0.939	0.8329	-0.446
Mof_O 	O 	0.1577	0.9305	0.9839	-0.25
Mof_O 	O 	0.1128	0.028	0.888	-0.378
Mof_O 	O 	0.1276	0.0502	0.1414	-0.442
Mof_O 	O 	0.1051	0.1763	0.0824	-0.384
Mof_O 	O 	0.3053	0.2581	0.1572	-0.43
Mof_O 	O 	0.4302	0.1734	0.2197	-0.51
Mof_O 	O 	0.1094	0.8434	0.8272	-0.635
Mof_O 	O 	0.9629	0.9888	0.2947	-0.403
Mof_O 	O 	0.8135	0.061	0.3329	-0.442
Mof_O 	O 	0.6577	0.0695	0.4839	-0.237
Mof_O 	O 	0.6128	0.972	0.388	-0.381
Mof_O 	O 	0.6276	0.9498	0.6414	-0.419
Mof_O 	O 	0.6051	0.8237	0.5824	-0.363
Mof_O 	O 	0.8053	0.7419	0.6572	-0.428
Mof_O 	O 	0.9302	0.8266	0.7197	-0.479
Mof_O 	O 	0.6094	0.1566	0.3272	-0.617
Mof_O 	O 	0.0371	0.5112	0.2947	-0.467
Mof_O 	O 	0.1865	0.439	0.3329	-0.447
Mof_O 	O 	0.3423	0.4305	0.4839	-0.242
Mof_O 	O 	0.3872	0.528	0.388	-0.387
Mof_O 	O 	0.3724	0.5502	0.6414	-0.423
Mof_O 	O 	0.3949	0.6763	0.5824	-0.365
Mof_O 	O 	0.1947	0.7581	0.6572	-0.432
Mof_O 	O 	0.0698	0.6734	0.7197	-0.535
Mof_O 	O 	0.3906	0.3434	0.3272	-0.618
Mof_O 	O 	0.4629	0.5112	0.2053	-0.442
Mof_O 	O 	0.3135	0.439	0.1671	-0.447
Mof_O 	O 	0.1577	0.4305	0.0161	-0.254
Mof_O 	O 	0.1128	0.528	0.112	-0.401
Mof_O 	O 	0.1276	0.5502	0.8586	-0.444
Mof_O 	O 	0.1051	0.6763	0.9176	-0.386
Mof_O 	O 	0.3053	0.7581	0.8428	-0.432
Mof_O 	O 	0.4302	0.6734	0.7803	-0.511
Mof_O 	O 	0.1094	0.3434	0.1728	-0.631
Mof_O 	O 	0.5371	0.9888	0.2053	-0.438
Mof_O 	O 	0.6865	0.061	0.1671	-0.447
Mof_O 	O 	0.8423	0.0695	0.0161	-0.223
Mof_O 	O 	0.8872	0.972	0.112	-0.351
Mof_O 	O 	0.8724	0.9498	0.8586	-0.397
Mof_O 	O 	0.8949	0.8237	0.9176	-0.339
Mof_O 	O 	0.6947	0.7419	0.8428	-0.429
Mof_O 	O 	0.5698	0.8266	0.7803	-0.51
Mof_O 	O 	0.8906	0.1566	0.1728	-0.6
_end
