data_functionalizedCrystal
_audit_creation_method	'EQeq! by Chris Wilmer'
_symmetry_space_group_name_H-M	'P1'
_symmetry_Int_Tables_number	1
_symmetry_cell_setting	triclinic
loop_
_symmetry_equiv_pos_as_xyz
  x,y,z
_cell_length_a	13.5396
_cell_length_b	30.438
_cell_length_c	15.7217
_cell_angle_alpha	90
_cell_angle_beta	110.535
_cell_angle_gamma	90
loop_
_atom_site_label
_atom_site_type_symbol
_atom_site_fract_x
_atom_site_fract_y
_atom_site_fract_z
_atom_site_charge
Mof_Zn	Zn	0.4757	0.05073	0.85948	1.16
Mof_Zn	Zn	0.33333	0.08294	0.29189	1.202
Mof_Zn	Zn	0.61372	0.02324	0.43044	1.216
Mof_S 	S 	0.22681	0.80975	0.72576	0.561
Mof_S 	S 	0.21429	0.21569	0.51121	0.728
Mof_P 	P 	0.49392	0.9518	0.78262	0.448
Mof_P 	P 	0.44306	0.06752	0.49939	0.453
Mof_N 	N 	0.771	0.0282	0.5027	-0.267
Mof_N 	N 	0.315	0.04646	0.7646	-0.26
Mof_N 	N 	0.635	0.05574	0.9539	-0.265
Mof_N 	N 	0.1762	0.08028	0.2195	-0.271
Mof_N 	N 	0.4603	0.12298	0.8602	-0.264
Mof_N 	N 	0.3721	0.35208	0.8029	-0.28
Mof_C 	C 	0.3502	0.83428	0.7873	-0.126
Mof_C 	C 	0.4254	0.81118	0.8545	0.059
Mof_H 	H 	0.4108	0.783	0.8695	0.024
Mof_C 	C 	0.5226	0.83002	0.8997	-0.122
Mof_H 	H 	0.5738	0.8144	0.9448	0.09
Mof_C 	C 	0.5439	0.87244	0.8778	0.033
Mof_H 	H 	0.61	0.8847	0.9074	0.009
Mof_C 	C 	0.4671	0.8966	0.812	-0.123
Mof_C 	C 	0.3699	0.87719	0.7665	0.049
Mof_H 	H 	0.3179	0.8929	0.7221	0.027
Mof_C 	C 	0.4358	0.1228	0.5385	-0.131
Mof_C 	C 	0.5265	0.14479	0.5921	0.064
Mof_H 	H 	0.5918	0.1311	0.6068	0.017
Mof_C 	C 	0.5204	0.18683	0.6239	-0.154
Mof_H 	H 	0.581	0.2008	0.6615	0.098
Mof_C 	C 	0.4241	0.20782	0.5996	0.103
Mof_H 	H 	0.42	0.2362	0.62	0.014
Mof_C 	C 	0.3361	0.18722	0.5463	-0.175
Mof_C 	C 	0.3402	0.14436	0.5152	0.081
Mof_H 	H 	0.2786	0.1305	0.4789	0.009
Mof_C 	C 	0.8184	0.06727	0.521	0.088
Mof_H 	H 	0.7779	0.0923	0.4999	-0.007
Mof_C 	C 	0.9249	0.07233	0.5699	-0.142
Mof_H 	H 	0.9552	0.1002	0.5799	0.097
Mof_C 	C 	0.9858	0.03536	0.6036	0.064
Mof_C 	C 	0.9371	0.9948	0.5842	-0.139
Mof_H 	H 	0.9759	0.9692	0.6045	0.082
Mof_C 	C 	0.8306	0.99245	0.5346	0.077
Mof_H 	H 	0.7988	0.9649	0.5228	-0.006
Mof_C 	C 	0.1006	0.03878	0.6573	0.054
Mof_C 	C 	0.1631	0.07254	0.6427	-0.137
Mof_H 	H 	0.1341	0.0932	0.5973	0.092
Mof_C 	C 	0.2691	0.07464	0.697	0.074
Mof_H 	H 	0.3102	0.0968	0.6857	-0.007
Mof_C 	C 	0.255	0.0137	0.7774	0.066
Mof_H 	H 	0.2862	0.9932	0.8227	-0.01
Mof_C 	C 	0.1489	0.0091	0.726	-0.13
Mof_H 	H 	0.1102	0.9861	0.7377	0.077
Mof_C 	C 	0.7105	0.03177	0.9393	0.06
Mof_H 	H 	0.691	0.0111	0.8928	-0.008
Mof_C 	C 	0.8163	0.0365	0.9905	-0.132
Mof_H 	H 	0.8661	0.0192	0.978	0.072
Mof_C 	C 	0.8483	0.06695	0.0605	0.058
Mof_C 	C 	0.7695	0.09116	0.0776	-0.138
Mof_H 	H 	0.7868	0.1115	0.1248	0.098
Mof_C 	C 	0.6654	0.0844	0.0231	0.079
Mof_H 	H 	0.6136	0.1006	0.0352	-0.012
Mof_C 	C 	0.9621	0.07285	0.1156	0.063
Mof_C 	C 	0.0395	0.06368	0.0786	-0.135
Mof_H 	H 	0.0206	0.055	0.0183	0.076
Mof_C 	C 	0.1445	0.06759	0.1323	0.075
Mof_H 	H 	0.1954	0.0611	0.107	-0.014
Mof_C 	C 	0.1021	0.09052	0.2543	0.086
Mof_H 	H 	0.1232	0.1001	0.3143	-0.006
Mof_C 	C 	0.995	0.08747	0.2047	-0.135
Mof_H 	H 	0.9458	0.0952	0.231	0.092
Mof_C 	C 	0.5359	0.14997	0.8535	0.086
Mof_H 	H 	0.5987	0.1375	0.8538	-0.018
Mof_C 	C 	0.5259	0.19526	0.8462	-0.146
Mof_H 	H 	0.581	0.2126	0.8429	0.097
Mof_C 	C 	0.4316	0.21422	0.8438	0.071
Mof_C 	C 	0.3531	0.1867	0.8521	-0.146
Mof_H 	H 	0.2892	0.1983	0.8513	0.107
Mof_C 	C 	0.3716	0.14214	0.8615	0.09
Mof_H 	H 	0.3197	0.1243	0.8693	-0.02
Mof_C 	C 	0.4124	0.26211	0.8293	0.069
Mof_C 	C 	0.4913	0.29315	0.8672	-0.144
Mof_H 	H 	0.5591	0.2842	0.9021	0.094
Mof_C 	C 	0.4678	0.33727	0.8523	0.099
Mof_H 	H 	0.5213	0.3576	0.878	-0.024
Mof_C 	C 	0.2966	0.32229	0.7658	0.094
Mof_H 	H 	0.2297	0.3322	0.7309	-0.006
Mof_C 	C 	0.3128	0.27757	0.7767	-0.133
Mof_H 	H 	0.258	0.258	0.7493	0.111
Mof_O 	O 	0.4076	0.96162	0.6924	-0.489
Mof_O 	O 	0.60476	0.95115	0.77744	-0.496
Mof_O 	O 	0.49013	0.98241	0.85827	-0.442
Mof_O 	O 	0.1649	0.8144	0.7802	-0.26
Mof_O 	O 	0.1862	0.8314	0.6421	-0.262
Mof_O 	O 	0.2498	0.7653	0.713	-0.259
Mof_O 	O 	0.5498	0.06418	0.4892	-0.488
Mof_O 	O 	0.3512	0.06022	0.41082	-0.497
Mof_O 	O 	0.4311	0.03731	0.57253	-0.471
Mof_O 	O 	0.1716	0.2054	0.5738	-0.293
Mof_O 	O 	0.1515	0.1982	0.4295	-0.299
Mof_O 	O 	0.229	0.2561	0.551	-0.222
Mof_O 	O 	0.2402	0.2598	0.4788	-0.182
Mof_Zn	Zn	0.5243	0.55073	0.64052	1.16
Mof_Zn	Zn	0.66667	0.58294	0.20811	1.202
Mof_Zn	Zn	0.38628	0.52324	0.06956	1.216
Mof_S 	S 	0.77319	0.30975	0.77424	0.561
Mof_S 	S 	0.78571	0.71569	0.98879	0.725
Mof_P 	P 	0.50608	0.4518	0.71738	0.448
Mof_P 	P 	0.55694	0.56752	0.00061	0.453
Mof_N 	N 	0.229	0.5282	0.9973	-0.267
Mof_N 	N 	0.685	0.54646	0.7354	-0.26
Mof_N 	N 	0.365	0.55574	0.5461	-0.264
Mof_N 	N 	0.8238	0.58028	0.2805	-0.272
Mof_N 	N 	0.5397	0.62298	0.6398	-0.264
Mof_N 	N 	0.6279	0.85208	0.6971	-0.28
Mof_C 	C 	0.6498	0.33428	0.7127	-0.126
Mof_C 	C 	0.5746	0.31118	0.6455	0.059
Mof_H 	H 	0.5892	0.283	0.6305	0.024
Mof_C 	C 	0.4774	0.33002	0.6003	-0.122
Mof_H 	H 	0.4262	0.3144	0.5552	0.09
Mof_C 	C 	0.4561	0.37244	0.6222	0.033
Mof_H 	H 	0.39	0.3847	0.5926	0.01
Mof_C 	C 	0.5329	0.3966	0.688	-0.123
Mof_C 	C 	0.6301	0.37719	0.7335	0.049
Mof_H 	H 	0.6821	0.3929	0.7779	0.027
Mof_C 	C 	0.5642	0.6228	0.9615	-0.13
Mof_C 	C 	0.4735	0.64479	0.9079	0.063
Mof_H 	H 	0.4082	0.6311	0.8932	0.017
Mof_C 	C 	0.4796	0.68683	0.8761	-0.153
Mof_H 	H 	0.419	0.7008	0.8385	0.097
Mof_C 	C 	0.5759	0.70782	0.9004	0.102
Mof_H 	H 	0.58	0.7362	0.88	0.014
Mof_C 	C 	0.6639	0.68722	0.9537	-0.173
Mof_C 	C 	0.6598	0.64436	0.9848	0.079
Mof_H 	H 	0.7214	0.6305	0.0211	0.01
Mof_C 	C 	0.1816	0.56727	0.979	0.09
Mof_H 	H 	0.2221	0.5923	0.0001	-0.008
Mof_C 	C 	0.0751	0.57233	0.9301	-0.145
Mof_H 	H 	0.0448	0.6002	0.9201	0.098
Mof_C 	C 	0.0142	0.53536	0.8964	0.068
Mof_C 	C 	0.0629	0.4948	0.9158	-0.141
Mof_H 	H 	0.0241	0.4692	0.8955	0.083
Mof_C 	C 	0.1694	0.49245	0.9654	0.078
Mof_H 	H 	0.2012	0.4649	0.9772	-0.006
Mof_C 	C 	0.8994	0.53878	0.8427	0.051
Mof_C 	C 	0.8369	0.57254	0.8573	-0.135
Mof_H 	H 	0.8659	0.5932	0.9027	0.091
Mof_C 	C 	0.7309	0.57464	0.803	0.074
Mof_H 	H 	0.6898	0.5968	0.8143	-0.007
Mof_C 	C 	0.745	0.5137	0.7226	0.065
Mof_H 	H 	0.7138	0.4932	0.6773	-0.009
Mof_C 	C 	0.8511	0.5091	0.774	-0.129
Mof_H 	H 	0.8898	0.4861	0.7623	0.076
Mof_C 	C 	0.2895	0.53177	0.5607	0.06
Mof_H 	H 	0.309	0.5111	0.6072	-0.008
Mof_C 	C 	0.1837	0.5365	0.5095	-0.131
Mof_H 	H 	0.1339	0.5192	0.522	0.071
Mof_C 	C 	0.1517	0.56695	0.4395	0.056
Mof_C 	C 	0.2305	0.59116	0.4224	-0.137
Mof_H 	H 	0.2132	0.6115	0.3752	0.097
Mof_C 	C 	0.3346	0.5844	0.4769	0.078
Mof_H 	H 	0.3864	0.6006	0.4648	-0.011
Mof_C 	C 	0.0379	0.57285	0.3844	0.063
Mof_C 	C 	0.9605	0.56368	0.4214	-0.134
Mof_H 	H 	0.9794	0.555	0.4817	0.076
Mof_C 	C 	0.8555	0.56759	0.3677	0.075
Mof_H 	H 	0.8046	0.5611	0.393	-0.014
Mof_C 	C 	0.8979	0.59052	0.2457	0.088
Mof_H 	H 	0.8768	0.6001	0.1857	-0.006
Mof_C 	C 	0.005	0.58747	0.2953	-0.137
Mof_H 	H 	0.0542	0.5952	0.269	0.092
Mof_C 	C 	0.4641	0.64997	0.6465	0.086
Mof_H 	H 	0.4013	0.6375	0.6462	-0.018
Mof_C 	C 	0.4741	0.69526	0.6538	-0.146
Mof_H 	H 	0.419	0.7126	0.6571	0.097
Mof_C 	C 	0.5684	0.71422	0.6562	0.071
Mof_C 	C 	0.6469	0.6867	0.6479	-0.146
Mof_H 	H 	0.7108	0.6983	0.6487	0.107
Mof_C 	C 	0.6284	0.64214	0.6385	0.09
Mof_H 	H 	0.6803	0.6243	0.6307	-0.021
Mof_C 	C 	0.5876	0.76211	0.6707	0.069
Mof_C 	C 	0.5087	0.79315	0.6328	-0.144
Mof_H 	H 	0.4409	0.7842	0.5979	0.094
Mof_C 	C 	0.5322	0.83727	0.6477	0.099
Mof_H 	H 	0.4787	0.8576	0.622	-0.024
Mof_C 	C 	0.7034	0.82229	0.7342	0.094
Mof_H 	H 	0.7703	0.8322	0.7691	-0.006
Mof_C 	C 	0.6872	0.77757	0.7233	-0.133
Mof_H 	H 	0.742	0.758	0.7507	0.111
Mof_O 	O 	0.5924	0.46162	0.8076	-0.489
Mof_O 	O 	0.39524	0.45115	0.72256	-0.496
Mof_O 	O 	0.50987	0.48241	0.64173	-0.442
Mof_O 	O 	0.8351	0.3144	0.7198	-0.26
Mof_O 	O 	0.8138	0.3314	0.8579	-0.263
Mof_O 	O 	0.7502	0.2653	0.787	-0.259
Mof_O 	O 	0.4502	0.56418	0.0108	-0.488
Mof_O 	O 	0.6488	0.56022	0.08918	-0.497
Mof_O 	O 	0.5689	0.53731	0.92747	-0.471
Mof_O 	O 	0.8284	0.7054	0.9262	-0.293
Mof_O 	O 	0.8485	0.6982	0.0705	-0.297
Mof_O 	O 	0.771	0.7561	0.949	-0.222
Mof_O 	O 	0.7598	0.7598	0.0212	-0.18
Mof_Zn	Zn	0.5243	0.94927	0.14052	1.16
Mof_Zn	Zn	0.66667	0.91706	0.70811	1.202
Mof_Zn	Zn	0.38628	0.97676	0.56956	1.216
Mof_S 	S 	0.77319	0.19025	0.27424	0.561
Mof_S 	S 	0.78571	0.78431	0.48879	0.728
Mof_P 	P 	0.50608	0.0482	0.21738	0.448
Mof_P 	P 	0.55694	0.93248	0.50061	0.453
Mof_N 	N 	0.229	0.9718	0.4973	-0.267
Mof_N 	N 	0.685	0.95354	0.2354	-0.26
Mof_N 	N 	0.365	0.94426	0.0461	-0.265
Mof_N 	N 	0.8238	0.91972	0.7805	-0.271
Mof_N 	N 	0.5397	0.87702	0.1398	-0.264
Mof_N 	N 	0.6279	0.64792	0.1971	-0.28
Mof_C 	C 	0.6498	0.16572	0.2127	-0.126
Mof_C 	C 	0.5746	0.18882	0.1455	0.059
Mof_H 	H 	0.5892	0.217	0.1305	0.024
Mof_C 	C 	0.4774	0.16998	0.1003	-0.122
Mof_H 	H 	0.4262	0.1856	0.0552	0.09
Mof_C 	C 	0.4561	0.12756	0.1222	0.033
Mof_H 	H 	0.39	0.1153	0.0926	0.009
Mof_C 	C 	0.5329	0.1034	0.188	-0.123
Mof_C 	C 	0.6301	0.12281	0.2335	0.049
Mof_H 	H 	0.6821	0.1071	0.2779	0.027
Mof_C 	C 	0.5642	0.8772	0.4615	-0.131
Mof_C 	C 	0.4735	0.85521	0.4079	0.064
Mof_H 	H 	0.4082	0.8689	0.3932	0.017
Mof_C 	C 	0.4796	0.81317	0.3761	-0.154
Mof_H 	H 	0.419	0.7992	0.3385	0.098
Mof_C 	C 	0.5759	0.79218	0.4004	0.103
Mof_H 	H 	0.58	0.7638	0.38	0.014
Mof_C 	C 	0.6639	0.81278	0.4537	-0.175
Mof_C 	C 	0.6598	0.85564	0.4848	0.081
Mof_H 	H 	0.7214	0.8695	0.5211	0.009
Mof_C 	C 	0.1816	0.93273	0.479	0.088
Mof_H 	H 	0.2221	0.9077	0.5001	-0.007
Mof_C 	C 	0.0751	0.92767	0.4301	-0.142
Mof_H 	H 	0.0448	0.8998	0.4201	0.097
Mof_C 	C 	0.0142	0.96464	0.3964	0.064
Mof_C 	C 	0.0629	0.0052	0.4158	-0.139
Mof_H 	H 	0.0241	0.0308	0.3955	0.082
Mof_C 	C 	0.1694	0.00755	0.4654	0.077
Mof_H 	H 	0.2012	0.0351	0.4772	-0.006
Mof_C 	C 	0.8994	0.96122	0.3427	0.054
Mof_C 	C 	0.8369	0.92746	0.3573	-0.137
Mof_H 	H 	0.8659	0.9068	0.4027	0.092
Mof_C 	C 	0.7309	0.92536	0.303	0.074
Mof_H 	H 	0.6898	0.9032	0.3143	-0.007
Mof_C 	C 	0.745	0.9863	0.2226	0.066
Mof_H 	H 	0.7138	0.0068	0.1773	-0.01
Mof_C 	C 	0.8511	0.9909	0.274	-0.13
Mof_H 	H 	0.8898	0.0139	0.2623	0.077
Mof_C 	C 	0.2895	0.96823	0.0607	0.06
Mof_H 	H 	0.309	0.9889	0.1072	-0.008
Mof_C 	C 	0.1837	0.9635	0.0095	-0.132
Mof_H 	H 	0.1339	0.9808	0.022	0.072
Mof_C 	C 	0.1517	0.93305	0.9395	0.058
Mof_C 	C 	0.2305	0.90884	0.9224	-0.138
Mof_H 	H 	0.2132	0.8885	0.8752	0.098
Mof_C 	C 	0.3346	0.9156	0.9769	0.079
Mof_H 	H 	0.3864	0.8994	0.9648	-0.012
Mof_C 	C 	0.0379	0.92715	0.8844	0.063
Mof_C 	C 	0.9605	0.93632	0.9214	-0.135
Mof_H 	H 	0.9794	0.945	0.9817	0.076
Mof_C 	C 	0.8555	0.93241	0.8677	0.075
Mof_H 	H 	0.8046	0.9389	0.893	-0.014
Mof_C 	C 	0.8979	0.90948	0.7457	0.086
Mof_H 	H 	0.8768	0.8999	0.6857	-0.006
Mof_C 	C 	0.005	0.91253	0.7953	-0.135
Mof_H 	H 	0.0542	0.9048	0.769	0.092
Mof_C 	C 	0.4641	0.85003	0.1465	0.086
Mof_H 	H 	0.4013	0.8625	0.1462	-0.018
Mof_C 	C 	0.4741	0.80474	0.1538	-0.146
Mof_H 	H 	0.419	0.7874	0.1571	0.097
Mof_C 	C 	0.5684	0.78578	0.1562	0.071
Mof_C 	C 	0.6469	0.8133	0.1479	-0.146
Mof_H 	H 	0.7108	0.8017	0.1487	0.107
Mof_C 	C 	0.6284	0.85786	0.1385	0.09
Mof_H 	H 	0.6803	0.8757	0.1307	-0.02
Mof_C 	C 	0.5876	0.73789	0.1707	0.069
Mof_C 	C 	0.5087	0.70685	0.1328	-0.144
Mof_H 	H 	0.4409	0.7158	0.0979	0.094
Mof_C 	C 	0.5322	0.66273	0.1477	0.099
Mof_H 	H 	0.4787	0.6424	0.122	-0.024
Mof_C 	C 	0.7034	0.67771	0.2342	0.094
Mof_H 	H 	0.7703	0.6678	0.2691	-0.006
Mof_C 	C 	0.6872	0.72243	0.2233	-0.133
Mof_H 	H 	0.742	0.742	0.2507	0.111
Mof_O 	O 	0.5924	0.03838	0.3076	-0.489
Mof_O 	O 	0.39524	0.04885	0.22256	-0.496
Mof_O 	O 	0.50987	0.01759	0.14173	-0.442
Mof_O 	O 	0.8351	0.1856	0.2198	-0.26
Mof_O 	O 	0.8138	0.1686	0.3579	-0.262
Mof_O 	O 	0.7502	0.2347	0.287	-0.259
Mof_O 	O 	0.4502	0.93582	0.5108	-0.488
Mof_O 	O 	0.6488	0.93978	0.58918	-0.497
Mof_O 	O 	0.5689	0.96269	0.42747	-0.471
Mof_O 	O 	0.8284	0.7946	0.4262	-0.293
Mof_O 	O 	0.8485	0.8018	0.5705	-0.299
Mof_O 	O 	0.771	0.7439	0.449	-0.222
Mof_O 	O 	0.7598	0.7402	0.5212	-0.182
Mof_Zn	Zn	0.4757	0.44927	0.35948	1.16
Mof_Zn	Zn	0.33333	0.41706	0.79189	1.202
Mof_Zn	Zn	0.61372	0.47676	0.93044	1.216
Mof_S 	S 	0.22681	0.69025	0.22576	0.561
Mof_S 	S 	0.21429	0.28431	0.01121	0.725
Mof_P 	P 	0.49392	0.5482	0.28262	0.448
Mof_P 	P 	0.44306	0.43248	0.99939	0.453
Mof_N 	N 	0.771	0.4718	0.0027	-0.267
Mof_N 	N 	0.315	0.45354	0.2646	-0.26
Mof_N 	N 	0.635	0.44426	0.4539	-0.264
Mof_N 	N 	0.1762	0.41972	0.7195	-0.272
Mof_N 	N 	0.4603	0.37702	0.3602	-0.264
Mof_N 	N 	0.3721	0.14792	0.3029	-0.28
Mof_C 	C 	0.3502	0.66572	0.2873	-0.126
Mof_C 	C 	0.4254	0.68882	0.3545	0.059
Mof_H 	H 	0.4108	0.717	0.3695	0.024
Mof_C 	C 	0.5226	0.66998	0.3997	-0.122
Mof_H 	H 	0.5738	0.6856	0.4448	0.09
Mof_C 	C 	0.5439	0.62756	0.3778	0.033
Mof_H 	H 	0.61	0.6153	0.4074	0.01
Mof_C 	C 	0.4671	0.6034	0.312	-0.123
Mof_C 	C 	0.3699	0.62281	0.2665	0.049
Mof_H 	H 	0.3179	0.6071	0.2221	0.027
Mof_C 	C 	0.4358	0.3772	0.0385	-0.13
Mof_C 	C 	0.5265	0.35521	0.0921	0.063
Mof_H 	H 	0.5918	0.3689	0.1068	0.017
Mof_C 	C 	0.5204	0.31317	0.1239	-0.153
Mof_H 	H 	0.581	0.2992	0.1615	0.097
Mof_C 	C 	0.4241	0.29218	0.0996	0.102
Mof_H 	H 	0.42	0.2638	0.12	0.014
Mof_C 	C 	0.3361	0.31278	0.0463	-0.173
Mof_C 	C 	0.3402	0.35564	0.0152	0.079
Mof_H 	H 	0.2786	0.3695	0.9789	0.01
Mof_C 	C 	0.8184	0.43273	0.021	0.09
Mof_H 	H 	0.7779	0.4077	0.9999	-0.008
Mof_C 	C 	0.9249	0.42767	0.0699	-0.145
Mof_H 	H 	0.9552	0.3998	0.0799	0.098
Mof_C 	C 	0.9858	0.46464	0.1036	0.068
Mof_C 	C 	0.9371	0.5052	0.0842	-0.141
Mof_H 	H 	0.9759	0.5308	0.1045	0.083
Mof_C 	C 	0.8306	0.50755	0.0346	0.078
Mof_H 	H 	0.7988	0.5351	0.0228	-0.006
Mof_C 	C 	0.1006	0.46122	0.1573	0.051
Mof_C 	C 	0.1631	0.42746	0.1427	-0.135
Mof_H 	H 	0.1341	0.4068	0.0973	0.091
Mof_C 	C 	0.2691	0.42536	0.197	0.074
Mof_H 	H 	0.3102	0.4032	0.1857	-0.007
Mof_C 	C 	0.255	0.4863	0.2774	0.065
Mof_H 	H 	0.2862	0.5068	0.3227	-0.009
Mof_C 	C 	0.1489	0.4909	0.226	-0.129
Mof_H 	H 	0.1102	0.5139	0.2377	0.076
Mof_C 	C 	0.7105	0.46823	0.4393	0.06
Mof_H 	H 	0.691	0.4889	0.3928	-0.008
Mof_C 	C 	0.8163	0.4635	0.4905	-0.131
Mof_H 	H 	0.8661	0.4808	0.478	0.071
Mof_C 	C 	0.8483	0.43305	0.5605	0.056
Mof_C 	C 	0.7695	0.40884	0.5776	-0.137
Mof_H 	H 	0.7868	0.3885	0.6248	0.097
Mof_C 	C 	0.6654	0.4156	0.5231	0.078
Mof_H 	H 	0.6136	0.3994	0.5352	-0.011
Mof_C 	C 	0.9621	0.42715	0.6156	0.063
Mof_C 	C 	0.0395	0.43632	0.5786	-0.134
Mof_H 	H 	0.0206	0.445	0.5183	0.076
Mof_C 	C 	0.1445	0.43241	0.6323	0.075
Mof_H 	H 	0.1954	0.4389	0.607	-0.014
Mof_C 	C 	0.1021	0.40948	0.7543	0.088
Mof_H 	H 	0.1232	0.3999	0.8143	-0.006
Mof_C 	C 	0.995	0.41253	0.7047	-0.137
Mof_H 	H 	0.9458	0.4048	0.731	0.092
Mof_C 	C 	0.5359	0.35003	0.3535	0.086
Mof_H 	H 	0.5987	0.3625	0.3538	-0.018
Mof_C 	C 	0.5259	0.30474	0.3462	-0.146
Mof_H 	H 	0.581	0.2874	0.3429	0.097
Mof_C 	C 	0.4316	0.28578	0.3438	0.071
Mof_C 	C 	0.3531	0.3133	0.3521	-0.146
Mof_H 	H 	0.2892	0.3017	0.3513	0.107
Mof_C 	C 	0.3716	0.35786	0.3615	0.09
Mof_H 	H 	0.3197	0.3757	0.3693	-0.021
Mof_C 	C 	0.4124	0.23789	0.3293	0.069
Mof_C 	C 	0.4913	0.20685	0.3672	-0.144
Mof_H 	H 	0.5591	0.2158	0.4021	0.094
Mof_C 	C 	0.4678	0.16273	0.3523	0.099
Mof_H 	H 	0.5213	0.1424	0.378	-0.024
Mof_C 	C 	0.2966	0.17771	0.2658	0.094
Mof_H 	H 	0.2297	0.1678	0.2309	-0.006
Mof_C 	C 	0.3128	0.22243	0.2767	-0.133
Mof_H 	H 	0.258	0.242	0.2493	0.111
Mof_O 	O 	0.4076	0.53838	0.1924	-0.489
Mof_O 	O 	0.60476	0.54885	0.27744	-0.496
Mof_O 	O 	0.49013	0.51759	0.35827	-0.442
Mof_O 	O 	0.1649	0.6856	0.2802	-0.26
Mof_O 	O 	0.1862	0.6686	0.1421	-0.263
Mof_O 	O 	0.2498	0.7347	0.213	-0.259
Mof_O 	O 	0.5498	0.43582	0.9892	-0.488
Mof_O 	O 	0.3512	0.43978	0.91082	-0.497
Mof_O 	O 	0.4311	0.46269	0.07253	-0.471
Mof_O 	O 	0.1716	0.2946	0.0738	-0.293
Mof_O 	O 	0.1515	0.3018	0.9295	-0.297
Mof_O 	O 	0.229	0.2439	0.051	-0.222
Mof_O 	O 	0.2402	0.2402	0.9788	-0.18
_end
