data_functionalizedCrystal
_audit_creation_method	'EQeq! by Chris Wilmer'
_symmetry_space_group_name_H-M	'P1'
_symmetry_Int_Tables_number	1
_symmetry_cell_setting	triclinic
loop_
_symmetry_equiv_pos_as_xyz
  x,y,z
_cell_length_a	7.5918
_cell_length_b	10.0452
_cell_length_c	31.6961
_cell_angle_alpha	87.4062
_cell_angle_beta	83.1219
_cell_angle_gamma	67.7977
loop_
_atom_site_label
_atom_site_type_symbol
_atom_site_fract_x
_atom_site_fract_y
_atom_site_fract_z
_atom_site_charge
Mof_Zn	Zn	0.7	0.19679	0.53147	1.246
Mof_Zn	Zn	0.42826	0.80321	0.46853	1.245
Mof_Zn	Zn	0.48147	0.69679	0.96853	1.246
Mof_Zn	Zn	0.14679	0.30321	0.03147	1.244
Mof_H 	H 	0.9995	0.0106	0.0896	0.247
Mof_H 	H 	0.9263	0.7716	0.4058	0.224
Mof_H 	H 	0.1644	0.5636	0.1518	-0.023
Mof_H 	H 	0.0348	0.6092	0.0892	0.214
Mof_H 	H 	0.0253	0.8024	0.2448	0.086
Mof_H 	H 	0.1183	0.918	0.2352	0.082
Mof_H 	H 	0.1885	0.0236	0.3098	-0.03
Mof_H 	H 	0.0264	0.1222	0.3744	0.217
Mof_H 	H 	0.1287	0.9734	0.1526	-0.026
Mof_H 	H 	0.8463	0.9332	0.0406	0.291
Mof_H 	H 	0.8645	0.7726	0.0406	0.28
Mof_H 	H 	0.0791	0.667	0.3416	-0.013
Mof_H 	H 	0.3003	0.657	0.279	0.045
Mof_H 	H 	0.3792	0.7808	0.2718	0.056
Mof_H 	H 	0.8011	0.9664	0.451	0.264
Mof_H 	H 	0.7842	0.1178	0.4324	0.268
Mof_H 	H 	0.3783	0.7518	0.1944	0.055
Mof_H 	H 	0.2981	0.631	0.2058	0.042
Mof_H 	H 	0.0997	0.9894	0.9104	0.245
Mof_H 	H 	0.1037	0.2284	0.5942	0.224
Mof_H 	H 	0.8798	0.4364	0.8482	-0.031
Mof_H 	H 	0.7332	0.3908	0.9108	0.235
Mof_H 	H 	0.0725	0.1976	0.7552	0.089
Mof_H 	H 	0.2715	0.082	0.7648	0.087
Mof_H 	H 	0.5219	0.9764	0.6902	-0.02
Mof_H 	H 	0.523	0.8778	0.6256	0.212
Mof_H 	H 	0.2547	0.0266	0.8474	-0.028
Mof_H 	H 	0.8201	0.0668	0.9594	0.313
Mof_H 	H 	0.6777	0.2274	0.9594	0.298
Mof_H 	H 	0.0877	0.333	0.6584	-0.024
Mof_H 	H 	0.2363	0.343	0.721	0.043
Mof_H 	H 	0.4318	0.2192	0.7282	0.054
Mof_H 	H 	0.2185	0.0336	0.549	0.266
Mof_H 	H 	0.3344	0.8822	0.5676	0.275
Mof_H 	H 	0.3245	0.2482	0.8056	0.052
Mof_H 	H 	0.1349	0.369	0.7942	0.038
Mof_H 	H 	0.3391	0.5106	0.4104	0.222
Mof_H 	H 	0.5821	0.2716	0.0942	0.239
Mof_H 	H 	0.5662	0.0636	0.3482	-0.019
Mof_H 	H 	0.374	0.1092	0.4108	0.217
Mof_H 	H 	0.5201	0.3024	0.2552	0.09
Mof_H 	H 	0.6035	0.418	0.2648	0.087
Mof_H 	H 	0.7483	0.5236	0.1902	-0.028
Mof_H 	H 	0.6508	0.6222	0.1256	0.223
Mof_H 	H 	0.5313	0.4734	0.3474	-0.016
Mof_H 	H 	0.1369	0.4332	0.4594	0.289
Mof_H 	H 	0.1551	0.2726	0.4594	0.276
Mof_H 	H 	0.6707	0.167	0.1584	-0.021
Mof_H 	H 	0.8293	0.157	0.221	0.051
Mof_H 	H 	0.901	0.2808	0.2282	0.061
Mof_H 	H 	0.5021	0.4664	0.049	0.283
Mof_H 	H 	0.4666	0.6178	0.0676	0.285
Mof_H 	H 	0.8227	0.2518	0.3056	0.063
Mof_H 	H 	0.7539	0.131	0.2942	0.049
Mof_H 	H 	0.2601	0.4894	0.5896	0.203
Mof_H 	H 	0.9479	0.7284	0.9058	0.252
Mof_H 	H 	0.978	0.9364	0.6518	0.041
Mof_H 	H 	0.894	0.8908	0.5892	0.171
Mof_H 	H 	0.0777	0.6976	0.7448	0.088
Mof_H 	H 	0.2863	0.582	0.7352	0.086
Mof_H 	H 	0.4621	0.4764	0.8098	-0.03
Mof_H 	H 	0.3986	0.3778	0.8744	0.222
Mof_H 	H 	0.3521	0.5266	0.6526	-0.004
Mof_H 	H 	0.0295	0.5668	0.5406	0.289
Mof_H 	H 	0.8871	0.7274	0.5406	0.299
Mof_H 	H 	0.9961	0.833	0.8416	-0.006
Mof_H 	H 	0.2073	0.843	0.779	0.044
Mof_H 	H 	0.41	0.7192	0.7718	0.056
Mof_H 	H 	0.0175	0.5336	0.951	0.28
Mof_H 	H 	0.152	0.3822	0.9324	0.284
Mof_H 	H 	0.3801	0.7482	0.6944	0.058
Mof_H 	H 	0.1791	0.869	0.7058	0.043
Mof_C 	C 	0.0906	0.80334	0.00506	0.535
Mof_C 	C 	0.02143	0.02394	0.4648	0.519
Mof_C 	C 	0.03391	0.92052	0.10246	-0.474
Mof_C 	C 	0.9787	0.8218	0.3862	-0.398
Mof_C 	C 	0.00665	0.81326	0.08384	0.528
Mof_C 	C 	0.96425	0.95444	0.39526	0.522
Mof_C 	C 	0.13306	0.6545	0.13958	0.233
Mof_C 	C 	0.05533	0.6821	0.10244	-0.45
Mof_C 	C 	0.14578	0.8161	0.23934	-0.156
Mof_C 	C 	0.13575	0.97168	0.32882	0.222
Mof_C 	C 	0.03958	0.0298	0.36744	-0.451
Mof_C 	C 	0.11184	0.89772	0.14	0.256
Mof_C 	C 	0.93519	0.83442	0.0426	-0.723
Mof_C 	C 	0.07179	0.75878	0.34764	0.206
Mof_C 	C 	0.2632	0.76052	0.27688	-0.02
Mof_C 	C 	0.87318	0.0205	0.43674	-0.706
Mof_C 	C 	0.26143	0.73284	0.1997	-0.013
Mof_C 	C 	0.899	0.19666	0.99494	0.58
Mof_C 	C 	0.51017	0.97606	0.5352	0.584
Mof_C 	C 	0.05689	0.07948	0.89754	-0.504
Mof_C 	C 	0.1867	0.1782	0.6138	-0.434
Mof_C 	C 	0.90375	0.18674	0.91616	0.597
Mof_C 	C 	0.31395	0.04556	0.60474	0.505
Mof_C 	C 	0.92714	0.3455	0.86042	0.276
Mof_C 	C 	0.83987	0.3179	0.89756	-0.496
Mof_C 	C 	0.20122	0.1839	0.76066	-0.164
Mof_C 	C 	0.43625	0.02832	0.67118	0.206
Mof_C 	C 	0.43682	0.9702	0.63256	-0.41
Mof_C 	C 	0.14956	0.10228	0.86	0.271
Mof_C 	C 	0.81221	0.16558	0.9574	-0.8
Mof_C 	C 	0.17821	0.24122	0.65236	0.24
Mof_C 	C 	0.3006	0.23948	0.72312	-0.015
Mof_C 	C 	0.33042	0.9795	0.56326	-0.748
Mof_C 	C 	0.19397	0.26716	0.8003	-0.006
Mof_C 	C 	0.34566	0.30334	0.49494	0.548
Mof_C 	C 	0.73623	0.52394	0.0352	0.592
Mof_C 	C 	0.38637	0.42052	0.39754	-0.439
Mof_C 	C 	0.6149	0.3218	0.1138	-0.452
Mof_C 	C 	0.34049	0.31326	0.41616	0.529
Mof_C 	C 	0.60951	0.45444	0.10474	0.537
Mof_C 	C 	0.52264	0.1545	0.36042	0.234
Mof_C 	C 	0.40777	0.1821	0.39756	-0.447
Mof_C 	C 	0.63512	0.3161	0.26066	-0.155
Mof_C 	C 	0.71457	0.47168	0.17118	0.231
Mof_C 	C 	0.65702	0.5298	0.13256	-0.44
Mof_C 	C 	0.50184	0.39772	0.36	0.242
Mof_C 	C 	0.22779	0.33442	0.4574	-0.744
Mof_C 	C 	0.66943	0.25878	0.15236	0.254
Mof_C 	C 	0.79008	0.26052	0.22312	-0.02
Mof_C 	C 	0.55992	0.5205	0.06326	-0.778
Mof_C 	C 	0.71113	0.23284	0.3003	-0.018
Mof_C 	C 	0.14394	0.69666	0.50506	0.547
Mof_C 	C 	0.29537	0.47606	0.9648	0.592
Mof_C 	C 	0.20443	0.57948	0.60246	-0.379
Mof_C 	C 	0.0505	0.6782	0.8862	-0.47
Mof_C 	C 	0.06991	0.68674	0.58384	0.443
Mof_C 	C 	0.16869	0.54556	0.89526	0.542
Mof_C 	C 	0.03756	0.8455	0.63958	0.102
Mof_C 	C 	0.98743	0.8179	0.60244	-0.297
Mof_C 	C 	0.21188	0.6839	0.73934	-0.155
Mof_C 	C 	0.35743	0.52832	0.82882	0.23
Mof_C 	C 	0.31938	0.4702	0.86744	-0.444
Mof_C 	C 	0.25956	0.60228	0.64	0.204
Mof_C 	C 	0.01961	0.66558	0.5426	-0.748
Mof_C 	C 	0.08057	0.74122	0.84764	0.237
Mof_C 	C 	0.27372	0.73948	0.77688	-0.018
Mof_C 	C 	0.14368	0.4795	0.93674	-0.782
Mof_C 	C 	0.24427	0.76716	0.6997	-0.022
Mof_N 	N 	0.16699	0.76364	0.16018	-0.178
Mof_N 	N 	0.15277	0.82862	0.31844	-0.166
Mof_N 	N 	0.69222	0.22106	0.6161	0.067
Mof_N 	N 	0.09081	0.23636	0.83982	-0.191
Mof_N 	N 	0.29983	0.17138	0.68156	-0.168
Mof_N 	N 	0.52938	0.77894	0.3839	0.068
Mof_N 	N 	0.57717	0.26364	0.33982	-0.172
Mof_N 	N 	0.72121	0.32862	0.18156	-0.171
Mof_N 	N 	0.55832	0.72106	0.8839	0.068
Mof_N 	N 	0.18063	0.73636	0.66018	-0.149
Mof_N 	N 	0.23139	0.67138	0.81844	-0.17
Mof_N 	N 	0.16328	0.27894	0.1161	0.068
Mof_O 	O 	0.95864	0.07792	0.50096	-0.468
Mof_O 	O 	0.1937	0.97558	0.44984	-0.464
Mof_O 	O 	0.26118	0.76554	0.0129	-0.492
Mof_O 	O 	0.83304	0.14308	0.59224	-0.234
Mof_O 	O 	0.03525	0.81826	0.96944	-0.365
Mof_O 	O 	0.54707	0.29598	0.59828	-0.211
Mof_O 	O 	0.78482	0.37546	0.5283	-0.235
Mof_O 	O 	0.69974	0.2185	0.65402	-0.108
Mof_O 	O 	0.53752	0.92208	0.49904	-0.506
Mof_O 	O 	0.61912	0.02442	0.55016	-0.474
Mof_O 	O 	0.03962	0.23446	0.9871	-0.512
Mof_O 	O 	0.56836	0.85692	0.40776	-0.242
Mof_O 	O 	0.82295	0.18174	0.03056	-0.366
Mof_O 	O 	0.44133	0.70402	0.40172	-0.214
Mof_O 	O 	0.68858	0.62454	0.4717	-0.237
Mof_O 	O 	0.57226	0.7815	0.34598	-0.109
Mof_O 	O 	0.7096	0.57792	0.99904	-0.508
Mof_O 	O 	0.89354	0.47558	0.05016	-0.471
Mof_O 	O 	0.52408	0.26554	0.4871	-0.492
Mof_O 	O 	0.67528	0.64308	0.90776	-0.24
Mof_O 	O 	0.25469	0.31826	0.53056	-0.364
Mof_O 	O 	0.39535	0.79598	0.90172	-0.213
Mof_O 	O 	0.56312	0.87546	0.9717	-0.242
Mof_O 	O 	0.60376	0.7185	0.84598	-0.108
Mof_O 	O 	0.28656	0.42208	0.00096	-0.512
Mof_O 	O 	0.41928	0.52442	0.94984	-0.48
Mof_O 	O 	0.27672	0.73446	0.5129	-0.495
Mof_O 	O 	0.22612	0.35692	0.09224	-0.244
Mof_O 	O 	0.10351	0.68174	0.46944	-0.371
Mof_O 	O 	0.09305	0.20402	0.09828	-0.219
Mof_O 	O 	0.41028	0.12454	0.0283	-0.242
Mof_O 	O 	0.16824	0.2815	0.15402	-0.117
Mof_N 	N 	0.91965	0.41284	0.38666	0.064
Mof_O 	O 	0.00904	0.35006	0.35366	-0.153
Mof_O 	O 	0.86138	0.34728	0.41576	-0.126
Mof_O 	O 	0.89726	0.54134	0.39234	-0.093
Mof_N 	N 	0.71915	0.58716	0.61334	0.051
Mof_O 	O 	0.71276	0.64994	0.64634	-0.125
Mof_O 	O 	0.62442	0.65272	0.58424	-0.132
Mof_O 	O 	0.83094	0.45866	0.60766	-0.09
Mof_N 	N 	0.55631	0.91284	0.11334	0.05
Mof_O 	O 	0.6127	0.85006	0.14634	-0.129
Mof_O 	O 	0.52714	0.84728	0.08424	-0.135
Mof_O 	O 	0.5396	0.04134	0.10766	-0.099
Mof_N 	N 	0.58249	0.08716	0.88666	0.05
Mof_O 	O 	0.6091	0.14994	0.85366	-0.13
Mof_O 	O 	0.45866	0.15272	0.91576	-0.137
Mof_O 	O 	0.6886	0.95866	0.89234	-0.1
_end
