data_functionalizedCrystal
_audit_creation_method	'EQeq! by Chris Wilmer'
_symmetry_space_group_name_H-M	'P1'
_symmetry_Int_Tables_number	1
_symmetry_cell_setting	triclinic
loop_
_symmetry_equiv_pos_as_xyz
  x,y,z
_cell_length_a	9.226
_cell_length_b	9.5587
_cell_length_c	21.606
_cell_angle_alpha	90
_cell_angle_beta	90
_cell_angle_gamma	116.142
loop_
_atom_site_label
_atom_site_type_symbol
_atom_site_fract_x
_atom_site_fract_y
_atom_site_fract_z
_atom_site_charge
Mof_Eu	Eu	0.35883	0.12332	0.00859	2.55
Mof_Eu	Eu	0.64117	0.37668	0.50859	2.551
Mof_Eu	Eu	0.64117	0.87668	0.99141	2.55
Mof_Eu	Eu	0.35883	0.62332	0.49141	2.551
Mof_Cu	Cu	0.69034	0.04122	0.64579	0.855
Mof_Cu	Cu	0.30966	0.45878	0.14579	0.855
Mof_Cu	Cu	0.30966	0.95878	0.35421	0.854
Mof_Cu	Cu	0.69034	0.54122	0.85421	0.854
Mof_H 	H 	0.4229	0.1224	0.6552	-0.034
Mof_H 	H 	0.2645	0.1429	0.7315	0.11
Mof_H 	H 	0.3156	0.109	0.8342	-0.034
Mof_H 	H 	0.6554	0.9954	0.7759	-0.043
Mof_H 	H 	0.7968	0.3002	0.8405	-0.044
Mof_H 	H 	0.0024	0.2487	0.8727	0.119
Mof_H 	H 	0.2061	0.4393	0.9295	-0.016
Mof_H 	H 	0.9689	0.7029	0.9294	-0.04
Mof_H 	H 	0.5771	0.3776	0.1552	-0.034
Mof_H 	H 	0.7355	0.3571	0.2315	0.109
Mof_H 	H 	0.6844	0.391	0.3342	-0.034
Mof_H 	H 	0.3446	0.5046	0.2759	-0.044
Mof_H 	H 	0.2032	0.1998	0.3405	-0.043
Mof_H 	H 	0.9976	0.2513	0.3727	0.114
Mof_H 	H 	0.7939	0.0607	0.4295	-0.013
Mof_H 	H 	0.0311	0.7971	0.4294	-0.039
Mof_H 	H 	0.5771	0.8776	0.3448	-0.034
Mof_H 	H 	0.7355	0.8571	0.2685	0.11
Mof_H 	H 	0.6844	0.891	0.1658	-0.034
Mof_H 	H 	0.3446	0.0046	0.2241	-0.043
Mof_H 	H 	0.2032	0.6998	0.1595	-0.044
Mof_H 	H 	0.9976	0.7513	0.1273	0.119
Mof_H 	H 	0.7939	0.5607	0.0705	-0.016
Mof_H 	H 	0.0311	0.2971	0.0706	-0.04
Mof_H 	H 	0.4229	0.6224	0.8448	-0.034
Mof_H 	H 	0.2645	0.6429	0.7685	0.109
Mof_H 	H 	0.3156	0.609	0.6658	-0.034
Mof_H 	H 	0.6554	0.4954	0.7241	-0.044
Mof_H 	H 	0.7968	0.8002	0.6595	-0.043
Mof_H 	H 	0.0024	0.7487	0.6273	0.114
Mof_H 	H 	0.2061	0.9393	0.5705	-0.013
Mof_H 	H 	0.9689	0.2029	0.5706	-0.039
Mof_C 	C 	0.4405	0.1021	0.6959	0.15
Mof_C 	C 	0.3475	0.1166	0.7414	-0.244
Mof_C 	C 	0.3748	0.0926	0.8026	0.171
Mof_C 	C 	0.49	0.0447	0.8155	-0.28
Mof_C 	C 	0.5771	0.0291	0.7674	0.149
Mof_C 	C 	0.5259	0.0118	0.8801	0.568
Mof_C 	C 	0.8771	0.3725	0.8654	0.119
Mof_C 	C 	0.9988	0.3415	0.883	-0.218
Mof_C 	C 	0.1175	0.4543	0.9171	0.151
Mof_C 	C 	0.1089	0.5956	0.9343	-0.235
Mof_C 	C 	0.9793	0.6145	0.9171	0.143
Mof_C 	C 	0.2411	0.729	0.9696	0.541
Mof_C 	C 	0.4777	0.5027	0.0344	0.252
Mof_C 	C 	0.9927	0.9887	0.0357	0.297
Mof_C 	C 	0.5595	0.3979	0.1959	0.149
Mof_C 	C 	0.6525	0.3834	0.2414	-0.244
Mof_C 	C 	0.6252	0.4074	0.3026	0.171
Mof_C 	C 	0.51	0.4553	0.3155	-0.28
Mof_C 	C 	0.4229	0.4709	0.2674	0.149
Mof_C 	C 	0.4741	0.4882	0.3801	0.567
Mof_C 	C 	0.1229	0.1275	0.3654	0.115
Mof_C 	C 	0.0012	0.1585	0.383	-0.208
Mof_C 	C 	0.8825	0.0457	0.4171	0.142
Mof_C 	C 	0.8911	0.9044	0.4343	-0.229
Mof_C 	C 	0.0207	0.8855	0.4171	0.139
Mof_C 	C 	0.7589	0.771	0.4696	0.539
Mof_C 	C 	0.5223	0.9973	0.5344	0.252
Mof_C 	C 	0.0073	0.5113	0.5357	0.294
Mof_C 	C 	0.5595	0.8979	0.3041	0.15
Mof_C 	C 	0.6525	0.8834	0.2586	-0.244
Mof_C 	C 	0.6252	0.9074	0.1974	0.171
Mof_C 	C 	0.51	0.9553	0.1845	-0.28
Mof_C 	C 	0.4229	0.9709	0.2326	0.149
Mof_C 	C 	0.4741	0.9882	0.1199	0.568
Mof_C 	C 	0.1229	0.6275	0.1346	0.119
Mof_C 	C 	0.0012	0.6585	0.117	-0.218
Mof_C 	C 	0.8825	0.5457	0.0829	0.151
Mof_C 	C 	0.8911	0.4044	0.0657	-0.235
Mof_C 	C 	0.0207	0.3855	0.0829	0.143
Mof_C 	C 	0.7589	0.271	0.0304	0.541
Mof_C 	C 	0.5223	0.4973	0.9656	0.252
Mof_C 	C 	0.0073	0.0113	0.9643	0.297
Mof_C 	C 	0.4405	0.6021	0.8041	0.149
Mof_C 	C 	0.3475	0.6166	0.7586	-0.244
Mof_C 	C 	0.3748	0.5926	0.6974	0.171
Mof_C 	C 	0.49	0.5447	0.6845	-0.28
Mof_C 	C 	0.5771	0.5291	0.7326	0.149
Mof_C 	C 	0.5259	0.5118	0.6199	0.567
Mof_C 	C 	0.8771	0.8725	0.6346	0.115
Mof_C 	C 	0.9988	0.8415	0.617	-0.208
Mof_C 	C 	0.1175	0.9543	0.5829	0.142
Mof_C 	C 	0.1089	0.0956	0.5657	-0.229
Mof_C 	C 	0.9793	0.1145	0.5829	0.139
Mof_C 	C 	0.2411	0.229	0.5304	0.539
Mof_C 	C 	0.4777	0.0027	0.4656	0.252
Mof_C 	C 	0.9927	0.4887	0.4643	0.294
Mof_N 	N 	0.5562	0.0597	0.708	-0.292
Mof_N 	N 	0.8642	0.5062	0.8822	-0.285
Mof_N 	N 	0.4438	0.4403	0.208	-0.292
Mof_N 	N 	0.1358	0.9938	0.3822	-0.284
Mof_N 	N 	0.4438	0.9403	0.292	-0.292
Mof_N 	N 	0.1358	0.4938	0.1178	-0.285
Mof_N 	N 	0.5562	0.5597	0.792	-0.292
Mof_N 	N 	0.8642	0.0062	0.6178	-0.284
Mof_O 	O 	0.4668	0.0507	0.9247	-0.685
Mof_O 	O 	0.6133	0.9435	0.886	-0.571
Mof_O 	O 	0.2124	0.8362	0.9951	-0.545
Mof_O 	O 	0.3672	0.7182	0.9697	-0.614
Mof_O 	O 	0.3816	0.3718	0.0579	-0.519
Mof_O 	O 	0.5389	0.6379	0.06075	-0.463
Mof_O 	O 	0.116	0.0517	0.0664	-0.496
Mof_O 	O 	0.8573	0.9098	0.0564	-0.513
Mof_O 	O 	0.5332	0.4493	0.4247	-0.686
Mof_O 	O 	0.3867	0.5565	0.386	-0.57
Mof_O 	O 	0.7876	0.6638	0.4951	-0.544
Mof_O 	O 	0.6328	0.7818	0.4697	-0.614
Mof_O 	O 	0.6184	0.1282	0.5579	-0.519
Mof_O 	O 	0.4611	0.8621	0.56075	-0.464
Mof_O 	O 	0.884	0.4483	0.5664	-0.495
Mof_O 	O 	0.1427	0.5902	0.5564	-0.513
Mof_O 	O 	0.5332	0.9493	0.0753	-0.685
Mof_O 	O 	0.3867	0.0565	0.114	-0.571
Mof_O 	O 	0.7876	0.1638	0.0049	-0.545
Mof_O 	O 	0.6328	0.2818	0.0303	-0.614
Mof_O 	O 	0.6184	0.6282	0.9421	-0.519
Mof_O 	O 	0.4611	0.3621	0.93925	-0.463
Mof_O 	O 	0.884	0.9483	0.9336	-0.496
Mof_O 	O 	0.1427	0.0902	0.9436	-0.513
Mof_O 	O 	0.4668	0.5507	0.5753	-0.686
Mof_O 	O 	0.6133	0.4435	0.614	-0.57
Mof_O 	O 	0.2124	0.3362	0.5049	-0.544
Mof_O 	O 	0.3672	0.2182	0.5303	-0.614
Mof_O 	O 	0.3816	0.8718	0.4421	-0.519
Mof_O 	O 	0.5389	0.1379	0.43925	-0.464
Mof_O 	O 	0.116	0.5517	0.4336	-0.495
Mof_O 	O 	0.8573	0.4098	0.4436	-0.513
_end
