data_functionalizedCrystal
_audit_creation_method	'EQeq! by Chris Wilmer'
_symmetry_space_group_name_H-M	'P1'
_symmetry_Int_Tables_number	1
_symmetry_cell_setting	triclinic
loop_
_symmetry_equiv_pos_as_xyz
  x,y,z
_cell_length_a	6.946
_cell_length_b	12.6262
_cell_length_c	12.6262
_cell_angle_alpha	97.3981
_cell_angle_beta	96.1062
_cell_angle_gamma	83.8938
loop_
_atom_site_label
_atom_site_type_symbol
_atom_site_fract_x
_atom_site_fract_y
_atom_site_fract_z
_atom_site_charge
Mof_Ni	Ni	0.90606	0.32101	0.05295	0.997
Mof_Ni	Ni	0.59394	0.05295	0.32101	0.999
Mof_Ni	Ni	0.09394	0.67899	0.94705	0.997
Mof_Ni	Ni	0.40606	0.94705	0.67899	0.999
Mof_H 	H 	0.4345	0.4229	0.5487	0.167
Mof_H 	H 	0.0655	0.5487	0.4229	0.167
Mof_H 	H 	0.5655	0.5771	0.4513	0.166
Mof_H 	H 	0.9345	0.4513	0.5771	0.166
Mof_C 	C 	0.4425	0.5369	0.6669	0.208
Mof_C 	C 	0.3624	0.3606	0.6698	0.222
Mof_C 	C 	0.3263	0.4859	0.8135	0.193
Mof_C 	C 	0.5186	0.7033	0.6505	0.156
Mof_C 	C 	0.314	0.1822	0.6532	0.149
Mof_C 	C 	0.1976	0.4473	0.9599	0.13
Mof_C 	C 	0.0575	0.6669	0.5369	0.206
Mof_C 	C 	0.1376	0.6698	0.3606	0.222
Mof_C 	C 	0.1737	0.8135	0.4859	0.193
Mof_C 	C 	0.9814	0.6505	0.7033	0.157
Mof_C 	C 	0.186	0.6532	0.1822	0.15
Mof_C 	C 	0.3024	0.9599	0.4473	0.135
Mof_C 	C 	0.5575	0.4631	0.3331	0.208
Mof_C 	C 	0.6376	0.6394	0.3302	0.222
Mof_C 	C 	0.6737	0.5141	0.1865	0.193
Mof_C 	C 	0.4814	0.2967	0.3495	0.156
Mof_C 	C 	0.686	0.8178	0.3468	0.149
Mof_C 	C 	0.8024	0.5527	0.0401	0.13
Mof_C 	C 	0.9425	0.3331	0.4631	0.206
Mof_C 	C 	0.8624	0.3302	0.6394	0.222
Mof_C 	C 	0.8263	0.1865	0.5141	0.193
Mof_C 	C 	0.0186	0.3495	0.2967	0.157
Mof_C 	C 	0.814	0.3468	0.8178	0.15
Mof_C 	C 	0.6976	0.0401	0.5527	0.135
Mof_N 	N 	0.4167	0.4374	0.6156	-0.263
Mof_N 	N 	0.398	0.5602	0.7692	-0.209
Mof_N 	N 	0.3122	0.3885	0.7649	-0.197
Mof_N 	N 	0.5102	0.6033	0.6085	-0.187
Mof_N 	N 	0.5287	0.7938	0.6782	-0.315
Mof_N 	N 	0.3498	0.266	0.609	-0.182
Mof_N 	N 	0.2839	0.1017	0.6793	-0.311
Mof_N 	N 	0.2562	0.5212	0.9086	-0.272
Mof_N 	N 	0.1376	0.3935	0.0123	-0.288
Mof_N 	N 	0.0833	0.6156	0.4374	-0.263
Mof_N 	N 	0.102	0.7692	0.5602	-0.21
Mof_N 	N 	0.1878	0.7649	0.3885	-0.197
Mof_N 	N 	0.9898	0.6085	0.6033	-0.186
Mof_N 	N 	0.9713	0.6782	0.7938	-0.313
Mof_N 	N 	0.1502	0.609	0.266	-0.182
Mof_N 	N 	0.2161	0.6793	0.1017	-0.31
Mof_N 	N 	0.2438	0.9086	0.5212	-0.273
Mof_N 	N 	0.3624	0.0123	0.3935	-0.292
Mof_N 	N 	0.5833	0.5626	0.3844	-0.263
Mof_N 	N 	0.602	0.4398	0.2308	-0.209
Mof_N 	N 	0.6878	0.6115	0.2351	-0.197
Mof_N 	N 	0.4898	0.3967	0.3915	-0.187
Mof_N 	N 	0.4713	0.2062	0.3218	-0.315
Mof_N 	N 	0.6502	0.734	0.391	-0.182
Mof_N 	N 	0.7161	0.8983	0.3207	-0.311
Mof_N 	N 	0.7438	0.4788	0.0914	-0.272
Mof_N 	N 	0.8624	0.6065	0.9877	-0.288
Mof_N 	N 	0.9167	0.3844	0.5626	-0.263
Mof_N 	N 	0.898	0.2308	0.4398	-0.21
Mof_N 	N 	0.8122	0.2351	0.6115	-0.197
Mof_N 	N 	0.0102	0.3915	0.3967	-0.186
Mof_N 	N 	0.0287	0.3218	0.2062	-0.313
Mof_N 	N 	0.8498	0.391	0.734	-0.182
Mof_N 	N 	0.7839	0.3207	0.8983	-0.31
Mof_N 	N 	0.7562	0.0914	0.4788	-0.273
Mof_N 	N 	0.6376	0.9877	0.6065	-0.292
_end
