# CIF file generated by openbabel 3.1.0, see https://openbabel.org
data_I
_chemical_name_common 'image0'
_cell_length_a 17.966
_cell_length_b 27.989
_cell_length_c 14.141
_cell_angle_alpha 90
_cell_angle_beta 92.381
_cell_angle_gamma 90
_space_group_name_H-M_alt 'P 1'
_space_group_name_Hall 'P 1'
loop_
    _symmetry_equiv_pos_as_xyz
    x,y,z
loop_
    _atom_site_label
    _atom_site_type_symbol
    _atom_site_fract_x
    _atom_site_fract_y
    _atom_site_fract_z
    _atom_site_occupancy
    Mn1      Mn       0.00414    0.17825    0.10681    1.000
    O1       O        0.03650    0.11650    0.18720    1.000
    N1       N        0.95810    0.23590    0.00700    1.000
    N2       N        0.10790    0.17580    0.01810    1.000
    O2       O        0.89950    0.19040    0.16860    1.000
    O3       O        0.07080    0.22590    0.19180    1.000
    N3       N        0.95180    0.11930    0.01110    1.000
    C1       C        0.88450    0.21470    0.24140    1.000
    C2       C        0.80500    0.23120    0.24610    1.000
    C3       C        0.02430    0.01740    0.17130    1.000
    C4       C        0.75460    0.22490    0.16980    1.000
    C5       C        0.78320    0.25480    0.32720    1.000
    H1       H        0.04020    0.03400    0.11890    1.000
    C6       C        0.02450    0.96810    0.17220    1.000
    C7       C        0.68270    0.24150    0.17640    1.000
    H2       H        0.76920    0.20980    0.11500    1.000
    C8       C        0.71120    0.27140    0.33160    1.000
    H3       H        0.81700    0.25930    0.37810    1.000
    N4       N        0.04680    0.94160    0.09280    1.000
    N5       N        0.63050    0.23800    0.09780    1.000
    C9       C        0.66060    0.26500    0.25560    1.000
    N6       N        0.68800    0.29610    0.41380    1.000
    C10      C        0.01460    0.90030    0.06020    1.000
    C11      C        0.10850    0.94960    0.03740    1.000
    C12      C        0.60750    0.19820    0.04540    1.000
    C13      C        0.58890    0.27540    0.06350    1.000
    H4       H        0.61220    0.27660    0.25850    1.000
    C14      C        0.72640    0.33100    0.46620    1.000
    C15      C        0.61840    0.29410    0.44750    1.000
    H5       H        0.97250    0.88720    0.08610    1.000
    C16      C        0.10820    0.91130    0.97220    1.000
    C17      C        0.16430    0.98350    0.04100    1.000
    C18      C        0.62780    0.15050    0.05090    1.000
    C19      C        0.55280    0.21510    0.97940    1.000
    H6       H        0.59320    0.30620    0.08770    1.000
    C20      C        0.79700    0.35090    0.46000    1.000
    C21      C        0.67560    0.34800    0.53130    1.000
    H7       H        0.58160    0.27360    0.42340    1.000
    C22      C        0.16310    0.90830    0.90640    1.000
    C23      C        0.21840    0.98020    0.97610    1.000
    H8       H        0.16500    0.00780    0.08580    1.000
    H9       H        0.66370    0.13970    0.09500    1.000
    C24      C        0.59180    0.12000    0.98730    1.000
    C25      C        0.51840    0.18400    0.91440    1.000
    H10      H        0.83010    0.33990    0.41610    1.000
    C26      C        0.81600    0.38740    0.52100    1.000
    C27      C        0.69640    0.38390    0.59490    1.000
    H11      H        0.16330    0.88380    0.86210    1.000
    C28      C        0.21760    0.94340    0.90900    1.000
    H12      H        0.25640    0.00270    0.97660    1.000
    C29      C        0.53770    0.13620    0.91960    1.000
    H13      H        0.60370    0.08760    0.98920    1.000
    H14      H        0.48370    0.19500    0.86890    1.000
    C30      C        0.76700    0.40350    0.58840    1.000
    H15      H        0.86250    0.40180    0.51750    1.000
    H16      H        0.66410    0.39450    0.64020    1.000
    H17      H        0.25460    0.94240    0.86510    1.000
    H18      H        0.51470    0.11450    0.87800    1.000
    H19      H        0.78200    0.42780    0.62970    1.000
    Mn2      Mn       0.50414    0.67825    0.10681    1.000
    O4       O        0.53650    0.61650    0.18720    1.000
    N7       N        0.45810    0.73590    0.00700    1.000
    N8       N        0.60790    0.67580    0.01810    1.000
    O5       O        0.39950    0.69040    0.16860    1.000
    O6       O        0.57080    0.72590    0.19180    1.000
    N9       N        0.45180    0.61930    0.01110    1.000
    C31      C        0.38450    0.71470    0.24140    1.000
    C32      C        0.30500    0.73120    0.24610    1.000
    C33      C        0.52430    0.51740    0.17130    1.000
    C34      C        0.25460    0.72490    0.16980    1.000
    C35      C        0.28320    0.75480    0.32720    1.000
    H20      H        0.54020    0.53400    0.11890    1.000
    C36      C        0.52450    0.46810    0.17220    1.000
    C37      C        0.18270    0.74150    0.17640    1.000
    H21      H        0.26920    0.70980    0.11500    1.000
    C38      C        0.21120    0.77140    0.33160    1.000
    H22      H        0.31700    0.75930    0.37810    1.000
    N10      N        0.54680    0.44160    0.09280    1.000
    N11      N        0.13050    0.73800    0.09780    1.000
    C39      C        0.16060    0.76500    0.25560    1.000
    N12      N        0.18800    0.79610    0.41380    1.000
    C40      C        0.51460    0.40030    0.06020    1.000
    C41      C        0.60850    0.44960    0.03740    1.000
    C42      C        0.10750    0.69820    0.04540    1.000
    C43      C        0.08890    0.77540    0.06350    1.000
    H23      H        0.11220    0.77660    0.25850    1.000
    C44      C        0.22640    0.83100    0.46620    1.000
    C45      C        0.11840    0.79410    0.44750    1.000
    H24      H        0.47250    0.38720    0.08610    1.000
    C46      C        0.60820    0.41130    0.97220    1.000
    C47      C        0.66430    0.48350    0.04100    1.000
    C48      C        0.12780    0.65050    0.05090    1.000
    C49      C        0.05280    0.71510    0.97940    1.000
    H25      H        0.09320    0.80620    0.08770    1.000
    C50      C        0.29700    0.85090    0.46000    1.000
    C51      C        0.17560    0.84800    0.53130    1.000
    H26      H        0.08160    0.77360    0.42340    1.000
    C52      C        0.66310    0.40830    0.90640    1.000
    C53      C        0.71840    0.48020    0.97610    1.000
    H27      H        0.66500    0.50780    0.08580    1.000
    H28      H        0.16370    0.63970    0.09500    1.000
    C54      C        0.09180    0.62000    0.98730    1.000
    C55      C        0.01840    0.68400    0.91440    1.000
    H29      H        0.33010    0.83990    0.41610    1.000
    C56      C        0.31600    0.88740    0.52100    1.000
    C57      C        0.19640    0.88390    0.59490    1.000
    H30      H        0.66330    0.38380    0.86210    1.000
    C58      C        0.71760    0.44340    0.90900    1.000
    H31      H        0.75640    0.50270    0.97660    1.000
    C59      C        0.03770    0.63620    0.91960    1.000
    H32      H        0.10370    0.58760    0.98920    1.000
    H33      H        0.98370    0.69500    0.86890    1.000
    C60      C        0.26700    0.90350    0.58840    1.000
    H34      H        0.36250    0.90180    0.51750    1.000
    H35      H        0.16410    0.89450    0.64020    1.000
    H36      H        0.75460    0.44240    0.86510    1.000
    H37      H        0.01470    0.61450    0.87800    1.000
    H38      H        0.28200    0.92780    0.62970    1.000
    Mn3      Mn       0.99586    0.17825    0.39319    1.000
    O7       O        0.96350    0.11650    0.31280    1.000
    N13      N        0.04190    0.23590    0.49300    1.000
    N14      N        0.89210    0.17580    0.48190    1.000
    O8       O        0.10050    0.19040    0.33140    1.000
    O9       O        0.92920    0.22590    0.30820    1.000
    N15      N        0.04820    0.11930    0.48890    1.000
    C61      C        0.11550    0.21470    0.25860    1.000
    C62      C        0.19500    0.23120    0.25390    1.000
    C63      C        0.97570    0.01740    0.32870    1.000
    C64      C        0.24540    0.22490    0.33020    1.000
    C65      C        0.21680    0.25480    0.17280    1.000
    H39      H        0.95980    0.03400    0.38110    1.000
    C66      C        0.97550    0.96810    0.32780    1.000
    C67      C        0.31730    0.24150    0.32360    1.000
    H40      H        0.23080    0.20980    0.38500    1.000
    C68      C        0.28880    0.27140    0.16840    1.000
    H41      H        0.18300    0.25930    0.12190    1.000
    N16      N        0.95320    0.94160    0.40720    1.000
    N17      N        0.36950    0.23800    0.40220    1.000
    C69      C        0.33940    0.26500    0.24440    1.000
    N18      N        0.31200    0.29610    0.08620    1.000
    C70      C        0.98540    0.90030    0.43980    1.000
    C71      C        0.89150    0.94960    0.46260    1.000
    C72      C        0.39250    0.19820    0.45460    1.000
    C73      C        0.41110    0.27540    0.43650    1.000
    H42      H        0.38780    0.27660    0.24150    1.000
    C74      C        0.27360    0.33100    0.03380    1.000
    C75      C        0.38160    0.29410    0.05250    1.000
    H43      H        0.02750    0.88720    0.41390    1.000
    C76      C        0.89180    0.91130    0.52780    1.000
    C77      C        0.83570    0.98350    0.45900    1.000
    C78      C        0.37220    0.15050    0.44910    1.000
    C79      C        0.44720    0.21510    0.52060    1.000
    H44      H        0.40680    0.30620    0.41230    1.000
    C80      C        0.20300    0.35090    0.04000    1.000
    C81      C        0.32440    0.34800    0.96870    1.000
    H45      H        0.41840    0.27360    0.07660    1.000
    C82      C        0.83690    0.90830    0.59360    1.000
    C83      C        0.78160    0.98020    0.52390    1.000
    H46      H        0.83500    0.00780    0.41420    1.000
    H47      H        0.33630    0.13970    0.40500    1.000
    C84      C        0.40820    0.12000    0.51270    1.000
    C85      C        0.48160    0.18400    0.58560    1.000
    H48      H        0.16990    0.33990    0.08390    1.000
    C86      C        0.18400    0.38740    0.97900    1.000
    C87      C        0.30360    0.38390    0.90510    1.000
    H49      H        0.83670    0.88380    0.63790    1.000
    C88      C        0.78240    0.94340    0.59100    1.000
    H50      H        0.74360    0.00270    0.52340    1.000
    C89      C        0.46230    0.13620    0.58040    1.000
    H51      H        0.39630    0.08760    0.51080    1.000
    H52      H        0.51630    0.19500    0.63110    1.000
    C90      C        0.23300    0.40350    0.91160    1.000
    H53      H        0.13750    0.40180    0.98250    1.000
    H54      H        0.33590    0.39450    0.85980    1.000
    H55      H        0.74540    0.94240    0.63490    1.000
    H56      H        0.48530    0.11450    0.62200    1.000
    H57      H        0.21800    0.42780    0.87030    1.000
    Mn4      Mn       0.49586    0.67825    0.39319    1.000
    O10      O        0.46350    0.61650    0.31280    1.000
    N19      N        0.54190    0.73590    0.49300    1.000
    N20      N        0.39210    0.67580    0.48190    1.000
    O11      O        0.60050    0.69040    0.33140    1.000
    O12      O        0.42920    0.72590    0.30820    1.000
    N21      N        0.54820    0.61930    0.48890    1.000
    C91      C        0.61550    0.71470    0.25860    1.000
    C92      C        0.69500    0.73120    0.25390    1.000
    C93      C        0.47570    0.51740    0.32870    1.000
    C94      C        0.74540    0.72490    0.33020    1.000
    C95      C        0.71680    0.75480    0.17280    1.000
    H58      H        0.45980    0.53400    0.38110    1.000
    C96      C        0.47550    0.46810    0.32780    1.000
    C97      C        0.81730    0.74150    0.32360    1.000
    H59      H        0.73080    0.70980    0.38500    1.000
    C98      C        0.78880    0.77140    0.16840    1.000
    H60      H        0.68300    0.75930    0.12190    1.000
    N22      N        0.45320    0.44160    0.40720    1.000
    N23      N        0.86950    0.73800    0.40220    1.000
    C99      C        0.83940    0.76500    0.24440    1.000
    N24      N        0.81200    0.79610    0.08620    1.000
    C100     C        0.48540    0.40030    0.43980    1.000
    C101     C        0.39150    0.44960    0.46260    1.000
    C102     C        0.89250    0.69820    0.45460    1.000
    C103     C        0.91110    0.77540    0.43650    1.000
    H61      H        0.88780    0.77660    0.24150    1.000
    C104     C        0.77360    0.83100    0.03380    1.000
    C105     C        0.88160    0.79410    0.05250    1.000
    H62      H        0.52750    0.38720    0.41390    1.000
    C106     C        0.39180    0.41130    0.52780    1.000
    C107     C        0.33570    0.48350    0.45900    1.000
    C108     C        0.87220    0.65050    0.44910    1.000
    C109     C        0.94720    0.71510    0.52060    1.000
    H63      H        0.90680    0.80620    0.41230    1.000
    C110     C        0.70300    0.85090    0.04000    1.000
    C111     C        0.82440    0.84800    0.96870    1.000
    H64      H        0.91840    0.77360    0.07660    1.000
    C112     C        0.33690    0.40830    0.59360    1.000
    C113     C        0.28160    0.48020    0.52390    1.000
    H65      H        0.33500    0.50780    0.41420    1.000
    H66      H        0.83630    0.63970    0.40500    1.000
    C114     C        0.90820    0.62000    0.51270    1.000
    C115     C        0.98160    0.68400    0.58560    1.000
    H67      H        0.66990    0.83990    0.08390    1.000
    C116     C        0.68400    0.88740    0.97900    1.000
    C117     C        0.80360    0.88390    0.90510    1.000
    H68      H        0.33670    0.38380    0.63790    1.000
    C118     C        0.28240    0.44340    0.59100    1.000
    H69      H        0.24360    0.50270    0.52340    1.000
    C119     C        0.96230    0.63620    0.58040    1.000
    H70      H        0.89630    0.58760    0.51080    1.000
    H71      H        0.01630    0.69500    0.63110    1.000
    C120     C        0.73300    0.90350    0.91160    1.000
    H72      H        0.63750    0.90180    0.98250    1.000
    H73      H        0.83590    0.89450    0.85980    1.000
    H74      H        0.24540    0.44240    0.63490    1.000
    H75      H        0.98530    0.61450    0.62200    1.000
    H76      H        0.71800    0.92780    0.87030    1.000
    Mn5      Mn       0.99586    0.82175    0.89319    1.000
    O13      O        0.96350    0.88350    0.81280    1.000
    N25      N        0.04190    0.76410    0.99300    1.000
    N26      N        0.89210    0.82420    0.98190    1.000
    O14      O        0.10050    0.80960    0.83140    1.000
    O15      O        0.92920    0.77410    0.80820    1.000
    N27      N        0.04820    0.88070    0.98890    1.000
    C121     C        0.11550    0.78530    0.75860    1.000
    C122     C        0.19500    0.76880    0.75390    1.000
    C123     C        0.97570    0.98260    0.82870    1.000
    C124     C        0.24540    0.77510    0.83020    1.000
    C125     C        0.21680    0.74520    0.67280    1.000
    H77      H        0.95980    0.96600    0.88110    1.000
    C126     C        0.97550    0.03190    0.82780    1.000
    C127     C        0.31730    0.75850    0.82360    1.000
    H78      H        0.23080    0.79020    0.88500    1.000
    C128     C        0.28880    0.72860    0.66840    1.000
    H79      H        0.18300    0.74070    0.62190    1.000
    N28      N        0.95320    0.05840    0.90720    1.000
    N29      N        0.36950    0.76200    0.90220    1.000
    C129     C        0.33940    0.73500    0.74440    1.000
    N30      N        0.31200    0.70390    0.58620    1.000
    C130     C        0.98540    0.09970    0.93980    1.000
    C131     C        0.89150    0.05040    0.96260    1.000
    C132     C        0.39250    0.80180    0.95460    1.000
    C133     C        0.41110    0.72460    0.93650    1.000
    H80      H        0.38780    0.72340    0.74150    1.000
    C134     C        0.27360    0.66900    0.53380    1.000
    C135     C        0.38160    0.70590    0.55250    1.000
    H81      H        0.02750    0.11280    0.91390    1.000
    C136     C        0.89180    0.08870    0.02780    1.000
    C137     C        0.83570    0.01650    0.95900    1.000
    C138     C        0.37220    0.84950    0.94910    1.000
    C139     C        0.44720    0.78490    0.02060    1.000
    H82      H        0.40680    0.69380    0.91230    1.000
    C140     C        0.20300    0.64910    0.54000    1.000
    C141     C        0.32440    0.65200    0.46870    1.000
    H83      H        0.41840    0.72640    0.57660    1.000
    C142     C        0.83690    0.09170    0.09360    1.000
    C143     C        0.78160    0.01980    0.02390    1.000
    H84      H        0.83500    0.99220    0.91420    1.000
    H85      H        0.33630    0.86030    0.90500    1.000
    C144     C        0.40820    0.88000    0.01270    1.000
    C145     C        0.48160    0.81600    0.08560    1.000
    H86      H        0.16990    0.66010    0.58390    1.000
    C146     C        0.18400    0.61260    0.47900    1.000
    C147     C        0.30360    0.61610    0.40510    1.000
    H87      H        0.83670    0.11620    0.13790    1.000
    C148     C        0.78240    0.05660    0.09100    1.000
    H88      H        0.74360    0.99730    0.02340    1.000
    C149     C        0.46230    0.86380    0.08040    1.000
    H89      H        0.39630    0.91240    0.01080    1.000
    H90      H        0.51630    0.80500    0.13110    1.000
    C150     C        0.23300    0.59650    0.41160    1.000
    H91      H        0.13750    0.59820    0.48250    1.000
    H92      H        0.33590    0.60550    0.35980    1.000
    H93      H        0.74540    0.05760    0.13490    1.000
    H94      H        0.48530    0.88550    0.12200    1.000
    H95      H        0.21800    0.57220    0.37030    1.000
    Mn6      Mn       0.49586    0.32175    0.89319    1.000
    O16      O        0.46350    0.38350    0.81280    1.000
    N31      N        0.54190    0.26410    0.99300    1.000
    N32      N        0.39210    0.32420    0.98190    1.000
    O17      O        0.60050    0.30960    0.83140    1.000
    O18      O        0.42920    0.27410    0.80820    1.000
    N33      N        0.54820    0.38070    0.98890    1.000
    C151     C        0.61550    0.28530    0.75860    1.000
    C152     C        0.69500    0.26880    0.75390    1.000
    C153     C        0.47570    0.48260    0.82870    1.000
    C154     C        0.74540    0.27510    0.83020    1.000
    C155     C        0.71680    0.24520    0.67280    1.000
    H96      H        0.45980    0.46600    0.88110    1.000
    C156     C        0.47550    0.53190    0.82780    1.000
    C157     C        0.81730    0.25850    0.82360    1.000
    H97      H        0.73080    0.29020    0.88500    1.000
    C158     C        0.78880    0.22860    0.66840    1.000
    H98      H        0.68300    0.24070    0.62190    1.000
    N34      N        0.45320    0.55840    0.90720    1.000
    N35      N        0.86950    0.26200    0.90220    1.000
    C159     C        0.83940    0.23500    0.74440    1.000
    N36      N        0.81200    0.20390    0.58620    1.000
    C160     C        0.48540    0.59970    0.93980    1.000
    C161     C        0.39150    0.55040    0.96260    1.000
    C162     C        0.89250    0.30180    0.95460    1.000
    C163     C        0.91110    0.22460    0.93650    1.000
    H99      H        0.88780    0.22340    0.74150    1.000
    C164     C        0.77360    0.16900    0.53380    1.000
    C165     C        0.88160    0.20590    0.55250    1.000
    H100     H        0.52750    0.61280    0.91390    1.000
    C166     C        0.39180    0.58870    0.02780    1.000
    C167     C        0.33570    0.51650    0.95900    1.000
    C168     C        0.87220    0.34950    0.94910    1.000
    C169     C        0.94720    0.28490    0.02060    1.000
    H101     H        0.90680    0.19380    0.91230    1.000
    C170     C        0.70300    0.14910    0.54000    1.000
    C171     C        0.82440    0.15200    0.46870    1.000
    H102     H        0.91840    0.22640    0.57660    1.000
    C172     C        0.33690    0.59170    0.09360    1.000
    C173     C        0.28160    0.51980    0.02390    1.000
    H103     H        0.33500    0.49220    0.91420    1.000
    H104     H        0.83630    0.36030    0.90500    1.000
    C174     C        0.90820    0.38000    0.01270    1.000
    C175     C        0.98160    0.31600    0.08560    1.000
    H105     H        0.66990    0.16010    0.58390    1.000
    C176     C        0.68400    0.11260    0.47900    1.000
    C177     C        0.80360    0.11610    0.40510    1.000
    H106     H        0.33670    0.61620    0.13790    1.000
    C178     C        0.28240    0.55660    0.09100    1.000
    H107     H        0.24360    0.49730    0.02340    1.000
    C179     C        0.96230    0.36380    0.08040    1.000
    H108     H        0.89630    0.41240    0.01080    1.000
    H109     H        0.01630    0.30500    0.13110    1.000
    C180     C        0.73300    0.09650    0.41160    1.000
    H110     H        0.63750    0.09820    0.48250    1.000
    H111     H        0.83590    0.10550    0.35980    1.000
    H112     H        0.24540    0.55760    0.13490    1.000
    H113     H        0.98530    0.38550    0.12200    1.000
    H114     H        0.71800    0.07220    0.37030    1.000
    Mn7      Mn       0.00414    0.82175    0.60681    1.000
    O19      O        0.03650    0.88350    0.68720    1.000
    N37      N        0.95810    0.76410    0.50700    1.000
    N38      N        0.10790    0.82420    0.51810    1.000
    O20      O        0.89950    0.80960    0.66860    1.000
    O21      O        0.07080    0.77410    0.69180    1.000
    N39      N        0.95180    0.88070    0.51110    1.000
    C181     C        0.88450    0.78530    0.74140    1.000
    C182     C        0.80500    0.76880    0.74610    1.000
    C183     C        0.02430    0.98260    0.67130    1.000
    C184     C        0.75460    0.77510    0.66980    1.000
    C185     C        0.78320    0.74520    0.82720    1.000
    H115     H        0.04020    0.96600    0.61890    1.000
    C186     C        0.02450    0.03190    0.67220    1.000
    C187     C        0.68270    0.75850    0.67640    1.000
    H116     H        0.76920    0.79020    0.61500    1.000
    C188     C        0.71120    0.72860    0.83160    1.000
    H117     H        0.81700    0.74070    0.87810    1.000
    N40      N        0.04680    0.05840    0.59280    1.000
    N41      N        0.63050    0.76200    0.59780    1.000
    C189     C        0.66060    0.73500    0.75560    1.000
    N42      N        0.68800    0.70390    0.91380    1.000
    C190     C        0.01460    0.09970    0.56020    1.000
    C191     C        0.10850    0.05040    0.53740    1.000
    C192     C        0.60750    0.80180    0.54540    1.000
    C193     C        0.58890    0.72460    0.56350    1.000
    H118     H        0.61220    0.72340    0.75850    1.000
    C194     C        0.72640    0.66900    0.96620    1.000
    C195     C        0.61840    0.70590    0.94750    1.000
    H119     H        0.97250    0.11280    0.58610    1.000
    C196     C        0.10820    0.08870    0.47220    1.000
    C197     C        0.16430    0.01650    0.54100    1.000
    C198     C        0.62780    0.84950    0.55090    1.000
    C199     C        0.55280    0.78490    0.47940    1.000
    H120     H        0.59320    0.69380    0.58770    1.000
    C200     C        0.79700    0.64910    0.96000    1.000
    C201     C        0.67560    0.65200    0.03130    1.000
    H121     H        0.58160    0.72640    0.92340    1.000
    C202     C        0.16310    0.09170    0.40640    1.000
    C203     C        0.21840    0.01980    0.47610    1.000
    H122     H        0.16500    0.99220    0.58580    1.000
    H123     H        0.66370    0.86030    0.59500    1.000
    C204     C        0.59180    0.88000    0.48730    1.000
    C205     C        0.51840    0.81600    0.41440    1.000
    H124     H        0.83010    0.66010    0.91610    1.000
    C206     C        0.81600    0.61260    0.02100    1.000
    C207     C        0.69640    0.61610    0.09490    1.000
    H125     H        0.16330    0.11620    0.36210    1.000
    C208     C        0.21760    0.05660    0.40900    1.000
    H126     H        0.25640    0.99730    0.47660    1.000
    C209     C        0.53770    0.86380    0.41960    1.000
    H127     H        0.60370    0.91240    0.48920    1.000
    H128     H        0.48370    0.80500    0.36890    1.000
    C210     C        0.76700    0.59650    0.08840    1.000
    H129     H        0.86250    0.59820    0.01750    1.000
    H130     H        0.66410    0.60550    0.14020    1.000
    H131     H        0.25460    0.05760    0.36510    1.000
    H132     H        0.51470    0.88550    0.37800    1.000
    H133     H        0.78200    0.57220    0.12970    1.000
    Mn8      Mn       0.50414    0.32175    0.60681    1.000
    O22      O        0.53650    0.38350    0.68720    1.000
    N43      N        0.45810    0.26410    0.50700    1.000
    N44      N        0.60790    0.32420    0.51810    1.000
    O23      O        0.39950    0.30960    0.66860    1.000
    O24      O        0.57080    0.27410    0.69180    1.000
    N45      N        0.45180    0.38070    0.51110    1.000
    C211     C        0.38450    0.28530    0.74140    1.000
    C212     C        0.30500    0.26880    0.74610    1.000
    C213     C        0.52430    0.48260    0.67130    1.000
    C214     C        0.25460    0.27510    0.66980    1.000
    C215     C        0.28320    0.24520    0.82720    1.000
    H134     H        0.54020    0.46600    0.61890    1.000
    C216     C        0.52450    0.53190    0.67220    1.000
    C217     C        0.18270    0.25850    0.67640    1.000
    H135     H        0.26920    0.29020    0.61500    1.000
    C218     C        0.21120    0.22860    0.83160    1.000
    H136     H        0.31700    0.24070    0.87810    1.000
    N46      N        0.54680    0.55840    0.59280    1.000
    N47      N        0.13050    0.26200    0.59780    1.000
    C219     C        0.16060    0.23500    0.75560    1.000
    N48      N        0.18800    0.20390    0.91380    1.000
    C220     C        0.51460    0.59970    0.56020    1.000
    C221     C        0.60850    0.55040    0.53740    1.000
    C222     C        0.10750    0.30180    0.54540    1.000
    C223     C        0.08890    0.22460    0.56350    1.000
    H137     H        0.11220    0.22340    0.75850    1.000
    C224     C        0.22640    0.16900    0.96620    1.000
    C225     C        0.11840    0.20590    0.94750    1.000
    H138     H        0.47250    0.61280    0.58610    1.000
    C226     C        0.60820    0.58870    0.47220    1.000
    C227     C        0.66430    0.51650    0.54100    1.000
    C228     C        0.12780    0.34950    0.55090    1.000
    C229     C        0.05280    0.28490    0.47940    1.000
    H139     H        0.09320    0.19380    0.58770    1.000
    C230     C        0.29700    0.14910    0.96000    1.000
    C231     C        0.17560    0.15200    0.03130    1.000
    H140     H        0.08160    0.22640    0.92340    1.000
    C232     C        0.66310    0.59170    0.40640    1.000
    C233     C        0.71840    0.51980    0.47610    1.000
    H141     H        0.66500    0.49220    0.58580    1.000
    H142     H        0.16370    0.36030    0.59500    1.000
    C234     C        0.09180    0.38000    0.48730    1.000
    C235     C        0.01840    0.31600    0.41440    1.000
    H143     H        0.33010    0.16010    0.91610    1.000
    C236     C        0.31600    0.11260    0.02100    1.000
    C237     C        0.19640    0.11610    0.09490    1.000
    H144     H        0.66330    0.61620    0.36210    1.000
    C238     C        0.71760    0.55660    0.40900    1.000
    H145     H        0.75640    0.49730    0.47660    1.000
    C239     C        0.03770    0.36380    0.41960    1.000
    H146     H        0.10370    0.41240    0.48920    1.000
    H147     H        0.98370    0.30500    0.36890    1.000
    C240     C        0.26700    0.09650    0.08840    1.000
    H148     H        0.36250    0.09820    0.01750    1.000
    H149     H        0.16410    0.10550    0.14020    1.000
    H150     H        0.75460    0.55760    0.36510    1.000
    H151     H        0.01470    0.38550    0.37800    1.000
    H152     H        0.28200    0.07220    0.12970    1.000
    C241     C        0.00000    0.09590    0.25000    1.000
    C242     C        0.00000    0.04230    0.25000    1.000
    C243     C        0.00000    0.94280    0.25000    1.000
    H153     H        0.00000    0.90960    0.25000    1.000
    C244     C        0.50000    0.59590    0.25000    1.000
    C245     C        0.50000    0.54230    0.25000    1.000
    C246     C        0.50000    0.44280    0.25000    1.000
    H154     H        0.50000    0.40960    0.25000    1.000
    C247     C        0.00000    0.90410    0.75000    1.000
    C248     C        0.00000    0.95770    0.75000    1.000
    C249     C        0.00000    0.05720    0.75000    1.000
    H155     H        0.00000    0.09040    0.75000    1.000
    C250     C        0.50000    0.40410    0.75000    1.000
    C251     C        0.50000    0.45770    0.75000    1.000
    C252     C        0.50000    0.55720    0.75000    1.000
    H156     H        0.50000    0.59040    0.75000    1.000
