data_functionalizedCrystal
_audit_creation_method	'EQeq! by Chris Wilmer'
_symmetry_space_group_name_H-M	'P1'
_symmetry_Int_Tables_number	1
_symmetry_cell_setting	triclinic
loop_
_symmetry_equiv_pos_as_xyz
  x,y,z
_cell_length_a	6.6174
_cell_length_b	18.2
_cell_length_c	8.3777
_cell_angle_alpha	90
_cell_angle_beta	90
_cell_angle_gamma	90
loop_
_atom_site_label
_atom_site_type_symbol
_atom_site_fract_x
_atom_site_fract_y
_atom_site_fract_z
_atom_site_charge
Mof_O 	O 	0.3337	0.0955	0.2703	-0.7
Mof_O 	O 	0.9846	0.0506	0.4286	-0.227
Mof_O 	O 	0.1737	0.1841	0.0203	-0.871
Mof_O 	O 	0.3203	0.2589	0.847	-0.956
Mof_C 	C 	0.2361	0.244	0.9773	1.144
Mof_H 	H 	0.2195	0.2827	0.0486	-0.463
Mof_O 	O 	0.8337	0.5955	0.2703	-0.524
Mof_O 	O 	0.4846	0.5506	0.4286	-0.953
Mof_O 	O 	0.6737	0.6841	0.0203	-0.887
Mof_O 	O 	0.8203	0.7589	0.847	-0.68
Mof_C 	C 	0.7361	0.744	0.9773	1.139
Mof_H 	H 	0.7195	0.7827	0.0486	-0.371
Mof_O 	O 	0.6663	0.9045	0.7703	-0.575
Mof_O 	O 	0.0154	0.9494	0.9286	-1.064
Mof_O 	O 	0.8263	0.8159	0.5203	-0.641
Mof_O 	O 	0.6797	0.7411	0.347	-0.846
Mof_C 	C 	0.7639	0.756	0.4773	0.964
Mof_H 	H 	0.7805	0.7173	0.5486	-0.282
Mof_O 	O 	0.1663	0.4045	0.7703	-0.743
Mof_O 	O 	0.5154	0.4494	0.9286	-0.892
Mof_O 	O 	0.3263	0.3159	0.5203	-0.882
Mof_O 	O 	0.1797	0.2411	0.347	-0.851
Mof_C 	C 	0.2639	0.256	0.4773	0.968
Mof_H 	H 	0.2805	0.2173	0.5486	-0.366
Mof_O 	O 	0.6663	0.0955	0.2297	-0.621
Mof_O 	O 	0.0154	0.0506	0.0714	-1.156
Mof_O 	O 	0.8263	0.1841	0.4797	-0.652
Mof_O 	O 	0.6797	0.2589	0.653	-0.851
Mof_C 	C 	0.7639	0.244	0.5227	0.971
Mof_H 	H 	0.7805	0.2827	0.4514	-0.291
Mof_O 	O 	0.1663	0.5955	0.2297	-0.757
Mof_O 	O 	0.5154	0.5506	0.0714	-0.929
Mof_O 	O 	0.3263	0.6841	0.4797	-0.879
Mof_O 	O 	0.1797	0.7589	0.653	-0.848
Mof_C 	C 	0.2639	0.744	0.5227	0.968
Mof_H 	H 	0.2805	0.7827	0.4514	-0.364
Mof_O 	O 	0.3337	0.9045	0.7297	-0.666
Mof_O 	O 	0.9846	0.9494	0.5714	-0.161
Mof_O 	O 	0.1737	0.8159	0.9797	-0.703
Mof_O 	O 	0.3203	0.7411	0.153	-0.872
Mof_C 	C 	0.2361	0.756	0.0227	0.791
Mof_H 	H 	0.2195	0.7173	0.9514	-0.29
Mof_O 	O 	0.8337	0.4045	0.7297	-0.518
Mof_O 	O 	0.4846	0.4494	0.5714	-0.954
Mof_O 	O 	0.6737	0.3159	0.9797	-0.716
Mof_O 	O 	0.8203	0.2411	0.153	-0.6
Mof_C 	C 	0.7361	0.256	0.0227	0.759
Mof_H 	H 	0.7195	0.2173	0.9514	-0.191
Mof_Lu	Lu	4.31405e-33	0.14278	0.25	3.205
Mof_Lu	Lu	0.5	0.64278	0.25	4.372
Mof_Lu	Lu	-3.39681e-32	0.85722	0.75	3.205
Mof_Lu	Lu	0.5	0.35722	0.75	4.382
Mof_C 	C 	0.5	0.126	0.25	0.808
Mof_H 	H 	0.5	0.1771	0.25	-0.281
Mof_C 	C 	-1.44501e-32	0.626	0.25	0.501
Mof_H 	H 	-2.69595e-32	0.6771	0.25	-0.297
Mof_C 	C 	0.5	0.874	0.75	0.808
Mof_H 	H 	0.5	0.8229	0.75	-0.272
Mof_C 	C 	-8.94933e-33	0.374	0.75	0.5
Mof_H 	H 	1.60695e-32	0.3229	0.75	-0.292
Mof_C 	C 	0.0765	0	0.5	-0.202
Mof_H 	H 	0.217	0	0.5	0.049
Mof_C 	C 	0.5765	0.5	0.5	1.111
Mof_H 	H 	0.717	0.5	0.5	-0.315
Mof_C 	C 	0.9235	0	-0	1.658
Mof_H 	H 	0.783	0	-0	-0.512
Mof_C 	C 	0.4235	0.5	-0	1.054
Mof_H 	H 	0.283	0.5	-0	-0.393
_end
