# CIF file generated by openbabel 3.1.0, see https://openbabel.org
data_I
_chemical_name_common 'image0'
_cell_length_a 12.7337
_cell_length_b 12.5615
_cell_length_c 17.8737
_cell_angle_alpha 90
_cell_angle_beta 90
_cell_angle_gamma 90
_space_group_name_H-M_alt 'P 1'
_space_group_name_Hall 'P 1'
loop_
    _symmetry_equiv_pos_as_xyz
    x,y,z
loop_
    _atom_site_label
    _atom_site_type_symbol
    _atom_site_fract_x
    _atom_site_fract_y
    _atom_site_fract_z
    _atom_site_occupancy
    U1       U        0.08222    0.64426    0.38048    1.000
    S1       S        0.27728    0.63238    0.58533    1.000
    O1       O        0.14918    0.52422    0.47124    1.000
    O2       O        0.06322    0.41363    0.54653    1.000
    O3       O        0.43090    0.76945    0.66604    1.000
    O4       O        0.36710    0.73624    0.78057    1.000
    C1       C        0.13140    0.48510    0.53478    1.000
    C2       C        0.19500    0.52450    0.59805    1.000
    C3       C        0.19120    0.49300    0.67132    1.000
    H1       H        0.15140    0.43400    0.68860    1.000
    C4       C        0.25340    0.55810    0.71854    1.000
    H2       H        0.25910    0.54840    0.77110    1.000
    C5       C        0.30420    0.63630    0.67980    1.000
    C6       C        0.37300    0.72030    0.71131    1.000
    U2       U        0.41778    0.85574    0.88048    1.000
    S2       S        0.22272    0.86762    0.08533    1.000
    O5       O        0.35082    0.97578    0.97124    1.000
    O6       O        0.43678    0.08637    0.04653    1.000
    O7       O        0.06910    0.73055    0.16604    1.000
    O8       O        0.13290    0.76376    0.28057    1.000
    C7       C        0.36860    0.01490    0.03478    1.000
    C8       C        0.30500    0.97550    0.09805    1.000
    C9       C        0.30880    0.00700    0.17132    1.000
    H3       H        0.34860    0.06600    0.18860    1.000
    C10      C        0.24660    0.94190    0.21854    1.000
    H4       H        0.24090    0.95160    0.27110    1.000
    C11      C        0.19580    0.86370    0.17980    1.000
    C12      C        0.12700    0.77970    0.21131    1.000
    U3       U        0.91778    0.64426    0.11952    1.000
    S3       S        0.72272    0.63238    0.91467    1.000
    O9       O        0.85082    0.52422    0.02876    1.000
    O10      O        0.93678    0.41363    0.95347    1.000
    O11      O        0.56910    0.76945    0.83396    1.000
    O12      O        0.63290    0.73624    0.71943    1.000
    C13      C        0.86860    0.48510    0.96522    1.000
    C14      C        0.80500    0.52450    0.90195    1.000
    C15      C        0.80880    0.49300    0.82868    1.000
    H5       H        0.84860    0.43400    0.81140    1.000
    C16      C        0.74660    0.55810    0.78146    1.000
    H6       H        0.74090    0.54840    0.72890    1.000
    C17      C        0.69580    0.63630    0.82020    1.000
    C18      C        0.62700    0.72030    0.78869    1.000
    U4       U        0.58222    0.85574    0.61952    1.000
    S4       S        0.77728    0.86762    0.41467    1.000
    O13      O        0.64918    0.97578    0.52876    1.000
    O14      O        0.56322    0.08637    0.45347    1.000
    O15      O        0.93090    0.73055    0.33396    1.000
    O16      O        0.86710    0.76376    0.21943    1.000
    C19      C        0.63140    0.01490    0.46522    1.000
    C20      C        0.69500    0.97550    0.40195    1.000
    C21      C        0.69120    0.00700    0.32868    1.000
    H7       H        0.65140    0.06600    0.31140    1.000
    C22      C        0.75340    0.94190    0.28146    1.000
    H8       H        0.75910    0.95160    0.22890    1.000
    C23      C        0.80420    0.86370    0.32020    1.000
    C24      C        0.87300    0.77970    0.28869    1.000
    U5       U        0.91778    0.35574    0.61952    1.000
    S5       S        0.72272    0.36762    0.41467    1.000
    O17      O        0.85082    0.47578    0.52876    1.000
    O18      O        0.93678    0.58637    0.45347    1.000
    O19      O        0.56910    0.23055    0.33396    1.000
    O20      O        0.63290    0.26376    0.21943    1.000
    C25      C        0.86860    0.51490    0.46522    1.000
    C26      C        0.80500    0.47550    0.40195    1.000
    C27      C        0.80880    0.50700    0.32868    1.000
    H9       H        0.84860    0.56600    0.31140    1.000
    C28      C        0.74660    0.44190    0.28146    1.000
    H10      H        0.74090    0.45160    0.22890    1.000
    C29      C        0.69580    0.36370    0.32020    1.000
    C30      C        0.62700    0.27970    0.28869    1.000
    U6       U        0.58222    0.14426    0.11952    1.000
    S6       S        0.77728    0.13238    0.91467    1.000
    O21      O        0.64918    0.02422    0.02876    1.000
    O22      O        0.56322    0.91363    0.95347    1.000
    O23      O        0.93090    0.26945    0.83396    1.000
    O24      O        0.86710    0.23624    0.71943    1.000
    C31      C        0.63140    0.98510    0.96522    1.000
    C32      C        0.69500    0.02450    0.90195    1.000
    C33      C        0.69120    0.99300    0.82868    1.000
    H11      H        0.65140    0.93400    0.81140    1.000
    C34      C        0.75340    0.05810    0.78146    1.000
    H12      H        0.75910    0.04840    0.72890    1.000
    C35      C        0.80420    0.13630    0.82020    1.000
    C36      C        0.87300    0.22030    0.78869    1.000
    U7       U        0.08222    0.35574    0.88048    1.000
    S7       S        0.27728    0.36762    0.08533    1.000
    O25      O        0.14918    0.47578    0.97124    1.000
    O26      O        0.06322    0.58637    0.04653    1.000
    O27      O        0.43090    0.23055    0.16604    1.000
    O28      O        0.36710    0.26376    0.28057    1.000
    C37      C        0.13140    0.51490    0.03478    1.000
    C38      C        0.19500    0.47550    0.09805    1.000
    C39      C        0.19120    0.50700    0.17132    1.000
    H13      H        0.15140    0.56600    0.18860    1.000
    C40      C        0.25340    0.44190    0.21854    1.000
    H14      H        0.25910    0.45160    0.27110    1.000
    C41      C        0.30420    0.36370    0.17980    1.000
    C42      C        0.37300    0.27970    0.21131    1.000
    U8       U        0.41778    0.14426    0.38048    1.000
    S8       S        0.22272    0.13238    0.58533    1.000
    O29      O        0.35082    0.02422    0.47124    1.000
    O30      O        0.43678    0.91363    0.54653    1.000
    O31      O        0.06910    0.26945    0.66604    1.000
    O32      O        0.13290    0.23624    0.78057    1.000
    C43      C        0.36860    0.98510    0.53478    1.000
    C44      C        0.30500    0.02450    0.59805    1.000
    C45      C        0.30880    0.99300    0.67132    1.000
    H15      H        0.34860    0.93400    0.68860    1.000
    C46      C        0.24660    0.05810    0.71854    1.000
    H16      H        0.24090    0.04840    0.77110    1.000
    C47      C        0.19580    0.13630    0.67980    1.000
    C48      C        0.12700    0.22030    0.71131    1.000
