data_functionalizedCrystal
_audit_creation_method	'EQeq! by Chris Wilmer'
_symmetry_space_group_name_H-M	'P1'
_symmetry_Int_Tables_number	1
_symmetry_cell_setting	triclinic
loop_
_symmetry_equiv_pos_as_xyz
  x,y,z
_cell_length_a	7.955
_cell_length_b	9.65
_cell_length_c	15.845
_cell_angle_alpha	90
_cell_angle_beta	90
_cell_angle_gamma	96.555
loop_
_atom_site_label
_atom_site_type_symbol
_atom_site_fract_x
_atom_site_fract_y
_atom_site_fract_z
_atom_site_charge
Mof_Dy	Dy	0.92438	0.1331	0.3271	1.748
Mof_Dy	Dy	0.57562	0.3669	0.8271	1.774
Mof_Dy	Dy	0.07562	0.8669	0.6729	1.748
Mof_Dy	Dy	0.42438	0.6331	0.1729	1.774
Mof_H 	H 	0.9686	0.68496	0.38791	0.058
Mof_H 	H 	0.61737	0.34707	0.25147	-0.04
Mof_H 	H 	0.5314	0.81504	0.88791	0.055
Mof_H 	H 	0.88263	0.15293	0.75147	-0.04
Mof_H 	H 	0.0314	0.31504	0.61209	0.058
Mof_H 	H 	0.38263	0.65293	0.74853	-0.04
Mof_H 	H 	0.4686	0.18496	0.11209	0.055
Mof_H 	H 	0.11737	0.84707	0.24853	-0.04
Mof_C 	C 	0.9161	0.4733	0.3681	-0.014
Mof_C 	C 	0.7461	0.7952	0.2834	0.406
Mof_C 	C 	0.8977	0.6142	0.3589	-0.022
Mof_C 	C 	0.7718	0.647	0.3054	-0.056
Mof_C 	C 	0.0584	0.4231	0.4188	0.326
Mof_C 	C 	0.6926	0.4168	0.279	0.131
Mof_C 	C 	0.9102	0.0096	0.5151	0.263
Mof_C 	C 	0.5839	0.0267	0.8681	-0.019
Mof_C 	C 	0.7539	0.7048	0.7834	0.407
Mof_C 	C 	0.6023	0.8858	0.8589	-0.015
Mof_C 	C 	0.7282	0.853	0.8054	-0.058
Mof_C 	C 	0.4416	0.0769	0.9188	0.332
Mof_C 	C 	0.8074	0.0832	0.779	0.122
Mof_C 	C 	0.5898	0.4904	0.0151	0.274
Mof_C 	C 	0.0839	0.5267	0.6319	-0.014
Mof_C 	C 	0.2539	0.2048	0.7166	0.406
Mof_C 	C 	0.1023	0.3858	0.6411	-0.022
Mof_C 	C 	0.2282	0.353	0.6946	-0.056
Mof_C 	C 	0.9416	0.5769	0.5812	0.326
Mof_C 	C 	0.3074	0.5832	0.721	0.131
Mof_C 	C 	0.0898	0.9904	0.4849	0.263
Mof_C 	C 	0.4161	0.9733	0.1319	-0.019
Mof_C 	C 	0.2461	0.2952	0.2166	0.407
Mof_C 	C 	0.3977	0.1142	0.1411	-0.015
Mof_C 	C 	0.2718	0.147	0.1946	-0.058
Mof_C 	C 	0.5584	0.9231	0.0812	0.332
Mof_C 	C 	0.1926	0.9168	0.221	0.122
Mof_C 	C 	0.4102	0.5096	0.9849	0.274
Mof_N 	N 	0.8138	0.375	0.3278	-0.225
Mof_N 	N 	0.6665	0.5483	0.2659	-0.204
Mof_N 	N 	0.6862	0.125	0.8278	-0.224
Mof_N 	N 	0.8335	0.9517	0.7659	-0.196
Mof_N 	N 	0.1862	0.625	0.6722	-0.225
Mof_N 	N 	0.3335	0.4517	0.7341	-0.204
Mof_N 	N 	0.3138	0.875	0.1722	-0.224
Mof_N 	N 	0.1665	0.0483	0.2341	-0.196
Mof_O 	O 	0.0505	0.2918	0.4294	-0.397
Mof_O 	O 	0.8527	0.8904	0.3105	-0.475
Mof_O 	O 	0.8126	0.0567	0.4631	-0.395
Mof_O 	O 	0.6207	0.8124	0.2383	-0.475
Mof_O 	O 	0.8739	0.9771	0.5904	-0.369
Mof_O 	O 	0.1734	0.5108	0.4435	-0.265
Mof_O 	O 	0.4495	0.2082	0.9294	-0.404
Mof_O 	O 	0.6473	0.6096	0.8105	-0.482
Mof_O 	O 	0.6874	0.4433	0.9631	-0.397
Mof_O 	O 	0.8793	0.6876	0.7383	-0.471
Mof_O 	O 	0.6261	0.5229	0.0904	-0.383
Mof_O 	O 	0.3266	0.9892	0.9435	-0.27
Mof_O 	O 	0.9495	0.7082	0.5706	-0.397
Mof_O 	O 	0.1473	0.1096	0.6895	-0.475
Mof_O 	O 	0.1874	0.9433	0.5369	-0.395
Mof_O 	O 	0.3793	0.1876	0.7617	-0.475
Mof_O 	O 	0.1261	0.0229	0.4096	-0.369
Mof_O 	O 	0.8266	0.4892	0.5565	-0.265
Mof_O 	O 	0.5505	0.7918	0.0706	-0.404
Mof_O 	O 	0.3527	0.3904	0.1895	-0.482
Mof_O 	O 	0.3126	0.5567	0.0369	-0.397
Mof_O 	O 	0.1207	0.3124	0.2617	-0.471
Mof_O 	O 	0.3739	0.4771	0.9096	-0.383
Mof_O 	O 	0.6734	0.0108	0.0565	-0.27
_end
