# CIF file generated by openbabel 3.1.0, see https://openbabel.org
data_I
_chemical_name_common 'image0'
_cell_length_a 10.3014
_cell_length_b 14.4176
_cell_length_c 17.507
_cell_angle_alpha 90
_cell_angle_beta 94.809
_cell_angle_gamma 90
_space_group_name_H-M_alt 'P 1'
_space_group_name_Hall 'P 1'
loop_
    _symmetry_equiv_pos_as_xyz
    x,y,z
loop_
    _atom_site_label
    _atom_site_type_symbol
    _atom_site_fract_x
    _atom_site_fract_y
    _atom_site_fract_z
    _atom_site_occupancy
    O1       O        0.39960    0.03030    0.10969    1.000
    Ca1      Ca       0.38930    0.15562    0.02779    1.000
    Ca2      Ca       0.53044    0.39147    0.05897    1.000
    S1       S        0.27123    0.25660    0.80191    1.000
    S2       S        0.30331    0.93693    0.24388    1.000
    O2       O        0.40930    0.30046    0.95469    1.000
    O3       O        0.13040    0.15610    0.67923    1.000
    O4       O        0.42850    0.45080    0.93552    1.000
    C1       C        0.37860    0.88710    0.16990    1.000
    C2       C        0.30900    0.36370    0.83970    1.000
    O5       O        0.06500    0.27389    0.60474    1.000
    C3       C        0.18200    0.30490    0.72500    1.000
    C4       C        0.25470    0.43350    0.79380    1.000
    H1       H        0.26520    0.49630    0.80490    1.000
    C5       C        0.18210    0.39940    0.72880    1.000
    H2       H        0.13840    0.43720    0.69210    1.000
    O6       O        0.22470    0.74440    0.39012    1.000
    C6       C        0.38600    0.37150    0.91430    1.000
    C7       C        0.12070    0.24090    0.66590    1.000
    O7       O        0.16120    0.89200    0.38117    1.000
    C8       C        0.42790    0.94640    0.10900    1.000
    C9       C        0.28100    0.83040    0.28480    1.000
    C10      C        0.32860    0.76110    0.24270    1.000
    H3       H        0.32500    0.69880    0.25610    1.000
    C11      C        0.38360    0.79320    0.17720    1.000
    H4       H        0.41980    0.75430    0.14220    1.000
    O8       O        0.49240    0.90680    0.06158    1.000
    C12      C        0.21620    0.82160    0.35770    1.000
    O9       O        0.10040    0.53030    0.39031    1.000
    Ca3      Ca       0.11070    0.65562    0.47221    1.000
    Ca4      Ca       0.96956    0.89147    0.44103    1.000
    S3       S        0.22877    0.75660    0.69809    1.000
    S4       S        0.19669    0.43693    0.25612    1.000
    O10      O        0.09070    0.80046    0.54531    1.000
    O11      O        0.36960    0.65610    0.82077    1.000
    O12      O        0.07150    0.95080    0.56448    1.000
    C13      C        0.12140    0.38710    0.33010    1.000
    C14      C        0.19100    0.86370    0.66030    1.000
    O13      O        0.43500    0.77389    0.89526    1.000
    C15      C        0.31800    0.80490    0.77500    1.000
    C16      C        0.24530    0.93350    0.70620    1.000
    H5       H        0.23480    0.99630    0.69510    1.000
    C17      C        0.31790    0.89940    0.77120    1.000
    H6       H        0.36160    0.93720    0.80790    1.000
    O14      O        0.27530    0.24440    0.10988    1.000
    C18      C        0.11400    0.87150    0.58570    1.000
    C19      C        0.37930    0.74090    0.83410    1.000
    O15      O        0.33880    0.39200    0.11883    1.000
    C20      C        0.07210    0.44640    0.39100    1.000
    C21      C        0.21900    0.33040    0.21520    1.000
    C22      C        0.17140    0.26110    0.25730    1.000
    H7       H        0.17500    0.19880    0.24390    1.000
    C23      C        0.11640    0.29320    0.32280    1.000
    H8       H        0.08020    0.25430    0.35780    1.000
    O16      O        0.00760    0.40680    0.43842    1.000
    C24      C        0.28380    0.32160    0.14230    1.000
    O17      O        0.60040    0.96970    0.89031    1.000
    Ca5      Ca       0.61070    0.84438    0.97221    1.000
    Ca6      Ca       0.46956    0.60853    0.94103    1.000
    S5       S        0.72877    0.74340    0.19809    1.000
    S6       S        0.69669    0.06307    0.75612    1.000
    O18      O        0.59070    0.69954    0.04531    1.000
    O19      O        0.86960    0.84390    0.32077    1.000
    O20      O        0.57150    0.54920    0.06448    1.000
    C25      C        0.62140    0.11290    0.83010    1.000
    C26      C        0.69100    0.63630    0.16030    1.000
    O21      O        0.93500    0.72611    0.39526    1.000
    C27      C        0.81800    0.69510    0.27500    1.000
    C28      C        0.74530    0.56650    0.20620    1.000
    H9       H        0.73480    0.50370    0.19510    1.000
    C29      C        0.81790    0.60060    0.27120    1.000
    H10      H        0.86160    0.56280    0.30790    1.000
    O22      O        0.77530    0.25560    0.60988    1.000
    C30      C        0.61400    0.62850    0.08570    1.000
    C31      C        0.87930    0.75910    0.33410    1.000
    O23      O        0.83880    0.10800    0.61883    1.000
    C32      C        0.57210    0.05360    0.89100    1.000
    C33      C        0.71900    0.16960    0.71520    1.000
    C34      C        0.67140    0.23890    0.75730    1.000
    H11      H        0.67500    0.30120    0.74390    1.000
    C35      C        0.61640    0.20680    0.82280    1.000
    H12      H        0.58020    0.24570    0.85780    1.000
    O24      O        0.50760    0.09320    0.93842    1.000
    C36      C        0.78380    0.17840    0.64230    1.000
    O25      O        0.89960    0.46970    0.60969    1.000
    Ca7      Ca       0.88930    0.34438    0.52779    1.000
    Ca8      Ca       0.03044    0.10853    0.55897    1.000
    S7       S        0.77123    0.24340    0.30191    1.000
    S8       S        0.80331    0.56307    0.74388    1.000
    O26      O        0.90930    0.19954    0.45469    1.000
    O27      O        0.63040    0.34390    0.17923    1.000
    O28      O        0.92850    0.04920    0.43552    1.000
    C37      C        0.87860    0.61290    0.66990    1.000
    C38      C        0.80900    0.13630    0.33970    1.000
    O29      O        0.56500    0.22611    0.10474    1.000
    C39      C        0.68200    0.19510    0.22500    1.000
    C40      C        0.75470    0.06650    0.29380    1.000
    H13      H        0.76520    0.00370    0.30490    1.000
    C41      C        0.68210    0.10060    0.22880    1.000
    H14      H        0.63840    0.06280    0.19210    1.000
    O30      O        0.72470    0.75560    0.89012    1.000
    C42      C        0.88600    0.12850    0.41430    1.000
    C43      C        0.62070    0.25910    0.16590    1.000
    O31      O        0.66120    0.60800    0.88117    1.000
    C44      C        0.92790    0.55360    0.60900    1.000
    C45      C        0.78100    0.66960    0.78480    1.000
    C46      C        0.82860    0.73890    0.74270    1.000
    H15      H        0.82500    0.80120    0.75610    1.000
    C47      C        0.88360    0.70680    0.67720    1.000
    H16      H        0.91980    0.74570    0.64220    1.000
    O32      O        0.99240    0.59320    0.56158    1.000
    C48      C        0.71620    0.67840    0.85770    1.000
