data_functionalizedCrystal
_audit_creation_method	'EQeq! by Chris Wilmer'
_symmetry_space_group_name_H-M	'P1'
_symmetry_Int_Tables_number	1
_symmetry_cell_setting	triclinic
loop_
_symmetry_equiv_pos_as_xyz
  x,y,z
_cell_length_a	18.2512
_cell_length_b	18.2512
_cell_length_c	34.2802
_cell_angle_alpha	90
_cell_angle_beta	90
_cell_angle_gamma	120
loop_
_atom_site_label
_atom_site_type_symbol
_atom_site_fract_x
_atom_site_fract_y
_atom_site_fract_z
_atom_site_charge
Mof_O 	O 	0.56267	0.5865	0.94869	-0.412
Mof_O 	O 	0.51966	0.6292	0.0014	-0.405
Mof_C 	C 	0.5515	0.6391	0.96718	0.361
Mof_C 	C 	0.5754	0.7213	0.94869	-0.106
Mof_C 	C 	0.6105	0.7414	0.91132	0.017
Mof_H 	H 	0.6241	0.7044	0.8989	0.038
Mof_C 	C 	0.71	0.8056	0.8363	-0.07
Mof_H 	H 	0.7367	0.7835	0.8541	0.052
Mof_C 	C 	0.7308	0.8145	0.7972	-0.032
Mof_H 	H 	0.7696	0.7999	0.7878	0.042
Mof_C 	C 	0.612	0.8533	0.8234	-0.11
Mof_H 	H 	0.5667	0.8653	0.8325	0.063
Mof_C 	C 	0.6357	0.7775	0.7837	0.088
Mof_O 	O 	0.4135	0.97617	0.94869	-0.412
Mof_O 	O 	0.3708	0.89046	0.0014	-0.406
Mof_C 	C 	0.3609	0.9124	0.96718	0.362
Mof_C 	C 	0.2787	0.8541	0.94869	-0.106
Mof_C 	C 	0.2586	0.8691	0.91132	0.017
Mof_H 	H 	0.2956	0.9197	0.8989	0.038
Mof_C 	C 	0.1944	0.9044	0.8363	-0.07
Mof_H 	H 	0.2165	0.9532	0.8541	0.052
Mof_C 	C 	0.1855	0.9163	0.7972	-0.032
Mof_H 	H 	0.2001	0.9697	0.7878	0.042
Mof_C 	C 	0.1467	0.7587	0.8234	-0.11
Mof_H 	H 	0.1347	0.7014	0.8325	0.062
Mof_C 	C 	0.2225	0.8582	0.7837	0.087
Mof_O 	O 	0.02383	0.43733	0.94869	-0.413
Mof_O 	O 	0.10954	0.48034	0.0014	-0.406
Mof_C 	C 	0.0876	0.4485	0.96718	0.36
Mof_C 	C 	0.1459	0.4246	0.94869	-0.107
Mof_C 	C 	0.1309	0.3895	0.91132	0.016
Mof_H 	H 	0.0803	0.3759	0.8989	0.037
Mof_C 	C 	0.0956	0.29	0.8363	-0.071
Mof_H 	H 	0.0468	0.2633	0.8541	0.051
Mof_C 	C 	0.0837	0.2692	0.7972	-0.033
Mof_H 	H 	0.0303	0.2304	0.7878	0.041
Mof_C 	C 	0.2413	0.388	0.8234	-0.111
Mof_H 	H 	0.2986	0.4333	0.8325	0.062
Mof_C 	C 	0.1418	0.3643	0.7837	0.087
Mof_O 	O 	0.43733	0.4135	0.44869	-0.413
Mof_O 	O 	0.48034	0.3708	0.5014	-0.406
Mof_C 	C 	0.4485	0.3609	0.46718	0.36
Mof_C 	C 	0.4246	0.2787	0.44869	-0.107
Mof_C 	C 	0.3895	0.2586	0.41132	0.016
Mof_H 	H 	0.3759	0.2956	0.3989	0.037
Mof_C 	C 	0.29	0.1944	0.3363	-0.071
Mof_H 	H 	0.2633	0.2165	0.3541	0.051
Mof_C 	C 	0.2692	0.1855	0.2972	-0.033
Mof_H 	H 	0.2304	0.2001	0.2878	0.041
Mof_C 	C 	0.388	0.1467	0.3234	-0.111
Mof_H 	H 	0.4333	0.1347	0.3325	0.062
Mof_C 	C 	0.3643	0.2225	0.2837	0.087
Mof_O 	O 	0.5865	0.02383	0.44869	-0.413
Mof_O 	O 	0.6292	0.10954	0.5014	-0.406
Mof_C 	C 	0.6391	0.0876	0.46718	0.36
Mof_C 	C 	0.7213	0.1459	0.44869	-0.107
Mof_C 	C 	0.7414	0.1309	0.41132	0.016
Mof_H 	H 	0.7044	0.0803	0.3989	0.037
Mof_C 	C 	0.8056	0.0956	0.3363	-0.071
Mof_H 	H 	0.7835	0.0468	0.3541	0.051
Mof_C 	C 	0.8145	0.0837	0.2972	-0.033
Mof_H 	H 	0.7999	0.0303	0.2878	0.041
Mof_C 	C 	0.8533	0.2413	0.3234	-0.111
Mof_H 	H 	0.8653	0.2986	0.3325	0.062
Mof_C 	C 	0.7775	0.1418	0.2837	0.087
Mof_O 	O 	0.97617	0.56267	0.44869	-0.413
Mof_O 	O 	0.89046	0.51966	0.5014	-0.406
Mof_C 	C 	0.9124	0.5515	0.46718	0.36
Mof_C 	C 	0.8541	0.5754	0.44869	-0.107
Mof_C 	C 	0.8691	0.6105	0.41132	0.016
Mof_H 	H 	0.9197	0.6241	0.3989	0.037
Mof_C 	C 	0.9044	0.71	0.3363	-0.071
Mof_H 	H 	0.9532	0.7367	0.3541	0.051
Mof_C 	C 	0.9163	0.7308	0.2972	-0.033
Mof_H 	H 	0.9697	0.7696	0.2878	0.041
Mof_C 	C 	0.7587	0.612	0.3234	-0.111
Mof_H 	H 	0.7014	0.5667	0.3325	0.062
Mof_C 	C 	0.8582	0.6357	0.2837	0.087
Mof_O 	O 	0.5865	0.56267	0.05131	-0.413
Mof_O 	O 	0.6292	0.51966	0.9986	-0.406
Mof_C 	C 	0.6391	0.5515	0.03282	0.36
Mof_C 	C 	0.7213	0.5754	0.05131	-0.107
Mof_C 	C 	0.7414	0.6105	0.08868	0.016
Mof_H 	H 	0.7044	0.6241	0.1011	0.037
Mof_C 	C 	0.8056	0.71	0.1637	-0.071
Mof_H 	H 	0.7835	0.7367	0.1459	0.051
Mof_C 	C 	0.8145	0.7308	0.2028	-0.033
Mof_H 	H 	0.7999	0.7696	0.2122	0.041
Mof_C 	C 	0.8533	0.612	0.1766	-0.111
Mof_H 	H 	0.8653	0.5667	0.1675	0.062
Mof_C 	C 	0.7775	0.6357	0.2163	0.087
Mof_O 	O 	0.97617	0.4135	0.05131	-0.413
Mof_O 	O 	0.89046	0.3708	0.9986	-0.407
Mof_C 	C 	0.9124	0.3609	0.03282	0.361
Mof_C 	C 	0.8541	0.2787	0.05131	-0.107
Mof_C 	C 	0.8691	0.2586	0.08868	0.016
Mof_H 	H 	0.9197	0.2956	0.1011	0.037
Mof_C 	C 	0.9044	0.1944	0.1637	-0.071
Mof_H 	H 	0.9532	0.2165	0.1459	0.051
Mof_C 	C 	0.9163	0.1855	0.2028	-0.033
Mof_H 	H 	0.9697	0.2001	0.2122	0.041
Mof_C 	C 	0.7587	0.1467	0.1766	-0.111
Mof_H 	H 	0.7014	0.1347	0.1675	0.062
Mof_C 	C 	0.8582	0.2225	0.2163	0.087
Mof_O 	O 	0.43733	0.02383	0.05131	-0.413
Mof_O 	O 	0.48034	0.10954	0.9986	-0.406
Mof_C 	C 	0.4485	0.0876	0.03282	0.36
Mof_C 	C 	0.4246	0.1459	0.05131	-0.107
Mof_C 	C 	0.3895	0.1309	0.08868	0.016
Mof_H 	H 	0.3759	0.0803	0.1011	0.037
Mof_C 	C 	0.29	0.0956	0.1637	-0.071
Mof_H 	H 	0.2633	0.0468	0.1459	0.051
Mof_C 	C 	0.2692	0.0837	0.2028	-0.033
Mof_H 	H 	0.2304	0.0303	0.2122	0.041
Mof_C 	C 	0.388	0.2413	0.1766	-0.111
Mof_H 	H 	0.4333	0.2986	0.1675	0.062
Mof_C 	C 	0.3643	0.1418	0.2163	0.087
Mof_O 	O 	0.4135	0.43733	0.55131	-0.413
Mof_O 	O 	0.3708	0.48034	0.4986	-0.406
Mof_C 	C 	0.3609	0.4485	0.53282	0.36
Mof_C 	C 	0.2787	0.4246	0.55131	-0.107
Mof_C 	C 	0.2586	0.3895	0.58868	0.016
Mof_H 	H 	0.2956	0.3759	0.6011	0.037
Mof_C 	C 	0.1944	0.29	0.6637	-0.071
Mof_H 	H 	0.2165	0.2633	0.6459	0.051
Mof_C 	C 	0.1855	0.2692	0.7028	-0.033
Mof_H 	H 	0.2001	0.2304	0.7122	0.041
Mof_C 	C 	0.1467	0.388	0.6766	-0.111
Mof_H 	H 	0.1347	0.4333	0.6675	0.062
Mof_C 	C 	0.2225	0.3643	0.7163	0.087
Mof_O 	O 	0.02383	0.5865	0.55131	-0.413
Mof_O 	O 	0.10954	0.6292	0.4986	-0.406
Mof_C 	C 	0.0876	0.6391	0.53282	0.36
Mof_C 	C 	0.1459	0.7213	0.55131	-0.107
Mof_C 	C 	0.1309	0.7414	0.58868	0.016
Mof_H 	H 	0.0803	0.7044	0.6011	0.037
Mof_C 	C 	0.0956	0.8056	0.6637	-0.071
Mof_H 	H 	0.0468	0.7835	0.6459	0.051
Mof_C 	C 	0.0837	0.8145	0.7028	-0.033
Mof_H 	H 	0.0303	0.7999	0.7122	0.041
Mof_C 	C 	0.2413	0.8533	0.6766	-0.111
Mof_H 	H 	0.2986	0.8653	0.6675	0.062
Mof_C 	C 	0.1418	0.7775	0.7163	0.087
Mof_O 	O 	0.56267	0.97617	0.55131	-0.413
Mof_O 	O 	0.51966	0.89046	0.4986	-0.406
Mof_C 	C 	0.5515	0.9124	0.53282	0.36
Mof_C 	C 	0.5754	0.8541	0.55131	-0.107
Mof_C 	C 	0.6105	0.8691	0.58868	0.016
Mof_H 	H 	0.6241	0.9197	0.6011	0.037
Mof_C 	C 	0.71	0.9044	0.6637	-0.071
Mof_H 	H 	0.7367	0.9532	0.6459	0.051
Mof_C 	C 	0.7308	0.9163	0.7028	-0.033
Mof_H 	H 	0.7696	0.9697	0.7122	0.041
Mof_C 	C 	0.612	0.7587	0.6766	-0.111
Mof_H 	H 	0.5667	0.7014	0.6675	0.062
Mof_C 	C 	0.6357	0.8582	0.7163	0.087
Mof_O 	O 	0.43733	0.4135	0.05131	-0.413
Mof_O 	O 	0.48034	0.3708	0.9986	-0.406
Mof_C 	C 	0.4485	0.3609	0.03282	0.36
Mof_C 	C 	0.4246	0.2787	0.05131	-0.107
Mof_C 	C 	0.3895	0.2586	0.08868	0.016
Mof_H 	H 	0.3759	0.2956	0.1011	0.037
Mof_C 	C 	0.29	0.1944	0.1637	-0.071
Mof_H 	H 	0.2633	0.2165	0.1459	0.051
Mof_C 	C 	0.2692	0.1855	0.2028	-0.033
Mof_H 	H 	0.2304	0.2001	0.2122	0.041
Mof_C 	C 	0.388	0.1467	0.1766	-0.111
Mof_H 	H 	0.4333	0.1347	0.1675	0.062
Mof_C 	C 	0.3643	0.2225	0.2163	0.087
Mof_O 	O 	0.5865	0.02383	0.05131	-0.413
Mof_O 	O 	0.6292	0.10954	0.9986	-0.407
Mof_C 	C 	0.6391	0.0876	0.03282	0.361
Mof_C 	C 	0.7213	0.1459	0.05131	-0.107
Mof_C 	C 	0.7414	0.1309	0.08868	0.016
Mof_H 	H 	0.7044	0.0803	0.1011	0.037
Mof_C 	C 	0.8056	0.0956	0.1637	-0.071
Mof_H 	H 	0.7835	0.0468	0.1459	0.051
Mof_C 	C 	0.8145	0.0837	0.2028	-0.033
Mof_H 	H 	0.7999	0.0303	0.2122	0.041
Mof_C 	C 	0.8533	0.2413	0.1766	-0.111
Mof_H 	H 	0.8653	0.2986	0.1675	0.062
Mof_C 	C 	0.7775	0.1418	0.2163	0.087
Mof_O 	O 	0.97617	0.56267	0.05131	-0.413
Mof_O 	O 	0.89046	0.51966	0.9986	-0.406
Mof_C 	C 	0.9124	0.5515	0.03282	0.36
Mof_C 	C 	0.8541	0.5754	0.05131	-0.107
Mof_C 	C 	0.8691	0.6105	0.08868	0.016
Mof_H 	H 	0.9197	0.6241	0.1011	0.037
Mof_C 	C 	0.9044	0.71	0.1637	-0.071
Mof_H 	H 	0.9532	0.7367	0.1459	0.051
Mof_C 	C 	0.9163	0.7308	0.2028	-0.033
Mof_H 	H 	0.9697	0.7696	0.2122	0.041
Mof_C 	C 	0.7587	0.612	0.1766	-0.111
Mof_H 	H 	0.7014	0.5667	0.1675	0.062
Mof_C 	C 	0.8582	0.6357	0.2163	0.087
Mof_O 	O 	0.56267	0.5865	0.55131	-0.413
Mof_O 	O 	0.51966	0.6292	0.4986	-0.406
Mof_C 	C 	0.5515	0.6391	0.53282	0.36
Mof_C 	C 	0.5754	0.7213	0.55131	-0.107
Mof_C 	C 	0.6105	0.7414	0.58868	0.016
Mof_H 	H 	0.6241	0.7044	0.6011	0.037
Mof_C 	C 	0.71	0.8056	0.6637	-0.071
Mof_H 	H 	0.7367	0.7835	0.6459	0.051
Mof_C 	C 	0.7308	0.8145	0.7028	-0.033
Mof_H 	H 	0.7696	0.7999	0.7122	0.041
Mof_C 	C 	0.612	0.8533	0.6766	-0.111
Mof_H 	H 	0.5667	0.8653	0.6675	0.062
Mof_C 	C 	0.6357	0.7775	0.7163	0.087
Mof_O 	O 	0.4135	0.97617	0.55131	-0.413
Mof_O 	O 	0.3708	0.89046	0.4986	-0.406
Mof_C 	C 	0.3609	0.9124	0.53282	0.36
Mof_C 	C 	0.2787	0.8541	0.55131	-0.107
Mof_C 	C 	0.2586	0.8691	0.58868	0.016
Mof_H 	H 	0.2956	0.9197	0.6011	0.037
Mof_C 	C 	0.1944	0.9044	0.6637	-0.071
Mof_H 	H 	0.2165	0.9532	0.6459	0.051
Mof_C 	C 	0.1855	0.9163	0.7028	-0.033
Mof_H 	H 	0.2001	0.9697	0.7122	0.041
Mof_C 	C 	0.1467	0.7587	0.6766	-0.111
Mof_H 	H 	0.1347	0.7014	0.6675	0.062
Mof_C 	C 	0.2225	0.8582	0.7163	0.087
Mof_O 	O 	0.02383	0.43733	0.55131	-0.413
Mof_O 	O 	0.10954	0.48034	0.4986	-0.406
Mof_C 	C 	0.0876	0.4485	0.53282	0.36
Mof_C 	C 	0.1459	0.4246	0.55131	-0.107
Mof_C 	C 	0.1309	0.3895	0.58868	0.016
Mof_H 	H 	0.0803	0.3759	0.6011	0.037
Mof_C 	C 	0.0956	0.29	0.6637	-0.071
Mof_H 	H 	0.0468	0.2633	0.6459	0.051
Mof_C 	C 	0.0837	0.2692	0.7028	-0.033
Mof_H 	H 	0.0303	0.2304	0.7122	0.041
Mof_C 	C 	0.2413	0.388	0.6766	-0.111
Mof_H 	H 	0.2986	0.4333	0.6675	0.062
Mof_C 	C 	0.1418	0.3643	0.7163	0.087
Mof_O 	O 	0.4135	0.43733	0.94869	-0.413
Mof_O 	O 	0.3708	0.48034	0.0014	-0.406
Mof_C 	C 	0.3609	0.4485	0.96718	0.36
Mof_C 	C 	0.2787	0.4246	0.94869	-0.107
Mof_C 	C 	0.2586	0.3895	0.91132	0.016
Mof_H 	H 	0.2956	0.3759	0.8989	0.037
Mof_C 	C 	0.1944	0.29	0.8363	-0.071
Mof_H 	H 	0.2165	0.2633	0.8541	0.051
Mof_C 	C 	0.1855	0.2692	0.7972	-0.033
Mof_H 	H 	0.2001	0.2304	0.7878	0.041
Mof_C 	C 	0.1467	0.388	0.8234	-0.111
Mof_H 	H 	0.1347	0.4333	0.8325	0.062
Mof_C 	C 	0.2225	0.3643	0.7837	0.087
Mof_O 	O 	0.02383	0.5865	0.94869	-0.413
Mof_O 	O 	0.10954	0.6292	0.0014	-0.407
Mof_C 	C 	0.0876	0.6391	0.96718	0.361
Mof_C 	C 	0.1459	0.7213	0.94869	-0.107
Mof_C 	C 	0.1309	0.7414	0.91132	0.016
Mof_H 	H 	0.0803	0.7044	0.8989	0.037
Mof_C 	C 	0.0956	0.8056	0.8363	-0.071
Mof_H 	H 	0.0468	0.7835	0.8541	0.051
Mof_C 	C 	0.0837	0.8145	0.7972	-0.033
Mof_H 	H 	0.0303	0.7999	0.7878	0.041
Mof_C 	C 	0.2413	0.8533	0.8234	-0.111
Mof_H 	H 	0.2986	0.8653	0.8325	0.062
Mof_C 	C 	0.1418	0.7775	0.7837	0.087
Mof_O 	O 	0.56267	0.97617	0.94869	-0.413
Mof_O 	O 	0.51966	0.89046	0.0014	-0.406
Mof_C 	C 	0.5515	0.9124	0.96718	0.36
Mof_C 	C 	0.5754	0.8541	0.94869	-0.107
Mof_C 	C 	0.6105	0.8691	0.91132	0.016
Mof_H 	H 	0.6241	0.9197	0.8989	0.037
Mof_C 	C 	0.71	0.9044	0.8363	-0.071
Mof_H 	H 	0.7367	0.9532	0.8541	0.051
Mof_C 	C 	0.7308	0.9163	0.7972	-0.033
Mof_H 	H 	0.7696	0.9697	0.7878	0.041
Mof_C 	C 	0.612	0.7587	0.8234	-0.111
Mof_H 	H 	0.5667	0.7014	0.8325	0.062
Mof_C 	C 	0.6357	0.8582	0.7837	0.087
Mof_O 	O 	0.5865	0.56267	0.44869	-0.413
Mof_O 	O 	0.6292	0.51966	0.5014	-0.406
Mof_C 	C 	0.6391	0.5515	0.46718	0.36
Mof_C 	C 	0.7213	0.5754	0.44869	-0.107
Mof_C 	C 	0.7414	0.6105	0.41132	0.016
Mof_H 	H 	0.7044	0.6241	0.3989	0.037
Mof_C 	C 	0.8056	0.71	0.3363	-0.071
Mof_H 	H 	0.7835	0.7367	0.3541	0.051
Mof_C 	C 	0.8145	0.7308	0.2972	-0.033
Mof_H 	H 	0.7999	0.7696	0.2878	0.041
Mof_C 	C 	0.8533	0.612	0.3234	-0.111
Mof_H 	H 	0.8653	0.5667	0.3325	0.062
Mof_C 	C 	0.7775	0.6357	0.2837	0.087
Mof_O 	O 	0.97617	0.4135	0.44869	-0.413
Mof_O 	O 	0.89046	0.3708	0.5014	-0.406
Mof_C 	C 	0.9124	0.3609	0.46718	0.36
Mof_C 	C 	0.8541	0.2787	0.44869	-0.107
Mof_C 	C 	0.8691	0.2586	0.41132	0.016
Mof_H 	H 	0.9197	0.2956	0.3989	0.037
Mof_C 	C 	0.9044	0.1944	0.3363	-0.071
Mof_H 	H 	0.9532	0.2165	0.3541	0.051
Mof_C 	C 	0.9163	0.1855	0.2972	-0.033
Mof_H 	H 	0.9697	0.2001	0.2878	0.041
Mof_C 	C 	0.7587	0.1467	0.3234	-0.111
Mof_H 	H 	0.7014	0.1347	0.3325	0.062
Mof_C 	C 	0.8582	0.2225	0.2837	0.087
Mof_O 	O 	0.43733	0.02383	0.44869	-0.413
Mof_O 	O 	0.48034	0.10954	0.5014	-0.406
Mof_C 	C 	0.4485	0.0876	0.46718	0.36
Mof_C 	C 	0.4246	0.1459	0.44869	-0.107
Mof_C 	C 	0.3895	0.1309	0.41132	0.016
Mof_H 	H 	0.3759	0.0803	0.3989	0.037
Mof_C 	C 	0.29	0.0956	0.3363	-0.071
Mof_H 	H 	0.2633	0.0468	0.3541	0.051
Mof_C 	C 	0.2692	0.0837	0.2972	-0.033
Mof_H 	H 	0.2304	0.0303	0.2878	0.041
Mof_C 	C 	0.388	0.2413	0.3234	-0.111
Mof_H 	H 	0.4333	0.2986	0.3325	0.062
Mof_C 	C 	0.3643	0.1418	0.2837	0.087
Mof_Cu	Cu	0.52528	0.47472	0.96903	0.911
Mof_Cu	Cu	0.52528	0.05057	0.96903	0.911
Mof_Cu	Cu	0.94943	0.47472	0.96903	0.911
Mof_Cu	Cu	0.47472	0.52528	0.46903	0.911
Mof_Cu	Cu	0.47472	0.94943	0.46903	0.911
Mof_Cu	Cu	0.05057	0.52528	0.46903	0.911
Mof_Cu	Cu	0.47472	0.52528	0.03097	0.911
Mof_Cu	Cu	0.05057	0.52528	0.03097	0.911
Mof_Cu	Cu	0.47472	0.94943	0.03097	0.911
Mof_Cu	Cu	0.52528	0.47472	0.53097	0.911
Mof_Cu	Cu	0.94943	0.47472	0.53097	0.911
Mof_Cu	Cu	0.52528	0.05057	0.53097	0.911
Mof_C 	C 	0.5606	0.7803	0.96635	0.05
Mof_H 	H 	0.5392	0.7696	0.9916	0.045
Mof_C 	C 	0.6252	0.8126	0.8925	-0.056
Mof_C 	C 	0.6542	0.8271	0.84892	0.117
Mof_C 	C 	0.6924	0.8462	0.77132	-0.047
Mof_C 	C 	0.2197	0.7803	0.96635	0.05
Mof_H 	H 	0.2304	0.7696	0.9916	0.045
Mof_C 	C 	0.1874	0.8126	0.8925	-0.056
Mof_C 	C 	0.1729	0.8271	0.84892	0.117
Mof_C 	C 	0.1538	0.8462	0.77132	-0.047
Mof_C 	C 	0.2197	0.4394	0.96635	0.05
Mof_H 	H 	0.2304	0.4608	0.9916	0.045
Mof_C 	C 	0.1874	0.3748	0.8925	-0.056
Mof_C 	C 	0.1729	0.3458	0.84892	0.117
Mof_C 	C 	0.1538	0.3076	0.77132	-0.047
Mof_C 	C 	0.4394	0.2197	0.46635	0.05
Mof_H 	H 	0.4608	0.2304	0.4916	0.045
Mof_C 	C 	0.3748	0.1874	0.3925	-0.056
Mof_C 	C 	0.3458	0.1729	0.34892	0.117
Mof_C 	C 	0.3076	0.1538	0.27132	-0.047
Mof_C 	C 	0.7803	0.2197	0.46635	0.05
Mof_H 	H 	0.7696	0.2304	0.4916	0.045
Mof_C 	C 	0.8126	0.1874	0.3925	-0.056
Mof_C 	C 	0.8271	0.1729	0.34892	0.117
Mof_C 	C 	0.8462	0.1538	0.27132	-0.047
Mof_C 	C 	0.7803	0.5606	0.46635	0.05
Mof_H 	H 	0.7696	0.5392	0.4916	0.045
Mof_C 	C 	0.8126	0.6252	0.3925	-0.056
Mof_C 	C 	0.8271	0.6542	0.34892	0.117
Mof_C 	C 	0.8462	0.6924	0.27132	-0.047
Mof_C 	C 	0.7803	0.5606	0.03365	0.05
Mof_H 	H 	0.7696	0.5392	0.0084	0.045
Mof_C 	C 	0.8126	0.6252	0.1075	-0.056
Mof_C 	C 	0.8271	0.6542	0.15108	0.117
Mof_C 	C 	0.8462	0.6924	0.22868	-0.047
Mof_C 	C 	0.7803	0.2197	0.03365	0.05
Mof_H 	H 	0.7696	0.2304	0.0084	0.045
Mof_C 	C 	0.8126	0.1874	0.1075	-0.056
Mof_C 	C 	0.8271	0.1729	0.15108	0.117
Mof_C 	C 	0.8462	0.1538	0.22868	-0.047
Mof_C 	C 	0.4394	0.2197	0.03365	0.05
Mof_H 	H 	0.4608	0.2304	0.0084	0.045
Mof_C 	C 	0.3748	0.1874	0.1075	-0.056
Mof_C 	C 	0.3458	0.1729	0.15108	0.117
Mof_C 	C 	0.3076	0.1538	0.22868	-0.047
Mof_C 	C 	0.2197	0.4394	0.53365	0.05
Mof_H 	H 	0.2304	0.4608	0.5084	0.045
Mof_C 	C 	0.1874	0.3748	0.6075	-0.056
Mof_C 	C 	0.1729	0.3458	0.65108	0.117
Mof_C 	C 	0.1538	0.3076	0.72868	-0.047
Mof_C 	C 	0.2197	0.7803	0.53365	0.05
Mof_H 	H 	0.2304	0.7696	0.5084	0.045
Mof_C 	C 	0.1874	0.8126	0.6075	-0.056
Mof_C 	C 	0.1729	0.8271	0.65108	0.117
Mof_C 	C 	0.1538	0.8462	0.72868	-0.047
Mof_C 	C 	0.5606	0.7803	0.53365	0.05
Mof_H 	H 	0.5392	0.7696	0.5084	0.045
Mof_C 	C 	0.6252	0.8126	0.6075	-0.056
Mof_C 	C 	0.6542	0.8271	0.65108	0.117
Mof_C 	C 	0.6924	0.8462	0.72868	-0.047
Mof_C 	C 	0.5912	0.7136	0.75	-0.248
Mof_H 	H 	0.5304	0.6904	0.75	0.099
Mof_H 	H 	0.6043	0.6682	0.75	0.101
Mof_C 	C 	0.2864	0.8776	0.75	-0.248
Mof_H 	H 	0.3096	0.84	0.75	0.099
Mof_H 	H 	0.3318	0.9361	0.75	0.101
Mof_C 	C 	0.1224	0.4088	0.75	-0.248
Mof_H 	H 	0.16	0.4696	0.75	0.099
Mof_H 	H 	0.0639	0.3957	0.75	0.101
Mof_C 	C 	0.4088	0.2864	0.25	-0.248
Mof_H 	H 	0.4696	0.3096	0.25	0.099
Mof_H 	H 	0.3957	0.3318	0.25	0.101
Mof_C 	C 	0.7136	0.1224	0.25	-0.248
Mof_H 	H 	0.6904	0.16	0.25	0.099
Mof_H 	H 	0.6682	0.0639	0.25	0.101
Mof_C 	C 	0.8776	0.5912	0.25	-0.248
Mof_H 	H 	0.84	0.5304	0.25	0.099
Mof_H 	H 	0.9361	0.6043	0.25	0.101
Mof_C 	C 	0.7136	0.5912	0.25	-0.248
Mof_H 	H 	0.6904	0.5304	0.25	0.099
Mof_H 	H 	0.6682	0.6043	0.25	0.101
Mof_C 	C 	0.8776	0.2864	0.25	-0.248
Mof_H 	H 	0.84	0.3096	0.25	0.099
Mof_H 	H 	0.9361	0.3318	0.25	0.101
Mof_C 	C 	0.4088	0.1224	0.25	-0.248
Mof_H 	H 	0.4696	0.16	0.25	0.099
Mof_H 	H 	0.3957	0.0639	0.25	0.101
Mof_C 	C 	0.2864	0.4088	0.75	-0.248
Mof_H 	H 	0.3096	0.4696	0.75	0.099
Mof_H 	H 	0.3318	0.3957	0.75	0.101
Mof_C 	C 	0.1224	0.7136	0.75	-0.248
Mof_H 	H 	0.16	0.6904	0.75	0.099
Mof_H 	H 	0.0639	0.6682	0.75	0.101
Mof_C 	C 	0.5912	0.8776	0.75	-0.248
Mof_H 	H 	0.5304	0.84	0.75	0.099
Mof_H 	H 	0.6043	0.9361	0.75	0.101
_end
