data_functionalizedCrystal
_audit_creation_method	'EQeq! by Chris Wilmer'
_symmetry_space_group_name_H-M	'P1'
_symmetry_Int_Tables_number	1
_symmetry_cell_setting	triclinic
loop_
_symmetry_equiv_pos_as_xyz
  x,y,z
_cell_length_a	8.531
_cell_length_b	13.376
_cell_length_c	13.631
_cell_angle_alpha	90
_cell_angle_beta	90
_cell_angle_gamma	90
loop_
_atom_site_label
_atom_site_type_symbol
_atom_site_fract_x
_atom_site_fract_y
_atom_site_fract_z
_atom_site_charge
Mof_Mn	Mn	0.81501	0.75	0.7754	0.696
Mof_Mn	Mn	0.31501	0.25	0.7246	0.646
Mof_Mn	Mn	0.18499	0.25	0.2246	0.611
Mof_Mn	Mn	0.68499	0.75	0.2754	0.664
Mof_Fe	Fe	0.5	0	-0	0.443
Mof_Fe	Fe	2.99543e-33	0	0.5	0.445
Mof_Fe	Fe	0.5	0.5	-0	0.539
Mof_Fe	Fe	-1.32337e-32	0.5	0.5	0.544
Mof_C 	C 	0.6267	0.91553	0.91546	0.024
Mof_C 	C 	0.6864	0.07543	0.03067	-0.106
Mof_C 	C 	0.5509	0.91459	0.11044	-0.04
Mof_C 	C 	0.1267	0.08447	0.58454	-0.092
Mof_C 	C 	0.1864	0.92457	0.46933	-0.055
Mof_C 	C 	0.0509	0.08541	0.38956	-0.098
Mof_C 	C 	0.3733	0.41553	0.08454	-0.095
Mof_C 	C 	0.3136	0.57543	0.96933	-0.046
Mof_C 	C 	0.4491	0.41459	0.88956	-0.03
Mof_C 	C 	0.8733	0.58447	0.41546	-0.031
Mof_C 	C 	0.8136	0.42457	0.53067	-0.046
Mof_C 	C 	0.9491	0.58541	0.61044	-0.025
Mof_C 	C 	0.3733	0.08447	0.08454	-0.099
Mof_C 	C 	0.3136	0.92457	0.96933	0.002
Mof_C 	C 	0.4491	0.08541	0.88956	-0.033
Mof_C 	C 	0.8733	0.91553	0.41546	0.015
Mof_C 	C 	0.8136	0.07543	0.53067	-0.048
Mof_C 	C 	0.9491	0.91459	0.61044	0.021
Mof_C 	C 	0.6267	0.58447	0.91546	-0.022
Mof_C 	C 	0.6864	0.42457	0.03067	-0.103
Mof_C 	C 	0.5509	0.58541	0.11044	-0.088
Mof_C 	C 	0.1267	0.41553	0.58454	-0.088
Mof_C 	C 	0.1864	0.57543	0.46933	-0.105
Mof_C 	C 	0.0509	0.41459	0.38956	-0.095
Mof_N 	N 	0.7016	0.86591	0.86551	-0.164
Mof_N 	N 	0.5854	0.86409	0.17437	-0.161
Mof_N 	N 	0.7973	0.11793	0.04923	-0.088
Mof_N 	N 	0.2016	0.13409	0.63449	-0.164
Mof_N 	N 	0.0854	0.13591	0.32563	-0.164
Mof_N 	N 	0.2973	0.88207	0.45077	-0.093
Mof_N 	N 	0.2984	0.36591	0.13449	-0.16
Mof_N 	N 	0.4146	0.36409	0.82563	-0.158
Mof_N 	N 	0.2027	0.61793	0.95077	-0.096
Mof_N 	N 	0.7984	0.63409	0.36551	-0.161
Mof_N 	N 	0.9146	0.63591	0.67437	-0.155
Mof_N 	N 	0.7027	0.38207	0.54923	-0.089
Mof_N 	N 	0.2984	0.13409	0.13449	-0.166
Mof_N 	N 	0.4146	0.13591	0.82563	-0.164
Mof_N 	N 	0.2027	0.88207	0.95077	-0.101
Mof_N 	N 	0.7984	0.86591	0.36551	-0.166
Mof_N 	N 	0.9146	0.86409	0.67437	-0.161
Mof_N 	N 	0.7027	0.11793	0.54923	-0.097
Mof_N 	N 	0.7016	0.63409	0.86551	-0.158
Mof_N 	N 	0.5854	0.63591	0.17437	-0.155
Mof_N 	N 	0.7973	0.38207	0.04923	-0.081
Mof_N 	N 	0.2016	0.36591	0.63449	-0.157
Mof_N 	N 	0.0854	0.36409	0.32563	-0.158
Mof_N 	N 	0.2973	0.61793	0.45077	-0.088
_end
