data_functionalizedCrystal
_audit_creation_method	'EQeq! by Chris Wilmer'
_symmetry_space_group_name_H-M	'P1'
_symmetry_Int_Tables_number	1
_symmetry_cell_setting	triclinic
loop_
_symmetry_equiv_pos_as_xyz
  x,y,z
_cell_length_a	14.24
_cell_length_b	15.185
_cell_length_c	22.191
_cell_angle_alpha	90
_cell_angle_beta	90
_cell_angle_gamma	102.98
loop_
_atom_site_label
_atom_site_type_symbol
_atom_site_fract_x
_atom_site_fract_y
_atom_site_fract_z
_atom_site_charge
Mof_Eu	Eu	0.50156	0.43594	0.27568	2.017
Mof_Eu	Eu	0.20225	0.33456	0.24588	2.271
Mof_Eu	Eu	0.99844	0.06406	0.77568	1.996
Mof_Eu	Eu	0.29775	0.16544	0.74588	2.27
Mof_Eu	Eu	0.49844	0.56406	0.72432	2.017
Mof_Eu	Eu	0.79775	0.66544	0.75412	2.271
Mof_Eu	Eu	0.00156	0.93594	0.22432	1.996
Mof_Eu	Eu	0.70225	0.83456	0.25412	2.27
Mof_H 	H 	0.4381	0.2882	0.4424	0.014
Mof_H 	H 	0.4325	0.2398	0.5422	0.053
Mof_H 	H 	0.16	0.3992	0.4211	0.086
Mof_H 	H 	0.0434	0.4219	0.4845	0.02
Mof_H 	H 	0.0464	0.3822	0.5862	0.055
Mof_H 	H 	0.1627	0.3158	0.6211	0.039
Mof_H 	H 	0.3647	0.7009	0.2934	0.017
Mof_H 	H 	0.2641	0.8003	0.2872	0.059
Mof_H 	H 	0.2789	0.5088	0.1312	0.061
Mof_H 	H 	0.1737	0.4987	0.0536	0.035
Mof_H 	H 	0.0782	0.6035	0.0439	0.04
Mof_H 	H 	0.0819	0.7124	0.1145	0.072
Mof_H 	H 	0.4885	0.195	0.1948	0.019
Mof_H 	H 	0.5735	0.0799	0.1925	0.066
Mof_H 	H 	0.292	0.133	0.3598	0.064
Mof_H 	H 	0.2584	0.0206	0.4317	0.037
Mof_H 	H 	0.3404	0.9037	0.4284	0.039
Mof_H 	H 	0.4507	0.8984	0.3564	0.075
Mof_H 	H 	0.4422	0.3433	0.1376	-0.019
Mof_H 	H 	0.4286	0.3627	0.0354	0.088
Mof_H 	H 	0.5839	0.6149	0.0565	0.084
Mof_H 	H 	0.5861	0.5888	0.1567	-0.049
Mof_H 	H 	0.0619	0.2118	0.9424	0.015
Mof_H 	H 	0.0675	0.2602	0.0422	0.054
Mof_H 	H 	0.34	0.1008	0.9211	0.086
Mof_H 	H 	0.4566	0.0781	0.9845	0.02
Mof_H 	H 	0.4536	0.1178	0.0862	0.054
Mof_H 	H 	0.3373	0.1842	0.1211	0.039
Mof_H 	H 	0.1353	0.7991	0.7934	0.018
Mof_H 	H 	0.2359	0.6997	0.7872	0.059
Mof_H 	H 	0.2211	0.9912	0.6312	0.057
Mof_H 	H 	0.3263	0.0013	0.5536	0.041
Mof_H 	H 	0.4218	0.8965	0.5439	0.038
Mof_H 	H 	0.4181	0.7876	0.6145	0.075
Mof_H 	H 	0.0115	0.305	0.6948	0.019
Mof_H 	H 	0.9265	0.4201	0.6925	0.067
Mof_H 	H 	0.208	0.367	0.8598	0.063
Mof_H 	H 	0.2416	0.4794	0.9317	0.039
Mof_H 	H 	0.1596	0.5963	0.9284	0.038
Mof_H 	H 	0.0493	0.6016	0.8564	0.076
Mof_H 	H 	0.0578	0.1567	0.6376	-0.019
Mof_H 	H 	0.0714	0.1373	0.5354	0.087
Mof_H 	H 	0.9161	0.8851	0.5565	0.082
Mof_H 	H 	0.9139	0.9112	0.6567	-0.048
Mof_H 	H 	0.5619	0.7118	0.5576	0.014
Mof_H 	H 	0.5675	0.7602	0.4578	0.053
Mof_H 	H 	0.84	0.6008	0.5789	0.086
Mof_H 	H 	0.9566	0.5781	0.5155	0.02
Mof_H 	H 	0.9536	0.6178	0.4138	0.055
Mof_H 	H 	0.8373	0.6842	0.3789	0.039
Mof_H 	H 	0.6353	0.2991	0.7066	0.017
Mof_H 	H 	0.7359	0.1997	0.7128	0.059
Mof_H 	H 	0.7211	0.4912	0.8688	0.061
Mof_H 	H 	0.8263	0.5013	0.9464	0.035
Mof_H 	H 	0.9218	0.3965	0.9561	0.04
Mof_H 	H 	0.9181	0.2876	0.8855	0.072
Mof_H 	H 	0.5115	0.805	0.8052	0.019
Mof_H 	H 	0.4265	0.9201	0.8075	0.066
Mof_H 	H 	0.708	0.867	0.6402	0.064
Mof_H 	H 	0.7416	0.9794	0.5683	0.037
Mof_H 	H 	0.6596	0.0963	0.5716	0.039
Mof_H 	H 	0.5493	0.1016	0.6436	0.075
Mof_H 	H 	0.5578	0.6567	0.8624	-0.019
Mof_H 	H 	0.5714	0.6373	0.9646	0.088
Mof_H 	H 	0.4161	0.3851	0.9435	0.084
Mof_H 	H 	0.4139	0.4112	0.8433	-0.049
Mof_H 	H 	0.9381	0.7882	0.0576	0.015
Mof_H 	H 	0.9325	0.7398	0.9578	0.054
Mof_H 	H 	0.66	0.8992	0.0789	0.086
Mof_H 	H 	0.5434	0.9219	0.0155	0.02
Mof_H 	H 	0.5464	0.8822	0.9138	0.054
Mof_H 	H 	0.6627	0.8158	0.8789	0.039
Mof_H 	H 	0.8647	0.2009	0.2066	0.018
Mof_H 	H 	0.7641	0.3003	0.2128	0.059
Mof_H 	H 	0.7789	0.0088	0.3688	0.057
Mof_H 	H 	0.6737	0.9987	0.4464	0.041
Mof_H 	H 	0.5782	0.1035	0.4561	0.038
Mof_H 	H 	0.5819	0.2124	0.3855	0.075
Mof_H 	H 	0.9885	0.695	0.3052	0.019
Mof_H 	H 	0.0735	0.5799	0.3075	0.067
Mof_H 	H 	0.792	0.633	0.1402	0.063
Mof_H 	H 	0.7584	0.5206	0.0683	0.039
Mof_H 	H 	0.8404	0.4037	0.0716	0.038
Mof_H 	H 	0.9507	0.3984	0.1436	0.076
Mof_H 	H 	0.9422	0.8433	0.3624	-0.019
Mof_H 	H 	0.9286	0.8627	0.4646	0.087
Mof_H 	H 	0.0839	0.1149	0.4435	0.082
Mof_H 	H 	0.0861	0.0888	0.3433	-0.048
Mof_C 	C 	0.3213	0.3545	0.378	0.55
Mof_C 	C 	0.3143	0.3292	0.4438	-0.2
Mof_C 	C 	0.3867	0.2939	0.4668	0.053
Mof_C 	C 	0.384	0.2659	0.5275	-0.068
Mof_C 	C 	0.3119	0.2765	0.5647	-0.058
Mof_C 	C 	0.2371	0.3164	0.5428	-0.014
Mof_C 	C 	0.237	0.341	0.4812	0.099
Mof_C 	C 	0.1614	0.3819	0.4612	-0.136
Mof_C 	C 	0.0923	0.3959	0.4988	0.02
Mof_C 	C 	0.0937	0.3714	0.5601	-0.078
Mof_C 	C 	0.1632	0.3325	0.5808	-0.033
Mof_C 	C 	0.3096	0.2431	0.6284	0.324
Mof_C 	C 	0.3673	0.5537	0.2376	0.437
Mof_C 	C 	0.3085	0.6215	0.2243	-0.16
Mof_C 	C 	0.3179	0.6931	0.2634	0.026
Mof_C 	C 	0.2583	0.7543	0.2588	-0.056
Mof_C 	C 	0.1919	0.7487	0.2139	-0.067
Mof_C 	C 	0.1859	0.6816	0.1684	0.024
Mof_C 	C 	0.2446	0.6159	0.175	0.062
Mof_C 	C 	0.239	0.5495	0.1289	-0.089
Mof_C 	C 	0.1776	0.5441	0.0822	-0.012
Mof_C 	C 	0.1195	0.6069	0.0768	-0.036
Mof_C 	C 	0.1224	0.6725	0.1186	-0.068
Mof_C 	C 	0.1276	0.8162	0.2165	0.32
Mof_C 	C 	0.3485	0.2199	0.2584	0.439
Mof_C 	C 	0.4072	0.1496	0.2649	-0.159
Mof_C 	C 	0.4752	0.1491	0.2234	0.037
Mof_C 	C 	0.5274	0.0799	0.2222	-0.059
Mof_C 	C 	0.5099	0.0132	0.2649	-0.061
Mof_C 	C 	0.4409	0.0127	0.3104	0.023
Mof_C 	C 	0.3884	0.0822	0.3113	0.062
Mof_C 	C 	0.3229	0.0852	0.3581	-0.095
Mof_C 	C 	0.3034	0.019	0.4016	-0.02
Mof_C 	C 	0.3532	0.949	0.3993	-0.036
Mof_C 	C 	0.4189	0.9456	0.3562	-0.073
Mof_C 	C 	0.5749	0.9472	0.2609	0.316
Mof_C 	C 	0.4687	0.3999	0.1214	0.126
Mof_C 	C 	0.4613	0.4105	0.059	-0.158
Mof_C 	C 	0.5032	0.4929	0.0324	0.066
Mof_C 	C 	0.552	0.5591	0.0716	-0.169
Mof_C 	C 	0.5533	0.5425	0.1321	0.12
Mof_C 	C 	0.1787	0.1455	0.878	0.549
Mof_C 	C 	0.1857	0.1708	0.9438	-0.2
Mof_C 	C 	0.1133	0.2061	0.9668	0.055
Mof_C 	C 	0.116	0.2341	0.0275	-0.071
Mof_C 	C 	0.1881	0.2235	0.0647	-0.057
Mof_C 	C 	0.2629	0.1836	0.0428	-0.014
Mof_C 	C 	0.263	0.159	0.9812	0.099
Mof_C 	C 	0.3386	0.1181	0.9612	-0.135
Mof_C 	C 	0.4077	0.1041	0.9988	0.018
Mof_C 	C 	0.4063	0.1286	0.0601	-0.077
Mof_C 	C 	0.3368	0.1675	0.0808	-0.033
Mof_C 	C 	0.1904	0.2569	0.1284	0.323
Mof_C 	C 	0.1327	0.9463	0.7376	0.432
Mof_C 	C 	0.1915	0.8785	0.7243	-0.156
Mof_C 	C 	0.1821	0.8069	0.7634	0.023
Mof_C 	C 	0.2417	0.7457	0.7588	-0.053
Mof_C 	C 	0.3081	0.7513	0.7139	-0.068
Mof_C 	C 	0.3141	0.8184	0.6684	0.028
Mof_C 	C 	0.2554	0.8841	0.675	0.057
Mof_C 	C 	0.261	0.9505	0.6289	-0.081
Mof_C 	C 	0.3224	0.9559	0.5822	-0.023
Mof_C 	C 	0.3805	0.8931	0.5768	-0.028
Mof_C 	C 	0.3776	0.8275	0.6186	-0.073
Mof_C 	C 	0.3724	0.6838	0.7165	0.321
Mof_C 	C 	0.1515	0.2801	0.7584	0.439
Mof_C 	C 	0.0928	0.3504	0.7649	-0.159
Mof_C 	C 	0.0248	0.3509	0.7234	0.041
Mof_C 	C 	0.9726	0.4201	0.7222	-0.063
Mof_C 	C 	0.9901	0.4868	0.7649	-0.062
Mof_C 	C 	0.0591	0.4873	0.8104	0.025
Mof_C 	C 	0.1116	0.4178	0.8113	0.061
Mof_C 	C 	0.1771	0.4148	0.8581	-0.092
Mof_C 	C 	0.1966	0.481	0.9016	-0.026
Mof_C 	C 	0.1468	0.551	0.8993	-0.029
Mof_C 	C 	0.0811	0.5544	0.8562	-0.076
Mof_C 	C 	0.9251	0.5528	0.7609	0.316
Mof_C 	C 	0.0313	0.1001	0.6214	0.131
Mof_C 	C 	0.0387	0.0895	0.559	-0.149
Mof_C 	C 	0.9968	0.0071	0.5324	0.055
Mof_C 	C 	0.948	0.9409	0.5716	-0.16
Mof_C 	C 	0.9467	0.9575	0.6321	0.123
Mof_C 	C 	0.6787	0.6455	0.622	0.55
Mof_C 	C 	0.6857	0.6708	0.5562	-0.2
Mof_C 	C 	0.6133	0.7061	0.5332	0.053
Mof_C 	C 	0.616	0.7341	0.4725	-0.068
Mof_C 	C 	0.6881	0.7235	0.4353	-0.058
Mof_C 	C 	0.7629	0.6836	0.4572	-0.014
Mof_C 	C 	0.763	0.659	0.5188	0.099
Mof_C 	C 	0.8386	0.6181	0.5388	-0.136
Mof_C 	C 	0.9077	0.6041	0.5012	0.02
Mof_C 	C 	0.9063	0.6286	0.4399	-0.078
Mof_C 	C 	0.8368	0.6675	0.4192	-0.033
Mof_C 	C 	0.6904	0.7569	0.3716	0.324
Mof_C 	C 	0.6327	0.4463	0.7624	0.437
Mof_C 	C 	0.6915	0.3785	0.7757	-0.16
Mof_C 	C 	0.6821	0.3069	0.7366	0.026
Mof_C 	C 	0.7417	0.2457	0.7412	-0.056
Mof_C 	C 	0.8081	0.2513	0.7861	-0.067
Mof_C 	C 	0.8141	0.3184	0.8316	0.024
Mof_C 	C 	0.7554	0.3841	0.825	0.062
Mof_C 	C 	0.761	0.4505	0.8711	-0.089
Mof_C 	C 	0.8224	0.4559	0.9178	-0.012
Mof_C 	C 	0.8805	0.3931	0.9232	-0.036
Mof_C 	C 	0.8776	0.3275	0.8814	-0.068
Mof_C 	C 	0.8724	0.1838	0.7835	0.32
Mof_C 	C 	0.6515	0.7801	0.7416	0.439
Mof_C 	C 	0.5928	0.8504	0.7351	-0.159
Mof_C 	C 	0.5248	0.8509	0.7766	0.037
Mof_C 	C 	0.4726	0.9201	0.7778	-0.059
Mof_C 	C 	0.4901	0.9868	0.7351	-0.061
Mof_C 	C 	0.5591	0.9873	0.6896	0.023
Mof_C 	C 	0.6116	0.9178	0.6887	0.062
Mof_C 	C 	0.6771	0.9148	0.6419	-0.095
Mof_C 	C 	0.6966	0.981	0.5984	-0.02
Mof_C 	C 	0.6468	0.051	0.6007	-0.036
Mof_C 	C 	0.5811	0.0544	0.6438	-0.073
Mof_C 	C 	0.4251	0.0528	0.7391	0.316
Mof_C 	C 	0.5313	0.6001	0.8786	0.126
Mof_C 	C 	0.5387	0.5895	0.941	-0.158
Mof_C 	C 	0.4968	0.5071	0.9676	0.066
Mof_C 	C 	0.448	0.4409	0.9284	-0.169
Mof_C 	C 	0.4467	0.4575	0.8679	0.12
Mof_C 	C 	0.8213	0.8545	0.122	0.549
Mof_C 	C 	0.8143	0.8292	0.0562	-0.2
Mof_C 	C 	0.8867	0.7939	0.0332	0.055
Mof_C 	C 	0.884	0.7659	0.9725	-0.071
Mof_C 	C 	0.8119	0.7765	0.9353	-0.057
Mof_C 	C 	0.7371	0.8164	0.9572	-0.014
Mof_C 	C 	0.737	0.841	0.0188	0.099
Mof_C 	C 	0.6614	0.8819	0.0388	-0.135
Mof_C 	C 	0.5923	0.8959	0.0012	0.018
Mof_C 	C 	0.5937	0.8714	0.9399	-0.077
Mof_C 	C 	0.6632	0.8325	0.9192	-0.033
Mof_C 	C 	0.8096	0.7431	0.8716	0.323
Mof_C 	C 	0.8673	0.0537	0.2624	0.432
Mof_C 	C 	0.8085	0.1215	0.2757	-0.156
Mof_C 	C 	0.8179	0.1931	0.2366	0.023
Mof_C 	C 	0.7583	0.2543	0.2412	-0.053
Mof_C 	C 	0.6919	0.2487	0.2861	-0.068
Mof_C 	C 	0.6859	0.1816	0.3316	0.028
Mof_C 	C 	0.7446	0.1159	0.325	0.057
Mof_C 	C 	0.739	0.0495	0.3711	-0.081
Mof_C 	C 	0.6776	0.0441	0.4178	-0.023
Mof_C 	C 	0.6195	0.1069	0.4232	-0.028
Mof_C 	C 	0.6224	0.1725	0.3814	-0.073
Mof_C 	C 	0.6276	0.3162	0.2835	0.321
Mof_C 	C 	0.8485	0.7199	0.2416	0.439
Mof_C 	C 	0.9072	0.6496	0.2351	-0.159
Mof_C 	C 	0.9752	0.6491	0.2766	0.041
Mof_C 	C 	0.0274	0.5799	0.2778	-0.063
Mof_C 	C 	0.0099	0.5132	0.2351	-0.062
Mof_C 	C 	0.9409	0.5127	0.1896	0.025
Mof_C 	C 	0.8884	0.5822	0.1887	0.061
Mof_C 	C 	0.8229	0.5852	0.1419	-0.092
Mof_C 	C 	0.8034	0.519	0.0984	-0.026
Mof_C 	C 	0.8532	0.449	0.1007	-0.029
Mof_C 	C 	0.9189	0.4456	0.1438	-0.076
Mof_C 	C 	0.0749	0.4472	0.2391	0.316
Mof_C 	C 	0.9687	0.8999	0.3786	0.131
Mof_C 	C 	0.9613	0.9105	0.441	-0.149
Mof_C 	C 	0.0032	0.9929	0.4676	0.055
Mof_C 	C 	0.052	0.0591	0.4284	-0.16
Mof_C 	C 	0.0533	0.0425	0.3679	0.123
Mof_N 	N 	0.5102	0.4637	0.1585	-0.262
Mof_N 	N 	0.9898	0.0363	0.6585	-0.267
Mof_N 	N 	0.4898	0.5363	0.8415	-0.262
Mof_N 	N 	0.0102	0.9637	0.3415	-0.267
Mof_O 	O 	0.4036	0.3875	0.35778	-0.591
Mof_O 	O 	0.2463	0.3419	0.34762	-0.6
Mof_O 	O 	0.3698	0.2833	0.66575	-0.45
Mof_O 	O 	0.2464	0.174	0.6423	-0.462
Mof_O 	O 	0.3298	0.4692	0.23692	-0.613
Mof_O 	O 	0.4536	0.5814	0.25311	-0.51
Mof_O 	O 	0.1145	0.8493	0.26728	-0.443
Mof_O 	O 	0.0892	0.8391	0.1705	-0.459
Mof_O 	O 	0.3892	0.3004	0.24448	-0.583
Mof_O 	O 	0.2591	0.1962	0.2634	-0.526
Mof_O 	O 	0.5817	0.8961	0.3041	-0.478
Mof_O 	O 	0.6225	0.9461	0.21336	-0.471
Mof_O 	O 	0.0964	0.1125	0.85778	-0.585
Mof_O 	O 	0.2537	0.1581	0.84762	-0.599
Mof_O 	O 	0.1302	0.2167	0.16575	-0.448
Mof_O 	O 	0.2536	0.326	0.1423	-0.462
Mof_O 	O 	0.1702	0.0308	0.73692	-0.606
Mof_O 	O 	0.0464	0.9186	0.75311	-0.508
Mof_O 	O 	0.3855	0.6507	0.76728	-0.443
Mof_O 	O 	0.4108	0.6609	0.6705	-0.459
Mof_O 	O 	0.1108	0.1996	0.74448	-0.578
Mof_O 	O 	0.2409	0.3038	0.7634	-0.526
Mof_O 	O 	0.9183	0.6039	0.8041	-0.479
Mof_O 	O 	0.8775	0.5539	0.71336	-0.471
Mof_O 	O 	0.5964	0.6125	0.64222	-0.591
Mof_O 	O 	0.7537	0.6581	0.65238	-0.6
Mof_O 	O 	0.6302	0.7167	0.33425	-0.45
Mof_O 	O 	0.7536	0.826	0.3577	-0.462
Mof_O 	O 	0.6702	0.5308	0.76308	-0.613
Mof_O 	O 	0.5464	0.4186	0.74689	-0.51
Mof_O 	O 	0.8855	0.1507	0.73272	-0.443
Mof_O 	O 	0.9108	0.1609	0.8295	-0.459
Mof_O 	O 	0.6108	0.6996	0.75552	-0.583
Mof_O 	O 	0.7409	0.8038	0.7366	-0.526
Mof_O 	O 	0.4183	0.1039	0.6959	-0.478
Mof_O 	O 	0.3775	0.0539	0.78664	-0.471
Mof_O 	O 	0.9036	0.8875	0.14222	-0.585
Mof_O 	O 	0.7463	0.8419	0.15238	-0.599
Mof_O 	O 	0.8698	0.7833	0.83425	-0.448
Mof_O 	O 	0.7464	0.674	0.8577	-0.462
Mof_O 	O 	0.8298	0.9692	0.26308	-0.606
Mof_O 	O 	0.9536	0.0814	0.24689	-0.508
Mof_O 	O 	0.6145	0.3493	0.23272	-0.443
Mof_O 	O 	0.5892	0.3391	0.3295	-0.459
Mof_O 	O 	0.8892	0.8004	0.25552	-0.578
Mof_O 	O 	0.7591	0.6962	0.2366	-0.526
Mof_O 	O 	0.0817	0.3961	0.1959	-0.479
Mof_O 	O 	0.1225	0.4461	0.28664	-0.471
_end
