data_functionalizedCrystal
_audit_creation_method	'EQeq! by Chris Wilmer'
_symmetry_space_group_name_H-M	'P1'
_symmetry_Int_Tables_number	1
_symmetry_cell_setting	triclinic
loop_
_symmetry_equiv_pos_as_xyz
  x,y,z
_cell_length_a	10.058
_cell_length_b	21.86
_cell_length_c	13.989
_cell_angle_alpha	91.481
_cell_angle_beta	90
_cell_angle_gamma	90
loop_
_atom_site_label
_atom_site_type_symbol
_atom_site_fract_x
_atom_site_fract_y
_atom_site_fract_z
_atom_site_charge
Mof_Sm	Sm	0.4384	0.75971	0.76824	2.332
Mof_Sm	Sm	0.75039	0.25103	0.47348	2.554
Mof_Sm	Sm	0.9384	0.24029	0.73176	2.328
Mof_Sm	Sm	0.25039	0.74897	0.02652	2.548
Mof_Sm	Sm	0.5616	0.24029	0.23176	2.332
Mof_Sm	Sm	0.24961	0.74897	0.52652	2.554
Mof_Sm	Sm	0.0616	0.75971	0.26824	2.328
Mof_Sm	Sm	0.74961	0.25103	0.97348	2.548
Mof_H 	H 	0.3166	0.9219	0.56	0.199
Mof_H 	H 	0.4638	0.9095	0.5295	0.195
Mof_H 	H 	0.6441	0.9668	0.6355	0.083
Mof_H 	H 	0.7047	0.0621	0.6852	0.057
Mof_H 	H 	0.3246	0.1145	0.6828	0.043
Mof_H 	H 	0.2672	0.0171	0.6259	0.09
Mof_H 	H 	0.4838	0.1851	0.7371	0.16
Mof_H 	H 	0.6188	0.1598	0.776	0.168
Mof_H 	H 	0.0026	0.6583	0.7873	0.156
Mof_H 	H 	0.1435	0.6299	0.8049	0.161
Mof_H 	H 	0.8377	0.5959	0.7085	0.039
Mof_H 	H 	0.7723	0.5058	0.6342	0.089
Mof_H 	H 	0.1469	0.4543	0.6171	0.081
Mof_H 	H 	0.2129	0.544	0.6882	0.054
Mof_H 	H 	0.8131	0.4145	0.5541	0.209
Mof_H 	H 	0.9557	0.4047	0.5123	0.207
Mof_H 	H 	0.5864	0.6166	0.6489	0.185
Mof_H 	H 	0.6516	0.6343	0.5515	0.173
Mof_H 	H 	0.4632	0.524	0.6601	0.079
Mof_H 	H 	0.5948	0.5725	0.4056	0.064
Mof_H 	H 	0.7002	0.8775	0.9885	0.205
Mof_H 	H 	0.6337	0.8724	0.0895	0.202
Mof_H 	H 	0.5036	0.9316	0.8722	0.079
Mof_H 	H 	0.5823	0.9722	0.1458	0.077
Mof_H 	H 	0.8166	0.0781	0.94	0.194
Mof_H 	H 	0.9638	0.0905	0.9705	0.189
Mof_H 	H 	0.1441	0.0332	0.8645	0.076
Mof_H 	H 	0.2047	0.9379	0.8148	0.063
Mof_H 	H 	0.8246	0.8855	0.8172	0.048
Mof_H 	H 	0.7672	0.9829	0.8741	0.084
Mof_H 	H 	0.9838	0.8149	0.7629	0.158
Mof_H 	H 	0.1188	0.8402	0.724	0.169
Mof_H 	H 	0.5026	0.3417	0.7127	0.152
Mof_H 	H 	0.6435	0.3701	0.6951	0.158
Mof_H 	H 	0.3377	0.4041	0.7915	0.035
Mof_H 	H 	0.2723	0.4942	0.8658	0.094
Mof_H 	H 	0.6469	0.5457	0.8829	0.085
Mof_H 	H 	0.7129	0.456	0.8118	0.05
Mof_H 	H 	0.3131	0.5855	0.9459	0.212
Mof_H 	H 	0.4557	0.5953	0.9877	0.21
Mof_H 	H 	0.0864	0.3834	0.8511	0.186
Mof_H 	H 	0.1516	0.3657	0.9485	0.174
Mof_H 	H 	0.9632	0.476	0.8399	0.081
Mof_H 	H 	0.0948	0.4275	0.0944	0.065
Mof_H 	H 	0.2002	0.1225	0.5115	0.206
Mof_H 	H 	0.1337	0.1276	0.4105	0.202
Mof_H 	H 	0.0036	0.0684	0.6278	0.08
Mof_H 	H 	0.0823	0.0278	0.3542	0.077
Mof_H 	H 	0.6834	0.0781	0.44	0.199
Mof_H 	H 	0.5362	0.0905	0.4705	0.195
Mof_H 	H 	0.3559	0.0332	0.3645	0.083
Mof_H 	H 	0.2953	0.9379	0.3148	0.057
Mof_H 	H 	0.6754	0.8855	0.3172	0.043
Mof_H 	H 	0.7328	0.9829	0.3741	0.09
Mof_H 	H 	0.5162	0.8149	0.2629	0.16
Mof_H 	H 	0.3812	0.8402	0.224	0.168
Mof_H 	H 	0.9974	0.3417	0.2127	0.156
Mof_H 	H 	0.8565	0.3701	0.1951	0.161
Mof_H 	H 	0.1623	0.4041	0.2915	0.039
Mof_H 	H 	0.2277	0.4942	0.3658	0.089
Mof_H 	H 	0.8531	0.5457	0.3829	0.081
Mof_H 	H 	0.7871	0.456	0.3118	0.054
Mof_H 	H 	0.1869	0.5855	0.4459	0.209
Mof_H 	H 	0.0443	0.5953	0.4877	0.207
Mof_H 	H 	0.4136	0.3834	0.3511	0.185
Mof_H 	H 	0.3484	0.3657	0.4485	0.173
Mof_H 	H 	0.5368	0.476	0.3399	0.079
Mof_H 	H 	0.4052	0.4275	0.5944	0.064
Mof_H 	H 	0.2998	0.1225	0.0115	0.205
Mof_H 	H 	0.3663	0.1276	0.9105	0.202
Mof_H 	H 	0.4964	0.0684	0.1278	0.079
Mof_H 	H 	0.4177	0.0278	0.8542	0.077
Mof_H 	H 	0.1834	0.9219	0.06	0.194
Mof_H 	H 	0.0362	0.9095	0.0295	0.189
Mof_H 	H 	0.8559	0.9668	0.1355	0.076
Mof_H 	H 	0.7953	0.0621	0.1852	0.063
Mof_H 	H 	0.1754	0.1145	0.1828	0.048
Mof_H 	H 	0.2328	0.0171	0.1259	0.084
Mof_H 	H 	0.0162	0.1851	0.2371	0.158
Mof_H 	H 	0.8812	0.1598	0.276	0.169
Mof_H 	H 	0.4974	0.6583	0.2873	0.152
Mof_H 	H 	0.3565	0.6299	0.3049	0.158
Mof_H 	H 	0.6623	0.5959	0.2085	0.035
Mof_H 	H 	0.7277	0.5058	0.1342	0.094
Mof_H 	H 	0.3531	0.4543	0.1171	0.085
Mof_H 	H 	0.2871	0.544	0.1882	0.05
Mof_H 	H 	0.6869	0.4145	0.0541	0.212
Mof_H 	H 	0.5443	0.4047	0.0123	0.21
Mof_H 	H 	0.9136	0.6166	0.1489	0.186
Mof_H 	H 	0.8484	0.6343	0.0515	0.174
Mof_H 	H 	0.0368	0.524	0.1601	0.081
Mof_H 	H 	0.9052	0.5725	0.9056	0.065
Mof_H 	H 	0.7998	0.8775	0.4885	0.206
Mof_H 	H 	0.8663	0.8724	0.5895	0.202
Mof_H 	H 	0.9964	0.9316	0.3722	0.08
Mof_H 	H 	0.9177	0.9722	0.6458	0.077
Mof_C 	C 	0.4136	0.8686	0.6497	0.625
Mof_C 	C 	0.407	0.9193	0.5838	-0.612
Mof_C 	C 	0.4461	0.9811	0.6233	0.237
Mof_C 	C 	0.5788	0.9966	0.6436	-0.153
Mof_C 	C 	0.6154	0.0535	0.6745	-0.088
Mof_C 	C 	0.5221	0.0985	0.6901	0.146
Mof_C 	C 	0.39	0.085	0.6725	-0.084
Mof_C 	C 	0.3561	0.0257	0.6385	-0.182
Mof_C 	C 	0.5623	0.1615	0.72	-0.505
Mof_C 	C 	0.6343	0.1923	0.6426	0.545
Mof_C 	C 	0.138	0.6819	0.6852	0.538
Mof_C 	C 	0.0781	0.6387	0.7562	-0.474
Mof_C 	C 	0.033	0.5789	0.7079	0.136
Mof_C 	C 	0.9014	0.5671	0.6904	-0.069
Mof_C 	C 	0.8621	0.5127	0.6461	-0.18
Mof_C 	C 	0.9512	0.4697	0.6198	0.232
Mof_C 	C 	0.083	0.4829	0.636	-0.156
Mof_C 	C 	0.1228	0.5365	0.6789	-0.08
Mof_C 	C 	0.9059	0.4101	0.5713	-0.598
Mof_C 	C 	0.9197	0.3531	0.6267	0.613
Mof_C 	C 	0.4624	0.6639	0.5649	0.573
Mof_C 	C 	0.5706	0.6197	0.5808	-0.541
Mof_C 	C 	0.5363	0.5559	0.5382	0.189
Mof_C 	C 	0.4788	0.5146	0.5959	-0.129
Mof_C 	C 	0.557	0.5432	0.4441	-0.117
Mof_C 	C 	0.5263	0.8306	0.984	0.685
Mof_C 	C 	0.6162	0.8792	0.0225	-0.616
Mof_C 	C 	0.5541	0.9422	0.0117	0.197
Mof_C 	C 	0.5026	0.9593	0.9239	-0.12
Mof_C 	C 	0.5495	0.9833	0.0866	-0.137
Mof_C 	C 	0.9136	0.1314	0.8503	0.62
Mof_C 	C 	0.907	0.0807	0.9162	-0.597
Mof_C 	C 	0.9461	0.0189	0.8767	0.216
Mof_C 	C 	0.0788	0.0034	0.8564	-0.13
Mof_C 	C 	0.1154	0.9465	0.8255	-0.104
Mof_C 	C 	0.0221	0.9015	0.8099	0.161
Mof_C 	C 	0.89	0.915	0.8275	-0.102
Mof_C 	C 	0.8561	0.9743	0.8615	-0.163
Mof_C 	C 	0.0623	0.8385	0.78	-0.507
Mof_C 	C 	0.1343	0.8077	0.8574	0.545
Mof_C 	C 	0.638	0.3181	0.8148	0.535
Mof_C 	C 	0.5781	0.3613	0.7438	-0.466
Mof_C 	C 	0.533	0.4211	0.7921	0.124
Mof_C 	C 	0.4014	0.4329	0.8096	-0.056
Mof_C 	C 	0.3621	0.4873	0.8539	-0.192
Mof_C 	C 	0.4512	0.5303	0.8802	0.243
Mof_C 	C 	0.583	0.5171	0.864	-0.169
Mof_C 	C 	0.6228	0.4635	0.8211	-0.069
Mof_C 	C 	0.4059	0.5899	0.9287	-0.605
Mof_C 	C 	0.4197	0.6469	0.8733	0.615
Mof_C 	C 	0.9624	0.3361	0.9351	0.568
Mof_C 	C 	0.0706	0.3803	0.9192	-0.539
Mof_C 	C 	0.0363	0.4441	0.9618	0.202
Mof_C 	C 	0.9788	0.4854	0.9041	-0.137
Mof_C 	C 	0.057	0.4568	0.0559	-0.124
Mof_C 	C 	0.0263	0.1694	0.516	0.684
Mof_C 	C 	0.1162	0.1208	0.4775	-0.619
Mof_C 	C 	0.0541	0.0578	0.4883	0.197
Mof_C 	C 	0.0026	0.0407	0.5761	-0.121
Mof_C 	C 	0.0495	0.0167	0.4134	-0.138
Mof_C 	C 	0.5864	0.1314	0.3503	0.625
Mof_C 	C 	0.593	0.0807	0.4162	-0.612
Mof_C 	C 	0.5539	0.0189	0.3767	0.237
Mof_C 	C 	0.4212	0.0034	0.3564	-0.153
Mof_C 	C 	0.3846	0.9465	0.3255	-0.088
Mof_C 	C 	0.4779	0.9015	0.3099	0.146
Mof_C 	C 	0.61	0.915	0.3275	-0.084
Mof_C 	C 	0.6439	0.9743	0.3615	-0.182
Mof_C 	C 	0.4377	0.8385	0.28	-0.505
Mof_C 	C 	0.3657	0.8077	0.3574	0.545
Mof_C 	C 	0.862	0.3181	0.3148	0.538
Mof_C 	C 	0.9219	0.3613	0.2438	-0.474
Mof_C 	C 	0.967	0.4211	0.2921	0.136
Mof_C 	C 	0.0986	0.4329	0.3096	-0.069
Mof_C 	C 	0.1379	0.4873	0.3539	-0.18
Mof_C 	C 	0.0488	0.5303	0.3802	0.232
Mof_C 	C 	0.917	0.5171	0.364	-0.156
Mof_C 	C 	0.8772	0.4635	0.3211	-0.08
Mof_C 	C 	0.0941	0.5899	0.4287	-0.598
Mof_C 	C 	0.0803	0.6469	0.3733	0.613
Mof_C 	C 	0.5376	0.3361	0.4351	0.573
Mof_C 	C 	0.4294	0.3803	0.4192	-0.541
Mof_C 	C 	0.4637	0.4441	0.4618	0.189
Mof_C 	C 	0.5212	0.4854	0.4041	-0.129
Mof_C 	C 	0.443	0.4568	0.5559	-0.117
Mof_C 	C 	0.4737	0.1694	0.016	0.685
Mof_C 	C 	0.3838	0.1208	0.9775	-0.616
Mof_C 	C 	0.4459	0.0578	0.9883	0.197
Mof_C 	C 	0.4974	0.0407	0.0761	-0.12
Mof_C 	C 	0.4505	0.0167	0.9134	-0.137
Mof_C 	C 	0.0864	0.8686	0.1497	0.62
Mof_C 	C 	0.093	0.9193	0.0838	-0.597
Mof_C 	C 	0.0539	0.9811	0.1233	0.216
Mof_C 	C 	0.9212	0.9966	0.1436	-0.13
Mof_C 	C 	0.8846	0.0535	0.1745	-0.104
Mof_C 	C 	0.9779	0.0985	0.1901	0.161
Mof_C 	C 	0.11	0.085	0.1725	-0.102
Mof_C 	C 	0.1439	0.0257	0.1385	-0.163
Mof_C 	C 	0.9377	0.1615	0.22	-0.507
Mof_C 	C 	0.8657	0.1923	0.1426	0.545
Mof_C 	C 	0.362	0.6819	0.1852	0.535
Mof_C 	C 	0.4219	0.6387	0.2562	-0.466
Mof_C 	C 	0.467	0.5789	0.2079	0.124
Mof_C 	C 	0.5986	0.5671	0.1904	-0.056
Mof_C 	C 	0.6379	0.5127	0.1461	-0.192
Mof_C 	C 	0.5488	0.4697	0.1198	0.243
Mof_C 	C 	0.417	0.4829	0.136	-0.169
Mof_C 	C 	0.3772	0.5365	0.1789	-0.069
Mof_C 	C 	0.5941	0.4101	0.0713	-0.605
Mof_C 	C 	0.5803	0.3531	0.1267	0.615
Mof_C 	C 	0.0376	0.6639	0.0649	0.568
Mof_C 	C 	0.9294	0.6197	0.0808	-0.539
Mof_C 	C 	0.9637	0.5559	0.0382	0.202
Mof_C 	C 	0.0212	0.5146	0.0959	-0.137
Mof_C 	C 	0.943	0.5432	0.9441	-0.124
Mof_C 	C 	0.9737	0.8306	0.484	0.684
Mof_C 	C 	0.8838	0.8792	0.5225	-0.619
Mof_C 	C 	0.9459	0.9422	0.5117	0.197
Mof_C 	C 	0.9974	0.9593	0.4239	-0.121
Mof_C 	C 	0.9505	0.9833	0.5866	-0.138
Mof_O 	O 	0.3334	0.8251	0.6357	-0.76
Mof_O 	O 	0.4931	0.8649	0.7171	-0.568
Mof_O 	O 	0.572	0.2171	0.5766	-0.58
Mof_O 	O 	0.7597	0.1916	0.6382	-0.673
Mof_O 	O 	0.2346	0.7149	0.7068	-0.703
Mof_O 	O 	0.0821	0.6877	0.6045	-0.556
Mof_O 	O 	0.8669	0.304	0.5971	-0.785
Mof_O 	O 	0.9815	0.3506	0.7046	-0.567
Mof_O 	O 	0.4729	0.7177	0.6079	-0.706
Mof_O 	O 	0.3684	0.6541	0.5133	-0.605
Mof_O 	O 	0.5469	0.8071	0.9035	-0.645
Mof_O 	O 	0.4318	0.8145	0.0364	-0.663
Mof_O 	O 	0.8334	0.1749	0.8643	-0.758
Mof_O 	O 	0.9931	0.1351	0.7829	-0.567
Mof_O 	O 	0.072	0.7829	0.9234	-0.577
Mof_O 	O 	0.2597	0.8084	0.8618	-0.672
Mof_O 	O 	0.7346	0.2851	0.7932	-0.702
Mof_O 	O 	0.5821	0.3123	0.8955	-0.555
Mof_O 	O 	0.3669	0.696	0.9029	-0.784
Mof_O 	O 	0.4815	0.6494	0.7954	-0.567
Mof_O 	O 	0.9729	0.2823	0.8921	-0.706
Mof_O 	O 	0.8684	0.3459	0.9867	-0.605
Mof_O 	O 	0.0469	0.1929	0.5965	-0.644
Mof_O 	O 	0.9318	0.1855	0.4636	-0.664
Mof_O 	O 	0.6666	0.1749	0.3643	-0.76
Mof_O 	O 	0.5069	0.1351	0.2829	-0.568
Mof_O 	O 	0.428	0.7829	0.4234	-0.58
Mof_O 	O 	0.2403	0.8084	0.3618	-0.673
Mof_O 	O 	0.7654	0.2851	0.2932	-0.703
Mof_O 	O 	0.9179	0.3123	0.3955	-0.556
Mof_O 	O 	0.1331	0.696	0.4029	-0.785
Mof_O 	O 	0.0185	0.6494	0.2954	-0.567
Mof_O 	O 	0.5271	0.2823	0.3921	-0.706
Mof_O 	O 	0.6316	0.3459	0.4867	-0.605
Mof_O 	O 	0.4531	0.1929	0.0965	-0.645
Mof_O 	O 	0.5682	0.1855	0.9636	-0.663
Mof_O 	O 	0.1666	0.8251	0.1357	-0.758
Mof_O 	O 	0.0069	0.8649	0.2171	-0.567
Mof_O 	O 	0.928	0.2171	0.0766	-0.577
Mof_O 	O 	0.7403	0.1916	0.1382	-0.672
Mof_O 	O 	0.2654	0.7149	0.2068	-0.702
Mof_O 	O 	0.4179	0.6877	0.1045	-0.555
Mof_O 	O 	0.6331	0.304	0.0971	-0.784
Mof_O 	O 	0.5185	0.3506	0.2046	-0.567
Mof_O 	O 	0.0271	0.7177	0.1079	-0.706
Mof_O 	O 	0.1316	0.6541	0.0133	-0.605
Mof_O 	O 	0.9531	0.8071	0.4035	-0.644
Mof_O 	O 	0.0682	0.8145	0.5364	-0.664
_end
