data_functionalizedCrystal
_audit_creation_method	'EQeq! by Chris Wilmer'
_symmetry_space_group_name_H-M	'P1'
_symmetry_Int_Tables_number	1
_symmetry_cell_setting	triclinic
loop_
_symmetry_equiv_pos_as_xyz
  x,y,z
_cell_length_a	12.251
_cell_length_b	18.631
_cell_length_c	20.976
_cell_angle_alpha	90
_cell_angle_beta	90
_cell_angle_gamma	90
loop_
_atom_site_label
_atom_site_type_symbol
_atom_site_fract_x
_atom_site_fract_y
_atom_site_fract_z
_atom_site_charge
Mof_O 	O 	0.8872	0.04705	0.4326	-0.507
Mof_O 	O 	0.7225	0.0814	0.4559	-0.476
Mof_O 	O 	0.106	0.4578	0.8144	-0.492
Mof_O 	O 	0.2665	0.42	0.7888	-0.483
Mof_C 	C 	0.8239	0.0845	0.4656	0.347
Mof_C 	C 	0.8711	0.1323	0.5151	-0.135
Mof_C 	C 	0.9775	0.1255	0.5403	0.063
Mof_H 	H 	0.0197	0.0871	0.5265	0.021
Mof_C 	C 	0.0228	0.1716	0.5839	-0.129
Mof_H 	H 	0.0925	0.1637	0.6	0.077
Mof_C 	C 	0.9657	0.2265	0.602	0.066
Mof_C 	C 	0.8593	0.2336	0.5764	-0.132
Mof_H 	H 	0.8183	0.2731	0.589	0.077
Mof_C 	C 	0.8121	0.1865	0.5344	0.064
Mof_H 	H 	0.7409	0.1929	0.5202	0.019
Mof_C 	C 	0.0161	0.2767	0.6476	0.027
Mof_C 	C 	0.1298	0.2857	0.6476	-0.092
Mof_H 	H 	0.1726	0.2611	0.6182	0.063
Mof_C 	C 	0.1775	0.331	0.6911	0.026
Mof_H 	H 	0.2532	0.3351	0.6926	0.039
Mof_C 	C 	0.1146	0.3703	0.7326	-0.09
Mof_C 	C 	0.0034	0.363	0.7325	0.025
Mof_H 	H 	0.9614	0.3895	0.7609	0.044
Mof_C 	C 	0.953	0.3164	0.6902	-0.092
Mof_H 	H 	0.8774	0.3116	0.6902	0.063
Mof_C 	C 	0.1652	0.4193	0.7808	0.348
Mof_O 	O 	0.6128	0.95295	0.4326	-0.373
Mof_O 	O 	0.7775	0.9186	0.4559	-0.393
Mof_O 	O 	0.394	0.5422	0.8144	-0.494
Mof_O 	O 	0.2335	0.58	0.7888	-0.481
Mof_C 	C 	0.6761	0.9155	0.4656	0.318
Mof_C 	C 	0.6289	0.8677	0.5151	-0.049
Mof_C 	C 	0.5225	0.8745	0.5403	0.006
Mof_H 	H 	0.4803	0.9129	0.5265	0.091
Mof_C 	C 	0.4772	0.8284	0.5839	-0.059
Mof_H 	H 	0.4075	0.8363	0.6	0.058
Mof_C 	C 	0.5343	0.7735	0.602	0.021
Mof_C 	C 	0.6407	0.7664	0.5764	-0.072
Mof_H 	H 	0.6817	0.7269	0.589	0.061
Mof_C 	C 	0.6879	0.8135	0.5344	0.006
Mof_H 	H 	0.7591	0.8071	0.5202	0.048
Mof_C 	C 	0.4839	0.7233	0.6476	0.053
Mof_C 	C 	0.3702	0.7143	0.6476	-0.109
Mof_H 	H 	0.3274	0.7389	0.6182	0.071
Mof_C 	C 	0.3225	0.669	0.6911	0.038
Mof_H 	H 	0.2468	0.6649	0.6926	0.038
Mof_C 	C 	0.3854	0.6297	0.7326	-0.1
Mof_C 	C 	0.4966	0.637	0.7325	0.037
Mof_H 	H 	0.5386	0.6105	0.7609	0.04
Mof_C 	C 	0.547	0.6836	0.6902	-0.109
Mof_H 	H 	0.6226	0.6884	0.6902	0.075
Mof_C 	C 	0.3348	0.5807	0.7808	0.351
Mof_O 	O 	0.3872	0.45295	0.9326	-0.496
Mof_O 	O 	0.2225	0.4186	0.9559	-0.484
Mof_O 	O 	0.606	0.0422	0.3144	-0.499
Mof_O 	O 	0.7665	0.08	0.2888	-0.479
Mof_C 	C 	0.3239	0.4155	0.9656	0.337
Mof_C 	C 	0.3711	0.3677	0.0151	-0.089
Mof_C 	C 	0.4775	0.3745	0.0403	0.024
Mof_H 	H 	0.5197	0.4129	0.0265	0.056
Mof_C 	C 	0.5228	0.3284	0.0839	-0.082
Mof_H 	H 	0.5925	0.3363	0.1	0.057
Mof_C 	C 	0.4657	0.2735	0.102	0.027
Mof_C 	C 	0.3593	0.2664	0.0764	-0.095
Mof_H 	H 	0.3183	0.2269	0.089	0.055
Mof_C 	C 	0.3121	0.3135	0.0344	0.024
Mof_H 	H 	0.2409	0.3071	0.0202	0.032
Mof_C 	C 	0.5161	0.2233	0.1476	0.047
Mof_C 	C 	0.6298	0.2143	0.1476	-0.119
Mof_H 	H 	0.6726	0.2389	0.1182	0.065
Mof_C 	C 	0.6775	0.169	0.1911	0.043
Mof_H 	H 	0.7532	0.1649	0.1926	0.021
Mof_C 	C 	0.6146	0.1297	0.2326	-0.123
Mof_C 	C 	0.5034	0.137	0.2325	0.041
Mof_H 	H 	0.4614	0.1105	0.2609	0.021
Mof_C 	C 	0.453	0.1836	0.1902	-0.12
Mof_H 	H 	0.3774	0.1884	0.1902	0.065
Mof_C 	C 	0.6652	0.0807	0.2808	0.351
Mof_O 	O 	0.1128	0.54705	0.9326	-0.495
Mof_O 	O 	0.2775	0.5814	0.9559	-0.484
Mof_O 	O 	0.894	0.9578	0.3144	-0.38
Mof_O 	O 	0.7335	0.92	0.2888	-0.384
Mof_C 	C 	0.1761	0.5845	0.9656	0.344
Mof_C 	C 	0.1289	0.6323	0.0151	-0.103
Mof_C 	C 	0.0225	0.6255	0.0403	0.048
Mof_H 	H 	0.9803	0.5871	0.0265	0.049
Mof_C 	C 	0.9772	0.6716	0.0839	-0.107
Mof_H 	H 	0.9075	0.6637	0.1	0.068
Mof_C 	C 	0.0343	0.7265	0.102	0.063
Mof_C 	C 	0.1407	0.7336	0.0764	-0.115
Mof_H 	H 	0.1817	0.7731	0.089	0.085
Mof_C 	C 	0.1879	0.6865	0.0344	0.052
Mof_H 	H 	0.2591	0.6929	0.0202	0.032
Mof_C 	C 	0.9839	0.7767	0.1476	0.024
Mof_C 	C 	0.8702	0.7857	0.1476	-0.072
Mof_H 	H 	0.8274	0.7611	0.1182	0.062
Mof_C 	C 	0.8225	0.831	0.1911	0.011
Mof_H 	H 	0.7468	0.8351	0.1926	0.058
Mof_C 	C 	0.8854	0.8703	0.2326	-0.056
Mof_C 	C 	0.9966	0.863	0.2325	0.008
Mof_H 	H 	0.0386	0.8895	0.2609	0.068
Mof_C 	C 	0.047	0.8164	0.1902	-0.071
Mof_H 	H 	0.1226	0.8116	0.1902	0.07
Mof_C 	C 	0.8348	0.9193	0.2808	0.325
Mof_In	In	0.75	0	0.3734	1.995
Mof_In	In	0.25	0.5	0.8734	2.412
Mof_O 	O 	0.6128	0.54705	0.0674	-0.495
Mof_O 	O 	0.7775	0.5814	0.0441	-0.484
Mof_O 	O 	0.394	0.9578	0.6856	-0.379
Mof_O 	O 	0.2335	0.92	0.7112	-0.384
Mof_C 	C 	0.6761	0.5845	0.0344	0.345
Mof_C 	C 	0.6289	0.6323	0.9849	-0.103
Mof_C 	C 	0.5225	0.6255	0.9597	0.048
Mof_H 	H 	0.4803	0.5871	0.9735	0.049
Mof_C 	C 	0.4772	0.6716	0.9161	-0.107
Mof_H 	H 	0.4075	0.6637	0.9	0.068
Mof_C 	C 	0.5343	0.7265	0.898	0.063
Mof_C 	C 	0.6407	0.7336	0.9236	-0.115
Mof_H 	H 	0.6817	0.7731	0.911	0.085
Mof_C 	C 	0.6879	0.6865	0.9656	0.052
Mof_H 	H 	0.7591	0.6929	0.9798	0.032
Mof_C 	C 	0.4839	0.7767	0.8524	0.026
Mof_C 	C 	0.3702	0.7857	0.8524	-0.073
Mof_H 	H 	0.3274	0.7611	0.8818	0.062
Mof_C 	C 	0.3225	0.831	0.8089	0.012
Mof_H 	H 	0.2468	0.8351	0.8074	0.058
Mof_C 	C 	0.3854	0.8703	0.7674	-0.056
Mof_C 	C 	0.4966	0.863	0.7675	0.01
Mof_H 	H 	0.5386	0.8895	0.7391	0.067
Mof_C 	C 	0.547	0.8164	0.8098	-0.072
Mof_H 	H 	0.6226	0.8116	0.8098	0.07
Mof_C 	C 	0.3348	0.9193	0.7192	0.325
Mof_O 	O 	0.8872	0.45295	0.0674	-0.495
Mof_O 	O 	0.7225	0.4186	0.0441	-0.483
Mof_O 	O 	0.106	0.0422	0.6856	-0.499
Mof_O 	O 	0.2665	0.08	0.7112	-0.479
Mof_C 	C 	0.8239	0.4155	0.0344	0.336
Mof_C 	C 	0.8711	0.3677	0.9849	-0.087
Mof_C 	C 	0.9775	0.3745	0.9597	0.02
Mof_H 	H 	0.0197	0.4129	0.9735	0.057
Mof_C 	C 	0.0228	0.3284	0.9161	-0.077
Mof_H 	H 	0.0925	0.3363	0.9	0.055
Mof_C 	C 	0.9657	0.2735	0.898	0.023
Mof_C 	C 	0.8593	0.2664	0.9236	-0.091
Mof_H 	H 	0.8183	0.2269	0.911	0.054
Mof_C 	C 	0.8121	0.3135	0.9656	0.021
Mof_H 	H 	0.7409	0.3071	0.9798	0.033
Mof_C 	C 	0.0161	0.2233	0.8524	0.051
Mof_C 	C 	0.1298	0.2143	0.8524	-0.122
Mof_H 	H 	0.1726	0.2389	0.8818	0.066
Mof_C 	C 	0.1775	0.169	0.8089	0.045
Mof_H 	H 	0.2532	0.1649	0.8074	0.02
Mof_C 	C 	0.1146	0.1297	0.7674	-0.125
Mof_C 	C 	0.0034	0.137	0.7675	0.045
Mof_H 	H 	0.9614	0.1105	0.7391	0.019
Mof_C 	C 	0.953	0.1836	0.8098	-0.124
Mof_H 	H 	0.8774	0.1884	0.8098	0.067
Mof_C 	C 	0.1652	0.0807	0.7192	0.352
Mof_O 	O 	0.1128	0.95295	0.5674	-0.374
Mof_O 	O 	0.2775	0.9186	0.5441	-0.393
Mof_O 	O 	0.894	0.5422	0.1856	-0.494
Mof_O 	O 	0.7335	0.58	0.2112	-0.481
Mof_C 	C 	0.1761	0.9155	0.5344	0.318
Mof_C 	C 	0.1289	0.8677	0.4849	-0.051
Mof_C 	C 	0.0225	0.8745	0.4597	0.007
Mof_H 	H 	0.9803	0.9129	0.4735	0.09
Mof_C 	C 	0.9772	0.8284	0.4161	-0.062
Mof_H 	H 	0.9075	0.8363	0.4	0.059
Mof_C 	C 	0.0343	0.7735	0.398	0.023
Mof_C 	C 	0.1407	0.7664	0.4236	-0.074
Mof_H 	H 	0.1817	0.7269	0.411	0.062
Mof_C 	C 	0.1879	0.8135	0.4656	0.008
Mof_H 	H 	0.2591	0.8071	0.4798	0.047
Mof_C 	C 	0.9839	0.7233	0.3524	0.051
Mof_C 	C 	0.8702	0.7143	0.3524	-0.108
Mof_H 	H 	0.8274	0.7389	0.3818	0.07
Mof_C 	C 	0.8225	0.669	0.3089	0.037
Mof_H 	H 	0.7468	0.6649	0.3074	0.038
Mof_C 	C 	0.8854	0.6297	0.2674	-0.098
Mof_C 	C 	0.9966	0.637	0.2675	0.035
Mof_H 	H 	0.0386	0.6105	0.2391	0.041
Mof_C 	C 	0.047	0.6836	0.3098	-0.107
Mof_H 	H 	0.1226	0.6884	0.3098	0.074
Mof_C 	C 	0.8348	0.5807	0.2192	0.35
Mof_O 	O 	0.3872	0.04705	0.5674	-0.508
Mof_O 	O 	0.2225	0.0814	0.5441	-0.476
Mof_O 	O 	0.606	0.4578	0.1856	-0.492
Mof_O 	O 	0.7665	0.42	0.2112	-0.483
Mof_C 	C 	0.3239	0.0845	0.5344	0.348
Mof_C 	C 	0.3711	0.1323	0.4849	-0.137
Mof_C 	C 	0.4775	0.1255	0.4597	0.066
Mof_H 	H 	0.5197	0.0871	0.4735	0.019
Mof_C 	C 	0.5228	0.1716	0.4161	-0.133
Mof_H 	H 	0.5925	0.1637	0.4	0.078
Mof_C 	C 	0.4657	0.2265	0.398	0.069
Mof_C 	C 	0.3593	0.2336	0.4236	-0.135
Mof_H 	H 	0.3183	0.2731	0.411	0.078
Mof_C 	C 	0.3121	0.1865	0.4656	0.067
Mof_H 	H 	0.2409	0.1929	0.4798	0.018
Mof_C 	C 	0.5161	0.2767	0.3524	0.024
Mof_C 	C 	0.6298	0.2857	0.3524	-0.089
Mof_H 	H 	0.6726	0.2611	0.3818	0.062
Mof_C 	C 	0.6775	0.331	0.3089	0.024
Mof_H 	H 	0.7532	0.3351	0.3074	0.039
Mof_C 	C 	0.6146	0.3703	0.2674	-0.089
Mof_C 	C 	0.5034	0.363	0.2675	0.022
Mof_H 	H 	0.4614	0.3895	0.2391	0.045
Mof_C 	C 	0.453	0.3164	0.3098	-0.088
Mof_H 	H 	0.3774	0.3116	0.3098	0.062
Mof_C 	C 	0.6652	0.4193	0.2192	0.347
Mof_In	In	0.75	0.5	0.1266	2.412
Mof_In	In	0.25	0	0.6266	1.995
_end
