data_functionalizedCrystal
_audit_creation_method	'EQeq! by Chris Wilmer'
_symmetry_space_group_name_H-M	'P1'
_symmetry_Int_Tables_number	1
_symmetry_cell_setting	triclinic
loop_
_symmetry_equiv_pos_as_xyz
  x,y,z
_cell_length_a	18.2725
_cell_length_b	22.168
_cell_length_c	22.168
_cell_angle_alpha	80.2206
_cell_angle_beta	65.6609
_cell_angle_gamma	65.661
loop_
_atom_site_label
_atom_site_type_symbol
_atom_site_fract_x
_atom_site_fract_y
_atom_site_fract_z
_atom_site_charge
Mof_Cu	Cu	0.25885	0.99115	0.49115	0.848
Mof_Cu	Cu	0.24115	0.50885	0.00885	0.848
Mof_Cu	Cu	0.75	0.49115	0.50885	0.848
Mof_Cu	Cu	0.25	0.00885	0.99115	0.848
Mof_H 	H 	0.2231	0.9217	0.6209	-0.022
Mof_H 	H 	0.2176	0.9275	0.7255	0.07
Mof_H 	H 	0.2774	0.0879	0.6685	0.072
Mof_H 	H 	0.2814	0.0791	0.5653	-0.022
Mof_H 	H 	0.3424	0.0451	0.8521	-0.021
Mof_H 	H 	0.3466	0.0423	0.7475	0.073
Mof_H 	H 	0.1474	0.9839	0.8265	0.073
Mof_H 	H 	0.1451	0.9901	0.9295	-0.024
Mof_H 	H 	0.2657	0.5783	0.8791	-0.022
Mof_H 	H 	0.3706	0.5725	0.7745	0.07
Mof_H 	H 	0.5338	0.4121	0.8315	0.072
Mof_H 	H 	0.4258	0.4209	0.9347	-0.022
Mof_H 	H 	0.7396	0.4549	0.6479	-0.021
Mof_H 	H 	0.6364	0.4577	0.7525	0.073
Mof_H 	H 	0.4578	0.5161	0.6735	0.073
Mof_H 	H 	0.5647	0.5099	0.5705	-0.024
Mof_H 	H 	0.2343	0.1209	0.4217	-0.022
Mof_H 	H 	0.1294	0.2255	0.4275	0.07
Mof_H 	H 	0.9662	0.1685	0.5879	0.072
Mof_H 	H 	0.0742	0.0653	0.5791	-0.022
Mof_H 	H 	0.7604	0.3521	0.5451	-0.021
Mof_H 	H 	0.8636	0.2475	0.5423	0.073
Mof_H 	H 	0.0422	0.3265	0.4839	0.074
Mof_H 	H 	0.9353	0.4295	0.4901	-0.023
Mof_H 	H 	0.2769	0.3791	0.0783	-0.021
Mof_H 	H 	0.2824	0.2745	0.0725	0.071
Mof_H 	H 	0.2226	0.3315	0.9121	0.073
Mof_H 	H 	0.2186	0.4347	0.9209	-0.021
Mof_H 	H 	0.1576	0.1479	0.9549	-0.02
Mof_H 	H 	0.1534	0.2525	0.9577	0.073
Mof_H 	H 	0.3526	0.1735	0.0161	0.074
Mof_H 	H 	0.3549	0.0705	0.0099	-0.023
Mof_H 	H 	0.656	0.6209	0.5783	-0.021
Mof_H 	H 	0.5569	0.7255	0.5725	0.071
Mof_H 	H 	0.5541	0.6685	0.4121	0.073
Mof_H 	H 	0.6533	0.5653	0.4209	-0.021
Mof_H 	H 	0.3055	0.8521	0.4549	-0.02
Mof_H 	H 	0.4059	0.7475	0.4577	0.074
Mof_H 	H 	0.5261	0.8265	0.5161	0.074
Mof_H 	H 	0.4254	0.9295	0.5099	-0.023
Mof_H 	H 	0.3552	0.8791	0.9217	-0.021
Mof_H 	H 	0.3549	0.7745	0.9275	0.071
Mof_H 	H 	0.1347	0.8315	0.0879	0.073
Mof_H 	H 	0.1395	0.9347	0.0791	-0.021
Mof_H 	H 	0.1125	0.6479	0.0451	-0.02
Mof_H 	H 	0.1111	0.7525	0.0423	0.074
Mof_H 	H 	0.3687	0.6735	0.9839	0.074
Mof_H 	H 	0.3648	0.5705	0.9901	-0.023
Mof_H 	H 	0.1448	0.0783	0.1209	-0.021
Mof_H 	H 	0.1451	0.0725	0.2255	0.071
Mof_H 	H 	0.3653	0.9121	0.1685	0.073
Mof_H 	H 	0.3605	0.9209	0.0653	-0.021
Mof_H 	H 	0.3875	0.9549	0.3521	-0.02
Mof_H 	H 	0.3889	0.9577	0.2475	0.074
Mof_H 	H 	0.1313	0.0161	0.3265	0.074
Mof_H 	H 	0.1352	0.0099	0.4295	-0.023
Mof_H 	H 	0.844	0.4217	0.3791	-0.021
Mof_H 	H 	0.9431	0.4275	0.2745	0.071
Mof_H 	H 	0.9459	0.5879	0.3315	0.073
Mof_H 	H 	0.8467	0.5791	0.4347	-0.021
Mof_H 	H 	0.1945	0.5451	0.1479	-0.02
Mof_H 	H 	0.0941	0.5423	0.2525	0.074
Mof_H 	H 	0.9739	0.4839	0.1735	0.073
Mof_H 	H 	0.0746	0.4901	0.0705	-0.023
Mof_C 	C 	0.23379	0.95563	0.63079	0.073
Mof_C 	C 	0.23093	0.95859	0.69355	-0.137
Mof_C 	C 	0.2483	0.00903	0.70837	0.052
Mof_C 	C 	0.26628	0.05357	0.65987	-0.139
Mof_C 	C 	0.26829	0.04839	0.59783	0.074
Mof_C 	C 	0.30301	0.03219	0.84679	0.077
Mof_C 	C 	0.30563	0.03089	0.78385	-0.144
Mof_C 	C 	0.24666	0.0124	0.77548	0.06
Mof_C 	C 	0.18766	0.99664	0.83064	-0.145
Mof_C 	C 	0.18725	0.99951	0.89239	0.079
Mof_C 	C 	0.32021	0.54437	0.86921	0.073
Mof_C 	C 	0.38307	0.54141	0.80645	-0.137
Mof_C 	C 	0.4657	0.49097	0.79163	0.052
Mof_C 	C 	0.47972	0.44643	0.84013	-0.139
Mof_C 	C 	0.41451	0.45161	0.90217	0.074
Mof_C 	C 	0.68199	0.46781	0.65321	0.077
Mof_C 	C 	0.62037	0.46911	0.71615	-0.144
Mof_C 	C 	0.53454	0.4876	0.72452	0.06
Mof_C 	C 	0.51494	0.50336	0.66936	-0.145
Mof_C 	C 	0.57915	0.50049	0.60761	0.079
Mof_C 	C 	0.17979	0.13079	0.45563	0.073
Mof_C 	C 	0.11693	0.19355	0.45859	-0.136
Mof_C 	C 	0.0343	0.20837	0.50903	0.052
Mof_C 	C 	0.02028	0.15987	0.55357	-0.139
Mof_C 	C 	0.08549	0.09783	0.54839	0.074
Mof_C 	C 	0.81801	0.34679	0.53219	0.077
Mof_C 	C 	0.87963	0.28385	0.53089	-0.144
Mof_C 	C 	0.96546	0.27548	0.5124	0.06
Mof_C 	C 	0.98506	0.33064	0.49664	-0.146
Mof_C 	C 	0.92085	0.39239	0.49951	0.079
Mof_C 	C 	0.26621	0.36921	0.04437	0.073
Mof_C 	C 	0.26907	0.30645	0.04141	-0.136
Mof_C 	C 	0.2517	0.29163	0.99097	0.052
Mof_C 	C 	0.23372	0.34013	0.94643	-0.139
Mof_C 	C 	0.23171	0.40217	0.95161	0.074
Mof_C 	C 	0.19699	0.15321	0.96781	0.076
Mof_C 	C 	0.19437	0.21615	0.96911	-0.144
Mof_C 	C 	0.25334	0.22452	0.9876	0.059
Mof_C 	C 	0.31234	0.16936	0.00336	-0.145
Mof_C 	C 	0.31275	0.10761	0.00049	0.079
Mof_C 	C 	0.63542	0.63079	0.54437	0.073
Mof_C 	C 	0.57552	0.69355	0.54141	-0.137
Mof_C 	C 	0.54333	0.70837	0.49097	0.052
Mof_C 	C 	0.57385	0.65987	0.44643	-0.139
Mof_C 	C 	0.63388	0.59783	0.45161	0.074
Mof_C 	C 	0.3502	0.84679	0.46781	0.077
Mof_C 	C 	0.41052	0.78385	0.46911	-0.144
Mof_C 	C 	0.47786	0.77548	0.4876	0.06
Mof_C 	C 	0.4817	0.83064	0.50336	-0.145
Mof_C 	C 	0.42036	0.89239	0.50049	0.079
Mof_C 	C 	0.31058	0.86921	0.95563	0.073
Mof_C 	C 	0.31048	0.80645	0.95859	-0.137
Mof_C 	C 	0.24267	0.79163	0.00903	0.052
Mof_C 	C 	0.18015	0.84013	0.05357	-0.139
Mof_C 	C 	0.18332	0.90217	0.04839	0.074
Mof_C 	C 	0.1648	0.65321	0.03219	0.077
Mof_C 	C 	0.16348	0.71615	0.03089	-0.144
Mof_C 	C 	0.24094	0.72452	0.0124	0.06
Mof_C 	C 	0.3157	0.66936	0.99664	-0.145
Mof_C 	C 	0.31324	0.60761	0.99951	0.079
Mof_C 	C 	0.18942	0.04437	0.13079	0.073
Mof_C 	C 	0.18952	0.04141	0.19355	-0.136
Mof_C 	C 	0.25733	0.99097	0.20837	0.052
Mof_C 	C 	0.31985	0.94643	0.15987	-0.139
Mof_C 	C 	0.31668	0.95161	0.09783	0.074
Mof_C 	C 	0.3352	0.96781	0.34679	0.076
Mof_C 	C 	0.33652	0.96911	0.28385	-0.144
Mof_C 	C 	0.25906	0.9876	0.27548	0.059
Mof_C 	C 	0.1843	0.00336	0.33064	-0.145
Mof_C 	C 	0.18676	0.00049	0.39239	0.079
Mof_C 	C 	0.86458	0.45563	0.36921	0.073
Mof_C 	C 	0.92448	0.45859	0.30645	-0.137
Mof_C 	C 	0.95667	0.50903	0.29163	0.052
Mof_C 	C 	0.92615	0.55357	0.34013	-0.139
Mof_C 	C 	0.86612	0.54839	0.40217	0.074
Mof_C 	C 	0.1498	0.53219	0.15321	0.076
Mof_C 	C 	0.08948	0.53089	0.21615	-0.144
Mof_C 	C 	0.02214	0.5124	0.22452	0.059
Mof_C 	C 	0.0183	0.49664	0.16936	-0.145
Mof_C 	C 	0.07964	0.49951	0.10761	0.078
Mof_N 	N 	0.2516	0.00011	0.58349	-0.237
Mof_N 	N 	0.24571	0.01551	0.90047	-0.242
Mof_N 	N 	0.3352	0.49989	0.91651	-0.237
Mof_N 	N 	0.66169	0.48449	0.59953	-0.242
Mof_N 	N 	0.1648	0.08349	0.50011	-0.237
Mof_N 	N 	0.83831	0.40047	0.51551	-0.242
Mof_N 	N 	0.2484	0.41651	0.99989	-0.237
Mof_N 	N 	0.25429	0.09953	0.98449	-0.242
Mof_N 	N 	0.66491	0.58349	0.49989	-0.237
Mof_N 	N 	0.35382	0.90047	0.48449	-0.242
Mof_N 	N 	0.24829	0.91651	0.00011	-0.237
Mof_N 	N 	0.23878	0.59953	0.01551	-0.242
Mof_N 	N 	0.25171	0.99989	0.08349	-0.237
Mof_N 	N 	0.26122	0.98449	0.40047	-0.242
Mof_N 	N 	0.83509	0.50011	0.41651	-0.237
Mof_N 	N 	0.14618	0.51551	0.09953	-0.242
Mof_Cu	Cu	0.25	0.50885	0.49115	0.849
Mof_Cu	Cu	0.75	0.99115	0.00885	0.849
Mof_Cu	Cu	0.74115	0.00885	0.50885	0.849
Mof_Cu	Cu	0.75885	0.49115	0.99115	0.849
Mof_H 	H 	0.344	0.3791	0.4217	-0.021
Mof_H 	H 	0.4431	0.2745	0.4275	0.071
Mof_H 	H 	0.4459	0.3315	0.5879	0.073
Mof_H 	H 	0.3467	0.4347	0.5791	-0.021
Mof_H 	H 	0.6945	0.1479	0.5451	-0.02
Mof_H 	H 	0.5941	0.2525	0.5423	0.074
Mof_H 	H 	0.4739	0.1735	0.4839	0.074
Mof_H 	H 	0.5746	0.0705	0.4901	-0.023
Mof_H 	H 	0.6448	0.1209	0.0783	-0.021
Mof_H 	H 	0.6451	0.2255	0.0725	0.071
Mof_H 	H 	0.8653	0.1685	0.9121	0.073
Mof_H 	H 	0.8605	0.0653	0.9209	-0.021
Mof_H 	H 	0.8875	0.3521	0.9549	-0.02
Mof_H 	H 	0.8889	0.2475	0.9577	0.074
Mof_H 	H 	0.6313	0.3265	0.0161	0.074
Mof_H 	H 	0.6352	0.4295	0.0099	-0.023
Mof_H 	H 	0.8552	0.9217	0.8791	-0.021
Mof_H 	H 	0.8549	0.9275	0.7745	0.071
Mof_H 	H 	0.6347	0.0879	0.8315	0.073
Mof_H 	H 	0.6395	0.0791	0.9347	-0.021
Mof_H 	H 	0.6125	0.0451	0.6479	-0.02
Mof_H 	H 	0.6111	0.0423	0.7525	0.074
Mof_H 	H 	0.8687	0.9839	0.6735	0.074
Mof_H 	H 	0.8648	0.9901	0.5705	-0.023
Mof_H 	H 	0.156	0.5783	0.6209	-0.021
Mof_H 	H 	0.0569	0.5725	0.7255	0.071
Mof_H 	H 	0.0541	0.4121	0.6685	0.073
Mof_H 	H 	0.1533	0.4209	0.5653	-0.021
Mof_H 	H 	0.8055	0.4549	0.8521	-0.02
Mof_H 	H 	0.9059	0.4577	0.7475	0.074
Mof_H 	H 	0.0261	0.5161	0.8265	0.073
Mof_H 	H 	0.9254	0.5099	0.9295	-0.023
Mof_H 	H 	0.7769	0.0783	0.3791	-0.021
Mof_H 	H 	0.7824	0.0725	0.2745	0.071
Mof_H 	H 	0.7226	0.9121	0.3315	0.073
Mof_H 	H 	0.7186	0.9209	0.4347	-0.021
Mof_H 	H 	0.6576	0.9549	0.1479	-0.02
Mof_H 	H 	0.6534	0.9577	0.2525	0.074
Mof_H 	H 	0.8526	0.0161	0.1735	0.074
Mof_H 	H 	0.8549	0.0099	0.0705	-0.023
Mof_H 	H 	0.7343	0.4217	0.1209	-0.021
Mof_H 	H 	0.6294	0.4275	0.2255	0.071
Mof_H 	H 	0.4662	0.5879	0.1685	0.073
Mof_H 	H 	0.5742	0.5791	0.0653	-0.021
Mof_H 	H 	0.2604	0.5451	0.3521	-0.02
Mof_H 	H 	0.3636	0.5423	0.2475	0.074
Mof_H 	H 	0.5422	0.4839	0.3265	0.074
Mof_H 	H 	0.4353	0.4901	0.4295	-0.023
Mof_H 	H 	0.7657	0.8791	0.5783	-0.021
Mof_H 	H 	0.8706	0.7745	0.5725	0.071
Mof_H 	H 	0.0338	0.8315	0.4121	0.073
Mof_H 	H 	0.9258	0.9347	0.4209	-0.021
Mof_H 	H 	0.2396	0.6479	0.4549	-0.02
Mof_H 	H 	0.1364	0.7525	0.4577	0.074
Mof_H 	H 	0.9578	0.6735	0.5161	0.074
Mof_H 	H 	0.0647	0.5705	0.5099	-0.023
Mof_H 	H 	0.7231	0.6209	0.9217	-0.021
Mof_H 	H 	0.7176	0.7255	0.9275	0.071
Mof_H 	H 	0.7774	0.6685	0.0879	0.073
Mof_H 	H 	0.7814	0.5653	0.0791	-0.021
Mof_H 	H 	0.8424	0.8521	0.0451	-0.02
Mof_H 	H 	0.8466	0.7475	0.0423	0.073
Mof_H 	H 	0.6474	0.8265	0.9839	0.074
Mof_H 	H 	0.6451	0.9295	0.9901	-0.023
Mof_C 	C 	0.36458	0.36921	0.45563	0.073
Mof_C 	C 	0.42448	0.30645	0.45859	-0.137
Mof_C 	C 	0.45667	0.29163	0.50903	0.052
Mof_C 	C 	0.42615	0.34013	0.55357	-0.139
Mof_C 	C 	0.36612	0.40217	0.54839	0.074
Mof_C 	C 	0.6498	0.15321	0.53219	0.077
Mof_C 	C 	0.58948	0.21615	0.53089	-0.144
Mof_C 	C 	0.52214	0.22452	0.5124	0.06
Mof_C 	C 	0.5183	0.16936	0.49664	-0.145
Mof_C 	C 	0.57964	0.10761	0.49951	0.079
Mof_C 	C 	0.68942	0.13079	0.04437	0.073
Mof_C 	C 	0.68952	0.19355	0.04141	-0.137
Mof_C 	C 	0.75733	0.20837	0.99097	0.052
Mof_C 	C 	0.81985	0.15987	0.94643	-0.139
Mof_C 	C 	0.81668	0.09783	0.95161	0.074
Mof_C 	C 	0.8352	0.34679	0.96781	0.077
Mof_C 	C 	0.83652	0.28385	0.96911	-0.144
Mof_C 	C 	0.75906	0.27548	0.9876	0.06
Mof_C 	C 	0.6843	0.33064	0.00336	-0.145
Mof_C 	C 	0.68676	0.39239	0.00049	0.079
Mof_C 	C 	0.81058	0.95563	0.86921	0.073
Mof_C 	C 	0.81048	0.95859	0.80645	-0.136
Mof_C 	C 	0.74267	0.00903	0.79163	0.052
Mof_C 	C 	0.68015	0.05357	0.84013	-0.139
Mof_C 	C 	0.68332	0.04839	0.90217	0.074
Mof_C 	C 	0.6648	0.03219	0.65321	0.076
Mof_C 	C 	0.66348	0.03089	0.71615	-0.144
Mof_C 	C 	0.74094	0.0124	0.72452	0.059
Mof_C 	C 	0.8157	0.99664	0.66936	-0.145
Mof_C 	C 	0.81324	0.99951	0.60761	0.079
Mof_C 	C 	0.13542	0.54437	0.63079	0.073
Mof_C 	C 	0.07552	0.54141	0.69355	-0.137
Mof_C 	C 	0.04333	0.49097	0.70837	0.052
Mof_C 	C 	0.07385	0.44643	0.65987	-0.139
Mof_C 	C 	0.13388	0.45161	0.59783	0.074
Mof_C 	C 	0.8502	0.46781	0.84679	0.076
Mof_C 	C 	0.91052	0.46911	0.78385	-0.144
Mof_C 	C 	0.97786	0.4876	0.77548	0.059
Mof_C 	C 	0.9817	0.50336	0.83064	-0.145
Mof_C 	C 	0.92036	0.50049	0.89239	0.078
Mof_C 	C 	0.76621	0.04437	0.36921	0.073
Mof_C 	C 	0.76907	0.04141	0.30645	-0.137
Mof_C 	C 	0.7517	0.99097	0.29163	0.052
Mof_C 	C 	0.73372	0.94643	0.34013	-0.139
Mof_C 	C 	0.73171	0.95161	0.40217	0.074
Mof_C 	C 	0.69699	0.96781	0.15321	0.077
Mof_C 	C 	0.69437	0.96911	0.21615	-0.144
Mof_C 	C 	0.75334	0.9876	0.22452	0.06
Mof_C 	C 	0.81234	0.00336	0.16936	-0.145
Mof_C 	C 	0.81275	0.00049	0.10761	0.079
Mof_C 	C 	0.67979	0.45563	0.13079	0.073
Mof_C 	C 	0.61693	0.45859	0.19355	-0.137
Mof_C 	C 	0.5343	0.50903	0.20837	0.052
Mof_C 	C 	0.52028	0.55357	0.15987	-0.139
Mof_C 	C 	0.58549	0.54839	0.09783	0.074
Mof_C 	C 	0.31801	0.53219	0.34679	0.077
Mof_C 	C 	0.37963	0.53089	0.28385	-0.144
Mof_C 	C 	0.46546	0.5124	0.27548	0.06
Mof_C 	C 	0.48506	0.49664	0.33064	-0.145
Mof_C 	C 	0.42085	0.49951	0.39239	0.079
Mof_C 	C 	0.82021	0.86921	0.54437	0.073
Mof_C 	C 	0.88307	0.80645	0.54141	-0.136
Mof_C 	C 	0.9657	0.79163	0.49097	0.052
Mof_C 	C 	0.97972	0.84013	0.44643	-0.139
Mof_C 	C 	0.91451	0.90217	0.45161	0.074
Mof_C 	C 	0.18199	0.65321	0.46781	0.077
Mof_C 	C 	0.12037	0.71615	0.46911	-0.144
Mof_C 	C 	0.03454	0.72452	0.4876	0.06
Mof_C 	C 	0.01494	0.66936	0.50336	-0.146
Mof_C 	C 	0.07915	0.60761	0.50049	0.079
Mof_C 	C 	0.73379	0.63079	0.95563	0.073
Mof_C 	C 	0.73093	0.69355	0.95859	-0.136
Mof_C 	C 	0.7483	0.70837	0.00903	0.052
Mof_C 	C 	0.76628	0.65987	0.05357	-0.139
Mof_C 	C 	0.76829	0.59783	0.04839	0.074
Mof_C 	C 	0.80301	0.84679	0.03219	0.076
Mof_C 	C 	0.80563	0.78385	0.03089	-0.144
Mof_C 	C 	0.74666	0.77548	0.0124	0.059
Mof_C 	C 	0.68766	0.83064	0.99664	-0.145
Mof_C 	C 	0.68725	0.89239	0.99951	0.079
Mof_N 	N 	0.33509	0.41651	0.50011	-0.237
Mof_N 	N 	0.64618	0.09953	0.51551	-0.242
Mof_N 	N 	0.75171	0.08349	0.99989	-0.237
Mof_N 	N 	0.76122	0.40047	0.98449	-0.242
Mof_N 	N 	0.74829	0.00011	0.91651	-0.237
Mof_N 	N 	0.73878	0.01551	0.59953	-0.242
Mof_N 	N 	0.16491	0.49989	0.58349	-0.237
Mof_N 	N 	0.85382	0.48449	0.90047	-0.242
Mof_N 	N 	0.7484	0.99989	0.41651	-0.237
Mof_N 	N 	0.75429	0.98449	0.09953	-0.242
Mof_N 	N 	0.6648	0.50011	0.08349	-0.237
Mof_N 	N 	0.33831	0.51551	0.40047	-0.242
Mof_N 	N 	0.8352	0.91651	0.49989	-0.237
Mof_N 	N 	0.16169	0.59953	0.48449	-0.242
Mof_N 	N 	0.7516	0.58349	0.00011	-0.237
Mof_N 	N 	0.74571	0.90047	0.01551	-0.242
_end
