# CIF file generated by openbabel 3.1.0, see https://openbabel.org
data_I
_chemical_name_common 'SABVOH_manual'
_cell_length_a 17.129
_cell_length_b 6.6284
_cell_length_c 12.1816
_cell_angle_alpha 90
_cell_angle_beta 90
_cell_angle_gamma 90
_space_group_name_H-M_alt 'P 1'
_space_group_name_Hall 'P 1'
loop_
    _symmetry_equiv_pos_as_xyz
    x,y,z
loop_
    _atom_site_label
    _atom_site_type_symbol
    _atom_site_fract_x
    _atom_site_fract_y
    _atom_site_fract_z
    _atom_site_occupancy
    O1       O        0.08295    0.92756    0.08189    1.000
    O2       O        0.43312    0.92799    0.39387    1.000
    C3       C        0.22872    0.93670    0.19502    1.000
    C4       C        0.29944    0.93681    0.25417    1.000
    H5       H        0.20344    0.07928    0.17100    1.000
    H6       H        0.32573    0.07955    0.27542    1.000
    O7       O        0.41958    0.08310    0.57835    1.000
    O8       O        0.07025    0.08486    0.89497    1.000
    C9       C        0.27318    0.07140    0.69256    1.000
    C10      C        0.20192    0.07178    0.75098    1.000
    H11      H        0.29906    0.92886    0.67006    1.000
    H12      H        0.17610    0.92868    0.77357    1.000
    O13      O        0.91868    0.42746    0.91654    1.000
    O14      O        0.56964    0.42801    0.60310    1.000
    C15      C        0.77142    0.43670    0.80673    1.000
    C16      C        0.70082    0.43685    0.74719    1.000
    H17      H        0.79674    0.57957    0.83025    1.000
    H18      H        0.67486    0.57972    0.72493    1.000
    O19      O        0.58352    0.58315    0.41688    1.000
    O20      O        0.93250    0.58439    0.09914    1.000
    C21      C        0.72987    0.57114    0.30225    1.000
    C22      C        0.80087    0.57158    0.24361    1.000
    H23      H        0.70477    0.42860    0.32652    1.000
    H24      H        0.82731    0.42877    0.22221    1.000
    O25      O        0.91829    0.08423    0.91904    1.000
    O26      O        0.57171    0.08591    0.59858    1.000
    C27      C        0.77155    0.07344    0.80614    1.000
    C28      C        0.70097    0.07362    0.74645    1.000
    H29      H        0.79709    0.93047    0.82929    1.000
    H30      H        0.67514    0.93071    0.72384    1.000
    O31      O        0.58293    0.92635    0.41246    1.000
    O32      O        0.93337    0.92749    0.10242    1.000
    C33      C        0.72994    0.93450    0.30253    1.000
    C34      C        0.80090    0.93487    0.24420    1.000
    H35      H        0.70489    0.07746    0.32704    1.000
    H36      H        0.82734    0.07745    0.22321    1.000
    O37      O        0.08348    0.58500    0.07900    1.000
    O38      O        0.43136    0.58522    0.39797    1.000
    C39      C        0.22857    0.57340    0.19548    1.000
    C40      C        0.29926    0.57338    0.25488    1.000
    H41      H        0.20314    0.43077    0.17175    1.000
    H42      H        0.32534    0.43037    0.27655    1.000
    O43      O        0.41998    0.42618    0.58233    1.000
    O44      O        0.06916    0.42744    0.89141    1.000
    C45      C        0.27313    0.43452    0.69225    1.000
    C46      C        0.20191    0.43507    0.75039    1.000
    H47      H        0.29897    0.57742    0.66955    1.000
    H48      H        0.17617    0.57802    0.77264    1.000
    Al49     Al       0.00184    0.00815    0.99891    1.000
    Al50     Al       0.50246    0.00700    0.49631    1.000
    Al51     Al       0.00180    0.50804    0.99628    1.000
    Al52     Al       0.50149    0.50826    0.49995    1.000
    O53      O        0.00033    0.75904    0.93824    1.000
    C54      C        0.40499    0.75581    0.36276    1.000
    C55      C        0.11410    0.75578    0.10647    1.000
    C56      C        0.33504    0.75518    0.28738    1.000
    C57      C        0.19073    0.75512    0.16757    1.000
    O58      O        0.50752    0.25915    0.43997    1.000
    C59      C        0.09648    0.25525    0.85941    1.000
    C60      C        0.38857    0.25366    0.60574    1.000
    C61      C        0.16579    0.25390    0.78301    1.000
    C62      C        0.31116    0.25317    0.66510    1.000
    O63      O        0.00901    0.25908    0.05589    1.000
    C64      C        0.59727    0.25599    0.63482    1.000
    C65      C        0.88710    0.25546    0.89295    1.000
    C66      C        0.66547    0.25545    0.71300    1.000
    C67      C        0.80956    0.25497    0.83393    1.000
    O68      O        0.50121    0.75932    0.55804    1.000
    C69      C        0.90602    0.75505    0.13439    1.000
    C70      C        0.61417    0.75373    0.38894    1.000
    C71      C        0.83658    0.75367    0.21089    1.000
    C72      C        0.69136    0.75312    0.32891    1.000
    H73      H        0.51416    0.26019    0.36979    1.000
    H74      H        0.50215    0.76047    0.62887    1.000
    H75      H        0.01841    0.26004    0.12543    1.000
    H76      H        0.99965    0.76007    0.86745    1.000
