# CIF file generated by openbabel 3.1.0, see https://openbabel.org
data_I
_chemical_name_common 'image0'
_cell_length_a 25.8592
_cell_length_b 25.8592
_cell_length_c 6.2696
_cell_angle_alpha 90
_cell_angle_beta 90
_cell_angle_gamma 120
_space_group_name_H-M_alt 'P 1'
_space_group_name_Hall 'P 1'
loop_
    _symmetry_equiv_pos_as_xyz
    x,y,z
loop_
    _atom_site_label
    _atom_site_type_symbol
    _atom_site_fract_x
    _atom_site_fract_y
    _atom_site_fract_z
    _atom_site_occupancy
    Cu1      Cu       0.94590    0.62950    0.98600    1.000
    C1       C        0.00500    0.58730    0.71000    1.000
    C2       C        0.02230    0.50190    0.79200    1.000
    C3       C        0.00720    0.54320    0.85600    1.000
    C4       C        0.98760    0.54510    0.07200    1.000
    H1       H        0.03490    0.50700    0.63400    1.000
    O1       O        0.03870    0.59770    0.54900    1.000
    O2       O        0.98160    0.61710    0.73800    1.000
    O3       O        0.97000    0.58300    0.15200    1.000
    Cu2      Cu       0.61257    0.96283    0.31933    1.000
    C5       C        0.67167    0.92063    0.04333    1.000
    C6       C        0.68897    0.83523    0.12533    1.000
    C7       C        0.67387    0.87653    0.18933    1.000
    C8       C        0.65427    0.87843    0.40533    1.000
    H2       H        0.70157    0.84033    0.96733    1.000
    O4       O        0.70537    0.93103    0.88233    1.000
    O5       O        0.64827    0.95043    0.07133    1.000
    O6       O        0.63667    0.91633    0.48533    1.000
    Cu3      Cu       0.27923    0.29617    0.65267    1.000
    C9       C        0.33833    0.25397    0.37667    1.000
    C10      C        0.35563    0.16857    0.45867    1.000
    C11      C        0.34053    0.20987    0.52267    1.000
    C12      C        0.32093    0.21177    0.73867    1.000
    H3       H        0.36823    0.17367    0.30067    1.000
    O7       O        0.37203    0.26437    0.21567    1.000
    O8       O        0.31493    0.28377    0.40467    1.000
    O9       O        0.30333    0.24967    0.81867    1.000
    Cu4      Cu       0.37050    0.31640    0.98600    1.000
    C13      C        0.41270    0.41770    0.71000    1.000
    C14      C        0.49810    0.52040    0.79200    1.000
    C15      C        0.45680    0.46400    0.85600    1.000
    C16      C        0.45490    0.44250    0.07200    1.000
    H4       H        0.49300    0.52790    0.63400    1.000
    O10      O        0.40230    0.44100    0.54900    1.000
    O11      O        0.38290    0.36450    0.73800    1.000
    O12      O        0.41700    0.38700    0.15200    1.000
    Cu5      Cu       0.03717    0.64973    0.31933    1.000
    C17      C        0.07937    0.75103    0.04333    1.000
    C18      C        0.16477    0.85373    0.12533    1.000
    C19      C        0.12347    0.79733    0.18933    1.000
    C20      C        0.12157    0.77583    0.40533    1.000
    H5       H        0.15967    0.86123    0.96733    1.000
    O13      O        0.06897    0.77433    0.88233    1.000
    O14      O        0.04957    0.69783    0.07133    1.000
    O15      O        0.08367    0.72033    0.48533    1.000
    Cu6      Cu       0.70383    0.98307    0.65267    1.000
    C21      C        0.74603    0.08437    0.37667    1.000
    C22      C        0.83143    0.18707    0.45867    1.000
    C23      C        0.79013    0.13067    0.52267    1.000
    C24      C        0.78823    0.10917    0.73867    1.000
    H6       H        0.82633    0.19457    0.30067    1.000
    O16      O        0.73563    0.10767    0.21567    1.000
    O17      O        0.71623    0.03117    0.40467    1.000
    O18      O        0.75033    0.05367    0.81867    1.000
    Cu7      Cu       0.68360    0.05410    0.98600    1.000
    C25      C        0.58230    0.99500    0.71000    1.000
    C26      C        0.47960    0.97770    0.79200    1.000
    C27      C        0.53600    0.99280    0.85600    1.000
    C28      C        0.55750    0.01240    0.07200    1.000
    H7       H        0.47210    0.96510    0.63400    1.000
    O19      O        0.55900    0.96130    0.54900    1.000
    O20      O        0.63550    0.01840    0.73800    1.000
    O21      O        0.61300    0.03000    0.15200    1.000
    Cu8      Cu       0.35027    0.38743    0.31933    1.000
    C29      C        0.24897    0.32833    0.04333    1.000
    C30      C        0.14627    0.31103    0.12533    1.000
    C31      C        0.20267    0.32613    0.18933    1.000
    C32      C        0.22417    0.34573    0.40533    1.000
    H8       H        0.13877    0.29843    0.96733    1.000
    O22      O        0.22567    0.29463    0.88233    1.000
    O23      O        0.30217    0.35173    0.07133    1.000
    O24      O        0.27967    0.36333    0.48533    1.000
    Cu9      Cu       0.01693    0.72077    0.65267    1.000
    C33      C        0.91563    0.66167    0.37667    1.000
    C34      C        0.81293    0.64437    0.45867    1.000
    C35      C        0.86933    0.65947    0.52267    1.000
    C36      C        0.89083    0.67907    0.73867    1.000
    H9       H        0.80543    0.63177    0.30067    1.000
    O25      O        0.89233    0.62797    0.21567    1.000
    O26      O        0.96883    0.68507    0.40467    1.000
    O27      O        0.94633    0.69667    0.81867    1.000
    Cu10     Cu       0.05410    0.37050    0.01400    1.000
    C37      C        0.99500    0.41270    0.29000    1.000
    C38      C        0.97770    0.49810    0.20800    1.000
    C39      C        0.99280    0.45680    0.14400    1.000
    C40      C        0.01240    0.45490    0.92800    1.000
    H10      H        0.96510    0.49300    0.36600    1.000
    O28      O        0.96130    0.40230    0.45100    1.000
    O29      O        0.01840    0.38290    0.26200    1.000
    O30      O        0.03000    0.41700    0.84800    1.000
    Cu11     Cu       0.72077    0.70383    0.34733    1.000
    C41      C        0.66167    0.74603    0.62333    1.000
    C42      C        0.64437    0.83143    0.54133    1.000
    C43      C        0.65947    0.79013    0.47733    1.000
    C44      C        0.67907    0.78823    0.26133    1.000
    H11      H        0.63177    0.82633    0.69933    1.000
    O31      O        0.62797    0.73563    0.78433    1.000
    O32      O        0.68507    0.71623    0.59533    1.000
    O33      O        0.69667    0.75033    0.18133    1.000
    Cu12     Cu       0.38743    0.03717    0.68067    1.000
    C45      C        0.32833    0.07937    0.95667    1.000
    C46      C        0.31103    0.16477    0.87467    1.000
    C47      C        0.32613    0.12347    0.81067    1.000
    C48      C        0.34573    0.12157    0.59467    1.000
    H12      H        0.29843    0.15967    0.03267    1.000
    O34      O        0.29463    0.06897    0.11767    1.000
    O35      O        0.35173    0.04957    0.92867    1.000
    O36      O        0.36333    0.08367    0.51467    1.000
    Cu13     Cu       0.62950    0.68360    0.01400    1.000
    C49      C        0.58730    0.58230    0.29000    1.000
    C50      C        0.50190    0.47960    0.20800    1.000
    C51      C        0.54320    0.53600    0.14400    1.000
    C52      C        0.54510    0.55750    0.92800    1.000
    H13      H        0.50700    0.47210    0.36600    1.000
    O37      O        0.59770    0.55900    0.45100    1.000
    O38      O        0.61710    0.63550    0.26200    1.000
    O39      O        0.58300    0.61300    0.84800    1.000
    Cu14     Cu       0.29617    0.01693    0.34733    1.000
    C53      C        0.25397    0.91563    0.62333    1.000
    C54      C        0.16857    0.81293    0.54133    1.000
    C55      C        0.20987    0.86933    0.47733    1.000
    C56      C        0.21177    0.89083    0.26133    1.000
    H14      H        0.17367    0.80543    0.69933    1.000
    O40      O        0.26437    0.89233    0.78433    1.000
    O41      O        0.28377    0.96883    0.59533    1.000
    O42      O        0.24967    0.94633    0.18133    1.000
    Cu15     Cu       0.96283    0.35027    0.68067    1.000
    C57      C        0.92063    0.24897    0.95667    1.000
    C58      C        0.83523    0.14627    0.87467    1.000
    C59      C        0.87653    0.20267    0.81067    1.000
    C60      C        0.87843    0.22417    0.59467    1.000
    H15      H        0.84033    0.13877    0.03267    1.000
    O43      O        0.93103    0.22567    0.11767    1.000
    O44      O        0.95043    0.30217    0.92867    1.000
    O45      O        0.91633    0.27967    0.51467    1.000
    Cu16     Cu       0.31640    0.94590    0.01400    1.000
    C61      C        0.41770    0.00500    0.29000    1.000
    C62      C        0.52040    0.02230    0.20800    1.000
    C63      C        0.46400    0.00720    0.14400    1.000
    C64      C        0.44250    0.98760    0.92800    1.000
    H16      H        0.52790    0.03490    0.36600    1.000
    O46      O        0.44100    0.03870    0.45100    1.000
    O47      O        0.36450    0.98160    0.26200    1.000
    O48      O        0.38700    0.97000    0.84800    1.000
    Cu17     Cu       0.98307    0.27923    0.34733    1.000
    C65      C        0.08437    0.33833    0.62333    1.000
    C66      C        0.18707    0.35563    0.54133    1.000
    C67      C        0.13067    0.34053    0.47733    1.000
    C68      C        0.10917    0.32093    0.26133    1.000
    H17      H        0.19457    0.36823    0.69933    1.000
    O49      O        0.10767    0.37203    0.78433    1.000
    O50      O        0.03117    0.31493    0.59533    1.000
    O51      O        0.05367    0.30333    0.18133    1.000
    Cu18     Cu       0.64973    0.61257    0.68067    1.000
    C69      C        0.75103    0.67167    0.95667    1.000
    C70      C        0.85373    0.68897    0.87467    1.000
    C71      C        0.79733    0.67387    0.81067    1.000
    C72      C        0.77583    0.65427    0.59467    1.000
    H18      H        0.86123    0.70157    0.03267    1.000
    O52      O        0.77433    0.70537    0.11767    1.000
    O53      O        0.69783    0.64827    0.92867    1.000
    O54      O        0.72033    0.63667    0.51467    1.000
