data_functionalizedCrystal
_audit_creation_method	'EQeq! by Chris Wilmer'
_symmetry_space_group_name_H-M	'P1'
_symmetry_Int_Tables_number	1
_symmetry_cell_setting	triclinic
loop_
_symmetry_equiv_pos_as_xyz
  x,y,z
_cell_length_a	31.251
_cell_length_b	31.251
_cell_length_c	31.251
_cell_angle_alpha	90
_cell_angle_beta	90
_cell_angle_gamma	90
loop_
_atom_site_label
_atom_site_type_symbol
_atom_site_fract_x
_atom_site_fract_y
_atom_site_fract_z
_atom_site_charge
Mof_N 	N 	0.33462	0.61375	0.29859	-0.407
Mof_N 	N 	0.44593	0.57048	0.22146	-0.37
Mof_N 	N 	0.29777	0.75901	0.32997	-0.405
Mof_N 	N 	0.33125	0.832	0.44621	-0.375
Mof_C 	C 	0.34415	0.57935	0.29133	0.086
Mof_C 	C 	0.4214	0.54906	0.23794	0.054
Mof_C 	C 	0.28377	0.79108	0.34019	0.074
Mof_C 	C 	0.30618	0.84184	0.42137	0.057
Mof_C 	C 	0.35595	0.53621	0.28273	-0.071
Mof_C 	C 	0.39108	0.52226	0.25901	-0.058
Mof_C 	C 	0.26577	0.83056	0.3528	-0.066
Mof_C 	C 	0.27563	0.85359	0.38993	-0.062
Mof_N 	N 	0.66538	0.38625	0.29859	-0.406
Mof_N 	N 	0.55407	0.42952	0.22146	-0.369
Mof_N 	N 	0.70223	0.24099	0.32997	-0.404
Mof_N 	N 	0.66875	0.168	0.44621	-0.374
Mof_C 	C 	0.65585	0.42065	0.29133	0.086
Mof_C 	C 	0.5786	0.45094	0.23794	0.054
Mof_C 	C 	0.71623	0.20892	0.34019	0.073
Mof_C 	C 	0.69382	0.15816	0.42137	0.052
Mof_C 	C 	0.64405	0.46379	0.28273	-0.071
Mof_C 	C 	0.60892	0.47774	0.25901	-0.058
Mof_C 	C 	0.73423	0.16944	0.3528	-0.068
Mof_C 	C 	0.72437	0.14641	0.38993	-0.063
Mof_N 	N 	0.66538	0.61375	0.70141	-0.406
Mof_N 	N 	0.55407	0.57048	0.77854	-0.369
Mof_N 	N 	0.70223	0.75901	0.67003	-0.404
Mof_N 	N 	0.66875	0.832	0.55379	-0.374
Mof_C 	C 	0.65585	0.57935	0.70867	0.086
Mof_C 	C 	0.5786	0.54906	0.76206	0.057
Mof_C 	C 	0.71623	0.79108	0.65981	0.075
Mof_C 	C 	0.69382	0.84184	0.57863	0.058
Mof_C 	C 	0.64405	0.53621	0.71727	-0.07
Mof_C 	C 	0.60892	0.52226	0.74099	-0.057
Mof_C 	C 	0.73423	0.83056	0.6472	-0.066
Mof_C 	C 	0.72437	0.85359	0.61007	-0.062
Mof_N 	N 	0.33462	0.38625	0.70141	-0.405
Mof_N 	N 	0.44593	0.42952	0.77854	-0.369
Mof_N 	N 	0.29777	0.24099	0.67003	-0.405
Mof_N 	N 	0.33125	0.168	0.55379	-0.374
Mof_C 	C 	0.34415	0.42065	0.70867	0.087
Mof_C 	C 	0.4214	0.45094	0.76206	0.057
Mof_C 	C 	0.28377	0.20892	0.65981	0.072
Mof_C 	C 	0.30618	0.15816	0.57863	0.052
Mof_C 	C 	0.35595	0.46379	0.71727	-0.07
Mof_C 	C 	0.39108	0.47774	0.74099	-0.057
Mof_C 	C 	0.26577	0.16944	0.6472	-0.068
Mof_C 	C 	0.27563	0.14641	0.61007	-0.064
Mof_N 	N 	0.29859	0.33462	0.61375	-0.406
Mof_N 	N 	0.22146	0.44593	0.57048	-0.369
Mof_N 	N 	0.32997	0.29777	0.75901	-0.404
Mof_N 	N 	0.44621	0.33125	0.832	-0.374
Mof_C 	C 	0.29133	0.34415	0.57935	0.086
Mof_C 	C 	0.23794	0.4214	0.54906	0.054
Mof_C 	C 	0.34019	0.28377	0.79108	0.074
Mof_C 	C 	0.42137	0.30618	0.84184	0.057
Mof_C 	C 	0.28273	0.35595	0.53621	-0.071
Mof_C 	C 	0.25901	0.39108	0.52226	-0.058
Mof_C 	C 	0.3528	0.26577	0.83056	-0.066
Mof_C 	C 	0.38993	0.27563	0.85359	-0.062
Mof_N 	N 	0.29859	0.66538	0.38625	-0.406
Mof_N 	N 	0.22146	0.55407	0.42952	-0.369
Mof_N 	N 	0.32997	0.70223	0.24099	-0.404
Mof_N 	N 	0.44621	0.66875	0.168	-0.374
Mof_C 	C 	0.29133	0.65585	0.42065	0.086
Mof_C 	C 	0.23794	0.5786	0.45094	0.054
Mof_C 	C 	0.34019	0.71623	0.20892	0.073
Mof_C 	C 	0.42137	0.69382	0.15816	0.052
Mof_C 	C 	0.28273	0.64405	0.46379	-0.071
Mof_C 	C 	0.25901	0.60892	0.47774	-0.058
Mof_C 	C 	0.3528	0.73423	0.16944	-0.068
Mof_C 	C 	0.38993	0.72437	0.14641	-0.063
Mof_N 	N 	0.70141	0.66538	0.61375	-0.406
Mof_N 	N 	0.77854	0.55407	0.57048	-0.369
Mof_N 	N 	0.67003	0.70223	0.75901	-0.404
Mof_N 	N 	0.55379	0.66875	0.832	-0.374
Mof_C 	C 	0.70867	0.65585	0.57935	0.086
Mof_C 	C 	0.76206	0.5786	0.54906	0.057
Mof_C 	C 	0.65981	0.71623	0.79108	0.075
Mof_C 	C 	0.57863	0.69382	0.84184	0.058
Mof_C 	C 	0.71727	0.64405	0.53621	-0.07
Mof_C 	C 	0.74099	0.60892	0.52226	-0.057
Mof_C 	C 	0.6472	0.73423	0.83056	-0.066
Mof_C 	C 	0.61007	0.72437	0.85359	-0.062
Mof_N 	N 	0.70141	0.33462	0.38625	-0.405
Mof_N 	N 	0.77854	0.44593	0.42952	-0.369
Mof_N 	N 	0.67003	0.29777	0.24099	-0.405
Mof_N 	N 	0.55379	0.33125	0.168	-0.374
Mof_C 	C 	0.70867	0.34415	0.42065	0.087
Mof_C 	C 	0.76206	0.4214	0.45094	0.057
Mof_C 	C 	0.65981	0.28377	0.20892	0.072
Mof_C 	C 	0.57863	0.30618	0.15816	0.052
Mof_C 	C 	0.71727	0.35595	0.46379	-0.07
Mof_C 	C 	0.74099	0.39108	0.47774	-0.057
Mof_C 	C 	0.6472	0.26577	0.16944	-0.068
Mof_C 	C 	0.61007	0.27563	0.14641	-0.064
Mof_N 	N 	0.61375	0.29859	0.33462	-0.406
Mof_N 	N 	0.57048	0.22146	0.44593	-0.369
Mof_N 	N 	0.75901	0.32997	0.29777	-0.404
Mof_N 	N 	0.832	0.44621	0.33125	-0.374
Mof_C 	C 	0.57935	0.29133	0.34415	0.086
Mof_C 	C 	0.54906	0.23794	0.4214	0.054
Mof_C 	C 	0.79108	0.34019	0.28377	0.074
Mof_C 	C 	0.84184	0.42137	0.30618	0.057
Mof_C 	C 	0.53621	0.28273	0.35595	-0.071
Mof_C 	C 	0.52226	0.25901	0.39108	-0.058
Mof_C 	C 	0.83056	0.3528	0.26577	-0.066
Mof_C 	C 	0.85359	0.38993	0.27563	-0.062
Mof_N 	N 	0.38625	0.29859	0.66538	-0.406
Mof_N 	N 	0.42952	0.22146	0.55407	-0.369
Mof_N 	N 	0.24099	0.32997	0.70223	-0.404
Mof_N 	N 	0.168	0.44621	0.66875	-0.374
Mof_C 	C 	0.42065	0.29133	0.65585	0.086
Mof_C 	C 	0.45094	0.23794	0.5786	0.054
Mof_C 	C 	0.20892	0.34019	0.71623	0.073
Mof_C 	C 	0.15816	0.42137	0.69382	0.052
Mof_C 	C 	0.46379	0.28273	0.64405	-0.071
Mof_C 	C 	0.47774	0.25901	0.60892	-0.058
Mof_C 	C 	0.16944	0.3528	0.73423	-0.068
Mof_C 	C 	0.14641	0.38993	0.72437	-0.063
Mof_N 	N 	0.61375	0.70141	0.66538	-0.406
Mof_N 	N 	0.57048	0.77854	0.55407	-0.369
Mof_N 	N 	0.75901	0.67003	0.70223	-0.404
Mof_N 	N 	0.832	0.55379	0.66875	-0.374
Mof_C 	C 	0.57935	0.70867	0.65585	0.086
Mof_C 	C 	0.54906	0.76206	0.5786	0.057
Mof_C 	C 	0.79108	0.65981	0.71623	0.075
Mof_C 	C 	0.84184	0.57863	0.69382	0.058
Mof_C 	C 	0.53621	0.71727	0.64405	-0.07
Mof_C 	C 	0.52226	0.74099	0.60892	-0.057
Mof_C 	C 	0.83056	0.6472	0.73423	-0.066
Mof_C 	C 	0.85359	0.61007	0.72437	-0.062
Mof_N 	N 	0.38625	0.70141	0.33462	-0.405
Mof_N 	N 	0.42952	0.77854	0.44593	-0.369
Mof_N 	N 	0.24099	0.67003	0.29777	-0.405
Mof_N 	N 	0.168	0.55379	0.33125	-0.374
Mof_C 	C 	0.42065	0.70867	0.34415	0.087
Mof_C 	C 	0.45094	0.76206	0.4214	0.057
Mof_C 	C 	0.20892	0.65981	0.28377	0.072
Mof_C 	C 	0.15816	0.57863	0.30618	0.052
Mof_C 	C 	0.46379	0.71727	0.35595	-0.07
Mof_C 	C 	0.47774	0.74099	0.39108	-0.057
Mof_C 	C 	0.16944	0.6472	0.26577	-0.068
Mof_C 	C 	0.14641	0.61007	0.27563	-0.064
Mof_N 	N 	0.11375	0.83462	0.20141	-0.402
Mof_N 	N 	0.07048	0.94593	0.27854	-0.353
Mof_N 	N 	0.25901	0.79777	0.17003	-0.404
Mof_N 	N 	0.332	0.83125	0.05379	-0.37
Mof_C 	C 	0.07935	0.84415	0.20867	0.079
Mof_C 	C 	0.04906	0.9214	0.26206	0.065
Mof_C 	C 	0.29108	0.78377	0.15981	0.074
Mof_C 	C 	0.34184	0.80618	0.07863	0.051
Mof_C 	C 	0.03621	0.85595	0.21727	-0.049
Mof_C 	C 	0.02226	0.89108	0.24099	-0.1
Mof_C 	C 	0.33056	0.76577	0.1472	-0.068
Mof_C 	C 	0.35359	0.77563	0.11007	-0.062
Mof_N 	N 	0.88625	0.16538	0.20141	-0.402
Mof_N 	N 	0.92952	0.05407	0.27854	-0.36
Mof_N 	N 	0.74099	0.20223	0.17003	-0.405
Mof_N 	N 	0.668	0.16875	0.05379	-0.368
Mof_C 	C 	0.92065	0.15585	0.20867	0.085
Mof_C 	C 	0.95094	0.0786	0.26206	0.052
Mof_C 	C 	0.70892	0.21623	0.15981	0.073
Mof_C 	C 	0.65816	0.19382	0.07863	0.047
Mof_C 	C 	0.96379	0.14405	0.21727	-0.038
Mof_C 	C 	0.97774	0.10892	0.24099	-0.022
Mof_C 	C 	0.66944	0.23423	0.1472	-0.069
Mof_C 	C 	0.64641	0.22437	0.11007	-0.063
Mof_N 	N 	0.11375	0.16538	0.79859	-0.403
Mof_N 	N 	0.07048	0.05407	0.72146	-0.369
Mof_N 	N 	0.25901	0.20223	0.82997	-0.404
Mof_N 	N 	0.332	0.16875	0.94621	-0.352
Mof_C 	C 	0.07935	0.15585	0.79133	0.076
Mof_C 	C 	0.04906	0.0786	0.73794	0.055
Mof_C 	C 	0.29108	0.21623	0.84019	0.077
Mof_C 	C 	0.34184	0.19382	0.92137	0.059
Mof_C 	C 	0.03621	0.14405	0.78273	-0.049
Mof_C 	C 	0.02226	0.10892	0.75901	-0.104
Mof_C 	C 	0.33056	0.23423	0.8528	-0.067
Mof_C 	C 	0.35359	0.22437	0.88993	-0.059
Mof_N 	N 	0.88625	0.83462	0.79859	-0.402
Mof_N 	N 	0.92952	0.94593	0.72146	-0.344
Mof_N 	N 	0.74099	0.79777	0.82997	-0.405
Mof_N 	N 	0.668	0.83125	0.94621	-0.354
Mof_C 	C 	0.92065	0.84415	0.79133	0.092
Mof_C 	C 	0.95094	0.9214	0.73794	0.064
Mof_C 	C 	0.70892	0.78377	0.84019	0.078
Mof_C 	C 	0.65816	0.80618	0.92137	0.062
Mof_C 	C 	0.96379	0.85595	0.78273	-0.036
Mof_C 	C 	0.97774	0.89108	0.75901	-0.017
Mof_C 	C 	0.66944	0.76577	0.8528	-0.067
Mof_C 	C 	0.64641	0.77563	0.88993	-0.058
Mof_N 	N 	0.83462	0.79859	0.88625	-0.402
Mof_N 	N 	0.94593	0.72146	0.92952	-0.344
Mof_N 	N 	0.79777	0.82997	0.74099	-0.405
Mof_N 	N 	0.83125	0.94621	0.668	-0.354
Mof_C 	C 	0.84415	0.79133	0.92065	0.092
Mof_C 	C 	0.9214	0.73794	0.95094	0.064
Mof_C 	C 	0.78377	0.84019	0.70892	0.078
Mof_C 	C 	0.80618	0.92137	0.65816	0.062
Mof_C 	C 	0.85595	0.78273	0.96379	-0.036
Mof_C 	C 	0.89108	0.75901	0.97774	-0.017
Mof_C 	C 	0.76577	0.8528	0.66944	-0.067
Mof_C 	C 	0.77563	0.88993	0.64641	-0.058
Mof_N 	N 	0.16538	0.79859	0.11375	-0.403
Mof_N 	N 	0.05407	0.72146	0.07048	-0.369
Mof_N 	N 	0.20223	0.82997	0.25901	-0.404
Mof_N 	N 	0.16875	0.94621	0.332	-0.352
Mof_C 	C 	0.15585	0.79133	0.07935	0.076
Mof_C 	C 	0.0786	0.73794	0.04906	0.055
Mof_C 	C 	0.21623	0.84019	0.29108	0.077
Mof_C 	C 	0.19382	0.92137	0.34184	0.059
Mof_C 	C 	0.14405	0.78273	0.03621	-0.049
Mof_C 	C 	0.10892	0.75901	0.02226	-0.104
Mof_C 	C 	0.23423	0.8528	0.33056	-0.067
Mof_C 	C 	0.22437	0.88993	0.35359	-0.059
Mof_N 	N 	0.16538	0.20141	0.88625	-0.402
Mof_N 	N 	0.05407	0.27854	0.92952	-0.36
Mof_N 	N 	0.20223	0.17003	0.74099	-0.405
Mof_N 	N 	0.16875	0.05379	0.668	-0.368
Mof_C 	C 	0.15585	0.20867	0.92065	0.085
Mof_C 	C 	0.0786	0.26206	0.95094	0.052
Mof_C 	C 	0.21623	0.15981	0.70892	0.073
Mof_C 	C 	0.19382	0.07863	0.65816	0.047
Mof_C 	C 	0.14405	0.21727	0.96379	-0.038
Mof_C 	C 	0.10892	0.24099	0.97774	-0.022
Mof_C 	C 	0.23423	0.1472	0.66944	-0.069
Mof_C 	C 	0.22437	0.11007	0.64641	-0.063
Mof_N 	N 	0.83462	0.20141	0.11375	-0.402
Mof_N 	N 	0.94593	0.27854	0.07048	-0.353
Mof_N 	N 	0.79777	0.17003	0.25901	-0.404
Mof_N 	N 	0.83125	0.05379	0.332	-0.37
Mof_C 	C 	0.84415	0.20867	0.07935	0.079
Mof_C 	C 	0.9214	0.26206	0.04906	0.065
Mof_C 	C 	0.78377	0.15981	0.29108	0.074
Mof_C 	C 	0.80618	0.07863	0.34184	0.051
Mof_C 	C 	0.85595	0.21727	0.03621	-0.049
Mof_C 	C 	0.89108	0.24099	0.02226	-0.1
Mof_C 	C 	0.76577	0.1472	0.33056	-0.068
Mof_C 	C 	0.77563	0.11007	0.35359	-0.062
Mof_N 	N 	0.79859	0.11375	0.16538	-0.403
Mof_N 	N 	0.72146	0.07048	0.05407	-0.369
Mof_N 	N 	0.82997	0.25901	0.20223	-0.404
Mof_N 	N 	0.94621	0.332	0.16875	-0.352
Mof_C 	C 	0.79133	0.07935	0.15585	0.076
Mof_C 	C 	0.73794	0.04906	0.0786	0.055
Mof_C 	C 	0.84019	0.29108	0.21623	0.077
Mof_C 	C 	0.92137	0.34184	0.19382	0.059
Mof_C 	C 	0.78273	0.03621	0.14405	-0.049
Mof_C 	C 	0.75901	0.02226	0.10892	-0.104
Mof_C 	C 	0.8528	0.33056	0.23423	-0.067
Mof_C 	C 	0.88993	0.35359	0.22437	-0.059
Mof_N 	N 	0.79859	0.88625	0.83462	-0.402
Mof_N 	N 	0.72146	0.92952	0.94593	-0.344
Mof_N 	N 	0.82997	0.74099	0.79777	-0.405
Mof_N 	N 	0.94621	0.668	0.83125	-0.354
Mof_C 	C 	0.79133	0.92065	0.84415	0.092
Mof_C 	C 	0.73794	0.95094	0.9214	0.064
Mof_C 	C 	0.84019	0.70892	0.78377	0.078
Mof_C 	C 	0.92137	0.65816	0.80618	0.062
Mof_C 	C 	0.78273	0.96379	0.85595	-0.036
Mof_C 	C 	0.75901	0.97774	0.89108	-0.017
Mof_C 	C 	0.8528	0.66944	0.76577	-0.067
Mof_C 	C 	0.88993	0.64641	0.77563	-0.058
Mof_N 	N 	0.20141	0.11375	0.83462	-0.402
Mof_N 	N 	0.27854	0.07048	0.94593	-0.353
Mof_N 	N 	0.17003	0.25901	0.79777	-0.404
Mof_N 	N 	0.05379	0.332	0.83125	-0.37
Mof_C 	C 	0.20867	0.07935	0.84415	0.079
Mof_C 	C 	0.26206	0.04906	0.9214	0.065
Mof_C 	C 	0.15981	0.29108	0.78377	0.074
Mof_C 	C 	0.07863	0.34184	0.80618	0.051
Mof_C 	C 	0.21727	0.03621	0.85595	-0.049
Mof_C 	C 	0.24099	0.02226	0.89108	-0.1
Mof_C 	C 	0.1472	0.33056	0.76577	-0.068
Mof_C 	C 	0.11007	0.35359	0.77563	-0.062
Mof_N 	N 	0.20141	0.88625	0.16538	-0.402
Mof_N 	N 	0.27854	0.92952	0.05407	-0.36
Mof_N 	N 	0.17003	0.74099	0.20223	-0.405
Mof_N 	N 	0.05379	0.668	0.16875	-0.368
Mof_C 	C 	0.20867	0.92065	0.15585	0.085
Mof_C 	C 	0.26206	0.95094	0.0786	0.052
Mof_C 	C 	0.15981	0.70892	0.21623	0.073
Mof_C 	C 	0.07863	0.65816	0.19382	0.047
Mof_C 	C 	0.21727	0.96379	0.14405	-0.038
Mof_C 	C 	0.24099	0.97774	0.10892	-0.022
Mof_C 	C 	0.1472	0.66944	0.23423	-0.069
Mof_C 	C 	0.11007	0.64641	0.22437	-0.063
Mof_N 	N 	0.66538	0.38625	0.70141	-0.405
Mof_N 	N 	0.55407	0.42952	0.77854	-0.369
Mof_N 	N 	0.70223	0.24099	0.67003	-0.405
Mof_N 	N 	0.66875	0.168	0.55379	-0.374
Mof_C 	C 	0.65585	0.42065	0.70867	0.087
Mof_C 	C 	0.5786	0.45094	0.76206	0.057
Mof_C 	C 	0.71623	0.20892	0.65981	0.073
Mof_C 	C 	0.69382	0.15816	0.57863	0.052
Mof_C 	C 	0.64405	0.46379	0.71727	-0.07
Mof_C 	C 	0.60892	0.47774	0.74099	-0.057
Mof_C 	C 	0.73423	0.16944	0.6472	-0.068
Mof_C 	C 	0.72437	0.14641	0.61007	-0.063
Mof_N 	N 	0.33462	0.61375	0.70141	-0.405
Mof_N 	N 	0.44593	0.57048	0.77854	-0.369
Mof_N 	N 	0.29777	0.75901	0.67003	-0.404
Mof_N 	N 	0.33125	0.832	0.55379	-0.374
Mof_C 	C 	0.34415	0.57935	0.70867	0.087
Mof_C 	C 	0.4214	0.54906	0.76206	0.057
Mof_C 	C 	0.28377	0.79108	0.65981	0.074
Mof_C 	C 	0.30618	0.84184	0.57863	0.057
Mof_C 	C 	0.35595	0.53621	0.71727	-0.07
Mof_C 	C 	0.39108	0.52226	0.74099	-0.057
Mof_C 	C 	0.26577	0.83056	0.6472	-0.066
Mof_C 	C 	0.27563	0.85359	0.61007	-0.062
Mof_N 	N 	0.33462	0.38625	0.29859	-0.405
Mof_N 	N 	0.44593	0.42952	0.22146	-0.369
Mof_N 	N 	0.29777	0.24099	0.32997	-0.405
Mof_N 	N 	0.33125	0.168	0.44621	-0.374
Mof_C 	C 	0.34415	0.42065	0.29133	0.086
Mof_C 	C 	0.4214	0.45094	0.23794	0.054
Mof_C 	C 	0.28377	0.20892	0.34019	0.072
Mof_C 	C 	0.30618	0.15816	0.42137	0.052
Mof_C 	C 	0.35595	0.46379	0.28273	-0.071
Mof_C 	C 	0.39108	0.47774	0.25901	-0.058
Mof_C 	C 	0.26577	0.16944	0.3528	-0.068
Mof_C 	C 	0.27563	0.14641	0.38993	-0.064
Mof_N 	N 	0.66538	0.61375	0.29859	-0.406
Mof_N 	N 	0.55407	0.57048	0.22146	-0.369
Mof_N 	N 	0.70223	0.75901	0.32997	-0.404
Mof_N 	N 	0.66875	0.832	0.44621	-0.374
Mof_C 	C 	0.65585	0.57935	0.29133	0.086
Mof_C 	C 	0.5786	0.54906	0.23794	0.054
Mof_C 	C 	0.71623	0.79108	0.34019	0.075
Mof_C 	C 	0.69382	0.84184	0.42137	0.058
Mof_C 	C 	0.64405	0.53621	0.28273	-0.071
Mof_C 	C 	0.60892	0.52226	0.25901	-0.058
Mof_C 	C 	0.73423	0.83056	0.3528	-0.066
Mof_C 	C 	0.72437	0.85359	0.38993	-0.062
Mof_N 	N 	0.70141	0.66538	0.38625	-0.405
Mof_N 	N 	0.77854	0.55407	0.42952	-0.369
Mof_N 	N 	0.67003	0.70223	0.24099	-0.405
Mof_N 	N 	0.55379	0.66875	0.168	-0.374
Mof_C 	C 	0.70867	0.65585	0.42065	0.087
Mof_C 	C 	0.76206	0.5786	0.45094	0.057
Mof_C 	C 	0.65981	0.71623	0.20892	0.073
Mof_C 	C 	0.57863	0.69382	0.15816	0.052
Mof_C 	C 	0.71727	0.64405	0.46379	-0.07
Mof_C 	C 	0.74099	0.60892	0.47774	-0.057
Mof_C 	C 	0.6472	0.73423	0.16944	-0.068
Mof_C 	C 	0.61007	0.72437	0.14641	-0.063
Mof_N 	N 	0.70141	0.33462	0.61375	-0.405
Mof_N 	N 	0.77854	0.44593	0.57048	-0.369
Mof_N 	N 	0.67003	0.29777	0.75901	-0.404
Mof_N 	N 	0.55379	0.33125	0.832	-0.374
Mof_C 	C 	0.70867	0.34415	0.57935	0.087
Mof_C 	C 	0.76206	0.4214	0.54906	0.057
Mof_C 	C 	0.65981	0.28377	0.79108	0.074
Mof_C 	C 	0.57863	0.30618	0.84184	0.057
Mof_C 	C 	0.71727	0.35595	0.53621	-0.07
Mof_C 	C 	0.74099	0.39108	0.52226	-0.057
Mof_C 	C 	0.6472	0.26577	0.83056	-0.066
Mof_C 	C 	0.61007	0.27563	0.85359	-0.062
Mof_N 	N 	0.29859	0.33462	0.38625	-0.405
Mof_N 	N 	0.22146	0.44593	0.42952	-0.369
Mof_N 	N 	0.32997	0.29777	0.24099	-0.405
Mof_N 	N 	0.44621	0.33125	0.168	-0.374
Mof_C 	C 	0.29133	0.34415	0.42065	0.086
Mof_C 	C 	0.23794	0.4214	0.45094	0.054
Mof_C 	C 	0.34019	0.28377	0.20892	0.072
Mof_C 	C 	0.42137	0.30618	0.15816	0.052
Mof_C 	C 	0.28273	0.35595	0.46379	-0.071
Mof_C 	C 	0.25901	0.39108	0.47774	-0.058
Mof_C 	C 	0.3528	0.26577	0.16944	-0.068
Mof_C 	C 	0.38993	0.27563	0.14641	-0.064
Mof_N 	N 	0.29859	0.66538	0.61375	-0.406
Mof_N 	N 	0.22146	0.55407	0.57048	-0.369
Mof_N 	N 	0.32997	0.70223	0.75901	-0.404
Mof_N 	N 	0.44621	0.66875	0.832	-0.374
Mof_C 	C 	0.29133	0.65585	0.57935	0.086
Mof_C 	C 	0.23794	0.5786	0.54906	0.054
Mof_C 	C 	0.34019	0.71623	0.79108	0.075
Mof_C 	C 	0.42137	0.69382	0.84184	0.058
Mof_C 	C 	0.28273	0.64405	0.53621	-0.071
Mof_C 	C 	0.25901	0.60892	0.52226	-0.058
Mof_C 	C 	0.3528	0.73423	0.83056	-0.066
Mof_C 	C 	0.38993	0.72437	0.85359	-0.062
Mof_N 	N 	0.38625	0.70141	0.66538	-0.405
Mof_N 	N 	0.42952	0.77854	0.55407	-0.369
Mof_N 	N 	0.24099	0.67003	0.70223	-0.405
Mof_N 	N 	0.168	0.55379	0.66875	-0.374
Mof_C 	C 	0.42065	0.70867	0.65585	0.087
Mof_C 	C 	0.45094	0.76206	0.5786	0.057
Mof_C 	C 	0.20892	0.65981	0.71623	0.073
Mof_C 	C 	0.15816	0.57863	0.69382	0.052
Mof_C 	C 	0.46379	0.71727	0.64405	-0.07
Mof_C 	C 	0.47774	0.74099	0.60892	-0.057
Mof_C 	C 	0.16944	0.6472	0.73423	-0.068
Mof_C 	C 	0.14641	0.61007	0.72437	-0.063
Mof_N 	N 	0.61375	0.70141	0.33462	-0.405
Mof_N 	N 	0.57048	0.77854	0.44593	-0.369
Mof_N 	N 	0.75901	0.67003	0.29777	-0.404
Mof_N 	N 	0.832	0.55379	0.33125	-0.374
Mof_C 	C 	0.57935	0.70867	0.34415	0.087
Mof_C 	C 	0.54906	0.76206	0.4214	0.057
Mof_C 	C 	0.79108	0.65981	0.28377	0.074
Mof_C 	C 	0.84184	0.57863	0.30618	0.057
Mof_C 	C 	0.53621	0.71727	0.35595	-0.07
Mof_C 	C 	0.52226	0.74099	0.39108	-0.057
Mof_C 	C 	0.83056	0.6472	0.26577	-0.066
Mof_C 	C 	0.85359	0.61007	0.27563	-0.062
Mof_N 	N 	0.38625	0.29859	0.33462	-0.405
Mof_N 	N 	0.42952	0.22146	0.44593	-0.369
Mof_N 	N 	0.24099	0.32997	0.29777	-0.405
Mof_N 	N 	0.168	0.44621	0.33125	-0.374
Mof_C 	C 	0.42065	0.29133	0.34415	0.086
Mof_C 	C 	0.45094	0.23794	0.4214	0.054
Mof_C 	C 	0.20892	0.34019	0.28377	0.072
Mof_C 	C 	0.15816	0.42137	0.30618	0.052
Mof_C 	C 	0.46379	0.28273	0.35595	-0.071
Mof_C 	C 	0.47774	0.25901	0.39108	-0.058
Mof_C 	C 	0.16944	0.3528	0.26577	-0.068
Mof_C 	C 	0.14641	0.38993	0.27563	-0.064
Mof_N 	N 	0.61375	0.29859	0.66538	-0.406
Mof_N 	N 	0.57048	0.22146	0.55407	-0.369
Mof_N 	N 	0.75901	0.32997	0.70223	-0.404
Mof_N 	N 	0.832	0.44621	0.66875	-0.374
Mof_C 	C 	0.57935	0.29133	0.65585	0.086
Mof_C 	C 	0.54906	0.23794	0.5786	0.054
Mof_C 	C 	0.79108	0.34019	0.71623	0.075
Mof_C 	C 	0.84184	0.42137	0.69382	0.058
Mof_C 	C 	0.53621	0.28273	0.64405	-0.071
Mof_C 	C 	0.52226	0.25901	0.60892	-0.058
Mof_C 	C 	0.83056	0.3528	0.73423	-0.066
Mof_C 	C 	0.85359	0.38993	0.72437	-0.062
Mof_N 	N 	0.88625	0.16538	0.79859	-0.402
Mof_N 	N 	0.92952	0.05407	0.72146	-0.36
Mof_N 	N 	0.74099	0.20223	0.82997	-0.405
Mof_N 	N 	0.668	0.16875	0.94621	-0.352
Mof_C 	C 	0.92065	0.15585	0.79133	0.087
Mof_C 	C 	0.95094	0.0786	0.73794	0.053
Mof_C 	C 	0.70892	0.21623	0.84019	0.077
Mof_C 	C 	0.65816	0.19382	0.92137	0.059
Mof_C 	C 	0.96379	0.14405	0.78273	-0.037
Mof_C 	C 	0.97774	0.10892	0.75901	-0.021
Mof_C 	C 	0.66944	0.23423	0.8528	-0.068
Mof_C 	C 	0.64641	0.22437	0.88993	-0.059
Mof_N 	N 	0.11375	0.83462	0.79859	-0.403
Mof_N 	N 	0.07048	0.94593	0.72146	-0.353
Mof_N 	N 	0.25901	0.79777	0.82997	-0.404
Mof_N 	N 	0.332	0.83125	0.94621	-0.354
Mof_C 	C 	0.07935	0.84415	0.79133	0.08
Mof_C 	C 	0.04906	0.9214	0.73794	0.066
Mof_C 	C 	0.29108	0.78377	0.84019	0.078
Mof_C 	C 	0.34184	0.80618	0.92137	0.062
Mof_C 	C 	0.03621	0.85595	0.78273	-0.048
Mof_C 	C 	0.02226	0.89108	0.75901	-0.099
Mof_C 	C 	0.33056	0.76577	0.8528	-0.067
Mof_C 	C 	0.35359	0.77563	0.88993	-0.058
Mof_N 	N 	0.88625	0.83462	0.20141	-0.402
Mof_N 	N 	0.92952	0.94593	0.27854	-0.344
Mof_N 	N 	0.74099	0.79777	0.17003	-0.405
Mof_N 	N 	0.668	0.83125	0.05379	-0.37
Mof_C 	C 	0.92065	0.84415	0.20867	0.09
Mof_C 	C 	0.95094	0.9214	0.26206	0.063
Mof_C 	C 	0.70892	0.78377	0.15981	0.074
Mof_C 	C 	0.65816	0.80618	0.07863	0.051
Mof_C 	C 	0.96379	0.85595	0.21727	-0.037
Mof_C 	C 	0.97774	0.89108	0.24099	-0.018
Mof_C 	C 	0.66944	0.76577	0.1472	-0.068
Mof_C 	C 	0.64641	0.77563	0.11007	-0.062
Mof_N 	N 	0.11375	0.16538	0.20141	-0.402
Mof_N 	N 	0.07048	0.05407	0.27854	-0.369
Mof_N 	N 	0.25901	0.20223	0.17003	-0.404
Mof_N 	N 	0.332	0.16875	0.05379	-0.368
Mof_C 	C 	0.07935	0.15585	0.20867	0.074
Mof_C 	C 	0.04906	0.0786	0.26206	0.054
Mof_C 	C 	0.29108	0.21623	0.15981	0.072
Mof_C 	C 	0.34184	0.19382	0.07863	0.047
Mof_C 	C 	0.03621	0.14405	0.21727	-0.05
Mof_C 	C 	0.02226	0.10892	0.24099	-0.104
Mof_C 	C 	0.33056	0.23423	0.1472	-0.068
Mof_C 	C 	0.35359	0.22437	0.11007	-0.063
Mof_N 	N 	0.16538	0.20141	0.11375	-0.402
Mof_N 	N 	0.05407	0.27854	0.07048	-0.369
Mof_N 	N 	0.20223	0.17003	0.25901	-0.404
Mof_N 	N 	0.16875	0.05379	0.332	-0.368
Mof_C 	C 	0.15585	0.20867	0.07935	0.074
Mof_C 	C 	0.0786	0.26206	0.04906	0.054
Mof_C 	C 	0.21623	0.15981	0.29108	0.072
Mof_C 	C 	0.19382	0.07863	0.34184	0.047
Mof_C 	C 	0.14405	0.21727	0.03621	-0.05
Mof_C 	C 	0.10892	0.24099	0.02226	-0.104
Mof_C 	C 	0.23423	0.1472	0.33056	-0.068
Mof_C 	C 	0.22437	0.11007	0.35359	-0.063
Mof_N 	N 	0.83462	0.20141	0.88625	-0.402
Mof_N 	N 	0.94593	0.27854	0.92952	-0.344
Mof_N 	N 	0.79777	0.17003	0.74099	-0.405
Mof_N 	N 	0.83125	0.05379	0.668	-0.37
Mof_C 	C 	0.84415	0.20867	0.92065	0.09
Mof_C 	C 	0.9214	0.26206	0.95094	0.063
Mof_C 	C 	0.78377	0.15981	0.70892	0.074
Mof_C 	C 	0.80618	0.07863	0.65816	0.051
Mof_C 	C 	0.85595	0.21727	0.96379	-0.037
Mof_C 	C 	0.89108	0.24099	0.97774	-0.018
Mof_C 	C 	0.76577	0.1472	0.66944	-0.068
Mof_C 	C 	0.77563	0.11007	0.64641	-0.062
Mof_N 	N 	0.83462	0.79859	0.11375	-0.403
Mof_N 	N 	0.94593	0.72146	0.07048	-0.353
Mof_N 	N 	0.79777	0.82997	0.25901	-0.404
Mof_N 	N 	0.83125	0.94621	0.332	-0.354
Mof_C 	C 	0.84415	0.79133	0.07935	0.08
Mof_C 	C 	0.9214	0.73794	0.04906	0.066
Mof_C 	C 	0.78377	0.84019	0.29108	0.078
Mof_C 	C 	0.80618	0.92137	0.34184	0.062
Mof_C 	C 	0.85595	0.78273	0.03621	-0.048
Mof_C 	C 	0.89108	0.75901	0.02226	-0.099
Mof_C 	C 	0.76577	0.8528	0.33056	-0.067
Mof_C 	C 	0.77563	0.88993	0.35359	-0.058
Mof_N 	N 	0.16538	0.79859	0.88625	-0.402
Mof_N 	N 	0.05407	0.72146	0.92952	-0.36
Mof_N 	N 	0.20223	0.82997	0.74099	-0.405
Mof_N 	N 	0.16875	0.94621	0.668	-0.352
Mof_C 	C 	0.15585	0.79133	0.92065	0.087
Mof_C 	C 	0.0786	0.73794	0.95094	0.053
Mof_C 	C 	0.21623	0.84019	0.70892	0.077
Mof_C 	C 	0.19382	0.92137	0.65816	0.059
Mof_C 	C 	0.14405	0.78273	0.96379	-0.037
Mof_C 	C 	0.10892	0.75901	0.97774	-0.021
Mof_C 	C 	0.23423	0.8528	0.66944	-0.068
Mof_C 	C 	0.22437	0.88993	0.64641	-0.059
Mof_N 	N 	0.20141	0.88625	0.83462	-0.402
Mof_N 	N 	0.27854	0.92952	0.94593	-0.344
Mof_N 	N 	0.17003	0.74099	0.79777	-0.405
Mof_N 	N 	0.05379	0.668	0.83125	-0.37
Mof_C 	C 	0.20867	0.92065	0.84415	0.09
Mof_C 	C 	0.26206	0.95094	0.9214	0.063
Mof_C 	C 	0.15981	0.70892	0.78377	0.074
Mof_C 	C 	0.07863	0.65816	0.80618	0.051
Mof_C 	C 	0.21727	0.96379	0.85595	-0.037
Mof_C 	C 	0.24099	0.97774	0.89108	-0.018
Mof_C 	C 	0.1472	0.66944	0.76577	-0.068
Mof_C 	C 	0.11007	0.64641	0.77563	-0.062
Mof_N 	N 	0.20141	0.11375	0.16538	-0.402
Mof_N 	N 	0.27854	0.07048	0.05407	-0.369
Mof_N 	N 	0.17003	0.25901	0.20223	-0.404
Mof_N 	N 	0.05379	0.332	0.16875	-0.368
Mof_C 	C 	0.20867	0.07935	0.15585	0.074
Mof_C 	C 	0.26206	0.04906	0.0786	0.054
Mof_C 	C 	0.15981	0.29108	0.21623	0.072
Mof_C 	C 	0.07863	0.34184	0.19382	0.047
Mof_C 	C 	0.21727	0.03621	0.14405	-0.05
Mof_C 	C 	0.24099	0.02226	0.10892	-0.104
Mof_C 	C 	0.1472	0.33056	0.23423	-0.068
Mof_C 	C 	0.11007	0.35359	0.22437	-0.063
Mof_N 	N 	0.79859	0.88625	0.16538	-0.402
Mof_N 	N 	0.72146	0.92952	0.05407	-0.36
Mof_N 	N 	0.82997	0.74099	0.20223	-0.405
Mof_N 	N 	0.94621	0.668	0.16875	-0.352
Mof_C 	C 	0.79133	0.92065	0.15585	0.087
Mof_C 	C 	0.73794	0.95094	0.0786	0.053
Mof_C 	C 	0.84019	0.70892	0.21623	0.077
Mof_C 	C 	0.92137	0.65816	0.19382	0.059
Mof_C 	C 	0.78273	0.96379	0.14405	-0.037
Mof_C 	C 	0.75901	0.97774	0.10892	-0.021
Mof_C 	C 	0.8528	0.66944	0.23423	-0.068
Mof_C 	C 	0.88993	0.64641	0.22437	-0.059
Mof_N 	N 	0.79859	0.11375	0.83462	-0.403
Mof_N 	N 	0.72146	0.07048	0.94593	-0.353
Mof_N 	N 	0.82997	0.25901	0.79777	-0.404
Mof_N 	N 	0.94621	0.332	0.83125	-0.354
Mof_C 	C 	0.79133	0.07935	0.84415	0.08
Mof_C 	C 	0.73794	0.04906	0.9214	0.066
Mof_C 	C 	0.84019	0.29108	0.78377	0.078
Mof_C 	C 	0.92137	0.34184	0.80618	0.062
Mof_C 	C 	0.78273	0.03621	0.85595	-0.048
Mof_C 	C 	0.75901	0.02226	0.89108	-0.099
Mof_C 	C 	0.8528	0.33056	0.76577	-0.067
Mof_C 	C 	0.88993	0.35359	0.77563	-0.058
Mof_Na	Na	0.31434	0.68566	0.31434	2.33
Mof_Na	Na	0.68566	0.31434	0.31434	2.33
Mof_Na	Na	0.68566	0.68566	0.68566	2.333
Mof_Na	Na	0.31434	0.31434	0.68566	2.33
Mof_Na	Na	0.18566	0.81434	0.18566	2.332
Mof_Na	Na	0.81434	0.18566	0.18566	2.332
Mof_Na	Na	0.18566	0.18566	0.81434	2.332
Mof_Na	Na	0.81434	0.81434	0.81434	2.355
Mof_Na	Na	0.68566	0.31434	0.68566	2.331
Mof_Na	Na	0.31434	0.68566	0.68566	2.331
Mof_Na	Na	0.31434	0.31434	0.31434	2.328
Mof_Na	Na	0.68566	0.68566	0.31434	2.331
Mof_Na	Na	0.81434	0.18566	0.81434	2.343
Mof_Na	Na	0.18566	0.81434	0.81434	2.343
Mof_Na	Na	0.81434	0.81434	0.18566	2.343
Mof_Na	Na	0.18566	0.18566	0.18566	2.321
Mof_Na	Na	0.37966	0.80459	0.5	1.87
Mof_Na	Na	0.62034	0.19541	0.5	1.848
Mof_Na	Na	0.62034	0.80459	0.5	1.87
Mof_Na	Na	0.37966	0.19541	0.5	1.848
Mof_Na	Na	0.5	0.37966	0.80459	1.87
Mof_Na	Na	0.5	0.62034	0.19541	1.848
Mof_Na	Na	0.5	0.62034	0.80459	1.87
Mof_Na	Na	0.5	0.37966	0.19541	1.848
Mof_Na	Na	0.80459	0.5	0.37966	1.87
Mof_Na	Na	0.19541	0.5	0.62034	1.848
Mof_Na	Na	0.80459	0.5	0.62034	1.87
Mof_Na	Na	0.19541	0.5	0.37966	1.848
Mof_Na	Na	0.30459	0.87966	-0	1.793
Mof_Na	Na	0.69541	0.12034	-0	1.755
Mof_Na	Na	0.30459	0.12034	-0	1.754
Mof_Na	Na	0.69541	0.87966	-0	1.793
Mof_Na	Na	0.87966	-6.61681e-33	0.69541	1.793
Mof_Na	Na	0.12034	0	0.30459	1.754
Mof_Na	Na	0.12034	-6.61681e-33	0.69541	1.755
Mof_Na	Na	0.87966	0	0.30459	1.793
Mof_Na	Na	6.24091e-33	0.30459	0.12034	1.754
Mof_Na	Na	2.97654e-32	0.69541	0.87966	1.793
Mof_Na	Na	9.91501e-33	0.30459	0.87966	1.793
Mof_Na	Na	9.54932e-33	0.69541	0.12034	1.755
Mof_Na	Na	0.23054	0	0.5	0.731
Mof_Na	Na	0.76946	0	0.5	0.689
Mof_Na	Na	0.5	0.23054	-0	0.731
Mof_Na	Na	0.5	0.76946	-0	0.689
Mof_Na	Na	4.17279e-33	0.5	0.23054	0.731
Mof_Na	Na	9.50182e-33	0.5	0.76946	0.689
Mof_Na	Na	0.5	0.73054	-0	0.772
Mof_Na	Na	0.5	0.26946	-0	0.719
Mof_Na	Na	0.73054	0	0.5	0.772
Mof_Na	Na	0.26946	0	0.5	0.719
Mof_Na	Na	7.62712e-33	0.5	0.26946	0.719
Mof_Na	Na	2.25895e-32	0.5	0.73054	0.772
Mof_N 	N 	0.26558	0.5	0.34255	-0.339
Mof_C 	C 	0.2963	0.5	0.3226	0.06
Mof_C 	C 	0.3341	0.5	0.29788	-0.05
Mof_N 	N 	0.73442	0.5	0.34255	-0.341
Mof_C 	C 	0.7037	0.5	0.3226	0.061
Mof_C 	C 	0.6659	0.5	0.29788	-0.051
Mof_N 	N 	0.73442	0.5	0.65745	-0.341
Mof_C 	C 	0.7037	0.5	0.6774	0.061
Mof_C 	C 	0.6659	0.5	0.70212	-0.05
Mof_N 	N 	0.26558	0.5	0.65745	-0.339
Mof_C 	C 	0.2963	0.5	0.6774	0.061
Mof_C 	C 	0.3341	0.5	0.70212	-0.05
Mof_N 	N 	0.34255	0.26558	0.5	-0.339
Mof_C 	C 	0.3226	0.2963	0.5	0.06
Mof_C 	C 	0.29788	0.3341	0.5	-0.05
Mof_N 	N 	0.34255	0.73442	0.5	-0.341
Mof_C 	C 	0.3226	0.7037	0.5	0.061
Mof_C 	C 	0.29788	0.6659	0.5	-0.051
Mof_N 	N 	0.65745	0.73442	0.5	-0.341
Mof_C 	C 	0.6774	0.7037	0.5	0.061
Mof_C 	C 	0.70212	0.6659	0.5	-0.05
Mof_N 	N 	0.65745	0.26558	0.5	-0.339
Mof_C 	C 	0.6774	0.2963	0.5	0.061
Mof_C 	C 	0.70212	0.3341	0.5	-0.05
Mof_N 	N 	0.5	0.34255	0.26558	-0.339
Mof_C 	C 	0.5	0.3226	0.2963	0.06
Mof_C 	C 	0.5	0.29788	0.3341	-0.05
Mof_N 	N 	0.5	0.34255	0.73442	-0.341
Mof_C 	C 	0.5	0.3226	0.7037	0.061
Mof_C 	C 	0.5	0.29788	0.6659	-0.051
Mof_N 	N 	0.5	0.65745	0.73442	-0.341
Mof_C 	C 	0.5	0.6774	0.7037	0.061
Mof_C 	C 	0.5	0.70212	0.6659	-0.05
Mof_N 	N 	0.5	0.65745	0.26558	-0.339
Mof_C 	C 	0.5	0.6774	0.2963	0.061
Mof_C 	C 	0.5	0.70212	0.3341	-0.05
Mof_N 	N 	1.21698e-32	0.76558	0.15745	-0.341
Mof_C 	C 	1.72072e-32	0.7963	0.1774	0.061
Mof_C 	C 	9.02884e-33	0.8341	0.20212	-0.094
Mof_N 	N 	5.55295e-33	0.23442	0.15745	-0.341
Mof_C 	C 	3.97355e-33	0.2037	0.1774	0.059
Mof_C 	C 	5.72044e-33	0.1659	0.20212	-0.096
Mof_N 	N 	2.30095e-32	0.23442	0.84255	-0.343
Mof_C 	C 	3.08426e-33	0.2037	0.8226	0.062
Mof_C 	C 	9.60838e-33	0.1659	0.79788	-0.095
Mof_N 	N 	2.30095e-32	0.76558	0.84255	-0.343
Mof_C 	C 	1.63179e-32	0.7963	0.8226	0.063
Mof_C 	C 	1.62252e-32	0.8341	0.79788	-0.093
Mof_N 	N 	0.76558	0.84255	-0	-0.343
Mof_C 	C 	0.7963	0.8226	-0	0.063
Mof_C 	C 	0.8341	0.79788	-0	-0.093
Mof_N 	N 	0.23442	0.84255	-0	-0.343
Mof_C 	C 	0.2037	0.8226	-0	0.062
Mof_C 	C 	0.1659	0.79788	-0	-0.095
Mof_N 	N 	0.23442	0.15745	-0	-0.341
Mof_C 	C 	0.2037	0.1774	-0	0.059
Mof_C 	C 	0.1659	0.20212	-0	-0.096
Mof_N 	N 	0.76558	0.15745	-0	-0.341
Mof_C 	C 	0.7963	0.1774	-0	0.061
Mof_C 	C 	0.8341	0.20212	-0	-0.094
Mof_N 	N 	0.84255	1.6542e-33	0.23442	-0.343
Mof_C 	C 	0.8226	0	0.2037	0.062
Mof_C 	C 	0.79788	-1.6542e-33	0.1659	-0.095
Mof_N 	N 	0.84255	0	0.76558	-0.343
Mof_C 	C 	0.8226	0	0.7963	0.063
Mof_C 	C 	0.79788	-6.61681e-33	0.8341	-0.093
Mof_N 	N 	0.15745	0	0.76558	-0.341
Mof_C 	C 	0.1774	0	0.7963	0.061
Mof_C 	C 	0.20212	-6.61681e-33	0.8341	-0.094
Mof_N 	N 	0.15745	1.6542e-33	0.23442	-0.341
Mof_C 	C 	0.1774	0	0.2037	0.059
Mof_C 	C 	0.20212	-1.6542e-33	0.1659	-0.096
Mof_N 	N 	0.25	0.94808	0.44808	-0.334
Mof_C 	C 	0.25	0.92239	0.42239	0.047
Mof_C 	C 	0.25	0.89012	0.39012	-0.057
Mof_N 	N 	0.75	0.05192	0.44808	-0.351
Mof_C 	C 	0.75	0.07761	0.42239	0.037
Mof_C 	C 	0.75	0.10988	0.39012	-0.06
Mof_N 	N 	0.75	0.94808	0.55192	-0.334
Mof_C 	C 	0.75	0.92239	0.57761	0.049
Mof_C 	C 	0.75	0.89012	0.60988	-0.056
Mof_N 	N 	0.25	0.05192	0.55192	-0.351
Mof_C 	C 	0.25	0.07761	0.57761	0.035
Mof_C 	C 	0.25	0.10988	0.60988	-0.061
Mof_N 	N 	0.44808	0.25	0.94808	-0.334
Mof_C 	C 	0.42239	0.25	0.92239	0.047
Mof_C 	C 	0.39012	0.25	0.89012	-0.057
Mof_N 	N 	0.44808	0.75	0.05192	-0.351
Mof_C 	C 	0.42239	0.75	0.07761	0.037
Mof_C 	C 	0.39012	0.75	0.10988	-0.06
Mof_N 	N 	0.55192	0.75	0.94808	-0.334
Mof_C 	C 	0.57761	0.75	0.92239	0.049
Mof_C 	C 	0.60988	0.75	0.89012	-0.056
Mof_N 	N 	0.55192	0.25	0.05192	-0.351
Mof_C 	C 	0.57761	0.25	0.07761	0.035
Mof_C 	C 	0.60988	0.25	0.10988	-0.061
Mof_N 	N 	0.94808	0.44808	0.25	-0.334
Mof_C 	C 	0.92239	0.42239	0.25	0.047
Mof_C 	C 	0.89012	0.39012	0.25	-0.057
Mof_N 	N 	0.05192	0.44808	0.75	-0.351
Mof_C 	C 	0.07761	0.42239	0.75	0.037
Mof_C 	C 	0.10988	0.39012	0.75	-0.06
Mof_N 	N 	0.94808	0.55192	0.75	-0.334
Mof_C 	C 	0.92239	0.57761	0.75	0.049
Mof_C 	C 	0.89012	0.60988	0.75	-0.056
Mof_N 	N 	0.05192	0.55192	0.25	-0.351
Mof_C 	C 	0.07761	0.57761	0.25	0.035
Mof_C 	C 	0.10988	0.60988	0.25	-0.061
Mof_N 	N 	0.75	0.05192	0.55192	-0.351
Mof_C 	C 	0.75	0.07761	0.57761	0.037
Mof_C 	C 	0.75	0.10988	0.60988	-0.06
Mof_N 	N 	0.25	0.94808	0.55192	-0.334
Mof_C 	C 	0.25	0.92239	0.57761	0.047
Mof_C 	C 	0.25	0.89012	0.60988	-0.057
Mof_N 	N 	0.25	0.05192	0.44808	-0.351
Mof_C 	C 	0.25	0.07761	0.42239	0.035
Mof_C 	C 	0.25	0.10988	0.39012	-0.061
Mof_N 	N 	0.75	0.94808	0.44808	-0.334
Mof_C 	C 	0.75	0.92239	0.42239	0.048
Mof_C 	C 	0.75	0.89012	0.39012	-0.056
Mof_N 	N 	0.55192	0.75	0.05192	-0.351
Mof_C 	C 	0.57761	0.75	0.07761	0.037
Mof_C 	C 	0.60988	0.75	0.10988	-0.06
Mof_N 	N 	0.55192	0.25	0.94808	-0.334
Mof_C 	C 	0.57761	0.25	0.92239	0.047
Mof_C 	C 	0.60988	0.25	0.89012	-0.057
Mof_N 	N 	0.44808	0.25	0.05192	-0.351
Mof_C 	C 	0.42239	0.25	0.07761	0.035
Mof_C 	C 	0.39012	0.25	0.10988	-0.061
Mof_N 	N 	0.44808	0.75	0.94808	-0.334
Mof_C 	C 	0.42239	0.75	0.92239	0.048
Mof_C 	C 	0.39012	0.75	0.89012	-0.056
Mof_N 	N 	0.05192	0.55192	0.75	-0.351
Mof_C 	C 	0.07761	0.57761	0.75	0.037
Mof_C 	C 	0.10988	0.60988	0.75	-0.06
Mof_N 	N 	0.94808	0.55192	0.25	-0.334
Mof_C 	C 	0.92239	0.57761	0.25	0.047
Mof_C 	C 	0.89012	0.60988	0.25	-0.057
Mof_N 	N 	0.05192	0.44808	0.25	-0.351
Mof_C 	C 	0.07761	0.42239	0.25	0.035
Mof_C 	C 	0.10988	0.39012	0.25	-0.061
Mof_N 	N 	0.94808	0.44808	0.75	-0.334
Mof_C 	C 	0.92239	0.42239	0.75	0.048
Mof_C 	C 	0.89012	0.39012	0.75	-0.056
_end
