data_functionalizedCrystal
_audit_creation_method	'EQeq! by Chris Wilmer'
_symmetry_space_group_name_H-M	'P1'
_symmetry_Int_Tables_number	1
_symmetry_cell_setting	triclinic
loop_
_symmetry_equiv_pos_as_xyz
  x,y,z
_cell_length_a	43.2392
_cell_length_b	43.2392
_cell_length_c	41.8921
_cell_angle_alpha	90
_cell_angle_beta	90
_cell_angle_gamma	120
loop_
_atom_site_label
_atom_site_type_symbol
_atom_site_fract_x
_atom_site_fract_y
_atom_site_fract_z
_atom_site_charge
Mof_In	In	0.62728	0.09353	0.79099	2.555
Mof_In	In	0.37506	0.90423	0.46729	2.714
Mof_O 	O 	0.5678	0.0567	0.7889	-0.497
Mof_O 	O 	0.5952	0.0837	0.7449	-0.497
Mof_O 	O 	0.3489	0.9041	0.5149	-0.535
Mof_O 	O 	0.407	0.9349	0.5092	-0.53
Mof_O 	O 	0.6693	0.1129	0.8303	-0.502
Mof_O 	O 	0.6145	0.0719	0.8412	-0.499
Mof_O 	O 	0.8243	0.2752	0.0807	-0.354
Mof_O 	O 	0.8377	0.2422	0.1101	-0.609
Mof_O 	O 	0.6228	0.9213	0.1148	-0.491
Mof_O 	O 	0.5722	0.9075	0.0911	-0.499
Mof_O 	O 	0.6123	0.1343	0.8079	-0.498
Mof_O 	O 	0.6581	0.1514	0.7756	-0.487
Mof_N 	N 	0.4032	0.9968	0.7149	-0.144
Mof_N 	N 	0.4281	0.9888	0.6677	-0.144
Mof_N 	N 	0.3675	0.9735	0.6692	-0.144
Mof_N 	N 	0.7061	0.122	0.9946	-0.144
Mof_N 	N 	0.6986	0.0901	0.0424	-0.141
Mof_N 	N 	0.6616	0.0614	0.9979	-0.147
Mof_N 	N 	0.6951	0.3277	0.7926	-0.144
Mof_C 	C 	0.567	0.0631	0.7591	0.317
Mof_C 	C 	0.5317	0.0464	0.7435	-0.073
Mof_C 	C 	0.5293	0.0455	0.7109	0.009
Mof_H 	H 	0.5504	0.0563	0.6983	0.044
Mof_C 	C 	0.4961	0.0288	0.6961	-0.077
Mof_H 	H 	0.4947	0.0276	0.6734	0.068
Mof_C 	C 	0.4658	0.0145	0.7134	0.022
Mof_C 	C 	0.4673	0.0152	0.7464	-0.075
Mof_H 	H 	0.4461	0.0051	0.7588	0.063
Mof_C 	C 	0.5011	0.0313	0.7612	0.009
Mof_H 	H 	0.5027	0.0317	0.7838	0.051
Mof_C 	C 	0.4305	0.9988	0.6978	0.115
Mof_C 	C 	0.3726	0.9848	0.6996	0.113
Mof_C 	C 	0.3958	0.9745	0.6544	0.116
Mof_O 	O 	0.2484	0.9536	0.7968	-0.151
Mof_O 	O 	0.2401	0.9888	0.7662	-2.295
Mof_C 	C 	0.3434	0.9847	0.7174	0.016
Mof_C 	C 	0.3417	0.9796	0.7498	-1.313
Mof_H 	H 	0.3602	0.9779	0.7604	0.487
Mof_C 	C 	0.3138	0.9769	0.767	1.286
Mof_H 	H 	0.3123	0.9718	0.7892	-0.363
Mof_C 	C 	0.2901	0.9811	0.7537	-0.841
Mof_C 	C 	0.2914	0.9895	0.721	0.362
Mof_H 	H 	0.2744	0.9947	0.7118	-0.22
Mof_C 	C 	0.3188	0.9899	0.7024	-0.642
Mof_H 	H 	0.3199	0.9937	0.68	0.242
Mof_C 	C 	0.2565	0.9731	0.7727	-1.45
Mof_C 	C 	0.391	0.9615	0.6219	0.014
Mof_C 	C 	0.357	0.9411	0.6089	-0.071
Mof_H 	H 	0.3365	0.9353	0.6214	0.067
Mof_C 	C 	0.353	0.9294	0.578	0.002
Mof_H 	H 	0.3297	0.9162	0.569	0.049
Mof_C 	C 	0.3829	0.9366	0.5597	-0.062
Mof_C 	C 	0.4164	0.9565	0.5729	0.003
Mof_H 	H 	0.4369	0.962	0.5605	0.054
Mof_C 	C 	0.4205	0.9683	0.6036	-0.07
Mof_H 	H 	0.4438	0.9813	0.6126	0.066
Mof_C 	C 	0.379	0.9242	0.5259	0.317
Mof_C 	C 	0.6466	0.0922	0.85	0.32
Mof_C 	C 	0.632	0.0654	0.9042	0.013
Mof_H 	H 	0.6099	0.047	0.8961	0.043
Mof_C 	C 	0.6551	0.0918	0.8842	-0.072
Mof_C 	C 	0.6399	0.0647	0.9356	-0.074
Mof_H 	H 	0.6238	0.0457	0.949	0.062
Mof_C 	C 	0.672	0.0921	0.9481	0.023
Mof_C 	C 	0.6952	0.1189	0.9281	-0.071
Mof_H 	H 	0.7169	0.1378	0.9363	0.069
Mof_C 	C 	0.6873	0.1185	0.8963	0.011
Mof_H 	H 	0.704	0.1366	0.8826	0.047
Mof_C 	C 	0.6803	0.0916	0.9819	0.118
Mof_C 	C 	0.7145	0.12	0.0242	0.114
Mof_C 	C 	0.6544	0.0281	0.0463	0.017
Mof_C 	C 	0.742	0.1532	0.0401	0.036
Mof_C 	C 	0.7541	0.1858	0.0261	-0.096
Mof_H 	H 	0.746	0.1875	0.0055	0.077
Mof_C 	C 	0.7782	0.2162	0.0422	0.039
Mof_H 	H 	0.7843	0.2389	0.0337	0.04
Mof_C 	C 	0.7935	0.2146	0.07	-0.105
Mof_C 	C 	0.7838	0.1816	0.0827	0.036
Mof_H 	H 	0.7951	0.1801	0.1016	0.048
Mof_C 	C 	0.7576	0.1502	0.0684	-0.092
Mof_H 	H 	0.7505	0.1275	0.0775	0.075
Mof_C 	C 	0.8211	0.2458	0.0875	0.387
Mof_C 	C 	0.6723	0.0616	0.0281	0.116
Mof_C 	C 	0.6714	0.0234	0.0724	-0.071
Mof_H 	H 	0.6939	0.0423	0.0792	0.069
Mof_C 	C 	0.6553	0.9913	0.0886	0.006
Mof_H 	H 	0.667	0.9878	0.1063	0.048
Mof_C 	C 	0.6225	0.9644	0.079	-0.063
Mof_C 	C 	0.605	0.9688	0.0531	0.003
Mof_H 	H 	0.5821	0.9501	0.0469	0.055
Mof_C 	C 	0.6214	0.0006	0.0364	-0.075
Mof_H 	H 	0.6101	0.0036	0.0182	0.066
Mof_C 	C 	0.6047	0.9293	0.0957	0.306
Mof_C 	C 	0.6376	0.1583	0.7923	0.306
Mof_C 	C 	0.6441	0.1954	0.7933	-0.059
Mof_C 	C 	0.6748	0.2232	0.7796	0.004
Mof_H 	H 	0.6917	0.2183	0.7699	0.055
Mof_C 	C 	0.6808	0.2575	0.7799	-0.071
Mof_H 	H 	0.7023	0.2764	0.7712	0.069
Mof_C 	C 	0.6555	0.2643	0.7928	0.019
Mof_C 	C 	0.6249	0.2373	0.8063	-0.068
Mof_H 	H 	0.6077	0.2424	0.8154	0.068
Mof_C 	C 	0.619	0.2022	0.8065	0.002
Mof_H 	H 	0.5979	0.1834	0.8158	0.052
Mof_C 	C 	0.6613	0.3011	0.7925	0.118
Mof_O 	O 	0.361	0.844	0.484	0.313
Mof_O 	O 	0.417	0.865	0.492	-0.143
Mof_C 	C 	0.386	0.8435	0.4997	0.458
Mof_C 	C 	0.373	0.8036	0.5071	-0.421
Mof_C 	C 	0.3375	0.777	0.5097	0.119
Mof_C 	C 	0.3289	0.7421	0.5163	-0.021
Mof_C 	C 	0.3558	0.7338	0.52	0.009
Mof_C 	C 	0.3914	0.7604	0.5177	0.04
Mof_C 	C 	0.4	0.7953	0.511	0.028
Mof_N 	N 	0.3732	0.6879	0.52	-0.119
Mof_C 	C 	0.3462	0.6941	0.52	0.092
Mof_O 	O 	0.244	0.98	0.782	1.402
Mof_O 	O 	0.2424	0.008	0.7379	-0.393
Mof_C 	C 	0.3405	0.982	0.714	0.015
Mof_C 	C 	0.306	0.958	0.7043	0.567
Mof_H 	H 	0.3017	0.9418	0.6877	-0.159
Mof_C 	C 	0.2772	0.959	0.7188	-0.549
Mof_H 	H 	0.2535	0.9428	0.712	0.21
Mof_C 	C 	0.2832	0.983	0.743	0.591
Mof_C 	C 	0.318	0.007	0.7529	-0.81
Mof_H 	H 	0.322	0.0236	0.7695	0.285
Mof_C 	C 	0.3465	0.006	0.738	1.034
Mof_H 	H 	0.3702	0.0226	0.7452	-0.273
Mof_C 	C 	0.256	0.991	0.752	2.32
Mof_O 	O 	0.3379	0.8494	0.4654	-0.391
Mof_O 	O 	0.3903	0.8669	0.4839	-0.578
Mof_C 	C 	0.3591	0.8424	0.4795	-0.392
Mof_C 	C 	0.3515	0.8036	0.4825	0.026
Mof_C 	C 	0.3177	0.7742	0.4779	-0.007
Mof_C 	C 	0.3124	0.7399	0.481	0.003
Mof_C 	C 	0.341	0.735	0.4887	0.018
Mof_C 	C 	0.3748	0.7644	0.4933	-0.093
Mof_C 	C 	0.38	0.7987	0.4902	0.302
Mof_N 	N 	0.3669	0.6976	0.4885	-0.124
Mof_C 	C 	0.3361	0.6972	0.4885	0.112
Mof_In	In	0.29395	0.42686	0.12432	2.556
Mof_In	In	0.04173	0.23756	0.80062	2.716
Mof_O 	O 	0.23447	0.39003	0.12223	-0.496
Mof_O 	O 	0.26187	0.41703	0.07823	-0.496
Mof_O 	O 	0.01557	0.23743	0.84823	-0.534
Mof_O 	O 	0.07367	0.26823	0.84253	-0.529
Mof_O 	O 	0.33597	0.44623	0.16363	-0.501
Mof_O 	O 	0.28117	0.40523	0.17453	-0.498
Mof_O 	O 	0.49097	0.60853	0.41403	-0.353
Mof_O 	O 	0.50437	0.57553	0.44343	-0.608
Mof_O 	O 	0.28947	0.25463	0.44813	-0.49
Mof_O 	O 	0.23887	0.24083	0.42443	-0.498
Mof_O 	O 	0.27897	0.46763	0.14123	-0.497
Mof_O 	O 	0.32477	0.48473	0.10893	-0.486
Mof_N 	N 	0.06987	0.33013	0.04823	-0.143
Mof_N 	N 	0.09477	0.32213	0.00103	-0.143
Mof_N 	N 	0.03417	0.30683	0.00253	-0.143
Mof_N 	N 	0.37277	0.45533	0.32793	-0.143
Mof_N 	N 	0.36527	0.42343	0.37573	-0.14
Mof_N 	N 	0.32827	0.39473	0.33123	-0.146
Mof_N 	N 	0.36177	0.66103	0.12593	-0.143
Mof_C 	C 	0.23367	0.39643	0.09243	0.318
Mof_C 	C 	0.19837	0.37973	0.07683	-0.072
Mof_C 	C 	0.19597	0.37883	0.04423	0.01
Mof_H 	H 	0.21707	0.38963	0.03163	0.045
Mof_C 	C 	0.16277	0.36213	0.02943	-0.076
Mof_H 	H 	0.16137	0.36093	0.00673	0.069
Mof_C 	C 	0.13247	0.34783	0.04673	0.023
Mof_C 	C 	0.13397	0.34853	0.07973	-0.074
Mof_H 	H 	0.11277	0.33843	0.09213	0.064
Mof_C 	C 	0.16777	0.36463	0.09453	0.01
Mof_H 	H 	0.16937	0.36503	0.11713	0.052
Mof_C 	C 	0.09717	0.33213	0.03113	0.117
Mof_C 	C 	0.03927	0.31813	0.03293	0.114
Mof_C 	C 	0.06247	0.30783	0.98773	0.117
Mof_O 	O 	0.91507	0.28693	0.13013	-0.15
Mof_O 	O 	0.90677	0.32213	0.09953	-2.292
Mof_C 	C 	0.01007	0.31803	0.05073	0.017
Mof_C 	C 	0.00837	0.31293	0.08313	-1.311
Mof_H 	H 	0.02687	0.31123	0.09373	0.488
Mof_C 	C 	0.98047	0.31023	0.10033	1.286
Mof_H 	H 	0.97897	0.30513	0.12253	-0.361
Mof_C 	C 	0.95677	0.31443	0.08703	-0.839
Mof_C 	C 	0.95807	0.32283	0.05433	0.363
Mof_H 	H 	0.94107	0.32803	0.04513	-0.219
Mof_C 	C 	0.98547	0.32323	0.03573	-0.641
Mof_H 	H 	0.98657	0.32703	0.01333	0.243
Mof_C 	C 	0.92317	0.30643	0.10603	-1.448
Mof_C 	C 	0.05767	0.29483	0.95523	0.015
Mof_C 	C 	0.02367	0.27443	0.94223	-0.07
Mof_H 	H 	0.00317	0.26863	0.95473	0.068
Mof_C 	C 	0.01967	0.26273	0.91133	0.003
Mof_H 	H 	0.99637	0.24953	0.90233	0.05
Mof_C 	C 	0.04957	0.26993	0.89303	-0.061
Mof_C 	C 	0.08307	0.28983	0.90623	0.004
Mof_H 	H 	0.10357	0.29533	0.89383	0.055
Mof_C 	C 	0.08717	0.30163	0.93693	-0.069
Mof_H 	H 	0.11047	0.31463	0.94593	0.066
Mof_C 	C 	0.04567	0.25753	0.85923	0.317
Mof_C 	C 	0.31327	0.42553	0.18333	0.32
Mof_C 	C 	0.29867	0.39873	0.23753	0.013
Mof_H 	H 	0.27657	0.38033	0.22943	0.043
Mof_C 	C 	0.32177	0.42513	0.21753	-0.072
Mof_C 	C 	0.30657	0.39803	0.26893	-0.074
Mof_H 	H 	0.29047	0.37903	0.28233	0.062
Mof_C 	C 	0.33867	0.42543	0.28143	0.023
Mof_C 	C 	0.36187	0.45223	0.26143	-0.071
Mof_H 	H 	0.38357	0.47113	0.26963	0.069
Mof_C 	C 	0.35397	0.45183	0.22963	0.011
Mof_H 	H 	0.37067	0.46993	0.21593	0.047
Mof_C 	C 	0.34697	0.42493	0.31523	0.118
Mof_C 	C 	0.38117	0.45333	0.35753	0.114
Mof_C 	C 	0.32107	0.36143	0.37963	0.017
Mof_C 	C 	0.40867	0.48653	0.37343	0.036
Mof_C 	C 	0.42077	0.51913	0.35943	-0.096
Mof_H 	H 	0.41267	0.52083	0.33883	0.077
Mof_C 	C 	0.44487	0.54953	0.37553	0.039
Mof_H 	H 	0.45097	0.57223	0.36703	0.041
Mof_C 	C 	0.46017	0.54793	0.40333	-0.105
Mof_C 	C 	0.45047	0.51493	0.41603	0.036
Mof_H 	H 	0.46177	0.51343	0.43493	0.048
Mof_C 	C 	0.42427	0.48353	0.40173	-0.092
Mof_H 	H 	0.41717	0.46083	0.41083	0.075
Mof_C 	C 	0.48777	0.57913	0.42083	0.387
Mof_C 	C 	0.33897	0.39493	0.36143	0.116
Mof_C 	C 	0.33807	0.35673	0.40573	-0.071
Mof_H 	H 	0.36057	0.37563	0.41253	0.069
Mof_C 	C 	0.32197	0.32463	0.42193	0.006
Mof_H 	H 	0.33367	0.32113	0.43963	0.048
Mof_C 	C 	0.28917	0.29773	0.41233	-0.063
Mof_C 	C 	0.27167	0.30213	0.38643	0.003
Mof_H 	H 	0.24877	0.28343	0.38023	0.055
Mof_C 	C 	0.28807	0.33393	0.36973	-0.074
Mof_H 	H 	0.27677	0.33693	0.35153	0.066
Mof_C 	C 	0.27137	0.26263	0.42903	0.306
Mof_C 	C 	0.30427	0.49163	0.12563	0.306
Mof_C 	C 	0.31077	0.52873	0.12663	-0.059
Mof_C 	C 	0.34147	0.55653	0.11293	0.004
Mof_H 	H 	0.35837	0.55163	0.10323	0.055
Mof_C 	C 	0.34747	0.59083	0.11323	-0.071
Mof_H 	H 	0.36897	0.60973	0.10453	0.069
Mof_C 	C 	0.32217	0.59763	0.12613	0.019
Mof_C 	C 	0.29157	0.57063	0.13963	-0.068
Mof_H 	H 	0.27437	0.57573	0.14873	0.068
Mof_C 	C 	0.28567	0.53553	0.13983	0.002
Mof_H 	H 	0.26457	0.51673	0.14913	0.052
Mof_C 	C 	0.32797	0.63443	0.12583	0.118
Mof_O 	O 	0.02767	0.17733	0.81733	0.313
Mof_O 	O 	0.08367	0.19833	0.82533	-0.143
Mof_C 	C 	0.05267	0.17683	0.83303	0.458
Mof_C 	C 	0.03967	0.13693	0.84043	-0.421
Mof_C 	C 	0.00417	0.11033	0.84303	0.119
Mof_C 	C 	0.99557	0.07543	0.84963	-0.021
Mof_C 	C 	0.02247	0.06713	0.85333	0.009
Mof_C 	C 	0.05807	0.09373	0.85103	0.04
Mof_C 	C 	0.06667	0.12863	0.84433	0.028
Mof_N 	N 	0.03987	0.02123	0.85333	-0.119
Mof_C 	C 	0.01287	0.02743	0.85333	0.092
Mof_O 	O 	0.91067	0.31333	0.11533	1.4
Mof_O 	O 	0.90907	0.34133	0.07123	-0.393
Mof_C 	C 	0.00717	0.31533	0.04733	0.015
Mof_C 	C 	0.97267	0.29133	0.03763	0.567
Mof_H 	H 	0.96837	0.27513	0.02103	-0.159
Mof_C 	C 	0.94387	0.29233	0.05213	-0.548
Mof_H 	H 	0.92017	0.27613	0.04533	0.21
Mof_C 	C 	0.94987	0.31633	0.07633	0.59
Mof_C 	C 	0.98467	0.34033	0.08623	-0.809
Mof_H 	H 	0.98867	0.35693	0.10283	0.285
Mof_C 	C 	0.01317	0.33933	0.07133	1.033
Mof_H 	H 	0.03687	0.35593	0.07853	-0.273
Mof_C 	C 	0.92267	0.32433	0.08533	2.319
Mof_O 	O 	0.00457	0.18273	0.79873	-0.391
Mof_O 	O 	0.05697	0.20023	0.81723	-0.578
Mof_C 	C 	0.02577	0.17573	0.81283	-0.392
Mof_C 	C 	0.01817	0.13693	0.81583	0.026
Mof_C 	C 	0.98437	0.10753	0.81123	-0.007
Mof_C 	C 	0.97907	0.07323	0.81433	0.003
Mof_C 	C 	0.00767	0.06833	0.82203	0.018
Mof_C 	C 	0.04147	0.09773	0.82663	-0.093
Mof_C 	C 	0.04667	0.13203	0.82353	0.302
Mof_N 	N 	0.03357	0.03093	0.82183	-0.124
Mof_C 	C 	0.00277	0.03053	0.82183	0.112
Mof_In	In	0.96061	0.7602	0.45766	2.556
Mof_In	In	0.70839	0.5709	0.13396	2.715
Mof_O 	O 	0.90113	0.72337	0.45557	-0.496
Mof_O 	O 	0.92853	0.75037	0.41157	-0.496
Mof_O 	O 	0.68223	0.57077	0.18157	-0.534
Mof_O 	O 	0.74033	0.60157	0.17587	-0.529
Mof_O 	O 	0.00263	0.77957	0.49697	-0.501
Mof_O 	O 	0.94783	0.73857	0.50787	-0.498
Mof_O 	O 	0.15763	0.94187	0.74737	-0.353
Mof_O 	O 	0.17103	0.90887	0.77677	-0.608
Mof_O 	O 	0.95613	0.58797	0.78147	-0.49
Mof_O 	O 	0.90553	0.57417	0.75777	-0.498
Mof_O 	O 	0.94563	0.80097	0.47457	-0.497
Mof_O 	O 	0.99143	0.81807	0.44227	-0.486
Mof_N 	N 	0.73653	0.66347	0.38157	-0.143
Mof_N 	N 	0.76143	0.65547	0.33437	-0.143
Mof_N 	N 	0.70083	0.64017	0.33587	-0.143
Mof_N 	N 	0.03943	0.78867	0.66127	-0.143
Mof_N 	N 	0.03193	0.75677	0.70907	-0.14
Mof_N 	N 	0.99493	0.72807	0.66457	-0.146
Mof_N 	N 	0.02843	0.99437	0.45927	-0.143
Mof_C 	C 	0.90033	0.72977	0.42577	0.318
Mof_C 	C 	0.86503	0.71307	0.41017	-0.072
Mof_C 	C 	0.86263	0.71217	0.37757	0.01
Mof_H 	H 	0.88373	0.72297	0.36497	0.045
Mof_C 	C 	0.82943	0.69547	0.36277	-0.076
Mof_H 	H 	0.82803	0.69427	0.34007	0.069
Mof_C 	C 	0.79913	0.68117	0.38007	0.023
Mof_C 	C 	0.80063	0.68187	0.41307	-0.074
Mof_H 	H 	0.77943	0.67177	0.42547	0.064
Mof_C 	C 	0.83443	0.69797	0.42787	0.01
Mof_H 	H 	0.83603	0.69837	0.45047	0.052
Mof_C 	C 	0.76383	0.66547	0.36447	0.117
Mof_C 	C 	0.70593	0.65147	0.36627	0.114
Mof_C 	C 	0.72913	0.64117	0.32107	0.117
Mof_O 	O 	0.58173	0.62027	0.46347	-0.15
Mof_O 	O 	0.57343	0.65547	0.43287	-2.294
Mof_C 	C 	0.67673	0.65137	0.38407	0.017
Mof_C 	C 	0.67503	0.64627	0.41647	-1.311
Mof_H 	H 	0.69353	0.64457	0.42707	0.488
Mof_C 	C 	0.64713	0.64357	0.43367	1.287
Mof_H 	H 	0.64563	0.63847	0.45587	-0.362
Mof_C 	C 	0.62343	0.64777	0.42037	-0.84
Mof_C 	C 	0.62473	0.65617	0.38767	0.363
Mof_H 	H 	0.60773	0.66137	0.37847	-0.219
Mof_C 	C 	0.65213	0.65657	0.36907	-0.641
Mof_H 	H 	0.65323	0.66037	0.34667	0.243
Mof_C 	C 	0.58983	0.63977	0.43937	-1.449
Mof_C 	C 	0.72433	0.62817	0.28857	0.015
Mof_C 	C 	0.69033	0.60777	0.27557	-0.07
Mof_H 	H 	0.66983	0.60197	0.28807	0.068
Mof_C 	C 	0.68633	0.59607	0.24467	0.003
Mof_H 	H 	0.66303	0.58287	0.23567	0.05
Mof_C 	C 	0.71623	0.60327	0.22637	-0.061
Mof_C 	C 	0.74973	0.62317	0.23957	0.004
Mof_H 	H 	0.77023	0.62867	0.22717	0.055
Mof_C 	C 	0.75383	0.63497	0.27027	-0.069
Mof_H 	H 	0.77713	0.64797	0.27927	0.066
Mof_C 	C 	0.71233	0.59087	0.19257	0.317
Mof_C 	C 	0.97993	0.75887	0.51667	0.32
Mof_C 	C 	0.96533	0.73207	0.57087	0.013
Mof_H 	H 	0.94323	0.71367	0.56277	0.043
Mof_C 	C 	0.98843	0.75847	0.55087	-0.072
Mof_C 	C 	0.97323	0.73137	0.60227	-0.074
Mof_H 	H 	0.95713	0.71237	0.61567	0.062
Mof_C 	C 	0.00533	0.75877	0.61477	0.022
Mof_C 	C 	0.02853	0.78557	0.59477	-0.071
Mof_H 	H 	0.05023	0.80447	0.60297	0.069
Mof_C 	C 	0.02063	0.78517	0.56297	0.011
Mof_H 	H 	0.03733	0.80327	0.54927	0.047
Mof_C 	C 	0.01363	0.75827	0.64857	0.118
Mof_C 	C 	0.04783	0.78667	0.69087	0.114
Mof_C 	C 	0.98773	0.69477	0.71297	0.017
Mof_C 	C 	0.07533	0.81987	0.70677	0.036
Mof_C 	C 	0.08743	0.85247	0.69277	-0.096
Mof_H 	H 	0.07933	0.85417	0.67217	0.077
Mof_C 	C 	0.11153	0.88287	0.70887	0.039
Mof_H 	H 	0.11763	0.90557	0.70037	0.04
Mof_C 	C 	0.12683	0.88127	0.73667	-0.105
Mof_C 	C 	0.11713	0.84827	0.74937	0.036
Mof_H 	H 	0.12843	0.84677	0.76827	0.048
Mof_C 	C 	0.09093	0.81687	0.73507	-0.092
Mof_H 	H 	0.08383	0.79417	0.74417	0.075
Mof_C 	C 	0.15443	0.91247	0.75417	0.387
Mof_C 	C 	0.00563	0.72827	0.69477	0.116
Mof_C 	C 	0.00473	0.69007	0.73907	-0.071
Mof_H 	H 	0.02723	0.70897	0.74587	0.069
Mof_C 	C 	0.98863	0.65797	0.75527	0.006
Mof_H 	H 	0.00033	0.65447	0.77297	0.048
Mof_C 	C 	0.95583	0.63107	0.74567	-0.063
Mof_C 	C 	0.93833	0.63547	0.71977	0.003
Mof_H 	H 	0.91543	0.61677	0.71357	0.055
Mof_C 	C 	0.95473	0.66727	0.70307	-0.074
Mof_H 	H 	0.94343	0.67027	0.68487	0.066
Mof_C 	C 	0.93803	0.59597	0.76237	0.306
Mof_C 	C 	0.97093	0.82497	0.45897	0.306
Mof_C 	C 	0.97743	0.86207	0.45997	-0.059
Mof_C 	C 	0.00813	0.88987	0.44627	0.004
Mof_H 	H 	0.02503	0.88497	0.43657	0.055
Mof_C 	C 	0.01413	0.92417	0.44657	-0.071
Mof_H 	H 	0.03563	0.94307	0.43787	0.069
Mof_C 	C 	0.98883	0.93097	0.45947	0.019
Mof_C 	C 	0.95823	0.90397	0.47297	-0.068
Mof_H 	H 	0.94103	0.90907	0.48207	0.068
Mof_C 	C 	0.95233	0.86887	0.47317	0.002
Mof_H 	H 	0.93123	0.85007	0.48247	0.052
Mof_C 	C 	0.99463	0.96777	0.45917	0.118
Mof_O 	O 	0.69433	0.51067	0.15067	0.313
Mof_O 	O 	0.75033	0.53167	0.15867	-0.143
Mof_C 	C 	0.71933	0.51017	0.16637	0.458
Mof_C 	C 	0.70633	0.47027	0.17377	-0.421
Mof_C 	C 	0.67083	0.44367	0.17637	0.119
Mof_C 	C 	0.66223	0.40877	0.18297	-0.021
Mof_C 	C 	0.68913	0.40047	0.18667	0.009
Mof_C 	C 	0.72473	0.42707	0.18437	0.04
Mof_C 	C 	0.73333	0.46197	0.17767	0.028
Mof_N 	N 	0.70653	0.35457	0.18667	-0.119
Mof_C 	C 	0.67953	0.36077	0.18667	0.092
Mof_O 	O 	0.57733	0.64667	0.44867	1.401
Mof_O 	O 	0.57573	0.67467	0.40457	-0.393
Mof_C 	C 	0.67383	0.64867	0.38067	0.015
Mof_C 	C 	0.63933	0.62467	0.37097	0.567
Mof_H 	H 	0.63503	0.60847	0.35437	-0.159
Mof_C 	C 	0.61053	0.62567	0.38547	-0.549
Mof_H 	H 	0.58683	0.60947	0.37867	0.21
Mof_C 	C 	0.61653	0.64967	0.40967	0.591
Mof_C 	C 	0.65133	0.67367	0.41957	-0.81
Mof_H 	H 	0.65533	0.69027	0.43617	0.285
Mof_C 	C 	0.67983	0.67267	0.40467	1.034
Mof_H 	H 	0.70353	0.68927	0.41187	-0.273
Mof_C 	C 	0.58933	0.65767	0.41867	2.32
Mof_O 	O 	0.67123	0.51607	0.13207	-0.391
Mof_O 	O 	0.72363	0.53357	0.15057	-0.578
Mof_C 	C 	0.69243	0.50907	0.14617	-0.392
Mof_C 	C 	0.68483	0.47027	0.14917	0.026
Mof_C 	C 	0.65103	0.44087	0.14457	-0.007
Mof_C 	C 	0.64573	0.40657	0.14767	0.003
Mof_C 	C 	0.67433	0.40167	0.15537	0.018
Mof_C 	C 	0.70813	0.43107	0.15997	-0.093
Mof_C 	C 	0.71333	0.46537	0.15687	0.302
Mof_N 	N 	0.70023	0.36427	0.15517	-0.124
Mof_C 	C 	0.66943	0.36387	0.15517	0.112
Mof_In	In	0.90647	0.53375	0.79099	2.556
Mof_In	In	0.09577	0.47083	0.46729	2.716
Mof_O 	O 	0.9433	0.5111	0.7889	-0.496
Mof_O 	O 	0.9163	0.5115	0.7449	-0.496
Mof_O 	O 	0.0959	0.4448	0.5149	-0.534
Mof_O 	O 	0.0651	0.4721	0.5092	-0.529
Mof_O 	O 	0.8871	0.5564	0.8303	-0.501
Mof_O 	O 	0.9281	0.5426	0.8412	-0.498
Mof_O 	O 	0.7248	0.5491	0.0807	-0.353
Mof_O 	O 	0.7578	0.5955	0.1101	-0.608
Mof_O 	O 	0.0787	0.7015	0.1148	-0.49
Mof_O 	O 	0.0925	0.6647	0.0911	-0.498
Mof_O 	O 	0.8657	0.478	0.8079	-0.497
Mof_O 	O 	0.8486	0.5067	0.7756	-0.486
Mof_N 	N 	0.0032	0.4064	0.7149	-0.143
Mof_N 	N 	0.0112	0.4393	0.6677	-0.143
Mof_N 	N 	0.0265	0.394	0.6692	-0.143
Mof_N 	N 	0.878	0.5841	0.9946	-0.143
Mof_N 	N 	0.9099	0.6085	0.0424	-0.14
Mof_N 	N 	0.9386	0.6002	0.9979	-0.146
Mof_N 	N 	0.6723	0.3674	0.7926	-0.143
Mof_C 	C 	0.9369	0.5039	0.7591	0.318
Mof_C 	C 	0.9536	0.4853	0.7435	-0.072
Mof_C 	C 	0.9545	0.4838	0.7109	0.01
Mof_H 	H 	0.9437	0.4941	0.6983	0.045
Mof_C 	C 	0.9712	0.4673	0.6961	-0.076
Mof_H 	H 	0.9724	0.4671	0.6734	0.069
Mof_C 	C 	0.9855	0.4513	0.7134	0.023
Mof_C 	C 	0.9848	0.4521	0.7464	-0.074
Mof_H 	H 	0.9949	0.441	0.7588	0.064
Mof_C 	C 	0.9687	0.4698	0.7612	0.01
Mof_H 	H 	0.9683	0.471	0.7838	0.052
Mof_C 	C 	0.0012	0.4317	0.6978	0.116
Mof_C 	C 	0.0152	0.3878	0.6996	0.114
Mof_C 	C 	0.0255	0.4213	0.6544	0.117
Mof_O 	O 	0.0464	0.2948	0.7968	-0.15
Mof_O 	O 	0.0112	0.2513	0.7662	-2.293
Mof_C 	C 	0.0153	0.3587	0.7174	0.017
Mof_C 	C 	0.0204	0.3621	0.7498	-1.311
Mof_H 	H 	0.0221	0.3823	0.7604	0.488
Mof_C 	C 	0.0231	0.3369	0.767	1.286
Mof_H 	H 	0.0282	0.3405	0.7892	-0.362
Mof_C 	C 	0.0189	0.309	0.7537	-0.839
Mof_C 	C 	0.0105	0.3019	0.721	0.363
Mof_H 	H 	0.0053	0.2797	0.7118	-0.219
Mof_C 	C 	0.0101	0.3289	0.7024	-0.641
Mof_H 	H 	0.0063	0.3262	0.68	0.243
Mof_C 	C 	0.0269	0.2834	0.7727	-1.448
Mof_C 	C 	0.0385	0.4295	0.6219	0.015
Mof_C 	C 	0.0589	0.4159	0.6089	-0.07
Mof_H 	H 	0.0647	0.4012	0.6214	0.068
Mof_C 	C 	0.0706	0.4236	0.578	0.003
Mof_H 	H 	0.0838	0.4135	0.569	0.05
Mof_C 	C 	0.0634	0.4463	0.5597	-0.061
Mof_C 	C 	0.0435	0.4599	0.5729	0.004
Mof_H 	H 	0.038	0.4749	0.5605	0.055
Mof_C 	C 	0.0317	0.4522	0.6036	-0.069
Mof_H 	H 	0.0187	0.4625	0.6126	0.066
Mof_C 	C 	0.0758	0.4548	0.5259	0.317
Mof_C 	C 	0.9078	0.5544	0.85	0.32
Mof_C 	C 	0.9346	0.5666	0.9042	0.013
Mof_H 	H 	0.953	0.5629	0.8961	0.043
Mof_C 	C 	0.9082	0.5633	0.8842	-0.072
Mof_C 	C 	0.9353	0.5752	0.9356	-0.074
Mof_H 	H 	0.9543	0.5781	0.949	0.062
Mof_C 	C 	0.9079	0.5799	0.9481	0.023
Mof_C 	C 	0.8811	0.5763	0.9281	-0.071
Mof_H 	H 	0.8622	0.5791	0.9363	0.069
Mof_C 	C 	0.8815	0.5688	0.8963	0.011
Mof_H 	H 	0.8634	0.5674	0.8826	0.047
Mof_C 	C 	0.9084	0.5887	0.9819	0.118
Mof_C 	C 	0.88	0.5945	0.0242	0.114
Mof_C 	C 	0.9719	0.6263	0.0463	0.017
Mof_C 	C 	0.8468	0.5888	0.0401	0.036
Mof_C 	C 	0.8142	0.5683	0.0261	-0.096
Mof_H 	H 	0.8125	0.5585	0.0055	0.077
Mof_C 	C 	0.7838	0.562	0.0422	0.039
Mof_H 	H 	0.7611	0.5454	0.0337	0.04
Mof_C 	C 	0.7854	0.5789	0.07	-0.105
Mof_C 	C 	0.8184	0.6022	0.0827	0.036
Mof_H 	H 	0.8199	0.615	0.1016	0.048
Mof_C 	C 	0.8498	0.6074	0.0684	-0.092
Mof_H 	H 	0.8725	0.623	0.0775	0.075
Mof_C 	C 	0.7542	0.5753	0.0875	0.387
Mof_C 	C 	0.9384	0.6107	0.0281	0.116
Mof_C 	C 	0.9766	0.648	0.0724	-0.071
Mof_H 	H 	0.9577	0.6516	0.0792	0.069
Mof_C 	C 	0.0087	0.664	0.0886	0.006
Mof_H 	H 	0.0122	0.6792	0.1063	0.048
Mof_C 	C 	0.0356	0.6581	0.079	-0.063
Mof_C 	C 	0.0312	0.6362	0.0531	0.003
Mof_H 	H 	0.0499	0.632	0.0469	0.055
Mof_C 	C 	0.9994	0.6208	0.0364	-0.074
Mof_H 	H 	0.9964	0.6065	0.0182	0.066
Mof_C 	C 	0.0707	0.6754	0.0957	0.306
Mof_C 	C 	0.8417	0.4793	0.7923	0.306
Mof_C 	C 	0.8046	0.4487	0.7933	-0.059
Mof_C 	C 	0.7768	0.4516	0.7796	0.004
Mof_H 	H 	0.7817	0.4734	0.7699	0.055
Mof_C 	C 	0.7425	0.4233	0.7799	-0.071
Mof_H 	H 	0.7236	0.4259	0.7712	0.069
Mof_C 	C 	0.7357	0.3912	0.7928	0.019
Mof_C 	C 	0.7627	0.3876	0.8063	-0.068
Mof_H 	H 	0.7576	0.3653	0.8154	0.068
Mof_C 	C 	0.7978	0.4168	0.8065	0.002
Mof_H 	H 	0.8166	0.4145	0.8158	0.052
Mof_C 	C 	0.6989	0.3602	0.7925	0.118
Mof_O 	O 	0.156	0.517	0.484	0.313
Mof_O 	O 	0.135	0.552	0.492	-0.143
Mof_C 	C 	0.1565	0.5425	0.4997	0.458
Mof_C 	C 	0.1964	0.5694	0.5071	-0.421
Mof_C 	C 	0.223	0.5605	0.5097	0.119
Mof_C 	C 	0.2579	0.5868	0.5163	-0.021
Mof_C 	C 	0.2662	0.622	0.52	0.009
Mof_C 	C 	0.2396	0.631	0.5177	0.04
Mof_C 	C 	0.2047	0.6047	0.511	0.028
Mof_N 	N 	0.3121	0.6853	0.52	-0.119
Mof_C 	C 	0.3059	0.6521	0.52	0.092
Mof_O 	O 	0.02	0.264	0.782	1.401
Mof_O 	O 	0.992	0.2344	0.7379	-0.393
Mof_C 	C 	0.018	0.3585	0.714	0.015
Mof_C 	C 	0.042	0.348	0.7043	0.567
Mof_H 	H 	0.0582	0.3599	0.6877	-0.159
Mof_C 	C 	0.041	0.3182	0.7188	-0.548
Mof_H 	H 	0.0572	0.3107	0.712	0.21
Mof_C 	C 	0.017	0.3002	0.743	0.59
Mof_C 	C 	0.993	0.311	0.7529	-0.809
Mof_H 	H 	0.9764	0.2984	0.7695	0.285
Mof_C 	C 	0.994	0.3405	0.738	1.034
Mof_H 	H 	0.9774	0.3476	0.7452	-0.273
Mof_C 	C 	0.009	0.265	0.752	2.319
Mof_O 	O 	0.1506	0.4885	0.4654	-0.391
Mof_O 	O 	0.1331	0.5234	0.4839	-0.578
Mof_C 	C 	0.1576	0.5167	0.4795	-0.392
Mof_C 	C 	0.1964	0.5479	0.4825	0.026
Mof_C 	C 	0.2258	0.5435	0.4779	-0.007
Mof_C 	C 	0.2601	0.5725	0.481	0.003
Mof_C 	C 	0.265	0.606	0.4887	0.018
Mof_C 	C 	0.2356	0.6104	0.4933	-0.093
Mof_C 	C 	0.2013	0.5813	0.4902	0.302
Mof_N 	N 	0.3024	0.6693	0.4885	-0.124
Mof_C 	C 	0.3028	0.6389	0.4885	0.112
Mof_In	In	0.57314	0.86708	0.12432	2.556
Mof_In	In	0.76244	0.80416	0.80062	2.715
Mof_O 	O 	0.60997	0.84443	0.12223	-0.496
Mof_O 	O 	0.58297	0.84483	0.07823	-0.496
Mof_O 	O 	0.76257	0.77813	0.84823	-0.534
Mof_O 	O 	0.73177	0.80543	0.84253	-0.529
Mof_O 	O 	0.55377	0.88973	0.16363	-0.501
Mof_O 	O 	0.59477	0.87593	0.17453	-0.498
Mof_O 	O 	0.39147	0.88243	0.41403	-0.353
Mof_O 	O 	0.42447	0.92883	0.44343	-0.608
Mof_O 	O 	0.74537	0.03483	0.44813	-0.49
Mof_O 	O 	0.75917	0.99803	0.42443	-0.497
Mof_O 	O 	0.53237	0.81133	0.14123	-0.497
Mof_O 	O 	0.51527	0.84003	0.10893	-0.486
Mof_N 	N 	0.66987	0.73973	0.04823	-0.143
Mof_N 	N 	0.67787	0.77263	0.00103	-0.143
Mof_N 	N 	0.69317	0.72733	0.00253	-0.143
Mof_N 	N 	0.54467	0.91743	0.32793	-0.143
Mof_N 	N 	0.57657	0.94183	0.37573	-0.14
Mof_N 	N 	0.60527	0.93353	0.33123	-0.146
Mof_N 	N 	0.33897	0.70073	0.12593	-0.143
Mof_C 	C 	0.60357	0.83723	0.09243	0.318
Mof_C 	C 	0.62027	0.81863	0.07683	-0.072
Mof_C 	C 	0.62117	0.81713	0.04423	0.01
Mof_H 	H 	0.61037	0.82743	0.03163	0.045
Mof_C 	C 	0.63787	0.80063	0.02943	-0.076
Mof_H 	H 	0.63907	0.80043	0.00673	0.069
Mof_C 	C 	0.65217	0.78463	0.04673	0.023
Mof_C 	C 	0.65147	0.78543	0.07973	-0.074
Mof_H 	H 	0.66157	0.77433	0.09213	0.064
Mof_C 	C 	0.63537	0.80313	0.09453	0.01
Mof_H 	H 	0.63497	0.80433	0.11713	0.052
Mof_C 	C 	0.66787	0.76503	0.03113	0.117
Mof_C 	C 	0.68187	0.72113	0.03293	0.114
Mof_C 	C 	0.69217	0.75463	0.98773	0.117
Mof_O 	O 	0.71307	0.62813	0.13013	-0.15
Mof_O 	O 	0.67787	0.58463	0.09953	-2.295
Mof_C 	C 	0.68197	0.69203	0.05073	0.017
Mof_C 	C 	0.68707	0.69543	0.08313	-1.312
Mof_H 	H 	0.68877	0.71563	0.09373	0.489
Mof_C 	C 	0.68977	0.67023	0.10033	1.287
Mof_H 	H 	0.69487	0.67383	0.12253	-0.362
Mof_C 	C 	0.68557	0.64233	0.08703	-0.84
Mof_C 	C 	0.67717	0.63523	0.05433	0.363
Mof_H 	H 	0.67197	0.61303	0.04513	-0.219
Mof_C 	C 	0.67677	0.66223	0.03573	-0.641
Mof_H 	H 	0.67297	0.65953	0.01333	0.243
Mof_C 	C 	0.69357	0.61673	0.10603	-1.45
Mof_C 	C 	0.70517	0.76283	0.95523	0.015
Mof_C 	C 	0.72557	0.74923	0.94223	-0.07
Mof_H 	H 	0.73137	0.73453	0.95473	0.068
Mof_C 	C 	0.73727	0.75693	0.91133	0.003
Mof_H 	H 	0.75047	0.74683	0.90233	0.05
Mof_C 	C 	0.73007	0.77963	0.89303	-0.061
Mof_C 	C 	0.71017	0.79323	0.90623	0.004
Mof_H 	H 	0.70467	0.80823	0.89383	0.055
Mof_C 	C 	0.69837	0.78553	0.93693	-0.069
Mof_H 	H 	0.68537	0.79583	0.94593	0.066
Mof_C 	C 	0.74247	0.78813	0.85923	0.317
Mof_C 	C 	0.57447	0.88773	0.18333	0.32
Mof_C 	C 	0.60127	0.89993	0.23753	0.013
Mof_H 	H 	0.61967	0.89623	0.22943	0.043
Mof_C 	C 	0.57487	0.89663	0.21753	-0.072
Mof_C 	C 	0.60197	0.90853	0.26893	-0.074
Mof_H 	H 	0.62097	0.91143	0.28233	0.062
Mof_C 	C 	0.57457	0.91323	0.28143	0.023
Mof_C 	C 	0.54777	0.90963	0.26143	-0.071
Mof_H 	H 	0.52887	0.91243	0.26963	0.069
Mof_C 	C 	0.54817	0.90213	0.22963	0.011
Mof_H 	H 	0.53007	0.90073	0.21593	0.047
Mof_C 	C 	0.57507	0.92203	0.31523	0.118
Mof_C 	C 	0.54667	0.92783	0.35753	0.114
Mof_C 	C 	0.63857	0.95963	0.37963	0.017
Mof_C 	C 	0.51347	0.92213	0.37343	0.036
Mof_C 	C 	0.48087	0.90163	0.35943	-0.096
Mof_H 	H 	0.47917	0.89183	0.33883	0.077
Mof_C 	C 	0.45047	0.89533	0.37553	0.039
Mof_H 	H 	0.42777	0.87873	0.36703	0.04
Mof_C 	C 	0.45207	0.91223	0.40333	-0.105
Mof_C 	C 	0.48507	0.93553	0.41603	0.036
Mof_H 	H 	0.48657	0.94833	0.43493	0.048
Mof_C 	C 	0.51647	0.94073	0.40173	-0.092
Mof_H 	H 	0.53917	0.95633	0.41083	0.075
Mof_C 	C 	0.42087	0.90863	0.42083	0.387
Mof_C 	C 	0.60507	0.94403	0.36143	0.116
Mof_C 	C 	0.64327	0.98133	0.40573	-0.071
Mof_H 	H 	0.62437	0.98493	0.41253	0.069
Mof_C 	C 	0.67537	0.99733	0.42193	0.006
Mof_H 	H 	0.67887	0.01253	0.43963	0.048
Mof_C 	C 	0.70227	0.99143	0.41233	-0.063
Mof_C 	C 	0.69787	0.96953	0.38643	0.003
Mof_H 	H 	0.71657	0.96533	0.38023	0.055
Mof_C 	C 	0.66607	0.95413	0.36973	-0.074
Mof_H 	H 	0.66307	0.93983	0.35153	0.066
Mof_C 	C 	0.73737	0.00873	0.42903	0.306
Mof_C 	C 	0.50837	0.81263	0.12563	0.306
Mof_C 	C 	0.47127	0.78203	0.12663	-0.059
Mof_C 	C 	0.44347	0.78493	0.11293	0.004
Mof_H 	H 	0.44837	0.80673	0.10323	0.055
Mof_C 	C 	0.40917	0.75663	0.11323	-0.071
Mof_H 	H 	0.39027	0.75923	0.10453	0.069
Mof_C 	C 	0.40237	0.72453	0.12613	0.019
Mof_C 	C 	0.42937	0.72093	0.13963	-0.068
Mof_H 	H 	0.42427	0.69863	0.14873	0.068
Mof_C 	C 	0.46447	0.75013	0.13983	0.002
Mof_H 	H 	0.48327	0.74783	0.14913	0.052
Mof_C 	C 	0.36557	0.69353	0.12583	0.118
Mof_O 	O 	0.82267	0.85033	0.81733	0.313
Mof_O 	O 	0.80167	0.88533	0.82533	-0.143
Mof_C 	C 	0.82317	0.87583	0.83303	0.458
Mof_C 	C 	0.86307	0.90273	0.84043	-0.421
Mof_C 	C 	0.88967	0.89383	0.84303	0.119
Mof_C 	C 	0.92457	0.92013	0.84963	-0.021
Mof_C 	C 	0.93287	0.95533	0.85333	0.009
Mof_C 	C 	0.90627	0.96433	0.85103	0.04
Mof_C 	C 	0.87137	0.93803	0.84433	0.028
Mof_N 	N 	0.97877	0.01863	0.85333	-0.119
Mof_C 	C 	0.97257	0.98543	0.85333	0.092
Mof_O 	O 	0.68667	0.59733	0.11533	1.402
Mof_O 	O 	0.65867	0.56773	0.07123	-0.393
Mof_C 	C 	0.68467	0.69183	0.04733	0.015
Mof_C 	C 	0.70867	0.68133	0.03763	0.568
Mof_H 	H 	0.72487	0.69323	0.02103	-0.159
Mof_C 	C 	0.70767	0.65153	0.05213	-0.549
Mof_H 	H 	0.72387	0.64403	0.04533	0.21
Mof_C 	C 	0.68367	0.63353	0.07633	0.591
Mof_C 	C 	0.65967	0.64433	0.08623	-0.81
Mof_H 	H 	0.64307	0.63173	0.10283	0.286
Mof_C 	C 	0.66067	0.67383	0.07133	1.035
Mof_H 	H 	0.64407	0.68093	0.07853	-0.273
Mof_C 	C 	0.67567	0.59833	0.08533	2.321
Mof_O 	O 	0.81727	0.82183	0.79873	-0.391
Mof_O 	O 	0.79977	0.85673	0.81723	-0.578
Mof_C 	C 	0.82427	0.85003	0.81283	-0.392
Mof_C 	C 	0.86307	0.88123	0.81583	0.026
Mof_C 	C 	0.89247	0.87683	0.81123	-0.007
Mof_C 	C 	0.92677	0.90583	0.81433	0.003
Mof_C 	C 	0.93167	0.93933	0.82203	0.018
Mof_C 	C 	0.90227	0.94373	0.82663	-0.093
Mof_C 	C 	0.86797	0.91463	0.82353	0.302
Mof_N 	N 	0.96907	0.00263	0.82183	-0.124
Mof_C 	C 	0.96947	0.97223	0.82183	0.112
Mof_In	In	0.2398	0.20042	0.45766	2.556
Mof_In	In	0.4291	0.1375	0.13396	2.715
Mof_O 	O 	0.27663	0.17777	0.45557	-0.496
Mof_O 	O 	0.24963	0.17817	0.41157	-0.496
Mof_O 	O 	0.42923	0.11147	0.18157	-0.534
Mof_O 	O 	0.39843	0.13877	0.17587	-0.529
Mof_O 	O 	0.22043	0.22307	0.49697	-0.501
Mof_O 	O 	0.26143	0.20927	0.50787	-0.498
Mof_O 	O 	0.05813	0.21577	0.74737	-0.353
Mof_O 	O 	0.09113	0.26217	0.77677	-0.608
Mof_O 	O 	0.41203	0.36817	0.78147	-0.49
Mof_O 	O 	0.42583	0.33137	0.75777	-0.498
Mof_O 	O 	0.19903	0.14467	0.47457	-0.497
Mof_O 	O 	0.18193	0.17337	0.44227	-0.486
Mof_N 	N 	0.33653	0.07307	0.38157	-0.143
Mof_N 	N 	0.34453	0.10597	0.33437	-0.143
Mof_N 	N 	0.35983	0.06067	0.33587	-0.143
Mof_N 	N 	0.21133	0.25077	0.66127	-0.143
Mof_N 	N 	0.24323	0.27517	0.70907	-0.14
Mof_N 	N 	0.27193	0.26687	0.66457	-0.146
Mof_N 	N 	0.00563	0.03407	0.45927	-0.143
Mof_C 	C 	0.27023	0.17057	0.42577	0.318
Mof_C 	C 	0.28693	0.15197	0.41017	-0.072
Mof_C 	C 	0.28783	0.15047	0.37757	0.01
Mof_H 	H 	0.27703	0.16077	0.36497	0.045
Mof_C 	C 	0.30453	0.13397	0.36277	-0.076
Mof_H 	H 	0.30573	0.13377	0.34007	0.069
Mof_C 	C 	0.31883	0.11797	0.38007	0.023
Mof_C 	C 	0.31813	0.11877	0.41307	-0.074
Mof_H 	H 	0.32823	0.10767	0.42547	0.064
Mof_C 	C 	0.30203	0.13647	0.42787	0.01
Mof_H 	H 	0.30163	0.13767	0.45047	0.052
Mof_C 	C 	0.33453	0.09837	0.36447	0.117
Mof_C 	C 	0.34853	0.05447	0.36627	0.114
Mof_C 	C 	0.35883	0.08797	0.32107	0.117
Mof_O 	O 	0.37973	0.96147	0.46347	-0.15
Mof_O 	O 	0.34453	0.91797	0.43287	-2.293
Mof_C 	C 	0.34863	0.02537	0.38407	0.017
Mof_C 	C 	0.35373	0.02877	0.41647	-1.311
Mof_H 	H 	0.35543	0.04897	0.42707	0.488
Mof_C 	C 	0.35643	0.00357	0.43367	1.286
Mof_H 	H 	0.36153	0.00717	0.45587	-0.361
Mof_C 	C 	0.35223	0.97567	0.42037	-0.839
Mof_C 	C 	0.34383	0.96857	0.38767	0.363
Mof_H 	H 	0.33863	0.94637	0.37847	-0.219
Mof_C 	C 	0.34343	0.99557	0.36907	-0.641
Mof_H 	H 	0.33963	0.99287	0.34667	0.243
Mof_C 	C 	0.36023	0.95007	0.43937	-1.448
Mof_C 	C 	0.37183	0.09617	0.28857	0.015
Mof_C 	C 	0.39223	0.08257	0.27557	-0.07
Mof_H 	H 	0.39803	0.06787	0.28807	0.068
Mof_C 	C 	0.40393	0.09027	0.24467	0.003
Mof_H 	H 	0.41713	0.08017	0.23567	0.05
Mof_C 	C 	0.39673	0.11297	0.22637	-0.061
Mof_C 	C 	0.37683	0.12657	0.23957	0.004
Mof_H 	H 	0.37133	0.14157	0.22717	0.055
Mof_C 	C 	0.36503	0.11887	0.27027	-0.069
Mof_H 	H 	0.35203	0.12917	0.27927	0.066
Mof_C 	C 	0.40913	0.12147	0.19257	0.317
Mof_C 	C 	0.24113	0.22107	0.51667	0.32
Mof_C 	C 	0.26793	0.23327	0.57087	0.013
Mof_H 	H 	0.28633	0.22957	0.56277	0.043
Mof_C 	C 	0.24153	0.22997	0.55087	-0.072
Mof_C 	C 	0.26863	0.24187	0.60227	-0.074
Mof_H 	H 	0.28763	0.24477	0.61567	0.062
Mof_C 	C 	0.24123	0.24657	0.61477	0.023
Mof_C 	C 	0.21443	0.24297	0.59477	-0.071
Mof_H 	H 	0.19553	0.24577	0.60297	0.069
Mof_C 	C 	0.21483	0.23547	0.56297	0.011
Mof_H 	H 	0.19673	0.23407	0.54927	0.047
Mof_C 	C 	0.24173	0.25537	0.64857	0.118
Mof_C 	C 	0.21333	0.26117	0.69087	0.114
Mof_C 	C 	0.30523	0.29297	0.71297	0.017
Mof_C 	C 	0.18013	0.25547	0.70677	0.036
Mof_C 	C 	0.14753	0.23497	0.69277	-0.096
Mof_H 	H 	0.14583	0.22517	0.67217	0.077
Mof_C 	C 	0.11713	0.22867	0.70887	0.039
Mof_H 	H 	0.09443	0.21207	0.70037	0.041
Mof_C 	C 	0.11873	0.24557	0.73667	-0.105
Mof_C 	C 	0.15173	0.26887	0.74937	0.036
Mof_H 	H 	0.15323	0.28167	0.76827	0.048
Mof_C 	C 	0.18313	0.27407	0.73507	-0.092
Mof_H 	H 	0.20583	0.28967	0.74417	0.075
Mof_C 	C 	0.08753	0.24197	0.75417	0.387
Mof_C 	C 	0.27173	0.27737	0.69477	0.116
Mof_C 	C 	0.30993	0.31467	0.73907	-0.071
Mof_H 	H 	0.29103	0.31827	0.74587	0.069
Mof_C 	C 	0.34203	0.33067	0.75527	0.006
Mof_H 	H 	0.34553	0.34587	0.77297	0.048
Mof_C 	C 	0.36893	0.32477	0.74567	-0.063
Mof_C 	C 	0.36453	0.30287	0.71977	0.003
Mof_H 	H 	0.38323	0.29867	0.71357	0.055
Mof_C 	C 	0.33273	0.28747	0.70307	-0.074
Mof_H 	H 	0.32973	0.27317	0.68487	0.066
Mof_C 	C 	0.40403	0.34207	0.76237	0.306
Mof_C 	C 	0.17503	0.14597	0.45897	0.306
Mof_C 	C 	0.13793	0.11537	0.45997	-0.059
Mof_C 	C 	0.11013	0.11827	0.44627	0.004
Mof_H 	H 	0.11503	0.14007	0.43657	0.055
Mof_C 	C 	0.07583	0.08997	0.44657	-0.071
Mof_H 	H 	0.05693	0.09257	0.43787	0.069
Mof_C 	C 	0.06903	0.05787	0.45947	0.019
Mof_C 	C 	0.09603	0.05427	0.47297	-0.068
Mof_H 	H 	0.09093	0.03197	0.48207	0.068
Mof_C 	C 	0.13113	0.08347	0.47317	0.002
Mof_H 	H 	0.14993	0.08117	0.48247	0.052
Mof_C 	C 	0.03223	0.02687	0.45917	0.118
Mof_O 	O 	0.48933	0.18367	0.15067	0.313
Mof_O 	O 	0.46833	0.21867	0.15867	-0.143
Mof_C 	C 	0.48983	0.20917	0.16637	0.458
Mof_C 	C 	0.52973	0.23607	0.17377	-0.421
Mof_C 	C 	0.55633	0.22717	0.17637	0.119
Mof_C 	C 	0.59123	0.25347	0.18297	-0.021
Mof_C 	C 	0.59953	0.28867	0.18667	0.009
Mof_C 	C 	0.57293	0.29767	0.18437	0.04
Mof_C 	C 	0.53803	0.27137	0.17767	0.028
Mof_N 	N 	0.64543	0.35197	0.18667	-0.119
Mof_C 	C 	0.63923	0.31877	0.18667	0.092
Mof_O 	O 	0.35333	0.93067	0.44867	1.4
Mof_O 	O 	0.32533	0.90107	0.40457	-0.393
Mof_C 	C 	0.35133	0.02517	0.38067	0.015
Mof_C 	C 	0.37533	0.01467	0.37097	0.567
Mof_H 	H 	0.39153	0.02657	0.35437	-0.159
Mof_C 	C 	0.37433	0.98487	0.38547	-0.548
Mof_H 	H 	0.39053	0.97737	0.37867	0.21
Mof_C 	C 	0.35033	0.96687	0.40967	0.59
Mof_C 	C 	0.32633	0.97767	0.41957	-0.809
Mof_H 	H 	0.30973	0.96507	0.43617	0.285
Mof_C 	C 	0.32733	0.00717	0.40467	1.033
Mof_H 	H 	0.31073	0.01427	0.41187	-0.273
Mof_C 	C 	0.34233	0.93167	0.41867	2.319
Mof_O 	O 	0.48393	0.15517	0.13207	-0.391
Mof_O 	O 	0.46643	0.19007	0.15057	-0.578
Mof_C 	C 	0.49093	0.18337	0.14617	-0.392
Mof_C 	C 	0.52973	0.21457	0.14917	0.026
Mof_C 	C 	0.55913	0.21017	0.14457	-0.007
Mof_C 	C 	0.59343	0.23917	0.14767	0.003
Mof_C 	C 	0.59833	0.27267	0.15537	0.018
Mof_C 	C 	0.56893	0.27707	0.15997	-0.093
Mof_C 	C 	0.53463	0.24797	0.15687	0.302
Mof_N 	N 	0.63573	0.33597	0.15517	-0.124
Mof_C 	C 	0.63613	0.30557	0.15517	0.112
Mof_In	In	0.46625	0.37272	0.79099	2.556
Mof_In	In	0.52917	0.62494	0.46729	2.715
Mof_O 	O 	0.4889	0.4322	0.7889	-0.496
Mof_O 	O 	0.4885	0.4048	0.7449	-0.496
Mof_O 	O 	0.5552	0.6511	0.5149	-0.534
Mof_O 	O 	0.5279	0.593	0.5092	-0.529
Mof_O 	O 	0.4436	0.3307	0.8303	-0.501
Mof_O 	O 	0.4574	0.3855	0.8412	-0.498
Mof_O 	O 	0.4509	0.1757	0.0807	-0.353
Mof_O 	O 	0.4045	0.1623	0.1101	-0.608
Mof_O 	O 	0.2985	0.3772	0.1148	-0.49
Mof_O 	O 	0.3353	0.4278	0.0911	-0.498
Mof_O 	O 	0.522	0.3877	0.8079	-0.497
Mof_O 	O 	0.4933	0.3419	0.7756	-0.486
Mof_N 	N 	0.5936	0.5968	0.7149	-0.143
Mof_N 	N 	0.5607	0.5719	0.6677	-0.143
Mof_N 	N 	0.606	0.6325	0.6692	-0.143
Mof_N 	N 	0.4159	0.2939	0.9946	-0.143
Mof_N 	N 	0.3915	0.3014	0.0424	-0.14
Mof_N 	N 	0.3998	0.3384	0.9979	-0.146
Mof_N 	N 	0.6326	0.3049	0.7926	-0.143
Mof_C 	C 	0.4961	0.433	0.7591	0.318
Mof_C 	C 	0.5147	0.4683	0.7435	-0.072
Mof_C 	C 	0.5162	0.4707	0.7109	0.01
Mof_H 	H 	0.5059	0.4496	0.6983	0.045
Mof_C 	C 	0.5327	0.5039	0.6961	-0.076
Mof_H 	H 	0.5329	0.5053	0.6734	0.069
Mof_C 	C 	0.5487	0.5342	0.7134	0.023
Mof_C 	C 	0.5479	0.5327	0.7464	-0.074
Mof_H 	H 	0.559	0.5539	0.7588	0.064
Mof_C 	C 	0.5302	0.4989	0.7612	0.01
Mof_H 	H 	0.529	0.4973	0.7838	0.052
Mof_C 	C 	0.5683	0.5695	0.6978	0.117
Mof_C 	C 	0.6122	0.6274	0.6996	0.114
Mof_C 	C 	0.5787	0.6042	0.6544	0.117
Mof_O 	O 	0.7052	0.7516	0.7968	-0.15
Mof_O 	O 	0.7487	0.7599	0.7662	-2.294
Mof_C 	C 	0.6413	0.6566	0.7174	0.017
Mof_C 	C 	0.6379	0.6583	0.7498	-1.311
Mof_H 	H 	0.6177	0.6398	0.7604	0.488
Mof_C 	C 	0.6631	0.6862	0.767	1.287
Mof_H 	H 	0.6595	0.6877	0.7892	-0.362
Mof_C 	C 	0.691	0.7099	0.7537	-0.84
Mof_C 	C 	0.6981	0.7086	0.721	0.363
Mof_H 	H 	0.7203	0.7256	0.7118	-0.219
Mof_C 	C 	0.6711	0.6812	0.7024	-0.641
Mof_H 	H 	0.6738	0.6801	0.68	0.243
Mof_C 	C 	0.7166	0.7435	0.7727	-1.449
Mof_C 	C 	0.5705	0.609	0.6219	0.015
Mof_C 	C 	0.5841	0.643	0.6089	-0.07
Mof_H 	H 	0.5988	0.6635	0.6214	0.068
Mof_C 	C 	0.5764	0.647	0.578	0.003
Mof_H 	H 	0.5865	0.6703	0.569	0.05
Mof_C 	C 	0.5537	0.6171	0.5597	-0.061
Mof_C 	C 	0.5401	0.5836	0.5729	0.004
Mof_H 	H 	0.5251	0.5631	0.5605	0.055
Mof_C 	C 	0.5478	0.5795	0.6036	-0.069
Mof_H 	H 	0.5375	0.5562	0.6126	0.066
Mof_C 	C 	0.5452	0.621	0.5259	0.317
Mof_C 	C 	0.4456	0.3534	0.85	0.32
Mof_C 	C 	0.4334	0.368	0.9042	0.013
Mof_H 	H 	0.4371	0.3901	0.8961	0.043
Mof_C 	C 	0.4367	0.3449	0.8842	-0.072
Mof_C 	C 	0.4248	0.3601	0.9356	-0.074
Mof_H 	H 	0.4219	0.3762	0.949	0.062
Mof_C 	C 	0.4201	0.328	0.9481	0.023
Mof_C 	C 	0.4237	0.3048	0.9281	-0.071
Mof_H 	H 	0.4209	0.2831	0.9363	0.069
Mof_C 	C 	0.4312	0.3127	0.8963	0.011
Mof_H 	H 	0.4326	0.296	0.8826	0.047
Mof_C 	C 	0.4113	0.3197	0.9819	0.118
Mof_C 	C 	0.4055	0.2855	0.0242	0.114
Mof_C 	C 	0.3737	0.3456	0.0463	0.017
Mof_C 	C 	0.4112	0.258	0.0401	0.036
Mof_C 	C 	0.4317	0.2459	0.0261	-0.096
Mof_H 	H 	0.4415	0.254	0.0055	0.077
Mof_C 	C 	0.438	0.2218	0.0422	0.039
Mof_H 	H 	0.4546	0.2157	0.0337	0.04
Mof_C 	C 	0.4211	0.2065	0.07	-0.105
Mof_C 	C 	0.3978	0.2162	0.0827	0.036
Mof_H 	H 	0.385	0.2049	0.1016	0.048
Mof_C 	C 	0.3926	0.2424	0.0684	-0.092
Mof_H 	H 	0.377	0.2495	0.0775	0.075
Mof_C 	C 	0.4247	0.1789	0.0875	0.387
Mof_C 	C 	0.3893	0.3277	0.0281	0.116
Mof_C 	C 	0.352	0.3286	0.0724	-0.071
Mof_H 	H 	0.3484	0.3061	0.0792	0.069
Mof_C 	C 	0.336	0.3447	0.0886	0.006
Mof_H 	H 	0.3208	0.333	0.1063	0.048
Mof_C 	C 	0.3419	0.3775	0.079	-0.063
Mof_C 	C 	0.3638	0.395	0.0531	0.003
Mof_H 	H 	0.368	0.4179	0.0469	0.055
Mof_C 	C 	0.3792	0.3786	0.0364	-0.074
Mof_H 	H 	0.3935	0.3899	0.0182	0.066
Mof_C 	C 	0.3246	0.3953	0.0957	0.306
Mof_C 	C 	0.5207	0.3624	0.7923	0.306
Mof_C 	C 	0.5513	0.3559	0.7933	-0.059
Mof_C 	C 	0.5484	0.3252	0.7796	0.004
Mof_H 	H 	0.5266	0.3083	0.7699	0.055
Mof_C 	C 	0.5767	0.3192	0.7799	-0.071
Mof_H 	H 	0.5741	0.2977	0.7712	0.069
Mof_C 	C 	0.6088	0.3445	0.7928	0.019
Mof_C 	C 	0.6124	0.3751	0.8063	-0.068
Mof_H 	H 	0.6347	0.3923	0.8154	0.068
Mof_C 	C 	0.5832	0.381	0.8065	0.002
Mof_H 	H 	0.5855	0.4021	0.8158	0.052
Mof_C 	C 	0.6398	0.3387	0.7925	0.118
Mof_O 	O 	0.483	0.639	0.484	0.313
Mof_O 	O 	0.448	0.583	0.492	-0.143
Mof_C 	C 	0.4575	0.614	0.4997	0.458
Mof_C 	C 	0.4306	0.627	0.5071	-0.421
Mof_C 	C 	0.4395	0.6625	0.5097	0.119
Mof_C 	C 	0.4132	0.6711	0.5163	-0.021
Mof_C 	C 	0.378	0.6442	0.52	0.009
Mof_C 	C 	0.369	0.6086	0.5177	0.04
Mof_C 	C 	0.3953	0.6	0.511	0.028
Mof_N 	N 	0.3147	0.6268	0.52	-0.119
Mof_C 	C 	0.3479	0.6538	0.52	0.092
Mof_O 	O 	0.736	0.756	0.782	1.401
Mof_O 	O 	0.7656	0.7576	0.7379	-0.393
Mof_C 	C 	0.6415	0.6595	0.714	0.015
Mof_C 	C 	0.652	0.694	0.7043	0.567
Mof_H 	H 	0.6401	0.6983	0.6877	-0.159
Mof_C 	C 	0.6818	0.7228	0.7188	-0.548
Mof_H 	H 	0.6893	0.7465	0.712	0.21
Mof_C 	C 	0.6998	0.7168	0.743	0.59
Mof_C 	C 	0.689	0.682	0.7529	-0.809
Mof_H 	H 	0.7016	0.678	0.7695	0.285
Mof_C 	C 	0.6595	0.6535	0.738	1.034
Mof_H 	H 	0.6524	0.6298	0.7452	-0.273
Mof_C 	C 	0.735	0.744	0.752	2.32
Mof_O 	O 	0.5115	0.6621	0.4654	-0.391
Mof_O 	O 	0.4766	0.6097	0.4839	-0.578
Mof_C 	C 	0.4833	0.6409	0.4795	-0.392
Mof_C 	C 	0.4521	0.6485	0.4825	0.026
Mof_C 	C 	0.4565	0.6823	0.4779	-0.007
Mof_C 	C 	0.4275	0.6876	0.481	0.003
Mof_C 	C 	0.394	0.659	0.4887	0.018
Mof_C 	C 	0.3896	0.6252	0.4933	-0.093
Mof_C 	C 	0.4187	0.62	0.4902	0.302
Mof_N 	N 	0.3307	0.6331	0.4885	-0.124
Mof_C 	C 	0.3611	0.6639	0.4885	0.112
Mof_In	In	0.13292	0.70605	0.12432	2.556
Mof_In	In	0.19584	0.95827	0.80062	2.716
Mof_O 	O 	0.15557	0.76553	0.12223	-0.496
Mof_O 	O 	0.15517	0.73813	0.07823	-0.496
Mof_O 	O 	0.22187	0.98443	0.84823	-0.534
Mof_O 	O 	0.19457	0.92633	0.84253	-0.529
Mof_O 	O 	0.11027	0.66403	0.16363	-0.501
Mof_O 	O 	0.12407	0.71883	0.17453	-0.498
Mof_O 	O 	0.11757	0.50903	0.41403	-0.353
Mof_O 	O 	0.07117	0.49563	0.44343	-0.608
Mof_O 	O 	0.96517	0.71053	0.44813	-0.49
Mof_O 	O 	0.00197	0.76113	0.42443	-0.497
Mof_O 	O 	0.18867	0.72103	0.14123	-0.497
Mof_O 	O 	0.15997	0.67523	0.10893	-0.486
Mof_N 	N 	0.26027	0.93013	0.04823	-0.143
Mof_N 	N 	0.22737	0.90523	0.00103	-0.143
Mof_N 	N 	0.27267	0.96583	0.00253	-0.143
Mof_N 	N 	0.08257	0.62723	0.32793	-0.143
Mof_N 	N 	0.05817	0.63473	0.37573	-0.14
Mof_N 	N 	0.06647	0.67173	0.33123	-0.146
Mof_N 	N 	0.29927	0.63823	0.12593	-0.143
Mof_C 	C 	0.16277	0.76633	0.09243	0.318
Mof_C 	C 	0.18137	0.80163	0.07683	-0.072
Mof_C 	C 	0.18287	0.80403	0.04423	0.01
Mof_H 	H 	0.17257	0.78293	0.03163	0.045
Mof_C 	C 	0.19937	0.83723	0.02943	-0.076
Mof_H 	H 	0.19957	0.83863	0.00673	0.069
Mof_C 	C 	0.21537	0.86753	0.04673	0.023
Mof_C 	C 	0.21457	0.86603	0.07973	-0.074
Mof_H 	H 	0.22567	0.88723	0.09213	0.064
Mof_C 	C 	0.19687	0.83223	0.09453	0.01
Mof_H 	H 	0.19567	0.83063	0.11713	0.052
Mof_C 	C 	0.23497	0.90283	0.03113	0.117
Mof_C 	C 	0.27887	0.96073	0.03293	0.114
Mof_C 	C 	0.24537	0.93753	0.98773	0.117
Mof_O 	O 	0.37187	0.08493	0.13013	-0.15
Mof_O 	O 	0.41537	0.09323	0.09953	-2.293
Mof_C 	C 	0.30797	0.98993	0.05073	0.017
Mof_C 	C 	0.30457	0.99163	0.08313	-1.311
Mof_H 	H 	0.28437	0.97313	0.09373	0.488
Mof_C 	C 	0.32977	0.01953	0.10033	1.286
Mof_H 	H 	0.32617	0.02103	0.12253	-0.362
Mof_C 	C 	0.35767	0.04323	0.08703	-0.839
Mof_C 	C 	0.36477	0.04193	0.05433	0.363
Mof_H 	H 	0.38697	0.05893	0.04513	-0.219
Mof_C 	C 	0.33777	0.01453	0.03573	-0.641
Mof_H 	H 	0.34047	0.01343	0.01333	0.243
Mof_C 	C 	0.38327	0.07683	0.10603	-1.449
Mof_C 	C 	0.23717	0.94233	0.95523	0.015
Mof_C 	C 	0.25077	0.97633	0.94223	-0.07
Mof_H 	H 	0.26547	0.99683	0.95473	0.068
Mof_C 	C 	0.24307	0.98033	0.91133	0.003
Mof_H 	H 	0.25317	0.00363	0.90233	0.05
Mof_C 	C 	0.22037	0.95043	0.89303	-0.061
Mof_C 	C 	0.20677	0.91693	0.90623	0.004
Mof_H 	H 	0.19177	0.89643	0.89383	0.055
Mof_C 	C 	0.21447	0.91283	0.93693	-0.069
Mof_H 	H 	0.20417	0.88953	0.94593	0.066
Mof_C 	C 	0.21187	0.95433	0.85923	0.317
Mof_C 	C 	0.11227	0.68673	0.18333	0.32
Mof_C 	C 	0.10007	0.70133	0.23753	0.013
Mof_H 	H 	0.10377	0.72343	0.22943	0.043
Mof_C 	C 	0.10337	0.67823	0.21753	-0.072
Mof_C 	C 	0.09147	0.69343	0.26893	-0.074
Mof_H 	H 	0.08857	0.70953	0.28233	0.062
Mof_C 	C 	0.08677	0.66133	0.28143	0.023
Mof_C 	C 	0.09037	0.63813	0.26143	-0.071
Mof_H 	H 	0.08757	0.61643	0.26963	0.069
Mof_C 	C 	0.09787	0.64603	0.22963	0.011
Mof_H 	H 	0.09927	0.62933	0.21593	0.047
Mof_C 	C 	0.07797	0.65303	0.31523	0.118
Mof_C 	C 	0.07217	0.61883	0.35753	0.114
Mof_C 	C 	0.04037	0.67893	0.37963	0.017
Mof_C 	C 	0.07787	0.59133	0.37343	0.036
Mof_C 	C 	0.09837	0.57923	0.35943	-0.096
Mof_H 	H 	0.10817	0.58733	0.33883	0.077
Mof_C 	C 	0.10467	0.55513	0.37553	0.039
Mof_H 	H 	0.12127	0.54903	0.36703	0.04
Mof_C 	C 	0.08777	0.53983	0.40333	-0.105
Mof_C 	C 	0.06447	0.54953	0.41603	0.036
Mof_H 	H 	0.05167	0.53823	0.43493	0.048
Mof_C 	C 	0.05927	0.57573	0.40173	-0.092
Mof_H 	H 	0.04367	0.58283	0.41083	0.075
Mof_C 	C 	0.09137	0.51223	0.42083	0.387
Mof_C 	C 	0.05597	0.66103	0.36143	0.116
Mof_C 	C 	0.01867	0.66193	0.40573	-0.071
Mof_H 	H 	0.01507	0.63943	0.41253	0.069
Mof_C 	C 	0.00267	0.67803	0.42193	0.006
Mof_H 	H 	0.98747	0.66633	0.43963	0.048
Mof_C 	C 	0.00857	0.71083	0.41233	-0.063
Mof_C 	C 	0.03047	0.72833	0.38643	0.003
Mof_H 	H 	0.03467	0.75123	0.38023	0.055
Mof_C 	C 	0.04587	0.71193	0.36973	-0.074
Mof_H 	H 	0.06017	0.72323	0.35153	0.066
Mof_C 	C 	0.99127	0.72863	0.42903	0.306
Mof_C 	C 	0.18737	0.69573	0.12563	0.306
Mof_C 	C 	0.21797	0.68923	0.12663	-0.059
Mof_C 	C 	0.21507	0.65853	0.11293	0.004
Mof_H 	H 	0.19327	0.64163	0.10323	0.055
Mof_C 	C 	0.24337	0.65253	0.11323	-0.071
Mof_H 	H 	0.24077	0.63103	0.10453	0.069
Mof_C 	C 	0.27547	0.67783	0.12613	0.019
Mof_C 	C 	0.27907	0.70843	0.13963	-0.068
Mof_H 	H 	0.30137	0.72563	0.14873	0.068
Mof_C 	C 	0.24987	0.71433	0.13983	0.002
Mof_H 	H 	0.25217	0.73543	0.14913	0.052
Mof_C 	C 	0.30647	0.67203	0.12583	0.118
Mof_O 	O 	0.14967	0.97233	0.81733	0.313
Mof_O 	O 	0.11467	0.91633	0.82533	-0.143
Mof_C 	C 	0.12417	0.94733	0.83303	0.458
Mof_C 	C 	0.09727	0.96033	0.84043	-0.421
Mof_C 	C 	0.10617	0.99583	0.84303	0.119
Mof_C 	C 	0.07987	0.00443	0.84963	-0.021
Mof_C 	C 	0.04467	0.97753	0.85333	0.009
Mof_C 	C 	0.03567	0.94193	0.85103	0.04
Mof_C 	C 	0.06197	0.93333	0.84433	0.028
Mof_N 	N 	0.98137	0.96013	0.85333	-0.119
Mof_C 	C 	0.01457	0.98713	0.85333	0.092
Mof_O 	O 	0.40267	0.08933	0.11533	1.401
Mof_O 	O 	0.43227	0.09093	0.07123	-0.393
Mof_C 	C 	0.30817	0.99283	0.04733	0.015
Mof_C 	C 	0.31867	0.02733	0.03763	0.567
Mof_H 	H 	0.30677	0.03163	0.02103	-0.159
Mof_C 	C 	0.34847	0.05613	0.05213	-0.548
Mof_H 	H 	0.35597	0.07983	0.04533	0.21
Mof_C 	C 	0.36647	0.05013	0.07633	0.59
Mof_C 	C 	0.35567	0.01533	0.08623	-0.809
Mof_H 	H 	0.36827	0.01133	0.10283	0.285
Mof_C 	C 	0.32617	0.98683	0.07133	1.034
Mof_H 	H 	0.31907	0.96313	0.07853	-0.273
Mof_C 	C 	0.40167	0.07733	0.08533	2.319
Mof_O 	O 	0.17817	0.99543	0.79873	-0.391
Mof_O 	O 	0.14327	0.94303	0.81723	-0.578
Mof_C 	C 	0.14997	0.97423	0.81283	-0.392
Mof_C 	C 	0.11877	0.98183	0.81583	0.026
Mof_C 	C 	0.12317	0.01563	0.81123	-0.007
Mof_C 	C 	0.09417	0.02093	0.81433	0.003
Mof_C 	C 	0.06067	0.99233	0.82203	0.018
Mof_C 	C 	0.05627	0.95853	0.82663	-0.093
Mof_C 	C 	0.08537	0.95333	0.82353	0.302
Mof_N 	N 	0.99737	0.96643	0.82183	-0.124
Mof_C 	C 	0.02777	0.99723	0.82183	0.111
Mof_In	In	0.79958	0.03939	0.45766	2.556
Mof_In	In	0.8625	0.29161	0.13396	2.715
Mof_O 	O 	0.82223	0.09887	0.45557	-0.496
Mof_O 	O 	0.82183	0.07147	0.41157	-0.496
Mof_O 	O 	0.88853	0.31777	0.18157	-0.534
Mof_O 	O 	0.86123	0.25967	0.17587	-0.529
Mof_O 	O 	0.77693	0.99737	0.49697	-0.501
Mof_O 	O 	0.79073	0.05217	0.50787	-0.498
Mof_O 	O 	0.78423	0.84237	0.74737	-0.353
Mof_O 	O 	0.73783	0.82897	0.77677	-0.608
Mof_O 	O 	0.63183	0.04387	0.78147	-0.49
Mof_O 	O 	0.66863	0.09447	0.75777	-0.498
Mof_O 	O 	0.85533	0.05437	0.47457	-0.497
Mof_O 	O 	0.82663	0.00857	0.44227	-0.486
Mof_N 	N 	0.92693	0.26347	0.38157	-0.143
Mof_N 	N 	0.89403	0.23857	0.33437	-0.143
Mof_N 	N 	0.93933	0.29917	0.33587	-0.143
Mof_N 	N 	0.74923	0.96057	0.66127	-0.143
Mof_N 	N 	0.72483	0.96807	0.70907	-0.14
Mof_N 	N 	0.73313	0.00507	0.66457	-0.146
Mof_N 	N 	0.96593	0.97157	0.45927	-0.143
Mof_C 	C 	0.82943	0.09967	0.42577	0.318
Mof_C 	C 	0.84803	0.13497	0.41017	-0.072
Mof_C 	C 	0.84953	0.13737	0.37757	0.01
Mof_H 	H 	0.83923	0.11627	0.36497	0.045
Mof_C 	C 	0.86603	0.17057	0.36277	-0.076
Mof_H 	H 	0.86623	0.17197	0.34007	0.069
Mof_C 	C 	0.88203	0.20087	0.38007	0.023
Mof_C 	C 	0.88123	0.19937	0.41307	-0.074
Mof_H 	H 	0.89233	0.22057	0.42547	0.064
Mof_C 	C 	0.86353	0.16557	0.42787	0.01
Mof_H 	H 	0.86233	0.16397	0.45047	0.052
Mof_C 	C 	0.90163	0.23617	0.36447	0.117
Mof_C 	C 	0.94553	0.29407	0.36627	0.114
Mof_C 	C 	0.91203	0.27087	0.32107	0.117
Mof_O 	O 	0.03853	0.41827	0.46347	-0.15
Mof_O 	O 	0.08203	0.42657	0.43287	-2.294
Mof_C 	C 	0.97463	0.32327	0.38407	0.017
Mof_C 	C 	0.97123	0.32497	0.41647	-1.312
Mof_H 	H 	0.95103	0.30647	0.42707	0.488
Mof_C 	C 	0.99643	0.35287	0.43367	1.287
Mof_H 	H 	0.99283	0.35437	0.45587	-0.362
Mof_C 	C 	0.02433	0.37657	0.42037	-0.84
Mof_C 	C 	0.03143	0.37527	0.38767	0.363
Mof_H 	H 	0.05363	0.39227	0.37847	-0.219
Mof_C 	C 	0.00443	0.34787	0.36907	-0.641
Mof_H 	H 	0.00713	0.34677	0.34667	0.243
Mof_C 	C 	0.04993	0.41017	0.43937	-1.449
Mof_C 	C 	0.90383	0.27567	0.28857	0.015
Mof_C 	C 	0.91743	0.30967	0.27557	-0.07
Mof_H 	H 	0.93213	0.33017	0.28807	0.068
Mof_C 	C 	0.90973	0.31367	0.24467	0.003
Mof_H 	H 	0.91983	0.33697	0.23567	0.05
Mof_C 	C 	0.88703	0.28377	0.22637	-0.061
Mof_C 	C 	0.87343	0.25027	0.23957	0.004
Mof_H 	H 	0.85843	0.22977	0.22717	0.055
Mof_C 	C 	0.88113	0.24617	0.27027	-0.069
Mof_H 	H 	0.87083	0.22287	0.27927	0.066
Mof_C 	C 	0.87853	0.28767	0.19257	0.317
Mof_C 	C 	0.77893	0.02007	0.51667	0.32
Mof_C 	C 	0.76673	0.03467	0.57087	0.013
Mof_H 	H 	0.77043	0.05677	0.56277	0.043
Mof_C 	C 	0.77003	0.01157	0.55087	-0.072
Mof_C 	C 	0.75813	0.02677	0.60227	-0.074
Mof_H 	H 	0.75523	0.04287	0.61567	0.062
Mof_C 	C 	0.75343	0.99467	0.61477	0.023
Mof_C 	C 	0.75703	0.97147	0.59477	-0.071
Mof_H 	H 	0.75423	0.94977	0.60297	0.069
Mof_C 	C 	0.76453	0.97937	0.56297	0.011
Mof_H 	H 	0.76593	0.96267	0.54927	0.047
Mof_C 	C 	0.74463	0.98637	0.64857	0.118
Mof_C 	C 	0.73883	0.95217	0.69087	0.114
Mof_C 	C 	0.70703	0.01227	0.71297	0.017
Mof_C 	C 	0.74453	0.92467	0.70677	0.036
Mof_C 	C 	0.76503	0.91257	0.69277	-0.096
Mof_H 	H 	0.77483	0.92067	0.67217	0.077
Mof_C 	C 	0.77133	0.88847	0.70887	0.039
Mof_H 	H 	0.78793	0.88237	0.70037	0.041
Mof_C 	C 	0.75443	0.87317	0.73667	-0.105
Mof_C 	C 	0.73113	0.88287	0.74937	0.036
Mof_H 	H 	0.71833	0.87157	0.76827	0.048
Mof_C 	C 	0.72593	0.90907	0.73507	-0.092
Mof_H 	H 	0.71033	0.91617	0.74417	0.075
Mof_C 	C 	0.75803	0.84557	0.75417	0.386
Mof_C 	C 	0.72263	0.99437	0.69477	0.116
Mof_C 	C 	0.68533	0.99527	0.73907	-0.071
Mof_H 	H 	0.68173	0.97277	0.74587	0.069
Mof_C 	C 	0.66933	0.01137	0.75527	0.006
Mof_H 	H 	0.65413	0.99967	0.77297	0.048
Mof_C 	C 	0.67523	0.04417	0.74567	-0.063
Mof_C 	C 	0.69713	0.06167	0.71977	0.003
Mof_H 	H 	0.70133	0.08457	0.71357	0.055
Mof_C 	C 	0.71253	0.04527	0.70307	-0.074
Mof_H 	H 	0.72683	0.05657	0.68487	0.066
Mof_C 	C 	0.65793	0.06197	0.76237	0.306
Mof_C 	C 	0.85403	0.02907	0.45897	0.306
Mof_C 	C 	0.88463	0.02257	0.45997	-0.059
Mof_C 	C 	0.88173	0.99187	0.44627	0.004
Mof_H 	H 	0.85993	0.97497	0.43657	0.055
Mof_C 	C 	0.91003	0.98587	0.44657	-0.071
Mof_H 	H 	0.90743	0.96437	0.43787	0.069
Mof_C 	C 	0.94213	0.01117	0.45947	0.019
Mof_C 	C 	0.94573	0.04177	0.47297	-0.068
Mof_H 	H 	0.96803	0.05897	0.48207	0.068
Mof_C 	C 	0.91653	0.04767	0.47317	0.002
Mof_H 	H 	0.91883	0.06877	0.48247	0.052
Mof_C 	C 	0.97313	0.00537	0.45917	0.118
Mof_O 	O 	0.81633	0.30567	0.15067	0.313
Mof_O 	O 	0.78133	0.24967	0.15867	-0.143
Mof_C 	C 	0.79083	0.28067	0.16637	0.458
Mof_C 	C 	0.76393	0.29367	0.17377	-0.421
Mof_C 	C 	0.77283	0.32917	0.17637	0.119
Mof_C 	C 	0.74653	0.33777	0.18297	-0.021
Mof_C 	C 	0.71133	0.31087	0.18667	0.009
Mof_C 	C 	0.70233	0.27527	0.18437	0.04
Mof_C 	C 	0.72863	0.26667	0.17767	0.028
Mof_N 	N 	0.64803	0.29347	0.18667	-0.119
Mof_C 	C 	0.68123	0.32047	0.18667	0.092
Mof_O 	O 	0.06933	0.42267	0.44867	1.401
Mof_O 	O 	0.09893	0.42427	0.40457	-0.393
Mof_C 	C 	0.97483	0.32617	0.38067	0.015
Mof_C 	C 	0.98533	0.36067	0.37097	0.567
Mof_H 	H 	0.97343	0.36497	0.35437	-0.159
Mof_C 	C 	0.01513	0.38947	0.38547	-0.549
Mof_H 	H 	0.02263	0.41317	0.37867	0.21
Mof_C 	C 	0.03313	0.38347	0.40967	0.591
Mof_C 	C 	0.02233	0.34867	0.41957	-0.81
Mof_H 	H 	0.03493	0.34467	0.43617	0.285
Mof_C 	C 	0.99283	0.32017	0.40467	1.034
Mof_H 	H 	0.98573	0.29647	0.41187	-0.273
Mof_C 	C 	0.06833	0.41067	0.41867	2.32
Mof_O 	O 	0.84483	0.32877	0.13207	-0.391
Mof_O 	O 	0.80993	0.27637	0.15057	-0.578
Mof_C 	C 	0.81663	0.30757	0.14617	-0.392
Mof_C 	C 	0.78543	0.31517	0.14917	0.026
Mof_C 	C 	0.78983	0.34897	0.14457	-0.007
Mof_C 	C 	0.76083	0.35427	0.14767	0.003
Mof_C 	C 	0.72733	0.32567	0.15537	0.018
Mof_C 	C 	0.72293	0.29187	0.15997	-0.093
Mof_C 	C 	0.75203	0.28667	0.15687	0.302
Mof_N 	N 	0.66403	0.29977	0.15517	-0.124
Mof_C 	C 	0.69443	0.33057	0.15517	0.112
Mof_In	In	0.37272	0.90647	0.20901	2.556
Mof_In	In	0.62494	0.09577	0.53271	2.715
Mof_O 	O 	0.4322	0.9433	0.2111	-0.496
Mof_O 	O 	0.4048	0.9163	0.2551	-0.496
Mof_O 	O 	0.6511	0.0959	0.4851	-0.534
Mof_O 	O 	0.593	0.0651	0.4908	-0.529
Mof_O 	O 	0.3307	0.8871	0.1697	-0.501
Mof_O 	O 	0.3855	0.9281	0.1588	-0.498
Mof_O 	O 	0.1757	0.7248	0.9193	-0.353
Mof_O 	O 	0.1623	0.7578	0.8899	-0.608
Mof_O 	O 	0.3772	0.0787	0.8852	-0.49
Mof_O 	O 	0.4278	0.0925	0.9089	-0.498
Mof_O 	O 	0.3877	0.8657	0.1921	-0.497
Mof_O 	O 	0.3419	0.8486	0.2244	-0.486
Mof_N 	N 	0.5968	0.0032	0.2851	-0.143
Mof_N 	N 	0.5719	0.0112	0.3323	-0.143
Mof_N 	N 	0.6325	0.0265	0.3308	-0.143
Mof_N 	N 	0.2939	0.878	0.0054	-0.143
Mof_N 	N 	0.3014	0.9099	0.9576	-0.14
Mof_N 	N 	0.3384	0.9386	0.0021	-0.146
Mof_N 	N 	0.3049	0.6723	0.2074	-0.143
Mof_C 	C 	0.433	0.9369	0.2409	0.318
Mof_C 	C 	0.4683	0.9536	0.2565	-0.072
Mof_C 	C 	0.4707	0.9545	0.2891	0.01
Mof_H 	H 	0.4496	0.9437	0.3017	0.045
Mof_C 	C 	0.5039	0.9712	0.3039	-0.076
Mof_H 	H 	0.5053	0.9724	0.3266	0.069
Mof_C 	C 	0.5342	0.9855	0.2866	0.023
Mof_C 	C 	0.5327	0.9848	0.2536	-0.074
Mof_H 	H 	0.5539	0.9949	0.2412	0.064
Mof_C 	C 	0.4989	0.9687	0.2388	0.01
Mof_H 	H 	0.4973	0.9683	0.2162	0.052
Mof_C 	C 	0.5695	0.0012	0.3022	0.116
Mof_C 	C 	0.6274	0.0152	0.3004	0.114
Mof_C 	C 	0.6042	0.0255	0.3456	0.117
Mof_O 	O 	0.7516	0.0464	0.2032	-0.15
Mof_O 	O 	0.7599	0.0112	0.2338	-2.294
Mof_C 	C 	0.6566	0.0153	0.2826	0.017
Mof_C 	C 	0.6583	0.0204	0.2502	-1.312
Mof_H 	H 	0.6398	0.0221	0.2396	0.488
Mof_C 	C 	0.6862	0.0231	0.233	1.287
Mof_H 	H 	0.6877	0.0282	0.2108	-0.362
Mof_C 	C 	0.7099	0.0189	0.2463	-0.84
Mof_C 	C 	0.7086	0.0105	0.279	0.363
Mof_H 	H 	0.7256	0.0053	0.2882	-0.219
Mof_C 	C 	0.6812	0.0101	0.2976	-0.641
Mof_H 	H 	0.6801	0.0063	0.32	0.243
Mof_C 	C 	0.7435	0.0269	0.2273	-1.449
Mof_C 	C 	0.609	0.0385	0.3781	0.015
Mof_C 	C 	0.643	0.0589	0.3911	-0.07
Mof_H 	H 	0.6635	0.0647	0.3786	0.068
Mof_C 	C 	0.647	0.0706	0.422	0.003
Mof_H 	H 	0.6703	0.0838	0.431	0.05
Mof_C 	C 	0.6171	0.0634	0.4403	-0.061
Mof_C 	C 	0.5836	0.0435	0.4271	0.004
Mof_H 	H 	0.5631	0.038	0.4395	0.055
Mof_C 	C 	0.5795	0.0317	0.3964	-0.07
Mof_H 	H 	0.5562	0.0187	0.3874	0.066
Mof_C 	C 	0.621	0.0758	0.4741	0.317
Mof_C 	C 	0.3534	0.9078	0.15	0.32
Mof_C 	C 	0.368	0.9346	0.0958	0.013
Mof_H 	H 	0.3901	0.953	0.1039	0.043
Mof_C 	C 	0.3449	0.9082	0.1158	-0.072
Mof_C 	C 	0.3601	0.9353	0.0644	-0.074
Mof_H 	H 	0.3762	0.9543	0.051	0.062
Mof_C 	C 	0.328	0.9079	0.0519	0.023
Mof_C 	C 	0.3048	0.8811	0.0719	-0.071
Mof_H 	H 	0.2831	0.8622	0.0637	0.069
Mof_C 	C 	0.3127	0.8815	0.1037	0.011
Mof_H 	H 	0.296	0.8634	0.1174	0.047
Mof_C 	C 	0.3197	0.9084	0.0181	0.118
Mof_C 	C 	0.2855	0.88	0.9758	0.114
Mof_C 	C 	0.3456	0.9719	0.9537	0.017
Mof_C 	C 	0.258	0.8468	0.9599	0.036
Mof_C 	C 	0.2459	0.8142	0.9739	-0.096
Mof_H 	H 	0.254	0.8125	0.9945	0.077
Mof_C 	C 	0.2218	0.7838	0.9578	0.039
Mof_H 	H 	0.2157	0.7611	0.9663	0.04
Mof_C 	C 	0.2065	0.7854	0.93	-0.105
Mof_C 	C 	0.2162	0.8184	0.9173	0.036
Mof_H 	H 	0.2049	0.8199	0.8984	0.048
Mof_C 	C 	0.2424	0.8498	0.9316	-0.092
Mof_H 	H 	0.2495	0.8725	0.9225	0.075
Mof_C 	C 	0.1789	0.7542	0.9125	0.387
Mof_C 	C 	0.3277	0.9384	0.9719	0.116
Mof_C 	C 	0.3286	0.9766	0.9276	-0.071
Mof_H 	H 	0.3061	0.9577	0.9208	0.069
Mof_C 	C 	0.3447	0.0087	0.9114	0.006
Mof_H 	H 	0.333	0.0122	0.8937	0.048
Mof_C 	C 	0.3775	0.0356	0.921	-0.063
Mof_C 	C 	0.395	0.0312	0.9469	0.003
Mof_H 	H 	0.4179	0.0499	0.9531	0.055
Mof_C 	C 	0.3786	0.9994	0.9636	-0.075
Mof_H 	H 	0.3899	0.9964	0.9818	0.066
Mof_C 	C 	0.3953	0.0707	0.9043	0.306
Mof_C 	C 	0.3624	0.8417	0.2077	0.306
Mof_C 	C 	0.3559	0.8046	0.2067	-0.059
Mof_C 	C 	0.3252	0.7768	0.2204	0.004
Mof_H 	H 	0.3083	0.7817	0.2301	0.055
Mof_C 	C 	0.3192	0.7425	0.2201	-0.071
Mof_H 	H 	0.2977	0.7236	0.2288	0.069
Mof_C 	C 	0.3445	0.7357	0.2072	0.019
Mof_C 	C 	0.3751	0.7627	0.1937	-0.068
Mof_H 	H 	0.3923	0.7576	0.1846	0.068
Mof_C 	C 	0.381	0.7978	0.1935	0.002
Mof_H 	H 	0.4021	0.8166	0.1842	0.052
Mof_C 	C 	0.3387	0.6989	0.2075	0.118
Mof_O 	O 	0.639	0.156	0.516	0.313
Mof_O 	O 	0.583	0.135	0.508	-0.143
Mof_C 	C 	0.614	0.1565	0.5003	0.458
Mof_C 	C 	0.627	0.1964	0.4929	-0.421
Mof_C 	C 	0.6625	0.223	0.4903	0.119
Mof_C 	C 	0.6711	0.2579	0.4837	-0.021
Mof_C 	C 	0.6442	0.2662	0.48	0.009
Mof_C 	C 	0.6086	0.2396	0.4823	0.04
Mof_C 	C 	0.6	0.2047	0.489	0.028
Mof_N 	N 	0.6268	0.3121	0.48	-0.119
Mof_C 	C 	0.6538	0.3059	0.48	0.092
Mof_O 	O 	0.756	0.02	0.218	1.402
Mof_O 	O 	0.7576	0.992	0.2621	-0.393
Mof_C 	C 	0.6595	0.018	0.286	0.015
Mof_C 	C 	0.694	0.042	0.2957	0.567
Mof_H 	H 	0.6983	0.0582	0.3123	-0.159
Mof_C 	C 	0.7228	0.041	0.2812	-0.549
Mof_H 	H 	0.7465	0.0572	0.288	0.21
Mof_C 	C 	0.7168	0.017	0.257	0.591
Mof_C 	C 	0.682	0.993	0.2471	-0.81
Mof_H 	H 	0.678	0.9764	0.2305	0.285
Mof_C 	C 	0.6535	0.994	0.262	1.034
Mof_H 	H 	0.6298	0.9774	0.2548	-0.273
Mof_C 	C 	0.744	0.009	0.248	2.32
Mof_O 	O 	0.6621	0.1506	0.5346	-0.391
Mof_O 	O 	0.6097	0.1331	0.5161	-0.578
Mof_C 	C 	0.6409	0.1576	0.5205	-0.392
Mof_C 	C 	0.6485	0.1964	0.5175	0.026
Mof_C 	C 	0.6823	0.2258	0.5221	-0.007
Mof_C 	C 	0.6876	0.2601	0.519	0.003
Mof_C 	C 	0.659	0.265	0.5113	0.018
Mof_C 	C 	0.6252	0.2356	0.5067	-0.093
Mof_C 	C 	0.62	0.2013	0.5098	0.302
Mof_N 	N 	0.6331	0.3024	0.5115	-0.124
Mof_C 	C 	0.6639	0.3028	0.5115	0.112
Mof_In	In	0.03939	0.2398	0.54234	2.556
Mof_In	In	0.29161	0.4291	0.86604	2.715
Mof_O 	O 	0.09887	0.27663	0.54443	-0.496
Mof_O 	O 	0.07147	0.24963	0.58843	-0.496
Mof_O 	O 	0.31777	0.42923	0.81843	-0.534
Mof_O 	O 	0.25967	0.39843	0.82413	-0.529
Mof_O 	O 	0.99737	0.22043	0.50303	-0.501
Mof_O 	O 	0.05217	0.26143	0.49213	-0.498
Mof_O 	O 	0.84237	0.05813	0.25263	-0.353
Mof_O 	O 	0.82897	0.09113	0.22323	-0.608
Mof_O 	O 	0.04387	0.41203	0.21853	-0.49
Mof_O 	O 	0.09447	0.42583	0.24223	-0.498
Mof_O 	O 	0.05437	0.19903	0.52543	-0.497
Mof_O 	O 	0.00857	0.18193	0.55773	-0.486
Mof_N 	N 	0.26347	0.33653	0.61843	-0.143
Mof_N 	N 	0.23857	0.34453	0.66563	-0.143
Mof_N 	N 	0.29917	0.35983	0.66413	-0.143
Mof_N 	N 	0.96057	0.21133	0.33873	-0.143
Mof_N 	N 	0.96807	0.24323	0.29093	-0.14
Mof_N 	N 	0.00507	0.27193	0.33543	-0.146
Mof_N 	N 	0.97157	0.00563	0.54073	-0.143
Mof_C 	C 	0.09967	0.27023	0.57423	0.318
Mof_C 	C 	0.13497	0.28693	0.58983	-0.072
Mof_C 	C 	0.13737	0.28783	0.62243	0.01
Mof_H 	H 	0.11627	0.27703	0.63503	0.045
Mof_C 	C 	0.17057	0.30453	0.63723	-0.076
Mof_H 	H 	0.17197	0.30573	0.65993	0.069
Mof_C 	C 	0.20087	0.31883	0.61993	0.023
Mof_C 	C 	0.19937	0.31813	0.58693	-0.074
Mof_H 	H 	0.22057	0.32823	0.57453	0.064
Mof_C 	C 	0.16557	0.30203	0.57213	0.01
Mof_H 	H 	0.16397	0.30163	0.54953	0.052
Mof_C 	C 	0.23617	0.33453	0.63553	0.117
Mof_C 	C 	0.29407	0.34853	0.63373	0.114
Mof_C 	C 	0.27087	0.35883	0.67893	0.117
Mof_O 	O 	0.41827	0.37973	0.53653	-0.15
Mof_O 	O 	0.42657	0.34453	0.56713	-2.294
Mof_C 	C 	0.32327	0.34863	0.61593	0.017
Mof_C 	C 	0.32497	0.35373	0.58353	-1.311
Mof_H 	H 	0.30647	0.35543	0.57293	0.488
Mof_C 	C 	0.35287	0.35643	0.56633	1.287
Mof_H 	H 	0.35437	0.36153	0.54413	-0.362
Mof_C 	C 	0.37657	0.35223	0.57963	-0.84
Mof_C 	C 	0.37527	0.34383	0.61233	0.363
Mof_H 	H 	0.39227	0.33863	0.62153	-0.219
Mof_C 	C 	0.34787	0.34343	0.63093	-0.641
Mof_H 	H 	0.34677	0.33963	0.65333	0.243
Mof_C 	C 	0.41017	0.36023	0.56063	-1.449
Mof_C 	C 	0.27567	0.37183	0.71143	0.015
Mof_C 	C 	0.30967	0.39223	0.72443	-0.07
Mof_H 	H 	0.33017	0.39803	0.71193	0.068
Mof_C 	C 	0.31367	0.40393	0.75533	0.003
Mof_H 	H 	0.33697	0.41713	0.76433	0.05
Mof_C 	C 	0.28377	0.39673	0.77363	-0.061
Mof_C 	C 	0.25027	0.37683	0.76043	0.004
Mof_H 	H 	0.22977	0.37133	0.77283	0.055
Mof_C 	C 	0.24617	0.36503	0.72973	-0.069
Mof_H 	H 	0.22287	0.35203	0.72073	0.066
Mof_C 	C 	0.28767	0.40913	0.80743	0.317
Mof_C 	C 	0.02007	0.24113	0.48333	0.32
Mof_C 	C 	0.03467	0.26793	0.42913	0.013
Mof_H 	H 	0.05677	0.28633	0.43723	0.043
Mof_C 	C 	0.01157	0.24153	0.44913	-0.072
Mof_C 	C 	0.02677	0.26863	0.39773	-0.074
Mof_H 	H 	0.04287	0.28763	0.38433	0.062
Mof_C 	C 	0.99467	0.24123	0.38523	0.022
Mof_C 	C 	0.97147	0.21443	0.40523	-0.071
Mof_H 	H 	0.94977	0.19553	0.39703	0.069
Mof_C 	C 	0.97937	0.21483	0.43703	0.011
Mof_H 	H 	0.96267	0.19673	0.45073	0.047
Mof_C 	C 	0.98637	0.24173	0.35143	0.118
Mof_C 	C 	0.95217	0.21333	0.30913	0.114
Mof_C 	C 	0.01227	0.30523	0.28703	0.017
Mof_C 	C 	0.92467	0.18013	0.29323	0.036
Mof_C 	C 	0.91257	0.14753	0.30723	-0.096
Mof_H 	H 	0.92067	0.14583	0.32783	0.077
Mof_C 	C 	0.88847	0.11713	0.29113	0.039
Mof_H 	H 	0.88237	0.09443	0.29963	0.04
Mof_C 	C 	0.87317	0.11873	0.26333	-0.105
Mof_C 	C 	0.88287	0.15173	0.25063	0.036
Mof_H 	H 	0.87157	0.15323	0.23173	0.048
Mof_C 	C 	0.90907	0.18313	0.26493	-0.092
Mof_H 	H 	0.91617	0.20583	0.25583	0.075
Mof_C 	C 	0.84557	0.08753	0.24583	0.387
Mof_C 	C 	0.99437	0.27173	0.30523	0.116
Mof_C 	C 	0.99527	0.30993	0.26093	-0.071
Mof_H 	H 	0.97277	0.29103	0.25413	0.069
Mof_C 	C 	0.01137	0.34203	0.24473	0.006
Mof_H 	H 	0.99967	0.34553	0.22703	0.048
Mof_C 	C 	0.04417	0.36893	0.25433	-0.063
Mof_C 	C 	0.06167	0.36453	0.28023	0.003
Mof_H 	H 	0.08457	0.38323	0.28643	0.055
Mof_C 	C 	0.04527	0.33273	0.29693	-0.074
Mof_H 	H 	0.05657	0.32973	0.31513	0.066
Mof_C 	C 	0.06197	0.40403	0.23763	0.306
Mof_C 	C 	0.02907	0.17503	0.54103	0.306
Mof_C 	C 	0.02257	0.13793	0.54003	-0.059
Mof_C 	C 	0.99187	0.11013	0.55373	0.004
Mof_H 	H 	0.97497	0.11503	0.56343	0.055
Mof_C 	C 	0.98587	0.07583	0.55343	-0.071
Mof_H 	H 	0.96437	0.05693	0.56213	0.069
Mof_C 	C 	0.01117	0.06903	0.54053	0.019
Mof_C 	C 	0.04177	0.09603	0.52703	-0.068
Mof_H 	H 	0.05897	0.09093	0.51793	0.068
Mof_C 	C 	0.04767	0.13113	0.52683	0.002
Mof_H 	H 	0.06877	0.14993	0.51753	0.052
Mof_C 	C 	0.00537	0.03223	0.54083	0.118
Mof_O 	O 	0.30567	0.48933	0.84933	0.313
Mof_O 	O 	0.24967	0.46833	0.84133	-0.143
Mof_C 	C 	0.28067	0.48983	0.83363	0.458
Mof_C 	C 	0.29367	0.52973	0.82623	-0.421
Mof_C 	C 	0.32917	0.55633	0.82363	0.119
Mof_C 	C 	0.33777	0.59123	0.81703	-0.021
Mof_C 	C 	0.31087	0.59953	0.81333	0.009
Mof_C 	C 	0.27527	0.57293	0.81563	0.04
Mof_C 	C 	0.26667	0.53803	0.82233	0.028
Mof_N 	N 	0.29347	0.64543	0.81333	-0.119
Mof_C 	C 	0.32047	0.63923	0.81333	0.092
Mof_O 	O 	0.42267	0.35333	0.55133	1.401
Mof_O 	O 	0.42427	0.32533	0.59543	-0.393
Mof_C 	C 	0.32617	0.35133	0.61933	0.015
Mof_C 	C 	0.36067	0.37533	0.62903	0.567
Mof_H 	H 	0.36497	0.39153	0.64563	-0.159
Mof_C 	C 	0.38947	0.37433	0.61453	-0.549
Mof_H 	H 	0.41317	0.39053	0.62133	0.21
Mof_C 	C 	0.38347	0.35033	0.59033	0.591
Mof_C 	C 	0.34867	0.32633	0.58043	-0.81
Mof_H 	H 	0.34467	0.30973	0.56383	0.285
Mof_C 	C 	0.32017	0.32733	0.59533	1.034
Mof_H 	H 	0.29647	0.31073	0.58813	-0.273
Mof_C 	C 	0.41067	0.34233	0.58133	2.32
Mof_O 	O 	0.32877	0.48393	0.86793	-0.391
Mof_O 	O 	0.27637	0.46643	0.84943	-0.578
Mof_C 	C 	0.30757	0.49093	0.85383	-0.392
Mof_C 	C 	0.31517	0.52973	0.85083	0.026
Mof_C 	C 	0.34897	0.55913	0.85543	-0.007
Mof_C 	C 	0.35427	0.59343	0.85233	0.003
Mof_C 	C 	0.32567	0.59833	0.84463	0.018
Mof_C 	C 	0.29187	0.56893	0.84003	-0.093
Mof_C 	C 	0.28667	0.53463	0.84313	0.302
Mof_N 	N 	0.29977	0.63573	0.84483	-0.124
Mof_C 	C 	0.33057	0.63613	0.84483	0.112
Mof_In	In	0.70605	0.57314	0.87568	2.556
Mof_In	In	0.95827	0.76244	0.19938	2.716
Mof_O 	O 	0.76553	0.60997	0.87777	-0.496
Mof_O 	O 	0.73813	0.58297	0.92177	-0.496
Mof_O 	O 	0.98443	0.76257	0.15177	-0.534
Mof_O 	O 	0.92633	0.73177	0.15747	-0.529
Mof_O 	O 	0.66403	0.55377	0.83637	-0.501
Mof_O 	O 	0.71883	0.59477	0.82547	-0.498
Mof_O 	O 	0.50903	0.39147	0.58597	-0.353
Mof_O 	O 	0.49563	0.42447	0.55657	-0.608
Mof_O 	O 	0.71053	0.74537	0.55187	-0.49
Mof_O 	O 	0.76113	0.75917	0.57557	-0.498
Mof_O 	O 	0.72103	0.53237	0.85877	-0.497
Mof_O 	O 	0.67523	0.51527	0.89107	-0.486
Mof_N 	N 	0.93013	0.66987	0.95177	-0.143
Mof_N 	N 	0.90523	0.67787	0.99897	-0.143
Mof_N 	N 	0.96583	0.69317	0.99747	-0.143
Mof_N 	N 	0.62723	0.54467	0.67207	-0.143
Mof_N 	N 	0.63473	0.57657	0.62427	-0.14
Mof_N 	N 	0.67173	0.60527	0.66877	-0.146
Mof_N 	N 	0.63823	0.33897	0.87407	-0.143
Mof_C 	C 	0.76633	0.60357	0.90757	0.318
Mof_C 	C 	0.80163	0.62027	0.92317	-0.072
Mof_C 	C 	0.80403	0.62117	0.95577	0.01
Mof_H 	H 	0.78293	0.61037	0.96837	0.045
Mof_C 	C 	0.83723	0.63787	0.97057	-0.076
Mof_H 	H 	0.83863	0.63907	0.99327	0.069
Mof_C 	C 	0.86753	0.65217	0.95327	0.023
Mof_C 	C 	0.86603	0.65147	0.92027	-0.074
Mof_H 	H 	0.88723	0.66157	0.90787	0.064
Mof_C 	C 	0.83223	0.63537	0.90547	0.01
Mof_H 	H 	0.83063	0.63497	0.88287	0.052
Mof_C 	C 	0.90283	0.66787	0.96887	0.117
Mof_C 	C 	0.96073	0.68187	0.96707	0.114
Mof_C 	C 	0.93753	0.69217	0.01227	0.117
Mof_O 	O 	0.08493	0.71307	0.86987	-0.15
Mof_O 	O 	0.09323	0.67787	0.90047	-2.292
Mof_C 	C 	0.98993	0.68197	0.94927	0.017
Mof_C 	C 	0.99163	0.68707	0.91687	-1.311
Mof_H 	H 	0.97313	0.68877	0.90627	0.488
Mof_C 	C 	0.01953	0.68977	0.89967	1.286
Mof_H 	H 	0.02103	0.69487	0.87747	-0.361
Mof_C 	C 	0.04323	0.68557	0.91297	-0.839
Mof_C 	C 	0.04193	0.67717	0.94567	0.363
Mof_H 	H 	0.05893	0.67197	0.95487	-0.219
Mof_C 	C 	0.01453	0.67677	0.96427	-0.641
Mof_H 	H 	0.01343	0.67297	0.98667	0.243
Mof_C 	C 	0.07683	0.69357	0.89397	-1.448
Mof_C 	C 	0.94233	0.70517	0.04477	0.015
Mof_C 	C 	0.97633	0.72557	0.05777	-0.07
Mof_H 	H 	0.99683	0.73137	0.04527	0.068
Mof_C 	C 	0.98033	0.73727	0.08867	0.003
Mof_H 	H 	0.00363	0.75047	0.09767	0.05
Mof_C 	C 	0.95043	0.73007	0.10697	-0.061
Mof_C 	C 	0.91693	0.71017	0.09377	0.004
Mof_H 	H 	0.89643	0.70467	0.10617	0.055
Mof_C 	C 	0.91283	0.69837	0.06307	-0.069
Mof_H 	H 	0.88953	0.68537	0.05407	0.066
Mof_C 	C 	0.95433	0.74247	0.14077	0.317
Mof_C 	C 	0.68673	0.57447	0.81667	0.32
Mof_C 	C 	0.70133	0.60127	0.76247	0.013
Mof_H 	H 	0.72343	0.61967	0.77057	0.043
Mof_C 	C 	0.67823	0.57487	0.78247	-0.072
Mof_C 	C 	0.69343	0.60197	0.73107	-0.074
Mof_H 	H 	0.70953	0.62097	0.71767	0.062
Mof_C 	C 	0.66133	0.57457	0.71857	0.023
Mof_C 	C 	0.63813	0.54777	0.73857	-0.071
Mof_H 	H 	0.61643	0.52887	0.73037	0.069
Mof_C 	C 	0.64603	0.54817	0.77037	0.011
Mof_H 	H 	0.62933	0.53007	0.78407	0.047
Mof_C 	C 	0.65303	0.57507	0.68477	0.118
Mof_C 	C 	0.61883	0.54667	0.64247	0.114
Mof_C 	C 	0.67893	0.63857	0.62037	0.017
Mof_C 	C 	0.59133	0.51347	0.62657	0.036
Mof_C 	C 	0.57923	0.48087	0.64057	-0.096
Mof_H 	H 	0.58733	0.47917	0.66117	0.077
Mof_C 	C 	0.55513	0.45047	0.62447	0.039
Mof_H 	H 	0.54903	0.42777	0.63297	0.041
Mof_C 	C 	0.53983	0.45207	0.59667	-0.105
Mof_C 	C 	0.54953	0.48507	0.58397	0.036
Mof_H 	H 	0.53823	0.48657	0.56507	0.048
Mof_C 	C 	0.57573	0.51647	0.59827	-0.092
Mof_H 	H 	0.58283	0.53917	0.58917	0.075
Mof_C 	C 	0.51223	0.42087	0.57917	0.387
Mof_C 	C 	0.66103	0.60507	0.63857	0.116
Mof_C 	C 	0.66193	0.64327	0.59427	-0.071
Mof_H 	H 	0.63943	0.62437	0.58747	0.069
Mof_C 	C 	0.67803	0.67537	0.57807	0.006
Mof_H 	H 	0.66633	0.67887	0.56037	0.048
Mof_C 	C 	0.71083	0.70227	0.58767	-0.063
Mof_C 	C 	0.72833	0.69787	0.61357	0.003
Mof_H 	H 	0.75123	0.71657	0.61977	0.055
Mof_C 	C 	0.71193	0.66607	0.63027	-0.074
Mof_H 	H 	0.72323	0.66307	0.64847	0.066
Mof_C 	C 	0.72863	0.73737	0.57097	0.306
Mof_C 	C 	0.69573	0.50837	0.87437	0.306
Mof_C 	C 	0.68923	0.47127	0.87337	-0.059
Mof_C 	C 	0.65853	0.44347	0.88707	0.004
Mof_H 	H 	0.64163	0.44837	0.89677	0.055
Mof_C 	C 	0.65253	0.40917	0.88677	-0.071
Mof_H 	H 	0.63103	0.39027	0.89547	0.069
Mof_C 	C 	0.67783	0.40237	0.87387	0.019
Mof_C 	C 	0.70843	0.42937	0.86037	-0.068
Mof_H 	H 	0.72563	0.42427	0.85127	0.068
Mof_C 	C 	0.71433	0.46447	0.86017	0.002
Mof_H 	H 	0.73543	0.48327	0.85087	0.052
Mof_C 	C 	0.67203	0.36557	0.87417	0.118
Mof_O 	O 	0.97233	0.82267	0.18267	0.313
Mof_O 	O 	0.91633	0.80167	0.17467	-0.143
Mof_C 	C 	0.94733	0.82317	0.16697	0.458
Mof_C 	C 	0.96033	0.86307	0.15957	-0.421
Mof_C 	C 	0.99583	0.88967	0.15697	0.119
Mof_C 	C 	0.00443	0.92457	0.15037	-0.021
Mof_C 	C 	0.97753	0.93287	0.14667	0.009
Mof_C 	C 	0.94193	0.90627	0.14897	0.04
Mof_C 	C 	0.93333	0.87137	0.15567	0.028
Mof_N 	N 	0.96013	0.97877	0.14667	-0.119
Mof_C 	C 	0.98713	0.97257	0.14667	0.092
Mof_O 	O 	0.08933	0.68667	0.88467	1.4
Mof_O 	O 	0.09093	0.65867	0.92877	-0.393
Mof_C 	C 	0.99283	0.68467	0.95267	0.015
Mof_C 	C 	0.02733	0.70867	0.96237	0.567
Mof_H 	H 	0.03163	0.72487	0.97897	-0.159
Mof_C 	C 	0.05613	0.70767	0.94787	-0.548
Mof_H 	H 	0.07983	0.72387	0.95467	0.21
Mof_C 	C 	0.05013	0.68367	0.92367	0.59
Mof_C 	C 	0.01533	0.65967	0.91377	-0.809
Mof_H 	H 	0.01133	0.64307	0.89717	0.285
Mof_C 	C 	0.98683	0.66067	0.92867	1.033
Mof_H 	H 	0.96313	0.64407	0.92147	-0.273
Mof_C 	C 	0.07733	0.67567	0.91467	2.319
Mof_O 	O 	0.99543	0.81727	0.20127	-0.391
Mof_O 	O 	0.94303	0.79977	0.18277	-0.578
Mof_C 	C 	0.97423	0.82427	0.18717	-0.392
Mof_C 	C 	0.98183	0.86307	0.18417	0.026
Mof_C 	C 	0.01563	0.89247	0.18877	-0.007
Mof_C 	C 	0.02093	0.92677	0.18567	0.003
Mof_C 	C 	0.99233	0.93167	0.17797	0.018
Mof_C 	C 	0.95853	0.90227	0.17337	-0.093
Mof_C 	C 	0.95333	0.86797	0.17647	0.302
Mof_N 	N 	0.96643	0.96907	0.17817	-0.124
Mof_C 	C 	0.99723	0.96947	0.17817	0.112
Mof_In	In	0.09353	0.46625	0.20901	2.556
Mof_In	In	0.90423	0.52917	0.53271	2.716
Mof_O 	O 	0.0567	0.4889	0.2111	-0.496
Mof_O 	O 	0.0837	0.4885	0.2551	-0.496
Mof_O 	O 	0.9041	0.5552	0.4851	-0.534
Mof_O 	O 	0.9349	0.5279	0.4908	-0.529
Mof_O 	O 	0.1129	0.4436	0.1697	-0.501
Mof_O 	O 	0.0719	0.4574	0.1588	-0.498
Mof_O 	O 	0.2752	0.4509	0.9193	-0.353
Mof_O 	O 	0.2422	0.4045	0.8899	-0.608
Mof_O 	O 	0.9213	0.2985	0.8852	-0.49
Mof_O 	O 	0.9075	0.3353	0.9089	-0.498
Mof_O 	O 	0.1343	0.522	0.1921	-0.497
Mof_O 	O 	0.1514	0.4933	0.2244	-0.486
Mof_N 	N 	0.9968	0.5936	0.2851	-0.143
Mof_N 	N 	0.9888	0.5607	0.3323	-0.143
Mof_N 	N 	0.9735	0.606	0.3308	-0.143
Mof_N 	N 	0.122	0.4159	0.0054	-0.143
Mof_N 	N 	0.0901	0.3915	0.9576	-0.14
Mof_N 	N 	0.0614	0.3998	0.0021	-0.146
Mof_N 	N 	0.3277	0.6326	0.2074	-0.143
Mof_C 	C 	0.0631	0.4961	0.2409	0.318
Mof_C 	C 	0.0464	0.5147	0.2565	-0.072
Mof_C 	C 	0.0455	0.5162	0.2891	0.01
Mof_H 	H 	0.0563	0.5059	0.3017	0.045
Mof_C 	C 	0.0288	0.5327	0.3039	-0.076
Mof_H 	H 	0.0276	0.5329	0.3266	0.069
Mof_C 	C 	0.0145	0.5487	0.2866	0.023
Mof_C 	C 	0.0152	0.5479	0.2536	-0.074
Mof_H 	H 	0.0051	0.559	0.2412	0.064
Mof_C 	C 	0.0313	0.5302	0.2388	0.01
Mof_H 	H 	0.0317	0.529	0.2162	0.052
Mof_C 	C 	0.9988	0.5683	0.3022	0.116
Mof_C 	C 	0.9848	0.6122	0.3004	0.114
Mof_C 	C 	0.9745	0.5787	0.3456	0.117
Mof_O 	O 	0.9536	0.7052	0.2032	-0.15
Mof_O 	O 	0.9888	0.7487	0.2338	-2.293
Mof_C 	C 	0.9847	0.6413	0.2826	0.017
Mof_C 	C 	0.9796	0.6379	0.2502	-1.311
Mof_H 	H 	0.9779	0.6177	0.2396	0.488
Mof_C 	C 	0.9769	0.6631	0.233	1.286
Mof_H 	H 	0.9718	0.6595	0.2108	-0.362
Mof_C 	C 	0.9811	0.691	0.2463	-0.839
Mof_C 	C 	0.9895	0.6981	0.279	0.363
Mof_H 	H 	0.9947	0.7203	0.2882	-0.219
Mof_C 	C 	0.9899	0.6711	0.2976	-0.641
Mof_H 	H 	0.9937	0.6738	0.32	0.243
Mof_C 	C 	0.9731	0.7166	0.2273	-1.448
Mof_C 	C 	0.9615	0.5705	0.3781	0.015
Mof_C 	C 	0.9411	0.5841	0.3911	-0.07
Mof_H 	H 	0.9353	0.5988	0.3786	0.068
Mof_C 	C 	0.9294	0.5764	0.422	0.003
Mof_H 	H 	0.9162	0.5865	0.431	0.05
Mof_C 	C 	0.9366	0.5537	0.4403	-0.061
Mof_C 	C 	0.9565	0.5401	0.4271	0.004
Mof_H 	H 	0.962	0.5251	0.4395	0.055
Mof_C 	C 	0.9683	0.5478	0.3964	-0.069
Mof_H 	H 	0.9813	0.5375	0.3874	0.066
Mof_C 	C 	0.9242	0.5452	0.4741	0.317
Mof_C 	C 	0.0922	0.4456	0.15	0.32
Mof_C 	C 	0.0654	0.4334	0.0958	0.013
Mof_H 	H 	0.047	0.4371	0.1039	0.043
Mof_C 	C 	0.0918	0.4367	0.1158	-0.072
Mof_C 	C 	0.0647	0.4248	0.0644	-0.074
Mof_H 	H 	0.0457	0.4219	0.051	0.062
Mof_C 	C 	0.0921	0.4201	0.0519	0.023
Mof_C 	C 	0.1189	0.4237	0.0719	-0.071
Mof_H 	H 	0.1378	0.4209	0.0637	0.069
Mof_C 	C 	0.1185	0.4312	0.1037	0.011
Mof_H 	H 	0.1366	0.4326	0.1174	0.047
Mof_C 	C 	0.0916	0.4113	0.0181	0.118
Mof_C 	C 	0.12	0.4055	0.9758	0.114
Mof_C 	C 	0.0281	0.3737	0.9537	0.017
Mof_C 	C 	0.1532	0.4112	0.9599	0.036
Mof_C 	C 	0.1858	0.4317	0.9739	-0.096
Mof_H 	H 	0.1875	0.4415	0.9945	0.077
Mof_C 	C 	0.2162	0.438	0.9578	0.039
Mof_H 	H 	0.2389	0.4546	0.9663	0.04
Mof_C 	C 	0.2146	0.4211	0.93	-0.105
Mof_C 	C 	0.1816	0.3978	0.9173	0.036
Mof_H 	H 	0.1801	0.385	0.8984	0.048
Mof_C 	C 	0.1502	0.3926	0.9316	-0.092
Mof_H 	H 	0.1275	0.377	0.9225	0.075
Mof_C 	C 	0.2458	0.4247	0.9125	0.387
Mof_C 	C 	0.0616	0.3893	0.9719	0.116
Mof_C 	C 	0.0234	0.352	0.9276	-0.071
Mof_H 	H 	0.0423	0.3484	0.9208	0.069
Mof_C 	C 	0.9913	0.336	0.9114	0.006
Mof_H 	H 	0.9878	0.3208	0.8937	0.048
Mof_C 	C 	0.9644	0.3419	0.921	-0.063
Mof_C 	C 	0.9688	0.3638	0.9469	0.003
Mof_H 	H 	0.9501	0.368	0.9531	0.055
Mof_C 	C 	0.0006	0.3792	0.9636	-0.074
Mof_H 	H 	0.0036	0.3935	0.9818	0.066
Mof_C 	C 	0.9293	0.3246	0.9043	0.306
Mof_C 	C 	0.1583	0.5207	0.2077	0.306
Mof_C 	C 	0.1954	0.5513	0.2067	-0.059
Mof_C 	C 	0.2232	0.5484	0.2204	0.004
Mof_H 	H 	0.2183	0.5266	0.2301	0.055
Mof_C 	C 	0.2575	0.5767	0.2201	-0.071
Mof_H 	H 	0.2764	0.5741	0.2288	0.069
Mof_C 	C 	0.2643	0.6088	0.2072	0.019
Mof_C 	C 	0.2373	0.6124	0.1937	-0.068
Mof_H 	H 	0.2424	0.6347	0.1846	0.068
Mof_C 	C 	0.2022	0.5832	0.1935	0.002
Mof_H 	H 	0.1834	0.5855	0.1842	0.052
Mof_C 	C 	0.3011	0.6398	0.2075	0.118
Mof_O 	O 	0.844	0.483	0.516	0.313
Mof_O 	O 	0.865	0.448	0.508	-0.143
Mof_C 	C 	0.8435	0.4575	0.5003	0.458
Mof_C 	C 	0.8036	0.4306	0.4929	-0.421
Mof_C 	C 	0.777	0.4395	0.4903	0.119
Mof_C 	C 	0.7421	0.4132	0.4837	-0.021
Mof_C 	C 	0.7338	0.378	0.48	0.009
Mof_C 	C 	0.7604	0.369	0.4823	0.04
Mof_C 	C 	0.7953	0.3953	0.489	0.028
Mof_N 	N 	0.6879	0.3147	0.48	-0.119
Mof_C 	C 	0.6941	0.3479	0.48	0.092
Mof_O 	O 	0.98	0.736	0.218	1.401
Mof_O 	O 	0.008	0.7656	0.2621	-0.393
Mof_C 	C 	0.982	0.6415	0.286	0.015
Mof_C 	C 	0.958	0.652	0.2957	0.567
Mof_H 	H 	0.9418	0.6401	0.3123	-0.159
Mof_C 	C 	0.959	0.6818	0.2812	-0.548
Mof_H 	H 	0.9428	0.6893	0.288	0.21
Mof_C 	C 	0.983	0.6998	0.257	0.59
Mof_C 	C 	0.007	0.689	0.2471	-0.809
Mof_H 	H 	0.0236	0.7016	0.2305	0.285
Mof_C 	C 	0.006	0.6595	0.262	1.034
Mof_H 	H 	0.0226	0.6524	0.2548	-0.273
Mof_C 	C 	0.991	0.735	0.248	2.319
Mof_O 	O 	0.8494	0.5115	0.5346	-0.391
Mof_O 	O 	0.8669	0.4766	0.5161	-0.578
Mof_C 	C 	0.8424	0.4833	0.5205	-0.392
Mof_C 	C 	0.8036	0.4521	0.5175	0.026
Mof_C 	C 	0.7742	0.4565	0.5221	-0.007
Mof_C 	C 	0.7399	0.4275	0.519	0.003
Mof_C 	C 	0.735	0.394	0.5113	0.018
Mof_C 	C 	0.7644	0.3896	0.5067	-0.093
Mof_C 	C 	0.7987	0.4187	0.5098	0.302
Mof_N 	N 	0.6976	0.3307	0.5115	-0.124
Mof_C 	C 	0.6972	0.3611	0.5115	0.112
Mof_In	In	0.7602	0.79958	0.54234	2.556
Mof_In	In	0.5709	0.8625	0.86604	2.715
Mof_O 	O 	0.72337	0.82223	0.54443	-0.496
Mof_O 	O 	0.75037	0.82183	0.58843	-0.496
Mof_O 	O 	0.57077	0.88853	0.81843	-0.534
Mof_O 	O 	0.60157	0.86123	0.82413	-0.529
Mof_O 	O 	0.77957	0.77693	0.50303	-0.501
Mof_O 	O 	0.73857	0.79073	0.49213	-0.498
Mof_O 	O 	0.94187	0.78423	0.25263	-0.353
Mof_O 	O 	0.90887	0.73783	0.22323	-0.608
Mof_O 	O 	0.58797	0.63183	0.21853	-0.49
Mof_O 	O 	0.57417	0.66863	0.24223	-0.498
Mof_O 	O 	0.80097	0.85533	0.52543	-0.497
Mof_O 	O 	0.81807	0.82663	0.55773	-0.486
Mof_N 	N 	0.66347	0.92693	0.61843	-0.143
Mof_N 	N 	0.65547	0.89403	0.66563	-0.143
Mof_N 	N 	0.64017	0.93933	0.66413	-0.143
Mof_N 	N 	0.78867	0.74923	0.33873	-0.143
Mof_N 	N 	0.75677	0.72483	0.29093	-0.14
Mof_N 	N 	0.72807	0.73313	0.33543	-0.146
Mof_N 	N 	0.99437	0.96593	0.54073	-0.143
Mof_C 	C 	0.72977	0.82943	0.57423	0.318
Mof_C 	C 	0.71307	0.84803	0.58983	-0.072
Mof_C 	C 	0.71217	0.84953	0.62243	0.01
Mof_H 	H 	0.72297	0.83923	0.63503	0.045
Mof_C 	C 	0.69547	0.86603	0.63723	-0.076
Mof_H 	H 	0.69427	0.86623	0.65993	0.069
Mof_C 	C 	0.68117	0.88203	0.61993	0.023
Mof_C 	C 	0.68187	0.88123	0.58693	-0.074
Mof_H 	H 	0.67177	0.89233	0.57453	0.064
Mof_C 	C 	0.69797	0.86353	0.57213	0.01
Mof_H 	H 	0.69837	0.86233	0.54953	0.052
Mof_C 	C 	0.66547	0.90163	0.63553	0.117
Mof_C 	C 	0.65147	0.94553	0.63373	0.114
Mof_C 	C 	0.64117	0.91203	0.67893	0.117
Mof_O 	O 	0.62027	0.03853	0.53653	-0.15
Mof_O 	O 	0.65547	0.08203	0.56713	-2.293
Mof_C 	C 	0.65137	0.97463	0.61593	0.017
Mof_C 	C 	0.64627	0.97123	0.58353	-1.311
Mof_H 	H 	0.64457	0.95103	0.57293	0.488
Mof_C 	C 	0.64357	0.99643	0.56633	1.286
Mof_H 	H 	0.63847	0.99283	0.54413	-0.361
Mof_C 	C 	0.64777	0.02433	0.57963	-0.839
Mof_C 	C 	0.65617	0.03143	0.61233	0.363
Mof_H 	H 	0.66137	0.05363	0.62153	-0.219
Mof_C 	C 	0.65657	0.00443	0.63093	-0.641
Mof_H 	H 	0.66037	0.00713	0.65333	0.243
Mof_C 	C 	0.63977	0.04993	0.56063	-1.448
Mof_C 	C 	0.62817	0.90383	0.71143	0.015
Mof_C 	C 	0.60777	0.91743	0.72443	-0.07
Mof_H 	H 	0.60197	0.93213	0.71193	0.068
Mof_C 	C 	0.59607	0.90973	0.75533	0.003
Mof_H 	H 	0.58287	0.91983	0.76433	0.05
Mof_C 	C 	0.60327	0.88703	0.77363	-0.061
Mof_C 	C 	0.62317	0.87343	0.76043	0.004
Mof_H 	H 	0.62867	0.85843	0.77283	0.055
Mof_C 	C 	0.63497	0.88113	0.72973	-0.069
Mof_H 	H 	0.64797	0.87083	0.72073	0.066
Mof_C 	C 	0.59087	0.87853	0.80743	0.317
Mof_C 	C 	0.75887	0.77893	0.48333	0.32
Mof_C 	C 	0.73207	0.76673	0.42913	0.013
Mof_H 	H 	0.71367	0.77043	0.43723	0.043
Mof_C 	C 	0.75847	0.77003	0.44913	-0.072
Mof_C 	C 	0.73137	0.75813	0.39773	-0.074
Mof_H 	H 	0.71237	0.75523	0.38433	0.062
Mof_C 	C 	0.75877	0.75343	0.38523	0.023
Mof_C 	C 	0.78557	0.75703	0.40523	-0.071
Mof_H 	H 	0.80447	0.75423	0.39703	0.069
Mof_C 	C 	0.78517	0.76453	0.43703	0.011
Mof_H 	H 	0.80327	0.76593	0.45073	0.047
Mof_C 	C 	0.75827	0.74463	0.35143	0.118
Mof_C 	C 	0.78667	0.73883	0.30913	0.114
Mof_C 	C 	0.69477	0.70703	0.28703	0.017
Mof_C 	C 	0.81987	0.74453	0.29323	0.036
Mof_C 	C 	0.85247	0.76503	0.30723	-0.096
Mof_H 	H 	0.85417	0.77483	0.32783	0.077
Mof_C 	C 	0.88287	0.77133	0.29113	0.039
Mof_H 	H 	0.90557	0.78793	0.29963	0.041
Mof_C 	C 	0.88127	0.75443	0.26333	-0.105
Mof_C 	C 	0.84827	0.73113	0.25063	0.036
Mof_H 	H 	0.84677	0.71833	0.23173	0.048
Mof_C 	C 	0.81687	0.72593	0.26493	-0.092
Mof_H 	H 	0.79417	0.71033	0.25583	0.075
Mof_C 	C 	0.91247	0.75803	0.24583	0.387
Mof_C 	C 	0.72827	0.72263	0.30523	0.116
Mof_C 	C 	0.69007	0.68533	0.26093	-0.071
Mof_H 	H 	0.70897	0.68173	0.25413	0.069
Mof_C 	C 	0.65797	0.66933	0.24473	0.006
Mof_H 	H 	0.65447	0.65413	0.22703	0.048
Mof_C 	C 	0.63107	0.67523	0.25433	-0.063
Mof_C 	C 	0.63547	0.69713	0.28023	0.003
Mof_H 	H 	0.61677	0.70133	0.28643	0.055
Mof_C 	C 	0.66727	0.71253	0.29693	-0.074
Mof_H 	H 	0.67027	0.72683	0.31513	0.066
Mof_C 	C 	0.59597	0.65793	0.23763	0.306
Mof_C 	C 	0.82497	0.85403	0.54103	0.306
Mof_C 	C 	0.86207	0.88463	0.54003	-0.059
Mof_C 	C 	0.88987	0.88173	0.55373	0.004
Mof_H 	H 	0.88497	0.85993	0.56343	0.055
Mof_C 	C 	0.92417	0.91003	0.55343	-0.071
Mof_H 	H 	0.94307	0.90743	0.56213	0.069
Mof_C 	C 	0.93097	0.94213	0.54053	0.019
Mof_C 	C 	0.90397	0.94573	0.52703	-0.068
Mof_H 	H 	0.90907	0.96803	0.51793	0.068
Mof_C 	C 	0.86887	0.91653	0.52683	0.002
Mof_H 	H 	0.85007	0.91883	0.51753	0.052
Mof_C 	C 	0.96777	0.97313	0.54083	0.118
Mof_O 	O 	0.51067	0.81633	0.84933	0.313
Mof_O 	O 	0.53167	0.78133	0.84133	-0.143
Mof_C 	C 	0.51017	0.79083	0.83363	0.458
Mof_C 	C 	0.47027	0.76393	0.82623	-0.421
Mof_C 	C 	0.44367	0.77283	0.82363	0.119
Mof_C 	C 	0.40877	0.74653	0.81703	-0.021
Mof_C 	C 	0.40047	0.71133	0.81333	0.009
Mof_C 	C 	0.42707	0.70233	0.81563	0.04
Mof_C 	C 	0.46197	0.72863	0.82233	0.028
Mof_N 	N 	0.35457	0.64803	0.81333	-0.119
Mof_C 	C 	0.36077	0.68123	0.81333	0.092
Mof_O 	O 	0.64667	0.06933	0.55133	1.4
Mof_O 	O 	0.67467	0.09893	0.59543	-0.393
Mof_C 	C 	0.64867	0.97483	0.61933	0.015
Mof_C 	C 	0.62467	0.98533	0.62903	0.567
Mof_H 	H 	0.60847	0.97343	0.64563	-0.159
Mof_C 	C 	0.62567	0.01513	0.61453	-0.548
Mof_H 	H 	0.60947	0.02263	0.62133	0.21
Mof_C 	C 	0.64967	0.03313	0.59033	0.59
Mof_C 	C 	0.67367	0.02233	0.58043	-0.809
Mof_H 	H 	0.69027	0.03493	0.56383	0.285
Mof_C 	C 	0.67267	0.99283	0.59533	1.033
Mof_H 	H 	0.68927	0.98573	0.58813	-0.273
Mof_C 	C 	0.65767	0.06833	0.58133	2.319
Mof_O 	O 	0.51607	0.84483	0.86793	-0.391
Mof_O 	O 	0.53357	0.80993	0.84943	-0.578
Mof_C 	C 	0.50907	0.81663	0.85383	-0.392
Mof_C 	C 	0.47027	0.78543	0.85083	0.026
Mof_C 	C 	0.44087	0.78983	0.85543	-0.007
Mof_C 	C 	0.40657	0.76083	0.85233	0.003
Mof_C 	C 	0.40167	0.72733	0.84463	0.018
Mof_C 	C 	0.43107	0.72293	0.84003	-0.093
Mof_C 	C 	0.46537	0.75203	0.84313	0.302
Mof_N 	N 	0.36427	0.66403	0.84483	-0.124
Mof_C 	C 	0.36387	0.69443	0.84483	0.112
Mof_In	In	0.42686	0.13292	0.87568	2.556
Mof_In	In	0.23756	0.19584	0.19938	2.715
Mof_O 	O 	0.39003	0.15557	0.87777	-0.496
Mof_O 	O 	0.41703	0.15517	0.92177	-0.496
Mof_O 	O 	0.23743	0.22187	0.15177	-0.534
Mof_O 	O 	0.26823	0.19457	0.15747	-0.529
Mof_O 	O 	0.44623	0.11027	0.83637	-0.501
Mof_O 	O 	0.40523	0.12407	0.82547	-0.498
Mof_O 	O 	0.60853	0.11757	0.58597	-0.353
Mof_O 	O 	0.57553	0.07117	0.55657	-0.608
Mof_O 	O 	0.25463	0.96517	0.55187	-0.49
Mof_O 	O 	0.24083	0.00197	0.57557	-0.497
Mof_O 	O 	0.46763	0.18867	0.85877	-0.497
Mof_O 	O 	0.48473	0.15997	0.89107	-0.486
Mof_N 	N 	0.33013	0.26027	0.95177	-0.143
Mof_N 	N 	0.32213	0.22737	0.99897	-0.143
Mof_N 	N 	0.30683	0.27267	0.99747	-0.143
Mof_N 	N 	0.45533	0.08257	0.67207	-0.143
Mof_N 	N 	0.42343	0.05817	0.62427	-0.14
Mof_N 	N 	0.39473	0.06647	0.66877	-0.146
Mof_N 	N 	0.66103	0.29927	0.87407	-0.143
Mof_C 	C 	0.39643	0.16277	0.90757	0.318
Mof_C 	C 	0.37973	0.18137	0.92317	-0.072
Mof_C 	C 	0.37883	0.18287	0.95577	0.01
Mof_H 	H 	0.38963	0.17257	0.96837	0.045
Mof_C 	C 	0.36213	0.19937	0.97057	-0.076
Mof_H 	H 	0.36093	0.19957	0.99327	0.069
Mof_C 	C 	0.34783	0.21537	0.95327	0.023
Mof_C 	C 	0.34853	0.21457	0.92027	-0.074
Mof_H 	H 	0.33843	0.22567	0.90787	0.064
Mof_C 	C 	0.36463	0.19687	0.90547	0.01
Mof_H 	H 	0.36503	0.19567	0.88287	0.052
Mof_C 	C 	0.33213	0.23497	0.96887	0.117
Mof_C 	C 	0.31813	0.27887	0.96707	0.114
Mof_C 	C 	0.30783	0.24537	0.01227	0.117
Mof_O 	O 	0.28693	0.37187	0.86987	-0.15
Mof_O 	O 	0.32213	0.41537	0.90047	-2.295
Mof_C 	C 	0.31803	0.30797	0.94927	0.017
Mof_C 	C 	0.31293	0.30457	0.91687	-1.312
Mof_H 	H 	0.31123	0.28437	0.90627	0.489
Mof_C 	C 	0.31023	0.32977	0.89967	1.287
Mof_H 	H 	0.30513	0.32617	0.87747	-0.362
Mof_C 	C 	0.31443	0.35767	0.91297	-0.84
Mof_C 	C 	0.32283	0.36477	0.94567	0.363
Mof_H 	H 	0.32803	0.38697	0.95487	-0.219
Mof_C 	C 	0.32323	0.33777	0.96427	-0.641
Mof_H 	H 	0.32703	0.34047	0.98667	0.243
Mof_C 	C 	0.30643	0.38327	0.89397	-1.45
Mof_C 	C 	0.29483	0.23717	0.04477	0.015
Mof_C 	C 	0.27443	0.25077	0.05777	-0.07
Mof_H 	H 	0.26863	0.26547	0.04527	0.068
Mof_C 	C 	0.26273	0.24307	0.08867	0.003
Mof_H 	H 	0.24953	0.25317	0.09767	0.05
Mof_C 	C 	0.26993	0.22037	0.10697	-0.061
Mof_C 	C 	0.28983	0.20677	0.09377	0.004
Mof_H 	H 	0.29533	0.19177	0.10617	0.055
Mof_C 	C 	0.30163	0.21447	0.06307	-0.069
Mof_H 	H 	0.31463	0.20417	0.05407	0.066
Mof_C 	C 	0.25753	0.21187	0.14077	0.317
Mof_C 	C 	0.42553	0.11227	0.81667	0.32
Mof_C 	C 	0.39873	0.10007	0.76247	0.013
Mof_H 	H 	0.38033	0.10377	0.77057	0.043
Mof_C 	C 	0.42513	0.10337	0.78247	-0.072
Mof_C 	C 	0.39803	0.09147	0.73107	-0.074
Mof_H 	H 	0.37903	0.08857	0.71767	0.062
Mof_C 	C 	0.42543	0.08677	0.71857	0.023
Mof_C 	C 	0.45223	0.09037	0.73857	-0.071
Mof_H 	H 	0.47113	0.08757	0.73037	0.069
Mof_C 	C 	0.45183	0.09787	0.77037	0.011
Mof_H 	H 	0.46993	0.09927	0.78407	0.047
Mof_C 	C 	0.42493	0.07797	0.68477	0.118
Mof_C 	C 	0.45333	0.07217	0.64247	0.114
Mof_C 	C 	0.36143	0.04037	0.62037	0.017
Mof_C 	C 	0.48653	0.07787	0.62657	0.036
Mof_C 	C 	0.51913	0.09837	0.64057	-0.096
Mof_H 	H 	0.52083	0.10817	0.66117	0.077
Mof_C 	C 	0.54953	0.10467	0.62447	0.039
Mof_H 	H 	0.57223	0.12127	0.63297	0.04
Mof_C 	C 	0.54793	0.08777	0.59667	-0.105
Mof_C 	C 	0.51493	0.06447	0.58397	0.036
Mof_H 	H 	0.51343	0.05167	0.56507	0.048
Mof_C 	C 	0.48353	0.05927	0.59827	-0.092
Mof_H 	H 	0.46083	0.04367	0.58917	0.075
Mof_C 	C 	0.57913	0.09137	0.57917	0.387
Mof_C 	C 	0.39493	0.05597	0.63857	0.116
Mof_C 	C 	0.35673	0.01867	0.59427	-0.071
Mof_H 	H 	0.37563	0.01507	0.58747	0.069
Mof_C 	C 	0.32463	0.00267	0.57807	0.006
Mof_H 	H 	0.32113	0.98747	0.56037	0.048
Mof_C 	C 	0.29773	0.00857	0.58767	-0.063
Mof_C 	C 	0.30213	0.03047	0.61357	0.003
Mof_H 	H 	0.28343	0.03467	0.61977	0.055
Mof_C 	C 	0.33393	0.04587	0.63027	-0.074
Mof_H 	H 	0.33693	0.06017	0.64847	0.066
Mof_C 	C 	0.26263	0.99127	0.57097	0.306
Mof_C 	C 	0.49163	0.18737	0.87437	0.306
Mof_C 	C 	0.52873	0.21797	0.87337	-0.059
Mof_C 	C 	0.55653	0.21507	0.88707	0.004
Mof_H 	H 	0.55163	0.19327	0.89677	0.055
Mof_C 	C 	0.59083	0.24337	0.88677	-0.071
Mof_H 	H 	0.60973	0.24077	0.89547	0.069
Mof_C 	C 	0.59763	0.27547	0.87387	0.019
Mof_C 	C 	0.57063	0.27907	0.86037	-0.068
Mof_H 	H 	0.57573	0.30137	0.85127	0.068
Mof_C 	C 	0.53553	0.24987	0.86017	0.002
Mof_H 	H 	0.51673	0.25217	0.85087	0.052
Mof_C 	C 	0.63443	0.30647	0.87417	0.118
Mof_O 	O 	0.17733	0.14967	0.18267	0.313
Mof_O 	O 	0.19833	0.11467	0.17467	-0.143
Mof_C 	C 	0.17683	0.12417	0.16697	0.458
Mof_C 	C 	0.13693	0.09727	0.15957	-0.421
Mof_C 	C 	0.11033	0.10617	0.15697	0.119
Mof_C 	C 	0.07543	0.07987	0.15037	-0.021
Mof_C 	C 	0.06713	0.04467	0.14667	0.009
Mof_C 	C 	0.09373	0.03567	0.14897	0.04
Mof_C 	C 	0.12863	0.06197	0.15567	0.028
Mof_N 	N 	0.02123	0.98137	0.14667	-0.119
Mof_C 	C 	0.02743	0.01457	0.14667	0.092
Mof_O 	O 	0.31333	0.40267	0.88467	1.402
Mof_O 	O 	0.34133	0.43227	0.92877	-0.393
Mof_C 	C 	0.31533	0.30817	0.95267	0.015
Mof_C 	C 	0.29133	0.31867	0.96237	0.568
Mof_H 	H 	0.27513	0.30677	0.97897	-0.159
Mof_C 	C 	0.29233	0.34847	0.94787	-0.549
Mof_H 	H 	0.27613	0.35597	0.95467	0.21
Mof_C 	C 	0.31633	0.36647	0.92367	0.591
Mof_C 	C 	0.34033	0.35567	0.91377	-0.81
Mof_H 	H 	0.35693	0.36827	0.89717	0.286
Mof_C 	C 	0.33933	0.32617	0.92867	1.035
Mof_H 	H 	0.35593	0.31907	0.92147	-0.273
Mof_C 	C 	0.32433	0.40167	0.91467	2.321
Mof_O 	O 	0.18273	0.17817	0.20127	-0.391
Mof_O 	O 	0.20023	0.14327	0.18277	-0.578
Mof_C 	C 	0.17573	0.14997	0.18717	-0.392
Mof_C 	C 	0.13693	0.11877	0.18417	0.026
Mof_C 	C 	0.10753	0.12317	0.18877	-0.007
Mof_C 	C 	0.07323	0.09417	0.18567	0.003
Mof_C 	C 	0.06833	0.06067	0.17797	0.018
Mof_C 	C 	0.09773	0.05627	0.17337	-0.093
Mof_C 	C 	0.13203	0.08537	0.17647	0.302
Mof_N 	N 	0.03093	0.99737	0.17817	-0.124
Mof_C 	C 	0.03053	0.02777	0.17817	0.112
Mof_In	In	0.53375	0.62728	0.20901	2.556
Mof_In	In	0.47083	0.37506	0.53271	2.715
Mof_O 	O 	0.5111	0.5678	0.2111	-0.496
Mof_O 	O 	0.5115	0.5952	0.2551	-0.496
Mof_O 	O 	0.4448	0.3489	0.4851	-0.534
Mof_O 	O 	0.4721	0.407	0.4908	-0.529
Mof_O 	O 	0.5564	0.6693	0.1697	-0.501
Mof_O 	O 	0.5426	0.6145	0.1588	-0.498
Mof_O 	O 	0.5491	0.8243	0.9193	-0.353
Mof_O 	O 	0.5955	0.8377	0.8899	-0.608
Mof_O 	O 	0.7015	0.6228	0.8852	-0.49
Mof_O 	O 	0.6647	0.5722	0.9089	-0.498
Mof_O 	O 	0.478	0.6123	0.1921	-0.497
Mof_O 	O 	0.5067	0.6581	0.2244	-0.486
Mof_N 	N 	0.4064	0.4032	0.2851	-0.143
Mof_N 	N 	0.4393	0.4281	0.3323	-0.143
Mof_N 	N 	0.394	0.3675	0.3308	-0.143
Mof_N 	N 	0.5841	0.7061	0.0054	-0.143
Mof_N 	N 	0.6085	0.6986	0.9576	-0.14
Mof_N 	N 	0.6002	0.6616	0.0021	-0.146
Mof_N 	N 	0.3674	0.6951	0.2074	-0.143
Mof_C 	C 	0.5039	0.567	0.2409	0.318
Mof_C 	C 	0.4853	0.5317	0.2565	-0.072
Mof_C 	C 	0.4838	0.5293	0.2891	0.01
Mof_H 	H 	0.4941	0.5504	0.3017	0.045
Mof_C 	C 	0.4673	0.4961	0.3039	-0.076
Mof_H 	H 	0.4671	0.4947	0.3266	0.069
Mof_C 	C 	0.4513	0.4658	0.2866	0.023
Mof_C 	C 	0.4521	0.4673	0.2536	-0.074
Mof_H 	H 	0.441	0.4461	0.2412	0.064
Mof_C 	C 	0.4698	0.5011	0.2388	0.01
Mof_H 	H 	0.471	0.5027	0.2162	0.052
Mof_C 	C 	0.4317	0.4305	0.3022	0.117
Mof_C 	C 	0.3878	0.3726	0.3004	0.114
Mof_C 	C 	0.4213	0.3958	0.3456	0.117
Mof_O 	O 	0.2948	0.2484	0.2032	-0.15
Mof_O 	O 	0.2513	0.2401	0.2338	-2.294
Mof_C 	C 	0.3587	0.3434	0.2826	0.017
Mof_C 	C 	0.3621	0.3417	0.2502	-1.311
Mof_H 	H 	0.3823	0.3602	0.2396	0.488
Mof_C 	C 	0.3369	0.3138	0.233	1.287
Mof_H 	H 	0.3405	0.3123	0.2108	-0.362
Mof_C 	C 	0.309	0.2901	0.2463	-0.84
Mof_C 	C 	0.3019	0.2914	0.279	0.363
Mof_H 	H 	0.2797	0.2744	0.2882	-0.219
Mof_C 	C 	0.3289	0.3188	0.2976	-0.641
Mof_H 	H 	0.3262	0.3199	0.32	0.243
Mof_C 	C 	0.2834	0.2565	0.2273	-1.449
Mof_C 	C 	0.4295	0.391	0.3781	0.015
Mof_C 	C 	0.4159	0.357	0.3911	-0.07
Mof_H 	H 	0.4012	0.3365	0.3786	0.068
Mof_C 	C 	0.4236	0.353	0.422	0.003
Mof_H 	H 	0.4135	0.3297	0.431	0.05
Mof_C 	C 	0.4463	0.3829	0.4403	-0.061
Mof_C 	C 	0.4599	0.4164	0.4271	0.004
Mof_H 	H 	0.4749	0.4369	0.4395	0.055
Mof_C 	C 	0.4522	0.4205	0.3964	-0.069
Mof_H 	H 	0.4625	0.4438	0.3874	0.066
Mof_C 	C 	0.4548	0.379	0.4741	0.317
Mof_C 	C 	0.5544	0.6466	0.15	0.32
Mof_C 	C 	0.5666	0.632	0.0958	0.013
Mof_H 	H 	0.5629	0.6099	0.1039	0.043
Mof_C 	C 	0.5633	0.6551	0.1158	-0.072
Mof_C 	C 	0.5752	0.6399	0.0644	-0.074
Mof_H 	H 	0.5781	0.6238	0.051	0.062
Mof_C 	C 	0.5799	0.672	0.0519	0.023
Mof_C 	C 	0.5763	0.6952	0.0719	-0.071
Mof_H 	H 	0.5791	0.7169	0.0637	0.069
Mof_C 	C 	0.5688	0.6873	0.1037	0.011
Mof_H 	H 	0.5674	0.704	0.1174	0.047
Mof_C 	C 	0.5887	0.6803	0.0181	0.118
Mof_C 	C 	0.5945	0.7145	0.9758	0.114
Mof_C 	C 	0.6263	0.6544	0.9537	0.017
Mof_C 	C 	0.5888	0.742	0.9599	0.036
Mof_C 	C 	0.5683	0.7541	0.9739	-0.096
Mof_H 	H 	0.5585	0.746	0.9945	0.077
Mof_C 	C 	0.562	0.7782	0.9578	0.039
Mof_H 	H 	0.5454	0.7843	0.9663	0.04
Mof_C 	C 	0.5789	0.7935	0.93	-0.105
Mof_C 	C 	0.6022	0.7838	0.9173	0.036
Mof_H 	H 	0.615	0.7951	0.8984	0.048
Mof_C 	C 	0.6074	0.7576	0.9316	-0.092
Mof_H 	H 	0.623	0.7505	0.9225	0.075
Mof_C 	C 	0.5753	0.8211	0.9125	0.387
Mof_C 	C 	0.6107	0.6723	0.9719	0.116
Mof_C 	C 	0.648	0.6714	0.9276	-0.071
Mof_H 	H 	0.6516	0.6939	0.9208	0.069
Mof_C 	C 	0.664	0.6553	0.9114	0.006
Mof_H 	H 	0.6792	0.667	0.8937	0.048
Mof_C 	C 	0.6581	0.6225	0.921	-0.063
Mof_C 	C 	0.6362	0.605	0.9469	0.003
Mof_H 	H 	0.632	0.5821	0.9531	0.055
Mof_C 	C 	0.6208	0.6214	0.9636	-0.074
Mof_H 	H 	0.6065	0.6101	0.9818	0.066
Mof_C 	C 	0.6754	0.6047	0.9043	0.306
Mof_C 	C 	0.4793	0.6376	0.2077	0.306
Mof_C 	C 	0.4487	0.6441	0.2067	-0.059
Mof_C 	C 	0.4516	0.6748	0.2204	0.004
Mof_H 	H 	0.4734	0.6917	0.2301	0.055
Mof_C 	C 	0.4233	0.6808	0.2201	-0.071
Mof_H 	H 	0.4259	0.7023	0.2288	0.069
Mof_C 	C 	0.3912	0.6555	0.2072	0.019
Mof_C 	C 	0.3876	0.6249	0.1937	-0.068
Mof_H 	H 	0.3653	0.6077	0.1846	0.068
Mof_C 	C 	0.4168	0.619	0.1935	0.002
Mof_H 	H 	0.4145	0.5979	0.1842	0.052
Mof_C 	C 	0.3602	0.6613	0.2075	0.118
Mof_O 	O 	0.517	0.361	0.516	0.313
Mof_O 	O 	0.552	0.417	0.508	-0.143
Mof_C 	C 	0.5425	0.386	0.5003	0.458
Mof_C 	C 	0.5694	0.373	0.4929	-0.421
Mof_C 	C 	0.5605	0.3375	0.4903	0.119
Mof_C 	C 	0.5868	0.3289	0.4837	-0.021
Mof_C 	C 	0.622	0.3558	0.48	0.009
Mof_C 	C 	0.631	0.3914	0.4823	0.04
Mof_C 	C 	0.6047	0.4	0.489	0.028
Mof_N 	N 	0.6853	0.3732	0.48	-0.119
Mof_C 	C 	0.6521	0.3462	0.48	0.092
Mof_O 	O 	0.264	0.244	0.218	1.401
Mof_O 	O 	0.2344	0.2424	0.2621	-0.393
Mof_C 	C 	0.3585	0.3405	0.286	0.015
Mof_C 	C 	0.348	0.306	0.2957	0.567
Mof_H 	H 	0.3599	0.3017	0.3123	-0.159
Mof_C 	C 	0.3182	0.2772	0.2812	-0.548
Mof_H 	H 	0.3107	0.2535	0.288	0.21
Mof_C 	C 	0.3002	0.2832	0.257	0.59
Mof_C 	C 	0.311	0.318	0.2471	-0.809
Mof_H 	H 	0.2984	0.322	0.2305	0.285
Mof_C 	C 	0.3405	0.3465	0.262	1.034
Mof_H 	H 	0.3476	0.3702	0.2548	-0.273
Mof_C 	C 	0.265	0.256	0.248	2.32
Mof_O 	O 	0.4885	0.3379	0.5346	-0.391
Mof_O 	O 	0.5234	0.3903	0.5161	-0.578
Mof_C 	C 	0.5167	0.3591	0.5205	-0.392
Mof_C 	C 	0.5479	0.3515	0.5175	0.026
Mof_C 	C 	0.5435	0.3177	0.5221	-0.007
Mof_C 	C 	0.5725	0.3124	0.519	0.003
Mof_C 	C 	0.606	0.341	0.5113	0.018
Mof_C 	C 	0.6104	0.3748	0.5067	-0.093
Mof_C 	C 	0.5813	0.38	0.5098	0.302
Mof_N 	N 	0.6693	0.3669	0.5115	-0.124
Mof_C 	C 	0.6389	0.3361	0.5115	0.112
Mof_In	In	0.20042	0.96061	0.54234	2.556
Mof_In	In	0.1375	0.70839	0.86604	2.715
Mof_O 	O 	0.17777	0.90113	0.54443	-0.496
Mof_O 	O 	0.17817	0.92853	0.58843	-0.496
Mof_O 	O 	0.11147	0.68223	0.81843	-0.534
Mof_O 	O 	0.13877	0.74033	0.82413	-0.529
Mof_O 	O 	0.22307	0.00263	0.50303	-0.501
Mof_O 	O 	0.20927	0.94783	0.49213	-0.498
Mof_O 	O 	0.21577	0.15763	0.25263	-0.353
Mof_O 	O 	0.26217	0.17103	0.22323	-0.608
Mof_O 	O 	0.36817	0.95613	0.21853	-0.49
Mof_O 	O 	0.33137	0.90553	0.24223	-0.498
Mof_O 	O 	0.14467	0.94563	0.52543	-0.497
Mof_O 	O 	0.17337	0.99143	0.55773	-0.486
Mof_N 	N 	0.07307	0.73653	0.61843	-0.143
Mof_N 	N 	0.10597	0.76143	0.66563	-0.143
Mof_N 	N 	0.06067	0.70083	0.66413	-0.143
Mof_N 	N 	0.25077	0.03943	0.33873	-0.143
Mof_N 	N 	0.27517	0.03193	0.29093	-0.14
Mof_N 	N 	0.26687	0.99493	0.33543	-0.146
Mof_N 	N 	0.03407	0.02843	0.54073	-0.143
Mof_C 	C 	0.17057	0.90033	0.57423	0.318
Mof_C 	C 	0.15197	0.86503	0.58983	-0.072
Mof_C 	C 	0.15047	0.86263	0.62243	0.01
Mof_H 	H 	0.16077	0.88373	0.63503	0.045
Mof_C 	C 	0.13397	0.82943	0.63723	-0.076
Mof_H 	H 	0.13377	0.82803	0.65993	0.069
Mof_C 	C 	0.11797	0.79913	0.61993	0.023
Mof_C 	C 	0.11877	0.80063	0.58693	-0.074
Mof_H 	H 	0.10767	0.77943	0.57453	0.064
Mof_C 	C 	0.13647	0.83443	0.57213	0.01
Mof_H 	H 	0.13767	0.83603	0.54953	0.052
Mof_C 	C 	0.09837	0.76383	0.63553	0.117
Mof_C 	C 	0.05447	0.70593	0.63373	0.114
Mof_C 	C 	0.08797	0.72913	0.67893	0.117
Mof_O 	O 	0.96147	0.58173	0.53653	-0.15
Mof_O 	O 	0.91797	0.57343	0.56713	-2.294
Mof_C 	C 	0.02537	0.67673	0.61593	0.017
Mof_C 	C 	0.02877	0.67503	0.58353	-1.312
Mof_H 	H 	0.04897	0.69353	0.57293	0.488
Mof_C 	C 	0.00357	0.64713	0.56633	1.287
Mof_H 	H 	0.00717	0.64563	0.54413	-0.362
Mof_C 	C 	0.97567	0.62343	0.57963	-0.84
Mof_C 	C 	0.96857	0.62473	0.61233	0.363
Mof_H 	H 	0.94637	0.60773	0.62153	-0.219
Mof_C 	C 	0.99557	0.65213	0.63093	-0.641
Mof_H 	H 	0.99287	0.65323	0.65333	0.243
Mof_C 	C 	0.95007	0.58983	0.56063	-1.449
Mof_C 	C 	0.09617	0.72433	0.71143	0.015
Mof_C 	C 	0.08257	0.69033	0.72443	-0.07
Mof_H 	H 	0.06787	0.66983	0.71193	0.068
Mof_C 	C 	0.09027	0.68633	0.75533	0.003
Mof_H 	H 	0.08017	0.66303	0.76433	0.05
Mof_C 	C 	0.11297	0.71623	0.77363	-0.061
Mof_C 	C 	0.12657	0.74973	0.76043	0.004
Mof_H 	H 	0.14157	0.77023	0.77283	0.055
Mof_C 	C 	0.11887	0.75383	0.72973	-0.069
Mof_H 	H 	0.12917	0.77713	0.72073	0.066
Mof_C 	C 	0.12147	0.71233	0.80743	0.317
Mof_C 	C 	0.22107	0.97993	0.48333	0.32
Mof_C 	C 	0.23327	0.96533	0.42913	0.013
Mof_H 	H 	0.22957	0.94323	0.43723	0.043
Mof_C 	C 	0.22997	0.98843	0.44913	-0.072
Mof_C 	C 	0.24187	0.97323	0.39773	-0.074
Mof_H 	H 	0.24477	0.95713	0.38433	0.062
Mof_C 	C 	0.24657	0.00533	0.38523	0.023
Mof_C 	C 	0.24297	0.02853	0.40523	-0.071
Mof_H 	H 	0.24577	0.05023	0.39703	0.069
Mof_C 	C 	0.23547	0.02063	0.43703	0.011
Mof_H 	H 	0.23407	0.03733	0.45073	0.047
Mof_C 	C 	0.25537	0.01363	0.35143	0.118
Mof_C 	C 	0.26117	0.04783	0.30913	0.114
Mof_C 	C 	0.29297	0.98773	0.28703	0.017
Mof_C 	C 	0.25547	0.07533	0.29323	0.036
Mof_C 	C 	0.23497	0.08743	0.30723	-0.096
Mof_H 	H 	0.22517	0.07933	0.32783	0.077
Mof_C 	C 	0.22867	0.11153	0.29113	0.039
Mof_H 	H 	0.21207	0.11763	0.29963	0.041
Mof_C 	C 	0.24557	0.12683	0.26333	-0.105
Mof_C 	C 	0.26887	0.11713	0.25063	0.036
Mof_H 	H 	0.28167	0.12843	0.23173	0.048
Mof_C 	C 	0.27407	0.09093	0.26493	-0.092
Mof_H 	H 	0.28967	0.08383	0.25583	0.075
Mof_C 	C 	0.24197	0.15443	0.24583	0.386
Mof_C 	C 	0.27737	0.00563	0.30523	0.116
Mof_C 	C 	0.31467	0.00473	0.26093	-0.071
Mof_H 	H 	0.31827	0.02723	0.25413	0.069
Mof_C 	C 	0.33067	0.98863	0.24473	0.006
Mof_H 	H 	0.34587	0.00033	0.22703	0.048
Mof_C 	C 	0.32477	0.95583	0.25433	-0.063
Mof_C 	C 	0.30287	0.93833	0.28023	0.003
Mof_H 	H 	0.29867	0.91543	0.28643	0.055
Mof_C 	C 	0.28747	0.95473	0.29693	-0.074
Mof_H 	H 	0.27317	0.94343	0.31513	0.066
Mof_C 	C 	0.34207	0.93803	0.23763	0.306
Mof_C 	C 	0.14597	0.97093	0.54103	0.306
Mof_C 	C 	0.11537	0.97743	0.54003	-0.059
Mof_C 	C 	0.11827	0.00813	0.55373	0.004
Mof_H 	H 	0.14007	0.02503	0.56343	0.055
Mof_C 	C 	0.08997	0.01413	0.55343	-0.071
Mof_H 	H 	0.09257	0.03563	0.56213	0.069
Mof_C 	C 	0.05787	0.98883	0.54053	0.019
Mof_C 	C 	0.05427	0.95823	0.52703	-0.068
Mof_H 	H 	0.03197	0.94103	0.51793	0.068
Mof_C 	C 	0.08347	0.95233	0.52683	0.002
Mof_H 	H 	0.08117	0.93123	0.51753	0.052
Mof_C 	C 	0.02687	0.99463	0.54083	0.118
Mof_O 	O 	0.18367	0.69433	0.84933	0.313
Mof_O 	O 	0.21867	0.75033	0.84133	-0.143
Mof_C 	C 	0.20917	0.71933	0.83363	0.458
Mof_C 	C 	0.23607	0.70633	0.82623	-0.421
Mof_C 	C 	0.22717	0.67083	0.82363	0.119
Mof_C 	C 	0.25347	0.66223	0.81703	-0.021
Mof_C 	C 	0.28867	0.68913	0.81333	0.009
Mof_C 	C 	0.29767	0.72473	0.81563	0.04
Mof_C 	C 	0.27137	0.73333	0.82233	0.028
Mof_N 	N 	0.35197	0.70653	0.81333	-0.119
Mof_C 	C 	0.31877	0.67953	0.81333	0.092
Mof_O 	O 	0.93067	0.57733	0.55133	1.401
Mof_O 	O 	0.90107	0.57573	0.59543	-0.393
Mof_C 	C 	0.02517	0.67383	0.61933	0.015
Mof_C 	C 	0.01467	0.63933	0.62903	0.567
Mof_H 	H 	0.02657	0.63503	0.64563	-0.159
Mof_C 	C 	0.98487	0.61053	0.61453	-0.549
Mof_H 	H 	0.97737	0.58683	0.62133	0.21
Mof_C 	C 	0.96687	0.61653	0.59033	0.591
Mof_C 	C 	0.97767	0.65133	0.58043	-0.81
Mof_H 	H 	0.96507	0.65533	0.56383	0.285
Mof_C 	C 	0.00717	0.67983	0.59533	1.034
Mof_H 	H 	0.01427	0.70353	0.58813	-0.273
Mof_C 	C 	0.93167	0.58933	0.58133	2.32
Mof_O 	O 	0.15517	0.67123	0.86793	-0.391
Mof_O 	O 	0.19007	0.72363	0.84943	-0.578
Mof_C 	C 	0.18337	0.69243	0.85383	-0.392
Mof_C 	C 	0.21457	0.68483	0.85083	0.026
Mof_C 	C 	0.21017	0.65103	0.85543	-0.007
Mof_C 	C 	0.23917	0.64573	0.85233	0.003
Mof_C 	C 	0.27267	0.67433	0.84463	0.018
Mof_C 	C 	0.27707	0.70813	0.84003	-0.093
Mof_C 	C 	0.24797	0.71333	0.84313	0.302
Mof_N 	N 	0.33597	0.70023	0.84483	-0.124
Mof_C 	C 	0.30557	0.66943	0.84483	0.112
Mof_In	In	0.86708	0.29395	0.87568	2.556
Mof_In	In	0.80416	0.04173	0.19938	2.716
Mof_O 	O 	0.84443	0.23447	0.87777	-0.496
Mof_O 	O 	0.84483	0.26187	0.92177	-0.496
Mof_O 	O 	0.77813	0.01557	0.15177	-0.534
Mof_O 	O 	0.80543	0.07367	0.15747	-0.529
Mof_O 	O 	0.88973	0.33597	0.83637	-0.501
Mof_O 	O 	0.87593	0.28117	0.82547	-0.498
Mof_O 	O 	0.88243	0.49097	0.58597	-0.353
Mof_O 	O 	0.92883	0.50437	0.55657	-0.608
Mof_O 	O 	0.03483	0.28947	0.55187	-0.49
Mof_O 	O 	0.99803	0.23887	0.57557	-0.497
Mof_O 	O 	0.81133	0.27897	0.85877	-0.497
Mof_O 	O 	0.84003	0.32477	0.89107	-0.486
Mof_N 	N 	0.73973	0.06987	0.95177	-0.143
Mof_N 	N 	0.77263	0.09477	0.99897	-0.143
Mof_N 	N 	0.72733	0.03417	0.99747	-0.143
Mof_N 	N 	0.91743	0.37277	0.67207	-0.143
Mof_N 	N 	0.94183	0.36527	0.62427	-0.14
Mof_N 	N 	0.93353	0.32827	0.66877	-0.146
Mof_N 	N 	0.70073	0.36177	0.87407	-0.143
Mof_C 	C 	0.83723	0.23367	0.90757	0.318
Mof_C 	C 	0.81863	0.19837	0.92317	-0.072
Mof_C 	C 	0.81713	0.19597	0.95577	0.01
Mof_H 	H 	0.82743	0.21707	0.96837	0.045
Mof_C 	C 	0.80063	0.16277	0.97057	-0.076
Mof_H 	H 	0.80043	0.16137	0.99327	0.069
Mof_C 	C 	0.78463	0.13247	0.95327	0.023
Mof_C 	C 	0.78543	0.13397	0.92027	-0.074
Mof_H 	H 	0.77433	0.11277	0.90787	0.064
Mof_C 	C 	0.80313	0.16777	0.90547	0.01
Mof_H 	H 	0.80433	0.16937	0.88287	0.052
Mof_C 	C 	0.76503	0.09717	0.96887	0.117
Mof_C 	C 	0.72113	0.03927	0.96707	0.114
Mof_C 	C 	0.75463	0.06247	0.01227	0.117
Mof_O 	O 	0.62813	0.91507	0.86987	-0.15
Mof_O 	O 	0.58463	0.90677	0.90047	-2.293
Mof_C 	C 	0.69203	0.01007	0.94927	0.017
Mof_C 	C 	0.69543	0.00837	0.91687	-1.311
Mof_H 	H 	0.71563	0.02687	0.90627	0.488
Mof_C 	C 	0.67023	0.98047	0.89967	1.286
Mof_H 	H 	0.67383	0.97897	0.87747	-0.362
Mof_C 	C 	0.64233	0.95677	0.91297	-0.839
Mof_C 	C 	0.63523	0.95807	0.94567	0.363
Mof_H 	H 	0.61303	0.94107	0.95487	-0.219
Mof_C 	C 	0.66223	0.98547	0.96427	-0.641
Mof_H 	H 	0.65953	0.98657	0.98667	0.243
Mof_C 	C 	0.61673	0.92317	0.89397	-1.449
Mof_C 	C 	0.76283	0.05767	0.04477	0.015
Mof_C 	C 	0.74923	0.02367	0.05777	-0.07
Mof_H 	H 	0.73453	0.00317	0.04527	0.068
Mof_C 	C 	0.75693	0.01967	0.08867	0.003
Mof_H 	H 	0.74683	0.99637	0.09767	0.05
Mof_C 	C 	0.77963	0.04957	0.10697	-0.061
Mof_C 	C 	0.79323	0.08307	0.09377	0.004
Mof_H 	H 	0.80823	0.10357	0.10617	0.055
Mof_C 	C 	0.78553	0.08717	0.06307	-0.069
Mof_H 	H 	0.79583	0.11047	0.05407	0.066
Mof_C 	C 	0.78813	0.04567	0.14077	0.317
Mof_C 	C 	0.88773	0.31327	0.81667	0.32
Mof_C 	C 	0.89993	0.29867	0.76247	0.013
Mof_H 	H 	0.89623	0.27657	0.77057	0.043
Mof_C 	C 	0.89663	0.32177	0.78247	-0.072
Mof_C 	C 	0.90853	0.30657	0.73107	-0.074
Mof_H 	H 	0.91143	0.29047	0.71767	0.062
Mof_C 	C 	0.91323	0.33867	0.71857	0.023
Mof_C 	C 	0.90963	0.36187	0.73857	-0.071
Mof_H 	H 	0.91243	0.38357	0.73037	0.069
Mof_C 	C 	0.90213	0.35397	0.77037	0.011
Mof_H 	H 	0.90073	0.37067	0.78407	0.047
Mof_C 	C 	0.92203	0.34697	0.68477	0.118
Mof_C 	C 	0.92783	0.38117	0.64247	0.114
Mof_C 	C 	0.95963	0.32107	0.62037	0.017
Mof_C 	C 	0.92213	0.40867	0.62657	0.036
Mof_C 	C 	0.90163	0.42077	0.64057	-0.096
Mof_H 	H 	0.89183	0.41267	0.66117	0.077
Mof_C 	C 	0.89533	0.44487	0.62447	0.039
Mof_H 	H 	0.87873	0.45097	0.63297	0.04
Mof_C 	C 	0.91223	0.46017	0.59667	-0.105
Mof_C 	C 	0.93553	0.45047	0.58397	0.036
Mof_H 	H 	0.94833	0.46177	0.56507	0.048
Mof_C 	C 	0.94073	0.42427	0.59827	-0.092
Mof_H 	H 	0.95633	0.41717	0.58917	0.075
Mof_C 	C 	0.90863	0.48777	0.57917	0.387
Mof_C 	C 	0.94403	0.33897	0.63857	0.116
Mof_C 	C 	0.98133	0.33807	0.59427	-0.071
Mof_H 	H 	0.98493	0.36057	0.58747	0.069
Mof_C 	C 	0.99733	0.32197	0.57807	0.006
Mof_H 	H 	0.01253	0.33367	0.56037	0.048
Mof_C 	C 	0.99143	0.28917	0.58767	-0.063
Mof_C 	C 	0.96953	0.27167	0.61357	0.003
Mof_H 	H 	0.96533	0.24877	0.61977	0.055
Mof_C 	C 	0.95413	0.28807	0.63027	-0.074
Mof_H 	H 	0.93983	0.27677	0.64847	0.066
Mof_C 	C 	0.00873	0.27137	0.57097	0.306
Mof_C 	C 	0.81263	0.30427	0.87437	0.306
Mof_C 	C 	0.78203	0.31077	0.87337	-0.059
Mof_C 	C 	0.78493	0.34147	0.88707	0.004
Mof_H 	H 	0.80673	0.35837	0.89677	0.055
Mof_C 	C 	0.75663	0.34747	0.88677	-0.071
Mof_H 	H 	0.75923	0.36897	0.89547	0.069
Mof_C 	C 	0.72453	0.32217	0.87387	0.019
Mof_C 	C 	0.72093	0.29157	0.86037	-0.068
Mof_H 	H 	0.69863	0.27437	0.85127	0.068
Mof_C 	C 	0.75013	0.28567	0.86017	0.002
Mof_H 	H 	0.74783	0.26457	0.85087	0.052
Mof_C 	C 	0.69353	0.32797	0.87417	0.118
Mof_O 	O 	0.85033	0.02767	0.18267	0.313
Mof_O 	O 	0.88533	0.08367	0.17467	-0.143
Mof_C 	C 	0.87583	0.05267	0.16697	0.458
Mof_C 	C 	0.90273	0.03967	0.15957	-0.421
Mof_C 	C 	0.89383	0.00417	0.15697	0.119
Mof_C 	C 	0.92013	0.99557	0.15037	-0.021
Mof_C 	C 	0.95533	0.02247	0.14667	0.009
Mof_C 	C 	0.96433	0.05807	0.14897	0.04
Mof_C 	C 	0.93803	0.06667	0.15567	0.028
Mof_N 	N 	0.01863	0.03987	0.14667	-0.119
Mof_C 	C 	0.98543	0.01287	0.14667	0.092
Mof_O 	O 	0.59733	0.91067	0.88467	1.401
Mof_O 	O 	0.56773	0.90907	0.92877	-0.393
Mof_C 	C 	0.69183	0.00717	0.95267	0.015
Mof_C 	C 	0.68133	0.97267	0.96237	0.567
Mof_H 	H 	0.69323	0.96837	0.97897	-0.159
Mof_C 	C 	0.65153	0.94387	0.94787	-0.548
Mof_H 	H 	0.64403	0.92017	0.95467	0.21
Mof_C 	C 	0.63353	0.94987	0.92367	0.59
Mof_C 	C 	0.64433	0.98467	0.91377	-0.809
Mof_H 	H 	0.63173	0.98867	0.89717	0.285
Mof_C 	C 	0.67383	0.01317	0.92867	1.034
Mof_H 	H 	0.68093	0.03687	0.92147	-0.273
Mof_C 	C 	0.59833	0.92267	0.91467	2.319
Mof_O 	O 	0.82183	0.00457	0.20127	-0.391
Mof_O 	O 	0.85673	0.05697	0.18277	-0.578
Mof_C 	C 	0.85003	0.02577	0.18717	-0.392
Mof_C 	C 	0.88123	0.01817	0.18417	0.026
Mof_C 	C 	0.87683	0.98437	0.18877	-0.007
Mof_C 	C 	0.90583	0.97907	0.18567	0.003
Mof_C 	C 	0.93933	0.00767	0.17797	0.018
Mof_C 	C 	0.94373	0.04147	0.17337	-0.093
Mof_C 	C 	0.91463	0.04667	0.17647	0.302
Mof_N 	N 	0.00263	0.03357	0.17817	-0.124
Mof_C 	C 	0.97223	0.00277	0.17817	0.111
_end
