data_functionalizedCrystal
_audit_creation_method	'EQeq! by Chris Wilmer'
_symmetry_space_group_name_H-M	'P1'
_symmetry_Int_Tables_number	1
_symmetry_cell_setting	triclinic
loop_
_symmetry_equiv_pos_as_xyz
  x,y,z
_cell_length_a	17.9643
_cell_length_b	18.5924
_cell_length_c	18.5924
_cell_angle_alpha	120
_cell_angle_beta	90
_cell_angle_gamma	90
loop_
_atom_site_label
_atom_site_type_symbol
_atom_site_fract_x
_atom_site_fract_y
_atom_site_fract_z
_atom_site_charge
Mof_Zn	Zn	0.61933	0.09926	0.34221	1.223
Mof_Zn	Zn	0.61933	0.24295	0.90074	1.23
Mof_Zn	Zn	0.61933	0.65779	0.75705	1.225
Mof_Zn	Zn	0.11933	0.90074	0.65779	1.23
Mof_Zn	Zn	0.11933	0.75705	0.09926	1.223
Mof_Zn	Zn	0.11933	0.34221	0.24295	1.225
Mof_Zn	Zn	0.11933	0.24295	0.34221	1.225
Mof_Zn	Zn	0.11933	0.65779	0.90074	1.231
Mof_Zn	Zn	0.11933	0.09926	0.75705	1.224
Mof_Zn	Zn	0.61933	0.75705	0.65779	1.226
Mof_Zn	Zn	0.61933	0.34221	0.09926	1.224
Mof_Zn	Zn	0.61933	0.90074	0.24295	1.231
Mof_Zn	Zn	0.27654	0.34415	0.34415	1.158
Mof_Zn	Zn	0.27654	0	0.65585	1.15
Mof_Zn	Zn	0.27654	0.65585	-0	1.15
Mof_Zn	Zn	0.77654	0.65585	0.65585	1.152
Mof_Zn	Zn	0.77654	2.11397e-17	0.34415	1.143
Mof_Zn	Zn	0.77654	0.34415	-0	1.143
Mof_H 	H 	0.5828	0.2012	0.6466	0.022
Mof_H 	H 	0.3971	0.1236	0.2929	0.006
Mof_H 	H 	0.5828	0.4454	0.7988	0.03
Mof_H 	H 	0.3971	0.1693	0.8764	-0.002
Mof_H 	H 	0.5828	0.3534	0.5546	0.025
Mof_H 	H 	0.3971	0.7071	0.8307	0.015
Mof_H 	H 	0.0828	0.7988	0.3534	0.04
Mof_H 	H 	0.8971	0.8764	0.7071	-0.003
Mof_H 	H 	0.0828	0.5546	0.2012	0.033
Mof_H 	H 	0.8971	0.8307	0.1236	0.007
Mof_H 	H 	0.0828	0.6466	0.4454	0.037
Mof_H 	H 	0.8971	0.2929	0.1693	-0.002
Mof_H 	H 	0.0828	0.4454	0.6466	0.037
Mof_H 	H 	0.8971	0.1693	0.2929	-0.002
Mof_H 	H 	0.0828	0.3534	0.7988	0.04
Mof_H 	H 	0.8971	0.7071	0.8764	-0.003
Mof_H 	H 	0.0828	0.2012	0.5546	0.033
Mof_H 	H 	0.8971	0.1236	0.8307	0.007
Mof_H 	H 	0.5828	0.5546	0.3534	0.025
Mof_H 	H 	0.3971	0.8307	0.7071	0.015
Mof_H 	H 	0.5828	0.6466	0.2012	0.022
Mof_H 	H 	0.3971	0.2929	0.1236	0.006
Mof_H 	H 	0.5828	0.7988	0.4454	0.03
Mof_H 	H 	0.3971	0.8764	0.1693	-0.002
Mof_H 	H 	0.2061	0	0.1957	0.027
Mof_H 	H 	0.2061	0.1957	-0	0.027
Mof_H 	H 	0.2061	0.8043	0.8043	0.03
Mof_H 	H 	0.7061	8.45587e-17	0.8043	0.033
Mof_H 	H 	0.7061	0.8043	-0	0.033
Mof_H 	H 	0.7061	0.1957	0.1957	0.016
Mof_C 	C 	0.5883	0.1919	0.4988	0.367
Mof_C 	C 	0.5871	0.2669	0.587	-0.146
Mof_C 	C 	0.5853	0.2549	0.6551	0.068
Mof_C 	C 	0.2542	0.1554	0.2774	0.452
Mof_C 	C 	0.2952	0.074	0.2426	-0.182
Mof_C 	C 	0.3721	0.0739	0.2596	0.12
Mof_C 	C 	0.5883	0.3069	0.8081	0.363
Mof_C 	C 	0.5871	0.3201	0.7331	-0.142
Mof_C 	C 	0.5853	0.4002	0.7451	0.067
Mof_C 	C 	0.2542	0.122	0.8446	0.448
Mof_C 	C 	0.2952	0.1686	0.926	-0.154
Mof_C 	C 	0.3721	0.1857	0.9261	0.157
Mof_C 	C 	0.5883	0.5012	0.6931	0.364
Mof_C 	C 	0.5871	0.413	0.6799	-0.143
Mof_C 	C 	0.5853	0.3449	0.5998	0.068
Mof_C 	C 	0.2542	0.7226	0.878	0.455
Mof_C 	C 	0.2952	0.7574	0.8314	-0.176
Mof_C 	C 	0.3721	0.7404	0.8143	0.115
Mof_C 	C 	0.0883	0.8081	0.5012	0.361
Mof_C 	C 	0.0871	0.7331	0.413	-0.124
Mof_C 	C 	0.0853	0.7451	0.3449	0.061
Mof_C 	C 	0.7542	0.8446	0.7226	0.443
Mof_C 	C 	0.7952	0.926	0.7574	-0.134
Mof_C 	C 	0.8721	0.9261	0.7404	0.111
Mof_C 	C 	0.0883	0.6931	0.1919	0.365
Mof_C 	C 	0.0871	0.6799	0.2669	-0.128
Mof_C 	C 	0.0853	0.5998	0.2549	0.062
Mof_C 	C 	0.7542	0.878	0.1554	0.445
Mof_C 	C 	0.7952	0.8314	0.074	-0.161
Mof_C 	C 	0.8721	0.8143	0.0739	0.075
Mof_C 	C 	0.0883	0.4988	0.3069	0.364
Mof_C 	C 	0.0871	0.587	0.3201	-0.128
Mof_C 	C 	0.0853	0.6551	0.4002	0.061
Mof_C 	C 	0.7542	0.2774	0.122	0.453
Mof_C 	C 	0.7952	0.2426	0.1686	-0.189
Mof_C 	C 	0.8721	0.2596	0.1857	0.081
Mof_C 	C 	0.0883	0.3069	0.4988	0.364
Mof_C 	C 	0.0871	0.3201	0.587	-0.128
Mof_C 	C 	0.0853	0.4002	0.6551	0.061
Mof_C 	C 	0.7542	0.122	0.2774	0.453
Mof_C 	C 	0.7952	0.1686	0.2426	-0.189
Mof_C 	C 	0.8721	0.1857	0.2596	0.081
Mof_C 	C 	0.0883	0.5012	0.8081	0.361
Mof_C 	C 	0.0871	0.413	0.7331	-0.124
Mof_C 	C 	0.0853	0.3449	0.7451	0.061
Mof_C 	C 	0.7542	0.7226	0.8446	0.443
Mof_C 	C 	0.7952	0.7574	0.926	-0.134
Mof_C 	C 	0.8721	0.7404	0.9261	0.111
Mof_C 	C 	0.0883	0.1919	0.6931	0.365
Mof_C 	C 	0.0871	0.2669	0.6799	-0.128
Mof_C 	C 	0.0853	0.2549	0.5998	0.062
Mof_C 	C 	0.7542	0.1554	0.878	0.445
Mof_C 	C 	0.7952	0.074	0.8314	-0.161
Mof_C 	C 	0.8721	0.0739	0.8143	0.075
Mof_C 	C 	0.5883	0.6931	0.5012	0.364
Mof_C 	C 	0.5871	0.6799	0.413	-0.143
Mof_C 	C 	0.5853	0.5998	0.3449	0.068
Mof_C 	C 	0.2542	0.878	0.7226	0.455
Mof_C 	C 	0.2952	0.8314	0.7574	-0.176
Mof_C 	C 	0.3721	0.8143	0.7404	0.115
Mof_C 	C 	0.5883	0.4988	0.1919	0.367
Mof_C 	C 	0.5871	0.587	0.2669	-0.146
Mof_C 	C 	0.5853	0.6551	0.2549	0.068
Mof_C 	C 	0.2542	0.2774	0.1554	0.452
Mof_C 	C 	0.2952	0.2426	0.074	-0.182
Mof_C 	C 	0.3721	0.2596	0.0739	0.12
Mof_C 	C 	0.5883	0.8081	0.3069	0.363
Mof_C 	C 	0.5871	0.7331	0.3201	-0.142
Mof_C 	C 	0.5853	0.7451	0.4002	0.067
Mof_C 	C 	0.2542	0.8446	0.122	0.448
Mof_C 	C 	0.2952	0.926	0.1686	-0.154
Mof_C 	C 	0.3721	0.9261	0.1857	0.157
Mof_C 	C 	0.4089	0	0.2267	-0.221
Mof_C 	C 	0.4918	0	0.2472	0.425
Mof_C 	C 	0.2575	2.11397e-17	0.2014	0.071
Mof_C 	C 	0.4089	0.2267	-0	-0.221
Mof_C 	C 	0.4918	0.2472	-0	0.425
Mof_C 	C 	0.2575	0.2014	-0	0.071
Mof_C 	C 	0.4089	0.7733	0.7733	-0.174
Mof_C 	C 	0.4918	0.7528	0.7528	0.465
Mof_C 	C 	0.2575	0.7986	0.7986	0.122
Mof_C 	C 	0.9089	0	0.7733	-0.158
Mof_C 	C 	0.9918	4.22794e-17	0.7528	0.209
Mof_C 	C 	0.7575	8.45587e-17	0.7986	0.051
Mof_C 	C 	0.9089	0.7733	-0	-0.158
Mof_C 	C 	0.9918	0.7528	-0	0.209
Mof_C 	C 	0.7575	0.7986	-0	0.051
Mof_C 	C 	0.9089	0.2267	0.2267	-0.139
Mof_C 	C 	0.9918	0.2472	0.2472	0.246
Mof_C 	C 	0.7575	0.2014	0.2014	0.114
Mof_O 	O 	0.6091	0.2074	0.4436	-0.469
Mof_O 	O 	0.5751	0.1241	0.4861	-0.373
Mof_O 	O 	0.2896	0.2204	0.3104	-0.53
Mof_O 	O 	0.1845	0.1512	0.2737	-0.509
Mof_O 	O 	0.5211	0.0683	0.2865	-0.507
Mof_O 	O 	0.6091	0.2362	0.7926	-0.467
Mof_O 	O 	0.5751	0.362	0.8759	-0.352
Mof_O 	O 	0.2896	0.09	0.7796	-0.534
Mof_O 	O 	0.1845	0.1225	0.8488	-0.498
Mof_O 	O 	0.5211	0.2182	0.9317	-0.476
Mof_O 	O 	0.6091	0.5564	0.7638	-0.463
Mof_O 	O 	0.5751	0.5139	0.638	-0.365
Mof_O 	O 	0.2896	0.6896	0.91	-0.512
Mof_O 	O 	0.1845	0.7263	0.8775	-0.493
Mof_O 	O 	0.5211	0.7135	0.7818	-0.504
Mof_O 	O 	0.1091	0.7926	0.5564	-0.454
Mof_O 	O 	0.0751	0.8759	0.5139	-0.338
Mof_O 	O 	0.7896	0.7796	0.6896	-0.535
Mof_O 	O 	0.6845	0.8488	0.7263	-0.495
Mof_O 	O 	0.0211	0.9317	0.7135	-0.358
Mof_O 	O 	0.1091	0.7638	0.2074	-0.455
Mof_O 	O 	0.0751	0.638	0.1241	-0.358
Mof_O 	O 	0.7896	0.91	0.2204	-0.522
Mof_O 	O 	0.6845	0.8775	0.1512	-0.503
Mof_O 	O 	0.0211	0.7818	0.0683	-0.387
Mof_O 	O 	0.1091	0.4436	0.2362	-0.461
Mof_O 	O 	0.0751	0.4861	0.362	-0.351
Mof_O 	O 	0.7896	0.3104	0.09	-0.55
Mof_O 	O 	0.6845	0.2737	0.1225	-0.517
Mof_O 	O 	0.0211	0.2865	0.2182	-0.399
Mof_O 	O 	0.1091	0.2362	0.4436	-0.461
Mof_O 	O 	0.0751	0.362	0.4861	-0.351
Mof_O 	O 	0.7896	0.09	0.3104	-0.55
Mof_O 	O 	0.6845	0.1225	0.2737	-0.517
Mof_O 	O 	0.0211	0.2182	0.2865	-0.399
Mof_O 	O 	0.1091	0.5564	0.7926	-0.454
Mof_O 	O 	0.0751	0.5139	0.8759	-0.338
Mof_O 	O 	0.7896	0.6896	0.7796	-0.535
Mof_O 	O 	0.6845	0.7263	0.8488	-0.495
Mof_O 	O 	0.0211	0.7135	0.9317	-0.358
Mof_O 	O 	0.1091	0.2074	0.7638	-0.455
Mof_O 	O 	0.0751	0.1241	0.638	-0.358
Mof_O 	O 	0.7896	0.2204	0.91	-0.522
Mof_O 	O 	0.6845	0.1512	0.8775	-0.503
Mof_O 	O 	0.0211	0.0683	0.7818	-0.387
Mof_O 	O 	0.6091	0.7638	0.5564	-0.463
Mof_O 	O 	0.5751	0.638	0.5139	-0.365
Mof_O 	O 	0.2896	0.91	0.6896	-0.512
Mof_O 	O 	0.1845	0.8775	0.7263	-0.493
Mof_O 	O 	0.5211	0.7818	0.7135	-0.504
Mof_O 	O 	0.6091	0.4436	0.2074	-0.469
Mof_O 	O 	0.5751	0.4861	0.1241	-0.373
Mof_O 	O 	0.2896	0.3104	0.2204	-0.53
Mof_O 	O 	0.1845	0.2737	0.1512	-0.509
Mof_O 	O 	0.5211	0.2865	0.0683	-0.507
Mof_O 	O 	0.6091	0.7926	0.2362	-0.467
Mof_O 	O 	0.5751	0.8759	0.362	-0.352
Mof_O 	O 	0.2896	0.7796	0.09	-0.534
Mof_O 	O 	0.1845	0.8488	0.1225	-0.498
Mof_O 	O 	0.5211	0.9317	0.2182	-0.476
Mof_O 	O 	0.662	2.11397e-17	0.3396	-0.735
Mof_O 	O 	0.662	0.3396	-0	-0.735
Mof_O 	O 	0.662	0.6604	0.6604	-0.714
Mof_O 	O 	0.162	0	0.6604	-0.729
Mof_O 	O 	0.162	0.6604	-0	-0.729
Mof_O 	O 	0.162	0.3396	0.3396	-0.709
_end
