data_functionalizedCrystal
_audit_creation_method	'EQeq! by Chris Wilmer'
_symmetry_space_group_name_H-M	'P1'
_symmetry_Int_Tables_number	1
_symmetry_cell_setting	triclinic
loop_
_symmetry_equiv_pos_as_xyz
  x,y,z
_cell_length_a	17.2926
_cell_length_b	17.2926
_cell_length_c	22.8962
_cell_angle_alpha	90
_cell_angle_beta	90
_cell_angle_gamma	90
loop_
_atom_site_label
_atom_site_type_symbol
_atom_site_fract_x
_atom_site_fract_y
_atom_site_fract_z
_atom_site_charge
Mof_Fe	Fe	-0	0	-0	0.597
Mof_Fe	Fe	0.5	0.5	0.5	0.664
Mof_Fe	Fe	0.5	0	0.05156	0.634
Mof_Fe	Fe	-1.00394e-32	0.5	0.94844	0.653
Mof_Fe	Fe	9.60011e-33	0.5	0.44844	0.644
Mof_Fe	Fe	0.5	0	0.55156	0.644
Mof_Fe	Fe	0.5	0.5	-0	0.641
Mof_Fe	Fe	2.48219e-33	0	0.5	0.617
Mof_H 	H 	0.8599	0.8216	0.9782	0.051
Mof_H 	H 	0.8598	0.6891	0.9614	0.077
Mof_H 	H 	0.6394	0.6764	0.0182	0.072
Mof_H 	H 	0.6369	0.8085	0.032	0.042
Mof_H 	H 	0.1021	0.951	0.8958	0.011
Mof_H 	H 	0.1039	0.9463	0.7944	0.066
Mof_H 	H 	0.0682	0.9044	0.705	0.066
Mof_H 	H 	0.0675	0.9087	0.6053	-0.002
Mof_H 	H 	0.5596	0.9041	0.9464	0.006
Mof_H 	H 	0.5618	0.9001	0.8455	0.069
Mof_H 	H 	0.6024	0.9435	0.7566	0.071
Mof_H 	H 	0.5993	0.9448	0.6559	0.005
Mof_H 	H 	0.1401	0.1784	0.9782	0.039
Mof_H 	H 	0.1402	0.3109	0.9614	0.069
Mof_H 	H 	0.3606	0.3236	0.0182	0.072
Mof_H 	H 	0.3631	0.1915	0.032	0.039
Mof_H 	H 	0.8979	0.049	0.8958	0.004
Mof_H 	H 	0.8961	0.0537	0.7944	0.063
Mof_H 	H 	0.9318	0.0956	0.705	0.067
Mof_H 	H 	0.9325	0.0913	0.6053	0.002
Mof_H 	H 	0.4404	0.0959	0.9464	0.009
Mof_H 	H 	0.4382	0.0999	0.8455	0.07
Mof_H 	H 	0.3976	0.0565	0.7566	0.068
Mof_H 	H 	0.4007	0.0552	0.6559	0.001
Mof_H 	H 	0.8216	0.1401	0.0218	0.069
Mof_H 	H 	0.6891	0.1402	0.0386	0.039
Mof_H 	H 	0.6764	0.3606	0.9818	0.044
Mof_H 	H 	0.8085	0.3631	0.968	0.07
Mof_H 	H 	0.951	0.8979	0.1042	0.001
Mof_H 	H 	0.9463	0.8961	0.2056	0.063
Mof_H 	H 	0.9044	0.9318	0.295	0.066
Mof_H 	H 	0.9087	0.9325	0.3947	-0.001
Mof_H 	H 	0.9041	0.4404	0.0536	-0.008
Mof_H 	H 	0.9001	0.4382	0.1545	0.067
Mof_H 	H 	0.9435	0.3976	0.2434	0.068
Mof_H 	H 	0.9448	0.4007	0.3441	0.004
Mof_H 	H 	0.1784	0.8599	0.0218	0.074
Mof_H 	H 	0.3109	0.8598	0.0386	0.049
Mof_H 	H 	0.3236	0.6394	0.9818	0.046
Mof_H 	H 	0.1915	0.6369	0.968	0.068
Mof_H 	H 	0.049	0.1021	0.1042	0
Mof_H 	H 	0.0537	0.1039	0.2056	0.064
Mof_H 	H 	0.0956	0.0682	0.295	0.066
Mof_H 	H 	0.0913	0.0675	0.3947	0.001
Mof_H 	H 	0.0959	0.5596	0.0536	-0.004
Mof_H 	H 	0.0999	0.5618	0.1545	0.069
Mof_H 	H 	0.0565	0.6024	0.2434	0.067
Mof_H 	H 	0.0552	0.5993	0.3441	0.002
Mof_H 	H 	0.6401	0.3216	0.5218	0.056
Mof_H 	H 	0.6402	0.1891	0.5386	0.057
Mof_H 	H 	0.8606	0.1764	0.4818	0.062
Mof_H 	H 	0.8631	0.3085	0.468	0.058
Mof_H 	H 	0.3979	0.451	0.6042	0.002
Mof_H 	H 	0.3961	0.4463	0.7056	0.071
Mof_H 	H 	0.4318	0.4044	0.795	0.072
Mof_H 	H 	0.4325	0.4087	0.8947	0.003
Mof_H 	H 	0.9404	0.4041	0.5536	0.001
Mof_H 	H 	0.9382	0.4001	0.6545	0.069
Mof_H 	H 	0.8976	0.4435	0.7434	0.067
Mof_H 	H 	0.9007	0.4448	0.8441	0.001
Mof_H 	H 	0.3599	0.6784	0.5218	0.056
Mof_H 	H 	0.3598	0.8109	0.5386	0.06
Mof_H 	H 	0.1394	0.8236	0.4818	0.057
Mof_H 	H 	0.1369	0.6915	0.468	0.051
Mof_H 	H 	0.6021	0.549	0.6042	0.003
Mof_H 	H 	0.6039	0.5537	0.7056	0.073
Mof_H 	H 	0.5682	0.5956	0.795	0.074
Mof_H 	H 	0.5675	0.5913	0.8947	0.004
Mof_H 	H 	0.0596	0.5959	0.5536	-0
Mof_H 	H 	0.0618	0.5999	0.6545	0.069
Mof_H 	H 	0.1024	0.5565	0.7434	0.069
Mof_H 	H 	0.0993	0.5552	0.8441	0.004
Mof_H 	H 	0.6784	0.6401	0.4782	0.056
Mof_H 	H 	0.8109	0.6402	0.4614	0.06
Mof_H 	H 	0.8236	0.8606	0.5182	0.065
Mof_H 	H 	0.6915	0.8631	0.532	0.058
Mof_H 	H 	0.549	0.3979	0.3958	0.002
Mof_H 	H 	0.5537	0.3961	0.2944	0.071
Mof_H 	H 	0.5956	0.4318	0.205	0.073
Mof_H 	H 	0.5913	0.4325	0.1053	-0.002
Mof_H 	H 	0.5959	0.9404	0.4464	0.001
Mof_H 	H 	0.5999	0.9382	0.3455	0.069
Mof_H 	H 	0.5565	0.8976	0.2566	0.067
Mof_H 	H 	0.5552	0.9007	0.1559	0.002
Mof_H 	H 	0.3216	0.3599	0.4782	0.056
Mof_H 	H 	0.1891	0.3598	0.4614	0.057
Mof_H 	H 	0.1764	0.1394	0.5182	0.054
Mof_H 	H 	0.3085	0.1369	0.532	0.051
Mof_H 	H 	0.451	0.6021	0.3958	0.003
Mof_H 	H 	0.4463	0.6039	0.2944	0.072
Mof_H 	H 	0.4044	0.5682	0.205	0.072
Mof_H 	H 	0.4087	0.5675	0.1053	-0.002
Mof_H 	H 	0.4041	0.0596	0.4464	-0.001
Mof_H 	H 	0.4001	0.0618	0.3455	0.068
Mof_H 	H 	0.4435	0.1024	0.2566	0.068
Mof_H 	H 	0.4448	0.0993	0.1559	0.004
Mof_C 	C 	0.81715	0.95683	0.00895	0.118
Mof_C 	C 	0.74865	0.91475	0.01691	-0.112
Mof_C 	C 	0.68097	0.95173	0.03517	0.119
Mof_C 	C 	0.7492	0.83199	0.0067	0.02
Mof_C 	C 	0.81412	0.79295	0.98585	-0.013
Mof_C 	C 	0.81439	0.71355	0.97578	-0.107
Mof_C 	C 	0.74946	0.67015	0.98717	0.113
Mof_C 	C 	0.68385	0.70626	0.00904	-0.125
Mof_C 	C 	0.68293	0.78479	0.01805	-0.028
Mof_C 	C 	0.74932	0.58375	0.97789	-0.139
Mof_C 	C 	0.68313	0.54233	0.98916	0.13
Mof_C 	C 	0.81838	0.5468	0.96251	0.127
Mof_C 	C 	0.05929	0.97109	0.87464	0.084
Mof_C 	C 	0.06107	0.96893	0.81396	-0.094
Mof_C 	C 	0.04022	0.94396	0.68544	-0.104
Mof_C 	C 	0.03899	0.94667	0.62616	0.092
Mof_C 	C 	0.53462	0.94432	0.92539	0.096
Mof_C 	C 	0.53626	0.9414	0.86502	-0.102
Mof_C 	C 	0.56003	0.96701	0.73707	-0.103
Mof_C 	C 	0.5579	0.9677	0.67698	0.094
Mof_C 	C 	0.18285	0.04317	0.00895	0.101
Mof_C 	C 	0.25135	0.08525	0.01691	-0.112
Mof_C 	C 	0.31903	0.04827	0.03517	0.105
Mof_C 	C 	0.2508	0.16801	0.0067	0.012
Mof_C 	C 	0.18588	0.20705	0.98585	-0.01
Mof_C 	C 	0.18561	0.28645	0.97578	-0.113
Mof_C 	C 	0.25054	0.32985	0.98717	0.114
Mof_C 	C 	0.31615	0.29374	0.00904	-0.13
Mof_C 	C 	0.31707	0.21521	0.01805	-0.026
Mof_C 	C 	0.25068	0.41625	0.97789	-0.142
Mof_C 	C 	0.31687	0.45767	0.98916	0.129
Mof_C 	C 	0.18162	0.4532	0.96251	0.124
Mof_C 	C 	0.94071	0.02891	0.87464	0.084
Mof_C 	C 	0.93893	0.03107	0.81396	-0.094
Mof_C 	C 	0.95978	0.05604	0.68544	-0.103
Mof_C 	C 	0.96101	0.05333	0.62616	0.093
Mof_C 	C 	0.46538	0.05568	0.92539	0.074
Mof_C 	C 	0.46374	0.0586	0.86502	-0.121
Mof_C 	C 	0.43997	0.03299	0.73707	-0.124
Mof_C 	C 	0.4421	0.0323	0.67698	0.071
Mof_C 	C 	0.95683	0.18285	0.99105	0.137
Mof_C 	C 	0.91475	0.25135	0.98309	-0.143
Mof_C 	C 	0.95173	0.31903	0.96483	0.135
Mof_C 	C 	0.83199	0.2508	0.9933	0.112
Mof_C 	C 	0.79295	0.18588	0.01415	-0.125
Mof_C 	C 	0.71355	0.18561	0.02422	-0.029
Mof_C 	C 	0.67015	0.25054	0.01283	0.015
Mof_C 	C 	0.70626	0.31615	0.99096	-0.012
Mof_C 	C 	0.78479	0.31707	0.98195	-0.103
Mof_C 	C 	0.58375	0.25068	0.02211	-0.112
Mof_C 	C 	0.54233	0.31687	0.01084	0.106
Mof_C 	C 	0.5468	0.18162	0.03749	0.107
Mof_C 	C 	0.97109	0.94071	0.12536	0.107
Mof_C 	C 	0.96893	0.93893	0.18604	-0.076
Mof_C 	C 	0.94396	0.95978	0.31456	-0.084
Mof_C 	C 	0.94667	0.96101	0.37384	0.115
Mof_C 	C 	0.94432	0.46538	0.07461	0.095
Mof_C 	C 	0.9414	0.46374	0.13498	-0.106
Mof_C 	C 	0.96701	0.43997	0.26293	-0.102
Mof_C 	C 	0.9677	0.4421	0.32302	0.093
Mof_C 	C 	0.04317	0.81715	0.99105	0.127
Mof_C 	C 	0.08525	0.74865	0.98309	-0.142
Mof_C 	C 	0.04827	0.68097	0.96483	0.125
Mof_C 	C 	0.16801	0.7492	0.9933	0.107
Mof_C 	C 	0.20705	0.81412	0.01415	-0.119
Mof_C 	C 	0.28645	0.81439	0.02422	-0.032
Mof_C 	C 	0.32985	0.74946	0.01283	0.021
Mof_C 	C 	0.29374	0.68385	0.99096	-0.017
Mof_C 	C 	0.21521	0.68293	0.98195	-0.099
Mof_C 	C 	0.41625	0.74932	0.02211	-0.112
Mof_C 	C 	0.45767	0.68313	0.01084	0.108
Mof_C 	C 	0.4532	0.81838	0.03749	0.111
Mof_C 	C 	0.02891	0.05929	0.12536	0.061
Mof_C 	C 	0.03107	0.06107	0.18604	-0.117
Mof_C 	C 	0.05604	0.04022	0.31456	-0.123
Mof_C 	C 	0.05333	0.03899	0.37384	0.068
Mof_C 	C 	0.05568	0.53462	0.07461	0.072
Mof_C 	C 	0.0586	0.53626	0.13498	-0.126
Mof_C 	C 	0.03299	0.56003	0.26293	-0.123
Mof_C 	C 	0.0323	0.5579	0.32302	0.069
Mof_C 	C 	0.68285	0.45683	0.49105	0.122
Mof_C 	C 	0.75135	0.41475	0.48309	-0.129
Mof_C 	C 	0.81903	0.45173	0.46483	0.122
Mof_C 	C 	0.7508	0.33199	0.4933	0.063
Mof_C 	C 	0.68588	0.29295	0.51415	-0.067
Mof_C 	C 	0.68561	0.21355	0.52422	-0.071
Mof_C 	C 	0.75054	0.17015	0.51283	0.065
Mof_C 	C 	0.81615	0.20626	0.49096	-0.071
Mof_C 	C 	0.81707	0.28479	0.48195	-0.064
Mof_C 	C 	0.75068	0.08375	0.52211	-0.126
Mof_C 	C 	0.81687	0.04233	0.51084	0.112
Mof_C 	C 	0.68162	0.0468	0.53749	0.11
Mof_C 	C 	0.44071	0.47109	0.62536	0.078
Mof_C 	C 	0.43893	0.46893	0.68604	-0.128
Mof_C 	C 	0.45978	0.44396	0.81456	-0.131
Mof_C 	C 	0.46101	0.44667	0.87384	0.084
Mof_C 	C 	0.96538	0.44432	0.57461	0.097
Mof_C 	C 	0.96374	0.4414	0.63498	-0.103
Mof_C 	C 	0.93997	0.46701	0.76293	-0.103
Mof_C 	C 	0.9421	0.4677	0.82302	0.093
Mof_C 	C 	0.31715	0.54317	0.49105	0.121
Mof_C 	C 	0.24865	0.58525	0.48309	-0.129
Mof_C 	C 	0.18097	0.54827	0.46483	0.12
Mof_C 	C 	0.2492	0.66801	0.4933	0.061
Mof_C 	C 	0.31412	0.70705	0.51415	-0.065
Mof_C 	C 	0.31439	0.78645	0.52422	-0.071
Mof_C 	C 	0.24946	0.82985	0.51283	0.067
Mof_C 	C 	0.18385	0.79374	0.49096	-0.072
Mof_C 	C 	0.18293	0.71521	0.48195	-0.063
Mof_C 	C 	0.24932	0.91625	0.52211	-0.126
Mof_C 	C 	0.18313	0.95767	0.51084	0.124
Mof_C 	C 	0.31838	0.9532	0.53749	0.125
Mof_C 	C 	0.55929	0.52891	0.62536	0.079
Mof_C 	C 	0.56107	0.53107	0.68604	-0.128
Mof_C 	C 	0.54022	0.55604	0.81456	-0.131
Mof_C 	C 	0.53899	0.55333	0.87384	0.085
Mof_C 	C 	0.03462	0.55568	0.57461	0.072
Mof_C 	C 	0.03626	0.5586	0.63498	-0.124
Mof_C 	C 	0.06003	0.53299	0.76293	-0.123
Mof_C 	C 	0.0579	0.5323	0.82302	0.071
Mof_C 	C 	0.54317	0.68285	0.50895	0.122
Mof_C 	C 	0.58525	0.75135	0.51691	-0.128
Mof_C 	C 	0.54827	0.81903	0.53517	0.123
Mof_C 	C 	0.66801	0.7508	0.5067	0.063
Mof_C 	C 	0.70705	0.68588	0.48585	-0.065
Mof_C 	C 	0.78645	0.68561	0.47578	-0.071
Mof_C 	C 	0.82985	0.75054	0.48717	0.069
Mof_C 	C 	0.79374	0.81615	0.50904	-0.071
Mof_C 	C 	0.71521	0.81707	0.51805	-0.062
Mof_C 	C 	0.91625	0.75068	0.47789	-0.125
Mof_C 	C 	0.95767	0.81687	0.48916	0.127
Mof_C 	C 	0.9532	0.68162	0.46251	0.126
Mof_C 	C 	0.52891	0.44071	0.37464	0.078
Mof_C 	C 	0.53107	0.43893	0.31396	-0.128
Mof_C 	C 	0.55604	0.45978	0.18544	-0.133
Mof_C 	C 	0.55333	0.46101	0.12616	0.084
Mof_C 	C 	0.55568	0.96538	0.42539	0.097
Mof_C 	C 	0.5586	0.96374	0.36502	-0.103
Mof_C 	C 	0.53299	0.93997	0.23707	-0.102
Mof_C 	C 	0.5323	0.9421	0.17698	0.093
Mof_C 	C 	0.45683	0.31715	0.50895	0.121
Mof_C 	C 	0.41475	0.24865	0.51691	-0.129
Mof_C 	C 	0.45173	0.18097	0.53517	0.12
Mof_C 	C 	0.33199	0.2492	0.5067	0.062
Mof_C 	C 	0.29295	0.31412	0.48585	-0.068
Mof_C 	C 	0.21355	0.31439	0.47578	-0.071
Mof_C 	C 	0.17015	0.24946	0.48717	0.062
Mof_C 	C 	0.20626	0.18385	0.50904	-0.072
Mof_C 	C 	0.28479	0.18293	0.51805	-0.065
Mof_C 	C 	0.08375	0.24932	0.47789	-0.126
Mof_C 	C 	0.04233	0.18313	0.48916	0.109
Mof_C 	C 	0.0468	0.31838	0.46251	0.109
Mof_C 	C 	0.47109	0.55929	0.37464	0.078
Mof_C 	C 	0.46893	0.56107	0.31396	-0.128
Mof_C 	C 	0.44396	0.54022	0.18544	-0.133
Mof_C 	C 	0.44667	0.53899	0.12616	0.084
Mof_C 	C 	0.44432	0.03462	0.42539	0.072
Mof_C 	C 	0.4414	0.03626	0.36502	-0.124
Mof_C 	C 	0.46701	0.06003	0.23707	-0.123
Mof_C 	C 	0.4677	0.0579	0.17698	0.07
Mof_C 	C 	0.5	1.47478e-32	0.83308	0.03
Mof_C 	C 	0.5	0	0.76901	0.032
Mof_C 	C 	8.28654e-34	0.5	0.16692	0.03
Mof_C 	C 	-6.22716e-33	0.5	0.23099	0.029
Mof_C 	C 	-1.88108e-32	0.5	0.66692	0.029
Mof_C 	C 	1.10028e-32	0.5	0.73099	0.03
Mof_C 	C 	0.5	-3.68694e-33	0.33308	0.029
Mof_C 	C 	0.5	0	0.26901	0.03
Mof_C 	C 	-1.08637e-32	-7.37389e-33	0.78238	0.006
Mof_C 	C 	3.56378e-33	0	0.71787	0.011
Mof_C 	C 	1.08035e-33	0	0.21762	0.006
Mof_C 	C 	-2.28634e-33	-3.68694e-33	0.28213	0.011
Mof_C 	C 	0.5	0.5	0.71762	0.053
Mof_C 	C 	0.5	0.5	0.78213	0.052
Mof_C 	C 	0.5	0.5	0.28238	0.052
Mof_C 	C 	0.5	0.5	0.21787	0.052
Mof_N 	N 	0.87685	0.98464	0.00123	-0.183
Mof_N 	N 	0.62214	0.97643	0.04989	-0.188
Mof_N 	N 	0.87833	0.52148	0.9493	-0.192
Mof_N 	N 	0.62315	0.51431	0.99929	-0.191
Mof_N 	N 	0.12315	0.01536	0.00123	-0.203
Mof_N 	N 	0.37786	0.02357	0.04989	-0.199
Mof_N 	N 	0.12167	0.47852	0.9493	-0.199
Mof_N 	N 	0.37685	0.48569	0.99929	-0.192
Mof_N 	N 	0.98464	0.12315	0.99877	-0.182
Mof_N 	N 	0.97643	0.37786	0.95011	-0.191
Mof_N 	N 	0.52148	0.12167	0.0507	-0.197
Mof_N 	N 	0.51431	0.37685	0.00071	-0.2
Mof_N 	N 	0.01536	0.87685	0.99877	-0.189
Mof_N 	N 	0.02357	0.62214	0.95011	-0.201
Mof_N 	N 	0.47852	0.87833	0.0507	-0.189
Mof_N 	N 	0.48569	0.62315	0.00071	-0.199
Mof_N 	N 	0.62315	0.48464	0.49877	-0.2
Mof_N 	N 	0.87786	0.47643	0.45011	-0.191
Mof_N 	N 	0.62167	0.02148	0.5507	-0.202
Mof_N 	N 	0.87685	0.01431	0.50071	-0.193
Mof_N 	N 	0.37685	0.51536	0.49877	-0.2
Mof_N 	N 	0.12214	0.52357	0.45011	-0.199
Mof_N 	N 	0.37833	0.97852	0.5507	-0.187
Mof_N 	N 	0.12315	0.98569	0.50071	-0.187
Mof_N 	N 	0.51536	0.62315	0.50123	-0.2
Mof_N 	N 	0.52357	0.87786	0.54989	-0.191
Mof_N 	N 	0.97852	0.62167	0.4493	-0.187
Mof_N 	N 	0.98569	0.87685	0.49929	-0.18
Mof_N 	N 	0.48464	0.37685	0.50123	-0.2
Mof_N 	N 	0.47643	0.12214	0.54989	-0.199
Mof_N 	N 	0.02148	0.37833	0.4493	-0.202
Mof_N 	N 	0.01431	0.12315	0.49929	-0.201
Mof_N 	N 	0.5	-1.47478e-32	0.95595	-0.189
Mof_N 	N 	0.5	-7.37389e-33	0.64632	-0.195
Mof_N 	N 	6.79549e-34	0.5	0.04405	-0.203
Mof_N 	N 	1.28166e-32	0.5	0.35368	-0.195
Mof_N 	N 	-4.67302e-33	0.5	0.54405	-0.197
Mof_N 	N 	-2.52576e-32	0.5	0.85368	-0.195
Mof_N 	N 	0.5	-7.37389e-33	0.45595	-0.197
Mof_N 	N 	0.5	1.84347e-33	0.14632	-0.194
Mof_N 	N 	4.49142e-33	0	0.90473	-0.2
Mof_N 	N 	2.95877e-33	0	0.596	-0.207
Mof_N 	N 	-4.48779e-34	0	0.09527	-0.206
Mof_N 	N 	-1.68133e-33	0	0.404	-0.207
Mof_N 	N 	0.5	0.5	0.59527	-0.185
Mof_N 	N 	0.5	0.5	0.904	-0.18
Mof_N 	N 	0.5	0.5	0.40473	-0.185
Mof_N 	N 	0.5	0.5	0.096	-0.186
_end
