data_functionalizedCrystal
_audit_creation_method	'EQeq! by Chris Wilmer'
_symmetry_space_group_name_H-M	'P1'
_symmetry_Int_Tables_number	1
_symmetry_cell_setting	triclinic
loop_
_symmetry_equiv_pos_as_xyz
  x,y,z
_cell_length_a	27.6821
_cell_length_b	27.6821
_cell_length_c	27.6821
_cell_angle_alpha	90
_cell_angle_beta	90
_cell_angle_gamma	90
loop_
_atom_site_label
_atom_site_type_symbol
_atom_site_fract_x
_atom_site_fract_y
_atom_site_fract_z
_atom_site_charge
Mof_Zn	Zn	-6.91843e-33	0.49997	0.6939	1.265
Mof_Zn	Zn	-1.23234e-33	0.50003	0.3061	1.265
Mof_Zn	Zn	0.6939	0	0.5	1.265
Mof_Zn	Zn	0.30609	0	0.5	1.265
Mof_Zn	Zn	0.5	0.69391	0.99998	1.274
Mof_Zn	Zn	0.5	0.30609	2e-05	1.272
Mof_Zn	Zn	3.02235e-33	0.49998	0.80609	1.264
Mof_Zn	Zn	-1.65299e-33	0.50002	0.19391	1.264
Mof_Zn	Zn	0.5	0.1939	3e-05	1.272
Mof_Zn	Zn	0.5	0.8061	0.99997	1.273
Mof_Zn	Zn	0.19391	0	0.5	1.264
Mof_Zn	Zn	0.8061	0	0.5	1.264
Mof_H 	H 	0.10567	0.39367	0.82712	0.03
Mof_H 	H 	0.16785	0.33095	0.82754	0.044
Mof_H 	H 	0.02389	0.57255	0.62278	0.012
Mof_H 	H 	0.02567	0.57385	0.53404	0.04
Mof_H 	H 	0.89432	0.60628	0.82711	0.036
Mof_H 	H 	0.83215	0.66901	0.82752	0.049
Mof_H 	H 	0.97612	0.4274	0.62276	0.017
Mof_H 	H 	0.97433	0.42614	0.53402	0.05
Mof_H 	H 	0.89432	0.39372	0.17289	0.035
Mof_H 	H 	0.83215	0.33099	0.17248	0.047
Mof_H 	H 	0.97612	0.5726	0.37724	0.018
Mof_H 	H 	0.97433	0.57386	0.46598	0.05
Mof_H 	H 	0.10567	0.60633	0.17288	0.031
Mof_H 	H 	0.16785	0.66905	0.17246	0.046
Mof_H 	H 	0.02389	0.42745	0.37722	0.011
Mof_H 	H 	0.02567	0.42615	0.46596	0.04
Mof_H 	H 	0.82854	0.10634	0.39343	0.034
Mof_H 	H 	0.82827	0.16821	0.33044	0.048
Mof_H 	H 	0.82854	0.89366	0.60657	0.04
Mof_H 	H 	0.82827	0.83179	0.66956	0.051
Mof_H 	H 	0.17149	0.89368	0.39341	0.036
Mof_H 	H 	0.17175	0.83182	0.33042	0.046
Mof_H 	H 	0.17149	0.10632	0.60659	0.03
Mof_H 	H 	0.17175	0.16818	0.66958	0.042
Mof_H 	H 	0.39365	0.82712	0.10579	0.035
Mof_H 	H 	0.33093	0.82754	0.16797	0.048
Mof_H 	H 	0.57258	0.62277	0.02386	0.015
Mof_H 	H 	0.57386	0.53403	0.02566	0.047
Mof_H 	H 	0.60635	0.82711	0.89416	0.036
Mof_H 	H 	0.66908	0.82752	0.83199	0.05
Mof_H 	H 	0.42743	0.62277	0.9761	0.015
Mof_H 	H 	0.42615	0.53402	0.97433	0.047
Mof_H 	H 	0.39365	0.17288	0.89421	0.031
Mof_H 	H 	0.33093	0.17246	0.83203	0.043
Mof_H 	H 	0.57258	0.37723	0.97614	0.015
Mof_H 	H 	0.57386	0.46597	0.97434	0.048
Mof_H 	H 	0.60635	0.17289	0.10584	0.031
Mof_H 	H 	0.66908	0.17248	0.16801	0.045
Mof_H 	H 	0.42743	0.37723	0.0239	0.015
Mof_H 	H 	0.42615	0.46598	0.02567	0.047
Mof_H 	H 	0.89363	0.60643	0.6714	0.039
Mof_H 	H 	0.83067	0.66834	0.67168	0.048
Mof_H 	H 	0.10638	0.39352	0.67142	0.031
Mof_H 	H 	0.16935	0.33162	0.6717	0.045
Mof_H 	H 	0.89363	0.39357	0.3286	0.039
Mof_H 	H 	0.83067	0.33166	0.32832	0.048
Mof_H 	H 	0.10638	0.60648	0.32858	0.031
Mof_H 	H 	0.16935	0.66838	0.3283	0.046
Mof_H 	H 	0.60659	0.32859	0.10644	0.035
Mof_H 	H 	0.6685	0.32832	0.1694	0.047
Mof_H 	H 	0.39341	0.32858	0.8936	0.034
Mof_H 	H 	0.3315	0.3283	0.83063	0.046
Mof_H 	H 	0.39341	0.67142	0.1064	0.034
Mof_H 	H 	0.3315	0.6717	0.16937	0.046
Mof_H 	H 	0.60659	0.67141	0.89356	0.035
Mof_H 	H 	0.6685	0.67168	0.8306	0.047
Mof_H 	H 	0.32719	0.89386	0.39405	0.035
Mof_H 	H 	0.32759	0.83116	0.33183	0.047
Mof_H 	H 	0.32719	0.10614	0.60595	0.031
Mof_H 	H 	0.32759	0.16884	0.66817	0.045
Mof_H 	H 	0.67284	0.89382	0.60591	0.036
Mof_H 	H 	0.67243	0.83112	0.66812	0.048
Mof_H 	H 	0.87725	0.07246	0.52423	0.015
Mof_H 	H 	0.96598	0.07373	0.52604	0.057
Mof_H 	H 	0.67284	0.10618	0.39409	0.031
Mof_H 	H 	0.67243	0.16888	0.33188	0.045
Mof_H 	H 	0.87725	0.92754	0.47577	0.014
Mof_H 	H 	0.96598	0.92627	0.47396	0.058
Mof_H 	H 	0.8934	0.60643	0.17141	0.038
Mof_H 	H 	0.83149	0.6694	0.17168	0.049
Mof_H 	H 	0.10659	0.3936	0.17142	0.031
Mof_H 	H 	0.1685	0.33063	0.1717	0.044
Mof_H 	H 	0.10659	0.6064	0.82858	0.032
Mof_H 	H 	0.1685	0.66937	0.8283	0.046
Mof_H 	H 	0.8934	0.39357	0.82859	0.037
Mof_H 	H 	0.83149	0.3306	0.82832	0.047
Mof_H 	H 	0.17281	0.89404	0.60614	0.034
Mof_H 	H 	0.17241	0.83182	0.66883	0.046
Mof_H 	H 	0.37722	0.97654	0.42729	0.018
Mof_H 	H 	0.46596	0.97476	0.426	0.05
Mof_H 	H 	0.17281	0.10596	0.39386	0.029
Mof_H 	H 	0.17241	0.16818	0.33117	0.042
Mof_H 	H 	0.37722	0.02346	0.57271	0.011
Mof_H 	H 	0.46596	0.02524	0.574	0.04
Mof_H 	H 	0.82716	0.1059	0.60619	0.033
Mof_H 	H 	0.82756	0.16811	0.66889	0.047
Mof_H 	H 	0.62275	0.02422	0.42754	0.012
Mof_H 	H 	0.53402	0.02603	0.42627	0.04
Mof_H 	H 	0.82716	0.8941	0.39381	0.038
Mof_H 	H 	0.82756	0.83189	0.33111	0.05
Mof_H 	H 	0.62275	0.97578	0.57246	0.018
Mof_H 	H 	0.53402	0.97397	0.57373	0.05
Mof_H 	H 	0.60637	0.17141	0.89357	0.033
Mof_H 	H 	0.66933	0.17168	0.83166	0.045
Mof_H 	H 	0.39362	0.17141	0.10648	0.032
Mof_H 	H 	0.33065	0.1717	0.16838	0.043
Mof_H 	H 	0.60637	0.82859	0.10643	0.037
Mof_H 	H 	0.66933	0.82832	0.16834	0.05
Mof_H 	H 	0.39362	0.82859	0.89352	0.037
Mof_H 	H 	0.33065	0.8283	0.83162	0.049
Mof_H 	H 	0.10635	0.39421	0.32712	0.031
Mof_H 	H 	0.16907	0.33204	0.32754	0.045
Mof_H 	H 	0.92742	0.47614	0.12277	0.009
Mof_H 	H 	0.92614	0.47434	0.03403	0.053
Mof_H 	H 	0.89365	0.60585	0.32711	0.036
Mof_H 	H 	0.83093	0.66802	0.32752	0.048
Mof_H 	H 	0.07257	0.5239	0.12276	0.011
Mof_H 	H 	0.07385	0.52568	0.03402	0.053
Mof_H 	H 	0.10635	0.60579	0.67288	0.031
Mof_H 	H 	0.16907	0.66796	0.67246	0.046
Mof_H 	H 	0.92742	0.52386	0.87723	0.009
Mof_H 	H 	0.92614	0.52566	0.96597	0.054
Mof_H 	H 	0.89365	0.39415	0.67289	0.035
Mof_H 	H 	0.83093	0.33198	0.67248	0.047
Mof_H 	H 	0.07257	0.4761	0.87724	0.011
Mof_H 	H 	0.07385	0.47432	0.96598	0.053
Mof_H 	H 	0.39433	0.67288	0.89368	0.033
Mof_H 	H 	0.33215	0.67246	0.83096	0.046
Mof_H 	H 	0.47612	0.87722	0.07255	0.015
Mof_H 	H 	0.47434	0.96596	0.07385	0.061
Mof_H 	H 	0.60568	0.67289	0.10629	0.033
Mof_H 	H 	0.66784	0.67248	0.16901	0.047
Mof_H 	H 	0.52389	0.87724	0.92741	0.015
Mof_H 	H 	0.52568	0.96598	0.92614	0.061
Mof_H 	H 	0.60568	0.32711	0.89371	0.033
Mof_H 	H 	0.66784	0.32752	0.83099	0.047
Mof_H 	H 	0.52389	0.12276	0.07259	0.015
Mof_H 	H 	0.52568	0.03402	0.07386	0.034
Mof_H 	H 	0.39433	0.32712	0.10632	0.033
Mof_H 	H 	0.33215	0.32754	0.16904	0.046
Mof_H 	H 	0.47612	0.12278	0.92745	0.015
Mof_H 	H 	0.47434	0.03404	0.92615	0.034
Mof_H 	H 	0.67145	0.10659	0.60632	0.031
Mof_H 	H 	0.67172	0.16957	0.66819	0.045
Mof_H 	H 	0.67145	0.89341	0.39368	0.039
Mof_H 	H 	0.67172	0.83043	0.33181	0.048
Mof_H 	H 	0.32851	0.10658	0.39368	0.031
Mof_H 	H 	0.32825	0.16957	0.33182	0.045
Mof_H 	H 	0.12278	0.9273	0.52348	0.014
Mof_H 	H 	0.03404	0.92601	0.52527	0.032
Mof_H 	H 	0.32851	0.89342	0.60632	0.039
Mof_H 	H 	0.32825	0.83043	0.66818	0.048
Mof_H 	H 	0.12278	0.0727	0.47652	0.015
Mof_H 	H 	0.03404	0.07399	0.47473	0.032
Mof_H 	H 	0.24983	0.31371	0.81329	0.044
Mof_H 	H 	0.75018	0.68626	0.81326	0.046
Mof_H 	H 	0.75018	0.31374	0.18674	0.045
Mof_H 	H 	0.24983	0.68629	0.18671	0.045
Mof_H 	H 	0.81362	0.24991	0.31355	0.046
Mof_H 	H 	0.81362	0.75009	0.68645	0.047
Mof_H 	H 	0.1864	0.75013	0.31352	0.044
Mof_H 	H 	0.1864	0.24987	0.68648	0.043
Mof_H 	H 	0.31339	0.81348	0.24987	0.046
Mof_H 	H 	0.68662	0.81345	0.75009	0.047
Mof_H 	H 	0.31339	0.18652	0.75013	0.043
Mof_H 	H 	0.68662	0.18655	0.24991	0.043
Mof_H 	H 	0.74982	0.68674	0.18626	0.046
Mof_H 	H 	0.25017	0.31329	0.18628	0.044
Mof_H 	H 	0.25017	0.68671	0.81372	0.045
Mof_H 	H 	0.74982	0.31326	0.81374	0.045
Mof_H 	H 	0.18661	0.74986	0.68652	0.044
Mof_H 	H 	0.18661	0.25014	0.31348	0.043
Mof_H 	H 	0.81337	0.25009	0.68655	0.046
Mof_H 	H 	0.81337	0.74991	0.31345	0.047
Mof_H 	H 	0.68637	0.18645	0.7499	0.044
Mof_H 	H 	0.31361	0.18648	0.25013	0.043
Mof_H 	H 	0.68637	0.81355	0.2501	0.047
Mof_H 	H 	0.31361	0.81352	0.74987	0.046
Mof_C 	C 	0.11915	0.38048	0.79285	0.026
Mof_C 	C 	0.15533	0.34448	0.79307	-0.07
Mof_C 	C 	0.01343	0.54069	0.60275	0.034
Mof_C 	C 	0.01395	0.54142	0.55248	-0.071
Mof_C 	C 	0.88085	0.61947	0.79284	0.028
Mof_C 	C 	0.84467	0.65548	0.79304	-0.066
Mof_C 	C 	0.98658	0.45928	0.60274	0.062
Mof_C 	C 	0.98606	0.45857	0.55246	-0.041
Mof_C 	C 	0.88085	0.38053	0.20716	0.027
Mof_C 	C 	0.84467	0.34452	0.20696	-0.066
Mof_C 	C 	0.98658	0.54072	0.39726	0.062
Mof_C 	C 	0.98606	0.54143	0.44754	-0.041
Mof_C 	C 	0.11915	0.61952	0.20715	0.027
Mof_C 	C 	0.15533	0.65552	0.20693	-0.069
Mof_C 	C 	0.01343	0.45931	0.39725	0.034
Mof_C 	C 	0.01395	0.45858	0.44752	-0.071
Mof_C 	C 	0.79413	0.11958	0.38037	0.027
Mof_C 	C 	0.79393	0.15558	0.3442	-0.068
Mof_C 	C 	0.79413	0.88042	0.61963	0.028
Mof_C 	C 	0.79393	0.84442	0.6558	-0.065
Mof_C 	C 	0.2059	0.88045	0.38035	0.027
Mof_C 	C 	0.20609	0.84445	0.34417	-0.067
Mof_C 	C 	0.2059	0.11955	0.61965	0.025
Mof_C 	C 	0.20609	0.15555	0.65583	-0.07
Mof_C 	C 	0.38044	0.79285	0.11924	0.028
Mof_C 	C 	0.34443	0.79306	0.15543	-0.067
Mof_C 	C 	0.54071	0.60275	0.01341	0.041
Mof_C 	C 	0.54143	0.55247	0.01393	-0.072
Mof_C 	C 	0.61956	0.79283	0.88071	0.028
Mof_C 	C 	0.65558	0.79304	0.84452	-0.067
Mof_C 	C 	0.4593	0.60274	0.98656	0.042
Mof_C 	C 	0.45858	0.55247	0.98605	-0.071
Mof_C 	C 	0.38044	0.20715	0.88076	0.026
Mof_C 	C 	0.34443	0.20694	0.84457	-0.069
Mof_C 	C 	0.54071	0.39725	0.98659	0.043
Mof_C 	C 	0.54143	0.44753	0.98607	-0.072
Mof_C 	C 	0.61956	0.20717	0.11929	0.027
Mof_C 	C 	0.65558	0.20696	0.15548	-0.068
Mof_C 	C 	0.4593	0.39726	0.01344	0.042
Mof_C 	C 	0.45858	0.44753	0.01395	-0.073
Mof_C 	C 	0.88059	0.61968	0.70582	0.028
Mof_C 	C 	0.84443	0.6557	0.70601	-0.066
Mof_C 	C 	0.11942	0.38027	0.70583	0.026
Mof_C 	C 	0.15558	0.34426	0.70603	-0.07
Mof_C 	C 	0.88059	0.38032	0.29418	0.027
Mof_C 	C 	0.84443	0.3443	0.29399	-0.066
Mof_C 	C 	0.11942	0.61973	0.29417	0.027
Mof_C 	C 	0.15558	0.65574	0.29397	-0.069
Mof_C 	C 	0.61982	0.29417	0.1195	0.027
Mof_C 	C 	0.65585	0.29398	0.15566	-0.068
Mof_C 	C 	0.38018	0.29416	0.88054	0.027
Mof_C 	C 	0.34415	0.29396	0.84437	-0.068
Mof_C 	C 	0.38018	0.70584	0.11946	0.027
Mof_C 	C 	0.34415	0.70604	0.15563	-0.068
Mof_C 	C 	0.61982	0.70583	0.8805	0.027
Mof_C 	C 	0.65585	0.70602	0.84434	-0.067
Mof_C 	C 	0.29292	0.88067	0.38058	0.027
Mof_C 	C 	0.29312	0.84468	0.34437	-0.066
Mof_C 	C 	0.29292	0.11933	0.61942	0.026
Mof_C 	C 	0.29312	0.15532	0.65563	-0.069
Mof_C 	C 	0.70711	0.88064	0.61938	0.028
Mof_C 	C 	0.7069	0.84464	0.65558	-0.066
Mof_C 	C 	0.89726	0.04064	0.51362	0.043
Mof_C 	C 	0.94754	0.04136	0.51415	-0.081
Mof_C 	C 	0.70711	0.11936	0.38062	0.026
Mof_C 	C 	0.7069	0.15536	0.34442	-0.069
Mof_C 	C 	0.89726	0.95936	0.48638	0.07
Mof_C 	C 	0.94754	0.95864	0.48585	-0.055
Mof_C 	C 	0.88018	0.6195	0.20583	0.028
Mof_C 	C 	0.84414	0.65566	0.20602	-0.066
Mof_C 	C 	0.11982	0.38054	0.20584	0.026
Mof_C 	C 	0.15585	0.34437	0.20604	-0.069
Mof_C 	C 	0.11982	0.61946	0.79416	0.026
Mof_C 	C 	0.15585	0.65563	0.79396	-0.069
Mof_C 	C 	0.88018	0.3805	0.79417	0.027
Mof_C 	C 	0.84414	0.34434	0.79398	-0.066
Mof_C 	C 	0.20708	0.88057	0.61933	0.027
Mof_C 	C 	0.20688	0.84437	0.65532	-0.067
Mof_C 	C 	0.39724	0.98681	0.45922	0.063
Mof_C 	C 	0.44752	0.9863	0.45849	-0.04
Mof_C 	C 	0.20708	0.11943	0.38067	0.026
Mof_C 	C 	0.20688	0.15563	0.34468	-0.07
Mof_C 	C 	0.39724	0.01319	0.54078	0.033
Mof_C 	C 	0.44752	0.0137	0.54151	-0.071
Mof_C 	C 	0.79288	0.11938	0.61937	0.027
Mof_C 	C 	0.79309	0.15558	0.65536	-0.069
Mof_C 	C 	0.60273	0.01362	0.45936	0.033
Mof_C 	C 	0.55246	0.01414	0.45864	-0.071
Mof_C 	C 	0.79288	0.88062	0.38063	0.028
Mof_C 	C 	0.79309	0.84442	0.34464	-0.065
Mof_C 	C 	0.60273	0.98638	0.54064	0.063
Mof_C 	C 	0.55246	0.98586	0.54136	-0.04
Mof_C 	C 	0.61941	0.20582	0.88032	0.027
Mof_C 	C 	0.65556	0.20602	0.8443	-0.068
Mof_C 	C 	0.38058	0.20583	0.11972	0.026
Mof_C 	C 	0.34442	0.20603	0.15574	-0.069
Mof_C 	C 	0.61941	0.79418	0.11968	0.028
Mof_C 	C 	0.65556	0.79398	0.1557	-0.067
Mof_C 	C 	0.38058	0.79417	0.88028	0.028
Mof_C 	C 	0.34442	0.79397	0.84426	-0.067
Mof_C 	C 	0.11956	0.38076	0.29285	0.026
Mof_C 	C 	0.15557	0.34457	0.29306	-0.069
Mof_C 	C 	0.95929	0.48659	0.10275	0.077
Mof_C 	C 	0.95857	0.48607	0.05247	-0.088
Mof_C 	C 	0.88044	0.61929	0.29284	0.028
Mof_C 	C 	0.84443	0.65548	0.29305	-0.066
Mof_C 	C 	0.0407	0.51344	0.10274	0.051
Mof_C 	C 	0.04142	0.51395	0.05247	-0.113
Mof_C 	C 	0.11956	0.61924	0.70715	0.026
Mof_C 	C 	0.15557	0.65543	0.70694	-0.069
Mof_C 	C 	0.95929	0.51341	0.89725	0.078
Mof_C 	C 	0.95857	0.51393	0.94753	-0.089
Mof_C 	C 	0.88044	0.38071	0.70716	0.027
Mof_C 	C 	0.84443	0.34452	0.70695	-0.066
Mof_C 	C 	0.0407	0.48656	0.89726	0.052
Mof_C 	C 	0.04142	0.48605	0.94753	-0.114
Mof_C 	C 	0.38085	0.70715	0.88049	0.028
Mof_C 	C 	0.34467	0.70693	0.84449	-0.068
Mof_C 	C 	0.48658	0.89725	0.04069	0.05
Mof_C 	C 	0.48606	0.94753	0.04142	-0.086
Mof_C 	C 	0.61915	0.70716	0.11948	0.028
Mof_C 	C 	0.65532	0.70695	0.15548	-0.068
Mof_C 	C 	0.51343	0.89726	0.95928	0.051
Mof_C 	C 	0.51395	0.94754	0.95857	-0.085
Mof_C 	C 	0.61915	0.29284	0.88052	0.027
Mof_C 	C 	0.65532	0.29305	0.84452	-0.068
Mof_C 	C 	0.51343	0.10274	0.04072	0.033
Mof_C 	C 	0.51395	0.05246	0.04143	-0.059
Mof_C 	C 	0.38085	0.29285	0.11951	0.027
Mof_C 	C 	0.34467	0.29307	0.15551	-0.068
Mof_C 	C 	0.48658	0.10275	0.95931	0.034
Mof_C 	C 	0.48606	0.05247	0.95858	-0.058
Mof_C 	C 	0.70587	0.11964	0.61956	0.027
Mof_C 	C 	0.70606	0.15581	0.65557	-0.069
Mof_C 	C 	0.70587	0.88036	0.38044	0.028
Mof_C 	C 	0.70606	0.84419	0.34443	-0.065
Mof_C 	C 	0.2941	0.11965	0.38045	0.026
Mof_C 	C 	0.29391	0.15582	0.34445	-0.07
Mof_C 	C 	0.10275	0.95922	0.5132	0.053
Mof_C 	C 	0.05248	0.9585	0.51372	-0.031
Mof_C 	C 	0.2941	0.88035	0.61955	0.027
Mof_C 	C 	0.29391	0.84418	0.65555	-0.066
Mof_C 	C 	0.10275	0.04078	0.4868	0.026
Mof_C 	C 	0.05248	0.0415	0.48628	-0.056
Mof_C 	C 	-2.78522e-33	0.5	0.52671	0.001
Mof_C 	C 	-2.98552e-33	0.5	0.47329	0.001
Mof_C 	C 	0.5267	0	0.5	-0
Mof_C 	C 	0.47328	0	0.5	-0
Mof_C 	C 	0.5	0.52671	-0	0.027
Mof_C 	C 	0.5	0.47329	-0	0.027
Mof_C 	C 	0.99999	0.49999	0.97329	0.064
Mof_C 	C 	0.99999	0.50001	0.02671	0.061
Mof_C 	C 	0.50001	0.02671	-0	-0.018
Mof_C 	C 	0.50001	0.97329	-0	0.073
Mof_C 	C 	0.02671	0	0.5	-0.042
Mof_C 	C 	0.9733	0	0.5	0.043
Mof_C 	C 	0.06178	0.43778	0.74902	0.406
Mof_C 	C 	0.10047	0.3991	0.74923	-0.117
Mof_C 	C 	0.17436	0.32553	0.74966	0.023
Mof_C 	C 	0.21328	0.28664	0.74985	0.014
Mof_C 	C 	0.93822	0.56218	0.74901	0.404
Mof_C 	C 	0.89953	0.60085	0.74922	-0.109
Mof_C 	C 	0.82565	0.67442	0.74963	0.025
Mof_C 	C 	0.78673	0.71333	0.74982	0.017
Mof_C 	C 	0.93822	0.43782	0.25099	0.404
Mof_C 	C 	0.89953	0.39915	0.25078	-0.109
Mof_C 	C 	0.82565	0.32558	0.25037	0.024
Mof_C 	C 	0.78673	0.28667	0.25018	0.016
Mof_C 	C 	0.06178	0.56222	0.25098	0.406
Mof_C 	C 	0.10047	0.6009	0.25077	-0.117
Mof_C 	C 	0.17436	0.67447	0.25034	0.024
Mof_C 	C 	0.21328	0.71336	0.25015	0.015
Mof_C 	C 	0.75095	0.06213	0.4381	0.405
Mof_C 	C 	0.75073	0.10076	0.39934	-0.116
Mof_C 	C 	0.75032	0.17433	0.32541	0.024
Mof_C 	C 	0.75016	0.21333	0.28656	0.015
Mof_C 	C 	0.75095	0.93787	0.5619	0.404
Mof_C 	C 	0.75073	0.89924	0.60066	-0.109
Mof_C 	C 	0.75032	0.82567	0.67459	0.025
Mof_C 	C 	0.75016	0.78667	0.71344	0.017
Mof_C 	C 	0.24908	0.93789	0.43808	0.404
Mof_C 	C 	0.2493	0.89927	0.39931	-0.11
Mof_C 	C 	0.24971	0.82571	0.32537	0.024
Mof_C 	C 	0.24985	0.7867	0.28652	0.016
Mof_C 	C 	0.24908	0.06211	0.56192	0.405
Mof_C 	C 	0.2493	0.10073	0.60069	-0.117
Mof_C 	C 	0.24971	0.17429	0.67463	0.023
Mof_C 	C 	0.24985	0.2133	0.71348	0.014
Mof_C 	C 	0.43775	0.74902	0.06181	0.406
Mof_C 	C 	0.39905	0.74923	0.10052	-0.113
Mof_C 	C 	0.32544	0.74966	0.17445	0.024
Mof_C 	C 	0.28651	0.74985	0.21341	0.016
Mof_C 	C 	0.56225	0.74902	0.93815	0.406
Mof_C 	C 	0.60095	0.74922	0.89943	-0.113
Mof_C 	C 	0.67457	0.74963	0.82551	0.025
Mof_C 	C 	0.7135	0.74982	0.78656	0.017
Mof_C 	C 	0.43775	0.25098	0.93819	0.405
Mof_C 	C 	0.39905	0.25077	0.89948	-0.114
Mof_C 	C 	0.32544	0.25034	0.82555	0.023
Mof_C 	C 	0.28651	0.25015	0.78659	0.014
Mof_C 	C 	0.56225	0.25098	0.06185	0.405
Mof_C 	C 	0.60095	0.25078	0.10057	-0.114
Mof_C 	C 	0.67457	0.25037	0.17449	0.024
Mof_C 	C 	0.7135	0.25018	0.21344	0.015
Mof_C 	C 	0.93775	0.56185	0.24902	0.403
Mof_C 	C 	0.89905	0.60057	0.24923	-0.109
Mof_C 	C 	0.82543	0.67449	0.24964	0.025
Mof_C 	C 	0.7865	0.71344	0.24982	0.017
Mof_C 	C 	0.06225	0.43819	0.24902	0.404
Mof_C 	C 	0.10095	0.39948	0.24923	-0.116
Mof_C 	C 	0.17456	0.32555	0.24965	0.023
Mof_C 	C 	0.21349	0.28659	0.24985	0.014
Mof_C 	C 	0.06225	0.56181	0.75098	0.405
Mof_C 	C 	0.10095	0.60052	0.75077	-0.116
Mof_C 	C 	0.17456	0.67445	0.75035	0.024
Mof_C 	C 	0.21349	0.71341	0.75015	0.015
Mof_C 	C 	0.93775	0.43815	0.75098	0.403
Mof_C 	C 	0.89905	0.39943	0.75077	-0.109
Mof_C 	C 	0.82543	0.32551	0.75036	0.024
Mof_C 	C 	0.7865	0.28656	0.75018	0.016
Mof_C 	C 	0.25091	0.93808	0.56211	0.403
Mof_C 	C 	0.2507	0.89931	0.60073	-0.109
Mof_C 	C 	0.2503	0.82537	0.67429	0.024
Mof_C 	C 	0.25015	0.78652	0.71329	0.016
Mof_C 	C 	0.25091	0.06192	0.43789	0.405
Mof_C 	C 	0.2507	0.10069	0.39927	-0.117
Mof_C 	C 	0.2503	0.17463	0.32571	0.023
Mof_C 	C 	0.25015	0.21348	0.28671	0.014
Mof_C 	C 	0.74905	0.0619	0.56213	0.406
Mof_C 	C 	0.74927	0.10066	0.60076	-0.116
Mof_C 	C 	0.74968	0.1746	0.67432	0.024
Mof_C 	C 	0.74983	0.21344	0.71333	0.015
Mof_C 	C 	0.74905	0.9381	0.43787	0.404
Mof_C 	C 	0.74927	0.89934	0.39924	-0.108
Mof_C 	C 	0.74968	0.8254	0.32568	0.025
Mof_C 	C 	0.74983	0.78656	0.28667	0.017
Mof_C 	C 	0.56178	0.24901	0.93782	0.406
Mof_C 	C 	0.60047	0.24922	0.89914	-0.114
Mof_C 	C 	0.67434	0.24964	0.82557	0.024
Mof_C 	C 	0.71327	0.24982	0.78667	0.015
Mof_C 	C 	0.43822	0.24902	0.06222	0.406
Mof_C 	C 	0.39953	0.24923	0.1009	-0.115
Mof_C 	C 	0.32564	0.24966	0.17446	0.023
Mof_C 	C 	0.28672	0.24985	0.21336	0.014
Mof_C 	C 	0.56178	0.75099	0.06218	0.407
Mof_C 	C 	0.60047	0.75078	0.10086	-0.113
Mof_C 	C 	0.67434	0.75036	0.17443	0.025
Mof_C 	C 	0.71327	0.75018	0.21333	0.017
Mof_C 	C 	0.43822	0.75098	0.93778	0.406
Mof_C 	C 	0.39953	0.75077	0.8991	-0.113
Mof_C 	C 	0.32564	0.75034	0.82554	0.024
Mof_C 	C 	0.28672	0.75015	0.78664	0.016
Mof_C 	C 	0.24987	0.28601	0.78574	-0.061
Mof_C 	C 	0.75014	0.71396	0.78571	-0.06
Mof_C 	C 	0.75014	0.28604	0.21429	-0.06
Mof_C 	C 	0.24987	0.71399	0.21426	-0.06
Mof_C 	C 	0.786	0.24997	0.28593	-0.06
Mof_C 	C 	0.786	0.75003	0.71407	-0.06
Mof_C 	C 	0.21402	0.75007	0.28589	-0.06
Mof_C 	C 	0.21402	0.24993	0.71411	-0.061
Mof_C 	C 	0.28576	0.78585	0.24992	-0.06
Mof_C 	C 	0.71425	0.78582	0.75003	-0.059
Mof_C 	C 	0.28576	0.21415	0.75008	-0.061
Mof_C 	C 	0.71425	0.21418	0.24997	-0.06
Mof_C 	C 	0.74986	0.71429	0.21397	-0.06
Mof_C 	C 	0.25013	0.28574	0.21399	-0.061
Mof_C 	C 	0.25013	0.71426	0.78601	-0.06
Mof_C 	C 	0.74986	0.28571	0.78603	-0.06
Mof_C 	C 	0.21424	0.74992	0.71415	-0.06
Mof_C 	C 	0.21424	0.25008	0.28585	-0.061
Mof_C 	C 	0.78575	0.25004	0.71417	-0.06
Mof_C 	C 	0.78575	0.74996	0.28583	-0.06
Mof_C 	C 	0.714	0.21408	0.74996	-0.06
Mof_C 	C 	0.28598	0.21411	0.25007	-0.061
Mof_C 	C 	0.714	0.78592	0.25004	-0.059
Mof_C 	C 	0.28598	0.78589	0.74993	-0.06
Mof_N 	N 	-2.41062e-33	0.49998	0.62662	-0.271
Mof_N 	N 	6.16002e-33	0.50002	0.37338	-0.271
Mof_N 	N 	0.62661	0	0.5	-0.271
Mof_N 	N 	0.37337	0	0.5	-0.272
Mof_N 	N 	0.5	0.62662	0.99998	-0.254
Mof_N 	N 	0.5	0.37338	2e-05	-0.255
Mof_N 	N 	3.27465e-33	0.49998	0.87338	-0.278
Mof_N 	N 	4.0448e-33	0.50002	0.12662	-0.278
Mof_N 	N 	0.5	0.12662	2e-05	-0.253
Mof_N 	N 	0.5	0.87338	0.99998	-0.256
Mof_N 	N 	0.12663	0	0.5	-0.269
Mof_N 	N 	0.87339	0	0.5	-0.274
Mof_O 	O 	0.04557	0.45409	0.70913	-0.484
Mof_O 	O 	0.95443	0.54586	0.70913	-0.461
Mof_O 	O 	0.95443	0.45414	0.29087	-0.461
Mof_O 	O 	0.04557	0.54591	0.29087	-0.484
Mof_O 	O 	0.71119	0.04571	0.45457	-0.482
Mof_O 	O 	0.71119	0.95429	0.54543	-0.463
Mof_O 	O 	0.28884	0.9543	0.45456	-0.464
Mof_O 	O 	0.28884	0.0457	0.54544	-0.483
Mof_O 	O 	0.45408	0.70913	0.04559	-0.475
Mof_O 	O 	0.54593	0.70913	0.95437	-0.474
Mof_O 	O 	0.45408	0.29087	0.95441	-0.474
Mof_O 	O 	0.54593	0.29087	0.04563	-0.475
Mof_O 	O 	0.95466	0.54574	0.78877	-0.463
Mof_O 	O 	0.04534	0.45421	0.78878	-0.484
Mof_O 	O 	0.95466	0.45426	0.21123	-0.464
Mof_O 	O 	0.04534	0.54579	0.21122	-0.483
Mof_O 	O 	0.5458	0.21122	0.0454	-0.477
Mof_O 	O 	0.4542	0.21122	0.95465	-0.476
Mof_O 	O 	0.4542	0.78878	0.04535	-0.475
Mof_O 	O 	0.5458	0.78878	0.9546	-0.475
Mof_O 	O 	0.2092	0.95418	0.45432	-0.462
Mof_O 	O 	0.2092	0.04582	0.54568	-0.483
Mof_O 	O 	0.79084	0.95416	0.54566	-0.46
Mof_O 	O 	0.79084	0.04584	0.45434	-0.481
Mof_O 	O 	0.9542	0.5454	0.28878	-0.463
Mof_O 	O 	0.0458	0.45465	0.28878	-0.482
Mof_O 	O 	0.0458	0.54535	0.71122	-0.482
Mof_O 	O 	0.9542	0.4546	0.71122	-0.464
Mof_O 	O 	0.2908	0.95432	0.54582	-0.46
Mof_O 	O 	0.2908	0.04568	0.45418	-0.484
Mof_O 	O 	0.70916	0.04566	0.54583	-0.484
Mof_O 	O 	0.70916	0.95434	0.45417	-0.46
Mof_O 	O 	0.54534	0.28877	0.95426	-0.476
Mof_O 	O 	0.45467	0.28878	0.04578	-0.477
Mof_O 	O 	0.54534	0.71123	0.04574	-0.477
Mof_O 	O 	0.45467	0.71122	0.95422	-0.476
Mof_O 	O 	0.04592	0.45441	0.20913	-0.482
Mof_O 	O 	0.95407	0.54563	0.20913	-0.461
Mof_O 	O 	0.04592	0.54559	0.79087	-0.482
Mof_O 	O 	0.95407	0.45437	0.79087	-0.462
Mof_O 	O 	0.45443	0.79087	0.95409	-0.475
Mof_O 	O 	0.54557	0.79087	0.04586	-0.475
Mof_O 	O 	0.54557	0.20913	0.95414	-0.476
Mof_O 	O 	0.45443	0.20913	0.04591	-0.477
Mof_O 	O 	0.7888	0.04543	0.54571	-0.483
Mof_O 	O 	0.7888	0.95457	0.45429	-0.462
Mof_O 	O 	0.21116	0.04544	0.4543	-0.484
Mof_O 	O 	0.21116	0.95456	0.5457	-0.463
_end
