# CIF file generated by openbabel 3.1.0, see https://openbabel.org
data_I
_chemical_name_common 'image0'
_cell_length_a 6.429
_cell_length_b 25.18
_cell_length_c 7.874
_cell_angle_alpha 90
_cell_angle_beta 90.101
_cell_angle_gamma 90
_space_group_name_H-M_alt 'P 1'
_space_group_name_Hall 'P 1'
loop_
    _symmetry_equiv_pos_as_xyz
    x,y,z
loop_
    _atom_site_label
    _atom_site_type_symbol
    _atom_site_fract_x
    _atom_site_fract_y
    _atom_site_fract_z
    _atom_site_occupancy
    Ni1      Ni       0.11910    0.73530    0.18400    1.000
    Ni2      Ni       0.61920    0.80550    0.68810    1.000
    O1       O        0.31890    0.77530    0.35510    1.000
    C1       C        0.35800    0.82410    0.37300    1.000
    O2       O        0.45500    0.84360    0.49470    1.000
    C2       C        0.29350    0.86410    0.23160    1.000
    H1       H        0.21420    0.89330    0.28540    1.000
    H2       H        0.42190    0.87970    0.18380    1.000
    C3       C        0.16740    0.84290    0.08880    1.000
    H3       H        0.10690    0.87340    0.02390    1.000
    N1       N        0.99580    0.80890    0.15070    1.000
    H4       H        0.88940    0.80780    0.07250    1.000
    H5       H        0.94440    0.82170    0.25160    1.000
    C4       C        0.30700    0.80990    0.96820    1.000
    O3       O        0.30160    0.76180    0.99320    1.000
    O4       O        0.41850    0.83490    0.86730    1.000
    O5       O        0.91720    0.70790    0.35950    1.000
    C5       C        0.82400    0.72820    0.48230    1.000
    O6       O        0.81900    0.77860    0.50050    1.000
    C6       C        0.78100    0.68030    0.60420    1.000
    H6       H        0.69900    0.65320    0.54280    1.000
    H7       H        0.91590    0.66400    0.63650    1.000
    C7       C        0.66430    0.69640    0.76630    1.000
    H8       H        0.60230    0.66460    0.82300    1.000
    N2       N        0.49300    0.72980    0.67600    1.000
    H9       H        0.36840    0.72790    0.73230    1.000
    H10      H        0.47460    0.71910    0.56500    1.000
    C8       C        0.83900    0.72080    0.87730    1.000
    O7       O        0.93540    0.69640    0.98660    1.000
    O8       O        0.80700    0.77040    0.87470    1.000
    N3       N        0.29650    0.66550    0.21450    1.000
    C9       C        0.22010    0.62380    0.29900    1.000
    H11      H        0.07770    0.62400    0.33090    1.000
    C10      C        0.34150    0.58030    0.34150    1.000
    H12      H        0.28870    0.55420    0.41710    1.000
    C11      C        0.54260    0.57460    0.27340    1.000
    C12      C        0.61530    0.61790    0.17980    1.000
    H13      H        0.74760    0.61650    0.12650    1.000
    C13      C        0.49380    0.66270    0.16550    1.000
    H14      H        0.55490    0.69360    0.11740    1.000
    C14      C        0.65600    0.52500    0.28500    1.000
    H15      H        0.59650    0.49850    0.35610    1.000
    N4       N        0.20430    0.37320    0.26860    1.000
    C15      C        0.01340    0.37580    0.33490    1.000
    H16      H        0.96240    0.34620    0.39710    1.000
    C16      C        0.88690    0.42000    0.31640    1.000
    H17      H        0.74970    0.41950    0.36080    1.000
    C17      C        0.96020    0.46560    0.23230    1.000
    C18      C        0.16280    0.46230    0.16930    1.000
    H18      H        0.22590    0.49240    0.11790    1.000
    C19      C        0.27040    0.41520    0.18220    1.000
    H19      H        0.40040    0.41260    0.12560    1.000
    C20      C        0.83100    0.51220    0.20900    1.000
    H20      H        0.87980    0.53700    0.12740    1.000
    Ni3      Ni       0.88090    0.23530    0.81600    1.000
    Ni4      Ni       0.38080    0.30550    0.31190    1.000
    O9       O        0.68110    0.27530    0.64490    1.000
    C21      C        0.64200    0.32410    0.62700    1.000
    O10      O        0.54500    0.34360    0.50530    1.000
    C22      C        0.70650    0.36410    0.76840    1.000
    H21      H        0.78580    0.39330    0.71460    1.000
    H22      H        0.57810    0.37970    0.81620    1.000
    C23      C        0.83260    0.34290    0.91120    1.000
    H23      H        0.89310    0.37340    0.97610    1.000
    N5       N        0.00420    0.30890    0.84930    1.000
    H24      H        0.11060    0.30780    0.92750    1.000
    H25      H        0.05560    0.32170    0.74840    1.000
    C24      C        0.69300    0.30990    0.03180    1.000
    O11      O        0.69840    0.26180    0.00680    1.000
    O12      O        0.58150    0.33490    0.13270    1.000
    O13      O        0.08280    0.20790    0.64050    1.000
    C25      C        0.17600    0.22820    0.51770    1.000
    O14      O        0.18100    0.27860    0.49950    1.000
    C26      C        0.21900    0.18030    0.39580    1.000
    H26      H        0.30100    0.15320    0.45720    1.000
    H27      H        0.08410    0.16400    0.36350    1.000
    C27      C        0.33570    0.19640    0.23370    1.000
    H28      H        0.39770    0.16460    0.17700    1.000
    N6       N        0.50700    0.22980    0.32400    1.000
    H29      H        0.63160    0.22790    0.26770    1.000
    H30      H        0.52540    0.21910    0.43500    1.000
    C28      C        0.16100    0.22080    0.12270    1.000
    O15      O        0.06460    0.19640    0.01340    1.000
    O16      O        0.19300    0.27040    0.12530    1.000
    N7       N        0.70350    0.16550    0.78550    1.000
    C29      C        0.77990    0.12380    0.70100    1.000
    H31      H        0.92230    0.12400    0.66910    1.000
    C30      C        0.65850    0.08030    0.65850    1.000
    H32      H        0.71130    0.05420    0.58290    1.000
    C31      C        0.45740    0.07460    0.72660    1.000
    C32      C        0.38470    0.11790    0.82020    1.000
    H33      H        0.25240    0.11650    0.87350    1.000
    C33      C        0.50620    0.16270    0.83450    1.000
    H34      H        0.44510    0.19360    0.88260    1.000
    C34      C        0.34400    0.02500    0.71500    1.000
    H35      H        0.40350    0.99850    0.64390    1.000
    N8       N        0.79570    0.87320    0.73140    1.000
    C35      C        0.98660    0.87580    0.66510    1.000
    H36      H        0.03760    0.84620    0.60290    1.000
    C36      C        0.11310    0.92000    0.68360    1.000
    H37      H        0.25030    0.91950    0.63920    1.000
    C37      C        0.03980    0.96560    0.76770    1.000
    C38      C        0.83720    0.96230    0.83070    1.000
    H38      H        0.77410    0.99240    0.88210    1.000
    C39      C        0.72960    0.91520    0.81780    1.000
    H39      H        0.59960    0.91260    0.87440    1.000
    C40      C        0.16900    0.01220    0.79100    1.000
    H40      H        0.12020    0.03700    0.87260    1.000
