data_functionalizedCrystal
_audit_creation_method	'EQeq! by Chris Wilmer'
_symmetry_space_group_name_H-M	'P1'
_symmetry_Int_Tables_number	1
_symmetry_cell_setting	triclinic
loop_
_symmetry_equiv_pos_as_xyz
  x,y,z
_cell_length_a	7.1668
_cell_length_b	9.8524
_cell_length_c	12.3722
_cell_angle_alpha	91.2854
_cell_angle_beta	106.836
_cell_angle_gamma	85.5579
loop_
_atom_site_label
_atom_site_type_symbol
_atom_site_fract_x
_atom_site_fract_y
_atom_site_fract_z
_atom_site_charge
Mof_Co	Co	0.5	0.5	0.5	1.2
Mof_Co	Co	-3.76738e-17	0.5	0.5	1.172
Mof_H 	H 	0.5478	0.1432	0.6342	0.05
Mof_H 	H 	0.1043	0.0877	0.6304	-0.019
Mof_H 	H 	0.5019	0.3023	0.0866	0.072
Mof_H 	H 	0.5969	0.3048	0.2804	0.036
Mof_H 	H 	0.0864	0.8568	0.6342	-0.019
Mof_H 	H 	0.5261	0.9123	0.6304	0.047
Mof_H 	H 	0.5847	0.6977	0.0866	0.075
Mof_H 	H 	0.6835	0.6952	0.2804	0.043
Mof_H 	H 	0.4522	0.8568	0.3658	0.052
Mof_H 	H 	0.8957	0.9123	0.3696	0.116
Mof_H 	H 	0.4981	0.6977	0.9134	0.063
Mof_H 	H 	0.4031	0.6952	0.7196	0.039
Mof_H 	H 	0.9136	0.1432	0.3658	0.123
Mof_H 	H 	0.4739	0.0877	0.3696	0.054
Mof_H 	H 	0.4153	0.3023	0.9134	0.06
Mof_H 	H 	0.3165	0.3048	0.7196	0.032
Mof_C 	C 	0.82627	0.1415	0.62854	-0.09
Mof_C 	C 	0.6555	0.0858	0.6314	-0.015
Mof_C 	C 	0.9872	0.0529	0.6302	0.066
Mof_C 	C 	0.82804	0.2917	0.61108	0.365
Mof_C 	C 	0.5375	0.3831	0.1246	-0.102
Mof_C 	C 	0.59479	0.384	0.24038	0.054
Mof_C 	C 	0.80227	0.8585	0.62854	-0.093
Mof_C 	C 	0.9759	0.9142	0.6314	0.067
Mof_C 	C 	0.643	0.9471	0.6302	-0.01
Mof_C 	C 	0.78304	0.7083	0.61108	0.367
Mof_C 	C 	0.5871	0.6169	0.1246	-0.101
Mof_C 	C 	0.64559	0.616	0.24038	0.056
Mof_C 	C 	0.17373	0.8585	0.37146	-0.057
Mof_C 	C 	0.3445	0.9142	0.3686	-0.022
Mof_C 	C 	0.0128	0.9471	0.3698	-0.098
Mof_C 	C 	0.17196	0.7083	0.38892	0.348
Mof_C 	C 	0.4625	0.6169	0.8754	-0.086
Mof_C 	C 	0.40521	0.616	0.75962	0.032
Mof_C 	C 	0.19773	0.1415	0.37146	-0.05
Mof_C 	C 	0.0241	0.0858	0.3686	-0.111
Mof_C 	C 	0.357	0.0529	0.3698	-0.03
Mof_C 	C 	0.21696	0.2917	0.38892	0.344
Mof_C 	C 	0.4129	0.3831	0.8754	-0.087
Mof_C 	C 	0.35441	0.384	0.75962	0.031
Mof_C 	C 	0.5314	0.5	0.0628	0.061
Mof_C 	C 	0.4686	0.5	0.9372	0.03
Mof_N 	N 	0.6477	0.5	0.2954	-0.054
Mof_N 	N 	0.3523	0.5	0.7046	-0.054
Mof_O 	O 	0.68254	0.3664	0.61928	-0.394
Mof_O 	O 	0.97499	0.33	0.58718	-0.368
Mof_O 	O 	0.93674	0.6336	0.61928	-0.364
Mof_O 	O 	0.61219	0.67	0.58718	-0.406
Mof_O 	O 	0.31746	0.6336	0.38072	-0.401
Mof_O 	O 	0.02501	0.67	0.41282	-0.436
Mof_O 	O 	0.06326	0.3664	0.38072	-0.424
Mof_O 	O 	0.38781	0.33	0.41282	-0.406
Mof_O 	O 	0.70414	0.5	0.40828	-0.367
Mof_O 	O 	0.29586	0.5	0.59172	-0.391
_end
