data_functionalizedCrystal
_audit_creation_method	'EQeq! by Chris Wilmer'
_symmetry_space_group_name_H-M	'P1'
_symmetry_Int_Tables_number	1
_symmetry_cell_setting	triclinic
loop_
_symmetry_equiv_pos_as_xyz
  x,y,z
_cell_length_a	11.2195
_cell_length_b	15.817
_cell_length_c	18.0989
_cell_angle_alpha	102.099
_cell_angle_beta	96.385
_cell_angle_gamma	98.947
loop_
_atom_site_label
_atom_site_type_symbol
_atom_site_fract_x
_atom_site_fract_y
_atom_site_fract_z
_atom_site_charge
Mof_Cd	Cd	0.7309	0.25003	0.63584	0.508
Mof_Cd	Cd	0.64148	0.67881	0.8847	0.506
Mof_O 	O 	0.5299	0.2104	0.5908	-0.262
Mof_O 	O 	0.5441	0.3506	0.6376	-0.289
Mof_O 	O 	0.9334	0.1889	0.6387	-0.249
Mof_O 	O 	0.7735	0.1349	0.5502	-0.242
Mof_O 	O 	0.677	0.1549	0.7296	-0.236
Mof_O 	O 	0.7603	0.2937	0.7647	-0.267
Mof_O 	O 	0.408	0.2153	0.0178	-0.245
Mof_O 	O 	0.4365	0.1925	0.1326	-0.255
Mof_O 	O 	0.8183	0.3348	0.5679	-0.302
Mof_O 	O 	0.8114	0.4498	0.651	-0.307
Mof_O 	O 	0.729	0.6368	0.7736	-0.287
Mof_O 	O 	0.8446	0.7364	0.8691	-0.25
Mof_O 	O 	0.4677	0.5307	0.7473	-0.297
Mof_O 	O 	0.4638	0.5926	0.8671	-0.287
Mof_O 	O 	0.1964	0.3364	0.9551	-0.221
Mof_O 	O 	0.27	0.4221	0.0681	-0.264
Mof_C 	C 	0.3493	0.2682	0.5752	-0.034
Mof_C 	C 	0.2709	0.1873	0.5638	-0.056
Mof_H 	H 	0.3024	0.1391	0.5739	0.078
Mof_C 	C 	0.1462	0.1769	0.5375	0.042
Mof_C 	C 	0.102	0.2486	0.5224	-0.074
Mof_H 	H 	0.0191	0.2434	0.506	0.077
Mof_C 	C 	0.1794	0.329	0.5313	-0.014
Mof_H 	H 	0.1481	0.3762	0.5189	0.044
Mof_C 	C 	0.3021	0.3396	0.5583	-0.038
Mof_H 	H 	0.3528	0.3939	0.5652	0.053
Mof_C 	C 	0.0681	0.0873	0.5218	0.026
Mof_C 	C 	0.9482	0.0696	0.5364	-0.047
Mof_C 	C 	0.8851	0.9838	0.5152	-0.043
Mof_H 	H 	0.806	0.9729	0.5264	0.071
Mof_C 	C 	0.4839	0.2772	0.6036	0.313
Mof_C 	C 	0.8834	0.137	0.5801	0.295
Mof_C 	C 	0.7175	0.2223	0.7805	0.289
Mof_C 	C 	0.7126	0.2217	0.8632	-0.017
Mof_C 	C 	0.7805	0.2908	0.9212	-0.042
Mof_H 	H 	0.8319	0.3366	0.9094	0.07
Mof_C 	C 	0.7698	0.2898	0.9958	0.003
Mof_H 	H 	0.8129	0.3364	0.0345	0.039
Mof_C 	C 	0.6965	0.2213	0.0148	-0.075
Mof_H 	H 	0.6909	0.2222	0.0658	0.071
Mof_C 	C 	0.6311	0.1512	0.958	0.049
Mof_C 	C 	0.6413	0.1522	0.8828	-0.063
Mof_H 	H 	0.5992	0.1051	0.8442	0.081
Mof_C 	C 	0.5594	0.0747	0.9786	0.024
Mof_C 	C 	0.4771	0.0832	0.0301	-0.047
Mof_C 	C 	0.4191	0.009	0.0516	-0.043
Mof_H 	H 	0.3649	0.0158	0.0869	0.069
Mof_C 	C 	0.4389	0.1704	0.0628	0.294
Mof_C 	C 	0.8459	0.4135	0.5938	0.357
Mof_C 	C 	0.925	0.464	0.5479	-0.082
Mof_C 	C 	0.007	0.544	0.5781	0.023
Mof_C 	C 	0.0793	0.5765	0.5283	-0.044
Mof_H 	H 	0.1343	0.6291	0.5478	0.066
Mof_C 	C 	0.024	0.5954	0.6581	0.028
Mof_C 	C 	0.1396	0.6225	0.7011	-0.07
Mof_H 	H 	0.2067	0.6066	0.6795	0.066
Mof_C 	C 	0.1573	0.6723	0.7752	-0.013
Mof_H 	H 	0.2357	0.6904	0.8025	0.047
Mof_C 	C 	0.0595	0.6951	0.8087	-0.037
Mof_H 	H 	0.0716	0.7283	0.8587	0.062
Mof_C 	C 	0.9426	0.6688	0.768	-0.035
Mof_C 	C 	0.9236	0.621	0.6915	-0.045
Mof_H 	H 	0.8458	0.6065	0.6633	0.063
Mof_C 	C 	0.8319	0.6834	0.8059	0.285
Mof_C 	C 	0.4201	0.5419	0.8055	0.337
Mof_C 	C 	0.2932	0.4907	0.8031	-0.041
Mof_C 	C 	0.2308	0.436	0.7357	-0.031
Mof_H 	H 	0.2697	0.426	0.6928	0.059
Mof_C 	C 	0.1118	0.3963	0.7315	-0.006
Mof_H 	H 	0.07	0.3607	0.6855	0.056
Mof_C 	C 	0.0537	0.4086	0.795	-0.072
Mof_H 	H 	0.9721	0.3835	0.7914	0.085
Mof_C 	C 	0.1179	0.459	0.8646	0.043
Mof_C 	C 	0.2363	0.4999	0.8677	-0.051
Mof_H 	H 	0.279	0.5343	0.914	0.075
Mof_C 	C 	0.9589	0.5225	0.9336	-0.044
Mof_H 	H 	0.9307	0.5373	0.8886	0.064
Mof_C 	C 	0.0567	0.4767	0.9341	0.018
Mof_C 	C 	0.0968	0.4539	0.0036	-0.058
Mof_C 	C 	0.1957	0.3998	0.0078	0.309
Mof_Cd	Cd	0.63529	0.49321	0.69717	0.435
Mof_Cd	Cd	0.2691	0.74997	0.36416	0.509
Mof_Cd	Cd	0.35852	0.32119	0.1153	0.507
Mof_O 	O 	0.4701	0.7896	0.4092	-0.261
Mof_O 	O 	0.4559	0.6494	0.3624	-0.288
Mof_O 	O 	0.0666	0.8111	0.3613	-0.249
Mof_O 	O 	0.2265	0.8651	0.4498	-0.242
Mof_O 	O 	0.323	0.8451	0.2704	-0.236
Mof_O 	O 	0.2397	0.7063	0.2353	-0.267
Mof_O 	O 	0.592	0.7847	0.9822	-0.245
Mof_O 	O 	0.5635	0.8075	0.8674	-0.255
Mof_O 	O 	0.1817	0.6652	0.4321	-0.302
Mof_O 	O 	0.1886	0.5502	0.349	-0.307
Mof_O 	O 	0.271	0.3632	0.2264	-0.287
Mof_O 	O 	0.1554	0.2636	0.1309	-0.25
Mof_O 	O 	0.5323	0.4693	0.2527	-0.297
Mof_O 	O 	0.5362	0.4074	0.1329	-0.287
Mof_O 	O 	0.8036	0.6636	0.0449	-0.221
Mof_O 	O 	0.73	0.5779	0.9319	-0.264
Mof_C 	C 	0.6507	0.7318	0.4248	-0.034
Mof_C 	C 	0.7291	0.8127	0.4362	-0.056
Mof_H 	H 	0.6976	0.8609	0.4261	0.078
Mof_C 	C 	0.8538	0.8231	0.4625	0.042
Mof_C 	C 	0.898	0.7514	0.4776	-0.074
Mof_H 	H 	0.9809	0.7566	0.494	0.077
Mof_C 	C 	0.8206	0.671	0.4687	-0.014
Mof_H 	H 	0.8519	0.6238	0.4811	0.044
Mof_C 	C 	0.6979	0.6604	0.4417	-0.038
Mof_H 	H 	0.6472	0.6061	0.4348	0.053
Mof_C 	C 	0.9319	0.9127	0.4782	0.026
Mof_C 	C 	0.0518	0.9304	0.4636	-0.047
Mof_C 	C 	0.1149	0.0162	0.4848	-0.043
Mof_H 	H 	0.194	0.0271	0.4736	0.071
Mof_C 	C 	0.5161	0.7228	0.3964	0.313
Mof_C 	C 	0.1166	0.863	0.4199	0.295
Mof_C 	C 	0.2825	0.7777	0.2195	0.289
Mof_C 	C 	0.2874	0.7783	0.1368	-0.017
Mof_C 	C 	0.2195	0.7092	0.0788	-0.042
Mof_H 	H 	0.1681	0.6634	0.0906	0.07
Mof_C 	C 	0.2302	0.7102	0.0042	0.003
Mof_H 	H 	0.1871	0.6636	0.9655	0.039
Mof_C 	C 	0.3035	0.7787	0.9852	-0.075
Mof_H 	H 	0.3091	0.7778	0.9342	0.071
Mof_C 	C 	0.3689	0.8488	0.042	0.049
Mof_C 	C 	0.3587	0.8478	0.1172	-0.063
Mof_H 	H 	0.4008	0.8949	0.1558	0.081
Mof_C 	C 	0.4406	0.9253	0.0214	0.024
Mof_C 	C 	0.5229	0.9168	0.9699	-0.047
Mof_C 	C 	0.5809	0.991	0.9484	-0.043
Mof_H 	H 	0.6351	0.9842	0.9131	0.069
Mof_C 	C 	0.5611	0.8296	0.9372	0.294
Mof_C 	C 	0.1541	0.5865	0.4062	0.357
Mof_C 	C 	0.075	0.536	0.4521	-0.082
Mof_C 	C 	0.993	0.456	0.4219	0.023
Mof_C 	C 	0.9207	0.4235	0.4717	-0.044
Mof_H 	H 	0.8657	0.3709	0.4522	0.066
Mof_C 	C 	0.976	0.4046	0.3419	0.028
Mof_C 	C 	0.8604	0.3775	0.2989	-0.07
Mof_H 	H 	0.7933	0.3934	0.3205	0.066
Mof_C 	C 	0.8427	0.3277	0.2248	-0.013
Mof_H 	H 	0.7643	0.3096	0.1975	0.047
Mof_C 	C 	0.9405	0.3049	0.1913	-0.037
Mof_H 	H 	0.9284	0.2717	0.1413	0.062
Mof_C 	C 	0.0574	0.3312	0.232	-0.035
Mof_C 	C 	0.0764	0.379	0.3085	-0.045
Mof_H 	H 	0.1542	0.3935	0.3367	0.063
Mof_C 	C 	0.1681	0.3166	0.1941	0.285
Mof_C 	C 	0.5799	0.4581	0.1945	0.337
Mof_C 	C 	0.7068	0.5093	0.1969	-0.041
Mof_C 	C 	0.7692	0.564	0.2643	-0.031
Mof_H 	H 	0.7303	0.574	0.3072	0.059
Mof_C 	C 	0.8882	0.6037	0.2685	-0.006
Mof_H 	H 	0.93	0.6393	0.3145	0.056
Mof_C 	C 	0.9463	0.5914	0.205	-0.072
Mof_H 	H 	0.0279	0.6165	0.2086	0.085
Mof_C 	C 	0.8821	0.541	0.1354	0.043
Mof_C 	C 	0.7637	0.5001	0.1323	-0.051
Mof_H 	H 	0.721	0.4657	0.086	0.075
Mof_C 	C 	0.0411	0.4775	0.0664	-0.044
Mof_H 	H 	0.0693	0.4627	0.1114	0.064
Mof_C 	C 	0.9433	0.5233	0.0659	0.018
Mof_C 	C 	0.9032	0.5461	0.9964	-0.058
Mof_C 	C 	0.8043	0.6002	0.9922	0.309
Mof_Cd	Cd	0.36471	0.50679	0.30283	0.435
_end
