# CIF file generated by openbabel 3.1.0, see https://openbabel.org
data_I
_chemical_name_common 'image0'
_cell_length_a 9.3755
_cell_length_b 7.4746
_cell_length_c 15.431
_cell_angle_alpha 90
_cell_angle_beta 100.119
_cell_angle_gamma 90
_space_group_name_H-M_alt 'P 1'
_space_group_name_Hall 'P 1'
loop_
    _symmetry_equiv_pos_as_xyz
    x,y,z
loop_
    _atom_site_label
    _atom_site_type_symbol
    _atom_site_fract_x
    _atom_site_fract_y
    _atom_site_fract_z
    _atom_site_occupancy
    Mg1      Mg       0.78015    0.46719    0.59849    1.000
    P1       P        0.65247    0.59715    0.77434    1.000
    O1       O        0.74348    0.61460    0.70399    1.000
    O2       O        0.71540    0.45260    0.84425    1.000
    H1       H        0.72710    0.35830    0.81920    1.000
    O3       O        0.63442    0.76390    0.82407    1.000
    O4       O        0.50160    0.52460    0.72507    1.000
    H2       H        0.43940    0.54330    0.75530    1.000
    O5       O        0.63731    0.65790    0.52095    1.000
    O6       O        0.41185    0.68550    0.44644    1.000
    O7       O        0.96788    0.61760    0.59181    1.000
    O8       O        0.14943    0.64040    0.51497    1.000
    C1       C        0.51430    0.59950    0.49047    1.000
    C2       C        0.03480    0.57570    0.53153    1.000
    Mg2      Mg       0.71985    0.96719    0.90151    1.000
    P2       P        0.84753    0.09715    0.72566    1.000
    O9       O        0.75652    0.11460    0.79601    1.000
    O10      O        0.78460    0.95260    0.65575    1.000
    H3       H        0.77290    0.85830    0.68080    1.000
    O11      O        0.86558    0.26390    0.67593    1.000
    O12      O        0.99840    0.02460    0.77493    1.000
    H4       H        0.06060    0.04330    0.74470    1.000
    O13      O        0.86269    0.15790    0.97905    1.000
    O14      O        0.08815    0.18550    0.05356    1.000
    O15      O        0.53212    0.11760    0.90819    1.000
    O16      O        0.35057    0.14040    0.98503    1.000
    C3       C        0.98570    0.09950    0.00953    1.000
    C4       C        0.46520    0.07570    0.96847    1.000
    Mg3      Mg       0.21985    0.53281    0.40151    1.000
    P3       P        0.34753    0.40285    0.22566    1.000
    O17      O        0.25652    0.38540    0.29601    1.000
    O18      O        0.28460    0.54740    0.15575    1.000
    H5       H        0.27290    0.64170    0.18080    1.000
    O19      O        0.36558    0.23610    0.17593    1.000
    O20      O        0.49840    0.47540    0.27493    1.000
    H6       H        0.56060    0.45670    0.24470    1.000
    O21      O        0.36269    0.34210    0.47905    1.000
    O22      O        0.58815    0.31450    0.55356    1.000
    O23      O        0.03212    0.38240    0.40819    1.000
    O24      O        0.85057    0.35960    0.48503    1.000
    C5       C        0.48570    0.40050    0.50953    1.000
    C6       C        0.96520    0.42430    0.46847    1.000
    Mg4      Mg       0.28015    0.03281    0.09849    1.000
    P4       P        0.15247    0.90285    0.27434    1.000
    O25      O        0.24348    0.88540    0.20399    1.000
    O26      O        0.21540    0.04740    0.34425    1.000
    H7       H        0.22710    0.14170    0.31920    1.000
    O27      O        0.13442    0.73610    0.32407    1.000
    O28      O        0.00160    0.97540    0.22507    1.000
    H8       H        0.93940    0.95670    0.25530    1.000
    O29      O        0.13731    0.84210    0.02095    1.000
    O30      O        0.91185    0.81450    0.94644    1.000
    O31      O        0.46788    0.88240    0.09181    1.000
    O32      O        0.64943    0.85960    0.01497    1.000
    C7       C        0.01430    0.90050    0.99047    1.000
    C8       C        0.53480    0.92430    0.03153    1.000
