data_functionalizedCrystal
_audit_creation_method	'EQeq! by Chris Wilmer'
_symmetry_space_group_name_H-M	'P1'
_symmetry_Int_Tables_number	1
_symmetry_cell_setting	triclinic
loop_
_symmetry_equiv_pos_as_xyz
  x,y,z
_cell_length_a	14.2697
_cell_length_b	40.363
_cell_length_c	30.931
_cell_angle_alpha	90
_cell_angle_beta	102.623
_cell_angle_gamma	90
loop_
_atom_site_label
_atom_site_type_symbol
_atom_site_fract_x
_atom_site_fract_y
_atom_site_fract_z
_atom_site_charge
Mof_Co	Co	0.60056	0.60493	0.27734	1.161
Mof_Co	Co	0.82856	0.35353	0.22755	1.166
Mof_Co	Co	0.60224	0.69814	0.77751	1.166
Mof_Co	Co	0.33024	0.44819	0.72924	1.161
Mof_Cd	Cd	0.75289	0.52549	0.00659	0.449
Mof_Cd	Cd	0.2481	0.27534	0.50239	0.46
Mof_N 	N 	0.4986	0.6207	0.2961	-0.326
Mof_N 	N 	0.5143	0.5882	0.2302	-0.297
Mof_N 	N 	0.7077	0.36517	0.2028	-0.302
Mof_N 	N 	0.7716	0.3401	0.2722	-0.298
Mof_N 	N 	0.5065	0.7115	0.7272	-0.279
Mof_N 	N 	0.4935	0.68452	0.8016	-0.292
Mof_N 	N 	0.2788	0.4672	0.7731	-0.312
Mof_N 	N 	0.2059	0.429	0.7038	-0.293
Mof_O 	O 	0.7175	0.72272	0.48023	-0.301
Mof_O 	O 	0.56	0.71915	0.4566	-0.307
Mof_O 	O 	0.6937	0.61872	0.3277	-0.5
Mof_O 	O 	0.7061	0.59286	0.25296	-0.515
Mof_O 	O 	0.6411	0.54382	0.0525	-0.283
Mof_O 	O 	0.7962	0.5433	0.0735	-0.312
Mof_O 	O 	0.6508	0.4705	0.0436	-0.26
Mof_O 	O 	0.8144	0.475	0.0354	-0.251
Mof_O 	O 	0.8804	0.36715	0.18207	-0.549
Mof_O 	O 	0.9581	0.34092	0.25894	-0.505
Mof_O 	O 	0.1873	0.2865	0.4392	-0.289
Mof_O 	O 	0.0426	0.2959	0.4571	-0.299
Mof_O 	O 	0.802	0.7569	0.5778	-0.326
Mof_O 	O 	0.6466	0.7603	0.5561	-0.321
Mof_O 	O 	0.6999	0.7099	0.7533	-0.524
Mof_O 	O 	0.6858	0.68516	0.827	-0.516
Mof_O 	O 	0.5559	0.5807	0.9557	-0.281
Mof_O 	O 	0.7222	0.5791	0.9789	-0.296
Mof_O 	O 	0.5422	0.50275	0.95934	-0.326
Mof_O 	O 	0.6772	0.5063	0.9384	-0.341
Mof_O 	O 	0.4479	0.45789	0.75601	-0.555
Mof_O 	O 	0.3843	0.4344	0.6788	-0.476
Mof_O 	O 	0.2834	0.3309	0.5287	-0.327
Mof_O 	O 	0.1366	0.3393	0.5385	-0.339
Mof_C 	C 	0.6416	0.71137	0.4545	0.365
Mof_C 	C 	0.6532	0.68073	0.42568	-0.221
Mof_C 	C 	0.7434	0.66789	0.42542	0.236
Mof_H 	H 	0.7968	0.6751	0.4462	-0.071
Mof_C 	C 	0.7538	0.64427	0.3941	-0.459
Mof_C 	C 	0.674	0.63351	0.363	0.36
Mof_C 	C 	0.5837	0.64635	0.36328	-0.274
Mof_C 	C 	0.5733	0.66996	0.39461	0.152
Mof_H 	H 	0.5129	0.6786	0.3948	-0.013
Mof_C 	C 	0.8419	0.58746	0.4018	-1.301
Mof_H 	H 	0.8093	0.5809	0.4244	0.381
Mof_H 	H 	0.905	0.5778	0.4077	0.373
Mof_H 	H 	0.8063	0.5799	0.3735	0.386
Mof_C 	C 	0.8503	0.62572	0.4012	0.923
Mof_C 	C 	0.8984	0.6342	0.3624	-1.308
Mof_H 	H 	0.904	0.6578	0.3601	0.398
Mof_H 	H 	0.86	0.6257	0.3352	0.401
Mof_H 	H 	0.9612	0.6244	0.3676	0.374
Mof_C 	C 	0.9261	0.6355	0.443	-1.317
Mof_H 	H 	0.9321	0.6592	0.4445	0.407
Mof_H 	H 	0.9869	0.6258	0.4417	0.38
Mof_H 	H 	0.9063	0.6275	0.4689	0.386
Mof_C 	C 	0.5065	0.6368	0.3304	0.132
Mof_H 	H 	0.4479	0.6441	0.3353	-0.024
Mof_C 	C 	0.4074	0.6123	0.2674	0.026
Mof_H 	H 	0.4044	0.6292	0.2444	-0.017
Mof_C 	C 	0.3137	0.6192	0.2811	-0.158
Mof_H 	H 	0.3117	0.6421	0.2903	0.052
Mof_H 	H 	0.3081	0.6051	0.3058	0.049
Mof_C 	C 	0.2282	0.6121	0.2403	-0.072
Mof_H 	H 	0.1677	0.6124	0.2498	-0.009
Mof_H 	H 	0.226	0.6291	0.218	0.013
Mof_C 	C 	0.2432	0.5788	0.2214	-0.054
Mof_H 	H 	0.1861	0.5727	0.1995	0.001
Mof_H 	H 	0.2525	0.5624	0.2449	0.004
Mof_C 	C 	0.3303	0.5784	0.1997	-0.159
Mof_H 	H 	0.3284	0.5969	0.1794	0.079
Mof_H 	H 	0.334	0.5578	0.184	0.059
Mof_C 	C 	0.4166	0.5819	0.2412	-0.002
Mof_H 	H 	0.4199	0.5623	0.26	-0.019
Mof_C 	C 	0.5271	0.5765	0.1927	0.108
Mof_H 	H 	0.474	0.5693	0.1717	-0.002
Mof_C 	C 	0.6217	0.57445	0.18249	-0.255
Mof_C 	C 	0.7061	0.58132	0.21324	0.387
Mof_C 	C 	0.7942	0.5778	0.20155	-0.496
Mof_C 	C 	0.798	0.5674	0.1591	0.265
Mof_H 	H 	0.857	0.565	0.1513	-0.083
Mof_C 	C 	0.7135	0.5605	0.12837	-0.242
Mof_C 	C 	0.6254	0.56405	0.14005	0.157
Mof_H 	H 	0.5689	0.5595	0.1195	-0.003
Mof_C 	C 	0.8892	0.58437	0.23604	1.022
Mof_C 	C 	0.8948	0.5654	0.2798	-1.45
Mof_H 	H 	0.9551	0.57	0.2997	0.419
Mof_H 	H 	0.8897	0.542	0.2738	0.439
Mof_H 	H 	0.8432	0.5723	0.2931	0.445
Mof_C 	C 	0.9751	0.5761	0.2152	-1.463
Mof_H 	H 	0.0338	0.5791	0.2369	0.433
Mof_H 	H 	0.9746	0.5905	0.1905	0.442
Mof_H 	H 	0.9704	0.5535	0.2053	0.453
Mof_C 	C 	0.9021	0.62118	0.2499	-1.406
Mof_H 	H 	0.9606	0.6238	0.2719	0.406
Mof_H 	H 	0.8488	0.6282	0.262	0.433
Mof_H 	H 	0.9049	0.6345	0.2245	0.414
Mof_C 	C 	0.7187	0.5506	0.083	0.351
Mof_C 	C 	0.7347	0.4574	0.0459	0.238
Mof_C 	C 	0.774	0.43121	0.08241	-0.193
Mof_C 	C 	0.7164	0.41974	0.1101	0.127
Mof_H 	H 	0.654	0.4276	0.1069	-0.017
Mof_C 	C 	0.7521	0.3965	0.1427	-0.265
Mof_C 	C 	0.8454	0.3847	0.1476	0.408
Mof_C 	C 	0.9029	0.3962	0.1199	-0.514
Mof_C 	C 	0.8672	0.41943	0.0873	0.237
Mof_H 	H 	0.9058	0.4271	0.0687	-0.072
Mof_C 	C 	0.9927	0.37674	0.1149	1.081
Mof_C 	C 	0.0668	0.389	0.1558	-1.493
Mof_H 	H 	0.0454	0.3834	0.1822	0.456
Mof_H 	H 	0.0735	0.4126	0.1541	0.447
Mof_H 	H 	0.1277	0.3787	0.1565	0.423
Mof_C 	C 	0.9792	0.3389	0.1109	-1.475
Mof_H 	H 	0.952	0.331	0.1348	0.44
Mof_H 	H 	0.0404	0.3285	0.1124	0.415
Mof_H 	H 	0.937	0.3337	0.0831	0.427
Mof_C 	C 	0.0362	0.3869	0.0761	-1.535
Mof_H 	H 	0.0494	0.4102	0.0777	0.464
Mof_H 	H 	0.9918	0.3819	0.0488	0.45
Mof_H 	H 	0.0949	0.3749	0.0774	0.438
Mof_C 	C 	0.6873	0.3862	0.1674	0.079
Mof_H 	H 	0.6248	0.3941	0.1591	-0.013
Mof_C 	C 	0.6298	0.3512	0.2223	-0.014
Mof_H 	H 	0.6247	0.3283	0.2119	-0.007
Mof_C 	C 	0.5373	0.362	0.2126	-0.113
Mof_H 	H 	0.512	0.3597	0.181	0.034
Mof_H 	H 	0.5364	0.3854	0.2199	0.031
Mof_C 	C 	0.471	0.3434	0.2372	-0.098
Mof_H 	H 	0.4673	0.3202	0.2287	0.013
Mof_H 	H 	0.4068	0.3527	0.2294	-0
Mof_C 	C 	0.5106	0.3464	0.2875	-0.023
Mof_H 	H 	0.5069	0.3692	0.2971	0.004
Mof_H 	H 	0.4747	0.3324	0.3036	-0.01
Mof_C 	C 	0.6147	0.3351	0.295	-0.226
Mof_H 	H 	0.6445	0.3391	0.3259	0.098
Mof_H 	H 	0.6145	0.3113	0.2905	0.07
Mof_C 	C 	0.6684	0.3478	0.2717	0.083
Mof_H 	H 	0.6721	0.371	0.2815	-0.014
Mof_C 	C 	0.8254	0.3268	0.3127	0.083
Mof_H 	H 	0.7898	0.3196	0.3327	0.005
Mof_C 	C 	0.9239	0.32328	0.32601	-0.266
Mof_C 	C 	0.9865	0.32897	0.29814	0.41
Mof_C 	C 	0.0845	0.324	0.31348	-0.498
Mof_C 	C 	0.1199	0.3133	0.3567	0.287
Mof_H 	H 	0.1855	0.31	0.367	-0.087
Mof_C 	C 	0.0573	0.3076	0.38457	-0.287
Mof_C 	C 	0.9592	0.31261	0.36923	0.185
Mof_H 	H 	0.9173	0.3088	0.3879	-0.01
Mof_C 	C 	0.1533	0.32824	0.2811	0.961
Mof_C 	C 	0.1613	0.3639	0.2647	-1.345
Mof_H 	H 	0.206	0.3645	0.2456	0.381
Mof_H 	H 	0.1833	0.3782	0.2897	0.393
Mof_H 	H 	0.0994	0.3712	0.2487	0.409
Mof_C 	C 	0.1156	0.3117	0.2352	-1.317
Mof_H 	H 	0.1607	0.3154	0.2168	0.379
Mof_H 	H 	0.0548	0.3213	0.2214	0.405
Mof_H 	H 	0.1079	0.2884	0.2391	0.401
Mof_C 	C 	0.2517	0.312	0.3007	-1.421
Mof_H 	H 	0.2941	0.3155	0.2809	0.422
Mof_H 	H 	0.2432	0.2887	0.3044	0.443
Mof_H 	H 	0.279	0.3219	0.3289	0.434
Mof_C 	C 	0.0924	0.2994	0.4274	0.34
Mof_C 	C 	0.72	0.7551	0.58316	0.408
Mof_C 	C 	0.7095	0.74415	0.62823	-0.235
Mof_C 	C 	0.7947	0.73879	0.65918	0.243
Mof_H 	H 	0.8533	0.7427	0.6516	-0.068
Mof_C 	C 	0.7922	0.7276	0.70141	-0.465
Mof_C 	C 	0.7045	0.7217	0.71269	0.357
Mof_C 	C 	0.6194	0.7271	0.68174	-0.24
Mof_C 	C 	0.6218	0.73831	0.63951	0.149
Mof_H 	H 	0.5649	0.7419	0.6188	0.002
Mof_C 	C 	0.8879	0.72483	0.735	0.923
Mof_C 	C 	0.9771	0.7378	0.7198	-1.325
Mof_H 	H 	0.9794	0.7282	0.6916	0.406
Mof_H 	H 	0.034	0.7318	0.7412	0.39
Mof_H 	H 	0.9735	0.7615	0.717	0.404
Mof_C 	C 	0.9021	0.68697	0.742	-1.32
Mof_H 	H 	0.9001	0.6764	0.714	0.396
Mof_H 	H 	0.8518	0.6782	0.7548	0.408
Mof_H 	H 	0.9631	0.6828	0.7615	0.378
Mof_C 	C 	0.2357	0.7062	0.7086	-0.155
Mof_H 	H 	0.1851	0.7205	0.6926	0.035
Mof_H 	H 	0.2269	0.6841	0.6962	0.051
Mof_C 	C 	0.894	0.7421	0.7807	-1.296
Mof_H 	H 	0.8402	0.7354	0.7927	0.392
Mof_H 	H 	0.8929	0.7657	0.7769	0.388
Mof_H 	H 	0.9525	0.7357	0.8008	0.371
Mof_C 	C 	0.5274	0.723	0.6911	0.094
Mof_H 	H 	0.4756	0.7292	0.6687	0.003
Mof_C 	C 	0.4076	0.7033	0.73166	-0.027
Mof_H 	H 	0.3977	0.6804	0.7212	0.011
Mof_C 	C 	0.3351	0.7199	0.7073	-0.075
Mof_H 	H 	0.3421	0.7199	0.6768	0.05
Mof_H 	H 	0.3387	0.7427	0.7173	0.015
Mof_C 	C 	0.2372	0.7059	0.7573	0.018
Mof_H 	H 	0.1779	0.6959	0.7613	-0.033
Mof_H 	H 	0.2375	0.7287	0.7673	-0.017
Mof_C 	C 	0.3205	0.6879	0.7872	-0.213
Mof_H 	H 	0.3172	0.6906	0.818	0.067
Mof_H 	H 	0.3176	0.6644	0.7803	0.065
Mof_C 	C 	0.4059	0.7015	0.77993	0.056
Mof_H 	H 	0.4101	0.7242	0.7913	-0.03
Mof_C 	C 	0.4952	0.66543	0.8327	0.091
Mof_H 	H 	0.4371	0.6596	0.8395	-0.015
Mof_C 	C 	0.5875	0.65065	0.86082	-0.229
Mof_C 	C 	0.6775	0.66419	0.86187	0.346
Mof_C 	C 	0.7558	0.65467	0.8947	-0.502
Mof_C 	C 	0.7441	0.6316	0.9265	0.248
Mof_H 	H 	0.7965	0.6253	0.9485	-0.077
Mof_C 	C 	0.6541	0.61809	0.9254	-0.21
Mof_C 	C 	0.5757	0.6276	0.89261	0.126
Mof_H 	H 	0.5155	0.6185	0.8919	-0.004
Mof_C 	C 	0.8562	0.67098	0.89913	1.111
Mof_C 	C 	0.8403	0.7091	0.9001	-1.473
Mof_H 	H 	0.9009	0.7203	0.9034	0.42
Mof_H 	H 	0.812	0.7147	0.9247	0.43
Mof_H 	H 	0.7982	0.716	0.873	0.449
Mof_C 	C 	0.9023	0.6613	0.861	-1.599
Mof_H 	H 	0.9638	0.6719	0.8647	0.46
Mof_H 	H 	0.8618	0.6682	0.8335	0.489
Mof_H 	H 	0.9105	0.6377	0.8608	0.479
Mof_C 	C 	0.9263	0.6616	0.942	-1.589
Mof_H 	H 	0.9861	0.6729	0.9435	0.46
Mof_H 	H 	0.9368	0.6381	0.9426	0.485
Mof_H 	H 	0.9	0.6679	0.9668	0.472
Mof_C 	C 	0.5925	0.5041	0.93142	0.413
Mof_C 	C 	0.644	0.59168	0.9596	0.328
Mof_C 	C 	0.553	0.49237	0.88252	-0.242
Mof_C 	C 	0.4549	0.48734	0.86744	0.164
Mof_H 	H 	0.4132	0.4914	0.8861	-0.003
Mof_C 	C 	0.4192	0.4762	0.82447	-0.28
Mof_C 	C 	0.4815	0.4701	0.79658	0.406
Mof_C 	C 	0.5796	0.4751	0.81166	-0.526
Mof_C 	C 	0.6153	0.48627	0.85463	0.278
Mof_H 	H 	0.6809	0.4896	0.8647	-0.082
Mof_C 	C 	0.759	0.4764	0.8052	-1.511
Mof_H 	H 	0.8002	0.4702	0.7858	0.448
Mof_H 	H 	0.779	0.4652	0.833	0.454
Mof_H 	H 	0.7625	0.4999	0.81	0.464
Mof_C 	C 	0.6543	0.46654	0.7838	1.086
Mof_C 	C 	0.6506	0.42897	0.7746	-1.537
Mof_H 	H 	0.5861	0.4227	0.7607	0.479
Mof_H 	H 	0.6705	0.4172	0.802	0.455
Mof_H 	H 	0.6928	0.4237	0.7553	0.443
Mof_C 	C 	0.6349	0.4854	0.7398	-1.515
Mof_H 	H 	0.5709	0.4808	0.7236	0.461
Mof_H 	H 	0.6801	0.4785	0.7227	0.437
Mof_H 	H 	0.6417	0.5088	0.7455	0.46
Mof_C 	C 	0.3151	0.4721	0.8115	0.162
Mof_H 	H 	0.2776	0.4732	0.8325	-0.021
Mof_C 	C 	0.1151	0.4746	0.7966	-0.135
Mof_H 	H 	0.1265	0.4589	0.8208	0.073
Mof_H 	H 	0.1324	0.4967	0.8082	0.054
Mof_C 	C 	0.9737	0.443	0.7438	-0.017
Mof_H 	H 	0.9056	0.4458	0.7314	-0.023
Mof_H 	H 	0.9806	0.4242	0.7639	-0.001
Mof_C 	C 	0.0222	0.434	0.7058	-0.172
Mof_H 	H 	0.0075	0.45	0.6819	0.05
Mof_H 	H 	0.0036	0.412	0.6942	0.057
Mof_C 	C 	0.1753	0.4145	0.6693	0.1
Mof_H 	H 	0.1098	0.4105	0.6598	-0.02
Mof_C 	C 	0.173	0.4649	0.7601	-0.001
Mof_H 	H 	0.1571	0.4832	0.739	-0.012
Mof_C 	C 	0.0095	0.4735	0.7705	-0.113
Mof_H 	H 	0.969	0.4768	0.7916	0.02
Mof_H 	H 	0.9993	0.4922	0.7505	0.027
Mof_C 	C 	0.1385	0.4353	0.7316	0.008
Mof_H 	H 	0.1468	0.4166	0.7523	-0.023
Mof_C 	C 	0.2466	0.40237	0.64097	-0.239
Mof_C 	C 	0.3382	0.41538	0.64471	0.34
Mof_C 	C 	0.3932	0.40607	0.6148	-0.455
Mof_C 	C 	0.3566	0.3837	0.5811	0.245
Mof_H 	H 	0.3935	0.3775	0.5611	-0.076
Mof_C 	C 	0.265	0.37073	0.57736	-0.252
Mof_C 	C 	0.21	0.38004	0.60729	0.143
Mof_H 	H 	0.1487	0.3713	0.6048	-0.018
Mof_C 	C 	0.5645	0.4165	0.6524	-1.362
Mof_H 	H 	0.6261	0.4236	0.6481	0.387
Mof_H 	H 	0.5664	0.3932	0.6587	0.414
Mof_H 	H 	0.5491	0.4285	0.6767	0.419
Mof_C 	C 	0.4876	0.42343	0.6101	0.95
Mof_C 	C 	0.5163	0.4185	0.5652	-1.397
Mof_H 	H 	0.576	0.4296	0.5657	0.403
Mof_H 	H 	0.4673	0.4276	0.5419	0.409
Mof_H 	H 	0.5233	0.3953	0.56	0.428
Mof_C 	C 	0.4813	0.46136	0.6146	-1.283
Mof_H 	H 	0.5414	0.4712	0.6125	0.367
Mof_H 	H 	0.4675	0.4667	0.6428	0.388
Mof_H 	H 	0.4311	0.4698	0.5914	0.375
Mof_C 	C 	0.2265	0.3425	0.5488	0.403
Mof_Co	Co	0.10056	0.10493	0.27734	1.158
Mof_Co	Co	0.32856	0.85353	0.22755	1.165
Mof_Co	Co	0.10224	0.19814	0.77751	1.164
Mof_Co	Co	0.83024	0.94819	0.72924	1.161
Mof_Cd	Cd	0.25289	0.02549	0.00659	0.445
Mof_Cd	Cd	0.7481	0.77534	0.50239	0.459
Mof_N 	N 	0.9986	0.1207	0.2961	-0.316
Mof_N 	N 	0.0143	0.0882	0.2302	-0.298
Mof_N 	N 	0.2077	0.86517	0.2028	-0.308
Mof_N 	N 	0.2716	0.8401	0.2722	-0.291
Mof_N 	N 	0.0065	0.2115	0.7272	-0.281
Mof_N 	N 	0.9935	0.18452	0.8016	-0.291
Mof_N 	N 	0.7788	0.9672	0.7731	-0.314
Mof_N 	N 	0.7059	0.929	0.7038	-0.291
Mof_O 	O 	0.2175	0.22272	0.48023	-0.301
Mof_O 	O 	0.06	0.21915	0.4566	-0.308
Mof_O 	O 	0.1937	0.11872	0.3277	-0.499
Mof_O 	O 	0.2061	0.09286	0.25296	-0.515
Mof_O 	O 	0.1411	0.04382	0.0525	-0.284
Mof_O 	O 	0.2962	0.0433	0.0735	-0.313
Mof_O 	O 	0.1508	0.9705	0.0436	-0.259
Mof_O 	O 	0.3144	0.975	0.0354	-0.25
Mof_O 	O 	0.3804	0.86715	0.18207	-0.548
Mof_O 	O 	0.4581	0.84092	0.25894	-0.505
Mof_O 	O 	0.6873	0.7865	0.4392	-0.287
Mof_O 	O 	0.5426	0.7959	0.4571	-0.296
Mof_O 	O 	0.302	0.2569	0.5778	-0.328
Mof_O 	O 	0.1466	0.2603	0.5561	-0.322
Mof_O 	O 	0.1999	0.2099	0.7533	-0.524
Mof_O 	O 	0.1858	0.18516	0.827	-0.517
Mof_O 	O 	0.0559	0.0807	0.9557	-0.282
Mof_O 	O 	0.2222	0.0791	0.9789	-0.296
Mof_O 	O 	0.0422	0.00275	0.95934	-0.329
Mof_O 	O 	0.1772	0.0063	0.9384	-0.343
Mof_O 	O 	0.9479	0.95789	0.75601	-0.554
Mof_O 	O 	0.8843	0.9344	0.6788	-0.476
Mof_O 	O 	0.7834	0.8309	0.5287	-0.327
Mof_O 	O 	0.6366	0.8393	0.5385	-0.339
Mof_C 	C 	0.1416	0.21137	0.4545	0.364
Mof_C 	C 	0.1532	0.18073	0.42568	-0.218
Mof_C 	C 	0.2434	0.16789	0.42542	0.231
Mof_H 	H 	0.2968	0.1751	0.4462	-0.069
Mof_C 	C 	0.2538	0.14427	0.3941	-0.452
Mof_C 	C 	0.174	0.13351	0.363	0.353
Mof_C 	C 	0.0837	0.14635	0.36328	-0.262
Mof_C 	C 	0.0733	0.16996	0.39461	0.144
Mof_H 	H 	0.0129	0.1786	0.3948	-0.013
Mof_C 	C 	0.3419	0.08746	0.4018	-1.287
Mof_H 	H 	0.3093	0.0809	0.4244	0.375
Mof_H 	H 	0.405	0.0778	0.4077	0.367
Mof_H 	H 	0.3063	0.0799	0.3735	0.381
Mof_C 	C 	0.3503	0.12572	0.4012	0.912
Mof_C 	C 	0.3984	0.1342	0.3624	-1.295
Mof_H 	H 	0.404	0.1578	0.3601	0.394
Mof_H 	H 	0.36	0.1257	0.3352	0.397
Mof_H 	H 	0.4612	0.1244	0.3676	0.37
Mof_C 	C 	0.4261	0.1355	0.443	-1.303
Mof_H 	H 	0.4321	0.1592	0.4445	0.401
Mof_H 	H 	0.4869	0.1258	0.4417	0.375
Mof_H 	H 	0.4063	0.1275	0.4689	0.381
Mof_C 	C 	0.0065	0.1368	0.3304	0.105
Mof_H 	H 	0.9479	0.1441	0.3353	-0.01
Mof_C 	C 	0.9074	0.1123	0.2674	0.023
Mof_H 	H 	0.9044	0.1292	0.2444	-0.014
Mof_C 	C 	0.8137	0.1192	0.2811	-0.156
Mof_H 	H 	0.8117	0.1421	0.2903	0.052
Mof_H 	H 	0.8081	0.1051	0.3058	0.049
Mof_C 	C 	0.7282	0.1121	0.2403	-0.074
Mof_H 	H 	0.6677	0.1124	0.2498	-0.008
Mof_H 	H 	0.726	0.1291	0.218	0.014
Mof_C 	C 	0.7432	0.0788	0.2214	-0.052
Mof_H 	H 	0.6861	0.0727	0.1995	0.001
Mof_H 	H 	0.7525	0.0624	0.2449	0.003
Mof_C 	C 	0.8303	0.0784	0.1997	-0.161
Mof_H 	H 	0.8284	0.0969	0.1794	0.08
Mof_H 	H 	0.834	0.0578	0.184	0.06
Mof_C 	C 	0.9166	0.0819	0.2412	0.003
Mof_H 	H 	0.9199	0.0623	0.26	-0.019
Mof_C 	C 	0.0271	0.0765	0.1927	0.095
Mof_H 	H 	0.974	0.0693	0.1717	0.006
Mof_C 	C 	0.1217	0.07445	0.18249	-0.251
Mof_C 	C 	0.2061	0.08132	0.21324	0.385
Mof_C 	C 	0.2942	0.0778	0.20155	-0.497
Mof_C 	C 	0.298	0.0674	0.1591	0.266
Mof_H 	H 	0.357	0.065	0.1513	-0.085
Mof_C 	C 	0.2135	0.0605	0.12837	-0.243
Mof_C 	C 	0.1254	0.06405	0.14005	0.155
Mof_H 	H 	0.0689	0.0595	0.1195	-0.005
Mof_C 	C 	0.3892	0.08437	0.23604	1.027
Mof_C 	C 	0.3948	0.0654	0.2798	-1.451
Mof_H 	H 	0.4551	0.07	0.2997	0.418
Mof_H 	H 	0.3897	0.042	0.2738	0.437
Mof_H 	H 	0.3432	0.0723	0.2931	0.445
Mof_C 	C 	0.4751	0.0761	0.2152	-1.485
Mof_H 	H 	0.5338	0.0791	0.2369	0.443
Mof_H 	H 	0.4746	0.0905	0.1905	0.447
Mof_H 	H 	0.4704	0.0535	0.2053	0.457
Mof_C 	C 	0.4021	0.12118	0.2499	-1.409
Mof_H 	H 	0.4606	0.1238	0.2719	0.405
Mof_H 	H 	0.3488	0.1282	0.262	0.434
Mof_H 	H 	0.4049	0.1345	0.2245	0.414
Mof_C 	C 	0.2187	0.0506	0.083	0.351
Mof_C 	C 	0.2347	0.9574	0.0459	0.237
Mof_C 	C 	0.274	0.93121	0.08241	-0.19
Mof_C 	C 	0.2164	0.91974	0.1101	0.125
Mof_H 	H 	0.154	0.9276	0.1069	-0.016
Mof_C 	C 	0.2521	0.8965	0.1427	-0.263
Mof_C 	C 	0.3454	0.8847	0.1476	0.404
Mof_C 	C 	0.4029	0.8962	0.1199	-0.504
Mof_C 	C 	0.3672	0.91943	0.0873	0.231
Mof_H 	H 	0.4058	0.9271	0.0687	-0.071
Mof_C 	C 	0.4927	0.87674	0.1149	1.05
Mof_C 	C 	0.5668	0.889	0.1558	-1.459
Mof_H 	H 	0.5454	0.8834	0.1822	0.448
Mof_H 	H 	0.5735	0.9126	0.1541	0.438
Mof_H 	H 	0.6277	0.8787	0.1565	0.414
Mof_C 	C 	0.4792	0.8389	0.1109	-1.468
Mof_H 	H 	0.452	0.831	0.1348	0.436
Mof_H 	H 	0.5404	0.8285	0.1124	0.417
Mof_H 	H 	0.437	0.8337	0.0831	0.423
Mof_C 	C 	0.5362	0.8869	0.0761	-1.475
Mof_H 	H 	0.5494	0.9102	0.0777	0.448
Mof_H 	H 	0.4918	0.8819	0.0488	0.428
Mof_H 	H 	0.5949	0.8749	0.0774	0.422
Mof_C 	C 	0.1873	0.8862	0.1674	0.08
Mof_H 	H 	0.1248	0.8941	0.1591	-0.015
Mof_C 	C 	0.1298	0.8512	0.2223	0.032
Mof_H 	H 	0.1247	0.8283	0.2119	-0.02
Mof_C 	C 	0.0373	0.862	0.2126	-0.182
Mof_H 	H 	0.012	0.8597	0.181	0.053
Mof_H 	H 	0.0364	0.8854	0.2199	0.049
Mof_C 	C 	0.971	0.8434	0.2372	-0.02
Mof_H 	H 	0.9673	0.8202	0.2287	-0.008
Mof_H 	H 	0.9068	0.8527	0.2294	-0.023
Mof_C 	C 	0.0106	0.8464	0.2875	-0.111
Mof_H 	H 	0.0069	0.8692	0.2971	0.029
Mof_H 	H 	0.9747	0.8324	0.3036	0.021
Mof_C 	C 	0.1147	0.8351	0.295	-0.143
Mof_H 	H 	0.1445	0.8391	0.3259	0.073
Mof_H 	H 	0.1145	0.8113	0.2905	0.045
Mof_C 	C 	0.1684	0.8478	0.2717	0.029
Mof_H 	H 	0.1721	0.871	0.2815	0.001
Mof_C 	C 	0.3254	0.8268	0.3127	0.075
Mof_H 	H 	0.2898	0.8196	0.3327	0.008
Mof_C 	C 	0.4239	0.82328	0.32601	-0.254
Mof_C 	C 	0.4865	0.82897	0.29814	0.396
Mof_C 	C 	0.5845	0.824	0.31348	-0.485
Mof_C 	C 	0.6199	0.8133	0.3567	0.275
Mof_H 	H 	0.6855	0.81	0.367	-0.082
Mof_C 	C 	0.5573	0.8076	0.38457	-0.269
Mof_C 	C 	0.4592	0.81261	0.36923	0.165
Mof_H 	H 	0.4173	0.8088	0.3879	-0.005
Mof_C 	C 	0.6533	0.82824	0.2811	0.96
Mof_C 	C 	0.6613	0.8639	0.2647	-1.347
Mof_H 	H 	0.706	0.8645	0.2456	0.383
Mof_H 	H 	0.6833	0.8782	0.2897	0.395
Mof_H 	H 	0.5994	0.8712	0.2487	0.412
Mof_C 	C 	0.6156	0.8117	0.2352	-1.319
Mof_H 	H 	0.6607	0.8154	0.2168	0.381
Mof_H 	H 	0.5548	0.8213	0.2214	0.408
Mof_H 	H 	0.6079	0.7884	0.2391	0.402
Mof_C 	C 	0.7517	0.812	0.3007	-1.421
Mof_H 	H 	0.7941	0.8155	0.2809	0.422
Mof_H 	H 	0.7432	0.7887	0.3044	0.443
Mof_H 	H 	0.779	0.8219	0.3289	0.434
Mof_C 	C 	0.5924	0.7994	0.4274	0.333
Mof_C 	C 	0.22	0.2551	0.58316	0.408
Mof_C 	C 	0.2095	0.24415	0.62823	-0.236
Mof_C 	C 	0.2947	0.23879	0.65918	0.246
Mof_H 	H 	0.3533	0.2427	0.6516	-0.069
Mof_C 	C 	0.2922	0.2276	0.70141	-0.468
Mof_C 	C 	0.2045	0.2217	0.71269	0.357
Mof_C 	C 	0.1194	0.2271	0.68174	-0.237
Mof_C 	C 	0.1218	0.23831	0.63951	0.148
Mof_H 	H 	0.0649	0.2419	0.6188	0
Mof_C 	C 	0.3879	0.22483	0.735	0.934
Mof_C 	C 	0.4771	0.2378	0.7198	-1.355
Mof_H 	H 	0.4794	0.2282	0.6916	0.413
Mof_H 	H 	0.534	0.2318	0.7412	0.403
Mof_H 	H 	0.4735	0.2615	0.717	0.413
Mof_C 	C 	0.4021	0.18697	0.742	-1.329
Mof_H 	H 	0.4001	0.1764	0.714	0.398
Mof_H 	H 	0.3518	0.1782	0.7548	0.41
Mof_H 	H 	0.4631	0.1828	0.7615	0.38
Mof_C 	C 	0.7357	0.2062	0.7086	-0.147
Mof_H 	H 	0.6851	0.2205	0.6926	0.033
Mof_H 	H 	0.7269	0.1841	0.6962	0.049
Mof_C 	C 	0.394	0.2421	0.7807	-1.307
Mof_H 	H 	0.3402	0.2354	0.7927	0.396
Mof_H 	H 	0.3929	0.2657	0.7769	0.392
Mof_H 	H 	0.4525	0.2357	0.8008	0.374
Mof_C 	C 	0.0274	0.223	0.6911	0.082
Mof_H 	H 	0.9756	0.2292	0.6687	0.011
Mof_C 	C 	0.9076	0.2033	0.73166	-0.017
Mof_H 	H 	0.8977	0.1804	0.7212	0.009
Mof_C 	C 	0.8351	0.2199	0.7073	-0.084
Mof_H 	H 	0.8421	0.2199	0.6768	0.053
Mof_H 	H 	0.8387	0.2427	0.7173	0.019
Mof_C 	C 	0.7372	0.2059	0.7573	0.011
Mof_H 	H 	0.6779	0.1959	0.7613	-0.031
Mof_H 	H 	0.7375	0.2287	0.7673	-0.014
Mof_C 	C 	0.8205	0.1879	0.7872	-0.208
Mof_H 	H 	0.8172	0.1906	0.818	0.066
Mof_H 	H 	0.8176	0.1644	0.7803	0.064
Mof_C 	C 	0.9059	0.2015	0.77993	0.051
Mof_H 	H 	0.9101	0.2242	0.7913	-0.028
Mof_C 	C 	0.9952	0.16543	0.8327	0.1
Mof_H 	H 	0.9371	0.1596	0.8395	-0.017
Mof_C 	C 	0.0875	0.15065	0.86082	-0.237
Mof_C 	C 	0.1775	0.16419	0.86187	0.348
Mof_C 	C 	0.2558	0.15467	0.8947	-0.501
Mof_C 	C 	0.2441	0.1316	0.9265	0.249
Mof_H 	H 	0.2965	0.1253	0.9485	-0.078
Mof_C 	C 	0.1541	0.11809	0.9254	-0.212
Mof_C 	C 	0.0757	0.1276	0.89261	0.13
Mof_H 	H 	0.0155	0.1185	0.8919	-0.007
Mof_C 	C 	0.3562	0.17098	0.89913	1.105
Mof_C 	C 	0.3403	0.2091	0.9001	-1.465
Mof_H 	H 	0.4009	0.2203	0.9034	0.417
Mof_H 	H 	0.312	0.2147	0.9247	0.427
Mof_H 	H 	0.2982	0.216	0.873	0.446
Mof_C 	C 	0.4023	0.1613	0.861	-1.591
Mof_H 	H 	0.4638	0.1719	0.8647	0.456
Mof_H 	H 	0.3618	0.1682	0.8335	0.487
Mof_H 	H 	0.4105	0.1377	0.8608	0.476
Mof_C 	C 	0.4263	0.1616	0.942	-1.58
Mof_H 	H 	0.4861	0.1729	0.9435	0.455
Mof_H 	H 	0.4368	0.1381	0.9426	0.481
Mof_H 	H 	0.4	0.1679	0.9668	0.468
Mof_C 	C 	0.0925	0.0041	0.93142	0.413
Mof_C 	C 	0.144	0.09168	0.9596	0.329
Mof_C 	C 	0.053	0.99237	0.88252	-0.249
Mof_C 	C 	0.9549	0.98734	0.86744	0.176
Mof_H 	H 	0.9132	0.9914	0.8861	-0.005
Mof_C 	C 	0.9192	0.9762	0.82447	-0.285
Mof_C 	C 	0.9815	0.9701	0.79658	0.416
Mof_C 	C 	0.0796	0.9751	0.81166	-0.531
Mof_C 	C 	0.1153	0.98627	0.85463	0.283
Mof_H 	H 	0.1809	0.9896	0.8647	-0.083
Mof_C 	C 	0.259	0.9764	0.8052	-1.503
Mof_H 	H 	0.3002	0.9702	0.7858	0.445
Mof_H 	H 	0.279	0.9652	0.833	0.452
Mof_H 	H 	0.2625	0.9999	0.81	0.463
Mof_C 	C 	0.1543	0.96654	0.7838	1.077
Mof_C 	C 	0.1506	0.92897	0.7746	-1.526
Mof_H 	H 	0.0861	0.9227	0.7607	0.475
Mof_H 	H 	0.1705	0.9172	0.802	0.451
Mof_H 	H 	0.1928	0.9237	0.7553	0.439
Mof_C 	C 	0.1349	0.9854	0.7398	-1.49
Mof_H 	H 	0.0709	0.9808	0.7236	0.452
Mof_H 	H 	0.1801	0.9785	0.7227	0.429
Mof_H 	H 	0.1417	0.0088	0.7455	0.449
Mof_C 	C 	0.8151	0.9721	0.8115	0.166
Mof_H 	H 	0.7776	0.9732	0.8325	-0.022
Mof_C 	C 	0.6151	0.9746	0.7966	-0.168
Mof_H 	H 	0.6265	0.9589	0.8208	0.084
Mof_H 	H 	0.6324	0.9967	0.8082	0.066
Mof_C 	C 	0.4737	0.943	0.7438	-0.068
Mof_H 	H 	0.4056	0.9458	0.7314	-0.008
Mof_H 	H 	0.4806	0.9242	0.7639	0.011
Mof_C 	C 	0.5222	0.934	0.7058	-0.141
Mof_H 	H 	0.5075	0.95	0.6819	0.043
Mof_H 	H 	0.5036	0.912	0.6942	0.049
Mof_C 	C 	0.6753	0.9145	0.6693	0.101
Mof_H 	H 	0.6098	0.9105	0.6598	-0.019
Mof_C 	C 	0.673	0.9649	0.7601	0.011
Mof_H 	H 	0.6571	0.9832	0.739	-0.014
Mof_C 	C 	0.5095	0.9735	0.7705	-0.05
Mof_H 	H 	0.469	0.9768	0.7916	-0.002
Mof_H 	H 	0.4993	0.9922	0.7505	0.005
Mof_C 	C 	0.6385	0.9353	0.7316	-0.002
Mof_H 	H 	0.6468	0.9166	0.7523	-0.02
Mof_C 	C 	0.7466	0.90237	0.64097	-0.241
Mof_C 	C 	0.8382	0.91538	0.64471	0.346
Mof_C 	C 	0.8932	0.90607	0.6148	-0.465
Mof_C 	C 	0.8566	0.8837	0.5811	0.251
Mof_H 	H 	0.8935	0.8775	0.5611	-0.078
Mof_C 	C 	0.765	0.87073	0.57736	-0.255
Mof_C 	C 	0.71	0.88004	0.60729	0.145
Mof_H 	H 	0.6487	0.8713	0.6048	-0.018
Mof_C 	C 	0.0645	0.9165	0.6524	-1.402
Mof_H 	H 	0.1261	0.9236	0.6481	0.399
Mof_H 	H 	0.0664	0.8932	0.6587	0.425
Mof_H 	H 	0.0491	0.9285	0.6767	0.43
Mof_C 	C 	0.9876	0.92343	0.6101	0.982
Mof_C 	C 	0.0163	0.9185	0.5652	-1.459
Mof_H 	H 	0.076	0.9296	0.5657	0.421
Mof_H 	H 	0.9673	0.9276	0.5419	0.432
Mof_H 	H 	0.0233	0.8953	0.56	0.444
Mof_C 	C 	0.9813	0.96136	0.6146	-1.292
Mof_H 	H 	0.0414	0.9712	0.6125	0.366
Mof_H 	H 	0.9675	0.9667	0.6428	0.393
Mof_H 	H 	0.9311	0.9698	0.5914	0.379
Mof_C 	C 	0.7265	0.8425	0.5488	0.404
Mof_Co	Co	0.39944	0.60493	0.72266	1.159
Mof_Co	Co	0.17144	0.35353	0.77245	1.165
Mof_Co	Co	0.39776	0.69814	0.22249	1.165
Mof_Co	Co	0.66976	0.44819	0.27076	1.16
Mof_Cd	Cd	0.24711	0.52549	0.99341	0.465
Mof_Cd	Cd	0.7519	0.27534	0.49761	0.459
Mof_N 	N 	0.5014	0.6207	0.7039	-0.327
Mof_N 	N 	0.4857	0.5882	0.7698	-0.297
Mof_N 	N 	0.2923	0.36517	0.7972	-0.302
Mof_N 	N 	0.2284	0.3401	0.7278	-0.297
Mof_N 	N 	0.4935	0.7115	0.2728	-0.28
Mof_N 	N 	0.5065	0.68452	0.1984	-0.292
Mof_N 	N 	0.7212	0.4672	0.2269	-0.316
Mof_N 	N 	0.7941	0.429	0.2962	-0.29
Mof_O 	O 	0.2825	0.72272	0.51977	-0.302
Mof_O 	O 	0.44	0.71915	0.5434	-0.307
Mof_O 	O 	0.3063	0.61872	0.6723	-0.5
Mof_O 	O 	0.2939	0.59286	0.74704	-0.516
Mof_O 	O 	0.3589	0.54382	0.9475	-0.279
Mof_O 	O 	0.2038	0.5433	0.9265	-0.312
Mof_O 	O 	0.3492	0.4705	0.9564	-0.256
Mof_O 	O 	0.1856	0.475	0.9646	-0.249
Mof_O 	O 	0.1196	0.36715	0.81793	-0.548
Mof_O 	O 	0.0419	0.34092	0.74106	-0.503
Mof_O 	O 	0.8127	0.2865	0.5608	-0.286
Mof_O 	O 	0.9574	0.2959	0.5429	-0.289
Mof_O 	O 	0.198	0.7569	0.4222	-0.329
Mof_O 	O 	0.3534	0.7603	0.4439	-0.322
Mof_O 	O 	0.3001	0.7099	0.2467	-0.526
Mof_O 	O 	0.3142	0.68516	0.173	-0.514
Mof_O 	O 	0.4441	0.5807	0.0443	-0.286
Mof_O 	O 	0.2778	0.5791	0.0211	-0.307
Mof_O 	O 	0.4578	0.50275	0.04066	-0.335
Mof_O 	O 	0.3228	0.5063	0.0616	-0.351
Mof_O 	O 	0.5521	0.45789	0.24399	-0.555
Mof_O 	O 	0.6157	0.4344	0.3212	-0.476
Mof_O 	O 	0.7166	0.3309	0.4713	-0.327
Mof_O 	O 	0.8634	0.3393	0.4615	-0.336
Mof_C 	C 	0.3584	0.71137	0.5455	0.364
Mof_C 	C 	0.3468	0.68073	0.57432	-0.22
Mof_C 	C 	0.2566	0.66789	0.57458	0.233
Mof_H 	H 	0.2032	0.6751	0.5538	-0.07
Mof_C 	C 	0.2462	0.64427	0.6059	-0.454
Mof_C 	C 	0.326	0.63351	0.637	0.358
Mof_C 	C 	0.4163	0.64635	0.63672	-0.272
Mof_C 	C 	0.4267	0.66996	0.60539	0.151
Mof_H 	H 	0.4871	0.6786	0.6052	-0.012
Mof_C 	C 	0.1581	0.58746	0.5982	-1.285
Mof_H 	H 	0.1907	0.5809	0.5756	0.375
Mof_H 	H 	0.095	0.5778	0.5923	0.366
Mof_H 	H 	0.1937	0.5799	0.6265	0.381
Mof_C 	C 	0.1497	0.62572	0.5988	0.91
Mof_C 	C 	0.1016	0.6342	0.6376	-1.291
Mof_H 	H 	0.096	0.6578	0.6399	0.392
Mof_H 	H 	0.14	0.6257	0.6648	0.395
Mof_H 	H 	0.0388	0.6244	0.6324	0.367
Mof_C 	C 	0.0739	0.6355	0.557	-1.298
Mof_H 	H 	0.0679	0.6592	0.5555	0.399
Mof_H 	H 	0.0131	0.6258	0.5583	0.371
Mof_H 	H 	0.0937	0.6275	0.5311	0.378
Mof_C 	C 	0.4935	0.6368	0.6696	0.131
Mof_H 	H 	0.5521	0.6441	0.6647	-0.023
Mof_C 	C 	0.5926	0.6123	0.7326	0.027
Mof_H 	H 	0.5956	0.6292	0.7556	-0.017
Mof_C 	C 	0.6863	0.6192	0.7189	-0.159
Mof_H 	H 	0.6883	0.6421	0.7097	0.053
Mof_H 	H 	0.6919	0.6051	0.6942	0.05
Mof_C 	C 	0.7718	0.6121	0.7597	-0.071
Mof_H 	H 	0.8323	0.6124	0.7502	-0.009
Mof_H 	H 	0.774	0.6291	0.782	0.013
Mof_C 	C 	0.7568	0.5788	0.7786	-0.055
Mof_H 	H 	0.8139	0.5727	0.8005	0.002
Mof_H 	H 	0.7475	0.5624	0.7551	0.004
Mof_C 	C 	0.6697	0.5784	0.8003	-0.158
Mof_H 	H 	0.6716	0.5969	0.8206	0.079
Mof_H 	H 	0.666	0.5578	0.816	0.059
Mof_C 	C 	0.5834	0.5819	0.7588	-0.002
Mof_H 	H 	0.5801	0.5623	0.74	-0.019
Mof_C 	C 	0.4729	0.5765	0.8073	0.109
Mof_H 	H 	0.526	0.5693	0.8283	-0.003
Mof_C 	C 	0.3783	0.57445	0.81751	-0.256
Mof_C 	C 	0.2939	0.58132	0.78676	0.39
Mof_C 	C 	0.2058	0.5778	0.79845	-0.503
Mof_C 	C 	0.202	0.5674	0.8409	0.271
Mof_H 	H 	0.143	0.565	0.8487	-0.086
Mof_C 	C 	0.2865	0.5605	0.87163	-0.244
Mof_C 	C 	0.3746	0.56405	0.85995	0.16
Mof_H 	H 	0.4311	0.5595	0.8805	-0.004
Mof_C 	C 	0.1108	0.58437	0.76396	1.04
Mof_C 	C 	0.1052	0.5654	0.7202	-1.464
Mof_H 	H 	0.0449	0.57	0.7003	0.421
Mof_H 	H 	0.1103	0.542	0.7262	0.441
Mof_H 	H 	0.1568	0.5723	0.7069	0.449
Mof_C 	C 	0.0249	0.5761	0.7848	-1.516
Mof_H 	H 	0.9662	0.5791	0.7631	0.456
Mof_H 	H 	0.0254	0.5905	0.8095	0.455
Mof_H 	H 	0.0296	0.5535	0.7947	0.466
Mof_C 	C 	0.0979	0.62118	0.7501	-1.42
Mof_H 	H 	0.0394	0.6238	0.7281	0.407
Mof_H 	H 	0.1512	0.6282	0.738	0.437
Mof_H 	H 	0.0951	0.6345	0.7755	0.417
Mof_C 	C 	0.2813	0.5506	0.917	0.352
Mof_C 	C 	0.2653	0.4574	0.9541	0.239
Mof_C 	C 	0.226	0.43121	0.91759	-0.187
Mof_C 	C 	0.2836	0.41974	0.8899	0.124
Mof_H 	H 	0.346	0.4276	0.8931	-0.014
Mof_C 	C 	0.2479	0.3965	0.8573	-0.26
Mof_C 	C 	0.1546	0.3847	0.8524	0.401
Mof_C 	C 	0.0971	0.3962	0.8801	-0.499
Mof_C 	C 	0.1328	0.41943	0.9127	0.228
Mof_H 	H 	0.0942	0.4271	0.9313	-0.069
Mof_C 	C 	0.0073	0.37674	0.8851	1.035
Mof_C 	C 	0.9332	0.389	0.8442	-1.44
Mof_H 	H 	0.9546	0.3834	0.8178	0.445
Mof_H 	H 	0.9265	0.4126	0.8459	0.434
Mof_H 	H 	0.8723	0.3787	0.8435	0.409
Mof_C 	C 	0.0208	0.3389	0.8891	-1.479
Mof_H 	H 	0.048	0.331	0.8652	0.438
Mof_H 	H 	0.9596	0.3285	0.8876	0.426
Mof_H 	H 	0.063	0.3337	0.9169	0.429
Mof_C 	C 	0.9638	0.3869	0.9239	-1.441
Mof_H 	H 	0.9506	0.4102	0.9223	0.442
Mof_H 	H 	0.0082	0.3819	0.9512	0.419
Mof_H 	H 	0.9051	0.3749	0.9226	0.416
Mof_C 	C 	0.3127	0.3862	0.8326	0.077
Mof_H 	H 	0.3752	0.3941	0.8409	-0.011
Mof_C 	C 	0.3702	0.3512	0.7777	-0.013
Mof_H 	H 	0.3753	0.3283	0.7881	-0.007
Mof_C 	C 	0.4627	0.362	0.7874	-0.115
Mof_H 	H 	0.488	0.3597	0.819	0.035
Mof_H 	H 	0.4636	0.3854	0.7801	0.031
Mof_C 	C 	0.529	0.3434	0.7628	-0.098
Mof_H 	H 	0.5327	0.3202	0.7713	0.014
Mof_H 	H 	0.5932	0.3527	0.7706	0
Mof_C 	C 	0.4894	0.3464	0.7125	-0.024
Mof_H 	H 	0.4931	0.3692	0.7029	0.004
Mof_H 	H 	0.5253	0.3324	0.6964	-0.01
Mof_C 	C 	0.3853	0.3351	0.705	-0.224
Mof_H 	H 	0.3555	0.3391	0.6741	0.097
Mof_H 	H 	0.3855	0.3113	0.7095	0.069
Mof_C 	C 	0.3316	0.3478	0.7283	0.082
Mof_H 	H 	0.3279	0.371	0.7185	-0.013
Mof_C 	C 	0.1746	0.3268	0.6873	0.071
Mof_H 	H 	0.2102	0.3196	0.6673	0.008
Mof_C 	C 	0.0761	0.32328	0.67399	-0.244
Mof_C 	C 	0.0135	0.32897	0.70186	0.382
Mof_C 	C 	0.9155	0.324	0.68652	-0.471
Mof_C 	C 	0.8801	0.3133	0.6433	0.263
Mof_H 	H 	0.8145	0.31	0.633	-0.078
Mof_C 	C 	0.9427	0.3076	0.61543	-0.252
Mof_C 	C 	0.0408	0.31261	0.63077	0.147
Mof_H 	H 	0.0827	0.3088	0.6121	0
Mof_C 	C 	0.8467	0.32824	0.7189	0.954
Mof_C 	C 	0.8387	0.3639	0.7353	-1.341
Mof_H 	H 	0.794	0.3645	0.7544	0.381
Mof_H 	H 	0.8167	0.3782	0.7103	0.394
Mof_H 	H 	0.9006	0.3712	0.7513	0.411
Mof_C 	C 	0.8844	0.3117	0.7648	-1.316
Mof_H 	H 	0.8393	0.3154	0.7832	0.38
Mof_H 	H 	0.9452	0.3213	0.7786	0.409
Mof_H 	H 	0.8921	0.2884	0.7609	0.402
Mof_C 	C 	0.7483	0.312	0.6993	-1.414
Mof_H 	H 	0.7059	0.3155	0.7191	0.42
Mof_H 	H 	0.7568	0.2887	0.6956	0.441
Mof_H 	H 	0.721	0.3219	0.6711	0.431
Mof_C 	C 	0.9076	0.2994	0.5726	0.327
Mof_C 	C 	0.28	0.7551	0.41684	0.41
Mof_C 	C 	0.2905	0.74415	0.37177	-0.239
Mof_C 	C 	0.2053	0.73879	0.34082	0.251
Mof_H 	H 	0.1467	0.7427	0.3484	-0.072
Mof_C 	C 	0.2078	0.7276	0.29859	-0.475
Mof_C 	C 	0.2955	0.7217	0.28731	0.362
Mof_C 	C 	0.3806	0.7271	0.31826	-0.243
Mof_C 	C 	0.3782	0.73831	0.36049	0.153
Mof_H 	H 	0.4351	0.7419	0.3812	0.001
Mof_C 	C 	0.1121	0.72483	0.265	0.947
Mof_C 	C 	0.0229	0.7378	0.2802	-1.386
Mof_H 	H 	0.0206	0.7282	0.3084	0.421
Mof_H 	H 	0.966	0.7318	0.2588	0.416
Mof_H 	H 	0.0265	0.7615	0.283	0.421
Mof_C 	C 	0.0979	0.68697	0.258	-1.34
Mof_H 	H 	0.0999	0.6764	0.286	0.4
Mof_H 	H 	0.1482	0.6782	0.2452	0.414
Mof_H 	H 	0.0369	0.6828	0.2385	0.381
Mof_C 	C 	0.7643	0.7062	0.2914	-0.155
Mof_H 	H 	0.8149	0.7205	0.3074	0.035
Mof_H 	H 	0.7731	0.6841	0.3038	0.052
Mof_C 	C 	0.106	0.7421	0.2193	-1.319
Mof_H 	H 	0.1598	0.7354	0.2073	0.399
Mof_H 	H 	0.1071	0.7657	0.2231	0.396
Mof_H 	H 	0.0475	0.7357	0.1992	0.376
Mof_C 	C 	0.4726	0.723	0.3089	0.096
Mof_H 	H 	0.5244	0.7292	0.3313	0.002
Mof_C 	C 	0.5924	0.7033	0.26834	-0.026
Mof_H 	H 	0.6023	0.6804	0.2788	0.01
Mof_C 	C 	0.6649	0.7199	0.2927	-0.075
Mof_H 	H 	0.6579	0.7199	0.3232	0.05
Mof_H 	H 	0.6613	0.7427	0.2827	0.015
Mof_C 	C 	0.7628	0.7059	0.2427	0.016
Mof_H 	H 	0.8221	0.6959	0.2387	-0.032
Mof_H 	H 	0.7625	0.7287	0.2327	-0.016
Mof_C 	C 	0.6795	0.6879	0.2128	-0.212
Mof_H 	H 	0.6828	0.6906	0.182	0.067
Mof_H 	H 	0.6824	0.6644	0.2197	0.065
Mof_C 	C 	0.5941	0.7015	0.22007	0.055
Mof_H 	H 	0.5899	0.7242	0.2087	-0.031
Mof_C 	C 	0.5048	0.66543	0.1673	0.09
Mof_H 	H 	0.5629	0.6596	0.1605	-0.016
Mof_C 	C 	0.4125	0.65065	0.13918	-0.227
Mof_C 	C 	0.3225	0.66419	0.13813	0.34
Mof_C 	C 	0.2442	0.65467	0.1053	-0.49
Mof_C 	C 	0.2559	0.6316	0.0735	0.241
Mof_H 	H 	0.2035	0.6253	0.0515	-0.077
Mof_C 	C 	0.3459	0.61809	0.0746	-0.209
Mof_C 	C 	0.4243	0.6276	0.10739	0.124
Mof_H 	H 	0.4845	0.6185	0.1081	-0.004
Mof_C 	C 	0.1438	0.67098	0.10087	1.076
Mof_C 	C 	0.1597	0.7091	0.0999	-1.432
Mof_H 	H 	0.0991	0.7203	0.0966	0.404
Mof_H 	H 	0.188	0.7147	0.0753	0.414
Mof_H 	H 	0.2018	0.716	0.127	0.436
Mof_C 	C 	0.0977	0.6613	0.139	-1.556
Mof_H 	H 	0.0362	0.6719	0.1353	0.444
Mof_H 	H 	0.1382	0.6682	0.1665	0.476
Mof_H 	H 	0.0895	0.6377	0.1392	0.464
Mof_C 	C 	0.0737	0.6616	0.058	-1.534
Mof_H 	H 	0.0139	0.6729	0.0565	0.436
Mof_H 	H 	0.0632	0.6381	0.0574	0.463
Mof_H 	H 	0.1	0.6679	0.0332	0.448
Mof_C 	C 	0.4075	0.5041	0.06858	0.417
Mof_C 	C 	0.356	0.59168	0.0404	0.327
Mof_C 	C 	0.447	0.49237	0.11748	-0.245
Mof_C 	C 	0.5451	0.48734	0.13256	0.164
Mof_H 	H 	0.5868	0.4914	0.1139	-0.004
Mof_C 	C 	0.5808	0.4762	0.17553	-0.28
Mof_C 	C 	0.5185	0.4701	0.20342	0.406
Mof_C 	C 	0.4204	0.4751	0.18834	-0.525
Mof_C 	C 	0.3847	0.48627	0.14537	0.278
Mof_H 	H 	0.3191	0.4896	0.1353	-0.083
Mof_C 	C 	0.241	0.4764	0.1948	-1.503
Mof_H 	H 	0.1998	0.4702	0.2142	0.445
Mof_H 	H 	0.221	0.4652	0.167	0.45
Mof_H 	H 	0.2375	0.4999	0.19	0.461
Mof_C 	C 	0.3457	0.46654	0.2162	1.08
Mof_C 	C 	0.3494	0.42897	0.2254	-1.53
Mof_H 	H 	0.4139	0.4227	0.2393	0.477
Mof_H 	H 	0.3295	0.4172	0.198	0.452
Mof_H 	H 	0.3072	0.4237	0.2447	0.44
Mof_C 	C 	0.3651	0.4854	0.2602	-1.509
Mof_H 	H 	0.4291	0.4808	0.2764	0.459
Mof_H 	H 	0.3199	0.4785	0.2773	0.435
Mof_H 	H 	0.3583	0.5088	0.2545	0.458
Mof_C 	C 	0.6849	0.4721	0.1885	0.163
Mof_H 	H 	0.7224	0.4732	0.1675	-0.021
Mof_C 	C 	0.8849	0.4746	0.2034	-0.203
Mof_H 	H 	0.8735	0.4589	0.1792	0.095
Mof_H 	H 	0.8676	0.4967	0.1918	0.077
Mof_C 	C 	0.0263	0.443	0.2562	-0.124
Mof_H 	H 	0.0944	0.4458	0.2686	0.008
Mof_H 	H 	0.0194	0.4242	0.2361	0.025
Mof_C 	C 	0.9778	0.434	0.2942	-0.108
Mof_H 	H 	0.9925	0.45	0.3181	0.035
Mof_H 	H 	0.9964	0.412	0.3058	0.041
Mof_C 	C 	0.8247	0.4145	0.3307	0.099
Mof_H 	H 	0.8902	0.4105	0.3402	-0.018
Mof_C 	C 	0.827	0.4649	0.2399	0.024
Mof_H 	H 	0.8429	0.4832	0.261	-0.018
Mof_C 	C 	0.9905	0.4735	0.2295	0.019
Mof_H 	H 	0.031	0.4768	0.2084	-0.027
Mof_H 	H 	0.0007	0.4922	0.2495	-0.02
Mof_C 	C 	0.8615	0.4353	0.2684	-0.013
Mof_H 	H 	0.8532	0.4166	0.2477	-0.017
Mof_C 	C 	0.7534	0.40237	0.35903	-0.238
Mof_C 	C 	0.6618	0.41538	0.35529	0.34
Mof_C 	C 	0.6068	0.40607	0.3852	-0.454
Mof_C 	C 	0.6434	0.3837	0.4189	0.244
Mof_H 	H 	0.6065	0.3775	0.4389	-0.076
Mof_C 	C 	0.735	0.37073	0.42264	-0.25
Mof_C 	C 	0.79	0.38004	0.39271	0.142
Mof_H 	H 	0.8513	0.3713	0.3952	-0.016
Mof_C 	C 	0.4355	0.4165	0.3476	-1.36
Mof_H 	H 	0.3739	0.4236	0.3519	0.386
Mof_H 	H 	0.4336	0.3932	0.3413	0.413
Mof_H 	H 	0.4509	0.4285	0.3233	0.419
Mof_C 	C 	0.5124	0.42343	0.3899	0.948
Mof_C 	C 	0.4837	0.4185	0.4348	-1.395
Mof_H 	H 	0.424	0.4296	0.4343	0.402
Mof_H 	H 	0.5327	0.4276	0.4581	0.409
Mof_H 	H 	0.4767	0.3953	0.44	0.427
Mof_C 	C 	0.5187	0.46136	0.3854	-1.282
Mof_H 	H 	0.4586	0.4712	0.3875	0.366
Mof_H 	H 	0.5325	0.4667	0.3572	0.388
Mof_H 	H 	0.5689	0.4698	0.4086	0.375
Mof_C 	C 	0.7735	0.3425	0.4512	0.402
Mof_Co	Co	0.89944	0.10493	0.72266	1.161
Mof_Co	Co	0.67144	0.85353	0.77245	1.165
Mof_Co	Co	0.89776	0.19814	0.22249	1.166
Mof_Co	Co	0.16976	0.94819	0.27076	1.16
Mof_Cd	Cd	0.74711	0.02549	0.99341	0.464
Mof_Cd	Cd	0.2519	0.77534	0.49761	0.458
Mof_N 	N 	0.0014	0.1207	0.7039	-0.337
Mof_N 	N 	0.9857	0.0882	0.7698	-0.296
Mof_N 	N 	0.7923	0.86517	0.7972	-0.296
Mof_N 	N 	0.7284	0.8401	0.7278	-0.304
Mof_N 	N 	0.9935	0.2115	0.2728	-0.277
Mof_N 	N 	0.0065	0.18452	0.1984	-0.293
Mof_N 	N 	0.2212	0.9672	0.2269	-0.312
Mof_N 	N 	0.2941	0.929	0.2962	-0.291
Mof_O 	O 	0.7825	0.22272	0.51977	-0.301
Mof_O 	O 	0.94	0.21915	0.5434	-0.303
Mof_O 	O 	0.8063	0.11872	0.6723	-0.501
Mof_O 	O 	0.7939	0.09286	0.74704	-0.516
Mof_O 	O 	0.8589	0.04382	0.9475	-0.277
Mof_O 	O 	0.7038	0.0433	0.9265	-0.312
Mof_O 	O 	0.8492	0.9705	0.9564	-0.252
Mof_O 	O 	0.6856	0.975	0.9646	-0.246
Mof_O 	O 	0.6196	0.86715	0.81793	-0.549
Mof_O 	O 	0.5419	0.84092	0.74106	-0.504
Mof_O 	O 	0.3127	0.7865	0.5608	-0.288
Mof_O 	O 	0.4574	0.7959	0.5429	-0.296
Mof_O 	O 	0.698	0.2569	0.4222	-0.327
Mof_O 	O 	0.8534	0.2603	0.4439	-0.319
Mof_O 	O 	0.8001	0.2099	0.2467	-0.525
Mof_O 	O 	0.8142	0.18516	0.173	-0.513
Mof_O 	O 	0.9441	0.0807	0.0443	-0.283
Mof_O 	O 	0.7778	0.0791	0.0211	-0.306
Mof_O 	O 	0.9578	0.00275	0.04066	-0.33
Mof_O 	O 	0.8228	0.0063	0.0616	-0.349
Mof_O 	O 	0.0521	0.95789	0.24399	-0.554
Mof_O 	O 	0.1157	0.9344	0.3212	-0.476
Mof_O 	O 	0.2166	0.8309	0.4713	-0.328
Mof_O 	O 	0.3634	0.8393	0.4615	-0.339
Mof_C 	C 	0.8584	0.21137	0.5455	0.365
Mof_C 	C 	0.8468	0.18073	0.57432	-0.223
Mof_C 	C 	0.7566	0.16789	0.57458	0.237
Mof_H 	H 	0.7032	0.1751	0.5538	-0.071
Mof_C 	C 	0.7462	0.14427	0.6059	-0.459
Mof_C 	C 	0.826	0.13351	0.637	0.364
Mof_C 	C 	0.9163	0.14635	0.63672	-0.283
Mof_C 	C 	0.9267	0.16996	0.60539	0.158
Mof_H 	H 	0.9871	0.1786	0.6052	-0.013
Mof_C 	C 	0.6581	0.08746	0.5982	-1.293
Mof_H 	H 	0.6907	0.0809	0.5756	0.378
Mof_H 	H 	0.595	0.0778	0.5923	0.369
Mof_H 	H 	0.6937	0.0799	0.6265	0.383
Mof_C 	C 	0.6497	0.12572	0.5988	0.917
Mof_C 	C 	0.6016	0.1342	0.6376	-1.3
Mof_H 	H 	0.596	0.1578	0.6399	0.395
Mof_H 	H 	0.64	0.1257	0.6648	0.398
Mof_H 	H 	0.5388	0.1244	0.6324	0.371
Mof_C 	C 	0.5739	0.1355	0.557	-1.308
Mof_H 	H 	0.5679	0.1592	0.5555	0.403
Mof_H 	H 	0.5131	0.1258	0.5583	0.376
Mof_H 	H 	0.5937	0.1275	0.5311	0.382
Mof_C 	C 	0.9935	0.1368	0.6696	0.157
Mof_H 	H 	0.0521	0.1441	0.6647	-0.036
Mof_C 	C 	0.0926	0.1123	0.7326	0.03
Mof_H 	H 	0.0956	0.1292	0.7556	-0.019
Mof_C 	C 	0.1863	0.1192	0.7189	-0.161
Mof_H 	H 	0.1883	0.1421	0.7097	0.053
Mof_H 	H 	0.1919	0.1051	0.6942	0.049
Mof_C 	C 	0.2718	0.1121	0.7597	-0.07
Mof_H 	H 	0.3323	0.1124	0.7502	-0.009
Mof_H 	H 	0.274	0.1291	0.782	0.012
Mof_C 	C 	0.2568	0.0788	0.7786	-0.056
Mof_H 	H 	0.3139	0.0727	0.8005	0.002
Mof_H 	H 	0.2475	0.0624	0.7551	0.004
Mof_C 	C 	0.1697	0.0784	0.8003	-0.156
Mof_H 	H 	0.1716	0.0969	0.8206	0.078
Mof_H 	H 	0.166	0.0578	0.816	0.058
Mof_C 	C 	0.0834	0.0819	0.7588	-0.007
Mof_H 	H 	0.0801	0.0623	0.74	-0.019
Mof_C 	C 	0.9729	0.0765	0.8073	0.121
Mof_H 	H 	0.026	0.0693	0.8283	-0.011
Mof_C 	C 	0.8783	0.07445	0.81751	-0.259
Mof_C 	C 	0.7939	0.08132	0.78676	0.39
Mof_C 	C 	0.7058	0.0778	0.79845	-0.499
Mof_C 	C 	0.702	0.0674	0.8409	0.268
Mof_H 	H 	0.643	0.065	0.8487	-0.085
Mof_C 	C 	0.7865	0.0605	0.87163	-0.243
Mof_C 	C 	0.8746	0.06405	0.85995	0.161
Mof_H 	H 	0.9311	0.0595	0.8805	-0.003
Mof_C 	C 	0.6108	0.08437	0.76396	1.029
Mof_C 	C 	0.6052	0.0654	0.7202	-1.453
Mof_H 	H 	0.5449	0.07	0.7003	0.418
Mof_H 	H 	0.6103	0.042	0.7262	0.438
Mof_H 	H 	0.6568	0.0723	0.7069	0.446
Mof_C 	C 	0.5249	0.0761	0.7848	-1.487
Mof_H 	H 	0.4662	0.0791	0.7631	0.443
Mof_H 	H 	0.5254	0.0905	0.8095	0.448
Mof_H 	H 	0.5296	0.0535	0.7947	0.458
Mof_C 	C 	0.5979	0.12118	0.7501	-1.411
Mof_H 	H 	0.5394	0.1238	0.7281	0.406
Mof_H 	H 	0.6512	0.1282	0.738	0.435
Mof_H 	H 	0.5951	0.1345	0.7755	0.415
Mof_C 	C 	0.7813	0.0506	0.917	0.352
Mof_C 	C 	0.7653	0.9574	0.9541	0.239
Mof_C 	C 	0.726	0.93121	0.91759	-0.189
Mof_C 	C 	0.7836	0.91974	0.8899	0.125
Mof_H 	H 	0.846	0.9276	0.8931	-0.014
Mof_C 	C 	0.7479	0.8965	0.8573	-0.261
Mof_C 	C 	0.6546	0.8847	0.8524	0.405
Mof_C 	C 	0.5971	0.8962	0.8801	-0.509
Mof_C 	C 	0.6328	0.91943	0.9127	0.234
Mof_H 	H 	0.5942	0.9271	0.9313	-0.07
Mof_C 	C 	0.5073	0.87674	0.8851	1.065
Mof_C 	C 	0.4332	0.889	0.8442	-1.474
Mof_H 	H 	0.4546	0.8834	0.8178	0.453
Mof_H 	H 	0.4265	0.9126	0.8459	0.443
Mof_H 	H 	0.3723	0.8787	0.8435	0.418
Mof_C 	C 	0.5208	0.8389	0.8891	-1.488
Mof_H 	H 	0.548	0.831	0.8652	0.442
Mof_H 	H 	0.4596	0.8285	0.8876	0.424
Mof_H 	H 	0.563	0.8337	0.9169	0.432
Mof_C 	C 	0.4638	0.8869	0.9239	-1.5
Mof_H 	H 	0.4506	0.9102	0.9223	0.458
Mof_H 	H 	0.5082	0.8819	0.9512	0.44
Mof_H 	H 	0.4051	0.8749	0.9226	0.432
Mof_C 	C 	0.8127	0.8862	0.8326	0.076
Mof_H 	H 	0.8752	0.8941	0.8409	-0.01
Mof_C 	C 	0.8702	0.8512	0.7777	-0.057
Mof_H 	H 	0.8753	0.8283	0.7881	0.006
Mof_C 	C 	0.9627	0.862	0.7874	-0.048
Mof_H 	H 	0.988	0.8597	0.819	0.017
Mof_H 	H 	0.9636	0.8854	0.7801	0.014
Mof_C 	C 	0.029	0.8434	0.7628	-0.174
Mof_H 	H 	0.0327	0.8202	0.7713	0.034
Mof_H 	H 	0.0932	0.8527	0.7706	0.022
Mof_C 	C 	0.9894	0.8464	0.7125	0.062
Mof_H 	H 	0.9931	0.8692	0.7029	-0.02
Mof_H 	H 	0.0253	0.8324	0.6964	-0.04
Mof_C 	C 	0.8853	0.8351	0.705	-0.304
Mof_H 	H 	0.8555	0.8391	0.6741	0.121
Mof_H 	H 	0.8855	0.8113	0.7095	0.093
Mof_C 	C 	0.8316	0.8478	0.7283	0.135
Mof_H 	H 	0.8279	0.871	0.7185	-0.027
Mof_C 	C 	0.6746	0.8268	0.6873	0.078
Mof_H 	H 	0.7102	0.8196	0.6673	0.005
Mof_C 	C 	0.5761	0.82328	0.67399	-0.255
Mof_C 	C 	0.5135	0.82897	0.70186	0.396
Mof_C 	C 	0.4155	0.824	0.68652	-0.484
Mof_C 	C 	0.3801	0.8133	0.6433	0.275
Mof_H 	H 	0.3145	0.81	0.633	-0.083
Mof_C 	C 	0.4427	0.8076	0.61543	-0.27
Mof_C 	C 	0.5408	0.81261	0.63077	0.166
Mof_H 	H 	0.5827	0.8088	0.6121	-0.005
Mof_C 	C 	0.3467	0.82824	0.7189	0.955
Mof_C 	C 	0.3387	0.8639	0.7353	-1.34
Mof_H 	H 	0.294	0.8645	0.7544	0.379
Mof_H 	H 	0.3167	0.8782	0.7103	0.392
Mof_H 	H 	0.4006	0.8712	0.7513	0.409
Mof_C 	C 	0.3844	0.8117	0.7648	-1.314
Mof_H 	H 	0.3393	0.8154	0.7832	0.379
Mof_H 	H 	0.4452	0.8213	0.7786	0.406
Mof_H 	H 	0.3921	0.7884	0.7609	0.401
Mof_C 	C 	0.2483	0.812	0.6993	-1.415
Mof_H 	H 	0.2059	0.8155	0.7191	0.42
Mof_H 	H 	0.2568	0.7887	0.6956	0.441
Mof_H 	H 	0.221	0.8219	0.6711	0.431
Mof_C 	C 	0.4076	0.7994	0.5726	0.333
Mof_C 	C 	0.78	0.2551	0.41684	0.408
Mof_C 	C 	0.7905	0.24415	0.37177	-0.237
Mof_C 	C 	0.7053	0.23879	0.34082	0.248
Mof_H 	H 	0.6467	0.2427	0.3484	-0.07
Mof_C 	C 	0.7078	0.2276	0.29859	-0.47
Mof_C 	C 	0.7955	0.2217	0.28731	0.361
Mof_C 	C 	0.8806	0.2271	0.31826	-0.246
Mof_C 	C 	0.8782	0.23831	0.36049	0.154
Mof_H 	H 	0.9351	0.2419	0.3812	0.003
Mof_C 	C 	0.6121	0.22483	0.265	0.936
Mof_C 	C 	0.5229	0.2378	0.2802	-1.356
Mof_H 	H 	0.5206	0.2282	0.3084	0.414
Mof_H 	H 	0.466	0.2318	0.2588	0.403
Mof_H 	H 	0.5265	0.2615	0.283	0.413
Mof_C 	C 	0.5979	0.18697	0.258	-1.33
Mof_H 	H 	0.5999	0.1764	0.286	0.398
Mof_H 	H 	0.6482	0.1782	0.2452	0.411
Mof_H 	H 	0.5369	0.1828	0.2385	0.38
Mof_C 	C 	0.2643	0.2062	0.2914	-0.163
Mof_H 	H 	0.3149	0.2205	0.3074	0.038
Mof_H 	H 	0.2731	0.1841	0.3038	0.054
Mof_C 	C 	0.606	0.2421	0.2193	-1.307
Mof_H 	H 	0.6598	0.2354	0.2073	0.396
Mof_H 	H 	0.6071	0.2657	0.2231	0.392
Mof_H 	H 	0.5475	0.2357	0.1992	0.373
Mof_C 	C 	0.9726	0.223	0.3089	0.108
Mof_H 	H 	0.0244	0.2292	0.3313	-0.006
Mof_C 	C 	0.0924	0.2033	0.26834	-0.036
Mof_H 	H 	0.1023	0.1804	0.2788	0.012
Mof_C 	C 	0.1649	0.2199	0.2927	-0.065
Mof_H 	H 	0.1579	0.2199	0.3232	0.047
Mof_H 	H 	0.1613	0.2427	0.2827	0.012
Mof_C 	C 	0.2628	0.2059	0.2427	0.023
Mof_H 	H 	0.3221	0.1959	0.2387	-0.035
Mof_H 	H 	0.2625	0.2287	0.2327	-0.019
Mof_C 	C 	0.1795	0.1879	0.2128	-0.218
Mof_H 	H 	0.1828	0.1906	0.182	0.068
Mof_H 	H 	0.1824	0.1644	0.2197	0.067
Mof_C 	C 	0.0941	0.2015	0.22007	0.06
Mof_H 	H 	0.0899	0.2242	0.2087	-0.033
Mof_C 	C 	0.0048	0.16543	0.1673	0.08
Mof_H 	H 	0.0629	0.1596	0.1605	-0.014
Mof_C 	C 	0.9125	0.15065	0.13918	-0.218
Mof_C 	C 	0.8225	0.16419	0.13813	0.338
Mof_C 	C 	0.7442	0.15467	0.1053	-0.49
Mof_C 	C 	0.7559	0.1316	0.0735	0.24
Mof_H 	H 	0.7035	0.1253	0.0515	-0.077
Mof_C 	C 	0.8459	0.11809	0.0746	-0.206
Mof_C 	C 	0.9243	0.1276	0.10739	0.119
Mof_H 	H 	0.9845	0.1185	0.1081	0
Mof_C 	C 	0.6438	0.17098	0.10087	1.082
Mof_C 	C 	0.6597	0.2091	0.0999	-1.439
Mof_H 	H 	0.5991	0.2203	0.0966	0.407
Mof_H 	H 	0.688	0.2147	0.0753	0.417
Mof_H 	H 	0.7018	0.216	0.127	0.438
Mof_C 	C 	0.5977	0.1613	0.139	-1.564
Mof_H 	H 	0.5362	0.1719	0.1353	0.447
Mof_H 	H 	0.6382	0.1682	0.1665	0.479
Mof_H 	H 	0.5895	0.1377	0.1392	0.467
Mof_C 	C 	0.5737	0.1616	0.058	-1.543
Mof_H 	H 	0.5139	0.1729	0.0565	0.44
Mof_H 	H 	0.5632	0.1381	0.0574	0.467
Mof_H 	H 	0.6	0.1679	0.0332	0.452
Mof_C 	C 	0.9075	0.0041	0.06858	0.408
Mof_C 	C 	0.856	0.09168	0.0404	0.326
Mof_C 	C 	0.947	0.99237	0.11748	-0.224
Mof_C 	C 	0.0451	0.98734	0.13256	0.144
Mof_H 	H 	0.0868	0.9914	0.1139	0.003
Mof_C 	C 	0.0808	0.9762	0.17553	-0.268
Mof_C 	C 	0.0185	0.9701	0.20342	0.391
Mof_C 	C 	0.9204	0.9751	0.18834	-0.507
Mof_C 	C 	0.8847	0.98627	0.14537	0.263
Mof_H 	H 	0.8191	0.9896	0.1353	-0.077
Mof_C 	C 	0.741	0.9764	0.1948	-1.494
Mof_H 	H 	0.6998	0.9702	0.2142	0.443
Mof_H 	H 	0.721	0.9652	0.167	0.448
Mof_H 	H 	0.7375	0.9999	0.19	0.46
Mof_C 	C 	0.8457	0.96654	0.2162	1.069
Mof_C 	C 	0.8494	0.92897	0.2254	-1.52
Mof_H 	H 	0.9139	0.9227	0.2393	0.475
Mof_H 	H 	0.8295	0.9172	0.198	0.45
Mof_H 	H 	0.8072	0.9237	0.2447	0.438
Mof_C 	C 	0.8651	0.9854	0.2602	-1.487
Mof_H 	H 	0.9291	0.9808	0.2764	0.455
Mof_H 	H 	0.8199	0.9785	0.2773	0.43
Mof_H 	H 	0.8583	0.0088	0.2545	0.45
Mof_C 	C 	0.1849	0.9721	0.1885	0.157
Mof_H 	H 	0.2224	0.9732	0.1675	-0.019
Mof_C 	C 	0.3849	0.9746	0.2034	-0.168
Mof_H 	H 	0.3735	0.9589	0.1792	0.084
Mof_H 	H 	0.3676	0.9967	0.1918	0.066
Mof_C 	C 	0.5263	0.943	0.2562	-0.068
Mof_H 	H 	0.5944	0.9458	0.2686	-0.008
Mof_H 	H 	0.5194	0.9242	0.2361	0.012
Mof_C 	C 	0.4778	0.934	0.2942	-0.141
Mof_H 	H 	0.4925	0.95	0.3181	0.044
Mof_H 	H 	0.4964	0.912	0.3058	0.049
Mof_C 	C 	0.3247	0.9145	0.3307	0.098
Mof_H 	H 	0.3902	0.9105	0.3402	-0.018
Mof_C 	C 	0.327	0.9649	0.2399	0.011
Mof_H 	H 	0.3429	0.9832	0.261	-0.014
Mof_C 	C 	0.4905	0.9735	0.2295	-0.05
Mof_H 	H 	0.531	0.9768	0.2084	-0.002
Mof_H 	H 	0.5007	0.9922	0.2495	0.005
Mof_C 	C 	0.3615	0.9353	0.2684	-0.002
Mof_H 	H 	0.3532	0.9166	0.2477	-0.02
Mof_C 	C 	0.2534	0.90237	0.35903	-0.236
Mof_C 	C 	0.1618	0.91538	0.35529	0.336
Mof_C 	C 	0.1068	0.90607	0.3852	-0.446
Mof_C 	C 	0.1434	0.8837	0.4189	0.239
Mof_H 	H 	0.1065	0.8775	0.4389	-0.075
Mof_C 	C 	0.235	0.87073	0.42264	-0.249
Mof_C 	C 	0.29	0.88004	0.39271	0.141
Mof_H 	H 	0.3513	0.8713	0.3952	-0.016
Mof_C 	C 	0.9355	0.9165	0.3476	-1.326
Mof_H 	H 	0.8739	0.9236	0.3519	0.377
Mof_H 	H 	0.9336	0.8932	0.3413	0.403
Mof_H 	H 	0.9509	0.9285	0.3233	0.41
Mof_C 	C 	0.0124	0.92343	0.3899	0.921
Mof_C 	C 	0.9837	0.9185	0.4348	-1.339
Mof_H 	H 	0.924	0.9296	0.4343	0.387
Mof_H 	H 	0.0327	0.9276	0.4581	0.388
Mof_H 	H 	0.9767	0.8953	0.44	0.412
Mof_C 	C 	0.0187	0.96136	0.3854	-1.282
Mof_H 	H 	0.9586	0.9712	0.3875	0.371
Mof_H 	H 	0.0325	0.9667	0.3572	0.387
Mof_H 	H 	0.0689	0.9698	0.4086	0.375
Mof_C 	C 	0.2735	0.8425	0.4512	0.402
Mof_Cd	Cd	0.5	0.547	-0	0.506
Mof_Cd	Cd	0.5	0.45968	-0	0.375
Mof_Cd	Cd	1.45206e-33	0.047	-0	0.499
Mof_Cd	Cd	2.3233e-32	0.95968	-0	0.372
Mof_Cd	Cd	4.95164e-33	0.3396	0.5	0.435
Mof_Cd	Cd	-5.2316e-17	0.2527	0.5	0.507
Mof_Cd	Cd	0.5	0.8396	0.5	0.441
Mof_Cd	Cd	0.5	0.7527	0.5	0.513
_end
