data_functionalizedCrystal
_audit_creation_method	'EQeq! by Chris Wilmer'
_symmetry_space_group_name_H-M	'P1'
_symmetry_Int_Tables_number	1
_symmetry_cell_setting	triclinic
loop_
_symmetry_equiv_pos_as_xyz
  x,y,z
_cell_length_a	17.8916
_cell_length_b	19.088
_cell_length_c	19.6745
_cell_angle_alpha	90
_cell_angle_beta	90
_cell_angle_gamma	90
loop_
_atom_site_label
_atom_site_type_symbol
_atom_site_fract_x
_atom_site_fract_y
_atom_site_fract_z
_atom_site_charge
Mof_Co	Co	0.31841	0.76535	4e-05	1.116
Mof_Co	Co	0.18159	0.26535	0.50004	1.116
Mof_Co	Co	0.68159	0.26535	0.99996	1.116
Mof_Co	Co	0.81841	0.76535	0.49996	1.116
Mof_H 	H 	0.9609	0.6688	0.6986	0.102
Mof_H 	H 	0.4064	0.1458	0.8732	0.025
Mof_H 	H 	0.5195	0.4618	0.103	0.094
Mof_H 	H 	0.8627	0.9889	0.7274	-0.881
Mof_H 	H 	0.614	0.5412	0.7133	0.049
Mof_H 	H 	0.2027	0.1598	0.8223	1.027
Mof_H 	H 	0.7023	0.7941	0.3901	0.009
Mof_H 	H 	0.17	0.2376	0.7424	-0.926
Mof_H 	H 	0.2225	0.6671	0.6422	0.469
Mof_H 	H 	0.5991	0.2355	0.1323	0.001
Mof_H 	H 	0.0391	0.1688	0.3014	0.104
Mof_H 	H 	0.7336	0.557	0.354	0.083
Mof_H 	H 	0.1811	0.4343	0.8367	0.339
Mof_H 	H 	0.724	0.9054	0.5017	-0.002
Mof_H 	H 	0.2375	0.2977	0.2727	0.736
Mof_H 	H 	0.386	0.0412	0.2867	0.048
Mof_H 	H 	0.9064	0.1458	0.6268	0.027
Mof_H 	H 	0.9094	0.1643	0.1335	0.097
Mof_H 	H 	0.7229	0.3568	0.7747	-0.413
Mof_H 	H 	0.4165	0.7819	0.1198	0.02
Mof_H 	H 	0.8011	0.699	0.8452	0.47
Mof_H 	H 	0.2641	0.4853	0.2714	0.975
Mof_H 	H 	0.288	0.283	0.138	-0.481
Mof_H 	H 	0.2885	0.1364	0.2558	-0.207
Mof_H 	H 	0.7856	0.6747	0.727	-0.209
Mof_H 	H 	0.9853	0.8499	0.3215	0.089
Mof_H 	H 	0.5141	0.5687	0.2404	-0.78
Mof_H 	H 	0.7904	0.8097	0.1415	0.773
Mof_H 	H 	0.1334	0.4118	0.2478	-0.908
Mof_H 	H 	0.5566	0.1444	0.0271	0.012
Mof_H 	H 	0.4434	0.6444	0.9729	0.01
Mof_H 	H 	0.2636	0.927	0.8202	0.996
Mof_H 	H 	0.4063	0.5938	0.345	-1.035
Mof_H 	H 	0.7375	0.2977	0.2273	0.736
Mof_H 	H 	0.3815	0.4543	0.4473	0.074
Mof_H 	H 	0.9451	0.3923	0.1379	0.078
Mof_H 	H 	0.3091	0.9659	0.2647	0.341
Mof_H 	H 	0.9671	0.3905	0.3078	0.086
Mof_H 	H 	0.4598	0.5336	0.1892	-0.807
Mof_H 	H 	0.6903	0.319	0.2901	0.752
Mof_H 	H 	0.1771	0.8834	0.7399	-0.705
Mof_H 	H 	0.9598	0.5336	0.3108	-0.809
Mof_H 	H 	0.2316	0.9073	0.6831	-0.701
Mof_H 	H 	0.5402	0.0336	0.8108	-0.809
Mof_H 	H 	0.2229	0.3568	0.7253	-0.419
Mof_H 	H 	0.3507	0.1175	0.7126	0.068
Mof_H 	H 	0.7684	0.4073	0.3169	-0.702
Mof_H 	H 	0.1687	0.7579	0.7018	-0.458
Mof_H 	H 	0.7641	0.4853	0.2286	0.974
Mof_H 	H 	0.3313	0.2579	0.2018	-0.459
Mof_H 	H 	0.2168	0.064	0.181	0.165
Mof_H 	H 	0.7973	0.6598	0.1777	1.015
Mof_H 	H 	0.2207	0.8832	0.2794	-0.461
Mof_H 	H 	0.2625	0.7977	0.7727	0.734
Mof_H 	H 	0.2023	0.7941	0.1099	0.009
Mof_H 	H 	0.7096	0.3097	0.6415	0.775
Mof_H 	H 	0.6112	0.8412	0.3489	0.089
Mof_H 	H 	0.9805	0.9618	0.603	0.093
Mof_H 	H 	0.7832	0.564	0.819	0.163
Mof_H 	H 	0.2793	0.3832	0.7794	-0.47
Mof_H 	H 	0.0329	0.8905	0.6922	0.087
Mof_H 	H 	0.8507	0.1175	0.7874	0.069
Mof_H 	H 	0.7144	0.1747	0.227	-0.21
Mof_H 	H 	0.224	0.9054	0.9983	-0.001
Mof_H 	H 	0.8888	0.3412	0.8489	0.09
Mof_H 	H 	0.6185	0.9543	0.5527	0.073
Mof_H 	H 	0.788	0.283	0.362	-0.481
Mof_H 	H 	0.6989	0.199	0.3452	0.472
Mof_H 	H 	0.8313	0.2579	0.2982	-0.459
Mof_H 	H 	0.0451	0.1553	0.8185	-1.005
Mof_H 	H 	0.1185	0.9543	0.9473	0.073
Mof_H 	H 	0.4609	0.6688	0.8014	0.103
Mof_H 	H 	0.8815	0.4543	0.0527	0.074
Mof_H 	H 	0.8097	0.819	0.7901	0.75
Mof_H 	H 	0.6997	0.0519	0.2426	0.167
Mof_H 	H 	0.8857	0.7727	0.2077	-0.875
Mof_H 	H 	0.2684	0.4073	0.1831	-0.702
Mof_H 	H 	0.212	0.783	0.638	-0.48
Mof_H 	H 	0.5835	0.2819	0.8802	0.02
Mof_H 	H 	0.7027	0.1598	0.6777	1.017
Mof_H 	H 	0.2832	0.564	0.681	0.163
Mof_H 	H 	0.2335	0.7717	0.3118	0.784
Mof_H 	H 	0.2015	0.1176	0.5587	-0.004
Mof_H 	H 	0.8526	0.5868	0.2615	1.075
Mof_H 	H 	0.276	0.4054	0.4983	-0.001
Mof_H 	H 	0.83	0.7376	0.2576	-0.913
Mof_H 	H 	0.4009	0.7355	0.8677	0.001
Mof_H 	H 	0.2973	0.6598	0.3223	1.013
Mof_H 	H 	0.5936	0.6458	0.1268	0.026
Mof_H 	H 	0.8657	0.4647	0.7893	0.079
Mof_H 	H 	0.3388	0.9702	0.699	-0.888
Mof_H 	H 	0.2977	0.2941	0.6099	0.009
Mof_H 	H 	0.7316	0.9073	0.8169	-0.7
Mof_H 	H 	0.6152	0.4103	0.0321	-0.009
Mof_H 	H 	0.67	0.2376	0.7576	-0.914
Mof_H 	H 	0.7885	0.1364	0.2442	-0.206
Mof_H 	H 	0.1373	0.4889	0.2726	-0.881
Mof_H 	H 	0.0423	0.0126	0.7653	-0.788
Mof_H 	H 	0.3888	0.3412	0.6511	0.09
Mof_H 	H 	0.0566	0.1444	0.4729	0.011
Mof_H 	H 	0.0533	0.6006	0.478	0.056
Mof_H 	H 	0.9859	0.0687	0.7404	-0.789
Mof_H 	H 	0.1343	0.9647	0.2107	0.081
Mof_H 	H 	0.3003	0.5519	0.7574	0.165
Mof_H 	H 	0.0991	0.2355	0.3677	0.001
Mof_H 	H 	0.9467	0.1006	0.522	0.057
Mof_H 	H 	0.1474	0.0868	0.7385	1.088
Mof_H 	H 	0.6811	0.4343	0.6633	0.335
Mof_H 	H 	0.409	0.6429	0.2136	1.133
Mof_H 	H 	0.2665	0.2717	0.8118	0.796
Mof_H 	H 	0.1909	0.4659	0.7647	0.348
Mof_H 	H 	0.5329	0.8905	0.8078	0.085
Mof_H 	H 	0.7015	0.1176	0.9413	-0.004
Mof_H 	H 	0.2364	0.427	0.3202	0.998
Mof_H 	H 	0.1143	0.2727	0.7923	-0.888
Mof_H 	H 	0.6334	0.4118	0.2522	-0.908
Mof_H 	H 	0.1152	0.4103	0.4679	-0.009
Mof_H 	H 	0.6143	0.2727	0.7077	-0.876
Mof_H 	H 	0.886	0.0412	0.2133	0.047
Mof_H 	H 	0.6493	0.6175	0.2874	0.068
Mof_H 	H 	0.5937	0.0938	0.655	-1.038
Mof_H 	H 	0.712	0.783	0.862	-0.479
Mof_H 	H 	0.8229	0.3834	0.2601	-0.706
Mof_H 	H 	0.4094	0.1643	0.3665	0.097
Mof_H 	H 	0.5423	0.0126	0.7347	-0.779
Mof_H 	H 	0.7771	0.8568	0.2747	-0.412
Mof_H 	H 	0.7665	0.2717	0.6882	0.787
Mof_H 	H 	0.3627	0.9889	0.7726	-0.881
Mof_H 	H 	0.7225	0.6671	0.8578	0.468
Mof_H 	H 	0.1493	0.6175	0.2126	0.068
Mof_H 	H 	0.1989	0.199	0.1548	0.472
Mof_H 	H 	0.0936	0.6458	0.3732	0.026
Mof_H 	H 	0.2096	0.3097	0.8585	0.783
Mof_H 	H 	0.2856	0.6747	0.773	-0.209
Mof_H 	H 	0.2775	0.1671	0.1422	0.47
Mof_H 	H 	0.6373	0.4889	0.2274	-0.881
Mof_H 	H 	0.1903	0.319	0.2099	0.752
Mof_H 	H 	0.1997	0.0519	0.2574	0.167
Mof_H 	H 	0.114	0.5412	0.7867	0.05
Mof_H 	H 	0.9063	0.5938	0.155	-1.038
Mof_H 	H 	0.3011	0.699	0.6548	0.47
Mof_H 	H 	0.776	0.4054	0.0017	-0.001
Mof_H 	H 	0.7364	0.427	0.1798	0.998
Mof_H 	H 	0.7793	0.3832	0.7206	-0.463
Mof_H 	H 	0.7977	0.2941	0.8901	0.009
Mof_H 	H 	0.4805	0.9618	0.897	0.094
Mof_H 	H 	0.0195	0.4618	0.397	0.095
Mof_H 	H 	0.6474	0.0868	0.7615	1.077
Mof_H 	H 	0.9434	0.6444	0.5271	0.011
Mof_H 	H 	0.9549	0.6553	0.1815	-0.992
Mof_H 	H 	0.3848	0.9103	0.9679	-0.009
Mof_H 	H 	0.1825	0.7266	0.9049	0.01
Mof_H 	H 	0.0141	0.5687	0.2596	-0.781
Mof_H 	H 	0.4451	0.3923	0.3621	0.078
Mof_H 	H 	0.8091	0.9659	0.2353	0.341
Mof_H 	H 	0.8175	0.2266	0.0951	0.01
Mof_H 	H 	0.5451	0.1553	0.6815	-0.992
Mof_H 	H 	0.091	0.1429	0.7136	1.147
Mof_H 	H 	0.2336	0.557	0.146	0.083
Mof_H 	H 	0.8666	0.9118	0.7522	-0.906
Mof_H 	H 	0.4467	0.1006	0.978	0.057
Mof_H 	H 	0.7335	0.7717	0.1882	0.786
Mof_H 	H 	0.2144	0.1747	0.273	-0.21
Mof_H 	H 	0.8003	0.5519	0.7426	0.165
Mof_H 	H 	0.0906	0.6643	0.8665	0.096
Mof_H 	H 	0.6909	0.4659	0.7353	0.343
Mof_H 	H 	0.6343	0.9647	0.2893	0.08
Mof_H 	H 	0.2115	0.6364	0.7558	-0.206
Mof_H 	H 	0.2359	0.9853	0.7714	0.972
Mof_H 	H 	0.3857	0.7727	0.2923	-0.873
Mof_H 	H 	0.8848	0.9103	0.5321	-0.009
Mof_H 	H 	0.3666	0.9118	0.7478	-0.907
Mof_H 	H 	0.3475	0.6969	0.3755	1.047
Mof_H 	H 	0.4671	0.3905	0.1922	0.085
Mof_H 	H 	0.8189	0.9343	0.1633	0.333
Mof_H 	H 	0.7168	0.064	0.319	0.165
Mof_H 	H 	0.2771	0.8568	0.2253	-0.411
Mof_H 	H 	0.5391	0.1688	0.1986	0.104
Mof_H 	H 	0.6612	0.4702	0.301	-0.888
Mof_H 	H 	0.4549	0.6553	0.3185	-0.989
Mof_H 	H 	0.6687	0.7579	0.7982	-0.457
Mof_H 	H 	0.591	0.1429	0.7864	1.136
Mof_H 	H 	0.909	0.6429	0.2864	1.135
Mof_H 	H 	0.9165	0.7819	0.3802	0.02
Mof_H 	H 	0.5533	0.6006	0.022	0.057
Mof_H 	H 	0.8388	0.9702	0.801	-0.887
Mof_H 	H 	0.3229	0.3834	0.2399	-0.706
Mof_H 	H 	0.3097	0.819	0.7099	0.75
Mof_H 	H 	0.8475	0.6969	0.1245	1.049
Mof_H 	H 	0.0835	0.2819	0.6198	0.021
Mof_H 	H 	0.6525	0.1969	0.6245	1.051
Mof_H 	H 	0.2664	0.057	0.646	0.084
Mof_H 	H 	0.7636	0.927	0.6798	0.995
Mof_H 	H 	0.6771	0.8834	0.7601	-0.704
Mof_H 	H 	0.3175	0.2266	0.4049	0.01
Mof_H 	H 	0.1612	0.4702	0.199	-0.889
Mof_H 	H 	0.4859	0.0687	0.7596	-0.782
Mof_H 	H 	0.33	0.7376	0.2424	-0.911
Mof_H 	H 	0.7359	0.9853	0.7286	0.971
Mof_H 	H 	0.1112	0.8412	0.1511	0.089
Mof_H 	H 	0.7664	0.057	0.854	0.084
Mof_H 	H 	0.5549	0.8923	0.6379	0.077
Mof_H 	H 	0.7207	0.8832	0.2206	-0.463
Mof_H 	H 	0.4577	0.5126	0.2653	-0.778
Mof_H 	H 	0.2904	0.8097	0.3585	0.772
Mof_H 	H 	0.0147	0.3499	0.6785	0.091
Mof_H 	H 	0.3189	0.9343	0.3367	0.333
Mof_H 	H 	0.2985	0.6176	0.0587	-0.004
Mof_H 	H 	0.7115	0.6364	0.7442	-0.206
Mof_H 	H 	0.5906	0.6643	0.6335	0.096
Mof_H 	H 	0.9009	0.7355	0.6323	0.001
Mof_H 	H 	0.1525	0.1969	0.8755	1.062
Mof_H 	H 	0.3526	0.5868	0.2385	1.073
Mof_H 	H 	0.9577	0.5126	0.2347	-0.779
Mof_H 	H 	0.0549	0.8923	0.8621	0.078
Mof_H 	H 	0.4853	0.8499	0.1785	0.092
Mof_H 	H 	0.7775	0.1671	0.3578	0.47
Mof_H 	H 	0.0402	0.0336	0.6892	-0.818
Mof_H 	H 	0.7625	0.7977	0.7273	0.734
Mof_H 	H 	0.6825	0.7266	0.5951	0.01
Mof_H 	H 	0.7985	0.6176	0.4413	-0.004
Mof_H 	H 	0.3657	0.4647	0.7107	0.078
Mof_H 	H 	0.5147	0.3499	0.8215	0.092
Mof_H 	H 	0.0937	0.0938	0.845	-1.051
Mof_C 	C 	0.0828	0.2825	0.3732	0.028
Mof_C 	C 	0.6776	0.425	0.7106	-0.979
Mof_C 	C 	0.4085	0.6316	0.3137	3.352
Mof_C 	C 	0.0285	0.3072	0.3282	-0.047
Mof_C 	C 	0.11	0.7544	0.2107	0.134
Mof_C 	C 	0.2926	0.2451	0.6166	0.05
Mof_C 	C 	0.5267	0.6374	0.0436	-0.088
Mof_C 	C 	0.0395	0.1636	0.5146	0.035
Mof_C 	C 	0.5177	0.6528	0.7171	0.135
Mof_C 	C 	0.1102	0.8034	0.8762	-0.043
Mof_C 	C 	0.2646	0.6428	0.0866	0.069
Mof_C 	C 	0.9087	0.3205	0.8089	-0.15
Mof_C 	C 	0.6641	0.7127	0.3348	-0.039
Mof_C 	C 	0.2206	0.2968	0.813	-2.514
Mof_C 	C 	0.0711	0.0522	0.2101	0.139
Mof_C 	C 	0.5052	0.3724	0.1635	0.031
Mof_C 	C 	0.9289	0.5522	0.7899	0.133
Mof_C 	C 	0.9822	0.3256	0.7087	-0.135
Mof_C 	C 	0.7605	0.8154	0.7724	-2.223
Mof_C 	C 	0.6768	0.641	0.3218	-0.006
Mof_C 	C 	0.9715	0.8072	0.6718	-0.045
Mof_C 	C 	0.9883	0.2221	0.6321	-0.069
Mof_C 	C 	0.9899	0.6918	0.7324	-0.196
Mof_C 	C 	0.2703	0.8674	0.2721	1.501
Mof_C 	C 	0.4578	0.3594	0.7337	0.116
Mof_C 	C 	0.736	0.4432	0.2255	-3.056
Mof_C 	C 	0.7206	0.2968	0.687	-2.485
Mof_C 	C 	0.0347	0.4146	0.391	-0.077
Mof_C 	C 	0.9993	0.7611	0.7278	0.139
Mof_C 	C 	0.2832	0.2637	0.1823	1.64
Mof_C 	C 	0.4346	0.1889	0.3313	-0.181
Mof_C 	C 	0.9011	0.6058	0.255	-3.38
Mof_C 	C 	0.3661	0.4081	0.436	-0.098
Mof_C 	C 	0.9743	0.4328	0.7778	-0.01
Mof_C 	C 	0.839	0.7495	0.2114	2.962
Mof_C 	C 	0.2354	0.1428	0.5866	0.069
Mof_C 	C 	0.4067	0.3706	0.3879	-0.006
Mof_C 	C 	0.9365	0.026	0.2154	-0.041
Mof_C 	C 	0.9157	0.4812	0.7861	-0.123
Mof_C 	C 	0.1965	0.0844	0.2209	-0.442
Mof_C 	C 	0.7475	0.1929	0.3267	-1.416
Mof_C 	C 	0.0057	0.5745	0.7855	-0.065
Mof_C 	C 	0.1768	0.641	0.1782	-0.006
Mof_C 	C 	0.2282	0.8887	0.7278	2.405
Mof_C 	C 	0.9614	0.2569	0.6946	0.112
Mof_C 	C 	0.4365	0.026	0.2846	-0.046
Mof_C 	C 	0.1645	0.4053	0.584	0.126
Mof_C 	C 	0.8898	0.3034	0.1238	-0.043
Mof_C 	C 	0.3224	0.925	0.2894	-0.975
Mof_C 	C 	0.5828	0.2825	0.1268	0.028
Mof_C 	C 	0.61	0.7544	0.2893	0.134
Mof_C 	C 	0.8355	0.9053	0.416	0.126
Mof_C 	C 	0.2297	0.3674	0.7721	1.528
Mof_C 	C 	0.4087	0.3205	0.6911	-0.151
Mof_C 	C 	0.339	0.7495	0.2886	2.954
Mof_C 	C 	0.7395	0.3154	0.2724	-2.229
Mof_C 	C 	0.7168	0.7637	0.8177	1.633
Mof_C 	C 	0.0257	0.9328	0.2222	-0.003
Mof_C 	C 	0.8359	0.2127	0.8348	-0.038
Mof_C 	C 	0.9492	0.1644	0.6047	0.002
Mof_C 	C 	0.1713	0.7746	0.912	0.007
Mof_C 	C 	0.3359	0.2127	0.6652	-0.039
Mof_C 	C 	0.6965	0.0844	0.2791	-0.442
Mof_C 	C 	0.6948	0.8781	0.5322	0.02
Mof_C 	C 	0.0635	0.526	0.7846	-0.055
Mof_C 	C 	0.5915	0.1316	0.6863	3.363
Mof_C 	C 	0.4652	0.5502	0.2344	2.754
Mof_C 	C 	0.444	0.7448	0.0997	0.018
Mof_C 	C 	0.5257	0.9328	0.2778	-0.007
Mof_C 	C 	0.7204	0.1273	0.0749	0.112
Mof_C 	C 	0.0654	0.6889	0.8313	-0.18
Mof_C 	C 	0.4948	0.8724	0.8365	0.031
Mof_C 	C 	0.9943	0.0745	0.2145	-0.069
Mof_C 	C 	0.7525	0.6929	0.8267	-1.411
Mof_C 	C 	0.4614	0.2569	0.8054	0.113
Mof_C 	C 	0.7282	0.8887	0.7722	2.403
Mof_C 	C 	0.4715	0.8072	0.8282	-0.047
Mof_C 	C 	0.0704	0.7589	0.8259	0.138
Mof_C 	C 	0.8224	0.925	0.2106	-0.977
Mof_C 	C 	0.3035	0.5844	0.7209	-0.44
Mof_C 	C 	0.161	0.2495	0.7886	3.002
Mof_C 	C 	0.7404	0.1488	0.2608	0.731
Mof_C 	C 	0.0489	0.4573	0.7808	0.049
Mof_C 	C 	0.4172	0.7825	0.8732	0.028
Mof_C 	C 	0.4011	0.6058	0.245	-3.373
Mof_C 	C 	0.0348	0.0502	0.7344	2.789
Mof_C 	C 	0.5117	0.7221	0.1321	-0.071
Mof_C 	C 	0.0177	0.6528	0.7829	0.135
Mof_C 	C 	0.2395	0.3154	0.2276	-2.23
Mof_C 	C 	0.7794	0.7968	0.187	-2.481
Mof_C 	C 	0.6606	0.4545	0.2551	3.021
Mof_C 	C 	0.0101	0.1918	0.2676	-0.199
Mof_C 	C 	0.2168	0.7637	0.6823	1.635
Mof_C 	C 	0.2475	0.1929	0.1733	-1.417
Mof_C 	C 	0.6645	0.4053	0.916	0.126
Mof_C 	C 	0.5489	0.4573	0.7192	0.052
Mof_C 	C 	0.2753	0.1054	0.6385	-0.118
Mof_C 	C 	0.0178	0.8256	0.2913	-0.132
Mof_C 	C 	0.5395	0.1636	0.9854	0.036
Mof_C 	C 	0.0422	0.8594	0.2337	0.11
Mof_C 	C 	0.6102	0.8034	0.6238	-0.043
Mof_C 	C 	0.7796	0.6273	0.5749	0.112
Mof_C 	C 	0.5422	0.8594	0.2663	0.113
Mof_C 	C 	0.3431	0.6839	0.3291	-3.33
Mof_C 	C 	0.4899	0.6918	0.7676	-0.196
Mof_C 	C 	0.056	0.2448	0.5997	0.015
Mof_C 	C 	0.3355	0.9053	0.084	0.126
Mof_C 	C 	0.7832	0.2637	0.3177	1.639
Mof_C 	C 	0.556	0.2448	0.9003	0.018
Mof_C 	C 	0.3287	0.2746	0.412	0.007
Mof_C 	C 	0.0915	0.1316	0.8137	3.403
Mof_C 	C 	0.0913	0.8205	0.1911	-0.148
Mof_C 	C 	0.5347	0.4146	0.109	-0.077
Mof_C 	C 	0.5285	0.3072	0.1718	-0.047
Mof_C 	C 	0.0937	0.3836	0.4321	0.044
Mof_C 	C 	0.8052	0.3781	0.0322	0.02
Mof_C 	C 	0.0933	0.8706	0.8879	-0.006
Mof_C 	C 	0.1948	0.8781	0.9678	0.02
Mof_C 	C 	0.4883	0.2221	0.8679	-0.071
Mof_C 	C 	0.6569	0.1839	0.6709	-3.341
Mof_C 	C 	0.4296	0.2589	0.3259	0.138
Mof_C 	C 	0.9652	0.5502	0.2656	2.759
Mof_C 	C 	0.9823	0.1528	0.2171	0.139
Mof_C 	C 	0.5933	0.8706	0.6121	-0.006
Mof_C 	C 	0.7926	0.2451	0.8834	0.05
Mof_C 	C 	0.4605	0.6636	0.0146	0.038
Mof_C 	C 	0.4492	0.1644	0.8953	0.004
Mof_C 	C 	0.8431	0.6839	0.1709	-3.338
Mof_C 	C 	0.5711	0.0522	0.2899	0.14
Mof_C 	C 	0.2204	0.1273	0.4251	0.112
Mof_C 	C 	0.8661	0.4081	0.064	-0.098
Mof_C 	C 	0.0386	0.7569	0.3054	0.111
Mof_C 	C 	0.2796	0.6273	0.9251	0.112
Mof_C 	C 	0.4289	0.5522	0.7101	0.132
Mof_C 	C 	0.236	0.4432	0.2745	-3.057
Mof_C 	C 	0.3394	0.9545	0.7449	3.018
Mof_C 	C 	0.2596	0.6488	0.7392	0.727
Mof_C 	C 	0.3232	0.141	0.6782	-0.005
Mof_C 	C 	0.661	0.2495	0.7114	2.965
Mof_C 	C 	0.9733	0.1374	0.5436	-0.085
Mof_C 	C 	0.8394	0.9545	0.7551	3.014
Mof_C 	C 	0.5654	0.6889	0.6687	-0.18
Mof_C 	C 	0.9578	0.3594	0.7663	0.114
Mof_C 	C 	0.0508	0.6644	0.3953	0.002
Mof_C 	C 	0.2404	0.1488	0.2392	0.731
Mof_C 	C 	0.7596	0.6488	0.7608	0.727
Mof_C 	C 	0.5101	0.1918	0.2324	-0.197
Mof_C 	C 	0.4157	0.4812	0.7139	-0.122
Mof_C 	C 	0.0843	0.9812	0.2139	-0.132
Mof_C 	C 	0.2605	0.8154	0.7276	-2.224
Mof_C 	C 	0.4733	0.1374	0.9564	-0.088
Mof_C 	C 	0.764	0.9432	0.7255	-3.049
Mof_C 	C 	0.944	0.7448	0.4003	0.016
Mof_C 	C 	0.7703	0.8674	0.2279	1.505
Mof_C 	C 	0.9172	0.7825	0.6268	0.027
Mof_C 	C 	0.8287	0.2746	0.088	0.007
Mof_C 	C 	0.0267	0.6374	0.4564	-0.087
Mof_C 	C 	0.4943	0.0745	0.2855	-0.069
Mof_C 	C 	0.9605	0.6636	0.4854	0.036
Mof_C 	C 	0.4993	0.7611	0.7722	0.14
Mof_C 	C 	0.1606	0.4545	0.2449	3.023
Mof_C 	C 	0.9067	0.3706	0.1121	-0.006
Mof_C 	C 	0.6339	0.9081	0.564	-0.098
Mof_C 	C 	0.0989	0.1058	0.745	-3.418
Mof_C 	C 	0.5057	0.5745	0.7145	-0.063
Mof_C 	C 	0.1776	0.425	0.7894	-0.992
Mof_C 	C 	0.5386	0.7569	0.1946	0.112
Mof_C 	C 	0.5178	0.8256	0.2087	-0.137
Mof_C 	C 	0.5937	0.3836	0.0679	0.044
Mof_C 	C 	0.264	0.9432	0.7745	-3.051
Mof_C 	C 	0.9296	0.2589	0.1741	0.139
Mof_C 	C 	0.4063	0.8836	0.9321	0.044
Mof_C 	C 	0.9511	0.9573	0.2192	0.037
Mof_C 	C 	0.9948	0.8724	0.6635	0.028
Mof_C 	C 	0.9063	0.8836	0.5679	0.043
Mof_C 	C 	0.8232	0.141	0.8218	-0.005
Mof_C 	C 	0.5704	0.7589	0.6741	0.138
Mof_C 	C 	0.7646	0.6428	0.4134	0.069
Mof_C 	C 	0.7247	0.6054	0.3615	-0.118
Mof_C 	C 	0.3898	0.3034	0.3762	-0.043
Mof_C 	C 	0.0117	0.7221	0.3679	-0.069
Mof_C 	C 	0.2718	0.3887	0.2278	2.41
Mof_C 	C 	0.1641	0.7127	0.1652	-0.038
Mof_C 	C 	0.0007	0.2611	0.2722	0.141
Mof_C 	C 	0.9653	0.9146	0.609	-0.076
Mof_C 	C 	0.7074	0.7451	0.3834	0.05
Mof_C 	C 	0.7297	0.3674	0.7279	1.507
Mof_C 	C 	0.7718	0.3887	0.2722	2.409
Mof_C 	C 	0.4743	0.4328	0.7222	-0.012
Mof_C 	C 	0.5508	0.6644	0.1047	0.004
Mof_C 	C 	0.0052	0.3724	0.3365	0.031
Mof_C 	C 	0.1569	0.1839	0.8291	-3.379
Mof_C 	C 	0.4511	0.9573	0.2808	0.043
Mof_C 	C 	0.5989	0.1058	0.755	-3.383
Mof_C 	C 	0.4822	0.3256	0.7913	-0.138
Mof_C 	C 	0.7354	0.1428	0.9134	0.069
Mof_C 	C 	0.6713	0.7746	0.588	0.007
Mof_C 	C 	0.8035	0.5844	0.7791	-0.439
Mof_C 	C 	0.7753	0.1054	0.8615	-0.117
Mof_C 	C 	0.89	0.2544	0.7893	0.135
Mof_C 	C 	0.5913	0.8205	0.3089	-0.149
Mof_C 	C 	0.2074	0.7451	0.1166	0.05
Mof_C 	C 	0.2525	0.6929	0.6733	-1.412
Mof_C 	C 	0.5635	0.526	0.7154	-0.057
Mof_C 	C 	0.5007	0.2611	0.2278	0.141
Mof_C 	C 	0.4653	0.9146	0.891	-0.077
Mof_C 	C 	0.9346	0.1889	0.1687	-0.182
Mof_C 	C 	0.1339	0.9081	0.936	-0.098
Mof_C 	C 	0.3052	0.3781	0.4678	0.02
Mof_C 	C 	0.9085	0.6316	0.1863	3.36
Mof_C 	C 	0.4823	0.1528	0.2829	0.138
Mof_C 	C 	0.39	0.2544	0.7107	0.135
Mof_C 	C 	0.2247	0.6054	0.1385	-0.117
Mof_C 	C 	0.5348	0.0502	0.7656	2.761
Mof_C 	C 	0.5843	0.9812	0.2861	-0.132
Mof_C 	C 	0.2794	0.7968	0.313	-2.476
Mof_S 	S 	0.27142	0.05495	0.40611	-0.087
Mof_S 	S 	0.72858	0.55495	0.59389	-0.089
Mof_S 	S 	0.22858	0.55495	0.90611	-0.09
Mof_S 	S 	0.64759	0.48611	0.88576	-0.093
Mof_S 	S 	0.35241	0.98611	0.11424	-0.097
Mof_S 	S 	0.14759	0.48611	0.61424	-0.094
Mof_S 	S 	0.85241	0.98611	0.38576	-0.098
Mof_S 	S 	0.77142	0.05495	0.09389	-0.086
Mof_N 	N 	0.3878	0.8184	0.9245	-0.236
Mof_N 	N 	0.8084	0.6767	0.5607	-0.272
Mof_N 	N 	0.6122	0.3184	0.0755	-0.236
Mof_N 	N 	0.2442	0.2086	0.5776	-0.228
Mof_N 	N 	0.9139	0.221	0.7368	-0.145
Mof_N 	N 	0.8878	0.8184	0.5755	-0.236
Mof_N 	N 	0.5393	0.7979	0.7234	-0.124
Mof_N 	N 	0.5861	0.721	0.2368	-0.146
Mof_N 	N 	0.3272	0.8514	0.0657	-0.267
Mof_N 	N 	0.9201	0.7179	0.4566	-0.219
Mof_N 	N 	0.1916	0.1767	0.4393	-0.272
Mof_N 	N 	0.7442	0.2086	0.9224	-0.228
Mof_N 	N 	0.1728	0.3514	0.5657	-0.267
Mof_N 	N 	0.0799	0.2179	0.5434	-0.219
Mof_N 	N 	0.4139	0.221	0.7632	-0.146
Mof_N 	N 	0.9607	0.2979	0.2234	-0.124
Mof_N 	N 	0.284	0.3108	0.455	-0.226
Mof_N 	N 	0.7558	0.7086	0.4224	-0.228
Mof_N 	N 	0.0393	0.7979	0.7766	-0.123
Mof_N 	N 	0.6916	0.1767	0.0607	-0.272
Mof_N 	N 	0.216	0.8108	0.955	-0.226
Mof_N 	N 	0.5799	0.2179	0.9566	-0.219
Mof_N 	N 	0.2558	0.7086	0.0776	-0.228
Mof_N 	N 	0.4607	0.2979	0.2766	-0.124
Mof_N 	N 	0.4201	0.7179	0.0434	-0.219
Mof_N 	N 	0.6728	0.3514	0.9343	-0.267
Mof_N 	N 	0.0861	0.721	0.2632	-0.145
Mof_N 	N 	0.1122	0.3184	0.4245	-0.236
Mof_N 	N 	0.716	0.8108	0.545	-0.226
Mof_N 	N 	0.3084	0.6767	0.9393	-0.272
Mof_N 	N 	0.784	0.3108	0.045	-0.226
Mof_N 	N 	0.8272	0.8514	0.4343	-0.267
Mof_O 	O 	0.6222	0.102	0.2931	-0.147
Mof_O 	O 	0.3975	0.9065	0.2732	0.021
Mof_O 	O 	0.8975	0.9065	0.2268	0.022
Mof_O 	O 	0.8778	0.602	0.7931	-0.146
Mof_O 	O 	0.6025	0.4065	0.7268	0.02
Mof_O 	O 	0.1025	0.4065	0.7732	0.024
Mof_O 	O 	0.3778	0.602	0.7069	-0.146
Mof_O 	O 	0.1222	0.102	0.2069	-0.147
_end
