data_functionalizedCrystal
_audit_creation_method	'EQeq! by Chris Wilmer'
_symmetry_space_group_name_H-M	'P1'
_symmetry_Int_Tables_number	1
_symmetry_cell_setting	triclinic
loop_
_symmetry_equiv_pos_as_xyz
  x,y,z
_cell_length_a	13.857
_cell_length_b	13.857
_cell_length_c	17.925
_cell_angle_alpha	90
_cell_angle_beta	90
_cell_angle_gamma	120
loop_
_atom_site_label
_atom_site_type_symbol
_atom_site_fract_x
_atom_site_fract_y
_atom_site_fract_z
_atom_site_charge
Mof_O 	O 	0.6497	0.5059	0.3324	-0.416
Mof_C 	C 	0.5987	0.5698	0.466	-0.013
Mof_H 	H 	0.6661	0.6188	0.4433	0.034
Mof_O 	O 	0.4941	0.1438	0.3324	-0.387
Mof_C 	C 	0.4302	0.0289	0.466	-0.671
Mof_H 	H 	0.3812	0.0473	0.4433	0.201
Mof_O 	O 	0.8562	0.3503	0.3324	-0.452
Mof_C 	C 	0.9711	0.4013	0.466	0.636
Mof_H 	H 	0.9527	0.3339	0.4433	-0.175
Mof_O 	O 	0.3503	0.4941	0.8324	-0.422
Mof_C 	C 	0.4013	0.4302	0.966	-0.02
Mof_H 	H 	0.3339	0.3812	0.9433	0.005
Mof_O 	O 	0.5059	0.8562	0.8324	-0.448
Mof_C 	C 	0.5698	0.9711	0.966	0.625
Mof_H 	H 	0.6188	0.9527	0.9433	-0.159
Mof_O 	O 	0.1438	0.6497	0.8324	-0.384
Mof_C 	C 	0.0289	0.5987	0.966	-0.652
Mof_H 	H 	0.0473	0.6661	0.9433	0.213
Mof_O 	O 	0.5059	0.6497	0.6676	-0.415
Mof_C 	C 	0.5698	0.5987	0.534	-0.012
Mof_H 	H 	0.6188	0.6661	0.5567	0.034
Mof_O 	O 	0.1438	0.4941	0.6676	-0.387
Mof_C 	C 	0.0289	0.4302	0.534	-0.671
Mof_H 	H 	0.0473	0.3812	0.5567	0.201
Mof_O 	O 	0.3503	0.8562	0.6676	-0.452
Mof_C 	C 	0.4013	0.9711	0.534	0.636
Mof_H 	H 	0.3339	0.9527	0.5567	-0.175
Mof_O 	O 	0.4941	0.3503	0.1676	-0.422
Mof_C 	C 	0.4302	0.4013	0.034	-0.02
Mof_H 	H 	0.3812	0.3339	0.0567	0.005
Mof_O 	O 	0.8562	0.5059	0.1676	-0.448
Mof_C 	C 	0.9711	0.5698	0.034	0.625
Mof_H 	H 	0.9527	0.6188	0.0567	-0.159
Mof_O 	O 	0.6497	0.1438	0.1676	-0.384
Mof_C 	C 	0.5987	0.0289	0.034	-0.652
Mof_H 	H 	0.6661	0.0473	0.0567	0.213
Mof_O 	O 	0.3503	0.4941	0.6676	-0.422
Mof_C 	C 	0.4013	0.4302	0.534	-0.02
Mof_H 	H 	0.3339	0.3812	0.5567	0.004
Mof_O 	O 	0.5059	0.8562	0.6676	-0.449
Mof_C 	C 	0.5698	0.9711	0.534	0.634
Mof_H 	H 	0.6188	0.9527	0.5567	-0.161
Mof_O 	O 	0.1438	0.6497	0.6676	-0.383
Mof_C 	C 	0.0289	0.5987	0.534	-0.662
Mof_H 	H 	0.0473	0.6661	0.5567	0.216
Mof_O 	O 	0.6497	0.5059	0.1676	-0.415
Mof_C 	C 	0.5987	0.5698	0.034	-0.013
Mof_H 	H 	0.6661	0.6188	0.0567	0.034
Mof_O 	O 	0.4941	0.1438	0.1676	-0.388
Mof_C 	C 	0.4302	0.0289	0.034	-0.663
Mof_H 	H 	0.3812	0.0473	0.0567	0.199
Mof_O 	O 	0.8562	0.3503	0.1676	-0.451
Mof_C 	C 	0.9711	0.4013	0.034	0.628
Mof_H 	H 	0.9527	0.3339	0.0567	-0.173
Mof_O 	O 	0.4941	0.3503	0.3324	-0.422
Mof_C 	C 	0.4302	0.4013	0.466	-0.02
Mof_H 	H 	0.3812	0.3339	0.4433	0.004
Mof_O 	O 	0.8562	0.5059	0.3324	-0.449
Mof_C 	C 	0.9711	0.5698	0.466	0.634
Mof_H 	H 	0.9527	0.6188	0.4433	-0.161
Mof_O 	O 	0.6497	0.1438	0.3324	-0.383
Mof_C 	C 	0.5987	0.0289	0.466	-0.662
Mof_H 	H 	0.6661	0.0473	0.4433	0.216
Mof_O 	O 	0.5059	0.6497	0.8324	-0.415
Mof_C 	C 	0.5698	0.5987	0.966	-0.013
Mof_H 	H 	0.6188	0.6661	0.9433	0.034
Mof_O 	O 	0.1438	0.4941	0.8324	-0.388
Mof_C 	C 	0.0289	0.4302	0.966	-0.663
Mof_H 	H 	0.0473	0.3812	0.9433	0.199
Mof_O 	O 	0.3503	0.8562	0.8324	-0.451
Mof_C 	C 	0.4013	0.9711	0.966	0.628
Mof_H 	H 	0.3339	0.9527	0.9433	-0.173
Mof_Fe	Fe	0.7467	0.4934	0.25	0.999
Mof_N 	N 	0.83705	0.6741	0.25	-0.189
Mof_Fe	Fe	0.5066	0.2533	0.25	0.954
Mof_N 	N 	0.3259	0.16295	0.25	-0.199
Mof_Fe	Fe	0.7467	0.2533	0.25	0.977
Mof_N 	N 	0.83705	0.16295	0.25	-0.194
Mof_Fe	Fe	0.2533	0.5066	0.75	0.954
Mof_N 	N 	0.16295	0.3259	0.75	-0.199
Mof_Fe	Fe	0.4934	0.7467	0.75	0.999
Mof_N 	N 	0.6741	0.83705	0.75	-0.189
Mof_Fe	Fe	0.2533	0.7467	0.75	0.977
Mof_N 	N 	0.16295	0.83705	0.75	-0.194
Mof_O 	O 	0.66667	0.33333	0.25	-0.538
Mof_O 	O 	0.33333	0.66667	0.75	-0.538
Mof_C 	C 	0.5616	0.4384	0.3591	0.446
Mof_C 	C 	0.5289	0.4711	0.4331	-0.105
Mof_C 	C 	0.5616	0.1232	0.3591	0.275
Mof_C 	C 	0.5289	0.0578	0.4331	0.328
Mof_C 	C 	0.8768	0.4384	0.3591	0.617
Mof_C 	C 	0.9422	0.4711	0.4331	-0.536
Mof_C 	C 	0.4384	0.5616	0.8591	0.446
Mof_C 	C 	0.4711	0.5289	0.9331	-0.105
Mof_C 	C 	0.4384	0.8768	0.8591	0.614
Mof_C 	C 	0.4711	0.9422	0.9331	-0.53
Mof_C 	C 	0.1232	0.5616	0.8591	0.277
Mof_C 	C 	0.0578	0.5289	0.9331	0.322
Mof_C 	C 	0.4384	0.5616	0.6409	0.446
Mof_C 	C 	0.4711	0.5289	0.5669	-0.105
Mof_C 	C 	0.1232	0.5616	0.6409	0.275
Mof_C 	C 	0.0578	0.5289	0.5669	0.328
Mof_C 	C 	0.4384	0.8768	0.6409	0.617
Mof_C 	C 	0.4711	0.9422	0.5669	-0.536
Mof_C 	C 	0.5616	0.4384	0.1409	0.446
Mof_C 	C 	0.5289	0.4711	0.0669	-0.105
Mof_C 	C 	0.8768	0.4384	0.1409	0.614
Mof_C 	C 	0.9422	0.4711	0.0669	-0.53
Mof_C 	C 	0.5616	0.1232	0.1409	0.277
Mof_C 	C 	0.5289	0.0578	0.0669	0.322
Mof_C 	C 	0.8706	0.7412	0.3061	0.128
Mof_N 	N 	0.9273	0.8546	0.291	-0.271
Mof_H 	H 	0.85735	0.7147	0.3549	-0.028
Mof_C 	C 	0.2588	0.1294	0.3061	0.082
Mof_N 	N 	0.1454	0.0727	0.291	-0.4
Mof_H 	H 	0.2853	0.14265	0.3549	-0.08
Mof_C 	C 	0.8706	0.1294	0.3061	0.107
Mof_N 	N 	0.9273	0.0727	0.291	-0.329
Mof_H 	H 	0.85735	0.14265	0.3549	-0.052
Mof_C 	C 	0.1294	0.2588	0.8061	0.082
Mof_N 	N 	0.0727	0.1454	0.791	-0.4
Mof_H 	H 	0.14265	0.2853	0.8549	-0.08
Mof_C 	C 	0.7412	0.8706	0.8061	0.128
Mof_N 	N 	0.8546	0.9273	0.791	-0.271
Mof_H 	H 	0.7147	0.85735	0.8549	-0.028
Mof_C 	C 	0.1294	0.8706	0.8061	0.107
Mof_N 	N 	0.0727	0.9273	0.791	-0.329
Mof_H 	H 	0.14265	0.85735	0.8549	-0.052
Mof_C 	C 	0.7412	0.8706	0.6939	0.128
Mof_N 	N 	0.8546	0.9273	0.709	-0.271
Mof_H 	H 	0.7147	0.85735	0.6451	-0.028
Mof_C 	C 	0.1294	0.2588	0.6939	0.082
Mof_N 	N 	0.0727	0.1454	0.709	-0.4
Mof_H 	H 	0.14265	0.2853	0.6451	-0.08
Mof_C 	C 	0.1294	0.8706	0.6939	0.107
Mof_N 	N 	0.0727	0.9273	0.709	-0.329
Mof_H 	H 	0.14265	0.85735	0.6451	-0.052
Mof_C 	C 	0.2588	0.1294	0.1939	0.082
Mof_N 	N 	0.1454	0.0727	0.209	-0.4
Mof_H 	H 	0.2853	0.14265	0.1451	-0.08
Mof_C 	C 	0.8706	0.7412	0.1939	0.128
Mof_N 	N 	0.9273	0.8546	0.209	-0.271
Mof_H 	H 	0.85735	0.7147	0.1451	-0.028
Mof_C 	C 	0.8706	0.1294	0.1939	0.107
Mof_N 	N 	0.9273	0.0727	0.209	-0.329
Mof_H 	H 	0.85735	0.14265	0.1451	-0.052
Mof_Mg	Mg	-8.46881e-33	0	0.3552	1.398
Mof_Mg	Mg	8.46881e-33	0	0.8552	1.398
Mof_Mg	Mg	-1.69376e-32	-1.69376e-32	0.6448	1.398
Mof_Mg	Mg	-2.1172e-33	0	0.1448	1.398
_end
