data_functionalizedCrystal
_audit_creation_method	'EQeq! by Chris Wilmer'
_symmetry_space_group_name_H-M	'P1'
_symmetry_Int_Tables_number	1
_symmetry_cell_setting	triclinic
loop_
_symmetry_equiv_pos_as_xyz
  x,y,z
_cell_length_a	14.7883
_cell_length_b	19.4401
_cell_length_c	19.3386
_cell_angle_alpha	90
_cell_angle_beta	99.722
_cell_angle_gamma	90
loop_
_atom_site_label
_atom_site_type_symbol
_atom_site_fract_x
_atom_site_fract_y
_atom_site_fract_z
_atom_site_charge
Mof_C 	C 	0.0131	0.4309	0.3015	0.41
Mof_C 	C 	0.1205	0.5326	0.4888	0.402
Mof_C 	C 	0.3188	0.5206	0.4242	0.3
Mof_C 	C 	0.9697	0.1509	0.1991	0.382
Mof_C 	C 	0.0692	0.3253	0.2489	0.007
Mof_H 	H 	0.1237	0.3486	0.2472	0.044
Mof_C 	C 	0.9982	0.3586	0.2745	-0.141
Mof_C 	C 	0.4112	0.5113	0.4627	-0.095
Mof_C 	C 	0.437	0.4491	0.4964	-0.089
Mof_H 	H 	0.393	0.4146	0.4939	0.074
Mof_C 	C 	0.9789	0.2229	0.2266	-0.122
Mof_C 	C 	0.3992	0.2225	0.3623	-0.009
Mof_H 	H 	0.3743	0.1803	0.3719	0.065
Mof_C 	C 	0.059	0.2581	0.2262	-0.009
Mof_H 	H 	0.1076	0.2362	0.2103	0.049
Mof_C 	C 	0.4773	0.5646	0.4671	0.152
Mof_C 	C 	0.9067	0.2551	0.2527	0.091
Mof_C 	C 	0.6465	0.4928	0.3335	0.126
Mof_C 	C 	0.5231	0.2873	0.3332	-0.004
Mof_H 	H 	0.5817	0.2894	0.3218	0.021
Mof_C 	C 	0.5066	0.4181	0.3224	0.218
Mof_C 	C 	0.1391	0.3725	0.4989	-0.049
Mof_H 	H 	0.1863	0.4045	0.5081	0.045
Mof_C 	C 	0.9178	0.3236	0.2764	0.118
Mof_C 	C 	0.3835	0.3452	0.3512	-0.016
Mof_H 	H 	0.3488	0.385	0.3522	0.055
Mof_C 	C 	0.0035	0.3288	0.5205	0.027
Mof_H 	H 	0.9558	0.329	0.5462	0.021
Mof_C 	C 	0.7413	0.4926	0.3541	-0.046
Mof_H 	H 	0.7689	0.4517	0.3712	0.04
Mof_C 	C 	0.5368	0.1578	0.3479	0.228
Mof_C 	C 	0.474	0.3478	0.3365	-0.057
Mof_C 	C 	0.3484	0.2812	0.3642	-0.056
Mof_C 	C 	0.7329	0.9915	0.35	-0.016
Mof_H 	H 	0.7442	0.9572	0.3839	0.046
Mof_C 	C 	0.6567	0.0919	0.3067	0.134
Mof_C 	C 	0.7741	0.9891	0.293	0.029
Mof_H 	H 	0.8147	0.9534	0.2891	0.027
Mof_C 	C 	0.4873	0.2247	0.3462	-0.065
Mof_C 	C 	0.7016	0.0863	0.2504	-0.05
Mof_H 	H 	0.6914	0.1198	0.2157	0.042
Mof_C 	C 	0.6739	0.0447	0.3582	-0.118
Mof_H 	H 	0.6468	0.0479	0.3981	0.103
Mof_C 	C 	0.7537	0.6055	0.3261	0.011
Mof_H 	H 	0.7895	0.6443	0.3228	0.029
Mof_C 	C 	0.6055	0.5532	0.3098	-0.119
Mof_H 	H 	0.5421	0.5558	0.2968	0.103
Mof_C 	C 	0.6592	0.6102	0.3052	-0.012
Mof_H 	H 	0.6325	0.6515	0.2884	0.041
Mof_C 	C 	0.1422	0.3245	0.4457	0.128
Mof_C 	C 	0.0695	0.2795	0.4282	-0.108
Mof_H 	H 	0.0674	0.2489	0.391	0.094
Mof_C 	C 	2.67984e-33	0.2817	0.4676	-0.023
Mof_H 	H 	0.951	0.2512	0.4583	0.044
Mof_C 	C 	0.2576	0.2717	0.3858	0.22
Mof_Co	Co	0.94135	0.54424	0.38753	1.18
Mof_Co	Co	0.1656	0.53489	0.3434	1.185
Mof_H 	H 	0.196	0.537	0.499	-0.069
Mof_N 	N 	0.0718	0.3751	0.5376	-0.189
Mof_N 	N 	0.2185	0.3273	0.4106	-0.246
Mof_H 	H 	0.2416	0.367	0.4045	0.156
Mof_N 	N 	0.795	0.5469	0.3509	-0.189
Mof_N 	N 	0.5998	0.4309	0.3403	-0.235
Mof_H 	H 	0.6332	0.3968	0.3577	0.127
Mof_N 	N 	0.7593	0.0349	0.243	-0.186
Mof_N 	N 	0.6007	0.1504	0.3086	-0.248
Mof_H 	H 	0.6089	0.1841	0.2817	0.127
Mof_N 	N 	0.4583	0.6292	0.4401	-0.323
Mof_H 	H 	0.4999	0.6606	0.4462	0.157
Mof_H 	H 	0.4047	0.6385	0.4171	0.18
Mof_N 	N 	0.8448	0.3507	0.2981	-0.308
Mof_H 	H 	0.8462	0.3928	0.3121	0.175
Mof_H 	H 	0.7964	0.3263	0.2981	0.137
Mof_N 	N 	0.8256	0.2288	0.2646	-0.296
Mof_H 	H 	0.8128	0.1862	0.2558	0.164
Mof_H 	H 	0.7871	0.2548	0.281	0.131
Mof_O 	O 	0.5178	0.1107	0.3858	-0.224
Mof_O 	O 	0.2232	0.2138	0.3877	-0.223
Mof_O 	O 	0.4534	0.4633	0.2972	-0.225
Mof_O 	O 	0.0385	0.12184	0.18018	-0.433
Mof_O 	O 	0.8902	0.12408	0.1947	-0.441
Mof_O 	O 	0.948	0.46199	0.32108	-0.438
Mof_O 	O 	0.0914	0.45649	0.2994	-0.455
Mof_O 	O 	0.2657	0.46852	0.40791	-0.374
Mof_O 	O 	0.288	0.58022	0.40466	-0.373
Mof_O 	O 	0.0854	0.54014	0.426	-0.532
Mof_O 	O 	0.0806	0.53181	0.54047	-0.43
Mof_C 	C 	0.9869	0.9309	0.1985	0.402
Mof_C 	C 	0.8795	0.0326	0.0112	0.393
Mof_C 	C 	0.6812	0.0206	0.0758	0.296
Mof_C 	C 	0.0303	0.6509	0.3009	0.383
Mof_C 	C 	0.9308	0.8253	0.2511	0
Mof_H 	H 	0.8763	0.8486	0.2528	0.045
Mof_C 	C 	0.0018	0.8586	0.2255	-0.134
Mof_C 	C 	0.5888	0.0113	0.0373	-0.101
Mof_C 	C 	0.563	0.9491	0.0036	-0.076
Mof_H 	H 	0.607	0.9146	0.0061	0.071
Mof_C 	C 	0.0211	0.7229	0.2734	-0.122
Mof_C 	C 	0.6008	0.7225	0.1377	-0.008
Mof_H 	H 	0.6257	0.6803	0.1281	0.065
Mof_C 	C 	0.941	0.7581	0.2738	-0.008
Mof_H 	H 	0.8924	0.7362	0.2897	0.048
Mof_C 	C 	0.5227	0.0646	0.0329	0.145
Mof_C 	C 	0.0933	0.7551	0.2473	0.092
Mof_C 	C 	0.3535	0.9928	0.1665	0.131
Mof_C 	C 	0.4769	0.7873	0.1668	-0.004
Mof_H 	H 	0.4183	0.7894	0.1782	0.021
Mof_C 	C 	0.4934	0.9181	0.1776	0.218
Mof_C 	C 	0.8609	0.8725	0.0011	-0.04
Mof_H 	H 	0.8137	0.9045	0.9919	0.039
Mof_C 	C 	0.0822	0.8236	0.2236	0.115
Mof_C 	C 	0.6165	0.8452	0.1488	-0.016
Mof_H 	H 	0.6512	0.885	0.1478	0.055
Mof_C 	C 	0.9965	0.8288	0.9795	0.011
Mof_H 	H 	0.0442	0.829	0.9538	0.027
Mof_C 	C 	0.2587	0.9926	0.1459	-0.043
Mof_H 	H 	0.2311	0.9517	0.1288	0.04
Mof_C 	C 	0.4632	0.6578	0.1521	0.228
Mof_C 	C 	0.526	0.8478	0.1635	-0.056
Mof_C 	C 	0.6516	0.7812	0.1358	-0.056
Mof_C 	C 	0.2671	0.4915	0.15	-0.017
Mof_H 	H 	0.2558	0.4572	0.1161	0.046
Mof_C 	C 	0.3433	0.5919	0.1933	0.134
Mof_C 	C 	0.2259	0.4891	0.207	0.027
Mof_H 	H 	0.1853	0.4534	0.2109	0.027
Mof_C 	C 	0.5127	0.7247	0.1538	-0.065
Mof_C 	C 	0.2984	0.5863	0.2496	-0.05
Mof_H 	H 	0.3086	0.6198	0.2843	0.043
Mof_C 	C 	0.3261	0.5447	0.1418	-0.116
Mof_H 	H 	0.3532	0.5479	0.1019	0.102
Mof_C 	C 	0.2463	0.1055	0.1739	0.008
Mof_H 	H 	0.2105	0.1443	0.1772	0.03
Mof_C 	C 	0.3945	0.0532	0.1902	-0.127
Mof_H 	H 	0.4579	0.0558	0.2032	0.105
Mof_C 	C 	0.3408	0.1102	0.1948	-0.009
Mof_H 	H 	0.3675	0.1515	0.2116	0.039
Mof_C 	C 	0.8578	0.8245	0.0543	0.128
Mof_C 	C 	0.9305	0.7795	0.0718	-0.117
Mof_H 	H 	0.9326	0.7489	0.109	0.097
Mof_C 	C 	1.85686e-34	0.7817	0.0324	-0.006
Mof_H 	H 	0.049	0.7512	0.0417	0.039
Mof_C 	C 	0.7424	0.7717	0.1142	0.22
Mof_Co	Co	0.05865	0.04424	0.11247	1.178
Mof_Co	Co	0.8344	0.03489	0.1566	1.183
Mof_H 	H 	0.804	0.037	0.001	-0.069
Mof_N 	N 	0.9282	0.8751	0.9624	-0.19
Mof_N 	N 	0.7815	0.8273	0.0894	-0.246
Mof_H 	H 	0.7584	0.867	0.0955	0.157
Mof_N 	N 	0.205	0.0469	0.1491	-0.191
Mof_N 	N 	0.4002	0.9309	0.1597	-0.235
Mof_H 	H 	0.3668	0.8968	0.1423	0.128
Mof_N 	N 	0.2407	0.5349	0.257	-0.185
Mof_N 	N 	0.3993	0.6504	0.1914	-0.248
Mof_H 	H 	0.3911	0.6841	0.2183	0.127
Mof_N 	N 	0.5417	0.1292	0.0599	-0.321
Mof_H 	H 	0.5001	0.1606	0.0538	0.155
Mof_H 	H 	0.5953	0.1385	0.0829	0.179
Mof_N 	N 	0.1552	0.8507	0.2019	-0.307
Mof_H 	H 	0.1538	0.8928	0.1879	0.175
Mof_H 	H 	0.2036	0.8263	0.2019	0.137
Mof_N 	N 	0.1744	0.7288	0.2354	-0.296
Mof_H 	H 	0.1872	0.6862	0.2442	0.164
Mof_H 	H 	0.2129	0.7548	0.219	0.132
Mof_O 	O 	0.4822	0.6107	0.1142	-0.224
Mof_O 	O 	0.7768	0.7138	0.1123	-0.223
Mof_O 	O 	0.5466	0.9633	0.2028	-0.223
Mof_O 	O 	0.9615	0.62184	0.31982	-0.433
Mof_O 	O 	0.1098	0.62408	0.3053	-0.441
Mof_O 	O 	0.052	0.96199	0.17892	-0.432
Mof_O 	O 	0.9086	0.95649	0.2006	-0.452
Mof_O 	O 	0.7343	0.96852	0.09209	-0.371
Mof_O 	O 	0.712	0.08022	0.09534	-0.372
Mof_O 	O 	0.9146	0.04014	0.074	-0.532
Mof_O 	O 	0.9194	0.03181	0.95953	-0.423
Mof_C 	C 	0.9869	0.5691	0.6985	0.406
Mof_C 	C 	0.8795	0.4674	0.5112	0.401
Mof_C 	C 	0.6812	0.4794	0.5758	0.299
Mof_C 	C 	0.0303	0.8491	0.8009	0.383
Mof_C 	C 	0.9308	0.6747	0.7511	0.003
Mof_H 	H 	0.8763	0.6514	0.7528	0.044
Mof_C 	C 	0.0018	0.6414	0.7255	-0.138
Mof_C 	C 	0.5888	0.4887	0.5373	-0.096
Mof_C 	C 	0.563	0.5509	0.5036	-0.089
Mof_H 	H 	0.607	0.5854	0.5061	0.074
Mof_C 	C 	0.0211	0.7771	0.7734	-0.121
Mof_C 	C 	0.6008	0.7775	0.6377	-0.008
Mof_H 	H 	0.6257	0.8197	0.6281	0.065
Mof_C 	C 	0.941	0.7419	0.7738	-0.009
Mof_H 	H 	0.8924	0.7638	0.7897	0.049
Mof_C 	C 	0.5227	0.4354	0.5329	0.152
Mof_C 	C 	0.0933	0.7449	0.7473	0.091
Mof_C 	C 	0.3535	0.5072	0.6665	0.126
Mof_C 	C 	0.4769	0.7127	0.6668	-0.004
Mof_H 	H 	0.4183	0.7106	0.6782	0.021
Mof_C 	C 	0.4934	0.5819	0.6776	0.218
Mof_C 	C 	0.8609	0.6275	0.5011	-0.051
Mof_H 	H 	0.8137	0.5955	0.4919	0.045
Mof_C 	C 	0.0822	0.6764	0.7236	0.117
Mof_C 	C 	0.6165	0.6548	0.6488	-0.016
Mof_H 	H 	0.6512	0.615	0.6478	0.055
Mof_C 	C 	0.9965	0.6712	0.4795	0.019
Mof_H 	H 	0.0442	0.671	0.4538	0.025
Mof_C 	C 	0.2587	0.5074	0.6459	-0.046
Mof_H 	H 	0.2311	0.5483	0.6288	0.04
Mof_C 	C 	0.4632	0.8422	0.6521	0.228
Mof_C 	C 	0.526	0.6522	0.6635	-0.057
Mof_C 	C 	0.6516	0.7188	0.6358	-0.056
Mof_C 	C 	0.2671	0.0085	0.65	-0.016
Mof_H 	H 	0.2558	0.0428	0.6161	0.046
Mof_C 	C 	0.3433	0.9081	0.6933	0.134
Mof_C 	C 	0.2259	0.0109	0.707	0.029
Mof_H 	H 	0.1853	0.0466	0.7109	0.027
Mof_C 	C 	0.5127	0.7753	0.6538	-0.065
Mof_C 	C 	0.2984	0.9137	0.7496	-0.05
Mof_H 	H 	0.3086	0.8802	0.7843	0.043
Mof_C 	C 	0.3261	0.9553	0.6418	-0.118
Mof_H 	H 	0.3532	0.9521	0.6019	0.103
Mof_C 	C 	0.2463	0.3945	0.6739	0.011
Mof_H 	H 	0.2105	0.3557	0.6772	0.029
Mof_C 	C 	0.3945	0.4468	0.6902	-0.119
Mof_H 	H 	0.4579	0.4442	0.7032	0.103
Mof_C 	C 	0.3408	0.3898	0.6948	-0.012
Mof_H 	H 	0.3675	0.3485	0.7116	0.041
Mof_C 	C 	0.8578	0.6755	0.5543	0.13
Mof_C 	C 	0.9305	0.7205	0.5718	-0.114
Mof_H 	H 	0.9326	0.7511	0.609	0.096
Mof_C 	C 	3.05121e-33	0.7183	0.5324	-0.015
Mof_H 	H 	0.049	0.7488	0.5417	0.041
Mof_C 	C 	0.7424	0.7283	0.6142	0.22
Mof_Co	Co	0.05865	0.45576	0.61247	1.18
Mof_Co	Co	0.8344	0.46511	0.6566	1.184
Mof_H 	H 	0.804	0.463	0.501	-0.069
Mof_N 	N 	0.9282	0.6249	0.4624	-0.188
Mof_N 	N 	0.7815	0.6727	0.5894	-0.247
Mof_H 	H 	0.7584	0.633	0.5955	0.156
Mof_N 	N 	0.205	0.4531	0.6491	-0.189
Mof_N 	N 	0.4002	0.5691	0.6597	-0.235
Mof_H 	H 	0.3668	0.6032	0.6423	0.127
Mof_N 	N 	0.2407	0.9651	0.757	-0.186
Mof_N 	N 	0.3993	0.8496	0.6914	-0.248
Mof_H 	H 	0.3911	0.8159	0.7183	0.127
Mof_N 	N 	0.5417	0.3708	0.5599	-0.323
Mof_H 	H 	0.5001	0.3394	0.5538	0.157
Mof_H 	H 	0.5953	0.3615	0.5829	0.18
Mof_N 	N 	0.1552	0.6493	0.7019	-0.308
Mof_H 	H 	0.1538	0.6072	0.6879	0.175
Mof_H 	H 	0.2036	0.6737	0.7019	0.137
Mof_N 	N 	0.1744	0.7712	0.7354	-0.296
Mof_H 	H 	0.1872	0.8138	0.7442	0.164
Mof_H 	H 	0.2129	0.7452	0.719	0.131
Mof_O 	O 	0.4822	0.8893	0.6142	-0.224
Mof_O 	O 	0.7768	0.7862	0.6123	-0.223
Mof_O 	O 	0.5466	0.5367	0.7028	-0.225
Mof_O 	O 	0.9615	0.87816	0.81982	-0.434
Mof_O 	O 	0.1098	0.87592	0.8053	-0.442
Mof_O 	O 	0.052	0.53801	0.67892	-0.436
Mof_O 	O 	0.9086	0.54351	0.7006	-0.454
Mof_O 	O 	0.7343	0.53148	0.59209	-0.374
Mof_O 	O 	0.712	0.41978	0.59534	-0.373
Mof_O 	O 	0.9146	0.45986	0.574	-0.533
Mof_O 	O 	0.9194	0.46819	0.45953	-0.43
Mof_C 	C 	0.0131	0.0691	0.8015	0.405
Mof_C 	C 	0.1205	0.9674	0.9888	0.393
Mof_C 	C 	0.3188	0.9794	0.9242	0.296
Mof_C 	C 	0.9697	0.3491	0.6991	0.381
Mof_C 	C 	0.0692	0.1747	0.7489	0.003
Mof_H 	H 	0.1237	0.1514	0.7472	0.044
Mof_C 	C 	0.9982	0.1414	0.7745	-0.138
Mof_C 	C 	0.4112	0.9887	0.9627	-0.101
Mof_C 	C 	0.437	0.0509	0.9964	-0.075
Mof_H 	H 	0.393	0.0854	0.9939	0.071
Mof_C 	C 	0.9789	0.2771	0.7266	-0.122
Mof_C 	C 	0.3992	0.2775	0.8623	-0.009
Mof_H 	H 	0.3743	0.3197	0.8719	0.065
Mof_C 	C 	0.059	0.2419	0.7262	-0.008
Mof_H 	H 	0.1076	0.2638	0.7103	0.048
Mof_C 	C 	0.4773	0.9354	0.9671	0.145
Mof_C 	C 	0.9067	0.2449	0.7527	0.092
Mof_C 	C 	0.6465	0.0072	0.8335	0.131
Mof_C 	C 	0.5231	0.2127	0.8332	-0.004
Mof_H 	H 	0.5817	0.2106	0.8218	0.021
Mof_C 	C 	0.5066	0.0819	0.8224	0.218
Mof_C 	C 	0.1391	0.1275	0.9989	-0.037
Mof_H 	H 	0.1863	0.0955	0.0081	0.037
Mof_C 	C 	0.9178	0.1764	0.7764	0.116
Mof_C 	C 	0.3835	0.1548	0.8512	-0.016
Mof_H 	H 	0.3488	0.115	0.8522	0.055
Mof_C 	C 	0.0035	0.1712	0.0205	0.021
Mof_H 	H 	0.9558	0.171	0.0462	0.023
Mof_C 	C 	0.7413	0.0074	0.8541	-0.043
Mof_H 	H 	0.7689	0.0483	0.8712	0.04
Mof_C 	C 	0.5368	0.3422	0.8479	0.228
Mof_C 	C 	0.474	0.1522	0.8365	-0.056
Mof_C 	C 	0.3484	0.2188	0.8642	-0.056
Mof_C 	C 	0.7329	0.5085	0.85	-0.017
Mof_H 	H 	0.7442	0.5428	0.8839	0.046
Mof_C 	C 	0.6567	0.4081	0.8067	0.134
Mof_C 	C 	0.7741	0.5109	0.793	0.027
Mof_H 	H 	0.8147	0.5466	0.7891	0.027
Mof_C 	C 	0.4873	0.2753	0.8462	-0.065
Mof_C 	C 	0.7016	0.4137	0.7504	-0.05
Mof_H 	H 	0.6914	0.3802	0.7157	0.043
Mof_C 	C 	0.6739	0.4553	0.8582	-0.116
Mof_H 	H 	0.6468	0.4521	0.8981	0.102
Mof_C 	C 	0.7537	0.8945	0.8261	0.008
Mof_H 	H 	0.7895	0.8557	0.8228	0.03
Mof_C 	C 	0.6055	0.9468	0.8098	-0.127
Mof_H 	H 	0.5421	0.9442	0.7968	0.105
Mof_C 	C 	0.6592	0.8898	0.8052	-0.009
Mof_H 	H 	0.6325	0.8485	0.7884	0.039
Mof_C 	C 	0.1422	0.1755	0.9457	0.125
Mof_C 	C 	0.0695	0.2205	0.9282	-0.108
Mof_H 	H 	0.0674	0.2511	0.891	0.095
Mof_C 	C 	4.14936e-17	0.2183	0.9676	-0.019
Mof_H 	H 	0.951	0.2488	0.9583	0.043
Mof_C 	C 	0.2576	0.2283	0.8858	0.22
Mof_Co	Co	0.94135	0.95576	0.88753	1.178
Mof_Co	Co	0.1656	0.96511	0.8434	1.184
Mof_H 	H 	0.196	0.963	0.999	-0.069
Mof_N 	N 	0.0718	0.1249	0.0376	-0.192
Mof_N 	N 	0.2185	0.1727	0.9106	-0.245
Mof_H 	H 	0.2416	0.133	0.9045	0.156
Mof_N 	N 	0.795	0.9531	0.8509	-0.191
Mof_N 	N 	0.5998	0.0691	0.8403	-0.235
Mof_H 	H 	0.6332	0.1032	0.8577	0.128
Mof_N 	N 	0.7593	0.4651	0.743	-0.185
Mof_N 	N 	0.6007	0.3496	0.8086	-0.248
Mof_H 	H 	0.6089	0.3159	0.7817	0.127
Mof_N 	N 	0.4583	0.8708	0.9401	-0.321
Mof_H 	H 	0.4999	0.8394	0.9462	0.156
Mof_H 	H 	0.4047	0.8615	0.9171	0.179
Mof_N 	N 	0.8448	0.1493	0.7981	-0.308
Mof_H 	H 	0.8462	0.1072	0.8121	0.175
Mof_H 	H 	0.7964	0.1737	0.7981	0.137
Mof_N 	N 	0.8256	0.2712	0.7646	-0.296
Mof_H 	H 	0.8128	0.3138	0.7558	0.164
Mof_H 	H 	0.7871	0.2452	0.781	0.131
Mof_O 	O 	0.5178	0.3893	0.8858	-0.224
Mof_O 	O 	0.2232	0.2862	0.8877	-0.222
Mof_O 	O 	0.4534	0.0367	0.7972	-0.223
Mof_O 	O 	0.0385	0.37816	0.68018	-0.432
Mof_O 	O 	0.8902	0.37592	0.6947	-0.441
Mof_O 	O 	0.948	0.03801	0.82108	-0.434
Mof_O 	O 	0.0914	0.04351	0.7994	-0.453
Mof_O 	O 	0.2657	0.03148	0.90791	-0.37
Mof_O 	O 	0.288	0.91978	0.90466	-0.372
Mof_O 	O 	0.0854	0.95986	0.926	-0.531
Mof_O 	O 	0.0806	0.96819	0.04047	-0.423
_end
