data_functionalizedCrystal
_audit_creation_method	'EQeq! by Chris Wilmer'
_symmetry_space_group_name_H-M	'P1'
_symmetry_Int_Tables_number	1
_symmetry_cell_setting	triclinic
loop_
_symmetry_equiv_pos_as_xyz
  x,y,z
_cell_length_a	7.2443
_cell_length_b	13.8127
_cell_length_c	15.4746
_cell_angle_alpha	80.352
_cell_angle_beta	87.669
_cell_angle_gamma	89.842
loop_
_atom_site_label
_atom_site_type_symbol
_atom_site_fract_x
_atom_site_fract_y
_atom_site_fract_z
_atom_site_charge
Mof_Pt	Pt	0.00288	0.26061	0.46287	0.1
Mof_N 	N 	0.5082	0.5895	0.384	-0.214
Mof_N 	N 	0.6937	0.4189	0.461	-0.202
Mof_N 	N 	0.311	0.0999	0.4899	-0.203
Mof_N 	N 	0.6899	0.1005	0.4861	-0.202
Mof_N 	N 	0.4967	0.9932	0.63	-0.194
Mof_N 	N 	0.3125	0.4185	0.4625	-0.201
Mof_C 	C 	0.5147	0.5538	0.3068	0.116
Mof_H 	H 	0.5182	0.4861	0.3091	-0.012
Mof_C 	C 	0.5163	0.6122	0.227	-0.189
Mof_H 	H 	0.5202	0.5844	0.1762	0.099
Mof_C 	C 	0.5121	0.7149	0.2214	0.134
Mof_C 	C 	0.5075	0.7519	0.3002	-0.191
Mof_H 	H 	0.506	0.8194	0.2993	0.116
Mof_C 	C 	0.5052	0.689	0.3788	0.117
Mof_H 	H 	0.5015	0.7152	0.4305	-0.009
Mof_C 	C 	0.511	0.7783	0.1375	-0.059
Mof_C 	C 	0.5075	0.8261	0.066	0.022
Mof_C 	C 	0.5015	0.8763	0.9815	0.016
Mof_C 	C 	0.8082	0.3632	0.4549	0.044
Mof_C 	C 	0.6552	0.9855	0.6738	0.111
Mof_H 	H 	0.7669	0.9944	0.6416	0.001
Mof_C 	C 	0.6587	0.965	0.7643	-0.179
Mof_H 	H 	0.7707	0.9615	0.792	0.1
Mof_C 	C 	0.4935	0.9497	0.8136	0.13
Mof_C 	C 	0.3298	0.9632	0.77	-0.175
Mof_H 	H 	0.217	0.9579	0.8014	0.099
Mof_C 	C 	0.3359	0.9851	0.6781	0.107
Mof_H 	H 	0.2255	0.9943	0.6493	0.002
Mof_C 	C 	0.4971	0.9151	0.9066	-0.052
Mof_C 	C 	0.1966	0.158	0.4799	0.032
Mof_C 	C 	0.8055	0.1585	0.4772	0.032
Mof_C 	C 	0.1965	0.3628	0.457	0.041
Mof_Pt	Pt	0.99712	0.73939	0.53713	0.108
Mof_N 	N 	0.4918	0.4105	0.616	-0.211
Mof_N 	N 	0.3063	0.5811	0.539	-0.202
Mof_N 	N 	0.689	0.9001	0.5101	-0.181
Mof_N 	N 	0.3101	0.8995	0.5139	-0.181
Mof_N 	N 	0.5033	0.0068	0.37	-0.214
Mof_N 	N 	0.6875	0.5815	0.5375	-0.2
Mof_C 	C 	0.4853	0.4462	0.6932	0.111
Mof_H 	H 	0.4818	0.5139	0.6909	-0.01
Mof_C 	C 	0.4837	0.3878	0.773	-0.184
Mof_H 	H 	0.4798	0.4156	0.8238	0.096
Mof_C 	C 	0.4879	0.2851	0.7786	0.119
Mof_C 	C 	0.4925	0.2481	0.6998	-0.183
Mof_H 	H 	0.494	0.1806	0.7007	0.088
Mof_C 	C 	0.4948	0.311	0.6212	0.105
Mof_H 	H 	0.4985	0.2848	0.5695	-0.01
Mof_C 	C 	0.489	0.2217	0.8625	-0.067
Mof_C 	C 	0.4925	0.1739	0.934	-0
Mof_C 	C 	0.4985	0.1237	0.0185	0.004
Mof_C 	C 	0.1918	0.6368	0.5451	0.045
Mof_C 	C 	0.3448	0.0145	0.3262	0.099
Mof_H 	H 	0.2331	0.0056	0.3584	-0.018
Mof_C 	C 	0.3413	0.035	0.2357	-0.187
Mof_H 	H 	0.2293	0.0385	0.208	0.089
Mof_C 	C 	0.5065	0.0503	0.1864	0.119
Mof_C 	C 	0.6702	0.0368	0.23	-0.184
Mof_H 	H 	0.783	0.0421	0.1986	0.088
Mof_C 	C 	0.6641	0.0149	0.3219	0.095
Mof_H 	H 	0.7745	0.0057	0.3507	-0.016
Mof_C 	C 	0.5029	0.0849	0.0934	-0.072
Mof_C 	C 	0.8034	0.842	0.5201	0.046
Mof_C 	C 	0.1945	0.8415	0.5228	0.046
Mof_C 	C 	0.8035	0.6372	0.543	0.041
Mof_Fe	Fe	0.5	0.5	0.5	0.777
Mof_Fe	Fe	0.5	0	0.5	0.707
_end
