data_functionalizedCrystal
_audit_creation_method	'EQeq! by Chris Wilmer'
_symmetry_space_group_name_H-M	'P1'
_symmetry_Int_Tables_number	1
_symmetry_cell_setting	triclinic
loop_
_symmetry_equiv_pos_as_xyz
  x,y,z
_cell_length_a	48.3931
_cell_length_b	48.3931
_cell_length_c	9.9998
_cell_angle_alpha	90
_cell_angle_beta	90
_cell_angle_gamma	90
loop_
_atom_site_label
_atom_site_type_symbol
_atom_site_fract_x
_atom_site_fract_y
_atom_site_fract_z
_atom_site_charge
Mof_Zn	Zn	0.37491	0.48206	0.32751	1.23
Mof_Zn	Zn	0.4387	0.52212	0.17014	1.224
Mof_P 	P 	0.31086	0.48433	0.28188	0.65
Mof_P 	P 	0.40039	0.53913	0.39899	0.43
Mof_P 	P 	0.41595	0.53755	0.89033	0.528
Mof_O 	O 	0.28832	0.46271	0.2983	-0.971
Mof_O 	O 	0.31535	0.49329	0.1363	-0.896
Mof_O 	O 	0.33696	0.47337	0.3441	-0.481
Mof_O 	O 	0.42974	0.53456	0.3494	-0.47
Mof_O 	O 	0.37941	0.52221	0.3214	-0.48
Mof_O 	O 	0.39928	0.53549	0.5478	-0.467
Mof_O 	O 	0.47514	0.53522	0.1265	-0.467
Mof_O 	O 	0.38697	0.53156	0.8448	-0.42
Mof_O 	O 	0.41589	0.53949	0.0397	-0.524
Mof_O 	O 	0.43787	0.51828	0.8332	-0.467
Mof_H 	H 	0.2999	0.5096	0.3732	-0.053
Mof_H 	H 	0.3919	0.5679	0.3747	-0.016
Mof_H 	H 	0.4213	0.5611	0.8213	-0.02
Mof_Zn	Zn	0.87491	0.98206	0.82751	1.239
Mof_Zn	Zn	0.9387	0.02212	0.67014	1.23
Mof_P 	P 	0.81086	0.98433	0.78188	0.669
Mof_P 	P 	0.90039	0.03913	0.89899	0.503
Mof_P 	P 	0.91595	0.03755	0.39033	0.451
Mof_O 	O 	0.78832	0.96271	0.7983	-0.953
Mof_O 	O 	0.81535	0.99329	0.6363	-0.924
Mof_O 	O 	0.83696	0.97337	0.8441	-0.448
Mof_O 	O 	0.92974	0.03456	0.8494	-0.454
Mof_O 	O 	0.87941	0.02221	0.8214	-0.47
Mof_O 	O 	0.89928	0.03549	0.0478	-0.545
Mof_O 	O 	0.97514	0.03522	0.6265	-0.436
Mof_O 	O 	0.88697	0.03156	0.3448	-0.438
Mof_O 	O 	0.91589	0.03949	0.5397	-0.449
Mof_O 	O 	0.93787	0.01828	0.3332	-0.488
Mof_H 	H 	0.7999	0.0096	0.8732	-0.035
Mof_H 	H 	0.8919	0.0679	0.8747	0.003
Mof_H 	H 	0.9213	0.0611	0.3213	-0.036
Mof_Zn	Zn	0.12509	0.51794	0.82751	1.238
Mof_Zn	Zn	0.0613	0.47788	0.67014	1.231
Mof_P 	P 	0.18914	0.51567	0.78188	0.667
Mof_P 	P 	0.09961	0.46087	0.89899	0.504
Mof_P 	P 	0.08405	0.46245	0.39033	0.451
Mof_O 	O 	0.21168	0.53729	0.7983	-0.953
Mof_O 	O 	0.18465	0.50671	0.6363	-0.932
Mof_O 	O 	0.16304	0.52663	0.8441	-0.449
Mof_O 	O 	0.07026	0.46544	0.8494	-0.453
Mof_O 	O 	0.12059	0.47779	0.8214	-0.467
Mof_O 	O 	0.10072	0.46451	0.0478	-0.544
Mof_O 	O 	0.02486	0.46478	0.6265	-0.436
Mof_O 	O 	0.11303	0.46844	0.3448	-0.437
Mof_O 	O 	0.08411	0.46051	0.5397	-0.448
Mof_O 	O 	0.06213	0.48172	0.3332	-0.485
Mof_H 	H 	0.2001	0.4904	0.8732	-0.031
Mof_H 	H 	0.1081	0.4321	0.8747	0.003
Mof_H 	H 	0.0787	0.4389	0.3213	-0.036
Mof_Zn	Zn	0.62509	0.01794	0.32751	1.23
Mof_Zn	Zn	0.5613	0.97788	0.17014	1.227
Mof_P 	P 	0.68914	0.01567	0.28188	0.647
Mof_P 	P 	0.59961	0.96087	0.39899	0.432
Mof_P 	P 	0.58405	0.96245	0.89033	0.529
Mof_O 	O 	0.71168	0.03729	0.2983	-0.969
Mof_O 	O 	0.68465	0.00671	0.1363	-0.892
Mof_O 	O 	0.66304	0.02663	0.3441	-0.48
Mof_O 	O 	0.57026	0.96544	0.3494	-0.467
Mof_O 	O 	0.62059	0.97779	0.3214	-0.476
Mof_O 	O 	0.60072	0.96451	0.5478	-0.465
Mof_O 	O 	0.52486	0.96478	0.1265	-0.465
Mof_O 	O 	0.61303	0.96844	0.8448	-0.417
Mof_O 	O 	0.58411	0.96051	0.0397	-0.522
Mof_O 	O 	0.56213	0.98172	0.8332	-0.463
Mof_H 	H 	0.7001	0.9904	0.3732	-0.048
Mof_H 	H 	0.6081	0.9321	0.3747	-0.015
Mof_H 	H 	0.5787	0.9389	0.8213	-0.019
Mof_Zn	Zn	0.76794	0.12491	0.57751	1.233
Mof_Zn	Zn	0.72788	0.1887	0.42014	1.23
Mof_P 	P 	0.76567	0.06086	0.53188	0.661
Mof_P 	P 	0.71087	0.15039	0.64899	0.431
Mof_P 	P 	0.71245	0.16595	0.14033	0.451
Mof_O 	O 	0.78729	0.03832	0.5483	-0.964
Mof_O 	O 	0.75671	0.06535	0.3863	-0.934
Mof_O 	O 	0.77663	0.08696	0.5941	-0.474
Mof_O 	O 	0.71544	0.17974	0.5994	-0.459
Mof_O 	O 	0.72779	0.12941	0.5714	-0.473
Mof_O 	O 	0.71451	0.14928	0.7978	-0.441
Mof_O 	O 	0.71478	0.22514	0.3765	-0.442
Mof_O 	O 	0.71844	0.13697	0.0948	-0.478
Mof_O 	O 	0.71051	0.16589	0.2897	-0.452
Mof_O 	O 	0.73172	0.18787	0.0832	-0.512
Mof_H 	H 	0.7404	0.0499	0.6232	-0.054
Mof_H 	H 	0.6821	0.1419	0.6247	-0.004
Mof_H 	H 	0.6889	0.1713	0.0713	-0.051
Mof_Zn	Zn	0.26794	0.62491	0.07751	1.215
Mof_Zn	Zn	0.22788	0.6887	0.92014	1.249
Mof_P 	P 	0.26567	0.56086	0.03188	0.576
Mof_P 	P 	0.21087	0.65039	0.14899	0.429
Mof_P 	P 	0.21245	0.66595	0.64033	0.45
Mof_O 	O 	0.28729	0.53832	0.0483	-0.92
Mof_O 	O 	0.25671	0.56535	0.8863	-0.861
Mof_O 	O 	0.27663	0.58696	0.0941	-0.487
Mof_O 	O 	0.21544	0.67974	0.0994	-0.505
Mof_O 	O 	0.22779	0.62941	0.0714	-0.506
Mof_O 	O 	0.21451	0.64928	0.2978	-0.47
Mof_O 	O 	0.21478	0.72514	0.8765	-0.433
Mof_O 	O 	0.21844	0.63697	0.5948	-0.427
Mof_O 	O 	0.21051	0.66589	0.7897	-0.422
Mof_O 	O 	0.23172	0.68787	0.5832	-0.477
Mof_H 	H 	0.2404	0.5499	0.1232	-0.06
Mof_H 	H 	0.1821	0.6419	0.1247	-0.028
Mof_H 	H 	0.1889	0.6713	0.5713	-0.022
Mof_Zn	Zn	0.73206	0.87509	0.07751	1.215
Mof_Zn	Zn	0.77212	0.8113	0.92014	1.249
Mof_P 	P 	0.73433	0.93914	0.03188	0.575
Mof_P 	P 	0.78913	0.84961	0.14899	0.429
Mof_P 	P 	0.78755	0.83405	0.64033	0.45
Mof_O 	O 	0.71271	0.96168	0.0483	-0.913
Mof_O 	O 	0.74329	0.93465	0.8863	-0.861
Mof_O 	O 	0.72337	0.91304	0.0941	-0.487
Mof_O 	O 	0.78456	0.82026	0.0994	-0.505
Mof_O 	O 	0.77221	0.87059	0.0714	-0.506
Mof_O 	O 	0.78549	0.85072	0.2978	-0.47
Mof_O 	O 	0.78522	0.77486	0.8765	-0.433
Mof_O 	O 	0.78156	0.86303	0.5948	-0.427
Mof_O 	O 	0.78949	0.83411	0.7897	-0.422
Mof_O 	O 	0.76828	0.81213	0.5832	-0.477
Mof_H 	H 	0.7596	0.9501	0.1232	-0.059
Mof_H 	H 	0.8179	0.8581	0.1247	-0.027
Mof_H 	H 	0.8111	0.8287	0.5713	-0.022
Mof_Zn	Zn	0.23206	0.37509	0.57751	1.233
Mof_Zn	Zn	0.27212	0.3113	0.42014	1.23
Mof_P 	P 	0.23433	0.43914	0.53188	0.662
Mof_P 	P 	0.28913	0.34961	0.64899	0.431
Mof_P 	P 	0.28755	0.33405	0.14033	0.451
Mof_O 	O 	0.21271	0.46168	0.5483	-0.968
Mof_O 	O 	0.24329	0.43465	0.3863	-0.935
Mof_O 	O 	0.22337	0.41304	0.5941	-0.474
Mof_O 	O 	0.28456	0.32026	0.5994	-0.459
Mof_O 	O 	0.27221	0.37059	0.5714	-0.473
Mof_O 	O 	0.28549	0.35072	0.7978	-0.441
Mof_O 	O 	0.28522	0.27486	0.3765	-0.442
Mof_O 	O 	0.28156	0.36303	0.0948	-0.478
Mof_O 	O 	0.28949	0.33411	0.2897	-0.452
Mof_O 	O 	0.26828	0.31213	0.0832	-0.512
Mof_H 	H 	0.2596	0.4501	0.6232	-0.054
Mof_H 	H 	0.3179	0.3581	0.6247	-0.004
Mof_H 	H 	0.3111	0.3287	0.0713	-0.051
Mof_Zn	Zn	0.12509	0.48206	0.17249	1.227
Mof_Zn	Zn	0.0613	0.52212	0.32986	1.229
Mof_P 	P 	0.18914	0.48433	0.21812	0.657
Mof_P 	P 	0.09961	0.53913	0.10101	0.361
Mof_P 	P 	0.08405	0.53755	0.60967	0.451
Mof_O 	O 	0.21168	0.46271	0.2017	-0.985
Mof_O 	O 	0.18465	0.49329	0.3637	-0.933
Mof_O 	O 	0.16304	0.47337	0.1559	-0.501
Mof_O 	O 	0.07026	0.53456	0.1506	-0.478
Mof_O 	O 	0.12059	0.52221	0.1786	-0.478
Mof_O 	O 	0.10072	0.53549	0.9522	-0.391
Mof_O 	O 	0.02486	0.53522	0.3735	-0.438
Mof_O 	O 	0.11303	0.53156	0.6552	-0.43
Mof_O 	O 	0.08411	0.53949	0.4603	-0.446
Mof_O 	O 	0.06213	0.51828	0.6668	-0.469
Mof_H 	H 	0.2001	0.5096	0.1268	-0.077
Mof_H 	H 	0.1081	0.5679	0.1253	-0.023
Mof_H 	H 	0.0787	0.5611	0.6787	-0.015
Mof_Zn	Zn	0.62509	0.98206	0.67249	1.235
Mof_Zn	Zn	0.5613	0.02212	0.82986	1.233
Mof_P 	P 	0.68914	0.98433	0.71812	0.654
Mof_P 	P 	0.59961	0.03913	0.60101	0.432
Mof_P 	P 	0.58405	0.03755	0.10967	0.373
Mof_O 	O 	0.71168	0.96271	0.7017	-0.956
Mof_O 	O 	0.68465	0.99329	0.8637	-0.816
Mof_O 	O 	0.66304	0.97337	0.6559	-0.466
Mof_O 	O 	0.57026	0.03456	0.6506	-0.466
Mof_O 	O 	0.62059	0.02221	0.6786	-0.468
Mof_O 	O 	0.60072	0.03549	0.4522	-0.47
Mof_O 	O 	0.52486	0.03522	0.8735	-0.41
Mof_O 	O 	0.61303	0.03156	0.1552	-0.449
Mof_O 	O 	0.58411	0.03949	0.9603	-0.371
Mof_O 	O 	0.56213	0.01828	0.1668	-0.492
Mof_H 	H 	0.7001	0.0096	0.6268	-0.054
Mof_H 	H 	0.6081	0.0679	0.6253	-0.005
Mof_H 	H 	0.5787	0.0611	0.1787	-0.033
Mof_Zn	Zn	0.37491	0.51794	0.67249	1.234
Mof_Zn	Zn	0.4387	0.47788	0.82986	1.235
Mof_P 	P 	0.31086	0.51567	0.71812	0.651
Mof_P 	P 	0.40039	0.46087	0.60101	0.432
Mof_P 	P 	0.41595	0.46245	0.10967	0.373
Mof_O 	O 	0.28832	0.53729	0.7017	-0.956
Mof_O 	O 	0.31535	0.50671	0.8637	-0.823
Mof_O 	O 	0.33696	0.52663	0.6559	-0.467
Mof_O 	O 	0.42974	0.46544	0.6506	-0.464
Mof_O 	O 	0.37941	0.47779	0.6786	-0.465
Mof_O 	O 	0.39928	0.46451	0.4522	-0.469
Mof_O 	O 	0.47514	0.46478	0.8735	-0.408
Mof_O 	O 	0.38697	0.46844	0.1552	-0.448
Mof_O 	O 	0.41589	0.46051	0.9603	-0.37
Mof_O 	O 	0.43787	0.48172	0.1668	-0.489
Mof_H 	H 	0.2999	0.4904	0.6268	-0.051
Mof_H 	H 	0.3919	0.4321	0.6253	-0.005
Mof_H 	H 	0.4213	0.4389	0.1787	-0.033
Mof_Zn	Zn	0.87491	0.01794	0.17249	1.226
Mof_Zn	Zn	0.9387	0.97788	0.32986	1.23
Mof_P 	P 	0.81086	0.01567	0.21812	0.653
Mof_P 	P 	0.90039	0.96087	0.10101	0.361
Mof_P 	P 	0.91595	0.96245	0.60967	0.451
Mof_O 	O 	0.78832	0.03729	0.2017	-0.985
Mof_O 	O 	0.81535	0.00671	0.3637	-0.931
Mof_O 	O 	0.83696	0.02663	0.1559	-0.502
Mof_O 	O 	0.92974	0.96544	0.1506	-0.476
Mof_O 	O 	0.87941	0.97779	0.1786	-0.475
Mof_O 	O 	0.89928	0.96451	0.9522	-0.39
Mof_O 	O 	0.97514	0.96478	0.3735	-0.436
Mof_O 	O 	0.88697	0.96844	0.6552	-0.428
Mof_O 	O 	0.91589	0.96051	0.4603	-0.445
Mof_O 	O 	0.93787	0.98172	0.6668	-0.466
Mof_H 	H 	0.7999	0.9904	0.1268	-0.073
Mof_H 	H 	0.8919	0.9321	0.1253	-0.023
Mof_H 	H 	0.9213	0.9389	0.6787	-0.015
Mof_Zn	Zn	0.73206	0.12491	0.92249	1.251
Mof_Zn	Zn	0.77212	0.1887	0.07986	1.21
Mof_P 	P 	0.73433	0.06086	0.96812	0.722
Mof_P 	P 	0.78913	0.15039	0.85101	0.434
Mof_P 	P 	0.78755	0.16595	0.35967	0.452
Mof_O 	O 	0.71271	0.03832	0.9517	-0.857
Mof_O 	O 	0.74329	0.06535	0.1137	-0.994
Mof_O 	O 	0.72337	0.08696	0.9059	-0.459
Mof_O 	O 	0.78456	0.17974	0.9006	-0.426
Mof_O 	O 	0.77221	0.12941	0.9286	-0.437
Mof_O 	O 	0.78549	0.14928	0.7022	-0.465
Mof_O 	O 	0.78522	0.22514	0.1235	-0.442
Mof_O 	O 	0.78156	0.13697	0.4052	-0.44
Mof_O 	O 	0.78949	0.16589	0.2103	-0.473
Mof_O 	O 	0.76828	0.18787	0.4168	-0.478
Mof_H 	H 	0.7596	0.0499	0.8768	-0.041
Mof_H 	H 	0.8179	0.1419	0.8753	0.008
Mof_H 	H 	0.8111	0.1713	0.4287	-0.03
Mof_Zn	Zn	0.23206	0.62491	0.42249	1.233
Mof_Zn	Zn	0.27212	0.6887	0.57986	1.23
Mof_P 	P 	0.23433	0.56086	0.46812	0.662
Mof_P 	P 	0.28913	0.65039	0.35101	0.432
Mof_P 	P 	0.28755	0.66595	0.85967	0.451
Mof_O 	O 	0.21271	0.53832	0.4517	-0.971
Mof_O 	O 	0.24329	0.56535	0.6137	-0.93
Mof_O 	O 	0.22337	0.58696	0.4059	-0.476
Mof_O 	O 	0.28456	0.67974	0.4006	-0.473
Mof_O 	O 	0.27221	0.62941	0.4286	-0.472
Mof_O 	O 	0.28549	0.64928	0.2022	-0.493
Mof_O 	O 	0.28522	0.72514	0.6235	-0.432
Mof_O 	O 	0.28156	0.63697	0.9052	-0.39
Mof_O 	O 	0.28949	0.66589	0.7103	-0.442
Mof_O 	O 	0.26828	0.68787	0.9168	-0.445
Mof_H 	H 	0.2596	0.5499	0.3768	-0.054
Mof_H 	H 	0.3179	0.6419	0.3753	-0.016
Mof_H 	H 	0.3111	0.6713	0.9287	-0.001
Mof_Zn	Zn	0.76794	0.87509	0.42249	1.233
Mof_Zn	Zn	0.72788	0.8113	0.57986	1.23
Mof_P 	P 	0.76567	0.93914	0.46812	0.662
Mof_P 	P 	0.71087	0.84961	0.35101	0.432
Mof_P 	P 	0.71245	0.83405	0.85967	0.451
Mof_O 	O 	0.78729	0.96168	0.4517	-0.964
Mof_O 	O 	0.75671	0.93465	0.6137	-0.93
Mof_O 	O 	0.77663	0.91304	0.4059	-0.476
Mof_O 	O 	0.71544	0.82026	0.4006	-0.473
Mof_O 	O 	0.72779	0.87059	0.4286	-0.472
Mof_O 	O 	0.71451	0.85072	0.2022	-0.493
Mof_O 	O 	0.71478	0.77486	0.6235	-0.432
Mof_O 	O 	0.71844	0.86303	0.9052	-0.39
Mof_O 	O 	0.71051	0.83411	0.7103	-0.442
Mof_O 	O 	0.73172	0.81213	0.9168	-0.445
Mof_H 	H 	0.7404	0.9501	0.3768	-0.053
Mof_H 	H 	0.6821	0.8581	0.3753	-0.016
Mof_H 	H 	0.6889	0.8287	0.9287	-0.001
Mof_Zn	Zn	0.26794	0.37509	0.92249	1.251
Mof_Zn	Zn	0.22788	0.3113	0.07986	1.21
Mof_P 	P 	0.26567	0.43914	0.96812	0.723
Mof_P 	P 	0.21087	0.34961	0.85101	0.434
Mof_P 	P 	0.21245	0.33405	0.35967	0.452
Mof_O 	O 	0.28729	0.46168	0.9517	-0.86
Mof_O 	O 	0.25671	0.43465	0.1137	-0.995
Mof_O 	O 	0.27663	0.41304	0.9059	-0.459
Mof_O 	O 	0.21544	0.32026	0.9006	-0.426
Mof_O 	O 	0.22779	0.37059	0.9286	-0.437
Mof_O 	O 	0.21451	0.35072	0.7022	-0.465
Mof_O 	O 	0.21478	0.27486	0.1235	-0.442
Mof_O 	O 	0.21844	0.36303	0.4052	-0.44
Mof_O 	O 	0.21051	0.33411	0.2103	-0.474
Mof_O 	O 	0.23172	0.31213	0.4168	-0.478
Mof_H 	H 	0.2404	0.4501	0.8768	-0.041
Mof_H 	H 	0.1821	0.3581	0.8753	0.008
Mof_H 	H 	0.1889	0.3287	0.4287	-0.03
Mof_Zn	Zn	0.62509	0.51794	0.67249	1.234
Mof_Zn	Zn	0.5613	0.47788	0.82986	1.235
Mof_P 	P 	0.68914	0.51567	0.71812	0.651
Mof_P 	P 	0.59961	0.46087	0.60101	0.432
Mof_P 	P 	0.58405	0.46245	0.10967	0.373
Mof_O 	O 	0.71168	0.53729	0.7017	-0.956
Mof_O 	O 	0.68465	0.50671	0.8637	-0.823
Mof_O 	O 	0.66304	0.52663	0.6559	-0.467
Mof_O 	O 	0.57026	0.46544	0.6506	-0.464
Mof_O 	O 	0.62059	0.47779	0.6786	-0.465
Mof_O 	O 	0.60072	0.46451	0.4522	-0.469
Mof_O 	O 	0.52486	0.46478	0.8735	-0.408
Mof_O 	O 	0.61303	0.46844	0.1552	-0.448
Mof_O 	O 	0.58411	0.46051	0.9603	-0.37
Mof_O 	O 	0.56213	0.48172	0.1668	-0.489
Mof_H 	H 	0.7001	0.4904	0.6268	-0.051
Mof_H 	H 	0.6081	0.4321	0.6253	-0.005
Mof_H 	H 	0.5787	0.4389	0.1787	-0.033
Mof_Zn	Zn	0.12509	0.01794	0.17249	1.226
Mof_Zn	Zn	0.0613	0.97788	0.32986	1.23
Mof_P 	P 	0.18914	0.01567	0.21812	0.653
Mof_P 	P 	0.09961	0.96087	0.10101	0.361
Mof_P 	P 	0.08405	0.96245	0.60967	0.451
Mof_O 	O 	0.21168	0.03729	0.2017	-0.985
Mof_O 	O 	0.18465	0.00671	0.3637	-0.931
Mof_O 	O 	0.16304	0.02663	0.1559	-0.502
Mof_O 	O 	0.07026	0.96544	0.1506	-0.476
Mof_O 	O 	0.12059	0.97779	0.1786	-0.475
Mof_O 	O 	0.10072	0.96451	0.9522	-0.39
Mof_O 	O 	0.02486	0.96478	0.3735	-0.437
Mof_O 	O 	0.11303	0.96844	0.6552	-0.428
Mof_O 	O 	0.08411	0.96051	0.4603	-0.445
Mof_O 	O 	0.06213	0.98172	0.6668	-0.466
Mof_H 	H 	0.2001	0.9904	0.1268	-0.073
Mof_H 	H 	0.1081	0.9321	0.1253	-0.023
Mof_H 	H 	0.0787	0.9389	0.6787	-0.015
Mof_Zn	Zn	0.87491	0.48206	0.17249	1.227
Mof_Zn	Zn	0.9387	0.52212	0.32986	1.229
Mof_P 	P 	0.81086	0.48433	0.21812	0.657
Mof_P 	P 	0.90039	0.53913	0.10101	0.361
Mof_P 	P 	0.91595	0.53755	0.60967	0.451
Mof_O 	O 	0.78832	0.46271	0.2017	-0.985
Mof_O 	O 	0.81535	0.49329	0.3637	-0.933
Mof_O 	O 	0.83696	0.47337	0.1559	-0.501
Mof_O 	O 	0.92974	0.53456	0.1506	-0.478
Mof_O 	O 	0.87941	0.52221	0.1786	-0.478
Mof_O 	O 	0.89928	0.53549	0.9522	-0.391
Mof_O 	O 	0.97514	0.53522	0.3735	-0.438
Mof_O 	O 	0.88697	0.53156	0.6552	-0.43
Mof_O 	O 	0.91589	0.53949	0.4603	-0.446
Mof_O 	O 	0.93787	0.51828	0.6668	-0.469
Mof_H 	H 	0.7999	0.5096	0.1268	-0.077
Mof_H 	H 	0.8919	0.5679	0.1253	-0.023
Mof_H 	H 	0.9213	0.5611	0.6787	-0.015
Mof_Zn	Zn	0.37491	0.98206	0.67249	1.235
Mof_Zn	Zn	0.4387	0.02212	0.82986	1.233
Mof_P 	P 	0.31086	0.98433	0.71812	0.654
Mof_P 	P 	0.40039	0.03913	0.60101	0.432
Mof_P 	P 	0.41595	0.03755	0.10967	0.373
Mof_O 	O 	0.28832	0.96271	0.7017	-0.956
Mof_O 	O 	0.31535	0.99329	0.8637	-0.816
Mof_O 	O 	0.33696	0.97337	0.6559	-0.466
Mof_O 	O 	0.42974	0.03456	0.6506	-0.466
Mof_O 	O 	0.37941	0.02221	0.6786	-0.468
Mof_O 	O 	0.39928	0.03549	0.4522	-0.47
Mof_O 	O 	0.47514	0.03522	0.8735	-0.41
Mof_O 	O 	0.38697	0.03156	0.1552	-0.449
Mof_O 	O 	0.41589	0.03949	0.9603	-0.371
Mof_O 	O 	0.43787	0.01828	0.1668	-0.492
Mof_H 	H 	0.2999	0.0096	0.6268	-0.054
Mof_H 	H 	0.3919	0.0679	0.6253	-0.005
Mof_H 	H 	0.4213	0.0611	0.1787	-0.033
Mof_Zn	Zn	0.23206	0.87509	0.42249	1.233
Mof_Zn	Zn	0.27212	0.8113	0.57986	1.23
Mof_P 	P 	0.23433	0.93914	0.46812	0.662
Mof_P 	P 	0.28913	0.84961	0.35101	0.432
Mof_P 	P 	0.28755	0.83405	0.85967	0.451
Mof_O 	O 	0.21271	0.96168	0.4517	-0.964
Mof_O 	O 	0.24329	0.93465	0.6137	-0.93
Mof_O 	O 	0.22337	0.91304	0.4059	-0.476
Mof_O 	O 	0.28456	0.82026	0.4006	-0.473
Mof_O 	O 	0.27221	0.87059	0.4286	-0.472
Mof_O 	O 	0.28549	0.85072	0.2022	-0.493
Mof_O 	O 	0.28522	0.77486	0.6235	-0.432
Mof_O 	O 	0.28156	0.86303	0.9052	-0.39
Mof_O 	O 	0.28949	0.83411	0.7103	-0.442
Mof_O 	O 	0.26828	0.81213	0.9168	-0.445
Mof_H 	H 	0.2596	0.9501	0.3768	-0.053
Mof_H 	H 	0.3179	0.8581	0.3753	-0.016
Mof_H 	H 	0.3111	0.8287	0.9287	-0.001
Mof_Zn	Zn	0.73206	0.37509	0.92249	1.251
Mof_Zn	Zn	0.77212	0.3113	0.07986	1.21
Mof_P 	P 	0.73433	0.43914	0.96812	0.723
Mof_P 	P 	0.78913	0.34961	0.85101	0.434
Mof_P 	P 	0.78755	0.33405	0.35967	0.452
Mof_O 	O 	0.71271	0.46168	0.9517	-0.86
Mof_O 	O 	0.74329	0.43465	0.1137	-0.995
Mof_O 	O 	0.72337	0.41304	0.9059	-0.459
Mof_O 	O 	0.78456	0.32026	0.9006	-0.426
Mof_O 	O 	0.77221	0.37059	0.9286	-0.437
Mof_O 	O 	0.78549	0.35072	0.7022	-0.465
Mof_O 	O 	0.78522	0.27486	0.1235	-0.442
Mof_O 	O 	0.78156	0.36303	0.4052	-0.44
Mof_O 	O 	0.78949	0.33411	0.2103	-0.473
Mof_O 	O 	0.76828	0.31213	0.4168	-0.478
Mof_H 	H 	0.7596	0.4501	0.8768	-0.041
Mof_H 	H 	0.8179	0.3581	0.8753	0.008
Mof_H 	H 	0.8111	0.3287	0.4287	-0.03
Mof_Zn	Zn	0.26794	0.12491	0.92249	1.251
Mof_Zn	Zn	0.22788	0.1887	0.07986	1.21
Mof_P 	P 	0.26567	0.06086	0.96812	0.722
Mof_P 	P 	0.21087	0.15039	0.85101	0.434
Mof_P 	P 	0.21245	0.16595	0.35967	0.452
Mof_O 	O 	0.28729	0.03832	0.9517	-0.857
Mof_O 	O 	0.25671	0.06535	0.1137	-0.994
Mof_O 	O 	0.27663	0.08696	0.9059	-0.459
Mof_O 	O 	0.21544	0.17974	0.9006	-0.426
Mof_O 	O 	0.22779	0.12941	0.9286	-0.437
Mof_O 	O 	0.21451	0.14928	0.7022	-0.465
Mof_O 	O 	0.21478	0.22514	0.1235	-0.442
Mof_O 	O 	0.21844	0.13697	0.4052	-0.44
Mof_O 	O 	0.21051	0.16589	0.2103	-0.473
Mof_O 	O 	0.23172	0.18787	0.4168	-0.478
Mof_H 	H 	0.2404	0.0499	0.8768	-0.041
Mof_H 	H 	0.1821	0.1419	0.8753	0.008
Mof_H 	H 	0.1889	0.1713	0.4287	-0.03
Mof_Zn	Zn	0.76794	0.62491	0.42249	1.233
Mof_Zn	Zn	0.72788	0.6887	0.57986	1.23
Mof_P 	P 	0.76567	0.56086	0.46812	0.662
Mof_P 	P 	0.71087	0.65039	0.35101	0.432
Mof_P 	P 	0.71245	0.66595	0.85967	0.451
Mof_O 	O 	0.78729	0.53832	0.4517	-0.971
Mof_O 	O 	0.75671	0.56535	0.6137	-0.93
Mof_O 	O 	0.77663	0.58696	0.4059	-0.476
Mof_O 	O 	0.71544	0.67974	0.4006	-0.473
Mof_O 	O 	0.72779	0.62941	0.4286	-0.472
Mof_O 	O 	0.71451	0.64928	0.2022	-0.493
Mof_O 	O 	0.71478	0.72514	0.6235	-0.432
Mof_O 	O 	0.71844	0.63697	0.9052	-0.39
Mof_O 	O 	0.71051	0.66589	0.7103	-0.442
Mof_O 	O 	0.73172	0.68787	0.9168	-0.445
Mof_H 	H 	0.7404	0.5499	0.3768	-0.054
Mof_H 	H 	0.6821	0.6419	0.3753	-0.016
Mof_H 	H 	0.6889	0.6713	0.9287	-0.001
Mof_Zn	Zn	0.87491	0.51794	0.82751	1.238
Mof_Zn	Zn	0.9387	0.47788	0.67014	1.231
Mof_P 	P 	0.81086	0.51567	0.78188	0.667
Mof_P 	P 	0.90039	0.46087	0.89899	0.504
Mof_P 	P 	0.91595	0.46245	0.39033	0.451
Mof_O 	O 	0.78832	0.53729	0.7983	-0.953
Mof_O 	O 	0.81535	0.50671	0.6363	-0.932
Mof_O 	O 	0.83696	0.52663	0.8441	-0.449
Mof_O 	O 	0.92974	0.46544	0.8494	-0.453
Mof_O 	O 	0.87941	0.47779	0.8214	-0.467
Mof_O 	O 	0.89928	0.46451	0.0478	-0.544
Mof_O 	O 	0.97514	0.46478	0.6265	-0.435
Mof_O 	O 	0.88697	0.46844	0.3448	-0.437
Mof_O 	O 	0.91589	0.46051	0.5397	-0.448
Mof_O 	O 	0.93787	0.48172	0.3332	-0.485
Mof_H 	H 	0.7999	0.4904	0.8732	-0.031
Mof_H 	H 	0.8919	0.4321	0.8747	0.003
Mof_H 	H 	0.9213	0.4389	0.3213	-0.036
Mof_Zn	Zn	0.37491	0.01794	0.32751	1.23
Mof_Zn	Zn	0.4387	0.97788	0.17014	1.227
Mof_P 	P 	0.31086	0.01567	0.28188	0.647
Mof_P 	P 	0.40039	0.96087	0.39899	0.432
Mof_P 	P 	0.41595	0.96245	0.89033	0.529
Mof_O 	O 	0.28832	0.03729	0.2983	-0.969
Mof_O 	O 	0.31535	0.00671	0.1363	-0.892
Mof_O 	O 	0.33696	0.02663	0.3441	-0.48
Mof_O 	O 	0.42974	0.96544	0.3494	-0.467
Mof_O 	O 	0.37941	0.97779	0.3214	-0.476
Mof_O 	O 	0.39928	0.96451	0.5478	-0.465
Mof_O 	O 	0.47514	0.96478	0.1265	-0.465
Mof_O 	O 	0.38697	0.96844	0.8448	-0.417
Mof_O 	O 	0.41589	0.96051	0.0397	-0.522
Mof_O 	O 	0.43787	0.98172	0.8332	-0.463
Mof_H 	H 	0.2999	0.9904	0.3732	-0.048
Mof_H 	H 	0.3919	0.9321	0.3747	-0.015
Mof_H 	H 	0.4213	0.9389	0.8213	-0.019
Mof_Zn	Zn	0.62509	0.48206	0.32751	1.231
Mof_Zn	Zn	0.5613	0.52212	0.17014	1.225
Mof_P 	P 	0.68914	0.48433	0.28188	0.651
Mof_P 	P 	0.59961	0.53913	0.39899	0.431
Mof_P 	P 	0.58405	0.53755	0.89033	0.529
Mof_O 	O 	0.71168	0.46271	0.2983	-0.97
Mof_O 	O 	0.68465	0.49329	0.1363	-0.895
Mof_O 	O 	0.66304	0.47337	0.3441	-0.48
Mof_O 	O 	0.57026	0.53456	0.3494	-0.469
Mof_O 	O 	0.62059	0.52221	0.3214	-0.479
Mof_O 	O 	0.60072	0.53549	0.5478	-0.466
Mof_O 	O 	0.52486	0.53522	0.1265	-0.466
Mof_O 	O 	0.61303	0.53156	0.8448	-0.419
Mof_O 	O 	0.58411	0.53949	0.0397	-0.523
Mof_O 	O 	0.56213	0.51828	0.8332	-0.466
Mof_H 	H 	0.7001	0.5096	0.3732	-0.052
Mof_H 	H 	0.6081	0.5679	0.3747	-0.015
Mof_H 	H 	0.5787	0.5611	0.8213	-0.019
Mof_Zn	Zn	0.12509	0.98206	0.82751	1.239
Mof_Zn	Zn	0.0613	0.02212	0.67014	1.23
Mof_P 	P 	0.18914	0.98433	0.78188	0.669
Mof_P 	P 	0.09961	0.03913	0.89899	0.503
Mof_P 	P 	0.08405	0.03755	0.39033	0.451
Mof_O 	O 	0.21168	0.96271	0.7983	-0.953
Mof_O 	O 	0.18465	0.99329	0.6363	-0.924
Mof_O 	O 	0.16304	0.97337	0.8441	-0.448
Mof_O 	O 	0.07026	0.03456	0.8494	-0.454
Mof_O 	O 	0.12059	0.02221	0.8214	-0.47
Mof_O 	O 	0.10072	0.03549	0.0478	-0.545
Mof_O 	O 	0.02486	0.03522	0.6265	-0.437
Mof_O 	O 	0.11303	0.03156	0.3448	-0.438
Mof_O 	O 	0.08411	0.03949	0.5397	-0.449
Mof_O 	O 	0.06213	0.01828	0.3332	-0.488
Mof_H 	H 	0.2001	0.0096	0.8732	-0.035
Mof_H 	H 	0.1081	0.0679	0.8747	0.003
Mof_H 	H 	0.0787	0.0611	0.3213	-0.036
Mof_Zn	Zn	0.26794	0.87509	0.07751	1.215
Mof_Zn	Zn	0.22788	0.8113	0.92014	1.249
Mof_P 	P 	0.26567	0.93914	0.03188	0.575
Mof_P 	P 	0.21087	0.84961	0.14899	0.429
Mof_P 	P 	0.21245	0.83405	0.64033	0.45
Mof_O 	O 	0.28729	0.96168	0.0483	-0.913
Mof_O 	O 	0.25671	0.93465	0.8863	-0.861
Mof_O 	O 	0.27663	0.91304	0.0941	-0.487
Mof_O 	O 	0.21544	0.82026	0.0994	-0.505
Mof_O 	O 	0.22779	0.87059	0.0714	-0.506
Mof_O 	O 	0.21451	0.85072	0.2978	-0.47
Mof_O 	O 	0.21478	0.77486	0.8765	-0.433
Mof_O 	O 	0.21844	0.86303	0.5948	-0.427
Mof_O 	O 	0.21051	0.83411	0.7897	-0.422
Mof_O 	O 	0.23172	0.81213	0.5832	-0.477
Mof_H 	H 	0.2404	0.9501	0.1232	-0.059
Mof_H 	H 	0.1821	0.8581	0.1247	-0.027
Mof_H 	H 	0.1889	0.8287	0.5713	-0.022
Mof_Zn	Zn	0.76794	0.37509	0.57751	1.233
Mof_Zn	Zn	0.72788	0.3113	0.42014	1.23
Mof_P 	P 	0.76567	0.43914	0.53188	0.662
Mof_P 	P 	0.71087	0.34961	0.64899	0.431
Mof_P 	P 	0.71245	0.33405	0.14033	0.451
Mof_O 	O 	0.78729	0.46168	0.5483	-0.968
Mof_O 	O 	0.75671	0.43465	0.3863	-0.935
Mof_O 	O 	0.77663	0.41304	0.5941	-0.474
Mof_O 	O 	0.71544	0.32026	0.5994	-0.459
Mof_O 	O 	0.72779	0.37059	0.5714	-0.473
Mof_O 	O 	0.71451	0.35072	0.7978	-0.441
Mof_O 	O 	0.71478	0.27486	0.3765	-0.442
Mof_O 	O 	0.71844	0.36303	0.0948	-0.478
Mof_O 	O 	0.71051	0.33411	0.2897	-0.452
Mof_O 	O 	0.73172	0.31213	0.0832	-0.512
Mof_H 	H 	0.7404	0.4501	0.6232	-0.054
Mof_H 	H 	0.6821	0.3581	0.6247	-0.004
Mof_H 	H 	0.6889	0.3287	0.0713	-0.051
Mof_Zn	Zn	0.23206	0.12491	0.57751	1.233
Mof_Zn	Zn	0.27212	0.1887	0.42014	1.23
Mof_P 	P 	0.23433	0.06086	0.53188	0.661
Mof_P 	P 	0.28913	0.15039	0.64899	0.431
Mof_P 	P 	0.28755	0.16595	0.14033	0.451
Mof_O 	O 	0.21271	0.03832	0.5483	-0.964
Mof_O 	O 	0.24329	0.06535	0.3863	-0.934
Mof_O 	O 	0.22337	0.08696	0.5941	-0.474
Mof_O 	O 	0.28456	0.17974	0.5994	-0.459
Mof_O 	O 	0.27221	0.12941	0.5714	-0.473
Mof_O 	O 	0.28549	0.14928	0.7978	-0.441
Mof_O 	O 	0.28522	0.22514	0.3765	-0.442
Mof_O 	O 	0.28156	0.13697	0.0948	-0.478
Mof_O 	O 	0.28949	0.16589	0.2897	-0.452
Mof_O 	O 	0.26828	0.18787	0.0832	-0.512
Mof_H 	H 	0.2596	0.0499	0.6232	-0.054
Mof_H 	H 	0.3179	0.1419	0.6247	-0.004
Mof_H 	H 	0.3111	0.1713	0.0713	-0.051
Mof_Zn	Zn	0.73206	0.62491	0.07751	1.215
Mof_Zn	Zn	0.77212	0.6887	0.92014	1.249
Mof_P 	P 	0.73433	0.56086	0.03188	0.576
Mof_P 	P 	0.78913	0.65039	0.14899	0.429
Mof_P 	P 	0.78755	0.66595	0.64033	0.45
Mof_O 	O 	0.71271	0.53832	0.0483	-0.92
Mof_O 	O 	0.74329	0.56535	0.8863	-0.861
Mof_O 	O 	0.72337	0.58696	0.0941	-0.487
Mof_O 	O 	0.78456	0.67974	0.0994	-0.505
Mof_O 	O 	0.77221	0.62941	0.0714	-0.506
Mof_O 	O 	0.78549	0.64928	0.2978	-0.47
Mof_O 	O 	0.78522	0.72514	0.8765	-0.433
Mof_O 	O 	0.78156	0.63697	0.5948	-0.427
Mof_O 	O 	0.78949	0.66589	0.7897	-0.422
Mof_O 	O 	0.76828	0.68787	0.5832	-0.477
Mof_H 	H 	0.7596	0.5499	0.1232	-0.06
Mof_H 	H 	0.8179	0.6419	0.1247	-0.028
Mof_H 	H 	0.8111	0.6713	0.5713	-0.022
Mof_Ga	Ga	0.25	0.4629	0.25	4.311
Mof_Ga	Ga	0.75	0.9629	0.75	4.327
Mof_Ga	Ga	0.25	0.5371	0.75	4.326
Mof_Ga	Ga	0.75	0.0371	0.25	4.308
Mof_Ga	Ga	0.7871	0	0.5	4.289
Mof_Ga	Ga	0.2871	0.5	-0	3.885
Mof_Ga	Ga	0.7129	0	-0	3.856
Mof_Ga	Ga	0.2129	0.5	0.5	4.319
Mof_Ga	Ga	0.75	0.5371	0.75	4.326
Mof_Ga	Ga	0.25	0.0371	0.25	4.308
Mof_Ga	Ga	0.75	0.4629	0.25	4.311
Mof_Ga	Ga	0.25	0.9629	0.75	4.327
Mof_Ga	Ga	0.2129	0	0.5	4.289
Mof_Ga	Ga	0.7129	0.5	-0	3.885
Mof_Ga	Ga	0.2871	0	-0	3.856
Mof_Ga	Ga	0.7871	0.5	0.5	4.319
Mof_Zn	Zn	0.5	0.5	0.5	1.151
Mof_Zn	Zn	-0	0	-0	1.121
Mof_Zn	Zn	-4.31174e-33	0.5	-0	1.123
Mof_Zn	Zn	0.5	0	0.5	1.149
Mof_Zn	Zn	0.75	0.25	0.75	1.157
Mof_Zn	Zn	0.75	0.75	0.25	1.146
Mof_Zn	Zn	0.25	0.75	0.25	1.146
Mof_Zn	Zn	0.25	0.25	0.75	1.157
Mof_P 	P 	0.5	0.53479	0.21515	0.476
Mof_O 	O 	0.5	0.5105	0.3084	-0.535
Mof_H 	H 	0.5	0.5577	0.2881	-0.074
Mof_P 	P 	5.54073e-34	0.03479	0.71515	0.474
Mof_O 	O 	-1.52955e-33	0.0105	0.8084	-0.499
Mof_H 	H 	-1.54528e-33	0.0577	0.7881	-0.055
Mof_P 	P 	4.86581e-33	0.46521	0.71515	0.474
Mof_O 	O 	4.93806e-33	0.4895	0.8084	-0.496
Mof_H 	H 	6.10592e-34	0.4423	0.7881	-0.055
Mof_P 	P 	0.5	0.96521	0.21515	0.476
Mof_O 	O 	0.5	0.9895	0.3084	-0.532
Mof_H 	H 	0.5	0.9423	0.2881	-0.074
Mof_P 	P 	0.71521	0.25	0.46515	0.476
Mof_O 	O 	0.7395	0.25	0.5584	-0.523
Mof_H 	H 	0.6923	0.25	0.5381	-0.064
Mof_P 	P 	0.78479	0.75	0.96515	0.612
Mof_O 	O 	0.7605	0.75	0.0584	-0.616
Mof_H 	H 	0.8077	0.75	0.0381	-0.137
Mof_P 	P 	-5.16898e-33	0.53479	0.28485	0.474
Mof_O 	O 	-1.46846e-33	0.5105	0.1916	-0.547
Mof_H 	H 	-6.30343e-33	0.5577	0.2119	-0.082
Mof_P 	P 	0.5	0.03479	0.78485	0.474
Mof_O 	O 	0.5	0.0105	0.6916	-0.524
Mof_H 	H 	0.5	0.0577	0.7119	-0.065
Mof_P 	P 	0.5	0.46521	0.78485	0.474
Mof_O 	O 	0.5	0.4895	0.6916	-0.521
Mof_H 	H 	0.5	0.4423	0.7119	-0.065
Mof_P 	P 	-8.57242e-34	0.96521	0.28485	0.474
Mof_O 	O 	2.84328e-33	0.9895	0.1916	-0.543
Mof_H 	H 	-1.06152e-32	0.9423	0.2119	-0.081
Mof_P 	P 	0.78479	0.25	0.03485	0.33
Mof_O 	O 	0.7605	0.25	0.9416	-0.435
Mof_H 	H 	0.8077	0.25	0.9619	0.002
Mof_P 	P 	0.71521	0.75	0.53485	0.475
Mof_O 	O 	0.7395	0.75	0.4416	-0.533
Mof_H 	H 	0.6923	0.75	0.4619	-0.075
Mof_P 	P 	0.28479	0.75	0.53485	0.475
Mof_O 	O 	0.2605	0.75	0.4416	-0.533
Mof_H 	H 	0.3077	0.75	0.4619	-0.075
Mof_P 	P 	0.21521	0.25	0.03485	0.33
Mof_O 	O 	0.2395	0.25	0.9416	-0.435
Mof_H 	H 	0.1923	0.25	0.9619	0.002
Mof_P 	P 	0.21521	0.75	0.96515	0.612
Mof_O 	O 	0.2395	0.75	0.0584	-0.616
Mof_H 	H 	0.1923	0.75	0.0381	-0.137
Mof_P 	P 	0.28479	0.25	0.46515	0.476
Mof_O 	O 	0.2605	0.25	0.5584	-0.523
Mof_H 	H 	0.3077	0.25	0.5381	-0.064
Mof_F 	F 	0.24263	0.49263	0.375	-1.444
Mof_F 	F 	0.25737	0.50737	0.875	-1.36
Mof_F 	F 	0.75737	0.99263	0.625	-1.439
Mof_F 	F 	0.74263	0.00737	0.125	-1.411
Mof_F 	F 	0.25737	0.49263	0.125	-1.413
Mof_F 	F 	0.24263	0.50737	0.625	-1.445
Mof_F 	F 	0.74263	0.99263	0.875	-1.353
Mof_F 	F 	0.75737	0.00737	0.375	-1.442
Mof_F 	F 	0.75737	0.50737	0.625	-1.445
Mof_F 	F 	0.74263	0.49263	0.125	-1.413
Mof_F 	F 	0.24263	0.99263	0.625	-1.439
Mof_F 	F 	0.24263	0.00737	0.375	-1.442
Mof_F 	F 	0.25737	0.99263	0.875	-1.353
Mof_F 	F 	0.74263	0.50737	0.875	-1.36
Mof_F 	F 	0.75737	0.49263	0.375	-1.444
Mof_F 	F 	0.25737	0.00737	0.125	-1.411
_end
