data_functionalizedCrystal
_audit_creation_method	'EQeq! by Chris Wilmer'
_symmetry_space_group_name_H-M	'P1'
_symmetry_Int_Tables_number	1
_symmetry_cell_setting	triclinic
loop_
_symmetry_equiv_pos_as_xyz
  x,y,z
_cell_length_a	9.5591
_cell_length_b	9.782
_cell_length_c	18.288
_cell_angle_alpha	78.75
_cell_angle_beta	86.28
_cell_angle_gamma	68.73
loop_
_atom_site_label
_atom_site_type_symbol
_atom_site_fract_x
_atom_site_fract_y
_atom_site_fract_z
_atom_site_charge
Mof_Zn	Zn	0.09403	0.096	0.97434	1.203
Mof_Zn	Zn	0.18201	0.8896	0.14695	1.209
Mof_Zn	Zn	0.90597	0.904	0.02566	1.203
Mof_Zn	Zn	0.81799	0.1104	0.85305	1.209
Mof_H 	H 	0.9637	0.0661	0.7059	-0.02
Mof_H 	H 	0.0549	0.1943	0.6067	0.086
Mof_H 	H 	0.9234	0.5436	0.7002	0.097
Mof_H 	H 	0.821	0.4184	0.7992	-0.004
Mof_H 	H 	0.0713	0.5503	0.5744	0.067
Mof_H 	H 	0.8763	0.6843	0.4928	0.022
Mof_H 	H 	0.78	0.3429	0.4789	0.04
Mof_H 	H 	0.6174	0.27	0.5644	0.058
Mof_H 	H 	0.5319	0.6403	0.6519	0.067
Mof_H 	H 	0.6946	0.7131	0.5663	0.046
Mof_H 	H 	0.4807	0.4684	0.7223	0.053
Mof_H 	H 	0.4974	0.2292	0.6665	0.067
Mof_H 	H 	0.3666	0.0753	0.7351	0.098
Mof_H 	H 	0.2617	0.9938	0.8405	0.003
Mof_H 	H 	0.1422	0.3853	0.9016	0.006
Mof_H 	H 	0.2597	0.4722	0.7943	0.095
Mof_H 	H 	0.5721	0.5379	0.0668	0.051
Mof_H 	H 	0.8709	0.5445	0.9013	0.037
Mof_H 	H 	0.5137	0.9165	0.9166	0.043
Mof_H 	H 	0.0363	0.9339	0.2941	-0.019
Mof_H 	H 	0.9451	0.8057	0.3933	0.087
Mof_H 	H 	0.0766	0.4564	0.2998	0.097
Mof_H 	H 	0.179	0.5816	0.2008	-0.004
Mof_H 	H 	0.9287	0.4497	0.4256	0.067
Mof_H 	H 	0.1237	0.3157	0.5072	0.022
Mof_H 	H 	0.22	0.6571	0.5211	0.04
Mof_H 	H 	0.3826	0.73	0.4356	0.058
Mof_H 	H 	0.4681	0.3597	0.3481	0.067
Mof_H 	H 	0.3054	0.2869	0.4337	0.046
Mof_H 	H 	0.5193	0.5316	0.2777	0.053
Mof_H 	H 	0.5026	0.7708	0.3335	0.067
Mof_H 	H 	0.6334	0.9247	0.2649	0.098
Mof_H 	H 	0.7383	0.0062	0.1595	0.003
Mof_H 	H 	0.8578	0.6147	0.0984	0.006
Mof_H 	H 	0.7403	0.5278	0.2057	0.095
Mof_H 	H 	0.4279	0.4621	0.9332	0.051
Mof_H 	H 	0.1291	0.4555	0.0987	0.037
Mof_H 	H 	0.4863	0.0835	0.0834	0.043
Mof_C 	C 	0.9502	0.166	0.7065	0.099
Mof_C 	C 	0.0047	0.248	0.6439	-0.166
Mof_C 	C 	0.9918	0.3926	0.6327	0.124
Mof_C 	C 	0.9284	0.447	0.6973	-0.143
Mof_C 	C 	0.8693	0.3686	0.7604	0.071
Mof_C 	C 	0.0254	0.4822	0.5613	-0.125
Mof_C 	C 	0.8989	0.576	0.4991	0.018
Mof_C 	C 	0.753	0.535	0.5143	-0
Mof_C 	C 	0.73	0.4029	0.5138	-0.031
Mof_C 	C 	0.6329	0.3594	0.5648	-0.078
Mof_C 	C 	0.5589	0.4481	0.6164	0.055
Mof_C 	C 	0.5819	0.5803	0.617	-0.08
Mof_C 	C 	0.679	0.6237	0.5659	-0.032
Mof_C 	C 	0.4955	0.409	0.6858	-0.054
Mof_C 	C 	0.46	0.2985	0.6986	-0.096
Mof_C 	C 	0.3581	0.2632	0.763	0.117
Mof_C 	C 	0.3338	0.1354	0.7717	-0.165
Mof_C 	C 	0.2626	0.0914	0.8325	0.082
Mof_C 	C 	0.1928	0.32	0.869	0.077
Mof_C 	C 	0.2681	0.3716	0.8067	-0.147
Mof_C 	C 	0.5265	0.7363	0.9973	-0.093
Mof_C 	C 	0.6058	0.5888	0.0246	0.024
Mof_C 	C 	0.7394	0.514	0.9882	-0.096
Mof_C 	C 	0.7837	0.5939	0.9264	0.049
Mof_C 	C 	0.7064	0.7417	0.9001	-0.126
Mof_C 	C 	0.5713	0.8161	0.935	0.04
Mof_C 	C 	0.38	0.8207	0.0338	0.354
Mof_C 	C 	0.8304	0.3543	0.0178	0.321
Mof_C 	C 	0.0498	0.834	0.2935	0.099
Mof_C 	C 	0.9953	0.752	0.3561	-0.166
Mof_C 	C 	0.0082	0.6074	0.3673	0.124
Mof_C 	C 	0.0716	0.553	0.3027	-0.143
Mof_C 	C 	0.1307	0.6314	0.2396	0.071
Mof_C 	C 	0.9746	0.5178	0.4387	-0.125
Mof_C 	C 	0.1011	0.424	0.5009	0.018
Mof_C 	C 	0.247	0.465	0.4857	-0
Mof_C 	C 	0.27	0.5971	0.4862	-0.031
Mof_C 	C 	0.3671	0.6406	0.4352	-0.078
Mof_C 	C 	0.4411	0.5519	0.3836	0.055
Mof_C 	C 	0.4181	0.4197	0.383	-0.08
Mof_C 	C 	0.321	0.3763	0.4341	-0.032
Mof_C 	C 	0.5045	0.591	0.3142	-0.054
Mof_C 	C 	0.54	0.7015	0.3014	-0.096
Mof_C 	C 	0.6419	0.7368	0.237	0.117
Mof_C 	C 	0.6662	0.8646	0.2283	-0.165
Mof_C 	C 	0.7374	0.9086	0.1675	0.082
Mof_C 	C 	0.8072	0.68	0.131	0.077
Mof_C 	C 	0.7319	0.6284	0.1933	-0.147
Mof_C 	C 	0.4735	0.2637	0.0027	-0.093
Mof_C 	C 	0.3942	0.4112	0.9754	0.024
Mof_C 	C 	0.2606	0.486	0.0118	-0.096
Mof_C 	C 	0.2163	0.4061	0.0736	0.049
Mof_C 	C 	0.2936	0.2583	0.0999	-0.126
Mof_C 	C 	0.4287	0.1839	0.065	0.04
Mof_C 	C 	0.62	0.1793	0.9662	0.354
Mof_C 	C 	0.1696	0.6457	0.9822	0.321
Mof_S 	S 	0.7594	0.8304	0.8144	0.506
Mof_S 	S 	0.2406	0.1696	0.1856	0.506
Mof_N 	N 	0.8832	0.2237	0.7638	-0.283
Mof_N 	N 	0.1916	0.1786	0.8832	-0.26
Mof_N 	N 	0.1168	0.7763	0.2362	-0.283
Mof_N 	N 	0.8084	0.8214	0.1168	-0.26
Mof_O 	O 	0.3087	0.9543	0.0064	-0.489
Mof_O 	O 	0.3406	0.7524	0.0961	-0.462
Mof_O 	O 	0.7927	0.2795	0.0727	-0.278
Mof_O 	O 	0.9524	0.299	0.9788	-0.456
Mof_O 	O 	0.7186	0.9905	0.8191	-0.451
Mof_O 	O 	0.6717	0.8144	0.7577	-0.259
Mof_O 	O 	0.9209	0.7584	0.8073	-0.28
Mof_O 	O 	0.9862	0.9923	0.9254	-0.691
Mof_O 	O 	0.6913	0.0457	0.9936	-0.489
Mof_O 	O 	0.6594	0.2476	0.9039	-0.462
Mof_O 	O 	0.2073	0.7205	0.9273	-0.278
Mof_O 	O 	0.0476	0.701	0.0212	-0.456
Mof_O 	O 	0.2814	0.0095	0.1809	-0.451
Mof_O 	O 	0.3283	0.1856	0.2423	-0.259
Mof_O 	O 	0.0791	0.2416	0.1927	-0.28
Mof_O 	O 	0.0138	0.0077	0.0746	-0.691
Mof_H 	H 	0.9862	0.88807	0.93628	0.079
Mof_H 	H 	0.0138	0.11193	0.06372	0.079
_end
