# CIF file generated by openbabel 3.1.0, see https://openbabel.org
data_I
_chemical_name_common 'image0'
_cell_length_a 28.857
_cell_length_b 13.7063
_cell_length_c 45.188
_cell_angle_alpha 90
_cell_angle_beta 90
_cell_angle_gamma 90
_space_group_name_H-M_alt 'P 1'
_space_group_name_Hall 'P 1'
loop_
    _symmetry_equiv_pos_as_xyz
    x,y,z
loop_
    _atom_site_label
    _atom_site_type_symbol
    _atom_site_fract_x
    _atom_site_fract_y
    _atom_site_fract_z
    _atom_site_occupancy
    Zn1      Zn       0.02280    0.14722    0.91413    1.000
    Zn2      Zn       0.56358    0.15855    0.92874    1.000
    Zn3      Zn       0.76223    0.85594    0.68945    1.000
    I1       I        0.00838    0.21800    0.96570    1.000
    I2       I        0.06891    0.23483    0.87459    1.000
    I3       I        0.57434    0.34173    0.93970    1.000
    I4       I        0.49685    0.08954    0.89963    1.000
    I5       I        0.80126    0.69023    0.69442    1.000
    I6       I        0.67836    0.86240    0.67284    1.000
    C1       C        0.92060    0.11370    0.91222    1.000
    H1       H        0.92320    0.12380    0.93300    1.000
    C2       C        0.87700    0.10020    0.89996    1.000
    H2       H        0.85020    0.10060    0.91220    1.000
    C3       C        0.95520    0.09670    0.86697    1.000
    H3       H        0.98250    0.09470    0.85530    1.000
    C4       C        0.91300    0.08240    0.85323    1.000
    H4       H        0.91160    0.07020    0.83260    1.000
    C5       C        0.87290    0.08610    0.86995    1.000
    C6       C        0.82670    0.07350    0.85606    1.000
    C7       C        0.81020    0.92460    0.74285    1.000
    H5       H        0.83570    0.89400    0.73330    1.000
    C8       C        0.81640    0.96280    0.77091    1.000
    H6       H        0.84590    0.96010    0.78020    1.000
    C9       C        0.73420    0.97120    0.74214    1.000
    H7       H        0.70540    0.97550    0.73200    1.000
    C10      C        0.73760    0.00900    0.77043    1.000
    H8       H        0.71140    0.03780    0.77970    1.000
    C11      C        0.77960    0.00440    0.78498    1.000
    C12      C        0.78350    0.03830    0.81613    1.000
    C13      C        0.62330    0.09620    0.87855    1.000
    H9       H        0.59420    0.08880    0.86900    1.000
    C14      C        0.66300    0.08110    0.86238    1.000
    H10      H        0.66120    0.06480    0.84200    1.000
    C15      C        0.66510    0.12860    0.92047    1.000
    H11      H        0.66580    0.14570    0.94080    1.000
    C16      C        0.70650    0.11320    0.90626    1.000
    H12      H        0.73500    0.11820    0.91660    1.000
    C17      C        0.70570    0.09010    0.87615    1.000
    C18      C        0.74920    0.07610    0.85926    1.000
    C19      C        0.09330    0.37550    0.00952    1.000
    H13      H        0.10350    0.30980    0.01100    1.000
    C20      C        0.10340    0.42610    0.98429    1.000
    H14      H        0.11970    0.39540    0.96860    1.000
    C21      C        0.05450    0.50510    0.02897    1.000
    H15      H        0.03630    0.53210    0.04450    1.000
    C22      C        0.06360    0.56150    0.00457    1.000
    H16      H        0.05220    0.62640    0.00340    1.000
    C23      C        0.08960    0.52240    0.98173    1.000
    C24      C        0.10160    0.58050    0.95515    1.000
    C25      C        0.04240    0.96030    0.94390    1.000
    H17      H        0.02260    0.98810    0.95840    1.000
    C26      C        0.05840    0.86670    0.94837    1.000
    H18      H        0.05000    0.83130    0.96560    1.000
    C27      C        0.08100    0.97360    0.90054    1.000
    H19      H        0.08870    0.01070    0.88350    1.000
    C28      C        0.09890    0.88050    0.90341    1.000
    H20      H        0.11940    0.85530    0.88890    1.000
    C29      C        0.08700    0.82540    0.92729    1.000
    C30      C        0.10160    0.72220    0.93017    1.000
    C31      C        0.19890    0.53340    0.84040    1.000
    H21      H        0.21410    0.56770    0.82490    1.000
    C32      C        0.17750    0.58720    0.86264    1.000
    H22      H        0.17760    0.65650    0.86220    1.000
    C33      C        0.17710    0.39010    0.86105    1.000
    H23      H        0.17570    0.32080    0.86030    1.000
    C34      C        0.15570    0.43700    0.88458    1.000
    H24      H        0.14100    0.40080    0.89990    1.000
    C35      C        0.15630    0.53740    0.88515    1.000
    C36      C        0.13400    0.58910    0.90989    1.000
    N1       N        0.95930    0.11310    0.89572    1.000
    N2       N        0.76990    0.92910    0.72873    1.000
    N3       N        0.62400    0.12090    0.90733    1.000
    N4       N        0.82590    0.04850    0.82737    1.000
    N5       N        0.74427    0.05260    0.83064    1.000
    N6       N        0.78930    0.08650    0.87295    1.000
    N7       N        0.19910    0.43590    0.83970    1.000
    N8       N        0.07010    0.41370    0.03193    1.000
    N9       N        0.05333    0.01290    0.92067    1.000
    N10      N        0.12300    0.53390    0.93342    1.000
    N11      N        0.09040    0.67470    0.95489    1.000
    N12      N        0.12467    0.68390    0.90722    1.000
    Zn4      Zn       0.47720    0.85278    0.41413    1.000
    Zn5      Zn       0.93642    0.84145    0.42874    1.000
    Zn6      Zn       0.73777    0.14406    0.18945    1.000
    I7       I        0.49162    0.78200    0.46570    1.000
    I8       I        0.43109    0.76517    0.37459    1.000
    I9       I        0.92566    0.65827    0.43970    1.000
    I10      I        0.00315    0.91046    0.39963    1.000
    I11      I        0.69874    0.30977    0.19442    1.000
    I12      I        0.82164    0.13760    0.17284    1.000
    C37      C        0.57940    0.88630    0.41222    1.000
    H25      H        0.57680    0.87620    0.43300    1.000
    C38      C        0.62300    0.89980    0.39996    1.000
    H26      H        0.64980    0.89940    0.41220    1.000
    C39      C        0.54480    0.90330    0.36697    1.000
    H27      H        0.51750    0.90530    0.35530    1.000
    C40      C        0.58700    0.91760    0.35323    1.000
    H28      H        0.58840    0.92980    0.33260    1.000
    C41      C        0.62710    0.91390    0.36995    1.000
    C42      C        0.67330    0.92650    0.35606    1.000
    C43      C        0.68980    0.07540    0.24285    1.000
    H29      H        0.66430    0.10600    0.23330    1.000
    C44      C        0.68360    0.03720    0.27091    1.000
    H30      H        0.65410    0.03990    0.28020    1.000
    C45      C        0.76580    0.02880    0.24214    1.000
    H31      H        0.79460    0.02450    0.23200    1.000
    C46      C        0.76240    0.99100    0.27043    1.000
    H32      H        0.78860    0.96220    0.27970    1.000
    C47      C        0.72040    0.99560    0.28498    1.000
    C48      C        0.71650    0.96170    0.31613    1.000
    C49      C        0.87670    0.90380    0.37855    1.000
    H33      H        0.90580    0.91120    0.36900    1.000
    C50      C        0.83700    0.91890    0.36238    1.000
    H34      H        0.83880    0.93520    0.34200    1.000
    C51      C        0.83490    0.87140    0.42047    1.000
    H35      H        0.83420    0.85430    0.44080    1.000
    C52      C        0.79350    0.88680    0.40626    1.000
    H36      H        0.76500    0.88180    0.41660    1.000
    C53      C        0.79430    0.90990    0.37615    1.000
    C54      C        0.75080    0.92390    0.35926    1.000
    C55      C        0.40670    0.62450    0.50952    1.000
    H37      H        0.39650    0.69020    0.51100    1.000
    C56      C        0.39660    0.57390    0.48429    1.000
    H38      H        0.38030    0.60460    0.46860    1.000
    C57      C        0.44550    0.49490    0.52897    1.000
    H39      H        0.46370    0.46790    0.54450    1.000
    C58      C        0.43640    0.43850    0.50457    1.000
    H40      H        0.44780    0.37360    0.50340    1.000
    C59      C        0.41040    0.47760    0.48173    1.000
    C60      C        0.39840    0.41950    0.45515    1.000
    C61      C        0.45760    0.03970    0.44390    1.000
    H41      H        0.47740    0.01190    0.45840    1.000
    C62      C        0.44160    0.13330    0.44837    1.000
    H42      H        0.45000    0.16870    0.46560    1.000
    C63      C        0.41900    0.02640    0.40054    1.000
    H43      H        0.41130    0.98930    0.38350    1.000
    C64      C        0.40110    0.11950    0.40341    1.000
    H44      H        0.38060    0.14470    0.38890    1.000
    C65      C        0.41300    0.17460    0.42729    1.000
    C66      C        0.39840    0.27780    0.43017    1.000
    C67      C        0.30110    0.46660    0.34040    1.000
    H45      H        0.28590    0.43230    0.32490    1.000
    C68      C        0.32250    0.41280    0.36264    1.000
    H46      H        0.32240    0.34350    0.36220    1.000
    C69      C        0.32290    0.60990    0.36105    1.000
    H47      H        0.32430    0.67920    0.36030    1.000
    C70      C        0.34430    0.56300    0.38458    1.000
    H48      H        0.35900    0.59920    0.39990    1.000
    C71      C        0.34370    0.46260    0.38515    1.000
    C72      C        0.36600    0.41090    0.40989    1.000
    N13      N        0.54070    0.88690    0.39572    1.000
    N14      N        0.73010    0.07090    0.22873    1.000
    N15      N        0.87600    0.87910    0.40733    1.000
    N16      N        0.67410    0.95150    0.32737    1.000
    N17      N        0.75573    0.94740    0.33064    1.000
    N18      N        0.71070    0.91350    0.37295    1.000
    N19      N        0.30090    0.56410    0.33970    1.000
    N20      N        0.42990    0.58630    0.53193    1.000
    N21      N        0.44667    0.98710    0.42067    1.000
    N22      N        0.37700    0.46610    0.43342    1.000
    N23      N        0.40960    0.32530    0.45489    1.000
    N24      N        0.37533    0.31610    0.40722    1.000
    Zn7      Zn       0.97720    0.64722    0.58587    1.000
    Zn8      Zn       0.43642    0.65855    0.57126    1.000
    Zn9      Zn       0.23777    0.35594    0.81055    1.000
    I13      I        0.99162    0.71800    0.53430    1.000
    I14      I        0.93109    0.73483    0.62541    1.000
    I15      I        0.42566    0.84173    0.56030    1.000
    I16      I        0.50315    0.58954    0.60037    1.000
    I17      I        0.19874    0.19023    0.80558    1.000
    I18      I        0.32164    0.36240    0.82716    1.000
    C73      C        0.07940    0.61370    0.58778    1.000
    H49      H        0.07680    0.62380    0.56700    1.000
    C74      C        0.12300    0.60020    0.60004    1.000
    H50      H        0.14980    0.60060    0.58780    1.000
    C75      C        0.04480    0.59670    0.63303    1.000
    H51      H        0.01750    0.59470    0.64470    1.000
    C76      C        0.08700    0.58240    0.64677    1.000
    H52      H        0.08840    0.57020    0.66740    1.000
    C77      C        0.12710    0.58610    0.63005    1.000
    C78      C        0.17330    0.57350    0.64394    1.000
    C79      C        0.18980    0.42460    0.75715    1.000
    H53      H        0.16430    0.39400    0.76670    1.000
    C80      C        0.18360    0.46280    0.72909    1.000
    H54      H        0.15410    0.46010    0.71980    1.000
    C81      C        0.26580    0.47120    0.75786    1.000
    H55      H        0.29460    0.47550    0.76800    1.000
    C82      C        0.26240    0.50900    0.72957    1.000
    H56      H        0.28860    0.53780    0.72030    1.000
    C83      C        0.22040    0.50440    0.71502    1.000
    C84      C        0.21650    0.53830    0.68387    1.000
    C85      C        0.37670    0.59620    0.62145    1.000
    H57      H        0.40580    0.58880    0.63100    1.000
    C86      C        0.33700    0.58110    0.63762    1.000
    H58      H        0.33880    0.56480    0.65800    1.000
    C87      C        0.33490    0.62860    0.57953    1.000
    H59      H        0.33420    0.64570    0.55920    1.000
    C88      C        0.29350    0.61320    0.59374    1.000
    H60      H        0.26500    0.61820    0.58340    1.000
    C89      C        0.29430    0.59010    0.62385    1.000
    C90      C        0.25080    0.57610    0.64074    1.000
    C91      C        0.90670    0.87550    0.49048    1.000
    H61      H        0.89650    0.80980    0.48900    1.000
    C92      C        0.89660    0.92610    0.51571    1.000
    H62      H        0.88030    0.89540    0.53140    1.000
    C93      C        0.94550    0.00510    0.47103    1.000
    H63      H        0.96370    0.03210    0.45550    1.000
    C94      C        0.93640    0.06150    0.49543    1.000
    H64      H        0.94780    0.12640    0.49660    1.000
    C95      C        0.91040    0.02240    0.51827    1.000
    C96      C        0.89840    0.08050    0.54485    1.000
    C97      C        0.95760    0.46030    0.55610    1.000
    H65      H        0.97740    0.48810    0.54160    1.000
    C98      C        0.94160    0.36670    0.55163    1.000
    H66      H        0.95000    0.33130    0.53440    1.000
    C99      C        0.91900    0.47360    0.59946    1.000
    H67      H        0.91130    0.51070    0.61650    1.000
    C100     C        0.90110    0.38050    0.59659    1.000
    H68      H        0.88060    0.35530    0.61110    1.000
    C101     C        0.91300    0.32540    0.57271    1.000
    C102     C        0.89840    0.22220    0.56983    1.000
    C103     C        0.80110    0.03340    0.65960    1.000
    H69      H        0.78590    0.06770    0.67510    1.000
    C104     C        0.82250    0.08720    0.63736    1.000
    H70      H        0.82240    0.15650    0.63780    1.000
    C105     C        0.82290    0.89010    0.63895    1.000
    H71      H        0.82430    0.82080    0.63970    1.000
    C106     C        0.84430    0.93700    0.61542    1.000
    H72      H        0.85900    0.90080    0.60010    1.000
    C107     C        0.84370    0.03740    0.61485    1.000
    C108     C        0.86600    0.08910    0.59011    1.000
    N25      N        0.04070    0.61310    0.60428    1.000
    N26      N        0.23010    0.42910    0.77127    1.000
    N27      N        0.37600    0.62090    0.59267    1.000
    N28      N        0.17410    0.54850    0.67263    1.000
    N29      N        0.25573    0.55260    0.66936    1.000
    N30      N        0.21070    0.58650    0.62705    1.000
    N31      N        0.80090    0.93590    0.66030    1.000
    N32      N        0.92990    0.91370    0.46807    1.000
    N33      N        0.94667    0.51290    0.57933    1.000
    N34      N        0.87700    0.03390    0.56658    1.000
    N35      N        0.90960    0.17470    0.54511    1.000
    N36      N        0.87533    0.18390    0.59278    1.000
    Zn10     Zn       0.52280    0.35278    0.08587    1.000
    Zn11     Zn       0.06358    0.34145    0.07126    1.000
    Zn12     Zn       0.26223    0.64406    0.31055    1.000
    I19      I        0.50838    0.28200    0.03430    1.000
    I20      I        0.56891    0.26517    0.12541    1.000
    I21      I        0.07434    0.15827    0.06030    1.000
    I22      I        0.99685    0.41046    0.10037    1.000
    I23      I        0.30126    0.80977    0.30558    1.000
    I24      I        0.17836    0.63760    0.32716    1.000
    C109     C        0.42060    0.38630    0.08778    1.000
    H73      H        0.42320    0.37620    0.06700    1.000
    C110     C        0.37700    0.39980    0.10004    1.000
    H74      H        0.35020    0.39940    0.08780    1.000
    C111     C        0.45520    0.40330    0.13303    1.000
    H75      H        0.48250    0.40530    0.14470    1.000
    C112     C        0.41300    0.41760    0.14677    1.000
    H76      H        0.41160    0.42980    0.16740    1.000
    C113     C        0.37290    0.41390    0.13005    1.000
    C114     C        0.32670    0.42650    0.14394    1.000
    C115     C        0.31020    0.57540    0.25715    1.000
    H77      H        0.33570    0.60600    0.26670    1.000
    C116     C        0.31640    0.53720    0.22909    1.000
    H78      H        0.34590    0.53990    0.21980    1.000
    C117     C        0.23420    0.52880    0.25786    1.000
    H79      H        0.20540    0.52450    0.26800    1.000
    C118     C        0.23760    0.49100    0.22957    1.000
    H80      H        0.21140    0.46220    0.22030    1.000
    C119     C        0.27960    0.49560    0.21502    1.000
    C120     C        0.28350    0.46170    0.18387    1.000
    C121     C        0.12330    0.40380    0.12145    1.000
    H81      H        0.09420    0.41120    0.13100    1.000
    C122     C        0.16300    0.41890    0.13762    1.000
    H82      H        0.16120    0.43520    0.15800    1.000
    C123     C        0.16510    0.37140    0.07953    1.000
    H83      H        0.16580    0.35430    0.05920    1.000
    C124     C        0.20650    0.38680    0.09374    1.000
    H84      H        0.23500    0.38180    0.08340    1.000
    C125     C        0.20570    0.40990    0.12385    1.000
    C126     C        0.24920    0.42390    0.14074    1.000
    C127     C        0.59330    0.12450    0.99048    1.000
    H85      H        0.60350    0.19020    0.98900    1.000
    C128     C        0.60340    0.07390    0.01571    1.000
    H86      H        0.61970    0.10460    0.03140    1.000
    C129     C        0.55450    0.99490    0.97103    1.000
    H87      H        0.53630    0.96790    0.95550    1.000
    C130     C        0.56360    0.93850    0.99543    1.000
    H88      H        0.55220    0.87360    0.99660    1.000
    C131     C        0.58960    0.97760    0.01827    1.000
    C132     C        0.60160    0.91950    0.04485    1.000
    C133     C        0.54240    0.53970    0.05610    1.000
    H89      H        0.52260    0.51190    0.04160    1.000
    C134     C        0.55840    0.63330    0.05163    1.000
    H90      H        0.55000    0.66870    0.03440    1.000
    C135     C        0.58100    0.52640    0.09946    1.000
    H91      H        0.58870    0.48930    0.11650    1.000
    C136     C        0.59890    0.61950    0.09659    1.000
    H92      H        0.61940    0.64470    0.11110    1.000
    C137     C        0.58700    0.67460    0.07271    1.000
    C138     C        0.60160    0.77780    0.06983    1.000
    C139     C        0.69890    0.96660    0.15960    1.000
    H93      H        0.71410    0.93230    0.17510    1.000
    C140     C        0.67750    0.91280    0.13736    1.000
    H94      H        0.67760    0.84350    0.13780    1.000
    C141     C        0.67710    0.10990    0.13895    1.000
    H95      H        0.67570    0.17920    0.13970    1.000
    C142     C        0.65570    0.06300    0.11542    1.000
    H96      H        0.64100    0.09920    0.10010    1.000
    C143     C        0.65630    0.96260    0.11485    1.000
    C144     C        0.63400    0.91090    0.09011    1.000
    N37      N        0.45930    0.38690    0.10428    1.000
    N38      N        0.26990    0.57090    0.27127    1.000
    N39      N        0.12400    0.37910    0.09267    1.000
    N40      N        0.32590    0.45150    0.17263    1.000
    N41      N        0.24427    0.44740    0.16936    1.000
    N42      N        0.28930    0.41350    0.12705    1.000
    N43      N        0.69910    0.06410    0.16030    1.000
    N44      N        0.57010    0.08630    0.96807    1.000
    N45      N        0.55333    0.48710    0.07933    1.000
    N46      N        0.62300    0.96610    0.06658    1.000
    N47      N        0.59040    0.82530    0.04511    1.000
    N48      N        0.62467    0.81610    0.09278    1.000
    Zn13     Zn       0.97720    0.85278    0.08587    1.000
    Zn14     Zn       0.43642    0.84145    0.07126    1.000
    Zn15     Zn       0.23777    0.14406    0.31055    1.000
    I25      I        0.99162    0.78200    0.03430    1.000
    I26      I        0.93109    0.76517    0.12541    1.000
    I27      I        0.42566    0.65827    0.06030    1.000
    I28      I        0.50315    0.91046    0.10037    1.000
    I29      I        0.19874    0.30977    0.30558    1.000
    I30      I        0.32164    0.13760    0.32716    1.000
    C145     C        0.07940    0.88630    0.08778    1.000
    H97      H        0.07680    0.87620    0.06700    1.000
    C146     C        0.12300    0.89980    0.10004    1.000
    H98      H        0.14980    0.89940    0.08780    1.000
    C147     C        0.04480    0.90330    0.13303    1.000
    H99      H        0.01750    0.90530    0.14470    1.000
    C148     C        0.08700    0.91760    0.14677    1.000
    H100     H        0.08840    0.92980    0.16740    1.000
    C149     C        0.12710    0.91390    0.13005    1.000
    C150     C        0.17330    0.92650    0.14394    1.000
    C151     C        0.18980    0.07540    0.25715    1.000
    H101     H        0.16430    0.10600    0.26670    1.000
    C152     C        0.18360    0.03720    0.22909    1.000
    H102     H        0.15410    0.03990    0.21980    1.000
    C153     C        0.26580    0.02880    0.25786    1.000
    H103     H        0.29460    0.02450    0.26800    1.000
    C154     C        0.26240    0.99100    0.22957    1.000
    H104     H        0.28860    0.96220    0.22030    1.000
    C155     C        0.22040    0.99560    0.21502    1.000
    C156     C        0.21650    0.96170    0.18387    1.000
    C157     C        0.37670    0.90380    0.12145    1.000
    H105     H        0.40580    0.91120    0.13100    1.000
    C158     C        0.33700    0.91890    0.13762    1.000
    H106     H        0.33880    0.93520    0.15800    1.000
    C159     C        0.33490    0.87140    0.07953    1.000
    H107     H        0.33420    0.85430    0.05920    1.000
    C160     C        0.29350    0.88680    0.09374    1.000
    H108     H        0.26500    0.88180    0.08340    1.000
    C161     C        0.29430    0.90990    0.12385    1.000
    C162     C        0.25080    0.92390    0.14074    1.000
    C163     C        0.90670    0.62450    0.99048    1.000
    H109     H        0.89650    0.69020    0.98900    1.000
    C164     C        0.89660    0.57390    0.01571    1.000
    H110     H        0.88030    0.60460    0.03140    1.000
    C165     C        0.94550    0.49490    0.97103    1.000
    H111     H        0.96370    0.46790    0.95550    1.000
    C166     C        0.93640    0.43850    0.99543    1.000
    H112     H        0.94780    0.37360    0.99660    1.000
    C167     C        0.91040    0.47760    0.01827    1.000
    C168     C        0.89840    0.41950    0.04485    1.000
    C169     C        0.95760    0.03970    0.05610    1.000
    H113     H        0.97740    0.01190    0.04160    1.000
    C170     C        0.94160    0.13330    0.05163    1.000
    H114     H        0.95000    0.16870    0.03440    1.000
    C171     C        0.91900    0.02640    0.09946    1.000
    H115     H        0.91130    0.98930    0.11650    1.000
    C172     C        0.90110    0.11950    0.09659    1.000
    H116     H        0.88060    0.14470    0.11110    1.000
    C173     C        0.91300    0.17460    0.07271    1.000
    C174     C        0.89840    0.27780    0.06983    1.000
    C175     C        0.80110    0.46660    0.15960    1.000
    H117     H        0.78590    0.43230    0.17510    1.000
    C176     C        0.82250    0.41280    0.13736    1.000
    H118     H        0.82240    0.34350    0.13780    1.000
    C177     C        0.82290    0.60990    0.13895    1.000
    H119     H        0.82430    0.67920    0.13970    1.000
    C178     C        0.84430    0.56300    0.11542    1.000
    H120     H        0.85900    0.59920    0.10010    1.000
    C179     C        0.84370    0.46260    0.11485    1.000
    C180     C        0.86600    0.41090    0.09011    1.000
    N49      N        0.04070    0.88690    0.10428    1.000
    N50      N        0.23010    0.07090    0.27127    1.000
    N51      N        0.37600    0.87910    0.09267    1.000
    N52      N        0.17410    0.95150    0.17263    1.000
    N53      N        0.25573    0.94740    0.16936    1.000
    N54      N        0.21070    0.91350    0.12705    1.000
    N55      N        0.80090    0.56410    0.16030    1.000
    N56      N        0.92990    0.58630    0.96807    1.000
    N57      N        0.94667    0.98710    0.07933    1.000
    N58      N        0.87700    0.46610    0.06658    1.000
    N59      N        0.90960    0.32530    0.04511    1.000
    N60      N        0.87533    0.31610    0.09278    1.000
    Zn16     Zn       0.52280    0.14722    0.58587    1.000
    Zn17     Zn       0.06358    0.15855    0.57126    1.000
    Zn18     Zn       0.26223    0.85594    0.81055    1.000
    I31      I        0.50838    0.21800    0.53430    1.000
    I32      I        0.56891    0.23483    0.62541    1.000
    I33      I        0.07434    0.34173    0.56030    1.000
    I34      I        0.99685    0.08954    0.60037    1.000
    I35      I        0.30126    0.69023    0.80558    1.000
    I36      I        0.17836    0.86240    0.82716    1.000
    C181     C        0.42060    0.11370    0.58778    1.000
    H121     H        0.42320    0.12380    0.56700    1.000
    C182     C        0.37700    0.10020    0.60004    1.000
    H122     H        0.35020    0.10060    0.58780    1.000
    C183     C        0.45520    0.09670    0.63303    1.000
    H123     H        0.48250    0.09470    0.64470    1.000
    C184     C        0.41300    0.08240    0.64677    1.000
    H124     H        0.41160    0.07020    0.66740    1.000
    C185     C        0.37290    0.08610    0.63005    1.000
    C186     C        0.32670    0.07350    0.64394    1.000
    C187     C        0.31020    0.92460    0.75715    1.000
    H125     H        0.33570    0.89400    0.76670    1.000
    C188     C        0.31640    0.96280    0.72909    1.000
    H126     H        0.34590    0.96010    0.71980    1.000
    C189     C        0.23420    0.97120    0.75786    1.000
    H127     H        0.20540    0.97550    0.76800    1.000
    C190     C        0.23760    0.00900    0.72957    1.000
    H128     H        0.21140    0.03780    0.72030    1.000
    C191     C        0.27960    0.00440    0.71502    1.000
    C192     C        0.28350    0.03830    0.68387    1.000
    C193     C        0.12330    0.09620    0.62145    1.000
    H129     H        0.09420    0.08880    0.63100    1.000
    C194     C        0.16300    0.08110    0.63762    1.000
    H130     H        0.16120    0.06480    0.65800    1.000
    C195     C        0.16510    0.12860    0.57953    1.000
    H131     H        0.16580    0.14570    0.55920    1.000
    C196     C        0.20650    0.11320    0.59374    1.000
    H132     H        0.23500    0.11820    0.58340    1.000
    C197     C        0.20570    0.09010    0.62385    1.000
    C198     C        0.24920    0.07610    0.64074    1.000
    C199     C        0.59330    0.37550    0.49048    1.000
    H133     H        0.60350    0.30980    0.48900    1.000
    C200     C        0.60340    0.42610    0.51571    1.000
    H134     H        0.61970    0.39540    0.53140    1.000
    C201     C        0.55450    0.50510    0.47103    1.000
    H135     H        0.53630    0.53210    0.45550    1.000
    C202     C        0.56360    0.56150    0.49543    1.000
    H136     H        0.55220    0.62640    0.49660    1.000
    C203     C        0.58960    0.52240    0.51827    1.000
    C204     C        0.60160    0.58050    0.54485    1.000
    C205     C        0.54240    0.96030    0.55610    1.000
    H137     H        0.52260    0.98810    0.54160    1.000
    C206     C        0.55840    0.86670    0.55163    1.000
    H138     H        0.55000    0.83130    0.53440    1.000
    C207     C        0.58100    0.97360    0.59946    1.000
    H139     H        0.58870    0.01070    0.61650    1.000
    C208     C        0.59890    0.88050    0.59659    1.000
    H140     H        0.61940    0.85530    0.61110    1.000
    C209     C        0.58700    0.82540    0.57271    1.000
    C210     C        0.60160    0.72220    0.56983    1.000
    C211     C        0.69890    0.53340    0.65960    1.000
    H141     H        0.71410    0.56770    0.67510    1.000
    C212     C        0.67750    0.58720    0.63736    1.000
    H142     H        0.67760    0.65650    0.63780    1.000
    C213     C        0.67710    0.39010    0.63895    1.000
    H143     H        0.67570    0.32080    0.63970    1.000
    C214     C        0.65570    0.43700    0.61542    1.000
    H144     H        0.64100    0.40080    0.60010    1.000
    C215     C        0.65630    0.53740    0.61485    1.000
    C216     C        0.63400    0.58910    0.59011    1.000
    N61      N        0.45930    0.11310    0.60428    1.000
    N62      N        0.26990    0.92910    0.77127    1.000
    N63      N        0.12400    0.12090    0.59267    1.000
    N64      N        0.32590    0.04850    0.67263    1.000
    N65      N        0.24427    0.05260    0.66936    1.000
    N66      N        0.28930    0.08650    0.62705    1.000
    N67      N        0.69910    0.43590    0.66030    1.000
    N68      N        0.57010    0.41370    0.46807    1.000
    N69      N        0.55333    0.01290    0.57933    1.000
    N70      N        0.62300    0.53390    0.56658    1.000
    N71      N        0.59040    0.67470    0.54511    1.000
    N72      N        0.62467    0.68390    0.59278    1.000
    Zn19     Zn       0.02280    0.35278    0.41413    1.000
    Zn20     Zn       0.56358    0.34145    0.42874    1.000
    Zn21     Zn       0.76223    0.64406    0.18945    1.000
    I37      I        0.00838    0.28200    0.46570    1.000
    I38      I        0.06891    0.26517    0.37459    1.000
    I39      I        0.57434    0.15827    0.43970    1.000
    I40      I        0.49685    0.41046    0.39963    1.000
    I41      I        0.80126    0.80977    0.19442    1.000
    I42      I        0.67836    0.63760    0.17284    1.000
    C217     C        0.92060    0.38630    0.41222    1.000
    H145     H        0.92320    0.37620    0.43300    1.000
    C218     C        0.87700    0.39980    0.39996    1.000
    H146     H        0.85020    0.39940    0.41220    1.000
    C219     C        0.95520    0.40330    0.36697    1.000
    H147     H        0.98250    0.40530    0.35530    1.000
    C220     C        0.91300    0.41760    0.35323    1.000
    H148     H        0.91160    0.42980    0.33260    1.000
    C221     C        0.87290    0.41390    0.36995    1.000
    C222     C        0.82670    0.42650    0.35606    1.000
    C223     C        0.81020    0.57540    0.24285    1.000
    H149     H        0.83570    0.60600    0.23330    1.000
    C224     C        0.81640    0.53720    0.27091    1.000
    H150     H        0.84590    0.53990    0.28020    1.000
    C225     C        0.73420    0.52880    0.24214    1.000
    H151     H        0.70540    0.52450    0.23200    1.000
    C226     C        0.73760    0.49100    0.27043    1.000
    H152     H        0.71140    0.46220    0.27970    1.000
    C227     C        0.77960    0.49560    0.28498    1.000
    C228     C        0.78350    0.46170    0.31613    1.000
    C229     C        0.62330    0.40380    0.37855    1.000
    H153     H        0.59420    0.41120    0.36900    1.000
    C230     C        0.66300    0.41890    0.36238    1.000
    H154     H        0.66120    0.43520    0.34200    1.000
    C231     C        0.66510    0.37140    0.42047    1.000
    H155     H        0.66580    0.35430    0.44080    1.000
    C232     C        0.70650    0.38680    0.40626    1.000
    H156     H        0.73500    0.38180    0.41660    1.000
    C233     C        0.70570    0.40990    0.37615    1.000
    C234     C        0.74920    0.42390    0.35926    1.000
    C235     C        0.09330    0.12450    0.50952    1.000
    H157     H        0.10350    0.19020    0.51100    1.000
    C236     C        0.10340    0.07390    0.48429    1.000
    H158     H        0.11970    0.10460    0.46860    1.000
    C237     C        0.05450    0.99490    0.52897    1.000
    H159     H        0.03630    0.96790    0.54450    1.000
    C238     C        0.06360    0.93850    0.50457    1.000
    H160     H        0.05220    0.87360    0.50340    1.000
    C239     C        0.08960    0.97760    0.48173    1.000
    C240     C        0.10160    0.91950    0.45515    1.000
    C241     C        0.04240    0.53970    0.44390    1.000
    H161     H        0.02260    0.51190    0.45840    1.000
    C242     C        0.05840    0.63330    0.44837    1.000
    H162     H        0.05000    0.66870    0.46560    1.000
    C243     C        0.08100    0.52640    0.40054    1.000
    H163     H        0.08870    0.48930    0.38350    1.000
    C244     C        0.09890    0.61950    0.40341    1.000
    H164     H        0.11940    0.64470    0.38890    1.000
    C245     C        0.08700    0.67460    0.42729    1.000
    C246     C        0.10160    0.77780    0.43017    1.000
    C247     C        0.19890    0.96660    0.34040    1.000
    H165     H        0.21410    0.93230    0.32490    1.000
    C248     C        0.17750    0.91280    0.36264    1.000
    H166     H        0.17760    0.84350    0.36220    1.000
    C249     C        0.17710    0.10990    0.36105    1.000
    H167     H        0.17570    0.17920    0.36030    1.000
    C250     C        0.15570    0.06300    0.38458    1.000
    H168     H        0.14100    0.09920    0.39990    1.000
    C251     C        0.15630    0.96260    0.38515    1.000
    C252     C        0.13400    0.91090    0.40989    1.000
    N73      N        0.95930    0.38690    0.39572    1.000
    N74      N        0.76990    0.57090    0.22873    1.000
    N75      N        0.62400    0.37910    0.40733    1.000
    N76      N        0.82590    0.45150    0.32737    1.000
    N77      N        0.74427    0.44740    0.33064    1.000
    N78      N        0.78930    0.41350    0.37295    1.000
    N79      N        0.19910    0.06410    0.33970    1.000
    N80      N        0.07010    0.08630    0.53193    1.000
    N81      N        0.05333    0.48710    0.42067    1.000
    N82      N        0.12300    0.96610    0.43342    1.000
    N83      N        0.09040    0.82530    0.45489    1.000
    N84      N        0.12467    0.81610    0.40722    1.000
    Zn22     Zn       0.47720    0.64722    0.91413    1.000
    Zn23     Zn       0.93642    0.65855    0.92874    1.000
    Zn24     Zn       0.73777    0.35594    0.68945    1.000
    I43      I        0.49162    0.71800    0.96570    1.000
    I44      I        0.43109    0.73483    0.87459    1.000
    I45      I        0.92566    0.84173    0.93970    1.000
    I46      I        0.00315    0.58954    0.89963    1.000
    I47      I        0.69874    0.19023    0.69442    1.000
    I48      I        0.82164    0.36240    0.67284    1.000
    C253     C        0.57940    0.61370    0.91222    1.000
    H169     H        0.57680    0.62380    0.93300    1.000
    C254     C        0.62300    0.60020    0.89996    1.000
    H170     H        0.64980    0.60060    0.91220    1.000
    C255     C        0.54480    0.59670    0.86697    1.000
    H171     H        0.51750    0.59470    0.85530    1.000
    C256     C        0.58700    0.58240    0.85323    1.000
    H172     H        0.58840    0.57020    0.83260    1.000
    C257     C        0.62710    0.58610    0.86995    1.000
    C258     C        0.67330    0.57350    0.85606    1.000
    C259     C        0.68980    0.42460    0.74285    1.000
    H173     H        0.66430    0.39400    0.73330    1.000
    C260     C        0.68360    0.46280    0.77091    1.000
    H174     H        0.65410    0.46010    0.78020    1.000
    C261     C        0.76580    0.47120    0.74214    1.000
    H175     H        0.79460    0.47550    0.73200    1.000
    C262     C        0.76240    0.50900    0.77043    1.000
    H176     H        0.78860    0.53780    0.77970    1.000
    C263     C        0.72040    0.50440    0.78498    1.000
    C264     C        0.71650    0.53830    0.81613    1.000
    C265     C        0.87670    0.59620    0.87855    1.000
    H177     H        0.90580    0.58880    0.86900    1.000
    C266     C        0.83700    0.58110    0.86238    1.000
    H178     H        0.83880    0.56480    0.84200    1.000
    C267     C        0.83490    0.62860    0.92047    1.000
    H179     H        0.83420    0.64570    0.94080    1.000
    C268     C        0.79350    0.61320    0.90626    1.000
    H180     H        0.76500    0.61820    0.91660    1.000
    C269     C        0.79430    0.59010    0.87615    1.000
    C270     C        0.75080    0.57610    0.85926    1.000
    C271     C        0.40670    0.87550    0.00952    1.000
    H181     H        0.39650    0.80980    0.01100    1.000
    C272     C        0.39660    0.92610    0.98429    1.000
    H182     H        0.38030    0.89540    0.96860    1.000
    C273     C        0.44550    0.00510    0.02897    1.000
    H183     H        0.46370    0.03210    0.04450    1.000
    C274     C        0.43640    0.06150    0.00457    1.000
    H184     H        0.44780    0.12640    0.00340    1.000
    C275     C        0.41040    0.02240    0.98173    1.000
    C276     C        0.39840    0.08050    0.95515    1.000
    C277     C        0.45760    0.46030    0.94390    1.000
    H185     H        0.47740    0.48810    0.95840    1.000
    C278     C        0.44160    0.36670    0.94837    1.000
    H186     H        0.45000    0.33130    0.96560    1.000
    C279     C        0.41900    0.47360    0.90054    1.000
    H187     H        0.41130    0.51070    0.88350    1.000
    C280     C        0.40110    0.38050    0.90341    1.000
    H188     H        0.38060    0.35530    0.88890    1.000
    C281     C        0.41300    0.32540    0.92729    1.000
    C282     C        0.39840    0.22220    0.93017    1.000
    C283     C        0.30110    0.03340    0.84040    1.000
    H189     H        0.28590    0.06770    0.82490    1.000
    C284     C        0.32250    0.08720    0.86264    1.000
    H190     H        0.32240    0.15650    0.86220    1.000
    C285     C        0.32290    0.89010    0.86105    1.000
    H191     H        0.32430    0.82080    0.86030    1.000
    C286     C        0.34430    0.93700    0.88458    1.000
    H192     H        0.35900    0.90080    0.89990    1.000
    C287     C        0.34370    0.03740    0.88515    1.000
    C288     C        0.36600    0.08910    0.90989    1.000
    N85      N        0.54070    0.61310    0.89572    1.000
    N86      N        0.73010    0.42910    0.72873    1.000
    N87      N        0.87600    0.62090    0.90733    1.000
    N88      N        0.67410    0.54850    0.82737    1.000
    N89      N        0.75573    0.55260    0.83064    1.000
    N90      N        0.71070    0.58650    0.87295    1.000
    N91      N        0.30090    0.93590    0.83970    1.000
    N92      N        0.42990    0.91370    0.03193    1.000
    N93      N        0.44667    0.51290    0.92067    1.000
    N94      N        0.37700    0.03390    0.93342    1.000
    N95      N        0.40960    0.17470    0.95489    1.000
    N96      N        0.37533    0.18390    0.90722    1.000
