data_functionalizedCrystal
_audit_creation_method	'EQeq! by Chris Wilmer'
_symmetry_space_group_name_H-M	'P1'
_symmetry_Int_Tables_number	1
_symmetry_cell_setting	triclinic
loop_
_symmetry_equiv_pos_as_xyz
  x,y,z
_cell_length_a	12.4957
_cell_length_b	15.3163
_cell_length_c	24.254
_cell_angle_alpha	90
_cell_angle_beta	102.304
_cell_angle_gamma	90
loop_
_atom_site_label
_atom_site_type_symbol
_atom_site_fract_x
_atom_site_fract_y
_atom_site_fract_z
_atom_site_charge
Mof_C 	C 	0.366	0.4777	0.26012	0.43
Mof_C 	C 	0.32272	0.40525	0.22071	-0.146
Mof_C 	C 	0.2285	0.41778	0.17842	0.007
Mof_H 	H 	0.192	0.4711	0.1755	0.026
Mof_C 	C 	0.18947	0.35131	0.14096	-0.016
Mof_C 	C 	0.246	0.27389	0.14511	-0.002
Mof_H 	H 	0.2216	0.2295	0.1194	0.046
Mof_C 	C 	0.3399	0.26079	0.1875	-0.134
Mof_C 	C 	0.3762	0.32655	0.22529	0.07
Mof_H 	H 	0.4374	0.3177	0.2541	0.011
Mof_C 	C 	0.4045	0.17772	0.18945	0.392
Mof_C 	C 	0.09056	0.36728	0.09489	-0.013
Mof_C 	C 	0.08692	0.44063	0.06228	-0.079
Mof_H 	H 	0.1452	0.4796	0.0706	0.053
Mof_C 	C 	0.00032	0.46004	0.01725	0.019
Mof_C 	C 	0.91318	0.39968	0.00763	-0.078
Mof_H 	H 	0.8537	0.41	0.978	0.053
Mof_C 	C 	0.91235	0.32587	0.04032	-0.017
Mof_C 	C 	0.0016	0.3076	0.08502	0.075
Mof_C 	C 	0.81701	0.26371	0.02862	-0.008
Mof_C 	C 	0.7821	0.22622	0.97552	-0.015
Mof_H 	H 	0.8143	0.2432	0.946	0.036
Mof_C 	C 	0.6991	0.16338	0.96608	-0.102
Mof_C 	C 	0.6509	0.13875	0.00991	0.045
Mof_H 	H 	0.5981	0.095	0.0043	0.043
Mof_C 	C 	0.6807	0.17875	0.06236	-0.127
Mof_C 	C 	0.7628	0.24115	0.07121	-0.007
Mof_H 	H 	0.7821	0.2685	0.1062	0.03
Mof_C 	C 	0.6628	0.11977	0.90916	0.368
Mof_C 	C 	0.6283	0.1513	0.1095	0.421
Mof_N 	N 	0.0043	0.23393	0.1178	-0.299
Mof_H 	H 	0.9506	0.1977	0.1112	0.144
Mof_H 	H 	0.0598	0.2242	0.1449	0.144
Mof_O 	O 	0.45556	0.46141	0.29452	-0.503
Mof_O 	O 	0.3147	0.54711	0.25678	-0.524
Mof_O 	O 	0.48737	0.16775	0.2282	-0.503
Mof_O 	O 	0.37003	0.12233	0.1515	-0.477
Mof_O 	O 	0.6443	0.19544	0.15284	-0.512
Mof_O 	O 	0.57025	0.08237	0.10072	-0.48
Mof_O 	O 	0.61091	0.04908	0.91116	-0.451
Mof_O 	O 	0.6828	0.15324	0.86612	-0.329
Mof_Zn	Zn	0.52892	0.53079	0.35635	1.243
Mof_Zn	Zn	0.34189	0.67874	0.26134	1.17
Mof_C 	C 	0.634	0.9777	0.23988	0.431
Mof_C 	C 	0.67728	0.90525	0.27929	-0.147
Mof_C 	C 	0.7715	0.91778	0.32158	0.006
Mof_H 	H 	0.808	0.9711	0.3245	0.025
Mof_C 	C 	0.81053	0.85131	0.35904	-0.017
Mof_C 	C 	0.754	0.77389	0.35489	-0.003
Mof_H 	H 	0.7784	0.7295	0.3806	0.046
Mof_C 	C 	0.6601	0.76079	0.3125	-0.134
Mof_C 	C 	0.6238	0.82655	0.27471	0.07
Mof_H 	H 	0.5626	0.8177	0.2459	0.011
Mof_C 	C 	0.5955	0.67772	0.31055	0.392
Mof_C 	C 	0.90944	0.86728	0.40511	-0.013
Mof_C 	C 	0.91308	0.94063	0.43772	-0.079
Mof_H 	H 	0.8548	0.9796	0.4294	0.053
Mof_C 	C 	0.99968	0.96004	0.48275	0.019
Mof_C 	C 	0.08682	0.89968	0.49237	-0.077
Mof_H 	H 	0.1463	0.91	0.522	0.052
Mof_C 	C 	0.08765	0.82587	0.45968	-0.018
Mof_C 	C 	0.9984	0.8076	0.41498	0.076
Mof_C 	C 	0.18299	0.76371	0.47138	-0.007
Mof_C 	C 	0.2179	0.72622	0.52448	-0.015
Mof_H 	H 	0.1857	0.7432	0.554	0.036
Mof_C 	C 	0.3009	0.66338	0.53392	-0.103
Mof_C 	C 	0.3491	0.63875	0.49009	0.047
Mof_H 	H 	0.4019	0.595	0.4957	0.043
Mof_C 	C 	0.3193	0.67875	0.43764	-0.127
Mof_C 	C 	0.2372	0.74115	0.42879	-0.007
Mof_H 	H 	0.2179	0.7685	0.3938	0.03
Mof_C 	C 	0.3372	0.61977	0.59084	0.368
Mof_C 	C 	0.3717	0.6513	0.3905	0.421
Mof_N 	N 	0.9957	0.73393	0.3822	-0.299
Mof_H 	H 	0.0494	0.6977	0.3888	0.144
Mof_H 	H 	0.9402	0.7242	0.3551	0.144
Mof_O 	O 	0.54444	0.96141	0.20548	-0.503
Mof_O 	O 	0.6853	0.04711	0.24322	-0.525
Mof_O 	O 	0.51263	0.66775	0.2718	-0.503
Mof_O 	O 	0.62997	0.62233	0.3485	-0.477
Mof_O 	O 	0.3557	0.69544	0.34716	-0.512
Mof_O 	O 	0.42975	0.58237	0.39928	-0.48
Mof_O 	O 	0.38909	0.54908	0.58884	-0.452
Mof_O 	O 	0.3172	0.65324	0.63388	-0.329
Mof_Zn	Zn	0.47108	0.03079	0.14365	1.242
Mof_Zn	Zn	0.65811	0.17874	0.23866	1.17
Mof_C 	C 	0.634	0.5223	0.73988	0.429
Mof_C 	C 	0.67728	0.59475	0.77929	-0.147
Mof_C 	C 	0.7715	0.58222	0.82158	0.006
Mof_H 	H 	0.808	0.5289	0.8245	0.025
Mof_C 	C 	0.81053	0.64869	0.85904	-0.017
Mof_C 	C 	0.754	0.72611	0.85489	-0.003
Mof_H 	H 	0.7784	0.7705	0.8806	0.046
Mof_C 	C 	0.6601	0.73921	0.8125	-0.134
Mof_C 	C 	0.6238	0.67345	0.77471	0.07
Mof_H 	H 	0.5626	0.6823	0.7459	0.011
Mof_C 	C 	0.5955	0.82228	0.81055	0.392
Mof_C 	C 	0.90944	0.63272	0.90511	-0.013
Mof_C 	C 	0.91308	0.55937	0.93772	-0.079
Mof_H 	H 	0.8548	0.5204	0.9294	0.053
Mof_C 	C 	0.99968	0.53996	0.98275	0.019
Mof_C 	C 	0.08682	0.60032	0.99237	-0.078
Mof_H 	H 	0.1463	0.59	0.022	0.053
Mof_C 	C 	0.08765	0.67413	0.95968	-0.017
Mof_C 	C 	0.9984	0.6924	0.91498	0.075
Mof_C 	C 	0.18299	0.73629	0.97138	-0.008
Mof_C 	C 	0.2179	0.77378	0.02448	-0.015
Mof_H 	H 	0.1857	0.7568	0.054	0.036
Mof_C 	C 	0.3009	0.83662	0.03392	-0.102
Mof_C 	C 	0.3491	0.86125	0.99009	0.045
Mof_H 	H 	0.4019	0.905	0.9957	0.043
Mof_C 	C 	0.3193	0.82125	0.93764	-0.127
Mof_C 	C 	0.2372	0.75885	0.92879	-0.007
Mof_H 	H 	0.2179	0.7315	0.8938	0.03
Mof_C 	C 	0.3372	0.88023	0.09084	0.368
Mof_C 	C 	0.3717	0.8487	0.8905	0.421
Mof_N 	N 	0.9957	0.76607	0.8822	-0.299
Mof_H 	H 	0.0494	0.8023	0.8888	0.144
Mof_H 	H 	0.9402	0.7758	0.8551	0.144
Mof_O 	O 	0.54444	0.53859	0.70548	-0.503
Mof_O 	O 	0.6853	0.45289	0.74322	-0.524
Mof_O 	O 	0.51263	0.83225	0.7718	-0.503
Mof_O 	O 	0.62997	0.87767	0.8485	-0.477
Mof_O 	O 	0.3557	0.80456	0.84716	-0.512
Mof_O 	O 	0.42975	0.91763	0.89928	-0.48
Mof_O 	O 	0.38909	0.95092	0.08884	-0.451
Mof_O 	O 	0.3172	0.84676	0.13388	-0.329
Mof_Zn	Zn	0.47108	0.46921	0.64365	1.243
Mof_Zn	Zn	0.65811	0.32126	0.73866	1.17
Mof_C 	C 	0.366	0.0223	0.76012	0.431
Mof_C 	C 	0.32272	0.09475	0.72071	-0.147
Mof_C 	C 	0.2285	0.08222	0.67842	0.006
Mof_H 	H 	0.192	0.0289	0.6755	0.025
Mof_C 	C 	0.18947	0.14869	0.64096	-0.017
Mof_C 	C 	0.246	0.22611	0.64511	-0.003
Mof_H 	H 	0.2216	0.2705	0.6194	0.046
Mof_C 	C 	0.3399	0.23921	0.6875	-0.134
Mof_C 	C 	0.3762	0.17345	0.72529	0.07
Mof_H 	H 	0.4374	0.1823	0.7541	0.011
Mof_C 	C 	0.4045	0.32228	0.68945	0.392
Mof_C 	C 	0.09056	0.13272	0.59489	-0.013
Mof_C 	C 	0.08692	0.05937	0.56228	-0.079
Mof_H 	H 	0.1452	0.0204	0.5706	0.053
Mof_C 	C 	0.00032	0.03996	0.51725	0.019
Mof_C 	C 	0.91318	0.10032	0.50763	-0.077
Mof_H 	H 	0.8537	0.09	0.478	0.052
Mof_C 	C 	0.91235	0.17413	0.54032	-0.018
Mof_C 	C 	0.0016	0.1924	0.58502	0.076
Mof_C 	C 	0.81701	0.23629	0.52862	-0.007
Mof_C 	C 	0.7821	0.27378	0.47552	-0.015
Mof_H 	H 	0.8143	0.2568	0.446	0.036
Mof_C 	C 	0.6991	0.33662	0.46608	-0.103
Mof_C 	C 	0.6509	0.36125	0.50991	0.047
Mof_H 	H 	0.5981	0.405	0.5043	0.043
Mof_C 	C 	0.6807	0.32125	0.56236	-0.127
Mof_C 	C 	0.7628	0.25885	0.57121	-0.007
Mof_H 	H 	0.7821	0.2315	0.6062	0.03
Mof_C 	C 	0.6628	0.38023	0.40916	0.368
Mof_C 	C 	0.6283	0.3487	0.6095	0.421
Mof_N 	N 	0.0043	0.26607	0.6178	-0.299
Mof_H 	H 	0.9506	0.3023	0.6112	0.144
Mof_H 	H 	0.0598	0.2758	0.6449	0.144
Mof_O 	O 	0.45556	0.03859	0.79452	-0.503
Mof_O 	O 	0.3147	0.95289	0.75678	-0.525
Mof_O 	O 	0.48737	0.33225	0.7282	-0.503
Mof_O 	O 	0.37003	0.37767	0.6515	-0.477
Mof_O 	O 	0.6443	0.30456	0.65284	-0.512
Mof_O 	O 	0.57025	0.41763	0.60072	-0.48
Mof_O 	O 	0.61091	0.45092	0.41116	-0.452
Mof_O 	O 	0.6828	0.34676	0.36612	-0.329
Mof_Zn	Zn	0.52892	0.96921	0.85635	1.242
Mof_Zn	Zn	0.34189	0.82126	0.76134	1.17
_end
