data_functionalizedCrystal
_audit_creation_method	'EQeq! by Chris Wilmer'
_symmetry_space_group_name_H-M	'P1'
_symmetry_Int_Tables_number	1
_symmetry_cell_setting	triclinic
loop_
_symmetry_equiv_pos_as_xyz
  x,y,z
_cell_length_a	24.2198
_cell_length_b	24.2248
_cell_length_c	24.2248
_cell_angle_alpha	70.5246
_cell_angle_beta	70.533
_cell_angle_gamma	109.467
loop_
_atom_site_label
_atom_site_type_symbol
_atom_site_fract_x
_atom_site_fract_y
_atom_site_fract_z
_atom_site_charge
Mof_Tb	Tb	0.64827	0.50008	0.95171	2.352
Mof_Tb	Tb	0.59998	0.95171	0.54821	2.347
Mof_Tb	Tb	0.14819	0.54821	0.50008	2.291
Mof_Tb	Tb	0.09998	0.45179	0.04829	2.234
Mof_Tb	Tb	0.64819	0.49992	0.45179	2.294
Mof_Tb	Tb	0.14827	0.04829	0.49992	2.239
Mof_Tb	Tb	0.69659	0	-0	2.151
Mof_Tb	Tb	0.19659	0	-0	2.211
Mof_H 	H 	0.5082	0.5446	0.13	0.164
Mof_H 	H 	0.2791	0.4995	0.3159	0.142
Mof_H 	H 	0.3266	0.6477	0.9907	0.181
Mof_H 	H 	0.4746	0.8352	0.0303	0.153
Mof_H 	H 	0.3282	0.5378	0.1373	0.072
Mof_H 	H 	0.3339	0.5264	0.2027	0.075
Mof_H 	H 	0.4649	0.6869	0.143	0.069
Mof_H 	H 	0.4656	0.6187	0.1567	0.071
Mof_H 	H 	0.3787	0.7019	0.1097	0.078
Mof_H 	H 	0.3257	0.6367	0.181	0.072
Mof_H 	H 	0.419	0.6564	0.0276	0.07
Mof_H 	H 	0.4731	0.6416	0.0416	0.069
Mof_H 	H 	0.2942	0.4358	0.1691	0.121
Mof_H 	H 	0.2642	0.3217	0.1966	0.004
Mof_H 	H 	0.3509	0.3088	0.1357	0.095
Mof_H 	H 	0.4617	0.387	0.0873	0.008
Mof_H 	H 	0.627	0.6066	0.0243	0.037
Mof_H 	H 	0.6255	0.5604	0.0885	0.037
Mof_H 	H 	0.6236	0.7117	0.0112	0.081
Mof_H 	H 	0.6459	0.7945	0.0403	0.015
Mof_H 	H 	0.6545	0.7773	0.1341	0.113
Mof_H 	H 	0.6454	0.6768	0.2013	0.027
Mof_H 	H 	0.6193	0.5918	0.1754	0.085
Mof_H 	H 	0.5043	0.6783	0.2103	0.12
Mof_H 	H 	0.5307	0.6933	0.2916	0.003
Mof_H 	H 	0.4459	0.6623	0.3932	0.1
Mof_H 	H 	0.337	0.5922	0.4284	0.013
Mof_H 	H 	0.1553	0.4841	0.386	0.074
Mof_H 	H 	0.1602	0.4197	0.423	0.066
Mof_H 	H 	0.1673	0.5101	0.2623	0.109
Mof_H 	H 	0.1489	0.4552	0.2032	0.008
Mof_H 	H 	0.1458	0.3536	0.2318	0.128
Mof_H 	H 	0.1582	0.3031	0.3223	0.009
Mof_H 	H 	0.1779	0.3573	0.3807	0.104
Mof_H 	H 	0.2544	0.6702	0.1827	0.139
Mof_H 	H 	0.1681	0.6961	0.1861	-0.016
Mof_H 	H 	0.0903	0.6303	0.1668	0.117
Mof_H 	H 	0.1298	0.6022	0.0862	-0.02
Mof_H 	H 	0.2837	0.519	0.0135	0.014
Mof_H 	H 	0.2887	0.5648	0.9462	0.032
Mof_H 	H 	0.3735	0.5128	0.0133	0.021
Mof_H 	H 	0.484	0.5414	0.9594	0.071
Mof_H 	H 	0.5603	0.6355	0.8558	0.073
Mof_H 	H 	0.5247	0.7032	0.8014	0.065
Mof_H 	H 	0.4137	0.6757	0.8552	0.059
Mof_H 	H 	0.5348	0.7117	0.932	0.124
Mof_H 	H 	0.6349	0.7873	0.8267	0.008
Mof_H 	H 	0.7016	0.8937	0.8065	0.093
Mof_H 	H 	0.6694	0.9268	0.8828	0.032
Mof_H 	H 	0.5021	0.9086	0.0809	0.056
Mof_H 	H 	0.5053	0.8453	0.1205	0.056
Mof_H 	H 	0.4144	0.7594	0.2206	0.092
Mof_H 	H 	0.3006	0.7046	0.2936	0.023
Mof_H 	H 	0.231	0.7382	0.2642	0.108
Mof_H 	H 	0.2777	0.83	0.1583	0.032
Mof_H 	H 	0.3902	0.884	0.0854	0.094
Mof_H 	H 	0.6382	0.13	0.3254	0.163
Mof_H 	H 	0.595	0.3159	0.1846	0.138
Mof_H 	H 	0.3173	0.9907	0.3616	0.184
Mof_H 	H 	0.5049	0.0303	0.1345	0.145
Mof_H 	H 	0.4655	0.1373	0.3249	0.072
Mof_H 	H 	0.5366	0.2027	0.2709	0.075
Mof_H 	H 	0.6079	0.143	0.1701	0.073
Mof_H 	H 	0.6223	0.1567	0.2246	0.075
Mof_H 	H 	0.4884	0.1097	0.1884	0.078
Mof_H 	H 	0.5067	0.181	0.1823	0.072
Mof_H 	H 	0.4466	0.0276	0.316	0.069
Mof_H 	H 	0.5147	0.0416	0.3168	0.068
Mof_H 	H 	0.4633	0.1691	0.3951	0.121
Mof_H 	H 	0.4608	0.1966	0.4817	0.004
Mof_H 	H 	0.4866	0.1357	0.5555	0.096
Mof_H 	H 	0.549	0.0873	0.5257	0.008
Mof_H 	H 	0.6513	0.0243	0.3691	0.036
Mof_H 	H 	0.714	0.0885	0.3511	0.035
Mof_H 	H 	0.6348	0.0112	0.2771	0.078
Mof_H 	H 	0.6862	0.0403	0.1652	0.015
Mof_H 	H 	0.7886	0.1341	0.0886	0.103
Mof_H 	H 	0.8467	0.2013	0.1219	0.026
Mof_H 	H 	0.7947	0.1754	0.2328	0.083
Mof_H 	H 	0.7146	0.2103	0.1114	0.071
Mof_H 	H 	0.8223	0.2916	0.0151	0.072
Mof_H 	H 	0.8391	0.3932	0.9445	0.007
Mof_H 	H 	0.7654	0.4284	0.9794	0.114
Mof_H 	H 	0.5413	0.386	0.1299	0.074
Mof_H 	H 	0.5832	0.423	0.1573	0.066
Mof_H 	H 	0.4296	0.2623	0.2276	0.109
Mof_H 	H 	0.3521	0.2032	0.3416	0.008
Mof_H 	H 	0.3776	0.2318	0.4146	0.127
Mof_H 	H 	0.4805	0.3223	0.3746	0.01
Mof_H 	H 	0.5586	0.3807	0.262	0.104
Mof_H 	H 	0.4371	0.1827	0.1471	0.14
Mof_H 	H 	0.3542	0.1861	0.1178	-0.021
Mof_H 	H 	0.2571	0.1668	0.2029	0.118
Mof_H 	H 	0.216	0.0862	0.3116	-0.021
Mof_H 	H 	0.2972	0.0135	0.4675	0.012
Mof_H 	H 	0.2349	0.9462	0.489	0.03
Mof_H 	H 	0.3868	0.0133	0.4739	0.02
Mof_H 	H 	0.4434	0.9594	0.4992	0.072
Mof_H 	H 	0.4161	0.8558	0.5087	0.072
Mof_H 	H 	0.3261	0.8014	0.4954	0.066
Mof_H 	H 	0.2689	0.8552	0.4691	0.057
Mof_H 	H 	0.4668	0.932	0.3563	0.125
Mof_H 	H 	0.4616	0.8267	0.386	0.008
Mof_H 	H 	0.5081	0.8065	0.2998	0.089
Mof_H 	H 	0.5522	0.8828	0.1904	0.027
Mof_H 	H 	0.583	0.0809	0.0105	0.053
Mof_H 	H 	0.6258	0.1205	0.0342	0.063
Mof_H 	H 	0.635	0.2206	0.02	0.121
Mof_H 	H 	0.5942	0.2936	0.0018	-0.027
Mof_H 	H 	0.4952	0.2642	0.9976	0.193
Mof_H 	H 	0.436	0.1583	0.0117	-0.022
Mof_H 	H 	0.4756	0.0854	0.0306	0.118
Mof_H 	H 	0.9636	0.3254	0.5446	0.16
Mof_H 	H 	0.7796	0.1846	0.4995	0.139
Mof_H 	H 	0.6789	0.3616	0.6477	0.145
Mof_H 	H 	0.6394	0.1345	0.8352	0.16
Mof_H 	H 	0.7904	0.3249	0.5378	0.074
Mof_H 	H 	0.8075	0.2709	0.5264	0.076
Mof_H 	H 	0.778	0.1701	0.6869	0.074
Mof_H 	H 	0.8469	0.2246	0.6187	0.076
Mof_H 	H 	0.6768	0.1884	0.7019	0.081
Mof_H 	H 	0.689	0.1823	0.6367	0.074
Mof_H 	H 	0.7626	0.316	0.6564	0.084
Mof_H 	H 	0.8315	0.3168	0.6416	0.08
Mof_H 	H 	0.8584	0.3951	0.4358	0.12
Mof_H 	H 	0.9425	0.4817	0.3217	0.004
Mof_H 	H 	0.0421	0.5555	0.3088	0.098
Mof_H 	H 	0.0747	0.5257	0.387	0.016
Mof_H 	H 	0.0204	0.3691	0.6066	0.052
Mof_H 	H 	0.0651	0.3511	0.5604	0.047
Mof_H 	H 	0.9119	0.2771	0.7117	0.09
Mof_H 	H 	0.8514	0.1652	0.7945	0.022
Mof_H 	H 	0.8772	0.0886	0.7773	0.107
Mof_H 	H 	0.9686	0.1219	0.6768	0.03
Mof_H 	H 	0.0275	0.2328	0.5918	0.076
Mof_H 	H 	0.826	0.1114	0.6783	0.078
Mof_H 	H 	0.8374	0.0151	0.6933	0.062
Mof_H 	H 	0.7836	0.9445	0.6623	0.021
Mof_H 	H 	0.7448	0.9794	0.5922	0.099
Mof_H 	H 	0.6712	0.1299	0.4841	0.074
Mof_H 	H 	0.7405	0.1573	0.4197	0.065
Mof_H 	H 	0.6572	0.2276	0.5101	0.109
Mof_H 	H 	0.6937	0.3416	0.4552	0.007
Mof_H 	H 	0.7922	0.4146	0.3536	0.127
Mof_H 	H 	0.8551	0.3746	0.3031	0.01
Mof_H 	H 	0.8206	0.262	0.3573	0.104
Mof_H 	H 	0.5842	0.1471	0.6702	0.138
Mof_H 	H 	0.472	0.1178	0.6961	-0.017
Mof_H 	H 	0.46	0.2029	0.6303	0.117
Mof_H 	H 	0.5276	0.3116	0.6022	-0.013
Mof_H 	H 	0.7647	0.4675	0.519	0.075
Mof_H 	H 	0.7239	0.489	0.5648	0.072
Mof_H 	H 	0.8607	0.4739	0.5128	0.103
Mof_H 	H 	0.9426	0.4992	0.5414	0.009
Mof_H 	H 	0.9248	0.5087	0.6355	0.122
Mof_H 	H 	0.8215	0.4954	0.7032	0.021
Mof_H 	H 	0.738	0.4691	0.6757	0.101
Mof_H 	H 	0.8231	0.3563	0.7117	0.116
Mof_H 	H 	0.8476	0.386	0.7873	0.009
Mof_H 	H 	0.8079	0.2998	0.8937	0.096
Mof_H 	H 	0.7426	0.1904	0.9268	0.03
Mof_H 	H 	0.5935	0.0105	0.9086	0.063
Mof_H 	H 	0.66	0.0342	0.8453	0.063
Mof_H 	H 	0.655	0.02	0.7594	0.118
Mof_H 	H 	0.596	0.0018	0.7046	-0.02
Mof_H 	H 	0.4928	0.9976	0.7382	0.179
Mof_H 	H 	0.4477	0.0117	0.83	-0.011
Mof_H 	H 	0.5062	0.0306	0.884	0.125
Mof_H 	H 	0.1382	0.6746	0.87	0.16
Mof_H 	H 	0.095	0.8154	0.6841	0.144
Mof_H 	H 	0.8173	0.6384	0.0093	0.109
Mof_H 	H 	0.0049	0.8655	0.9697	0.172
Mof_H 	H 	0.9655	0.6751	0.8627	0.078
Mof_H 	H 	0.0366	0.7291	0.7973	0.076
Mof_H 	H 	0.1079	0.8299	0.857	0.065
Mof_H 	H 	0.1223	0.7754	0.8433	0.068
Mof_H 	H 	0.9884	0.8116	0.8903	0.076
Mof_H 	H 	0.0067	0.8177	0.819	0.064
Mof_H 	H 	0.9466	0.684	0.9724	0.087
Mof_H 	H 	0.0147	0.6832	0.9584	0.077
Mof_H 	H 	0.9633	0.6049	0.8309	0.112
Mof_H 	H 	0.9608	0.5183	0.8034	0.015
Mof_H 	H 	0.9866	0.4445	0.8643	0.093
Mof_H 	H 	0.049	0.4743	0.9127	0.024
Mof_H 	H 	0.1513	0.6309	0.9757	0.063
Mof_H 	H 	0.214	0.6489	0.9115	0.052
Mof_H 	H 	0.1348	0.7229	0.9888	0.104
Mof_H 	H 	0.1862	0.8348	0.9597	0.02
Mof_H 	H 	0.2886	0.9114	0.8659	0.128
Mof_H 	H 	0.3467	0.8781	0.7987	0.023
Mof_H 	H 	0.2947	0.7672	0.8246	0.095
Mof_H 	H 	0.2146	0.8886	0.7897	0.166
Mof_H 	H 	0.3223	0.9849	0.7084	-0.061
Mof_H 	H 	0.3391	0.0555	0.6068	0.184
Mof_H 	H 	0.2654	0.0206	0.5716	-0.081
Mof_H 	H 	0.0413	0.8701	0.614	0.073
Mof_H 	H 	0.0832	0.8427	0.577	0.067
Mof_H 	H 	0.9296	0.7724	0.7377	0.108
Mof_H 	H 	0.8521	0.6584	0.7968	0.006
Mof_H 	H 	0.8776	0.5854	0.7682	0.129
Mof_H 	H 	0.9805	0.6254	0.6777	0.008
Mof_H 	H 	0.0586	0.738	0.6193	0.107
Mof_H 	H 	0.9371	0.8529	0.8173	0.138
Mof_H 	H 	0.8542	0.8822	0.8139	-0.009
Mof_H 	H 	0.7571	0.7971	0.8332	0.117
Mof_H 	H 	0.716	0.6884	0.9138	-0.006
Mof_H 	H 	0.7972	0.5325	0.9865	0.134
Mof_H 	H 	0.7349	0.511	0.0538	0.112
Mof_H 	H 	0.8868	0.5261	0.9867	0.183
Mof_H 	H 	0.9434	0.5008	0.0406	-0.052
Mof_H 	H 	0.9161	0.4913	0.1442	0.167
Mof_H 	H 	0.8261	0.5046	0.1986	-0.023
Mof_H 	H 	0.7689	0.5309	0.1448	0.141
Mof_H 	H 	0.9668	0.6437	0.068	0.109
Mof_H 	H 	0.9616	0.614	0.1733	0.003
Mof_H 	H 	0.0081	0.7002	0.1935	0.096
Mof_H 	H 	0.0522	0.8096	0.1172	0.013
Mof_H 	H 	0.083	0.9895	0.9191	0.047
Mof_H 	H 	0.1258	0.9658	0.8795	0.045
Mof_H 	H 	0.135	0.98	0.7794	0.071
Mof_H 	H 	0.0942	0.9982	0.7064	0.058
Mof_H 	H 	0.9952	0.0024	0.7358	0.056
Mof_H 	H 	0.936	0.9883	0.8417	0.067
Mof_H 	H 	0.9756	0.9694	0.9146	0.074
Mof_H 	H 	0.4636	0.4554	0.6746	0.161
Mof_H 	H 	0.2796	0.5005	0.8154	0.144
Mof_H 	H 	0.1789	0.3523	0.6384	0.142
Mof_H 	H 	0.1394	0.1648	0.8655	0.159
Mof_H 	H 	0.2904	0.4622	0.6751	0.073
Mof_H 	H 	0.3075	0.4736	0.7291	0.076
Mof_H 	H 	0.278	0.3131	0.8299	0.067
Mof_H 	H 	0.3469	0.3813	0.7754	0.07
Mof_H 	H 	0.1768	0.2981	0.8116	0.08
Mof_H 	H 	0.189	0.3633	0.8177	0.075
Mof_H 	H 	0.2626	0.3436	0.684	0.082
Mof_H 	H 	0.3315	0.3584	0.6832	0.079
Mof_H 	H 	0.3584	0.5642	0.6049	0.12
Mof_H 	H 	0.4425	0.6783	0.5183	0.006
Mof_H 	H 	0.5421	0.6912	0.4445	0.098
Mof_H 	H 	0.5747	0.613	0.4743	0.013
Mof_H 	H 	0.5204	0.3934	0.6309	0.05
Mof_H 	H 	0.5651	0.4396	0.6489	0.045
Mof_H 	H 	0.4119	0.2883	0.7229	0.094
Mof_H 	H 	0.3514	0.2055	0.8348	0.016
Mof_H 	H 	0.3772	0.2227	0.9114	0.126
Mof_H 	H 	0.4686	0.3232	0.8781	0.025
Mof_H 	H 	0.5275	0.4082	0.7672	0.091
Mof_H 	H 	0.326	0.3217	0.8886	0.171
Mof_H 	H 	0.3374	0.3067	0.9849	-0.067
Mof_H 	H 	0.2836	0.3377	0.0555	0.194
Mof_H 	H 	0.2448	0.4078	0.0206	-0.091
Mof_H 	H 	0.1712	0.5159	0.8701	0.074
Mof_H 	H 	0.2405	0.5803	0.8427	0.068
Mof_H 	H 	0.1572	0.4899	0.7724	0.109
Mof_H 	H 	0.1937	0.5448	0.6584	0.007
Mof_H 	H 	0.2922	0.6464	0.5854	0.126
Mof_H 	H 	0.3551	0.6969	0.6254	0.011
Mof_H 	H 	0.3206	0.6427	0.738	0.105
Mof_H 	H 	0.0842	0.3298	0.8529	0.122
Mof_H 	H 	0.972	0.3039	0.8822	0.018
Mof_H 	H 	0.96	0.3697	0.7971	0.095
Mof_H 	H 	0.0276	0.3978	0.6884	0.004
Mof_H 	H 	0.2647	0.481	0.5325	0.075
Mof_H 	H 	0.2239	0.4352	0.511	0.072
Mof_H 	H 	0.3607	0.4872	0.5261	0.103
Mof_H 	H 	0.4426	0.4586	0.5008	0.008
Mof_H 	H 	0.4248	0.3645	0.4913	0.12
Mof_H 	H 	0.3215	0.2968	0.5046	0.02
Mof_H 	H 	0.238	0.3243	0.5309	0.1
Mof_H 	H 	0.3231	0.2883	0.6437	0.117
Mof_H 	H 	0.3476	0.2127	0.614	0.005
Mof_H 	H 	0.3079	0.1063	0.7002	0.088
Mof_H 	H 	0.2426	0.0732	0.8096	0.012
Mof_H 	H 	0.0935	0.0914	0.9895	0.048
Mof_H 	H 	0.16	0.1547	0.9658	0.052
Mof_H 	H 	0.155	0.2406	0.98	0.081
Mof_H 	H 	0.096	0.2954	0.9982	0.05
Mof_H 	H 	0.9928	0.2618	0.0024	0.06
Mof_H 	H 	0.9477	0.17	0.9883	0.052
Mof_H 	H 	0.0062	0.116	0.9694	0.078
Mof_H 	H 	0.0082	0.87	0.4554	0.158
Mof_H 	H 	0.7791	0.6841	0.5005	0.141
Mof_H 	H 	0.8266	0.0093	0.3523	0.105
Mof_H 	H 	0.9746	0.9697	0.1648	0.179
Mof_H 	H 	0.8282	0.8627	0.4622	0.076
Mof_H 	H 	0.8339	0.7973	0.4736	0.077
Mof_H 	H 	0.9649	0.857	0.3131	0.074
Mof_H 	H 	0.9656	0.8433	0.3813	0.077
Mof_H 	H 	0.8787	0.8903	0.2981	0.083
Mof_H 	H 	0.8257	0.819	0.3633	0.076
Mof_H 	H 	0.919	0.9724	0.3436	0.098
Mof_H 	H 	0.9731	0.9584	0.3584	0.093
Mof_H 	H 	0.7942	0.8309	0.5642	0.117
Mof_H 	H 	0.7642	0.8034	0.6783	0.008
Mof_H 	H 	0.8509	0.8643	0.6912	0.098
Mof_H 	H 	0.9617	0.9127	0.613	0.02
Mof_H 	H 	0.127	0.9757	0.3934	0.064
Mof_H 	H 	0.1255	0.9115	0.4396	0.052
Mof_H 	H 	0.1236	0.9888	0.2883	0.104
Mof_H 	H 	0.1459	0.9597	0.2055	0.024
Mof_H 	H 	0.1545	0.8659	0.2227	0.12
Mof_H 	H 	0.1454	0.7987	0.3232	0.022
Mof_H 	H 	0.1193	0.8246	0.4082	0.092
Mof_H 	H 	0.0043	0.7897	0.3217	0.115
Mof_H 	H 	0.0307	0.7084	0.3067	-0.005
Mof_H 	H 	0.9459	0.6068	0.3377	0.103
Mof_H 	H 	0.837	0.5716	0.4078	0.011
Mof_H 	H 	0.6553	0.614	0.5159	0.074
Mof_H 	H 	0.6602	0.577	0.5803	0.067
Mof_H 	H 	0.6673	0.7377	0.4899	0.109
Mof_H 	H 	0.6489	0.7968	0.5448	0.007
Mof_H 	H 	0.6458	0.7682	0.6464	0.126
Mof_H 	H 	0.6582	0.6777	0.6969	0.011
Mof_H 	H 	0.6779	0.6193	0.6427	0.104
Mof_H 	H 	0.7544	0.8173	0.3298	0.136
Mof_H 	H 	0.6681	0.8139	0.3039	-0.011
Mof_H 	H 	0.5903	0.8332	0.3697	0.116
Mof_H 	H 	0.6298	0.9138	0.3978	-0.005
Mof_H 	H 	0.7837	0.9865	0.481	0.142
Mof_H 	H 	0.7887	0.0538	0.4352	0.121
Mof_H 	H 	0.8735	0.9867	0.4872	0.204
Mof_H 	H 	0.984	0.0406	0.4586	-0.082
Mof_H 	H 	0.0603	0.1442	0.3645	0.201
Mof_H 	H 	0.0247	0.1986	0.2968	-0.063
Mof_H 	H 	0.9137	0.1448	0.3243	0.166
Mof_H 	H 	0.0348	0.068	0.2883	0.105
Mof_H 	H 	0.1349	0.1733	0.2127	0.004
Mof_H 	H 	0.2016	0.1935	0.1063	0.09
Mof_H 	H 	0.1694	0.1172	0.0732	0.002
Mof_H 	H 	0.0021	0.9191	0.0914	0.025
Mof_H 	H 	0.0053	0.8795	0.1547	0.028
Mof_H 	H 	0.9144	0.7794	0.2406	0.076
Mof_H 	H 	0.8006	0.7064	0.2954	0.038
Mof_H 	H 	0.731	0.7358	0.2618	0.093
Mof_H 	H 	0.7777	0.8417	0.17	0.047
Mof_H 	H 	0.8902	0.9146	0.116	0.075
Mof_C 	C 	0.39807	0.62687	0.12446	0.107
Mof_C 	C 	0.3592	0.5498	0.1538	-0.081
Mof_C 	C 	0.437	0.6389	0.161	-0.075
Mof_C 	C 	0.3532	0.6529	0.1333	-0.082
Mof_C 	C 	0.4443	0.6608	0.0512	-0.085
Mof_C 	C 	0.525	0.5035	0.0787	0.398
Mof_C 	C 	0.4474	0.4581	0.1065	-0.204
Mof_C 	C 	0.3926	0.4672	0.1363	0.23
Mof_C 	C 	0.3268	0.4229	0.1598	-0.232
Mof_C 	C 	0.3089	0.3572	0.1697	0.112
Mof_C 	C 	0.3612	0.3486	0.1374	-0.176
Mof_C 	C 	0.4284	0.3962	0.1073	0.106
Mof_C 	C 	0.6054	0.5863	0.073	-0.024
Mof_C 	C 	0.62005	0.64259	0.09059	0.076
Mof_C 	C 	0.62751	0.70422	0.04968	-0.146
Mof_C 	C 	0.64066	0.75328	0.0673	0.075
Mof_C 	C 	0.64638	0.74338	0.12304	-0.147
Mof_C 	C 	0.64	0.6832	0.1639	0.062
Mof_C 	C 	0.62555	0.63325	0.1474	-0.139
Mof_C 	C 	0.2732	0.5434	0.3709	0.303
Mof_C 	C 	0.3486	0.5909	0.3419	-0.173
Mof_C 	C 	0.4034	0.6203	0.2768	0.222
Mof_C 	C 	0.4707	0.6599	0.2546	-0.23
Mof_C 	C 	0.4859	0.671	0.3023	0.12
Mof_C 	C 	0.4355	0.6494	0.3641	-0.18
Mof_C 	C 	0.3698	0.609	0.3843	0.1
Mof_C 	C 	0.1784	0.4588	0.3799	-0.115
Mof_C 	C 	0.17413	0.43908	0.32841	0.142
Mof_C 	C 	0.16562	0.46862	0.27467	-0.199
Mof_C 	C 	0.15482	0.43564	0.23938	0.121
Mof_C 	C 	0.15261	0.37461	0.25668	-0.191
Mof_C 	C 	0.16037	0.34477	0.31006	0.115
Mof_C 	C 	0.17165	0.37708	0.34483	-0.193
Mof_C 	C 	0.2292	0.5821	0.049	0.352
Mof_C 	C 	0.21136	0.60612	0.09474	-0.255
Mof_C 	C 	0.25037	0.63234	0.12123	0.279
Mof_C 	C 	0.23096	0.65882	0.16094	-0.284
Mof_C 	C 	0.17596	0.66872	0.16874	0.169
Mof_C 	C 	0.13384	0.63658	0.14986	-0.235
Mof_C 	C 	0.1542	0.6133	0.1072	0.169
Mof_C 	C 	0.3064	0.565	0.9767	0.048
Mof_C 	C 	0.3807	0.59147	0.93987	-0.001
Mof_C 	C 	0.40349	0.55125	0.97078	0.003
Mof_C 	C 	0.46954	0.56862	0.9385	-0.044
Mof_C 	C 	0.5153	0.6246	0.8764	-0.037
Mof_C 	C 	0.4943	0.6652	0.8441	-0.032
Mof_C 	C 	0.4277	0.64818	0.87658	-0.052
Mof_C 	C 	0.5638	0.8755	0.0085	0.382
Mof_C 	C 	0.5821	0.8418	0.95992	-0.139
Mof_C 	C 	0.5456	0.77725	0.96758	0.232
Mof_C 	C 	0.56262	0.7554	0.9214	-0.217
Mof_C 	C 	0.6222	0.8	0.8589	0.103
Mof_C 	C 	0.6611	0.8633	0.8472	-0.149
Mof_C 	C 	0.6414	0.8828	0.8946	0.07
Mof_C 	C 	0.4836	0.8607	0.0966	-0.07
Mof_C 	C 	0.4152	0.82879	0.14389	0.105
Mof_C 	C 	0.3872	0.77364	0.20784	-0.158
Mof_C 	C 	0.31925	0.74122	0.25117	0.078
Mof_C 	C 	0.2772	0.7612	0.2338	-0.143
Mof_C 	C 	0.3049	0.8156	0.1709	0.071
Mof_C 	C 	0.3721	0.8477	0.1277	-0.155
Mof_C 	C 	0.52253	0.12446	0.24867	0.109
Mof_C 	C 	0.513	0.1538	0.2964	-0.083
Mof_C 	C 	0.598	0.161	0.2001	-0.084
Mof_C 	C 	0.4865	0.1333	0.2138	-0.083
Mof_C 	C 	0.4955	0.0512	0.288	-0.085
Mof_C 	C 	0.6037	0.0787	0.4178	0.398
Mof_C 	C 	0.5539	0.1065	0.4354	-0.204
Mof_C 	C 	0.5289	0.1363	0.3965	0.23
Mof_C 	C 	0.4866	0.1598	0.4173	-0.232
Mof_C 	C 	0.4786	0.1697	0.4731	0.112
Mof_C 	C 	0.4986	0.1374	0.514	-0.175
Mof_C 	C 	0.5357	0.1073	0.4965	0.106
Mof_C 	C 	0.6784	0.073	0.3407	-0.022
Mof_C 	C 	0.71064	0.09059	0.26682	0.072
Mof_C 	C 	0.67719	0.04968	0.2461	-0.142
Mof_C 	C 	0.70796	0.0673	0.17942	0.069
Mof_C 	C 	0.76942	0.12304	0.13358	-0.141
Mof_C 	C 	0.8039	0.1639	0.1529	0.055
Mof_C 	C 	0.77295	0.1474	0.21935	-0.134
Mof_C 	C 	0.6441	0.3709	0.0857	0.272
Mof_C 	C 	0.6905	0.3419	0.0672	-0.068
Mof_C 	C 	0.6802	0.2768	0.1029	0.136
Mof_C 	C 	0.7253	0.2546	0.0855	-0.091
Mof_C 	C 	0.7882	0.3023	0.0267	-0.103
Mof_C 	C 	0.7996	0.3641	0.9865	0.102
Mof_C 	C 	0.7541	0.3843	0.0067	-0.147
Mof_C 	C 	0.5583	0.3799	0.1613	-0.115
Mof_C 	C 	0.50254	0.32841	0.23251	0.141
Mof_C 	C 	0.44029	0.27467	0.25671	-0.197
Mof_C 	C 	0.3942	0.23938	0.32498	0.12
Mof_C 	C 	0.40929	0.25668	0.36871	-0.189
Mof_C 	C 	0.47043	0.31006	0.34517	0.114
Mof_C 	C 	0.51648	0.34483	0.27809	-0.191
Mof_C 	C 	0.2782	0.049	0.3689	0.353
Mof_C 	C 	0.3061	0.09474	0.29914	-0.258
Mof_C 	C 	0.3716	0.12123	0.24643	0.28
Mof_C 	C 	0.3919	0.16094	0.18024	-0.288
Mof_C 	C 	0.3447	0.16874	0.16254	0.172
Mof_C 	C 	0.2837	0.14986	0.21356	-0.239
Mof_C 	C 	0.2614	0.1072	0.2795	0.171
Mof_C 	C 	0.2831	0.9767	0.4583	0.053
Mof_C 	C 	0.32057	0.93987	0.46866	-0.004
Mof_C 	C 	0.37427	0.97078	0.47797	0.006
Mof_C 	C 	0.40804	0.9385	0.49288	-0.047
Mof_C 	C 	0.3917	0.8764	0.499	-0.034
Mof_C 	C 	0.3384	0.8441	0.4907	-0.035
Mof_C 	C 	0.30428	0.87658	0.47524	-0.049
Mof_C 	C 	0.5723	0.0085	0.116	0.363
Mof_C 	C 	0.54202	0.95992	0.19828	-0.133
Mof_C 	C 	0.51318	0.96758	0.25517	0.235
Mof_C 	C 	0.48402	0.9214	0.3232	-0.217
Mof_C 	C 	0.4811	0.8589	0.3411	0.101
Mof_C 	C 	0.5083	0.8472	0.2895	-0.149
Mof_C 	C 	0.536	0.8946	0.2226	0.066
Mof_C 	C 	0.5802	0.0966	0.0427	-0.114
Mof_C 	C 	0.55909	0.14389	0.02732	0.175
Mof_C 	C 	0.59504	0.20784	0.01852	-0.256
Mof_C 	C 	0.57042	0.25117	0.00761	0.2
Mof_C 	C 	0.511	0.2338	0.005	-0.316
Mof_C 	C 	0.4758	0.1709	0.0135	0.196
Mof_C 	C 	0.4998	0.1277	0.0246	-0.257
Mof_C 	C 	0.7712	0.24867	0.62687	0.117
Mof_C 	C 	0.8094	0.2964	0.5498	-0.087
Mof_C 	C 	0.7981	0.2001	0.6389	-0.088
Mof_C 	C 	0.7003	0.2138	0.6529	-0.089
Mof_C 	C 	0.7835	0.288	0.6608	-0.1
Mof_C 	C 	0.0215	0.4178	0.5035	0.379
Mof_C 	C 	0.9893	0.4354	0.4581	-0.182
Mof_C 	C 	0.9254	0.3965	0.4672	0.225
Mof_C 	C 	0.9039	0.4173	0.4229	-0.231
Mof_C 	C 	0.9517	0.4731	0.3572	0.12
Mof_C 	C 	0.0126	0.514	0.3486	-0.178
Mof_C 	C 	0.0322	0.4965	0.3962	0.095
Mof_C 	C 	0.0191	0.3407	0.5863	-0.051
Mof_C 	C 	0.97746	0.26682	0.64259	0.087
Mof_C 	C 	0.92329	0.2461	0.70422	-0.147
Mof_C 	C 	0.88738	0.17942	0.75328	0.075
Mof_C 	C 	0.903	0.13358	0.74338	-0.139
Mof_C 	C 	0.9568	0.1529	0.6832	0.054
Mof_C 	C 	0.9923	0.21935	0.63325	-0.126
Mof_C 	C 	0.7298	0.0857	0.5434	0.276
Mof_C 	C 	0.7577	0.0672	0.5909	-0.084
Mof_C 	C 	0.7831	0.1029	0.6203	0.149
Mof_C 	C 	0.8108	0.0855	0.6599	-0.112
Mof_C 	C 	0.8149	0.0267	0.671	-0.068
Mof_C 	C 	0.7861	0.9865	0.6494	0.058
Mof_C 	C 	0.7608	0.0067	0.609	-0.111
Mof_C 	C 	0.7196	0.1613	0.4588	-0.115
Mof_C 	C 	0.73505	0.23251	0.43908	0.142
Mof_C 	C 	0.697	0.25671	0.46862	-0.198
Mof_C 	C 	0.71918	0.32498	0.43564	0.121
Mof_C 	C 	0.778	0.36871	0.37461	-0.191
Mof_C 	C 	0.8156	0.34517	0.34477	0.115
Mof_C 	C 	0.79457	0.27809	0.37708	-0.192
Mof_C 	C 	0.6471	0.3689	0.5821	0.346
Mof_C 	C 	0.60524	0.29914	0.60612	-0.246
Mof_C 	C 	0.61803	0.24643	0.63234	0.277
Mof_C 	C 	0.57214	0.18024	0.65882	-0.281
Mof_C 	C 	0.50724	0.16254	0.66872	0.167
Mof_C 	C 	0.49726	0.21356	0.63658	-0.229
Mof_C 	C 	0.5409	0.2795	0.6133	0.165
Mof_C 	C 	0.7414	0.4583	0.565	-0.112
Mof_C 	C 	0.78923	0.46866	0.59147	0.13
Mof_C 	C 	0.85224	0.47797	0.55125	-0.186
Mof_C 	C 	0.90092	0.49288	0.56862	0.113
Mof_C 	C 	0.8907	0.499	0.6246	-0.174
Mof_C 	C 	0.8291	0.4907	0.6652	0.093
Mof_C 	C 	0.77952	0.47524	0.64818	-0.177
Mof_C 	C 	0.6883	0.116	0.8755	0.433
Mof_C 	C 	0.7403	0.19828	0.8418	-0.163
Mof_C 	C 	0.76835	0.25517	0.77725	0.211
Mof_C 	C 	0.80722	0.3232	0.7554	-0.212
Mof_C 	C 	0.8222	0.3411	0.8	0.101
Mof_C 	C 	0.7978	0.2895	0.8633	-0.153
Mof_C 	C 	0.7586	0.2226	0.8828	0.079
Mof_C 	C 	0.6229	0.0427	0.8607	-0.106
Mof_C 	C 	0.58641	0.02732	0.82879	0.169
Mof_C 	C 	0.61356	0.01852	0.77364	-0.242
Mof_C 	C 	0.57803	0.00761	0.74122	0.183
Mof_C 	C 	0.516	0.005	0.7612	-0.288
Mof_C 	C 	0.4893	0.0135	0.8156	0.181
Mof_C 	C 	0.5244	0.0246	0.8477	-0.243
Mof_C 	C 	0.02253	0.75133	0.87554	0.095
Mof_C 	C 	0.013	0.7036	0.8462	-0.089
Mof_C 	C 	0.098	0.7999	0.839	-0.063
Mof_C 	C 	0.9865	0.7862	0.8667	-0.063
Mof_C 	C 	0.9955	0.712	0.9488	-0.079
Mof_C 	C 	0.1037	0.5822	0.9213	0.387
Mof_C 	C 	0.0539	0.5646	0.8935	-0.178
Mof_C 	C 	0.0289	0.6035	0.8637	0.209
Mof_C 	C 	0.9866	0.5827	0.8402	-0.207
Mof_C 	C 	0.9786	0.5269	0.8303	0.091
Mof_C 	C 	0.9986	0.486	0.8626	-0.14
Mof_C 	C 	0.0357	0.5035	0.8927	0.08
Mof_C 	C 	0.1784	0.6593	0.927	-0.052
Mof_C 	C 	0.21064	0.73318	0.90941	0.103
Mof_C 	C 	0.17719	0.7539	0.95032	-0.164
Mof_C 	C 	0.20796	0.82058	0.9327	0.1
Mof_C 	C 	0.26942	0.86642	0.87696	-0.166
Mof_C 	C 	0.3039	0.8471	0.8361	0.086
Mof_C 	C 	0.27295	0.78065	0.8526	-0.159
Mof_C 	C 	0.1441	0.9143	0.6291	0.331
Mof_C 	C 	0.1905	0.9328	0.6581	-0.27
Mof_C 	C 	0.1802	0.8971	0.7232	0.301
Mof_C 	C 	0.2253	0.9145	0.7454	-0.359
Mof_C 	C 	0.2882	0.9733	0.6977	0.323
Mof_C 	C 	0.2996	0.0135	0.6359	-0.437
Mof_C 	C 	0.2541	0.9933	0.6157	0.329
Mof_C 	C 	0.0583	0.8387	0.6201	-0.112
Mof_C 	C 	0.00254	0.76749	0.67159	0.138
Mof_C 	C 	0.94029	0.74329	0.72533	-0.193
Mof_C 	C 	0.8942	0.67502	0.76062	0.122
Mof_C 	C 	0.90929	0.63129	0.74332	-0.195
Mof_C 	C 	0.97043	0.65483	0.68994	0.127
Mof_C 	C 	0.01648	0.72191	0.65517	-0.203
Mof_C 	C 	0.7782	0.6311	0.951	0.339
Mof_C 	C 	0.8061	0.70086	0.90526	-0.237
Mof_C 	C 	0.8716	0.75357	0.87877	0.275
Mof_C 	C 	0.8919	0.81976	0.83906	-0.274
Mof_C 	C 	0.8447	0.83746	0.83126	0.163
Mof_C 	C 	0.7837	0.78644	0.85014	-0.221
Mof_C 	C 	0.7614	0.7205	0.8928	0.159
Mof_C 	C 	0.7831	0.5417	0.0233	-0.267
Mof_C 	C 	0.82057	0.53134	0.06013	0.257
Mof_C 	C 	0.87427	0.52203	0.02922	-0.368
Mof_C 	C 	0.90804	0.50712	0.0615	0.265
Mof_C 	C 	0.8917	0.501	0.1236	-0.307
Mof_C 	C 	0.8384	0.5093	0.1559	0.213
Mof_C 	C 	0.80428	0.52476	0.12342	-0.297
Mof_C 	C 	0.0723	0.884	0.9915	0.494
Mof_C 	C 	0.04202	0.80172	0.04008	-0.196
Mof_C 	C 	0.01318	0.74483	0.03242	0.189
Mof_C 	C 	0.98402	0.6768	0.0786	-0.209
Mof_C 	C 	0.9811	0.6589	0.1411	0.112
Mof_C 	C 	0.0083	0.7105	0.1528	-0.179
Mof_C 	C 	0.036	0.7774	0.1054	0.097
Mof_C 	C 	0.0802	0.9573	0.9034	-0.016
Mof_C 	C 	0.05909	0.97268	0.85611	0.042
Mof_C 	C 	0.09504	0.98148	0.79216	-0.086
Mof_C 	C 	0.07042	0.99239	0.74883	-0.004
Mof_C 	C 	0.011	0.995	0.7662	-0.037
Mof_C 	C 	0.9758	0.9865	0.8291	-0.01
Mof_C 	C 	0.9998	0.9754	0.8723	-0.077
Mof_C 	C 	0.2712	0.37313	0.75133	0.112
Mof_C 	C 	0.3094	0.4502	0.7036	-0.084
Mof_C 	C 	0.2981	0.3611	0.7999	-0.07
Mof_C 	C 	0.2003	0.3471	0.7862	-0.089
Mof_C 	C 	0.2835	0.3392	0.712	-0.097
Mof_C 	C 	0.5215	0.4965	0.5822	0.395
Mof_C 	C 	0.4893	0.5419	0.5646	-0.197
Mof_C 	C 	0.4254	0.5328	0.6035	0.228
Mof_C 	C 	0.4039	0.5771	0.5827	-0.231
Mof_C 	C 	0.4517	0.6428	0.5269	0.112
Mof_C 	C 	0.5126	0.6514	0.486	-0.171
Mof_C 	C 	0.5322	0.6038	0.5035	0.105
Mof_C 	C 	0.5191	0.4137	0.6593	-0.039
Mof_C 	C 	0.47746	0.35741	0.73318	0.093
Mof_C 	C 	0.42329	0.29578	0.7539	-0.159
Mof_C 	C 	0.38738	0.24672	0.82058	0.093
Mof_C 	C 	0.403	0.25662	0.86642	-0.163
Mof_C 	C 	0.4568	0.3168	0.8471	0.079
Mof_C 	C 	0.4923	0.36675	0.78065	-0.153
Mof_C 	C 	0.2298	0.4566	0.9143	0.335
Mof_C 	C 	0.2577	0.4091	0.9328	-0.28
Mof_C 	C 	0.2831	0.3797	0.8971	0.31
Mof_C 	C 	0.3108	0.3401	0.9145	-0.373
Mof_C 	C 	0.3149	0.329	0.9733	0.346
Mof_C 	C 	0.2861	0.3506	0.0135	-0.466
Mof_C 	C 	0.2608	0.391	0.9933	0.353
Mof_C 	C 	0.2196	0.5412	0.8387	-0.114
Mof_C 	C 	0.23505	0.56092	0.76749	0.141
Mof_C 	C 	0.197	0.53138	0.74329	-0.198
Mof_C 	C 	0.21918	0.56436	0.67502	0.12
Mof_C 	C 	0.278	0.62539	0.63129	-0.19
Mof_C 	C 	0.3156	0.65523	0.65483	0.114
Mof_C 	C 	0.29457	0.62292	0.72191	-0.192
Mof_C 	C 	0.1471	0.4179	0.6311	0.335
Mof_C 	C 	0.10524	0.39388	0.70086	-0.218
Mof_C 	C 	0.11803	0.36766	0.75357	0.249
Mof_C 	C 	0.07214	0.34118	0.81976	-0.234
Mof_C 	C 	0.00724	0.33128	0.83746	0.094
Mof_C 	C 	0.99726	0.36342	0.78644	-0.157
Mof_C 	C 	0.0409	0.3867	0.7205	0.112
Mof_C 	C 	0.2414	0.435	0.5417	-0.113
Mof_C 	C 	0.28923	0.40853	0.53134	0.13
Mof_C 	C 	0.35224	0.44875	0.52203	-0.186
Mof_C 	C 	0.40092	0.43138	0.50712	0.112
Mof_C 	C 	0.3907	0.3754	0.501	-0.174
Mof_C 	C 	0.3291	0.3348	0.5093	0.092
Mof_C 	C 	0.27952	0.35182	0.52476	-0.177
Mof_C 	C 	0.1883	0.1245	0.884	0.439
Mof_C 	C 	0.2403	0.1582	0.80172	-0.172
Mof_C 	C 	0.26835	0.22275	0.74483	0.212
Mof_C 	C 	0.30722	0.2446	0.6768	-0.217
Mof_C 	C 	0.3222	0.2	0.6589	0.103
Mof_C 	C 	0.2978	0.1367	0.7105	-0.163
Mof_C 	C 	0.2586	0.1172	0.7774	0.083
Mof_C 	C 	0.1229	0.1393	0.9573	-0.042
Mof_C 	C 	0.08641	0.17121	0.97268	0.072
Mof_C 	C 	0.11356	0.22636	0.98148	-0.112
Mof_C 	C 	0.07803	0.25878	0.99239	0.021
Mof_C 	C 	0.016	0.2388	0.995	-0.062
Mof_C 	C 	0.9893	0.1844	0.9865	0.031
Mof_C 	C 	0.0244	0.1523	0.9754	-0.123
Mof_C 	C 	0.89807	0.87554	0.37313	0.124
Mof_C 	C 	0.8592	0.8462	0.4502	-0.091
Mof_C 	C 	0.937	0.839	0.3611	-0.086
Mof_C 	C 	0.8532	0.8667	0.3471	-0.094
Mof_C 	C 	0.9443	0.9488	0.3392	-0.115
Mof_C 	C 	0.025	0.9213	0.4965	0.386
Mof_C 	C 	0.9474	0.8935	0.5419	-0.183
Mof_C 	C 	0.8926	0.8637	0.5328	0.223
Mof_C 	C 	0.8268	0.8402	0.5771	-0.227
Mof_C 	C 	0.8089	0.8303	0.6428	0.108
Mof_C 	C 	0.8612	0.8626	0.6514	-0.163
Mof_C 	C 	0.9284	0.8927	0.6038	0.1
Mof_C 	C 	0.1054	0.927	0.4137	-0.052
Mof_C 	C 	0.12005	0.90941	0.35741	0.101
Mof_C 	C 	0.12751	0.95032	0.29578	-0.161
Mof_C 	C 	0.14066	0.9327	0.24672	0.095
Mof_C 	C 	0.14638	0.87696	0.25662	-0.16
Mof_C 	C 	0.14	0.8361	0.3168	0.08
Mof_C 	C 	0.12555	0.8526	0.36675	-0.156
Mof_C 	C 	0.7732	0.6291	0.4566	0.303
Mof_C 	C 	0.8486	0.6581	0.4091	-0.174
Mof_C 	C 	0.9034	0.7232	0.3797	0.221
Mof_C 	C 	0.9707	0.7454	0.3401	-0.225
Mof_C 	C 	0.9859	0.6977	0.329	0.13
Mof_C 	C 	0.9355	0.6359	0.3506	-0.186
Mof_C 	C 	0.8698	0.6157	0.391	0.104
Mof_C 	C 	0.6784	0.6201	0.5412	-0.115
Mof_C 	C 	0.67413	0.67159	0.56092	0.142
Mof_C 	C 	0.66562	0.72533	0.53138	-0.198
Mof_C 	C 	0.65482	0.76062	0.56436	0.121
Mof_C 	C 	0.65261	0.74332	0.62539	-0.19
Mof_C 	C 	0.66037	0.68994	0.65523	0.114
Mof_C 	C 	0.67165	0.65517	0.62292	-0.192
Mof_C 	C 	0.7292	0.951	0.4179	0.337
Mof_C 	C 	0.71136	0.90526	0.39388	-0.235
Mof_C 	C 	0.75037	0.87877	0.36766	0.272
Mof_C 	C 	0.73096	0.83906	0.34118	-0.273
Mof_C 	C 	0.67596	0.83126	0.33128	0.161
Mof_C 	C 	0.63384	0.85014	0.36342	-0.219
Mof_C 	C 	0.6542	0.8928	0.3867	0.157
Mof_C 	C 	0.8064	0.0233	0.435	-0.297
Mof_C 	C 	0.8807	0.06013	0.40853	0.308
Mof_C 	C 	0.90349	0.02922	0.44875	-0.433
Mof_C 	C 	0.96954	0.0615	0.43138	0.353
Mof_C 	C 	0.0153	0.1236	0.3754	-0.411
Mof_C 	C 	0.9943	0.1559	0.3348	0.315
Mof_C 	C 	0.9277	0.12342	0.35182	-0.369
Mof_C 	C 	0.0638	0.9915	0.1245	0.518
Mof_C 	C 	0.0821	0.04008	0.1582	-0.211
Mof_C 	C 	0.0456	0.03242	0.22275	0.184
Mof_C 	C 	0.06262	0.0786	0.2446	-0.213
Mof_C 	C 	0.1222	0.1411	0.2	0.101
Mof_C 	C 	0.1611	0.1528	0.1367	-0.174
Mof_C 	C 	0.1414	0.1054	0.1172	0.099
Mof_C 	C 	0.9836	0.9034	0.1393	0.016
Mof_C 	C 	0.9152	0.85611	0.17121	0.047
Mof_C 	C 	0.8872	0.79216	0.22636	-0.11
Mof_C 	C 	0.81925	0.74883	0.25878	0.034
Mof_C 	C 	0.7772	0.7662	0.2388	-0.102
Mof_C 	C 	0.8049	0.8291	0.1844	0.025
Mof_C 	C 	0.8721	0.8723	0.1523	-0.106
Mof_N 	N 	0.5391	0.544	0.1	-0.286
Mof_N 	N 	0.2513	0.5011	0.3478	-0.224
Mof_N 	N 	0.2949	0.6089	0.0032	-0.287
Mof_N 	N 	0.5028	0.8536	0.0415	-0.282
Mof_N 	N 	0.5301	0.406	0.9635	0.079
Mof_N 	N 	0.736	0.4738	0.8708	0.067
Mof_N 	N 	0.67201	0.61501	0.84278	0.059
Mof_N 	N 	0.69028	0.91006	0.11362	0.068
Mof_N 	N 	0.6391	0.1	0.356	-0.286
Mof_N 	N 	0.5991	0.3478	0.1511	-0.218
Mof_N 	N 	0.2981	0.0032	0.3879	-0.291
Mof_N 	N 	0.5443	0.0415	0.1049	-0.27
Mof_N 	N 	0.4936	0.9635	0.6305	0.077
Mof_N 	N 	0.6068	0.8708	0.6554	0.068
Mof_N 	N 	0.51479	0.84278	0.54221	0.059
Mof_N 	N 	0.8039	0.11362	0.97632	0.085
Mof_N 	N 	0.9951	0.356	0.544	-0.27
Mof_N 	N 	0.7502	0.1511	0.5011	-0.219
Mof_N 	N 	0.686	0.3879	0.6089	-0.232
Mof_N 	N 	0.6492	0.1049	0.8536	-0.287
Mof_N 	N 	0.1241	0.6305	0.406	0.065
Mof_N 	N 	0.2622	0.6554	0.4738	0.067
Mof_N 	N 	0.057	0.54221	0.61501	0.06
Mof_N 	N 	0.78022	0.97632	0.91006	0.078
Mof_N 	N 	0.1391	0.644	0.9	-0.275
Mof_N 	N 	0.0991	0.8489	0.6522	-0.23
Mof_N 	N 	0.7981	0.6121	0.9968	-0.177
Mof_N 	N 	0.0443	0.8951	0.9585	-0.319
Mof_N 	N 	0.9936	0.3695	0.0365	0.054
Mof_N 	N 	0.1068	0.3446	0.1292	0.066
Mof_N 	N 	0.01479	0.45779	0.15722	0.056
Mof_N 	N 	0.3039	0.02368	0.88638	0.057
Mof_N 	N 	0.4951	0.456	0.644	-0.281
Mof_N 	N 	0.2502	0.4989	0.8489	-0.23
Mof_N 	N 	0.186	0.3911	0.6121	-0.229
Mof_N 	N 	0.1492	0.1464	0.8951	-0.302
Mof_N 	N 	0.6241	0.594	0.3695	0.065
Mof_N 	N 	0.7622	0.5262	0.3446	0.066
Mof_N 	N 	0.557	0.38499	0.45779	0.059
Mof_N 	N 	0.28022	0.08994	0.02368	0.054
Mof_N 	N 	0.0391	0.9	0.456	-0.275
Mof_N 	N 	0.7513	0.6522	0.4989	-0.224
Mof_N 	N 	0.7949	0.9968	0.3911	-0.171
Mof_N 	N 	0.0028	0.9585	0.1464	-0.338
Mof_N 	N 	0.0301	0.0365	0.594	0.048
Mof_N 	N 	0.236	0.1292	0.5262	0.066
Mof_N 	N 	0.17201	0.15722	0.38499	0.059
Mof_N 	N 	0.19028	0.88638	0.08994	0.069
Mof_O 	O 	0.4153	0.5321	0.1286	-0.227
Mof_O 	O 	0.3828	0.60497	0.23417	-0.223
Mof_O 	O 	0.3081	0.6298	0.1051	-0.241
Mof_O 	O 	0.48697	0.73634	0.02933	-0.236
Mof_O 	O 	0.56803	0.49665	0.04086	-0.537
Mof_O 	O 	0.22798	0.53984	0.4244	-0.472
Mof_O 	O 	0.18596	0.53979	0.04011	-0.481
Mof_O 	O 	0.61153	0.92072	0.99723	-0.484
Mof_O 	O 	0.55895	0.4671	0.92035	-0.287
Mof_O 	O 	0.54978	0.38658	0.00354	-0.328
Mof_O 	O 	0.4727	0.3649	0.977	-0.116
Mof_O 	O 	0.75756	0.51192	0.89194	-0.324
Mof_O 	O 	0.6749	0.4436	0.8892	-0.297
Mof_O 	O 	0.77943	0.47543	0.82224	-0.123
Mof_O 	O 	0.70615	0.58645	0.8315	-0.293
Mof_O 	O 	0.63502	0.59853	0.90337	-0.306
Mof_O 	O 	0.68876	0.67116	0.79678	-0.123
Mof_O 	O 	0.64727	0.88958	0.09707	-0.304
Mof_O 	O 	0.73144	0.97138	0.08416	-0.273
Mof_O 	O 	0.6964	0.869	0.155	-0.127
Mof_O 	O 	0.5439	0.1286	0.3393	-0.227
Mof_O 	O 	0.61697	0.23417	0.16086	-0.204
Mof_O 	O 	0.4132	0.1051	0.2651	-0.242
Mof_O 	O 	0.5163	0.02933	0.23433	-0.24
Mof_O 	O 	0.60889	0.04086	0.46249	-0.536
Mof_O 	O 	0.65238	0.4244	0.03576	-0.485
Mof_O 	O 	0.22607	0.04011	0.4201	-0.482
Mof_O 	O 	0.60876	0.99723	0.08205	-0.484
Mof_O 	O 	0.4793	0.92035	0.61255	-0.286
Mof_O 	O 	0.55332	0.00354	0.60988	-0.325
Mof_O 	O 	0.4497	0.977	0.6581	-0.117
Mof_O 	O 	0.6495	0.89194	0.59614	-0.324
Mof_O 	O 	0.5641	0.8892	0.6672	-0.297
Mof_O 	O 	0.60167	0.82224	0.70233	-0.125
Mof_O 	O 	0.53765	0.8315	0.58205	-0.293
Mof_O 	O 	0.53839	0.90337	0.4981	-0.305
Mof_O 	O 	0.48554	0.79678	0.53206	-0.123
Mof_O 	O 	0.74434	0.09707	0.01335	-0.333
Mof_O 	O 	0.8156	0.08416	0.94446	-0.28
Mof_O 	O 	0.8514	0.155	0.976	-0.119
Mof_O 	O 	0.8832	0.3393	0.5321	-0.223
Mof_O 	O 	0.77783	0.16086	0.60497	-0.206
Mof_O 	O 	0.6783	0.2651	0.6298	-0.236
Mof_O 	O 	0.75063	0.23433	0.73634	-0.217
Mof_O 	O 	0.07138	0.46249	0.49665	-0.515
Mof_O 	O 	0.68814	0.03576	0.53984	-0.485
Mof_O 	O 	0.64617	0.4201	0.53979	-0.476
Mof_O 	O 	0.69081	0.08205	0.92072	-0.524
Mof_O 	O 	0.09185	0.61255	0.4671	-0.287
Mof_O 	O 	0.1632	0.60988	0.38658	-0.301
Mof_O 	O 	0.1078	0.6581	0.3649	-0.128
Mof_O 	O 	0.24564	0.59614	0.51192	-0.318
Mof_O 	O 	0.2313	0.6672	0.4436	-0.3
Mof_O 	O 	0.304	0.70233	0.47543	-0.127
Mof_O 	O 	0.1197	0.58205	0.58645	-0.289
Mof_O 	O 	0.03649	0.4981	0.59853	-0.311
Mof_O 	O 	0.0176	0.53206	0.67116	-0.129
Mof_O 	O 	0.75769	0.01335	0.88958	-0.315
Mof_O 	O 	0.76006	0.94446	0.97138	-0.263
Mof_O 	O 	0.8274	0.976	0.869	-0.118
Mof_O 	O 	0.0439	0.6607	0.8714	-0.219
Mof_O 	O 	0.11697	0.83914	0.76583	-0.24
Mof_O 	O 	0.9132	0.7349	0.8949	-0.235
Mof_O 	O 	0.0163	0.76567	0.97067	-0.205
Mof_O 	O 	0.10889	0.53751	0.95914	-0.499
Mof_O 	O 	0.15238	0.96424	0.5756	-0.459
Mof_O 	O 	0.72607	0.5799	0.95989	-0.47
Mof_O 	O 	0.10876	0.91795	0.00277	-0.567
Mof_O 	O 	0.9793	0.38745	0.07965	-0.281
Mof_O 	O 	0.05332	0.39012	0.99646	-0.277
Mof_O 	O 	0.9497	0.3419	0.023	-0.136
Mof_O 	O 	0.1495	0.40386	0.10806	-0.312
Mof_O 	O 	0.0641	0.3328	0.1108	-0.307
Mof_O 	O 	0.10167	0.29767	0.17776	-0.126
Mof_O 	O 	0.03765	0.41795	0.1685	-0.286
Mof_O 	O 	0.03839	0.5019	0.09663	-0.312
Mof_O 	O 	0.98554	0.46794	0.20322	-0.122
Mof_O 	O 	0.24434	0.98665	0.90293	-0.278
Mof_O 	O 	0.3156	0.05554	0.91584	-0.277
Mof_O 	O 	0.3514	0.024	0.845	-0.13
Mof_O 	O 	0.3832	0.4679	0.6607	-0.224
Mof_O 	O 	0.27783	0.39503	0.83914	-0.241
Mof_O 	O 	0.1783	0.3702	0.7349	-0.23
Mof_O 	O 	0.25063	0.26366	0.76567	-0.219
Mof_O 	O 	0.57138	0.50335	0.53751	-0.519
Mof_O 	O 	0.18814	0.46016	0.96424	-0.459
Mof_O 	O 	0.14617	0.46021	0.5799	-0.473
Mof_O 	O 	0.19081	0.07928	0.91795	-0.537
Mof_O 	O 	0.59185	0.5329	0.38745	-0.286
Mof_O 	O 	0.6632	0.61342	0.39012	-0.301
Mof_O 	O 	0.6078	0.6351	0.3419	-0.126
Mof_O 	O 	0.74564	0.48808	0.40386	-0.318
Mof_O 	O 	0.7313	0.5564	0.3328	-0.301
Mof_O 	O 	0.804	0.52457	0.29767	-0.124
Mof_O 	O 	0.6197	0.41355	0.41795	-0.289
Mof_O 	O 	0.53649	0.40147	0.5019	-0.308
Mof_O 	O 	0.5176	0.32884	0.46794	-0.126
Mof_O 	O 	0.25769	0.11042	0.98665	-0.279
Mof_O 	O 	0.26006	0.02862	0.05554	-0.303
Mof_O 	O 	0.3274	0.131	0.024	-0.138
Mof_O 	O 	0.9153	0.8714	0.4679	-0.22
Mof_O 	O 	0.8828	0.76583	0.39503	-0.221
Mof_O 	O 	0.8081	0.8949	0.3702	-0.23
Mof_O 	O 	0.98697	0.97067	0.26366	-0.192
Mof_O 	O 	0.06803	0.95914	0.50335	-0.499
Mof_O 	O 	0.72798	0.5756	0.46016	-0.473
Mof_O 	O 	0.68596	0.95989	0.46021	-0.47
Mof_O 	O 	0.11153	0.00277	0.07928	-0.599
Mof_O 	O 	0.05895	0.07965	0.5329	-0.286
Mof_O 	O 	0.04978	0.99646	0.61342	-0.275
Mof_O 	O 	0.9727	0.023	0.6351	-0.13
Mof_O 	O 	0.25756	0.10806	0.48808	-0.312
Mof_O 	O 	0.1749	0.1108	0.5564	-0.305
Mof_O 	O 	0.27943	0.17776	0.52457	-0.127
Mof_O 	O 	0.20615	0.1685	0.41355	-0.285
Mof_O 	O 	0.13502	0.09663	0.40147	-0.312
Mof_O 	O 	0.18876	0.20322	0.32884	-0.129
Mof_O 	O 	0.14727	0.90293	0.11042	-0.297
Mof_O 	O 	0.23144	0.91584	0.02862	-0.284
Mof_O 	O 	0.1964	0.845	0.131	-0.127
_end
