data_functionalizedCrystal
_audit_creation_method	'EQeq! by Chris Wilmer'
_symmetry_space_group_name_H-M	'P1'
_symmetry_Int_Tables_number	1
_symmetry_cell_setting	triclinic
loop_
_symmetry_equiv_pos_as_xyz
  x,y,z
_cell_length_a	11.2949
_cell_length_b	21.312
_cell_length_c	29.097
_cell_angle_alpha	90
_cell_angle_beta	90
_cell_angle_gamma	90
loop_
_atom_site_label
_atom_site_type_symbol
_atom_site_fract_x
_atom_site_fract_y
_atom_site_fract_z
_atom_site_charge
Mof_Zn	Zn	0.61624	0.8355	0.67438	1.21
Mof_Zn	Zn	0.75818	0.90075	0.75938	1.208
Mof_Zn	Zn	0.48527	0.89514	0.76089	1.185
Mof_Zn	Zn	0.65403	0.98415	0.68561	1.17
Mof_Zn	Zn	0.38376	0.1645	0.17438	1.209
Mof_Zn	Zn	0.24182	0.09925	0.25938	1.207
Mof_Zn	Zn	0.51473	0.10486	0.26089	1.184
Mof_Zn	Zn	0.34597	0.01585	0.18561	1.169
Mof_Zn	Zn	0.88376	0.3355	0.67438	1.209
Mof_Zn	Zn	0.74182	0.40075	0.75938	1.207
Mof_Zn	Zn	0.01473	0.39514	0.76089	1.184
Mof_Zn	Zn	0.84597	0.48415	0.68561	1.169
Mof_Zn	Zn	0.11624	0.6645	0.17438	1.209
Mof_Zn	Zn	0.25818	0.59925	0.25938	1.207
Mof_Zn	Zn	0.98527	0.60486	0.26089	1.184
Mof_Zn	Zn	0.15403	0.51585	0.18561	1.169
Mof_H 	H 	0.8794	0.9975	0.5598	0.021
Mof_H 	H 	0.9747	0.9777	0.4894	0.08
Mof_H 	H 	0.8166	0.8117	0.4828	0.082
Mof_H 	H 	0.7046	0.8338	0.5493	0.006
Mof_H 	H 	0.0895	0.9537	0.3426	0.053
Mof_H 	H 	0.1718	0.846	0.2317	0.038
Mof_H 	H 	0.9795	0.7777	0.3409	0.053
Mof_H 	H 	0.2968	0.6881	0.391	-0.004
Mof_H 	H 	0.2913	0.7227	0.4642	0.112
Mof_H 	H 	0.9493	0.688	0.4691	0.095
Mof_H 	H 	0.9567	0.6525	0.3937	-0.005
Mof_H 	H 	0.2927	0.803	0.6059	0.039
Mof_H 	H 	0.1189	0.8651	0.7159	0.035
Mof_H 	H 	0.9401	0.8002	0.6076	0.037
Mof_H 	H 	0.1206	0.0025	0.0598	0.025
Mof_H 	H 	0.0253	0.0223	0.9894	0.069
Mof_H 	H 	0.1834	0.1883	0.9828	0.081
Mof_H 	H 	0.2954	0.1662	0.0493	0.007
Mof_H 	H 	0.9105	0.0463	0.8426	0.053
Mof_H 	H 	0.8282	0.154	0.7317	0.038
Mof_H 	H 	0.0205	0.2223	0.8409	0.053
Mof_H 	H 	0.7032	0.3119	0.891	-0.001
Mof_H 	H 	0.7087	0.2773	0.9642	0.106
Mof_H 	H 	0.0507	0.312	0.9691	0.09
Mof_H 	H 	0.0433	0.3475	0.8937	-0.002
Mof_H 	H 	0.7073	0.197	0.1059	0.041
Mof_H 	H 	0.8811	0.1349	0.2159	0.035
Mof_H 	H 	0.0599	0.1998	0.1076	0.039
Mof_H 	H 	0.6206	0.4975	0.5598	0.021
Mof_H 	H 	0.5253	0.4777	0.4894	0.08
Mof_H 	H 	0.6834	0.3117	0.4828	0.082
Mof_H 	H 	0.7954	0.3338	0.5493	0.006
Mof_H 	H 	0.4105	0.4537	0.3426	0.053
Mof_H 	H 	0.3282	0.346	0.2317	0.038
Mof_H 	H 	0.5205	0.2777	0.3409	0.054
Mof_H 	H 	0.2032	0.1881	0.391	-0.004
Mof_H 	H 	0.2087	0.2227	0.4642	0.112
Mof_H 	H 	0.5507	0.188	0.4691	0.096
Mof_H 	H 	0.5433	0.1525	0.3937	-0.004
Mof_H 	H 	0.2073	0.303	0.6059	0.039
Mof_H 	H 	0.3811	0.3651	0.7159	0.035
Mof_H 	H 	0.5599	0.3002	0.6076	0.038
Mof_H 	H 	0.3794	0.5025	0.0598	0.025
Mof_H 	H 	0.4747	0.5223	0.9894	0.068
Mof_H 	H 	0.3166	0.6883	0.9828	0.081
Mof_H 	H 	0.2046	0.6662	0.0493	0.006
Mof_H 	H 	0.5895	0.5463	0.8426	0.053
Mof_H 	H 	0.6718	0.654	0.7317	0.038
Mof_H 	H 	0.4795	0.7223	0.8409	0.054
Mof_H 	H 	0.7968	0.8119	0.891	-0.001
Mof_H 	H 	0.7913	0.7773	0.9642	0.106
Mof_H 	H 	0.4493	0.812	0.9691	0.091
Mof_H 	H 	0.4567	0.8475	0.8937	-0.001
Mof_H 	H 	0.7927	0.697	0.1059	0.041
Mof_H 	H 	0.6189	0.6349	0.2159	0.035
Mof_H 	H 	0.4401	0.6998	0.1076	0.039
Mof_C 	C 	0.7177	0.9293	0.6053	0.391
Mof_C 	C 	0.7817	0.915	0.5606	-0.14
Mof_C 	C 	0.8646	0.9607	0.5436	0.055
Mof_C 	C 	0.923	0.948	0.5015	-0.138
Mof_C 	C 	0.9043	0.8911	0.4775	0.1
Mof_C 	C 	0.8273	0.8503	0.4971	-0.149
Mof_C 	C 	0.7605	0.8623	0.5386	0.073
Mof_C 	C 	0.9502	0.8848	0.4318	-0.059
Mof_C 	C 	0.9891	0.8751	0.3965	0.008
Mof_C 	C 	0.0449	0.866	0.3506	-0
Mof_C 	C 	0.0911	0.9145	0.3286	-0.021
Mof_C 	C 	0.1428	0.9088	0.2845	-0.102
Mof_C 	C 	0.1364	0.8512	0.2603	0.027
Mof_C 	C 	0.0733	0.8017	0.282	-0.093
Mof_C 	C 	0.024	0.8094	0.3274	-0.02
Mof_C 	C 	0.1953	0.9659	0.2621	0.384
Mof_C 	C 	0.0656	0.74031	0.2582	0.367
Mof_C 	C 	0.1376	0.6326	0.3407	0.373
Mof_C 	C 	0.1328	0.6589	0.3869	-0.19
Mof_C 	C 	0.2256	0.6864	0.407	0.149
Mof_C 	C 	0.2209	0.712	0.4496	-0.233
Mof_C 	C 	0.1211	0.7221	0.4708	0.159
Mof_C 	C 	0.0189	0.6909	0.4521	-0.192
Mof_C 	C 	0.0255	0.6654	0.4085	0.119
Mof_C 	C 	0.1122	0.7511	0.5148	-0.088
Mof_C 	C 	0.1135	0.7689	0.5537	0.026
Mof_C 	C 	0.118	0.7957	0.5999	-0.031
Mof_C 	C 	0.2216	0.8101	0.6211	0.004
Mof_C 	C 	0.2234	0.8346	0.6641	-0.115
Mof_C 	C 	0.1166	0.8473	0.6868	0.058
Mof_C 	C 	0.0076	0.8341	0.6671	-0.143
Mof_C 	C 	0.0111	0.8087	0.6226	0.015
Mof_C 	C 	0.3422	0.8521	0.6866	0.384
Mof_C 	C 	0.9016	0.8435	0.6895	0.374
Mof_C 	C 	0.2823	0.0707	0.1053	0.391
Mof_C 	C 	0.2183	0.085	0.0606	-0.137
Mof_C 	C 	0.1354	0.0393	0.0436	0.046
Mof_C 	C 	0.077	0.052	0.0015	-0.116
Mof_C 	C 	0.0957	0.1089	0.9775	0.088
Mof_C 	C 	0.1727	0.1497	0.9971	-0.15
Mof_C 	C 	0.2395	0.1377	0.0386	0.076
Mof_C 	C 	0.0498	0.1152	0.9318	-0.055
Mof_C 	C 	0.0109	0.1249	0.8965	0.005
Mof_C 	C 	0.9551	0.134	0.8506	0.001
Mof_C 	C 	0.9089	0.0855	0.8286	-0.022
Mof_C 	C 	0.8572	0.0912	0.7845	-0.102
Mof_C 	C 	0.8636	0.1488	0.7603	0.026
Mof_C 	C 	0.9267	0.1983	0.782	-0.093
Mof_C 	C 	0.976	0.1906	0.8274	-0.021
Mof_C 	C 	0.8047	0.0341	0.7621	0.384
Mof_C 	C 	0.9344	0.25969	0.7582	0.367
Mof_C 	C 	0.8624	0.3674	0.8407	0.37
Mof_C 	C 	0.8672	0.3411	0.8869	-0.183
Mof_C 	C 	0.7744	0.3136	0.907	0.138
Mof_C 	C 	0.7791	0.288	0.9496	-0.221
Mof_C 	C 	0.8789	0.2779	0.9708	0.144
Mof_C 	C 	0.9811	0.3091	0.9521	-0.183
Mof_C 	C 	0.9745	0.3346	0.9085	0.11
Mof_C 	C 	0.8878	0.2489	0.0148	-0.075
Mof_C 	C 	0.8865	0.2311	0.0537	0.02
Mof_C 	C 	0.882	0.2043	0.0999	-0.026
Mof_C 	C 	0.7784	0.1899	0.1211	0.001
Mof_C 	C 	0.7766	0.1654	0.1641	-0.114
Mof_C 	C 	0.8834	0.1527	0.1868	0.057
Mof_C 	C 	0.9924	0.1659	0.1671	-0.141
Mof_C 	C 	0.9889	0.1913	0.1226	0.012
Mof_C 	C 	0.6578	0.1479	0.1866	0.383
Mof_C 	C 	0.0984	0.1565	0.1895	0.374
Mof_C 	C 	0.7823	0.4293	0.6053	0.392
Mof_C 	C 	0.7183	0.415	0.5606	-0.141
Mof_C 	C 	0.6354	0.4607	0.5436	0.055
Mof_C 	C 	0.577	0.448	0.5015	-0.138
Mof_C 	C 	0.5957	0.3911	0.4775	0.101
Mof_C 	C 	0.6727	0.3503	0.4971	-0.149
Mof_C 	C 	0.7395	0.3623	0.5386	0.074
Mof_C 	C 	0.5498	0.3848	0.4318	-0.059
Mof_C 	C 	0.5109	0.3751	0.3965	0.009
Mof_C 	C 	0.4551	0.366	0.3506	-0.001
Mof_C 	C 	0.4089	0.4145	0.3286	-0.02
Mof_C 	C 	0.3572	0.4088	0.2845	-0.102
Mof_C 	C 	0.3636	0.3512	0.2603	0.026
Mof_C 	C 	0.4267	0.3017	0.282	-0.093
Mof_C 	C 	0.476	0.3094	0.3274	-0.021
Mof_C 	C 	0.3047	0.4659	0.2621	0.384
Mof_C 	C 	0.4344	0.24031	0.2582	0.367
Mof_C 	C 	0.3624	0.1326	0.3407	0.373
Mof_C 	C 	0.3672	0.1589	0.3869	-0.189
Mof_C 	C 	0.2744	0.1864	0.407	0.149
Mof_C 	C 	0.2791	0.212	0.4496	-0.234
Mof_C 	C 	0.3789	0.2221	0.4708	0.16
Mof_C 	C 	0.4811	0.1909	0.4521	-0.194
Mof_C 	C 	0.4745	0.1654	0.4085	0.118
Mof_C 	C 	0.3878	0.2511	0.5148	-0.088
Mof_C 	C 	0.3865	0.2689	0.5537	0.026
Mof_C 	C 	0.382	0.2957	0.5999	-0.031
Mof_C 	C 	0.2784	0.3101	0.6211	0.003
Mof_C 	C 	0.2766	0.3346	0.6641	-0.115
Mof_C 	C 	0.3834	0.3473	0.6868	0.058
Mof_C 	C 	0.4924	0.3341	0.6671	-0.143
Mof_C 	C 	0.4889	0.3087	0.6226	0.014
Mof_C 	C 	0.1578	0.3521	0.6866	0.384
Mof_C 	C 	0.5984	0.3435	0.6895	0.374
Mof_C 	C 	0.2177	0.5707	0.1053	0.391
Mof_C 	C 	0.2817	0.585	0.0606	-0.137
Mof_C 	C 	0.3646	0.5393	0.0436	0.045
Mof_C 	C 	0.423	0.552	0.0015	-0.115
Mof_C 	C 	0.4043	0.6089	0.9775	0.088
Mof_C 	C 	0.3273	0.6497	0.9971	-0.15
Mof_C 	C 	0.2605	0.6377	0.0386	0.076
Mof_C 	C 	0.4502	0.6152	0.9318	-0.055
Mof_C 	C 	0.4891	0.6249	0.8965	0.005
Mof_C 	C 	0.5449	0.634	0.8506	0.001
Mof_C 	C 	0.5911	0.5855	0.8286	-0.022
Mof_C 	C 	0.6428	0.5912	0.7845	-0.102
Mof_C 	C 	0.6364	0.6488	0.7603	0.026
Mof_C 	C 	0.5733	0.6983	0.782	-0.093
Mof_C 	C 	0.524	0.6906	0.8274	-0.022
Mof_C 	C 	0.6953	0.5341	0.7621	0.384
Mof_C 	C 	0.5656	0.75969	0.7582	0.367
Mof_C 	C 	0.6376	0.8674	0.8407	0.37
Mof_C 	C 	0.6328	0.8411	0.8869	-0.182
Mof_C 	C 	0.7256	0.8136	0.907	0.138
Mof_C 	C 	0.7209	0.788	0.9496	-0.22
Mof_C 	C 	0.6211	0.7779	0.9708	0.144
Mof_C 	C 	0.5189	0.8091	0.9521	-0.184
Mof_C 	C 	0.5255	0.8346	0.9085	0.109
Mof_C 	C 	0.6122	0.7489	0.0148	-0.075
Mof_C 	C 	0.6135	0.7311	0.0537	0.02
Mof_C 	C 	0.618	0.7043	0.0999	-0.026
Mof_C 	C 	0.7216	0.6899	0.1211	0
Mof_C 	C 	0.7234	0.6654	0.1641	-0.113
Mof_C 	C 	0.6166	0.6527	0.1868	0.056
Mof_C 	C 	0.5076	0.6659	0.1671	-0.141
Mof_C 	C 	0.5111	0.6913	0.1226	0.011
Mof_C 	C 	0.8422	0.6479	0.1866	0.383
Mof_C 	C 	0.4016	0.6565	0.1895	0.374
Mof_O 	O 	0.6221	0.90853	0.71936	-0.94
Mof_O 	O 	0.6332	0.8964	0.6145	-0.494
Mof_O 	O 	0.7524	0.9746	0.6306	-0.498
Mof_O 	O 	0.1898	0.01632	0.28144	-0.507
Mof_O 	O 	0.2466	0.95673	0.22233	-0.51
Mof_O 	O 	0.1251	0.7326	0.2223	-0.493
Mof_O 	O 	0.9963	0.69975	0.27661	-0.452
Mof_O 	O 	0.2357	0.64349	0.31844	-0.463
Mof_O 	O 	0.0535	0.59676	0.32744	-0.485
Mof_O 	O 	0.4363	0.83679	0.66518	-0.488
Mof_O 	O 	0.3379	0.87938	0.72451	-0.503
Mof_O 	O 	0.805	0.8321	0.6682	-0.462
Mof_O 	O 	0.9033	0.86993	0.73002	-0.467
Mof_O 	O 	0.3779	0.09147	0.21936	-0.94
Mof_O 	O 	0.3668	0.1036	0.1145	-0.494
Mof_O 	O 	0.2476	0.0254	0.1306	-0.498
Mof_O 	O 	0.8102	0.98368	0.78144	-0.507
Mof_O 	O 	0.7534	0.04327	0.72233	-0.51
Mof_O 	O 	0.8749	0.2674	0.7223	-0.493
Mof_O 	O 	0.0037	0.30025	0.77661	-0.452
Mof_O 	O 	0.7643	0.35651	0.81844	-0.462
Mof_O 	O 	0.9465	0.40324	0.82744	-0.485
Mof_O 	O 	0.5637	0.16321	0.16518	-0.488
Mof_O 	O 	0.6621	0.12062	0.22451	-0.503
Mof_O 	O 	0.195	0.1679	0.1682	-0.461
Mof_O 	O 	0.0967	0.13007	0.23002	-0.467
Mof_O 	O 	0.8779	0.40853	0.71936	-0.94
Mof_O 	O 	0.8668	0.3964	0.6145	-0.495
Mof_O 	O 	0.7476	0.4746	0.6306	-0.498
Mof_O 	O 	0.3102	0.51632	0.28144	-0.507
Mof_O 	O 	0.2534	0.45673	0.22233	-0.51
Mof_O 	O 	0.3749	0.2326	0.2223	-0.493
Mof_O 	O 	0.5037	0.19975	0.27661	-0.451
Mof_O 	O 	0.2643	0.14349	0.31844	-0.463
Mof_O 	O 	0.4465	0.09676	0.32744	-0.485
Mof_O 	O 	0.0637	0.33679	0.66518	-0.488
Mof_O 	O 	0.1621	0.37938	0.72451	-0.503
Mof_O 	O 	0.695	0.3321	0.6682	-0.462
Mof_O 	O 	0.5967	0.36993	0.73002	-0.467
Mof_O 	O 	0.1221	0.59147	0.21936	-0.94
Mof_O 	O 	0.1332	0.6036	0.1145	-0.494
Mof_O 	O 	0.2524	0.5254	0.1306	-0.498
Mof_O 	O 	0.6898	0.48368	0.78144	-0.507
Mof_O 	O 	0.7466	0.54327	0.72233	-0.51
Mof_O 	O 	0.6251	0.7674	0.7223	-0.493
Mof_O 	O 	0.4963	0.80025	0.77661	-0.451
Mof_O 	O 	0.7357	0.85651	0.81844	-0.462
Mof_O 	O 	0.5535	0.90324	0.82744	-0.485
Mof_O 	O 	0.9363	0.66321	0.16518	-0.488
Mof_O 	O 	0.8379	0.62062	0.22451	-0.503
Mof_O 	O 	0.305	0.6679	0.1682	-0.461
Mof_O 	O 	0.4033	0.63007	0.23002	-0.467
_end
