data_functionalizedCrystal
_audit_creation_method	'EQeq! by Chris Wilmer'
_symmetry_space_group_name_H-M	'P1'
_symmetry_Int_Tables_number	1
_symmetry_cell_setting	triclinic
loop_
_symmetry_equiv_pos_as_xyz
  x,y,z
_cell_length_a	14.3893
_cell_length_b	14.7147
_cell_length_c	15.3534
_cell_angle_alpha	98.306
_cell_angle_beta	93.876
_cell_angle_gamma	96.296
loop_
_atom_site_label
_atom_site_type_symbol
_atom_site_fract_x
_atom_site_fract_y
_atom_site_fract_z
_atom_site_charge
Mof_U 	U 	0.71786	0.97781	0.62443	0.022
Mof_U 	U 	0.69991	0.97125	0.88365	0.016
Mof_U 	U 	0.92651	0.92539	0.24699	0.029
Mof_U 	U 	0.6035	0.60731	0.74385	0.022
Mof_U 	U 	0.53466	0.7586	0.2956	0.014
Mof_P 	P 	0.6068	0.4115	0.8742	0.434
Mof_P 	P 	0.8378	0.12724	0.8296	0.387
Mof_P 	P 	0.5368	0.7681	0.9264	0.415
Mof_P 	P 	0.276	0.0053	0.87743	0.415
Mof_P 	P 	0.4401	0.15973	0.31756	0.387
Mof_P 	P 	0.72782	0.94406	0.38256	0.393
Mof_P 	P 	0.9229	0.1403	0.5783	0.421
Mof_P 	P 	0.6529	0.381	0.6182	0.432
Mof_O 	O 	0.7583	0.0656	0.7679	-0.144
Mof_O 	O 	0.8381	0.0783	0.5948	-0.165
Mof_O 	O 	0.7212	0.9283	0.4773	-0.145
Mof_O 	O 	0.8249	0.0961	0.9193	-0.159
Mof_O 	O 	0.9327	0.1222	0.799	-0.168
Mof_O 	O 	0.5984	0.8533	0.9129	-0.187
Mof_O 	O 	0.5602	0.6768	0.8833	-0.155
Mof_O 	O 	0.542	0.7687	0.0303	-0.349
Mof_H 	H 	0.5691	0.8184	0.0556	0.229
Mof_O 	O 	0.8303	0.9545	0.3635	-0.138
Mof_O 	O 	0.6677	0.8675	0.3215	-0.153
Mof_O 	O 	0.8786	0.2833	0.371	-0.491
Mof_H 	H 	0.9127	0.3323	0.3747	0.338
Mof_O 	O 	0.2514	0.0378	0.971	-0.163
Mof_O 	O 	0.1966	0.0042	0.8092	-0.171
Mof_O 	O 	0.366	0.0653	0.856	-0.38
Mof_H 	H 	0.3806	0.1089	0.8961	0.24
Mof_O 	O 	0.653	0.4794	0.6579	-0.19
Mof_O 	O 	0.6111	0.5023	0.8408	-0.176
Mof_O 	O 	0.5287	0.3391	0.8369	-0.157
Mof_O 	O 	0.5979	0.4259	0.9762	-0.395
Mof_H 	H 	0.6166	0.4798	0.9972	0.284
Mof_O 	O 	0.6091	0.3076	0.667	-0.177
Mof_O 	O 	0.6044	0.3638	0.5234	-0.4
Mof_H 	H 	0.6165	0.4097	0.4997	0.281
Mof_O 	O 	0.9852	0.5791	0.6139	-0.221
Mof_O 	O 	0.0954	0.4853	0.6208	-0.188
Mof_O 	O 	0.1968	0.5698	0.8511	-0.47
Mof_H 	H 	0.1481	0.5342	0.8468	0.326
Mof_O 	O 	0.0941	0.6727	0.8434	-0.267
Mof_O 	O 	0.9458	0.1096	0.4796	-0.371
Mof_H 	H 	0.9827	0.1499	0.4647	0.275
Mof_O 	O 	0.0101	0.1418	0.6366	-0.162
Mof_O 	O 	0.0439	0.4478	0.835	-0.277
Mof_O 	O 	0.9478	0.5571	0.8382	-0.446
Mof_H 	H 	0.9963	0.5927	0.841	0.321
Mof_O 	O 	0.3861	0.0741	0.2589	-0.148
Mof_O 	O 	0.4341	0.2464	0.2789	-0.169
Mof_O 	O 	0.3983	0.161	0.4065	-0.145
Mof_O 	O 	0.769	0.3758	0.3598	-0.232
Mof_C 	C 	0.7175	0.3689	0.8591	-0.031
Mof_C 	C 	0.7284	0.2746	0.8507	-0.01
Mof_H 	H 	0.6774	0.2309	0.8539	0.079
Mof_C 	C 	0.8178	0.2469	0.8374	-0.027
Mof_C 	C 	0.8938	0.3117	0.8357	-0.007
Mof_H 	H 	0.9522	0.2926	0.826	0.081
Mof_C 	C 	0.8842	0.4057	0.8483	-0.06
Mof_C 	C 	0.7944	0.4362	0.8599	-0.001
Mof_H 	H 	0.7872	0.4988	0.8678	0.086
Mof_C 	C 	0.9693	0.4712	0.8485	0.363
Mof_C 	C 	0.4175	0.784	0.8958	-0.029
Mof_C 	C 	0.3468	0.7105	0.8809	0.008
Mof_H 	H 	0.3604	0.6504	0.8827	0.091
Mof_C 	C 	0.2562	0.7282	0.8633	-0.064
Mof_C 	C 	0.2356	0.8166	0.8558	0.002
Mof_H 	H 	0.1746	0.8268	0.8397	0.081
Mof_C 	C 	0.3063	0.889	0.8725	-0.028
Mof_C 	C 	0.3978	0.8733	0.8885	-0.017
Mof_H 	H 	0.4461	0.9218	0.8944	0.075
Mof_C 	C 	0.1772	0.6528	0.8557	0.38
Mof_C 	C 	0.5619	0.1464	0.3343	-0.023
Mof_C 	C 	0.5911	0.0605	0.349	-0.018
Mof_H 	H 	0.5469	0.0089	0.3467	0.084
Mof_C 	C 	0.6862	0.0534	0.3671	-0.009
Mof_C 	C 	0.7506	0.1304	0.3695	-0.008
Mof_H 	H 	0.8143	0.1256	0.3792	0.097
Mof_C 	C 	0.7221	0.2141	0.3578	-0.062
Mof_C 	C 	0.6277	0.2239	0.3414	-0.001
Mof_H 	H 	0.609	0.2814	0.3352	0.077
Mof_C 	C 	0.7934	0.298	0.3632	0.383
Mof_C 	C 	0.892	0.2547	0.5878	-0.042
Mof_C 	C 	0.7981	0.2722	0.5936	-0.009
Mof_H 	H 	0.7511	0.2225	0.5878	0.074
Mof_C 	C 	0.774	0.3614	0.6078	-0.036
Mof_C 	C 	0.8417	0.435	0.6131	-0.012
Mof_H 	H 	0.8256	0.4949	0.6205	0.086
Mof_C 	C 	0.9359	0.4196	0.6074	-0.026
Mof_C 	C 	0.9609	0.3299	0.5934	-0.011
Mof_H 	H 	0.0232	0.3206	0.5879	0.08
Mof_C 	C 	0.0118	0.5001	0.617	0.285
Mof_U 	U 	0.28214	0.02219	0.37557	0.021
Mof_U 	U 	0.30009	0.02875	0.11635	0.015
Mof_U 	U 	0.07349	0.07461	0.75301	0.028
Mof_U 	U 	0.3965	0.39269	0.25615	0.021
Mof_U 	U 	0.46534	0.2414	0.7044	0.013
Mof_P 	P 	0.3932	0.5885	0.1258	0.433
Mof_P 	P 	0.1622	0.87276	0.1704	0.387
Mof_P 	P 	0.4632	0.2319	0.0736	0.415
Mof_P 	P 	0.724	0.9947	0.12257	0.415
Mof_P 	P 	0.5599	0.84027	0.68244	0.387
Mof_P 	P 	0.27218	0.05594	0.61744	0.393
Mof_P 	P 	0.0771	0.8597	0.4217	0.421
Mof_P 	P 	0.3471	0.619	0.3818	0.432
Mof_O 	O 	0.2417	0.9344	0.2321	-0.144
Mof_O 	O 	0.1619	0.9217	0.4052	-0.165
Mof_O 	O 	0.2788	0.0717	0.5227	-0.145
Mof_O 	O 	0.1751	0.9039	0.0807	-0.159
Mof_O 	O 	0.0673	0.8778	0.201	-0.168
Mof_O 	O 	0.4016	0.1467	0.0871	-0.187
Mof_O 	O 	0.4398	0.3232	0.1167	-0.155
Mof_O 	O 	0.458	0.2313	0.9697	-0.349
Mof_H 	H 	0.4309	0.1816	0.9444	0.229
Mof_O 	O 	0.1697	0.0455	0.6365	-0.138
Mof_O 	O 	0.3323	0.1325	0.6785	-0.153
Mof_O 	O 	0.1214	0.7167	0.629	-0.491
Mof_H 	H 	0.0873	0.6677	0.6253	0.338
Mof_O 	O 	0.7486	0.9622	0.029	-0.163
Mof_O 	O 	0.8034	0.9958	0.1908	-0.171
Mof_O 	O 	0.634	0.9347	0.144	-0.38
Mof_H 	H 	0.6194	0.8911	0.1039	0.24
Mof_O 	O 	0.347	0.5206	0.3421	-0.19
Mof_O 	O 	0.3889	0.4977	0.1592	-0.176
Mof_O 	O 	0.4713	0.6609	0.1631	-0.157
Mof_O 	O 	0.4021	0.5741	0.0238	-0.395
Mof_H 	H 	0.3834	0.5202	0.0028	0.284
Mof_O 	O 	0.3909	0.6924	0.333	-0.177
Mof_O 	O 	0.3956	0.6362	0.4766	-0.4
Mof_H 	H 	0.3835	0.5903	0.5003	0.281
Mof_O 	O 	0.0148	0.4209	0.3861	-0.221
Mof_O 	O 	0.9046	0.5147	0.3792	-0.188
Mof_O 	O 	0.8032	0.4302	0.1489	-0.47
Mof_H 	H 	0.8519	0.4658	0.1532	0.326
Mof_O 	O 	0.9059	0.3273	0.1566	-0.267
Mof_O 	O 	0.0542	0.8904	0.5204	-0.371
Mof_H 	H 	0.0173	0.8501	0.5353	0.275
Mof_O 	O 	0.9899	0.8582	0.3634	-0.162
Mof_O 	O 	0.9561	0.5522	0.165	-0.277
Mof_O 	O 	0.0522	0.4429	0.1618	-0.446
Mof_H 	H 	0.0037	0.4073	0.159	0.321
Mof_O 	O 	0.6139	0.9259	0.7411	-0.148
Mof_O 	O 	0.5659	0.7536	0.7211	-0.169
Mof_O 	O 	0.6017	0.839	0.5935	-0.145
Mof_O 	O 	0.231	0.6242	0.6402	-0.232
Mof_C 	C 	0.2825	0.6311	0.1409	-0.031
Mof_C 	C 	0.2716	0.7254	0.1493	-0.01
Mof_H 	H 	0.3226	0.7691	0.1461	0.079
Mof_C 	C 	0.1822	0.7531	0.1626	-0.027
Mof_C 	C 	0.1062	0.6883	0.1643	-0.007
Mof_H 	H 	0.0478	0.7074	0.174	0.081
Mof_C 	C 	0.1158	0.5943	0.1517	-0.06
Mof_C 	C 	0.2056	0.5638	0.1401	-0.001
Mof_H 	H 	0.2128	0.5012	0.1322	0.086
Mof_C 	C 	0.0307	0.5288	0.1515	0.363
Mof_C 	C 	0.5825	0.216	0.1042	-0.029
Mof_C 	C 	0.6532	0.2895	0.1191	0.008
Mof_H 	H 	0.6396	0.3496	0.1173	0.091
Mof_C 	C 	0.7438	0.2718	0.1367	-0.064
Mof_C 	C 	0.7644	0.1834	0.1442	0.002
Mof_H 	H 	0.8254	0.1732	0.1603	0.081
Mof_C 	C 	0.6937	0.111	0.1275	-0.028
Mof_C 	C 	0.6022	0.1267	0.1115	-0.017
Mof_H 	H 	0.5539	0.0782	0.1056	0.075
Mof_C 	C 	0.8228	0.3472	0.1443	0.38
Mof_C 	C 	0.4381	0.8536	0.6657	-0.023
Mof_C 	C 	0.4089	0.9395	0.651	-0.018
Mof_H 	H 	0.4531	0.9911	0.6533	0.084
Mof_C 	C 	0.3138	0.9466	0.6329	-0.009
Mof_C 	C 	0.2494	0.8696	0.6305	-0.008
Mof_H 	H 	0.1857	0.8744	0.6208	0.097
Mof_C 	C 	0.2779	0.7859	0.6422	-0.062
Mof_C 	C 	0.3723	0.7761	0.6586	-0.001
Mof_H 	H 	0.391	0.7186	0.6648	0.077
Mof_C 	C 	0.2066	0.702	0.6368	0.383
Mof_C 	C 	0.108	0.7453	0.4122	-0.042
Mof_C 	C 	0.2019	0.7278	0.4064	-0.009
Mof_H 	H 	0.2489	0.7775	0.4122	0.074
Mof_C 	C 	0.226	0.6386	0.3922	-0.036
Mof_C 	C 	0.1583	0.565	0.3869	-0.012
Mof_H 	H 	0.1744	0.5051	0.3795	0.086
Mof_C 	C 	0.0641	0.5804	0.3926	-0.026
Mof_C 	C 	0.0391	0.6701	0.4066	-0.011
Mof_H 	H 	0.9768	0.6794	0.4121	0.08
Mof_C 	C 	0.9882	0.4999	0.383	0.285
_end
