data_functionalizedCrystal
_audit_creation_method	'EQeq! by Chris Wilmer'
_symmetry_space_group_name_H-M	'P1'
_symmetry_Int_Tables_number	1
_symmetry_cell_setting	triclinic
loop_
_symmetry_equiv_pos_as_xyz
  x,y,z
_cell_length_a	6.605
_cell_length_b	8.787
_cell_length_c	11.499
_cell_angle_alpha	93.07
_cell_angle_beta	90.42
_cell_angle_gamma	104.66
loop_
_atom_site_label
_atom_site_type_symbol
_atom_site_fract_x
_atom_site_fract_y
_atom_site_fract_z
_atom_site_charge
Mof_Zr	Zr	0.1805	0.7744	0.4062	3.211
Mof_Zr	Zr	0.2281	0.9414	0.8513	3.209
Mof_P 	P 	0.2856	0.119	0.5837	0.777
Mof_P 	P 	0.2392	0.9568	0.1417	0.746
Mof_P 	P 	0.8708	0.406	0.322	0.701
Mof_F 	F 	0.3037	0.1631	0.9237	-0.754
Mof_O 	O 	0.2506	0.0072	0.4727	-0.721
Mof_O 	O 	0.1361	0.2231	0.5831	-0.699
Mof_O 	O 	0.5168	0.2267	0.5911	-0.748
Mof_O 	O 	0.2433	0.0203	0.6892	-0.778
Mof_O 	O 	0.4506	0.0652	0.1652	-0.68
Mof_O 	O 	0.0802	0.0598	0.1589	-0.691
Mof_O 	O 	0.2106	0.8619	0.0224	-0.666
Mof_O 	O 	0.198	0.8422	0.2375	-0.724
Mof_O 	O 	0.8717	0.2998	0.2104	-0.629
Mof_O 	O 	0.0721	0.5413	0.3324	-0.649
Mof_O 	O 	0.8381	0.3137	0.4305	-0.749
Mof_O 	O 	0.6762	0.479	0.3008	-0.402
Mof_H 	H 	0.65	0.568	0.333	0.244
Mof_Zr	Zr	0.8195	0.2256	0.5938	3.212
Mof_Zr	Zr	0.7719	0.0586	0.1487	3.21
Mof_P 	P 	0.7144	0.881	0.4163	0.778
Mof_P 	P 	0.7608	0.0432	0.8583	0.747
Mof_P 	P 	0.1292	0.594	0.678	0.701
Mof_F 	F 	0.6963	0.8369	0.0763	-0.754
Mof_O 	O 	0.7494	0.9928	0.5273	-0.721
Mof_O 	O 	0.8639	0.7769	0.4169	-0.699
Mof_O 	O 	0.4832	0.7733	0.4089	-0.748
Mof_O 	O 	0.7567	0.9797	0.3108	-0.778
Mof_O 	O 	0.5494	0.9348	0.8348	-0.68
Mof_O 	O 	0.9198	0.9402	0.8411	-0.691
Mof_O 	O 	0.7894	0.1381	0.9776	-0.666
Mof_O 	O 	0.802	0.1578	0.7625	-0.724
Mof_O 	O 	0.1283	0.7002	0.7896	-0.629
Mof_O 	O 	0.9279	0.4587	0.6676	-0.649
Mof_O 	O 	0.1619	0.6863	0.5695	-0.749
Mof_O 	O 	0.3238	0.521	0.6992	-0.402
Mof_H 	H 	0.35	0.432	0.667	0.244
_end
