data_functionalizedCrystal
_audit_creation_method	'EQeq! by Chris Wilmer'
_symmetry_space_group_name_H-M	'P1'
_symmetry_Int_Tables_number	1
_symmetry_cell_setting	triclinic
loop_
_symmetry_equiv_pos_as_xyz
  x,y,z
_cell_length_a	11.026
_cell_length_b	16.838
_cell_length_c	22.41
_cell_angle_alpha	90
_cell_angle_beta	90
_cell_angle_gamma	90
loop_
_atom_site_label
_atom_site_type_symbol
_atom_site_fract_x
_atom_site_fract_y
_atom_site_fract_z
_atom_site_charge
Mof_Zn	Zn	0.09424	0.55854	0.49111	1.217
Mof_Zn	Zn	0.09424	0.94146	0.99111	1.215
Mof_Zn	Zn	0.90576	0.94146	0.49111	1.217
Mof_Zn	Zn	0.09424	0.44146	0.00889	1.217
Mof_Zn	Zn	0.09424	0.05854	0.50889	1.217
Mof_Zn	Zn	0.90576	0.55854	0.99111	1.217
Mof_Zn	Zn	0.90576	0.44146	0.50889	1.217
Mof_Zn	Zn	0.90576	0.05854	0.00889	1.215
Mof_H 	H 	0.1004	0.2405	0.4266	-0.029
Mof_H 	H 	0.4742	0.8715	0.5086	0.089
Mof_H 	H 	0.5768	0.0718	0.72	0.161
Mof_H 	H 	0.4108	0.6711	0.1941	0.184
Mof_H 	H 	0.3507	0.5534	0.5132	-0.004
Mof_H 	H 	0.6868	0.5841	0.6315	-0.035
Mof_H 	H 	0.5768	0.4282	0.22	0.161
Mof_H 	H 	0.8996	0.7405	0.0734	-0.028
Mof_H 	H 	0.1619	0.2206	0.5582	-0.004
Mof_H 	H 	0.6868	0.9159	0.1315	-0.033
Mof_H 	H 	0.0558	0.3234	0.6624	-0.031
Mof_H 	H 	0.1619	0.7206	0.4418	-0.004
Mof_H 	H 	0.5258	0.3715	0.9914	0.092
Mof_H 	H 	0.1963	0.3466	0.8639	0.174
Mof_H 	H 	0.3132	0.5841	0.1315	-0.034
Mof_H 	H 	0.9442	0.8234	0.8376	-0.031
Mof_H 	H 	0.3273	0.1972	0.0609	0.091
Mof_H 	H 	0.1963	0.1534	0.3639	0.174
Mof_H 	H 	0.3273	0.8028	0.4391	0.092
Mof_H 	H 	0.3507	0.9466	0.0132	0.001
Mof_H 	H 	0.3172	0.4846	0.6428	-0.031
Mof_H 	H 	0.9442	0.3234	0.1624	-0.031
Mof_H 	H 	0.8381	0.7206	0.9418	-0.004
Mof_H 	H 	0.8442	0.2696	0.2428	0.16
Mof_H 	H 	0.4742	0.3715	0.4914	0.09
Mof_H 	H 	0.4742	0.1285	0.9914	0.094
Mof_H 	H 	0.5768	0.9282	0.78	0.16
Mof_H 	H 	0.6828	0.9846	0.8572	-0.032
Mof_H 	H 	0.1558	0.7696	0.2572	0.16
Mof_H 	H 	0.6727	0.6972	0.4391	0.092
Mof_H 	H 	0.3172	0.5154	0.8572	-0.031
Mof_H 	H 	0.1558	0.2696	0.7428	0.16
Mof_H 	H 	0.5892	0.1711	0.3059	0.185
Mof_H 	H 	0.5768	0.5718	0.28	0.161
Mof_H 	H 	0.8037	0.3466	0.3639	0.174
Mof_H 	H 	0.3273	0.3028	0.5609	0.092
Mof_H 	H 	0.4108	0.8289	0.6941	0.185
Mof_H 	H 	0.4232	0.5718	0.78	0.161
Mof_H 	H 	0.6493	0.0534	0.9868	0.001
Mof_H 	H 	0.1558	0.2304	0.2428	0.16
Mof_H 	H 	0.0558	0.1766	0.1624	-0.031
Mof_H 	H 	0.1004	0.2595	0.9266	-0.028
Mof_H 	H 	0.6828	0.4846	0.1428	-0.031
Mof_H 	H 	0.1004	0.7405	0.5734	-0.028
Mof_H 	H 	0.3132	0.0841	0.8685	-0.033
Mof_H 	H 	0.9442	0.6766	0.3376	-0.031
Mof_H 	H 	0.8996	0.2405	0.9266	-0.028
Mof_H 	H 	0.8037	0.1534	0.8639	0.174
Mof_H 	H 	0.4232	0.9282	0.28	0.162
Mof_H 	H 	0.5892	0.6711	0.6941	0.185
Mof_H 	H 	0.5258	0.6285	0.5086	0.09
Mof_H 	H 	0.6727	0.3028	0.0609	0.092
Mof_H 	H 	0.6828	0.0154	0.6428	-0.031
Mof_H 	H 	0.6727	0.1972	0.5609	0.092
Mof_H 	H 	0.6493	0.9466	0.5132	-0.003
Mof_H 	H 	0.3172	0.0154	0.1428	-0.032
Mof_H 	H 	0.8442	0.2304	0.7428	0.16
Mof_H 	H 	0.4742	0.6285	0.0086	0.092
Mof_H 	H 	0.8381	0.2794	0.5582	-0.004
Mof_H 	H 	0.3132	0.4159	0.3685	-0.034
Mof_H 	H 	0.8442	0.7304	0.2572	0.16
Mof_H 	H 	0.6493	0.4466	0.4868	-0.003
Mof_H 	H 	0.8996	0.7595	0.5734	-0.028
Mof_H 	H 	0.4108	0.3289	0.3059	0.185
Mof_H 	H 	0.8442	0.7696	0.7572	0.16
Mof_H 	H 	0.3273	0.6972	0.9391	0.092
Mof_H 	H 	0.6828	0.5154	0.3572	-0.031
Mof_H 	H 	0.5258	0.1285	0.4914	0.09
Mof_H 	H 	0.6493	0.5534	0.0132	-0.003
Mof_H 	H 	0.4232	0.4282	0.72	0.161
Mof_H 	H 	0.0558	0.8234	0.3376	-0.031
Mof_H 	H 	0.1004	0.7595	0.0734	-0.028
Mof_H 	H 	0.5892	0.3289	0.8059	0.185
Mof_H 	H 	0.8996	0.2595	0.4266	-0.028
Mof_H 	H 	0.1963	0.8466	0.1361	0.174
Mof_H 	H 	0.5258	0.8715	0.0086	0.094
Mof_H 	H 	0.3507	0.0534	0.4868	-0.003
Mof_H 	H 	0.8381	0.2206	0.0582	-0.004
Mof_H 	H 	0.4108	0.1711	0.8059	0.185
Mof_H 	H 	0.4232	0.0718	0.22	0.16
Mof_H 	H 	0.8381	0.7794	0.4418	-0.004
Mof_H 	H 	0.1619	0.2794	0.0582	-0.004
Mof_H 	H 	0.3172	0.9846	0.3572	-0.031
Mof_H 	H 	0.1963	0.6534	0.6361	0.174
Mof_H 	H 	0.1619	0.7794	0.9418	-0.004
Mof_H 	H 	0.6727	0.8028	0.9391	0.091
Mof_H 	H 	0.8037	0.8466	0.6361	0.174
Mof_H 	H 	0.8037	0.6534	0.1361	0.174
Mof_H 	H 	0.6868	0.4159	0.8685	-0.034
Mof_H 	H 	0.3132	0.9159	0.6315	-0.035
Mof_H 	H 	0.1558	0.7304	0.7572	0.16
Mof_H 	H 	0.6868	0.0841	0.3685	-0.035
Mof_H 	H 	0.3507	0.4466	0.9868	-0.003
Mof_H 	H 	0.9442	0.1766	0.6624	-0.031
Mof_H 	H 	0.5892	0.8289	0.1941	0.185
Mof_H 	H 	0.0558	0.6766	0.8376	-0.031
Mof_C 	C 	0.1285	0.1543	0.175	0.227
Mof_C 	C 	0.2355	0.7021	0.4566	0.104
Mof_C 	C 	0.7645	0.7979	0.4566	0.104
Mof_C 	C 	0.1285	0.6543	0.825	0.229
Mof_C 	C 	0.3463	0.1885	0.8293	-0.363
Mof_C 	C 	0.2977	0.3458	0.7407	0.355
Mof_C 	C 	0.8117	0.187	0.7228	-0.351
Mof_C 	C 	0.7117	0.6368	0.6328	0.234
Mof_C 	C 	0.4438	0.7748	0.9711	0.075
Mof_C 	C 	0.3356	0.7487	0.9535	-0.155
Mof_C 	C 	0.5562	0.2252	0.0289	0.075
Mof_C 	C 	0.5562	0.7748	0.4711	0.073
Mof_C 	C 	0.2355	0.7979	0.9566	0.104
Mof_C 	C 	0.1039	0.5543	0.9057	0.448
Mof_C 	C 	0.7151	0.9412	0.837	0.222
Mof_C 	C 	0.3474	0.4084	0.7094	-0.341
Mof_C 	C 	0.5562	0.2748	0.5289	0.073
Mof_C 	C 	0.2849	0.4412	0.663	0.224
Mof_C 	C 	0.2355	0.2021	0.5434	0.104
Mof_C 	C 	0.193	0.3388	0.4039	-0.269
Mof_C 	C 	0.6526	0.9084	0.7906	-0.34
Mof_C 	C 	0.8383	0.741	0.5983	0.235
Mof_C 	C 	0.5476	0.1488	0.005	-0.15
Mof_C 	C 	0.5476	0.6488	0.995	-0.147
Mof_C 	C 	0.1738	0.4106	0.6454	-0.26
Mof_C 	C 	0.2849	0.0588	0.163	0.222
Mof_C 	C 	0.5476	0.8512	0.495	-0.145
Mof_C 	C 	0.1252	0.3966	0.4396	0.445
Mof_C 	C 	0.2883	0.1368	0.8672	0.234
Mof_C 	C 	0.807	0.3388	0.9039	-0.269
Mof_C 	C 	0.3463	0.3115	0.3293	-0.364
Mof_C 	C 	0.2977	0.1542	0.2407	0.354
Mof_C 	C 	0.3082	0.2661	0.8263	0.373
Mof_C 	C 	0.807	0.1612	0.4039	-0.269
Mof_C 	C 	0.6537	0.6885	0.6707	-0.364
Mof_C 	C 	0.8117	0.687	0.2772	-0.351
Mof_C 	C 	0.8262	0.5894	0.3546	-0.26
Mof_C 	C 	0.7818	0.2933	0.3641	-0.366
Mof_C 	C 	0.2977	0.6542	0.7593	0.355
Mof_C 	C 	0.5476	0.3512	0.505	-0.145
Mof_C 	C 	0.1039	0.9457	0.4057	0.449
Mof_C 	C 	0.1883	0.313	0.7228	-0.351
Mof_C 	C 	0.6538	0.8955	0.4976	0.097
Mof_C 	C 	0.2182	0.7933	0.1359	-0.366
Mof_C 	C 	0.3462	0.3955	0.0024	0.097
Mof_C 	C 	0.6537	0.1885	0.3293	-0.364
Mof_C 	C 	0.7645	0.7021	0.9566	0.104
Mof_C 	C 	0.7117	0.8632	0.1328	0.234
Mof_C 	C 	0.193	0.6612	0.0961	-0.269
Mof_C 	C 	0.1285	0.3457	0.675	0.229
Mof_C 	C 	0.1252	0.6034	0.0604	0.445
Mof_C 	C 	0.8117	0.313	0.2228	-0.351
Mof_C 	C 	0.6526	0.5916	0.2906	-0.341
Mof_C 	C 	0.1285	0.8457	0.325	0.229
Mof_C 	C 	0.1252	0.8966	0.5604	0.445
Mof_C 	C 	0.1617	0.741	0.0983	0.235
Mof_C 	C 	0.7023	0.1542	0.7407	0.355
Mof_C 	C 	0.6537	0.8115	0.1707	-0.363
Mof_C 	C 	0.6918	0.7339	0.1737	0.373
Mof_C 	C 	0.8715	0.3457	0.175	0.229
Mof_C 	C 	0.2977	0.8458	0.2593	0.355
Mof_C 	C 	0.2182	0.7067	0.6359	-0.366
Mof_C 	C 	0.7023	0.8458	0.7593	0.354
Mof_C 	C 	0.8961	0.5543	0.4057	0.448
Mof_C 	C 	0.2182	0.2933	0.8641	-0.365
Mof_C 	C 	0.7151	0.5588	0.337	0.224
Mof_C 	C 	0.8748	0.6034	0.5604	0.445
Mof_C 	C 	0.6918	0.7661	0.6737	0.374
Mof_C 	C 	0.2355	0.2979	0.0434	0.104
Mof_C 	C 	0.7117	0.3632	0.8672	0.234
Mof_C 	C 	0.8715	0.6543	0.325	0.229
Mof_C 	C 	0.7818	0.2067	0.8641	-0.366
Mof_C 	C 	0.807	0.8388	0.0961	-0.268
Mof_C 	C 	0.6538	0.1045	0.0024	0.091
Mof_C 	C 	0.8715	0.1543	0.675	0.229
Mof_C 	C 	0.8961	0.0543	0.5943	0.449
Mof_C 	C 	0.1738	0.0894	0.1454	-0.259
Mof_C 	C 	0.6537	0.3115	0.8293	-0.364
Mof_C 	C 	0.6526	0.0916	0.7094	-0.341
Mof_C 	C 	0.1738	0.5894	0.8546	-0.26
Mof_C 	C 	0.2883	0.6368	0.1328	0.234
Mof_C 	C 	0.1617	0.241	0.9017	0.234
Mof_C 	C 	0.8748	0.8966	0.0604	0.444
Mof_C 	C 	0.8715	0.8457	0.825	0.227
Mof_C 	C 	0.4524	0.1488	0.505	-0.145
Mof_C 	C 	0.7818	0.7933	0.6359	-0.366
Mof_C 	C 	0.6644	0.7513	0.9535	-0.155
Mof_C 	C 	0.6644	0.7487	0.4535	-0.154
Mof_C 	C 	0.4438	0.7252	0.4711	0.073
Mof_C 	C 	0.3082	0.7661	0.1737	0.374
Mof_C 	C 	0.7023	0.6542	0.2593	0.355
Mof_C 	C 	0.6538	0.6045	0.9976	0.097
Mof_C 	C 	0.6526	0.4084	0.2094	-0.341
Mof_C 	C 	0.7151	0.4412	0.163	0.223
Mof_C 	C 	0.1617	0.759	0.5983	0.235
Mof_C 	C 	0.6918	0.2661	0.3263	0.374
Mof_C 	C 	0.3082	0.7339	0.6737	0.374
Mof_C 	C 	0.5562	0.7252	0.9711	0.073
Mof_C 	C 	0.4524	0.3512	0.005	-0.147
Mof_C 	C 	0.2182	0.2067	0.3641	-0.366
Mof_C 	C 	0.7818	0.7067	0.1359	-0.365
Mof_C 	C 	0.4438	0.2748	0.0289	0.073
Mof_C 	C 	0.2849	0.9412	0.337	0.224
Mof_C 	C 	0.8748	0.1034	0.4396	0.445
Mof_C 	C 	0.193	0.1612	0.9039	-0.268
Mof_C 	C 	0.1883	0.187	0.2228	-0.35
Mof_C 	C 	0.1617	0.259	0.4017	0.235
Mof_C 	C 	0.8383	0.759	0.0983	0.234
Mof_C 	C 	0.4524	0.8512	0.995	-0.15
Mof_C 	C 	0.8262	0.9106	0.8546	-0.259
Mof_C 	C 	0.1738	0.9106	0.3546	-0.26
Mof_C 	C 	0.8117	0.813	0.7772	-0.35
Mof_C 	C 	0.1883	0.687	0.7772	-0.351
Mof_C 	C 	0.3463	0.8115	0.6707	-0.364
Mof_C 	C 	0.6644	0.2487	0.5465	-0.154
Mof_C 	C 	0.3462	0.8955	0.9976	0.091
Mof_C 	C 	0.7117	0.1368	0.3672	0.234
Mof_C 	C 	0.2883	0.3632	0.3672	0.234
Mof_C 	C 	0.3462	0.6045	0.4976	0.096
Mof_C 	C 	0.6918	0.2339	0.8263	0.374
Mof_C 	C 	0.3462	0.1045	0.5024	0.097
Mof_C 	C 	0.7645	0.2979	0.5434	0.104
Mof_C 	C 	0.4438	0.2252	0.5289	0.073
Mof_C 	C 	0.8961	0.4457	0.0943	0.448
Mof_C 	C 	0.7023	0.3458	0.2407	0.355
Mof_C 	C 	0.8748	0.3966	0.9396	0.445
Mof_C 	C 	0.3356	0.7513	0.4535	-0.154
Mof_C 	C 	0.4524	0.6488	0.495	-0.145
Mof_C 	C 	0.3356	0.2513	0.5465	-0.154
Mof_C 	C 	0.3463	0.6885	0.1707	-0.364
Mof_C 	C 	0.2849	0.5588	0.837	0.223
Mof_C 	C 	0.807	0.6612	0.5961	-0.269
Mof_C 	C 	0.1039	0.4457	0.5943	0.448
Mof_C 	C 	0.8383	0.241	0.4017	0.235
Mof_C 	C 	0.6538	0.3955	0.5024	0.096
Mof_C 	C 	0.193	0.8388	0.5961	-0.269
Mof_C 	C 	0.3474	0.5916	0.7906	-0.341
Mof_C 	C 	0.8262	0.0894	0.6454	-0.26
Mof_C 	C 	0.7151	0.0588	0.663	0.224
Mof_C 	C 	0.8262	0.4106	0.1454	-0.26
Mof_C 	C 	0.7645	0.2021	0.0434	0.104
Mof_C 	C 	0.8383	0.259	0.9017	0.235
Mof_C 	C 	0.8961	0.9457	0.9057	0.442
Mof_C 	C 	0.1039	0.0543	0.0943	0.442
Mof_C 	C 	0.6644	0.2513	0.0465	-0.155
Mof_C 	C 	0.2883	0.8632	0.6328	0.234
Mof_C 	C 	0.1252	0.1034	0.9396	0.444
Mof_C 	C 	0.1883	0.813	0.2772	-0.351
Mof_C 	C 	0.3474	0.9084	0.2906	-0.341
Mof_C 	C 	0.3474	0.0916	0.2094	-0.34
Mof_C 	C 	0.3356	0.2487	0.0465	-0.155
Mof_C 	C 	0.3082	0.2339	0.3263	0.374
Mof_N 	N 	0.2399	0.1301	0.5205	-0.258
Mof_N 	N 	0.2399	0.8699	0.9795	-0.258
Mof_N 	N 	0.7601	0.6301	0.9795	-0.258
Mof_N 	N 	0.7601	0.8699	0.4795	-0.258
Mof_N 	N 	0.7601	0.3699	0.5205	-0.258
Mof_N 	N 	0.2399	0.3699	0.0205	-0.258
Mof_N 	N 	0.2399	0.6301	0.4795	-0.258
Mof_N 	N 	0.7601	0.1301	0.0205	-0.258
Mof_O 	O 	0.6351	0.3169	0.2877	-0.35
Mof_O 	O 	0.8513	0.4949	0.4317	-0.482
Mof_O 	O 	0.6351	0.8169	0.7123	-0.349
Mof_O 	O 	0.1682	0.5349	0.0535	-0.473
Mof_O 	O 	0.8513	0.5051	0.0683	-0.482
Mof_O 	O 	0.0045	0.0851	0.0817	-0.479
Mof_O 	O 	0.1487	0.4949	0.9317	-0.482
Mof_O 	O 	0.8513	0.9949	0.5683	-0.483
Mof_O 	O 	0.9955	0.9149	0.9183	-0.479
Mof_O 	O 	0.0248	0.3743	0.4619	-0.472
Mof_O 	O 	0.3649	0.3169	0.7877	-0.349
Mof_O 	O 	0.1682	0.0349	0.9465	-0.471
Mof_O 	O 	0.0045	0.5851	0.9183	-0.479
Mof_O 	O 	0.8318	0.4651	0.9465	-0.473
Mof_O 	O 	0.3649	0.8169	0.2123	-0.349
Mof_O 	O 	0.1682	0.4651	0.4465	-0.473
Mof_O 	O 	0.9752	0.6257	0.5381	-0.472
Mof_O 	O 	0.1487	0.9949	0.0683	-0.477
Mof_O 	O 	0.9955	0.0851	0.5817	-0.479
Mof_O 	O 	0.9752	0.8743	0.0381	-0.47
Mof_O 	O 	0.8318	0.0349	0.4465	-0.474
Mof_O 	O 	0.8318	0.5349	0.5535	-0.473
Mof_O 	O 	0.9752	0.3743	0.9619	-0.471
Mof_O 	O 	0.0045	0.9149	0.4183	-0.479
Mof_O 	O 	0.9752	0.1257	0.4619	-0.472
Mof_O 	O 	0.3649	0.6831	0.7123	-0.35
Mof_O 	O 	0.1682	0.9651	0.5535	-0.474
Mof_O 	O 	0.3649	0.1831	0.2877	-0.349
Mof_O 	O 	0.9955	0.5851	0.4183	-0.479
Mof_O 	O 	0.0248	0.8743	0.5381	-0.472
Mof_O 	O 	0.1487	0.0051	0.4317	-0.483
Mof_O 	O 	0.1487	0.5051	0.5683	-0.482
Mof_O 	O 	0.6351	0.1831	0.7877	-0.349
Mof_O 	O 	0.0248	0.1257	0.9619	-0.47
Mof_O 	O 	0.6351	0.6831	0.2123	-0.349
Mof_O 	O 	0.8318	0.9651	0.0535	-0.471
Mof_O 	O 	0.9955	0.4149	0.0817	-0.479
Mof_O 	O 	0.0045	0.4149	0.5817	-0.479
Mof_O 	O 	0.8513	0.0051	0.9317	-0.477
Mof_O 	O 	0.0248	0.6257	0.0381	-0.471
_end
