data_functionalizedCrystal
_audit_creation_method	'EQeq! by Chris Wilmer'
_symmetry_space_group_name_H-M	'P1'
_symmetry_Int_Tables_number	1
_symmetry_cell_setting	triclinic
loop_
_symmetry_equiv_pos_as_xyz
  x,y,z
_cell_length_a	14.656
_cell_length_b	14.656
_cell_length_c	16.905
_cell_angle_alpha	90
_cell_angle_beta	90
_cell_angle_gamma	120
loop_
_atom_site_label
_atom_site_type_symbol
_atom_site_fract_x
_atom_site_fract_y
_atom_site_fract_z
_atom_site_charge
Mof_Cu	Cu	0.11674	0.43944	0.85831	0.896
Mof_Cu	Cu	0.3227	0.88326	0.19164	0.911
Mof_Cu	Cu	0.56056	0.6773	0.52498	0.902
Mof_Cu	Cu	0.88326	0.56056	0.35831	0.907
Mof_Cu	Cu	0.6773	0.11674	0.69164	0.896
Mof_Cu	Cu	0.43944	0.3227	0.02498	0.912
Mof_Cu	Cu	0.6773	0.56056	0.47502	0.902
Mof_Cu	Cu	0.43944	0.11674	0.14169	0.898
Mof_Cu	Cu	0.88326	0.3227	0.80836	0.907
Mof_Cu	Cu	0.3227	0.43944	0.97502	0.893
Mof_Cu	Cu	0.56056	0.88326	0.64169	0.91
Mof_Cu	Cu	0.11674	0.6773	0.30836	0.898
Mof_Cu	Cu	-9.25757e-18	0.16385	0.83333	0.912
Mof_Cu	Cu	0.16385	0	0.16667	0.904
Mof_Cu	Cu	0.83615	0.83615	0.5	0.934
Mof_Cu	Cu	-4.70853e-17	0.83615	0.33333	0.914
Mof_Cu	Cu	0.83615	0	0.66667	0.905
Mof_Cu	Cu	0.16385	0.16385	-0	0.942
Mof_P 	P 	0.08062	0.31562	0.00577	0.412
Mof_P 	P 	0.235	0.91938	0.3391	0.416
Mof_P 	P 	0.68438	0.765	0.67244	0.407
Mof_P 	P 	0.91938	0.68438	0.50577	0.415
Mof_P 	P 	0.765	0.08062	0.8391	0.436
Mof_P 	P 	0.31562	0.235	0.17244	0.404
Mof_P 	P 	0.765	0.68438	0.32756	0.408
Mof_P 	P 	0.31562	0.08062	0.99423	0.383
Mof_P 	P 	0.91938	0.235	0.6609	0.413
Mof_P 	P 	0.235	0.31562	0.82756	0.405
Mof_P 	P 	0.68438	0.91938	0.49423	0.418
Mof_P 	P 	0.08062	0.765	0.1609	0.363
Mof_H 	H 	0.0645	0.4423	0.1316	0.038
Mof_H 	H 	0.774	0.316	0.179	-0.192
Mof_H 	H 	0.736	0.213	0.077	0.298
Mof_H 	H 	0.859	0.211	0.011	-0.076
Mof_H 	H 	0.3778	0.9355	0.46493	0.064
Mof_H 	H 	0.542	0.226	0.51233	0.315
Mof_H 	H 	0.477	0.264	0.41033	-0.141
Mof_H 	H 	0.352	0.141	0.34433	0.198
Mof_H 	H 	0.5577	0.6222	0.79827	0.036
Mof_H 	H 	0.684	0.458	0.84567	0.007
Mof_H 	H 	0.787	0.523	0.74367	0.124
Mof_H 	H 	0.789	0.648	0.67767	0.031
Mof_H 	H 	0.9355	0.5577	0.6316	0.051
Mof_H 	H 	0.226	0.684	0.679	0.208
Mof_H 	H 	0.264	0.787	0.577	-0.044
Mof_H 	H 	0.141	0.789	0.511	0.138
Mof_H 	H 	0.6222	0.0645	0.96493	-0.083
Mof_H 	H 	0.458	0.774	0.01233	-0.479
Mof_H 	H 	0.523	0.736	0.91033	0.601
Mof_H 	H 	0.648	0.859	0.84433	-0.328
Mof_H 	H 	0.4423	0.3778	0.29827	0.051
Mof_H 	H 	0.316	0.542	0.34567	0.005
Mof_H 	H 	0.213	0.477	0.24367	0.124
Mof_H 	H 	0.211	0.352	0.17767	0.024
Mof_H 	H 	0.6222	0.5577	0.20173	0.037
Mof_H 	H 	0.458	0.684	0.15433	-0.005
Mof_H 	H 	0.523	0.787	0.25633	0.146
Mof_H 	H 	0.648	0.789	0.32233	0.014
Mof_H 	H 	0.4423	0.0645	0.8684	0.029
Mof_H 	H 	0.316	0.774	0.821	-0.285
Mof_H 	H 	0.213	0.736	0.923	0.367
Mof_H 	H 	0.211	0.859	0.989	-0.146
Mof_H 	H 	0.9355	0.3778	0.53507	0.059
Mof_H 	H 	0.226	0.542	0.48767	0.21
Mof_H 	H 	0.264	0.477	0.58967	-0.05
Mof_H 	H 	0.141	0.352	0.65567	0.138
Mof_H 	H 	0.3778	0.4423	0.70173	0.05
Mof_H 	H 	0.542	0.316	0.65433	0.008
Mof_H 	H 	0.477	0.213	0.75633	0.119
Mof_H 	H 	0.352	0.211	0.82233	0.027
Mof_H 	H 	0.5577	0.9355	0.3684	0.058
Mof_H 	H 	0.684	0.226	0.321	0.314
Mof_H 	H 	0.787	0.264	0.423	-0.136
Mof_H 	H 	0.789	0.141	0.489	0.197
Mof_H 	H 	0.0645	0.6222	0.03507	0.122
Mof_H 	H 	0.774	0.458	0.98767	-0.03
Mof_H 	H 	0.736	0.523	0.08967	0.109
Mof_H 	H 	0.859	0.648	0.15567	0.079
Mof_C 	C 	0.9794	0.3222	0.0646	-0.104
Mof_C 	C 	0.0046	0.3971	0.1249	0.032
Mof_C 	C 	0.9251	0.3951	0.1709	-0.234
Mof_C 	C 	0.8191	0.3169	0.1573	0.497
Mof_C 	C 	0.7948	0.2454	0.0973	-0.57
Mof_C 	C 	0.8743	0.2472	0.0502	0.319
Mof_C 	C 	0.95	0.4776	0.2339	0.455
Mof_C 	C 	0.3428	0.0206	0.39793	-0.019
Mof_C 	C 	0.3925	0.9954	0.45823	0.008
Mof_C 	C 	0.47	0.0749	0.50423	0.082
Mof_C 	C 	0.4978	0.1809	0.49063	-0.533
Mof_C 	C 	0.4506	0.2052	0.43063	0.42
Mof_C 	C 	0.3729	0.1257	0.38353	-0.347
Mof_C 	C 	0.5276	0.05	0.56723	0.208
Mof_C 	C 	0.6778	0.6572	0.73127	-0.07
Mof_C 	C 	0.6029	0.6075	0.79157	0.039
Mof_C 	C 	0.6049	0.53	0.83757	-0.117
Mof_C 	C 	0.6831	0.5022	0.82397	0.098
Mof_C 	C 	0.7546	0.5494	0.76397	-0.176
Mof_C 	C 	0.7528	0.6271	0.71687	0.064
Mof_C 	C 	0.5224	0.4724	0.90057	0.362
Mof_C 	C 	0.0206	0.6778	0.5646	-0.043
Mof_C 	C 	0.9954	0.6029	0.6249	0.029
Mof_C 	C 	0.0749	0.6049	0.6709	0.009
Mof_C 	C 	0.1809	0.6831	0.6573	-0.303
Mof_C 	C 	0.2052	0.7546	0.5973	0.206
Mof_C 	C 	0.1257	0.7528	0.5502	-0.193
Mof_C 	C 	0.05	0.5224	0.7339	0.262
Mof_C 	C 	0.6572	0.9794	0.89793	-0.344
Mof_C 	C 	0.6075	0.0046	0.95823	0.288
Mof_C 	C 	0.53	0.9251	0.00423	-0.501
Mof_C 	C 	0.5022	0.8191	0.99063	1.134
Mof_C 	C 	0.5494	0.7948	0.93063	-1.282
Mof_C 	C 	0.6271	0.8743	0.88353	0.887
Mof_C 	C 	0.4724	0.95	0.06723	0.588
Mof_C 	C 	0.3222	0.3428	0.23127	-0.076
Mof_C 	C 	0.3971	0.3925	0.29157	0.02
Mof_C 	C 	0.3951	0.47	0.33757	-0.112
Mof_C 	C 	0.3169	0.4978	0.32397	0.093
Mof_C 	C 	0.2454	0.4506	0.26397	-0.186
Mof_C 	C 	0.2472	0.3729	0.21687	0.059
Mof_C 	C 	0.4776	0.5276	0.40057	0.356
Mof_C 	C 	0.6572	0.6778	0.26873	-0.089
Mof_C 	C 	0.6075	0.6029	0.20843	0.054
Mof_C 	C 	0.53	0.6049	0.16243	-0.129
Mof_C 	C 	0.5022	0.6831	0.17603	0.145
Mof_C 	C 	0.5494	0.7546	0.23603	-0.223
Mof_C 	C 	0.6271	0.7528	0.28313	0.105
Mof_C 	C 	0.4724	0.5224	0.09943	0.368
Mof_C 	C 	0.3222	0.9794	0.9354	-0.132
Mof_C 	C 	0.3971	0.0046	0.8751	0.044
Mof_C 	C 	0.3951	0.9251	0.8291	-0.299
Mof_C 	C 	0.3169	0.8191	0.8427	0.684
Mof_C 	C 	0.2454	0.7948	0.9027	-0.754
Mof_C 	C 	0.2472	0.8743	0.9498	0.446
Mof_C 	C 	0.4776	0.95	0.7661	0.502
Mof_C 	C 	0.0206	0.3428	0.60207	-0.041
Mof_C 	C 	0.9954	0.3925	0.54177	0.015
Mof_C 	C 	0.0749	0.47	0.49577	0.015
Mof_C 	C 	0.1809	0.4978	0.50937	-0.318
Mof_C 	C 	0.2052	0.4506	0.56937	0.212
Mof_C 	C 	0.1257	0.3729	0.61647	-0.207
Mof_C 	C 	0.05	0.5276	0.43277	0.258
Mof_C 	C 	0.3428	0.3222	0.76873	-0.072
Mof_C 	C 	0.3925	0.3971	0.70843	0.017
Mof_C 	C 	0.47	0.3951	0.66243	-0.108
Mof_C 	C 	0.4978	0.3169	0.67603	0.084
Mof_C 	C 	0.4506	0.2454	0.73603	-0.178
Mof_C 	C 	0.3729	0.2472	0.78313	0.051
Mof_C 	C 	0.5276	0.4776	0.59943	0.355
Mof_C 	C 	0.6778	0.0206	0.4354	-0.021
Mof_C 	C 	0.6029	0.9954	0.3751	0.02
Mof_C 	C 	0.6049	0.0749	0.3291	0.077
Mof_C 	C 	0.6831	0.1809	0.3427	-0.521
Mof_C 	C 	0.7546	0.2052	0.4027	0.414
Mof_C 	C 	0.7528	0.1257	0.4498	-0.336
Mof_C 	C 	0.5224	0.05	0.2661	0.208
Mof_C 	C 	0.9794	0.6572	0.10207	0.075
Mof_C 	C 	0.0046	0.6075	0.04177	-0.151
Mof_C 	C 	0.9251	0.53	0.99577	-0.073
Mof_C 	C 	0.8191	0.5022	0.00937	0.143
Mof_C 	C 	0.7948	0.5494	0.06937	-0.131
Mof_C 	C 	0.8743	0.6271	0.11647	-0.032
Mof_C 	C 	0.95	0.4724	0.93277	0.397
Mof_O 	O 	0.0465	0.3018	0.9175	-0.49
Mof_O 	O 	0.1882	0.4146	0.019	-0.385
Mof_O 	O 	0.0789	0.217	0.0365	-0.371
Mof_O 	O 	0.0467	0.5478	0.2442	-0.459
Mof_O 	O 	0.872	0.4729	0.2699	-0.425
Mof_O 	O 	0.2553	0.9535	0.25083	-0.434
Mof_O 	O 	0.2264	0.8118	0.35233	-0.398
Mof_O 	O 	0.1381	0.9211	0.36983	-0.359
Mof_O 	O 	0.5011	0.9533	0.57753	-0.329
Mof_O 	O 	0.6009	0.128	0.60323	-0.375
Mof_O 	O 	0.6982	0.7447	0.58417	-0.463
Mof_O 	O 	0.5854	0.7736	0.68567	-0.384
Mof_O 	O 	0.783	0.8619	0.70317	-0.326
Mof_O 	O 	0.4522	0.4989	0.91087	-0.419
Mof_O 	O 	0.5271	0.3991	0.93657	-0.411
Mof_O 	O 	0.9535	0.6982	0.4175	-0.445
Mof_O 	O 	0.8118	0.5854	0.519	-0.394
Mof_O 	O 	0.9211	0.783	0.5365	-0.347
Mof_O 	O 	0.9533	0.4522	0.7442	-0.356
Mof_O 	O 	0.128	0.5271	0.7699	-0.383
Mof_O 	O 	0.7447	0.0465	0.75083	-0.486
Mof_O 	O 	0.7736	0.1882	0.85233	-0.394
Mof_O 	O 	0.8619	0.0789	0.86983	-0.362
Mof_O 	O 	0.4989	0.0467	0.07753	-0.499
Mof_O 	O 	0.3991	0.872	0.10323	-0.446
Mof_O 	O 	0.3018	0.2553	0.08417	-0.458
Mof_O 	O 	0.4146	0.2264	0.18567	-0.398
Mof_O 	O 	0.217	0.1381	0.20317	-0.383
Mof_O 	O 	0.5478	0.5011	0.41087	-0.404
Mof_O 	O 	0.4729	0.6009	0.43657	-0.406
Mof_O 	O 	0.7447	0.6982	0.41583	-0.463
Mof_O 	O 	0.7736	0.5854	0.31433	-0.391
Mof_O 	O 	0.8619	0.783	0.29683	-0.339
Mof_O 	O 	0.4989	0.4522	0.08913	-0.402
Mof_O 	O 	0.3991	0.5271	0.06343	-0.391
Mof_O 	O 	0.3018	0.0465	0.0825	-0.474
Mof_O 	O 	0.4146	0.1882	0.981	-0.4
Mof_O 	O 	0.217	0.0789	0.9635	-0.384
Mof_O 	O 	0.5478	0.0467	0.7558	-0.481
Mof_O 	O 	0.4729	0.872	0.7301	-0.434
Mof_O 	O 	0.9535	0.2553	0.74917	-0.444
Mof_O 	O 	0.8118	0.2264	0.64767	-0.401
Mof_O 	O 	0.9211	0.1381	0.63017	-0.37
Mof_O 	O 	0.9533	0.5011	0.42247	-0.353
Mof_O 	O 	0.128	0.6009	0.39677	-0.385
Mof_O 	O 	0.2553	0.3018	0.91583	-0.47
Mof_O 	O 	0.2264	0.4146	0.81433	-0.4
Mof_O 	O 	0.1381	0.217	0.79683	-0.379
Mof_O 	O 	0.5011	0.5478	0.58913	-0.406
Mof_O 	O 	0.6009	0.4729	0.56343	-0.407
Mof_O 	O 	0.6982	0.9535	0.5825	-0.436
Mof_O 	O 	0.5854	0.8118	0.481	-0.394
Mof_O 	O 	0.783	0.9211	0.4635	-0.343
Mof_O 	O 	0.4522	0.9533	0.2558	-0.329
Mof_O 	O 	0.5271	0.128	0.2301	-0.372
Mof_O 	O 	0.0465	0.7447	0.24917	-0.475
Mof_O 	O 	0.1882	0.7736	0.14767	-0.378
Mof_O 	O 	0.0789	0.8619	0.13017	-0.331
Mof_O 	O 	0.0467	0.4989	0.92247	-0.455
Mof_O 	O 	0.872	0.3991	0.89677	-0.411
Mof_O 	O 	0.0338	0.0676	0.91667	-0.295
Mof_O 	O 	0.0338	0.9662	0.25	-0.24
Mof_O 	O 	0.9324	0.9662	0.58333	-0.215
Mof_O 	O 	0.9662	0.9324	0.41667	-0.22
Mof_O 	O 	0.9662	0.0338	0.75	-0.259
Mof_O 	O 	0.0676	0.0338	0.08333	-0.287
_end
