data_functionalizedCrystal
_audit_creation_method	'EQeq! by Chris Wilmer'
_symmetry_space_group_name_H-M	'P1'
_symmetry_Int_Tables_number	1
_symmetry_cell_setting	triclinic
loop_
_symmetry_equiv_pos_as_xyz
  x,y,z
_cell_length_a	35.2627
_cell_length_b	35.2627
_cell_length_c	35.2627
_cell_angle_alpha	60
_cell_angle_beta	60
_cell_angle_gamma	60
loop_
_atom_site_label
_atom_site_type_symbol
_atom_site_fract_x
_atom_site_fract_y
_atom_site_fract_z
_atom_site_charge
Mof_Ag	Ag	0.06907	0.88306	0.31498	0.542
Mof_Ag	Ag	0.00831	0.81699	0.43491	0.564
Mof_Ag	Ag	0.38306	0.56907	0.73289	0.542
Mof_Ag	Ag	0.31699	0.50831	0.73979	0.564
Mof_Ag	Ag	0.81498	0.73289	0.56907	0.542
Mof_Ag	Ag	0.93491	0.73979	0.50831	0.564
Mof_Ag	Ag	0.23289	0.31498	0.88306	0.542
Mof_Ag	Ag	0.23979	0.43491	0.81699	0.564
Mof_Ag	Ag	0.06907	0.31498	0.73289	0.542
Mof_Ag	Ag	0.00831	0.43491	0.73979	0.564
Mof_Ag	Ag	0.38306	0.73289	0.31498	0.542
Mof_Ag	Ag	0.31699	0.73979	0.43491	0.564
Mof_Ag	Ag	0.81498	0.56907	0.88306	0.542
Mof_Ag	Ag	0.93491	0.50831	0.81699	0.565
Mof_Ag	Ag	0.23289	0.88306	0.56907	0.542
Mof_Ag	Ag	0.23979	0.81699	0.50831	0.564
Mof_Ag	Ag	0.06907	0.73289	0.88306	0.542
Mof_Ag	Ag	0.00831	0.73979	0.81699	0.563
Mof_Ag	Ag	0.38306	0.31498	0.56907	0.542
Mof_Ag	Ag	0.31699	0.43491	0.50831	0.564
Mof_Ag	Ag	0.81498	0.88306	0.73289	0.542
Mof_Ag	Ag	0.93491	0.81699	0.73979	0.565
Mof_Ag	Ag	0.23289	0.56907	0.31498	0.542
Mof_Ag	Ag	0.23979	0.50831	0.43491	0.564
Mof_Ag	Ag	0.11694	0.93093	0.18502	0.542
Mof_Ag	Ag	0.18301	0.99169	0.06509	0.564
Mof_Ag	Ag	0.43093	0.61694	0.76711	0.542
Mof_Ag	Ag	0.49169	0.68301	0.76021	0.564
Mof_Ag	Ag	0.26711	0.18502	0.93093	0.542
Mof_Ag	Ag	0.26021	0.06509	0.99169	0.564
Mof_Ag	Ag	0.68502	0.76711	0.61694	0.542
Mof_Ag	Ag	0.56509	0.76021	0.68301	0.564
Mof_Ag	Ag	0.68502	0.93093	0.76711	0.542
Mof_Ag	Ag	0.56509	0.99169	0.76021	0.564
Mof_Ag	Ag	0.26711	0.61694	0.18502	0.542
Mof_Ag	Ag	0.26021	0.68301	0.06509	0.564
Mof_Ag	Ag	0.43093	0.18502	0.61694	0.542
Mof_Ag	Ag	0.49169	0.06509	0.68301	0.564
Mof_Ag	Ag	0.11694	0.76711	0.93093	0.542
Mof_Ag	Ag	0.18301	0.76021	0.99169	0.563
Mof_Ag	Ag	0.26711	0.93093	0.61694	0.542
Mof_Ag	Ag	0.26021	0.99169	0.68301	0.564
Mof_Ag	Ag	0.68502	0.61694	0.93093	0.541
Mof_Ag	Ag	0.56509	0.68301	0.99169	0.563
Mof_Ag	Ag	0.11694	0.18502	0.76711	0.541
Mof_Ag	Ag	0.18301	0.06509	0.76021	0.564
Mof_Ag	Ag	0.43093	0.76711	0.18502	0.541
Mof_Ag	Ag	0.49169	0.76021	0.06509	0.563
Mof_Ag	Ag	0.93093	0.11694	0.68502	0.541
Mof_Ag	Ag	0.99169	0.18301	0.56509	0.563
Mof_Ag	Ag	0.61694	0.43093	0.26711	0.541
Mof_Ag	Ag	0.68301	0.49169	0.26021	0.563
Mof_Ag	Ag	0.18502	0.26711	0.43093	0.541
Mof_Ag	Ag	0.06509	0.26021	0.49169	0.563
Mof_Ag	Ag	0.76711	0.68502	0.11694	0.541
Mof_Ag	Ag	0.76021	0.56509	0.18301	0.563
Mof_Ag	Ag	0.93093	0.68502	0.26711	0.541
Mof_Ag	Ag	0.99169	0.56509	0.26021	0.563
Mof_Ag	Ag	0.61694	0.26711	0.68502	0.541
Mof_Ag	Ag	0.68301	0.26021	0.56509	0.563
Mof_Ag	Ag	0.18502	0.43093	0.11694	0.541
Mof_Ag	Ag	0.06509	0.49169	0.18301	0.564
Mof_Ag	Ag	0.76711	0.11694	0.43093	0.541
Mof_Ag	Ag	0.76021	0.18301	0.49169	0.563
Mof_Ag	Ag	0.93093	0.26711	0.11694	0.541
Mof_Ag	Ag	0.99169	0.26021	0.18301	0.562
Mof_Ag	Ag	0.61694	0.68502	0.43093	0.541
Mof_Ag	Ag	0.68301	0.56509	0.49169	0.563
Mof_Ag	Ag	0.18502	0.11694	0.26711	0.541
Mof_Ag	Ag	0.06509	0.18301	0.26021	0.564
Mof_Ag	Ag	0.76711	0.43093	0.68502	0.541
Mof_Ag	Ag	0.76021	0.49169	0.56509	0.563
Mof_Ag	Ag	0.88306	0.06907	0.81498	0.541
Mof_Ag	Ag	0.81699	0.00831	0.93491	0.563
Mof_Ag	Ag	0.56907	0.38306	0.23289	0.541
Mof_Ag	Ag	0.50831	0.31699	0.23979	0.563
Mof_Ag	Ag	0.73289	0.81498	0.06907	0.541
Mof_Ag	Ag	0.73979	0.93491	0.00831	0.563
Mof_Ag	Ag	0.31498	0.23289	0.38306	0.541
Mof_Ag	Ag	0.43491	0.23979	0.31699	0.563
Mof_Ag	Ag	0.31498	0.06907	0.23289	0.541
Mof_Ag	Ag	0.43491	0.00831	0.23979	0.563
Mof_Ag	Ag	0.73289	0.38306	0.81498	0.541
Mof_Ag	Ag	0.73979	0.31699	0.93491	0.563
Mof_Ag	Ag	0.56907	0.81498	0.38306	0.541
Mof_Ag	Ag	0.50831	0.93491	0.31699	0.563
Mof_Ag	Ag	0.88306	0.23289	0.06907	0.541
Mof_Ag	Ag	0.81699	0.23979	0.00831	0.562
Mof_Ag	Ag	0.73289	0.06907	0.38306	0.541
Mof_Ag	Ag	0.73979	0.00831	0.31699	0.563
Mof_Ag	Ag	0.31498	0.38306	0.06907	0.541
Mof_Ag	Ag	0.43491	0.31699	0.00831	0.563
Mof_Ag	Ag	0.88306	0.81498	0.23289	0.541
Mof_Ag	Ag	0.81699	0.93491	0.23979	0.564
Mof_Ag	Ag	0.56907	0.23289	0.81498	0.541
Mof_Ag	Ag	0.50831	0.23979	0.93491	0.563
Mof_H 	H 	0.1576	0.8642	0.3432	-0.013
Mof_H 	H 	0.103	0.788	0.4714	-0.007
Mof_H 	H 	0.9616	0.983	0.3208	-0.007
Mof_H 	H 	0.9023	0.9043	0.4439	-0.011
Mof_H 	H 	0.1505	0.8573	0.4617	-0.007
Mof_H 	H 	0.2344	0.7704	0.3924	-0.018
Mof_H 	H 	0.8749	0.0231	0.4233	-0.005
Mof_H 	H 	0.8448	0.9894	0.352	-0.014
Mof_H 	H 	0.3642	0.6576	0.635	-0.013
Mof_H 	H 	0.288	0.603	0.6376	-0.007
Mof_H 	H 	0.483	0.4616	0.7346	-0.007
Mof_H 	H 	0.4043	0.4023	0.7495	-0.011
Mof_H 	H 	0.3573	0.6505	0.5305	-0.007
Mof_H 	H 	0.2704	0.7344	0.6028	-0.018
Mof_H 	H 	0.5231	0.3749	0.6787	-0.005
Mof_H 	H 	0.4894	0.3448	0.8138	-0.015
Mof_H 	H 	0.8432	0.635	0.6576	-0.013
Mof_H 	H 	0.9714	0.6376	0.603	-0.007
Mof_H 	H 	0.8208	0.7346	0.4616	-0.007
Mof_H 	H 	0.9439	0.7495	0.4023	-0.011
Mof_H 	H 	0.9617	0.5305	0.6505	-0.007
Mof_H 	H 	0.8924	0.6028	0.7344	-0.018
Mof_H 	H 	0.9233	0.6787	0.3749	-0.005
Mof_H 	H 	0.852	0.8138	0.3448	-0.015
Mof_H 	H 	0.135	0.3432	0.8642	-0.013
Mof_H 	H 	0.1376	0.4714	0.788	-0.007
Mof_H 	H 	0.2346	0.3208	0.983	-0.007
Mof_H 	H 	0.2495	0.4439	0.9043	-0.011
Mof_H 	H 	0.0305	0.4617	0.8573	-0.007
Mof_H 	H 	0.1028	0.3924	0.7704	-0.018
Mof_H 	H 	0.1787	0.4233	0.0231	-0.005
Mof_H 	H 	0.3138	0.352	0.9894	-0.015
Mof_H 	H 	0.1576	0.3432	0.635	-0.013
Mof_H 	H 	0.103	0.4714	0.6376	-0.007
Mof_H 	H 	0.9616	0.3208	0.7346	-0.007
Mof_H 	H 	0.9023	0.4439	0.7495	-0.011
Mof_H 	H 	0.1505	0.4617	0.5305	-0.007
Mof_H 	H 	0.2344	0.3924	0.6028	-0.018
Mof_H 	H 	0.8749	0.4233	0.6787	-0.005
Mof_H 	H 	0.8448	0.352	0.8138	-0.015
Mof_H 	H 	0.3642	0.635	0.3432	-0.013
Mof_H 	H 	0.288	0.6376	0.4714	-0.007
Mof_H 	H 	0.483	0.7346	0.3208	-0.007
Mof_H 	H 	0.4043	0.7495	0.4439	-0.011
Mof_H 	H 	0.3573	0.5305	0.4617	-0.007
Mof_H 	H 	0.2704	0.6028	0.3924	-0.018
Mof_H 	H 	0.5231	0.6787	0.4233	-0.005
Mof_H 	H 	0.4894	0.8138	0.352	-0.015
Mof_H 	H 	0.8432	0.6576	0.8642	-0.013
Mof_H 	H 	0.9714	0.603	0.788	-0.007
Mof_H 	H 	0.8208	0.4616	0.983	-0.007
Mof_H 	H 	0.9439	0.4023	0.9043	-0.011
Mof_H 	H 	0.9617	0.6505	0.8573	-0.006
Mof_H 	H 	0.8924	0.7344	0.7704	-0.018
Mof_H 	H 	0.9233	0.3749	0.0231	-0.005
Mof_H 	H 	0.852	0.3448	0.9894	-0.014
Mof_H 	H 	0.135	0.8642	0.6576	-0.013
Mof_H 	H 	0.1376	0.788	0.603	-0.007
Mof_H 	H 	0.2346	0.983	0.4616	-0.007
Mof_H 	H 	0.2495	0.9043	0.4023	-0.011
Mof_H 	H 	0.0305	0.8573	0.6505	-0.007
Mof_H 	H 	0.1028	0.7704	0.7344	-0.018
Mof_H 	H 	0.1787	0.0231	0.3749	-0.005
Mof_H 	H 	0.3138	0.9894	0.3448	-0.015
Mof_H 	H 	0.1576	0.635	0.8642	-0.013
Mof_H 	H 	0.103	0.6376	0.788	-0.007
Mof_H 	H 	0.9616	0.7346	0.983	-0.006
Mof_H 	H 	0.9023	0.7495	0.9043	-0.011
Mof_H 	H 	0.1505	0.5305	0.8573	-0.007
Mof_H 	H 	0.2344	0.6028	0.7704	-0.018
Mof_H 	H 	0.8749	0.6787	0.0231	-0.005
Mof_H 	H 	0.8448	0.8138	0.9894	-0.014
Mof_H 	H 	0.3642	0.3432	0.6576	-0.013
Mof_H 	H 	0.288	0.4714	0.603	-0.007
Mof_H 	H 	0.483	0.3208	0.4616	-0.007
Mof_H 	H 	0.4043	0.4439	0.4023	-0.011
Mof_H 	H 	0.3573	0.4617	0.6505	-0.007
Mof_H 	H 	0.2704	0.3924	0.7344	-0.018
Mof_H 	H 	0.5231	0.4233	0.3749	-0.005
Mof_H 	H 	0.4894	0.352	0.3448	-0.015
Mof_H 	H 	0.8432	0.8642	0.635	-0.013
Mof_H 	H 	0.9714	0.788	0.6376	-0.007
Mof_H 	H 	0.8208	0.983	0.7346	-0.007
Mof_H 	H 	0.9439	0.9043	0.7495	-0.01
Mof_H 	H 	0.9617	0.8573	0.5305	-0.007
Mof_H 	H 	0.8924	0.7704	0.6028	-0.018
Mof_H 	H 	0.9233	0.0231	0.6787	-0.005
Mof_H 	H 	0.852	0.9894	0.8138	-0.014
Mof_H 	H 	0.135	0.6576	0.3432	-0.013
Mof_H 	H 	0.1376	0.603	0.4714	-0.007
Mof_H 	H 	0.2346	0.4616	0.3208	-0.007
Mof_H 	H 	0.2495	0.4023	0.4439	-0.011
Mof_H 	H 	0.0305	0.6505	0.4617	-0.007
Mof_H 	H 	0.1028	0.7344	0.3924	-0.018
Mof_H 	H 	0.1787	0.3749	0.4233	-0.005
Mof_H 	H 	0.3138	0.3448	0.352	-0.015
Mof_H 	H 	0.1358	0.8424	0.1568	-0.013
Mof_H 	H 	0.212	0.897	0.0286	-0.007
Mof_H 	H 	0.017	0.0384	0.1792	-0.006
Mof_H 	H 	0.0957	0.0977	0.0561	-0.01
Mof_H 	H 	0.1427	0.8495	0.0383	-0.007
Mof_H 	H 	0.2296	0.7656	0.1076	-0.018
Mof_H 	H 	0.9769	0.1251	0.0767	-0.005
Mof_H 	H 	0.0106	0.1552	0.148	-0.013
Mof_H 	H 	0.3424	0.6358	0.865	-0.013
Mof_H 	H 	0.397	0.712	0.8624	-0.007
Mof_H 	H 	0.5384	0.517	0.7654	-0.007
Mof_H 	H 	0.5977	0.5957	0.7505	-0.011
Mof_H 	H 	0.3495	0.6427	0.9695	-0.007
Mof_H 	H 	0.2656	0.7296	0.8972	-0.018
Mof_H 	H 	0.6251	0.4769	0.8213	-0.005
Mof_H 	H 	0.6552	0.5106	0.6862	-0.015
Mof_H 	H 	0.365	0.1568	0.8424	-0.013
Mof_H 	H 	0.3624	0.0286	0.897	-0.007
Mof_H 	H 	0.2654	0.1792	0.0384	-0.007
Mof_H 	H 	0.2505	0.0561	0.0977	-0.011
Mof_H 	H 	0.4695	0.0383	0.8495	-0.007
Mof_H 	H 	0.3972	0.1076	0.7656	-0.018
Mof_H 	H 	0.3213	0.0767	0.1251	-0.005
Mof_H 	H 	0.1862	0.148	0.1552	-0.015
Mof_H 	H 	0.6568	0.865	0.6358	-0.013
Mof_H 	H 	0.5286	0.8624	0.712	-0.007
Mof_H 	H 	0.6792	0.7654	0.517	-0.007
Mof_H 	H 	0.5561	0.7505	0.5957	-0.011
Mof_H 	H 	0.5383	0.9695	0.6427	-0.007
Mof_H 	H 	0.6076	0.8972	0.7296	-0.018
Mof_H 	H 	0.5767	0.8213	0.4769	-0.005
Mof_H 	H 	0.648	0.6862	0.5106	-0.015
Mof_H 	H 	0.6568	0.8424	0.865	-0.013
Mof_H 	H 	0.5286	0.897	0.8624	-0.007
Mof_H 	H 	0.6792	0.0384	0.7654	-0.007
Mof_H 	H 	0.5561	0.0977	0.7505	-0.011
Mof_H 	H 	0.5383	0.8495	0.9695	-0.007
Mof_H 	H 	0.6076	0.7656	0.8972	-0.018
Mof_H 	H 	0.5767	0.1251	0.8213	-0.005
Mof_H 	H 	0.648	0.1552	0.6862	-0.015
Mof_H 	H 	0.365	0.6358	0.1568	-0.013
Mof_H 	H 	0.3624	0.712	0.0286	-0.007
Mof_H 	H 	0.2654	0.517	0.1792	-0.007
Mof_H 	H 	0.2505	0.5957	0.0561	-0.011
Mof_H 	H 	0.4695	0.6427	0.0383	-0.007
Mof_H 	H 	0.3972	0.7296	0.1076	-0.018
Mof_H 	H 	0.3213	0.4769	0.0767	-0.005
Mof_H 	H 	0.1862	0.5106	0.148	-0.015
Mof_H 	H 	0.3424	0.1568	0.6358	-0.013
Mof_H 	H 	0.397	0.0286	0.712	-0.007
Mof_H 	H 	0.5384	0.1792	0.517	-0.007
Mof_H 	H 	0.5977	0.0561	0.5957	-0.011
Mof_H 	H 	0.3495	0.0383	0.6427	-0.007
Mof_H 	H 	0.2656	0.1076	0.7296	-0.018
Mof_H 	H 	0.6251	0.0767	0.4769	-0.005
Mof_H 	H 	0.6552	0.148	0.5106	-0.015
Mof_H 	H 	0.1358	0.865	0.8424	-0.013
Mof_H 	H 	0.212	0.8624	0.897	-0.007
Mof_H 	H 	0.017	0.7654	0.0384	-0.007
Mof_H 	H 	0.0957	0.7505	0.0977	-0.011
Mof_H 	H 	0.1427	0.9695	0.8495	-0.007
Mof_H 	H 	0.2296	0.8972	0.7656	-0.018
Mof_H 	H 	0.9769	0.8213	0.1251	-0.005
Mof_H 	H 	0.0106	0.6862	0.1552	-0.015
Mof_H 	H 	0.365	0.8424	0.6358	-0.013
Mof_H 	H 	0.3624	0.897	0.712	-0.007
Mof_H 	H 	0.2654	0.0384	0.517	-0.007
Mof_H 	H 	0.2505	0.0977	0.5957	-0.011
Mof_H 	H 	0.4695	0.8495	0.6427	-0.007
Mof_H 	H 	0.3972	0.7656	0.7296	-0.018
Mof_H 	H 	0.3213	0.1251	0.4769	-0.005
Mof_H 	H 	0.1862	0.1552	0.5106	-0.015
Mof_H 	H 	0.6568	0.6358	0.8424	-0.013
Mof_H 	H 	0.5286	0.712	0.897	-0.007
Mof_H 	H 	0.6792	0.517	0.0384	-0.007
Mof_H 	H 	0.5561	0.5957	0.0977	-0.011
Mof_H 	H 	0.5383	0.6427	0.8495	-0.007
Mof_H 	H 	0.6076	0.7296	0.7656	-0.018
Mof_H 	H 	0.5767	0.4769	0.1251	-0.005
Mof_H 	H 	0.648	0.5106	0.1552	-0.015
Mof_H 	H 	0.1358	0.1568	0.865	-0.013
Mof_H 	H 	0.212	0.0286	0.8624	-0.007
Mof_H 	H 	0.017	0.1792	0.7654	-0.007
Mof_H 	H 	0.0957	0.0561	0.7505	-0.011
Mof_H 	H 	0.1427	0.0383	0.9695	-0.007
Mof_H 	H 	0.2296	0.1076	0.8972	-0.018
Mof_H 	H 	0.9769	0.0767	0.8213	-0.005
Mof_H 	H 	0.0106	0.148	0.6862	-0.015
Mof_H 	H 	0.3424	0.865	0.1568	-0.013
Mof_H 	H 	0.397	0.8624	0.0286	-0.007
Mof_H 	H 	0.5384	0.7654	0.1792	-0.007
Mof_H 	H 	0.5977	0.7505	0.0561	-0.011
Mof_H 	H 	0.3495	0.9695	0.0383	-0.007
Mof_H 	H 	0.2656	0.8972	0.1076	-0.018
Mof_H 	H 	0.6251	0.8213	0.0767	-0.005
Mof_H 	H 	0.6552	0.6862	0.148	-0.015
Mof_H 	H 	0.8424	0.1358	0.6568	-0.013
Mof_H 	H 	0.897	0.212	0.5286	-0.007
Mof_H 	H 	0.0384	0.017	0.6792	-0.007
Mof_H 	H 	0.0977	0.0957	0.5561	-0.011
Mof_H 	H 	0.8495	0.1427	0.5383	-0.007
Mof_H 	H 	0.7656	0.2296	0.6076	-0.018
Mof_H 	H 	0.1251	0.9769	0.5767	-0.005
Mof_H 	H 	0.1552	0.0106	0.648	-0.014
Mof_H 	H 	0.6358	0.3424	0.365	-0.013
Mof_H 	H 	0.712	0.397	0.3624	-0.007
Mof_H 	H 	0.517	0.5384	0.2654	-0.007
Mof_H 	H 	0.5957	0.5977	0.2505	-0.011
Mof_H 	H 	0.6427	0.3495	0.4695	-0.007
Mof_H 	H 	0.7296	0.2656	0.3972	-0.018
Mof_H 	H 	0.4769	0.6251	0.3213	-0.005
Mof_H 	H 	0.5106	0.6552	0.1862	-0.015
Mof_H 	H 	0.1568	0.365	0.3424	-0.013
Mof_H 	H 	0.0286	0.3624	0.397	-0.007
Mof_H 	H 	0.1792	0.2654	0.5384	-0.007
Mof_H 	H 	0.0561	0.2505	0.5977	-0.011
Mof_H 	H 	0.0383	0.4695	0.3495	-0.007
Mof_H 	H 	0.1076	0.3972	0.2656	-0.018
Mof_H 	H 	0.0767	0.3213	0.6251	-0.005
Mof_H 	H 	0.148	0.1862	0.6552	-0.015
Mof_H 	H 	0.865	0.6568	0.1358	-0.013
Mof_H 	H 	0.8624	0.5286	0.212	-0.007
Mof_H 	H 	0.7654	0.6792	0.017	-0.007
Mof_H 	H 	0.7505	0.5561	0.0957	-0.011
Mof_H 	H 	0.9695	0.5383	0.1427	-0.007
Mof_H 	H 	0.8972	0.6076	0.2296	-0.018
Mof_H 	H 	0.8213	0.5767	0.9769	-0.005
Mof_H 	H 	0.6862	0.648	0.0106	-0.015
Mof_H 	H 	0.8424	0.6568	0.365	-0.013
Mof_H 	H 	0.897	0.5286	0.3624	-0.007
Mof_H 	H 	0.0384	0.6792	0.2654	-0.007
Mof_H 	H 	0.0977	0.5561	0.2505	-0.011
Mof_H 	H 	0.8495	0.5383	0.4695	-0.007
Mof_H 	H 	0.7656	0.6076	0.3972	-0.018
Mof_H 	H 	0.1251	0.5767	0.3213	-0.005
Mof_H 	H 	0.1552	0.648	0.1862	-0.015
Mof_H 	H 	0.6358	0.365	0.6568	-0.013
Mof_H 	H 	0.712	0.3624	0.5286	-0.007
Mof_H 	H 	0.517	0.2654	0.6792	-0.007
Mof_H 	H 	0.5957	0.2505	0.5561	-0.011
Mof_H 	H 	0.6427	0.4695	0.5383	-0.007
Mof_H 	H 	0.7296	0.3972	0.6076	-0.018
Mof_H 	H 	0.4769	0.3213	0.5767	-0.005
Mof_H 	H 	0.5106	0.1862	0.648	-0.015
Mof_H 	H 	0.1568	0.3424	0.1358	-0.013
Mof_H 	H 	0.0286	0.397	0.212	-0.007
Mof_H 	H 	0.1792	0.5384	0.017	-0.007
Mof_H 	H 	0.0561	0.5977	0.0957	-0.011
Mof_H 	H 	0.0383	0.3495	0.1427	-0.006
Mof_H 	H 	0.1076	0.2656	0.2296	-0.018
Mof_H 	H 	0.0767	0.6251	0.9769	-0.005
Mof_H 	H 	0.148	0.6552	0.0106	-0.014
Mof_H 	H 	0.865	0.1358	0.3424	-0.013
Mof_H 	H 	0.8624	0.212	0.397	-0.007
Mof_H 	H 	0.7654	0.017	0.5384	-0.007
Mof_H 	H 	0.7505	0.0957	0.5977	-0.011
Mof_H 	H 	0.9695	0.1427	0.3495	-0.007
Mof_H 	H 	0.8972	0.2296	0.2656	-0.018
Mof_H 	H 	0.8213	0.9769	0.6251	-0.005
Mof_H 	H 	0.6862	0.0106	0.6552	-0.015
Mof_H 	H 	0.8424	0.365	0.1358	-0.013
Mof_H 	H 	0.897	0.3624	0.212	-0.007
Mof_H 	H 	0.0384	0.2654	0.017	-0.006
Mof_H 	H 	0.0977	0.2505	0.0957	-0.011
Mof_H 	H 	0.8495	0.4695	0.1427	-0.007
Mof_H 	H 	0.7656	0.3972	0.2296	-0.018
Mof_H 	H 	0.1251	0.3213	0.9769	-0.005
Mof_H 	H 	0.1552	0.1862	0.0106	-0.014
Mof_H 	H 	0.6358	0.6568	0.3424	-0.013
Mof_H 	H 	0.712	0.5286	0.397	-0.007
Mof_H 	H 	0.517	0.6792	0.5384	-0.007
Mof_H 	H 	0.5957	0.5561	0.5977	-0.011
Mof_H 	H 	0.6427	0.5383	0.3495	-0.007
Mof_H 	H 	0.7296	0.6076	0.2656	-0.018
Mof_H 	H 	0.4769	0.5767	0.6251	-0.005
Mof_H 	H 	0.5106	0.648	0.6552	-0.015
Mof_H 	H 	0.1568	0.1358	0.365	-0.013
Mof_H 	H 	0.0286	0.212	0.3624	-0.007
Mof_H 	H 	0.1792	0.017	0.2654	-0.007
Mof_H 	H 	0.0561	0.0957	0.2505	-0.01
Mof_H 	H 	0.0383	0.1427	0.4695	-0.007
Mof_H 	H 	0.1076	0.2296	0.3972	-0.018
Mof_H 	H 	0.0767	0.9769	0.3213	-0.005
Mof_H 	H 	0.148	0.0106	0.1862	-0.014
Mof_H 	H 	0.865	0.3424	0.6568	-0.013
Mof_H 	H 	0.8624	0.397	0.5286	-0.007
Mof_H 	H 	0.7654	0.5384	0.6792	-0.007
Mof_H 	H 	0.7505	0.5977	0.5561	-0.011
Mof_H 	H 	0.9695	0.3495	0.5383	-0.007
Mof_H 	H 	0.8972	0.2656	0.6076	-0.018
Mof_H 	H 	0.8213	0.6251	0.5767	-0.005
Mof_H 	H 	0.6862	0.6552	0.648	-0.015
Mof_H 	H 	0.8642	0.1576	0.8432	-0.013
Mof_H 	H 	0.788	0.103	0.9714	-0.007
Mof_H 	H 	0.983	0.9616	0.8208	-0.006
Mof_H 	H 	0.9043	0.9023	0.9439	-0.01
Mof_H 	H 	0.8573	0.1505	0.9617	-0.007
Mof_H 	H 	0.7704	0.2344	0.8924	-0.018
Mof_H 	H 	0.0231	0.8749	0.9233	-0.005
Mof_H 	H 	0.9894	0.8448	0.852	-0.013
Mof_H 	H 	0.6576	0.3642	0.135	-0.013
Mof_H 	H 	0.603	0.288	0.1376	-0.007
Mof_H 	H 	0.4616	0.483	0.2346	-0.007
Mof_H 	H 	0.4023	0.4043	0.2495	-0.011
Mof_H 	H 	0.6505	0.3573	0.0305	-0.007
Mof_H 	H 	0.7344	0.2704	0.1028	-0.018
Mof_H 	H 	0.3749	0.5231	0.1787	-0.005
Mof_H 	H 	0.3448	0.4894	0.3138	-0.015
Mof_H 	H 	0.635	0.8432	0.1576	-0.013
Mof_H 	H 	0.6376	0.9714	0.103	-0.007
Mof_H 	H 	0.7346	0.8208	0.9616	-0.007
Mof_H 	H 	0.7495	0.9439	0.9023	-0.011
Mof_H 	H 	0.5305	0.9617	0.1505	-0.007
Mof_H 	H 	0.6028	0.8924	0.2344	-0.018
Mof_H 	H 	0.6787	0.9233	0.8749	-0.005
Mof_H 	H 	0.8138	0.852	0.8448	-0.015
Mof_H 	H 	0.3432	0.135	0.3642	-0.013
Mof_H 	H 	0.4714	0.1376	0.288	-0.007
Mof_H 	H 	0.3208	0.2346	0.483	-0.007
Mof_H 	H 	0.4439	0.2495	0.4043	-0.011
Mof_H 	H 	0.4617	0.0305	0.3573	-0.007
Mof_H 	H 	0.3924	0.1028	0.2704	-0.018
Mof_H 	H 	0.4233	0.1787	0.5231	-0.005
Mof_H 	H 	0.352	0.3138	0.4894	-0.015
Mof_H 	H 	0.3432	0.1576	0.135	-0.013
Mof_H 	H 	0.4714	0.103	0.1376	-0.007
Mof_H 	H 	0.3208	0.9616	0.2346	-0.007
Mof_H 	H 	0.4439	0.9023	0.2495	-0.011
Mof_H 	H 	0.4617	0.1505	0.0305	-0.007
Mof_H 	H 	0.3924	0.2344	0.1028	-0.018
Mof_H 	H 	0.4233	0.8749	0.1787	-0.005
Mof_H 	H 	0.352	0.8448	0.3138	-0.015
Mof_H 	H 	0.635	0.3642	0.8432	-0.013
Mof_H 	H 	0.6376	0.288	0.9714	-0.007
Mof_H 	H 	0.7346	0.483	0.8208	-0.007
Mof_H 	H 	0.7495	0.4043	0.9439	-0.011
Mof_H 	H 	0.5305	0.3573	0.9617	-0.007
Mof_H 	H 	0.6028	0.2704	0.8924	-0.018
Mof_H 	H 	0.6787	0.5231	0.9233	-0.005
Mof_H 	H 	0.8138	0.4894	0.852	-0.015
Mof_H 	H 	0.6576	0.8432	0.3642	-0.013
Mof_H 	H 	0.603	0.9714	0.288	-0.007
Mof_H 	H 	0.4616	0.8208	0.483	-0.007
Mof_H 	H 	0.4023	0.9439	0.4043	-0.011
Mof_H 	H 	0.6505	0.9617	0.3573	-0.007
Mof_H 	H 	0.7344	0.8924	0.2704	-0.018
Mof_H 	H 	0.3749	0.9233	0.5231	-0.005
Mof_H 	H 	0.3448	0.852	0.4894	-0.015
Mof_H 	H 	0.8642	0.135	0.1576	-0.013
Mof_H 	H 	0.788	0.1376	0.103	-0.007
Mof_H 	H 	0.983	0.2346	0.9616	-0.007
Mof_H 	H 	0.9043	0.2495	0.9023	-0.011
Mof_H 	H 	0.8573	0.0305	0.1505	-0.007
Mof_H 	H 	0.7704	0.1028	0.2344	-0.018
Mof_H 	H 	0.0231	0.1787	0.8749	-0.005
Mof_H 	H 	0.9894	0.3138	0.8448	-0.015
Mof_H 	H 	0.635	0.1576	0.3642	-0.013
Mof_H 	H 	0.6376	0.103	0.288	-0.007
Mof_H 	H 	0.7346	0.9616	0.483	-0.007
Mof_H 	H 	0.7495	0.9023	0.4043	-0.011
Mof_H 	H 	0.5305	0.1505	0.3573	-0.007
Mof_H 	H 	0.6028	0.2344	0.2704	-0.018
Mof_H 	H 	0.6787	0.8749	0.5231	-0.005
Mof_H 	H 	0.8138	0.8448	0.4894	-0.015
Mof_H 	H 	0.3432	0.3642	0.1576	-0.013
Mof_H 	H 	0.4714	0.288	0.103	-0.007
Mof_H 	H 	0.3208	0.483	0.9616	-0.007
Mof_H 	H 	0.4439	0.4043	0.9023	-0.011
Mof_H 	H 	0.4617	0.3573	0.1505	-0.007
Mof_H 	H 	0.3924	0.2704	0.2344	-0.018
Mof_H 	H 	0.4233	0.5231	0.8749	-0.005
Mof_H 	H 	0.352	0.4894	0.8448	-0.015
Mof_H 	H 	0.8642	0.8432	0.135	-0.013
Mof_H 	H 	0.788	0.9714	0.1376	-0.007
Mof_H 	H 	0.983	0.8208	0.2346	-0.007
Mof_H 	H 	0.9043	0.9439	0.2495	-0.011
Mof_H 	H 	0.8573	0.9617	0.0305	-0.007
Mof_H 	H 	0.7704	0.8924	0.1028	-0.018
Mof_H 	H 	0.0231	0.9233	0.1787	-0.005
Mof_H 	H 	0.9894	0.852	0.3138	-0.015
Mof_H 	H 	0.6576	0.135	0.8432	-0.013
Mof_H 	H 	0.603	0.1376	0.9714	-0.007
Mof_H 	H 	0.4616	0.2346	0.8208	-0.007
Mof_H 	H 	0.4023	0.2495	0.9439	-0.011
Mof_H 	H 	0.6505	0.0305	0.9617	-0.007
Mof_H 	H 	0.7344	0.1028	0.8924	-0.018
Mof_H 	H 	0.3749	0.1787	0.9233	-0.005
Mof_H 	H 	0.3448	0.3138	0.852	-0.015
Mof_C 	C 	0.1379	0.84796	0.36978	0.098
Mof_C 	C 	0.10782	0.80692	0.4397	0.09
Mof_C 	C 	0.95697	0.95731	0.34845	0.102
Mof_C 	C 	0.92474	0.91472	0.41516	0.1
Mof_C 	C 	0.17731	0.83449	0.44943	0.097
Mof_C 	C 	0.22214	0.78794	0.41192	0.099
Mof_C 	C 	0.8593	0.02338	0.40764	0.096
Mof_C 	C 	0.84262	0.005	0.36884	0.092
Mof_C 	C 	0.34796	0.6379	0.64436	0.098
Mof_C 	C 	0.30692	0.60782	0.64556	0.09
Mof_C 	C 	0.45731	0.45697	0.73727	0.102
Mof_C 	C 	0.41472	0.42474	0.74538	0.1
Mof_C 	C 	0.33449	0.67731	0.53877	0.098
Mof_C 	C 	0.28794	0.72214	0.578	0.099
Mof_C 	C 	0.52338	0.3593	0.70968	0.096
Mof_C 	C 	0.505	0.34262	0.78354	0.094
Mof_C 	C 	0.86978	0.64436	0.6379	0.098
Mof_C 	C 	0.9397	0.64556	0.60782	0.09
Mof_C 	C 	0.84845	0.73727	0.45697	0.102
Mof_C 	C 	0.91516	0.74538	0.42474	0.1
Mof_C 	C 	0.94943	0.53877	0.67731	0.098
Mof_C 	C 	0.91192	0.578	0.72214	0.099
Mof_C 	C 	0.90764	0.70968	0.3593	0.096
Mof_C 	C 	0.86884	0.78354	0.34262	0.094
Mof_C 	C 	0.14436	0.36978	0.84796	0.098
Mof_C 	C 	0.14556	0.4397	0.80692	0.09
Mof_C 	C 	0.23727	0.34845	0.95731	0.102
Mof_C 	C 	0.24538	0.41516	0.91472	0.1
Mof_C 	C 	0.03877	0.44943	0.83449	0.097
Mof_C 	C 	0.078	0.41192	0.78794	0.099
Mof_C 	C 	0.20968	0.40764	0.02338	0.097
Mof_C 	C 	0.28354	0.36884	0.005	0.094
Mof_C 	C 	0.1379	0.36978	0.64436	0.098
Mof_C 	C 	0.10782	0.4397	0.64556	0.09
Mof_C 	C 	0.95697	0.34845	0.73727	0.102
Mof_C 	C 	0.92474	0.41516	0.74538	0.1
Mof_C 	C 	0.17731	0.44943	0.53877	0.098
Mof_C 	C 	0.22214	0.41192	0.578	0.099
Mof_C 	C 	0.8593	0.40764	0.70968	0.096
Mof_C 	C 	0.84262	0.36884	0.78354	0.094
Mof_C 	C 	0.34796	0.64436	0.36978	0.098
Mof_C 	C 	0.30692	0.64556	0.4397	0.09
Mof_C 	C 	0.45731	0.73727	0.34845	0.102
Mof_C 	C 	0.41472	0.74538	0.41516	0.1
Mof_C 	C 	0.33449	0.53877	0.44943	0.098
Mof_C 	C 	0.28794	0.578	0.41192	0.099
Mof_C 	C 	0.52338	0.70968	0.40764	0.096
Mof_C 	C 	0.505	0.78354	0.36884	0.094
Mof_C 	C 	0.86978	0.6379	0.84796	0.098
Mof_C 	C 	0.9397	0.60782	0.80692	0.09
Mof_C 	C 	0.84845	0.45697	0.95731	0.102
Mof_C 	C 	0.91516	0.42474	0.91472	0.1
Mof_C 	C 	0.94943	0.67731	0.83449	0.098
Mof_C 	C 	0.91192	0.72214	0.78794	0.099
Mof_C 	C 	0.90764	0.3593	0.02338	0.096
Mof_C 	C 	0.86884	0.34262	0.005	0.092
Mof_C 	C 	0.14436	0.84796	0.6379	0.098
Mof_C 	C 	0.14556	0.80692	0.60782	0.09
Mof_C 	C 	0.23727	0.95731	0.45697	0.102
Mof_C 	C 	0.24538	0.91472	0.42474	0.1
Mof_C 	C 	0.03877	0.83449	0.67731	0.097
Mof_C 	C 	0.078	0.78794	0.72214	0.099
Mof_C 	C 	0.20968	0.02338	0.3593	0.097
Mof_C 	C 	0.28354	0.005	0.34262	0.094
Mof_C 	C 	0.1379	0.64436	0.84796	0.098
Mof_C 	C 	0.10782	0.64556	0.80692	0.09
Mof_C 	C 	0.95697	0.73727	0.95731	0.102
Mof_C 	C 	0.92474	0.74538	0.91472	0.1
Mof_C 	C 	0.17731	0.53877	0.83449	0.097
Mof_C 	C 	0.22214	0.578	0.78794	0.099
Mof_C 	C 	0.8593	0.70968	0.02338	0.096
Mof_C 	C 	0.84262	0.78354	0.005	0.092
Mof_C 	C 	0.34796	0.36978	0.6379	0.098
Mof_C 	C 	0.30692	0.4397	0.60782	0.09
Mof_C 	C 	0.45731	0.34845	0.45697	0.102
Mof_C 	C 	0.41472	0.41516	0.42474	0.1
Mof_C 	C 	0.33449	0.44943	0.67731	0.098
Mof_C 	C 	0.28794	0.41192	0.72214	0.099
Mof_C 	C 	0.52338	0.40764	0.3593	0.096
Mof_C 	C 	0.505	0.36884	0.34262	0.094
Mof_C 	C 	0.86978	0.84796	0.64436	0.098
Mof_C 	C 	0.9397	0.80692	0.64556	0.09
Mof_C 	C 	0.84845	0.95731	0.73727	0.102
Mof_C 	C 	0.91516	0.91472	0.74538	0.1
Mof_C 	C 	0.94943	0.83449	0.53877	0.098
Mof_C 	C 	0.91192	0.78794	0.578	0.099
Mof_C 	C 	0.90764	0.02338	0.70968	0.096
Mof_C 	C 	0.86884	0.005	0.78354	0.092
Mof_C 	C 	0.14436	0.6379	0.36978	0.098
Mof_C 	C 	0.14556	0.60782	0.4397	0.09
Mof_C 	C 	0.23727	0.45697	0.34845	0.102
Mof_C 	C 	0.24538	0.42474	0.41516	0.1
Mof_C 	C 	0.03877	0.67731	0.44943	0.097
Mof_C 	C 	0.078	0.72214	0.41192	0.099
Mof_C 	C 	0.20968	0.3593	0.40764	0.096
Mof_C 	C 	0.28354	0.34262	0.36884	0.094
Mof_C 	C 	0.15204	0.8621	0.13022	0.098
Mof_C 	C 	0.19308	0.89218	0.0603	0.09
Mof_C 	C 	0.04269	0.04303	0.15155	0.102
Mof_C 	C 	0.08528	0.07526	0.08484	0.1
Mof_C 	C 	0.16551	0.82269	0.05057	0.098
Mof_C 	C 	0.21206	0.77786	0.08808	0.099
Mof_C 	C 	0.97662	0.1407	0.09236	0.095
Mof_C 	C 	0.995	0.15738	0.13116	0.091
Mof_C 	C 	0.3621	0.65204	0.85564	0.098
Mof_C 	C 	0.39218	0.69308	0.85444	0.09
Mof_C 	C 	0.54303	0.54269	0.76273	0.102
Mof_C 	C 	0.57526	0.58528	0.75462	0.1
Mof_C 	C 	0.32269	0.66551	0.96123	0.097
Mof_C 	C 	0.27786	0.71206	0.922	0.099
Mof_C 	C 	0.6407	0.47662	0.79032	0.096
Mof_C 	C 	0.65738	0.495	0.71646	0.094
Mof_C 	C 	0.35564	0.13022	0.8621	0.098
Mof_C 	C 	0.35444	0.0603	0.89218	0.09
Mof_C 	C 	0.26273	0.15155	0.04303	0.102
Mof_C 	C 	0.25462	0.08484	0.07526	0.1
Mof_C 	C 	0.46123	0.05057	0.82269	0.098
Mof_C 	C 	0.422	0.08808	0.77786	0.099
Mof_C 	C 	0.29032	0.09236	0.1407	0.096
Mof_C 	C 	0.21646	0.13116	0.15738	0.094
Mof_C 	C 	0.63022	0.85564	0.65204	0.098
Mof_C 	C 	0.5603	0.85444	0.69308	0.09
Mof_C 	C 	0.65155	0.76273	0.54269	0.102
Mof_C 	C 	0.58484	0.75462	0.58528	0.1
Mof_C 	C 	0.55057	0.96123	0.66551	0.098
Mof_C 	C 	0.58808	0.922	0.71206	0.099
Mof_C 	C 	0.59236	0.79032	0.47662	0.096
Mof_C 	C 	0.63116	0.71646	0.495	0.094
Mof_C 	C 	0.63022	0.8621	0.85564	0.098
Mof_C 	C 	0.5603	0.89218	0.85444	0.09
Mof_C 	C 	0.65155	0.04303	0.76273	0.102
Mof_C 	C 	0.58484	0.07526	0.75462	0.1
Mof_C 	C 	0.55057	0.82269	0.96123	0.098
Mof_C 	C 	0.58808	0.77786	0.922	0.099
Mof_C 	C 	0.59236	0.1407	0.79032	0.096
Mof_C 	C 	0.63116	0.15738	0.71646	0.094
Mof_C 	C 	0.35564	0.65204	0.13022	0.098
Mof_C 	C 	0.35444	0.69308	0.0603	0.09
Mof_C 	C 	0.26273	0.54269	0.15155	0.102
Mof_C 	C 	0.25462	0.58528	0.08484	0.1
Mof_C 	C 	0.46123	0.66551	0.05057	0.098
Mof_C 	C 	0.422	0.71206	0.08808	0.099
Mof_C 	C 	0.29032	0.47662	0.09236	0.096
Mof_C 	C 	0.21646	0.495	0.13116	0.094
Mof_C 	C 	0.3621	0.13022	0.65204	0.098
Mof_C 	C 	0.39218	0.0603	0.69308	0.09
Mof_C 	C 	0.54303	0.15155	0.54269	0.102
Mof_C 	C 	0.57526	0.08484	0.58528	0.1
Mof_C 	C 	0.32269	0.05057	0.66551	0.098
Mof_C 	C 	0.27786	0.08808	0.71206	0.099
Mof_C 	C 	0.6407	0.09236	0.47662	0.096
Mof_C 	C 	0.65738	0.13116	0.495	0.094
Mof_C 	C 	0.15204	0.85564	0.8621	0.098
Mof_C 	C 	0.19308	0.85444	0.89218	0.09
Mof_C 	C 	0.04269	0.76273	0.04303	0.102
Mof_C 	C 	0.08528	0.75462	0.07526	0.1
Mof_C 	C 	0.16551	0.96123	0.82269	0.097
Mof_C 	C 	0.21206	0.922	0.77786	0.099
Mof_C 	C 	0.97662	0.79032	0.1407	0.096
Mof_C 	C 	0.995	0.71646	0.15738	0.093
Mof_C 	C 	0.35564	0.8621	0.65204	0.098
Mof_C 	C 	0.35444	0.89218	0.69308	0.09
Mof_C 	C 	0.26273	0.04303	0.54269	0.102
Mof_C 	C 	0.25462	0.07526	0.58528	0.1
Mof_C 	C 	0.46123	0.82269	0.66551	0.098
Mof_C 	C 	0.422	0.77786	0.71206	0.099
Mof_C 	C 	0.29032	0.1407	0.47662	0.096
Mof_C 	C 	0.21646	0.15738	0.495	0.094
Mof_C 	C 	0.63022	0.65204	0.8621	0.098
Mof_C 	C 	0.5603	0.69308	0.89218	0.09
Mof_C 	C 	0.65155	0.54269	0.04303	0.102
Mof_C 	C 	0.58484	0.58528	0.07526	0.1
Mof_C 	C 	0.55057	0.66551	0.82269	0.098
Mof_C 	C 	0.58808	0.71206	0.77786	0.099
Mof_C 	C 	0.59236	0.47662	0.1407	0.096
Mof_C 	C 	0.63116	0.495	0.15738	0.094
Mof_C 	C 	0.15204	0.13022	0.85564	0.098
Mof_C 	C 	0.19308	0.0603	0.85444	0.09
Mof_C 	C 	0.04269	0.15155	0.76273	0.102
Mof_C 	C 	0.08528	0.08484	0.75462	0.1
Mof_C 	C 	0.16551	0.05057	0.96123	0.097
Mof_C 	C 	0.21206	0.08808	0.922	0.099
Mof_C 	C 	0.97662	0.09236	0.79032	0.096
Mof_C 	C 	0.995	0.13116	0.71646	0.093
Mof_C 	C 	0.3621	0.85564	0.13022	0.098
Mof_C 	C 	0.39218	0.85444	0.0603	0.09
Mof_C 	C 	0.54303	0.76273	0.15155	0.102
Mof_C 	C 	0.57526	0.75462	0.08484	0.1
Mof_C 	C 	0.32269	0.96123	0.05057	0.097
Mof_C 	C 	0.27786	0.922	0.08808	0.099
Mof_C 	C 	0.6407	0.79032	0.09236	0.096
Mof_C 	C 	0.65738	0.71646	0.13116	0.094
Mof_C 	C 	0.8621	0.15204	0.63022	0.098
Mof_C 	C 	0.89218	0.19308	0.5603	0.09
Mof_C 	C 	0.04303	0.04269	0.65155	0.102
Mof_C 	C 	0.07526	0.08528	0.58484	0.1
Mof_C 	C 	0.82269	0.16551	0.55057	0.097
Mof_C 	C 	0.77786	0.21206	0.58808	0.099
Mof_C 	C 	0.1407	0.97662	0.59236	0.096
Mof_C 	C 	0.15738	0.995	0.63116	0.092
Mof_C 	C 	0.65204	0.3621	0.35564	0.098
Mof_C 	C 	0.69308	0.39218	0.35444	0.09
Mof_C 	C 	0.54269	0.54303	0.26273	0.102
Mof_C 	C 	0.58528	0.57526	0.25462	0.1
Mof_C 	C 	0.66551	0.32269	0.46123	0.098
Mof_C 	C 	0.71206	0.27786	0.422	0.099
Mof_C 	C 	0.47662	0.6407	0.29032	0.096
Mof_C 	C 	0.495	0.65738	0.21646	0.094
Mof_C 	C 	0.13022	0.35564	0.3621	0.098
Mof_C 	C 	0.0603	0.35444	0.39218	0.09
Mof_C 	C 	0.15155	0.26273	0.54303	0.102
Mof_C 	C 	0.08484	0.25462	0.57526	0.1
Mof_C 	C 	0.05057	0.46123	0.32269	0.098
Mof_C 	C 	0.08808	0.422	0.27786	0.099
Mof_C 	C 	0.09236	0.29032	0.6407	0.096
Mof_C 	C 	0.13116	0.21646	0.65738	0.094
Mof_C 	C 	0.85564	0.63022	0.15204	0.098
Mof_C 	C 	0.85444	0.5603	0.19308	0.09
Mof_C 	C 	0.76273	0.65155	0.04269	0.102
Mof_C 	C 	0.75462	0.58484	0.08528	0.1
Mof_C 	C 	0.96123	0.55057	0.16551	0.097
Mof_C 	C 	0.922	0.58808	0.21206	0.099
Mof_C 	C 	0.79032	0.59236	0.97662	0.097
Mof_C 	C 	0.71646	0.63116	0.995	0.094
Mof_C 	C 	0.8621	0.63022	0.35564	0.098
Mof_C 	C 	0.89218	0.5603	0.35444	0.09
Mof_C 	C 	0.04303	0.65155	0.26273	0.102
Mof_C 	C 	0.07526	0.58484	0.25462	0.1
Mof_C 	C 	0.82269	0.55057	0.46123	0.098
Mof_C 	C 	0.77786	0.58808	0.422	0.099
Mof_C 	C 	0.1407	0.59236	0.29032	0.096
Mof_C 	C 	0.15738	0.63116	0.21646	0.094
Mof_C 	C 	0.65204	0.35564	0.63022	0.098
Mof_C 	C 	0.69308	0.35444	0.5603	0.09
Mof_C 	C 	0.54269	0.26273	0.65155	0.102
Mof_C 	C 	0.58528	0.25462	0.58484	0.1
Mof_C 	C 	0.66551	0.46123	0.55057	0.098
Mof_C 	C 	0.71206	0.422	0.58808	0.099
Mof_C 	C 	0.47662	0.29032	0.59236	0.096
Mof_C 	C 	0.495	0.21646	0.63116	0.094
Mof_C 	C 	0.13022	0.3621	0.15204	0.098
Mof_C 	C 	0.0603	0.39218	0.19308	0.09
Mof_C 	C 	0.15155	0.54303	0.04269	0.102
Mof_C 	C 	0.08484	0.57526	0.08528	0.1
Mof_C 	C 	0.05057	0.32269	0.16551	0.098
Mof_C 	C 	0.08808	0.27786	0.21206	0.099
Mof_C 	C 	0.09236	0.6407	0.97662	0.096
Mof_C 	C 	0.13116	0.65738	0.995	0.092
Mof_C 	C 	0.85564	0.15204	0.3621	0.098
Mof_C 	C 	0.85444	0.19308	0.39218	0.09
Mof_C 	C 	0.76273	0.04269	0.54303	0.102
Mof_C 	C 	0.75462	0.08528	0.57526	0.1
Mof_C 	C 	0.96123	0.16551	0.32269	0.097
Mof_C 	C 	0.922	0.21206	0.27786	0.099
Mof_C 	C 	0.79032	0.97662	0.6407	0.097
Mof_C 	C 	0.71646	0.995	0.65738	0.094
Mof_C 	C 	0.8621	0.35564	0.15204	0.098
Mof_C 	C 	0.89218	0.35444	0.19308	0.09
Mof_C 	C 	0.04303	0.26273	0.04269	0.102
Mof_C 	C 	0.07526	0.25462	0.08528	0.1
Mof_C 	C 	0.82269	0.46123	0.16551	0.097
Mof_C 	C 	0.77786	0.422	0.21206	0.099
Mof_C 	C 	0.1407	0.29032	0.97662	0.096
Mof_C 	C 	0.15738	0.21646	0.995	0.092
Mof_C 	C 	0.65204	0.63022	0.3621	0.098
Mof_C 	C 	0.69308	0.5603	0.39218	0.09
Mof_C 	C 	0.54269	0.65155	0.54303	0.102
Mof_C 	C 	0.58528	0.58484	0.57526	0.1
Mof_C 	C 	0.66551	0.55057	0.32269	0.098
Mof_C 	C 	0.71206	0.58808	0.27786	0.099
Mof_C 	C 	0.47662	0.59236	0.6407	0.096
Mof_C 	C 	0.495	0.63116	0.65738	0.094
Mof_C 	C 	0.13022	0.15204	0.35564	0.098
Mof_C 	C 	0.0603	0.19308	0.35444	0.09
Mof_C 	C 	0.15155	0.04269	0.26273	0.102
Mof_C 	C 	0.08484	0.08528	0.25462	0.1
Mof_C 	C 	0.05057	0.16551	0.46123	0.098
Mof_C 	C 	0.08808	0.21206	0.422	0.099
Mof_C 	C 	0.09236	0.97662	0.29032	0.096
Mof_C 	C 	0.13116	0.995	0.21646	0.092
Mof_C 	C 	0.85564	0.3621	0.63022	0.098
Mof_C 	C 	0.85444	0.39218	0.5603	0.09
Mof_C 	C 	0.76273	0.54303	0.65155	0.102
Mof_C 	C 	0.75462	0.57526	0.58484	0.1
Mof_C 	C 	0.96123	0.32269	0.55057	0.097
Mof_C 	C 	0.922	0.27786	0.58808	0.099
Mof_C 	C 	0.79032	0.6407	0.59236	0.096
Mof_C 	C 	0.71646	0.65738	0.63116	0.094
Mof_C 	C 	0.84796	0.1379	0.86978	0.098
Mof_C 	C 	0.80692	0.10782	0.9397	0.09
Mof_C 	C 	0.95731	0.95697	0.84845	0.102
Mof_C 	C 	0.91472	0.92474	0.91516	0.1
Mof_C 	C 	0.83449	0.17731	0.94943	0.098
Mof_C 	C 	0.78794	0.22214	0.91192	0.099
Mof_C 	C 	0.02338	0.8593	0.90764	0.095
Mof_C 	C 	0.005	0.84262	0.86884	0.091
Mof_C 	C 	0.6379	0.34796	0.14436	0.098
Mof_C 	C 	0.60782	0.30692	0.14556	0.09
Mof_C 	C 	0.45697	0.45731	0.23727	0.102
Mof_C 	C 	0.42474	0.41472	0.24538	0.1
Mof_C 	C 	0.67731	0.33449	0.03877	0.097
Mof_C 	C 	0.72214	0.28794	0.078	0.099
Mof_C 	C 	0.3593	0.52338	0.20968	0.096
Mof_C 	C 	0.34262	0.505	0.28354	0.094
Mof_C 	C 	0.64436	0.86978	0.1379	0.098
Mof_C 	C 	0.64556	0.9397	0.10782	0.09
Mof_C 	C 	0.73727	0.84845	0.95697	0.102
Mof_C 	C 	0.74538	0.91516	0.92474	0.1
Mof_C 	C 	0.53877	0.94943	0.17731	0.098
Mof_C 	C 	0.578	0.91192	0.22214	0.099
Mof_C 	C 	0.70968	0.90764	0.8593	0.096
Mof_C 	C 	0.78354	0.86884	0.84262	0.094
Mof_C 	C 	0.36978	0.14436	0.34796	0.098
Mof_C 	C 	0.4397	0.14556	0.30692	0.09
Mof_C 	C 	0.34845	0.23727	0.45731	0.102
Mof_C 	C 	0.41516	0.24538	0.41472	0.1
Mof_C 	C 	0.44943	0.03877	0.33449	0.098
Mof_C 	C 	0.41192	0.078	0.28794	0.099
Mof_C 	C 	0.40764	0.20968	0.52338	0.096
Mof_C 	C 	0.36884	0.28354	0.505	0.094
Mof_C 	C 	0.36978	0.1379	0.14436	0.098
Mof_C 	C 	0.4397	0.10782	0.14556	0.09
Mof_C 	C 	0.34845	0.95697	0.23727	0.102
Mof_C 	C 	0.41516	0.92474	0.24538	0.1
Mof_C 	C 	0.44943	0.17731	0.03877	0.098
Mof_C 	C 	0.41192	0.22214	0.078	0.099
Mof_C 	C 	0.40764	0.8593	0.20968	0.096
Mof_C 	C 	0.36884	0.84262	0.28354	0.094
Mof_C 	C 	0.64436	0.34796	0.86978	0.098
Mof_C 	C 	0.64556	0.30692	0.9397	0.09
Mof_C 	C 	0.73727	0.45731	0.84845	0.102
Mof_C 	C 	0.74538	0.41472	0.91516	0.1
Mof_C 	C 	0.53877	0.33449	0.94943	0.098
Mof_C 	C 	0.578	0.28794	0.91192	0.099
Mof_C 	C 	0.70968	0.52338	0.90764	0.096
Mof_C 	C 	0.78354	0.505	0.86884	0.094
Mof_C 	C 	0.6379	0.86978	0.34796	0.098
Mof_C 	C 	0.60782	0.9397	0.30692	0.09
Mof_C 	C 	0.45697	0.84845	0.45731	0.102
Mof_C 	C 	0.42474	0.91516	0.41472	0.1
Mof_C 	C 	0.67731	0.94943	0.33449	0.098
Mof_C 	C 	0.72214	0.91192	0.28794	0.099
Mof_C 	C 	0.3593	0.90764	0.52338	0.096
Mof_C 	C 	0.34262	0.86884	0.505	0.094
Mof_C 	C 	0.84796	0.14436	0.1379	0.098
Mof_C 	C 	0.80692	0.14556	0.10782	0.09
Mof_C 	C 	0.95731	0.23727	0.95697	0.102
Mof_C 	C 	0.91472	0.24538	0.92474	0.1
Mof_C 	C 	0.83449	0.03877	0.17731	0.097
Mof_C 	C 	0.78794	0.078	0.22214	0.099
Mof_C 	C 	0.02338	0.20968	0.8593	0.096
Mof_C 	C 	0.005	0.28354	0.84262	0.093
Mof_C 	C 	0.64436	0.1379	0.34796	0.098
Mof_C 	C 	0.64556	0.10782	0.30692	0.09
Mof_C 	C 	0.73727	0.95697	0.45731	0.102
Mof_C 	C 	0.74538	0.92474	0.41472	0.1
Mof_C 	C 	0.53877	0.17731	0.33449	0.098
Mof_C 	C 	0.578	0.22214	0.28794	0.099
Mof_C 	C 	0.70968	0.8593	0.52338	0.096
Mof_C 	C 	0.78354	0.84262	0.505	0.094
Mof_C 	C 	0.36978	0.34796	0.1379	0.098
Mof_C 	C 	0.4397	0.30692	0.10782	0.09
Mof_C 	C 	0.34845	0.45731	0.95697	0.102
Mof_C 	C 	0.41516	0.41472	0.92474	0.1
Mof_C 	C 	0.44943	0.33449	0.17731	0.098
Mof_C 	C 	0.41192	0.28794	0.22214	0.099
Mof_C 	C 	0.40764	0.52338	0.8593	0.096
Mof_C 	C 	0.36884	0.505	0.84262	0.094
Mof_C 	C 	0.84796	0.86978	0.14436	0.098
Mof_C 	C 	0.80692	0.9397	0.14556	0.09
Mof_C 	C 	0.95731	0.84845	0.23727	0.102
Mof_C 	C 	0.91472	0.91516	0.24538	0.1
Mof_C 	C 	0.83449	0.94943	0.03877	0.097
Mof_C 	C 	0.78794	0.91192	0.078	0.099
Mof_C 	C 	0.02338	0.90764	0.20968	0.096
Mof_C 	C 	0.005	0.86884	0.28354	0.093
Mof_C 	C 	0.6379	0.14436	0.86978	0.098
Mof_C 	C 	0.60782	0.14556	0.9397	0.09
Mof_C 	C 	0.45697	0.23727	0.84845	0.102
Mof_C 	C 	0.42474	0.24538	0.91516	0.1
Mof_C 	C 	0.67731	0.03877	0.94943	0.097
Mof_C 	C 	0.72214	0.078	0.91192	0.099
Mof_C 	C 	0.3593	0.20968	0.90764	0.096
Mof_C 	C 	0.34262	0.28354	0.86884	0.094
Mof_N 	N 	0.96735	0.89019	0.40071	-0.172
Mof_N 	N 	0.98874	0.91758	0.3575	-0.156
Mof_N 	N 	0.08076	0.82064	0.4165	-0.161
Mof_N 	N 	0.10217	0.84569	0.37105	-0.172
Mof_N 	N 	0.21641	0.81803	0.45597	-0.164
Mof_N 	N 	0.24582	0.78762	0.43082	-0.177
Mof_N 	N 	0.80852	0.04098	0.3789	-0.17
Mof_N 	N 	0.81869	0.05391	0.40329	-0.162
Mof_N 	N 	0.14331	0.82395	0.41165	-0.115
Mof_N 	N 	0.17894	0.8157	0.4234	-0.119
Mof_N 	N 	0.9168	0.95742	0.3833	-0.117
Mof_N 	N 	0.87502	0.99344	0.38696	-0.114
Mof_N 	N 	0.39019	0.46735	0.74175	-0.172
Mof_N 	N 	0.41758	0.48874	0.73618	-0.156
Mof_N 	N 	0.32064	0.58076	0.6821	-0.161
Mof_N 	N 	0.34569	0.60217	0.68109	-0.172
Mof_N 	N 	0.31803	0.71641	0.50959	-0.164
Mof_N 	N 	0.28762	0.74582	0.53574	-0.177
Mof_N 	N 	0.54098	0.30852	0.7716	-0.17
Mof_N 	N 	0.55391	0.31869	0.72411	-0.162
Mof_N 	N 	0.32395	0.64331	0.62109	-0.115
Mof_N 	N 	0.3157	0.67894	0.58196	-0.119
Mof_N 	N 	0.45742	0.4168	0.74248	-0.117
Mof_N 	N 	0.49344	0.37502	0.74458	-0.114
Mof_N 	N 	0.90071	0.74175	0.46735	-0.172
Mof_N 	N 	0.8575	0.73618	0.48874	-0.156
Mof_N 	N 	0.9165	0.6821	0.58076	-0.161
Mof_N 	N 	0.87105	0.68109	0.60217	-0.172
Mof_N 	N 	0.95597	0.50959	0.71641	-0.164
Mof_N 	N 	0.93082	0.53574	0.74582	-0.177
Mof_N 	N 	0.8789	0.7716	0.30852	-0.17
Mof_N 	N 	0.90329	0.72411	0.31869	-0.162
Mof_N 	N 	0.91165	0.62109	0.64331	-0.114
Mof_N 	N 	0.9234	0.58196	0.67894	-0.119
Mof_N 	N 	0.8833	0.74248	0.4168	-0.117
Mof_N 	N 	0.88696	0.74458	0.37502	-0.114
Mof_N 	N 	0.24175	0.40071	0.89019	-0.172
Mof_N 	N 	0.23618	0.3575	0.91758	-0.156
Mof_N 	N 	0.1821	0.4165	0.82064	-0.161
Mof_N 	N 	0.18109	0.37105	0.84569	-0.172
Mof_N 	N 	0.00959	0.45597	0.81803	-0.164
Mof_N 	N 	0.03574	0.43082	0.78762	-0.177
Mof_N 	N 	0.2716	0.3789	0.04098	-0.17
Mof_N 	N 	0.22411	0.40329	0.05391	-0.162
Mof_N 	N 	0.12109	0.41165	0.82395	-0.115
Mof_N 	N 	0.08196	0.4234	0.8157	-0.119
Mof_N 	N 	0.24248	0.3833	0.95742	-0.117
Mof_N 	N 	0.24458	0.38696	0.99344	-0.115
Mof_N 	N 	0.96735	0.40071	0.74175	-0.172
Mof_N 	N 	0.98874	0.3575	0.73618	-0.156
Mof_N 	N 	0.08076	0.4165	0.6821	-0.16
Mof_N 	N 	0.10217	0.37105	0.68109	-0.172
Mof_N 	N 	0.21641	0.45597	0.50959	-0.164
Mof_N 	N 	0.24582	0.43082	0.53574	-0.177
Mof_N 	N 	0.80852	0.3789	0.7716	-0.17
Mof_N 	N 	0.81869	0.40329	0.72411	-0.162
Mof_N 	N 	0.14331	0.41165	0.62109	-0.115
Mof_N 	N 	0.17894	0.4234	0.58196	-0.119
Mof_N 	N 	0.9168	0.3833	0.74248	-0.117
Mof_N 	N 	0.87502	0.38696	0.74458	-0.114
Mof_N 	N 	0.39019	0.74175	0.40071	-0.172
Mof_N 	N 	0.41758	0.73618	0.3575	-0.156
Mof_N 	N 	0.32064	0.6821	0.4165	-0.161
Mof_N 	N 	0.34569	0.68109	0.37105	-0.172
Mof_N 	N 	0.31803	0.50959	0.45597	-0.164
Mof_N 	N 	0.28762	0.53574	0.43082	-0.177
Mof_N 	N 	0.54098	0.7716	0.3789	-0.17
Mof_N 	N 	0.55391	0.72411	0.40329	-0.162
Mof_N 	N 	0.32395	0.62109	0.41165	-0.115
Mof_N 	N 	0.3157	0.58196	0.4234	-0.119
Mof_N 	N 	0.45742	0.74248	0.3833	-0.117
Mof_N 	N 	0.49344	0.74458	0.38696	-0.114
Mof_N 	N 	0.90071	0.46735	0.89019	-0.172
Mof_N 	N 	0.8575	0.48874	0.91758	-0.156
Mof_N 	N 	0.9165	0.58076	0.82064	-0.161
Mof_N 	N 	0.87105	0.60217	0.84569	-0.172
Mof_N 	N 	0.95597	0.71641	0.81803	-0.164
Mof_N 	N 	0.93082	0.74582	0.78762	-0.177
Mof_N 	N 	0.8789	0.30852	0.04098	-0.17
Mof_N 	N 	0.90329	0.31869	0.05391	-0.162
Mof_N 	N 	0.91165	0.64331	0.82395	-0.114
Mof_N 	N 	0.9234	0.67894	0.8157	-0.119
Mof_N 	N 	0.8833	0.4168	0.95742	-0.117
Mof_N 	N 	0.88696	0.37502	0.99344	-0.114
Mof_N 	N 	0.24175	0.89019	0.46735	-0.172
Mof_N 	N 	0.23618	0.91758	0.48874	-0.156
Mof_N 	N 	0.1821	0.82064	0.58076	-0.161
Mof_N 	N 	0.18109	0.84569	0.60217	-0.172
Mof_N 	N 	0.00959	0.81803	0.71641	-0.164
Mof_N 	N 	0.03574	0.78762	0.74582	-0.177
Mof_N 	N 	0.2716	0.04098	0.30852	-0.17
Mof_N 	N 	0.22411	0.05391	0.31869	-0.162
Mof_N 	N 	0.12109	0.82395	0.64331	-0.115
Mof_N 	N 	0.08196	0.8157	0.67894	-0.119
Mof_N 	N 	0.24248	0.95742	0.4168	-0.117
Mof_N 	N 	0.24458	0.99344	0.37502	-0.115
Mof_N 	N 	0.96735	0.74175	0.89019	-0.172
Mof_N 	N 	0.98874	0.73618	0.91758	-0.155
Mof_N 	N 	0.08076	0.6821	0.82064	-0.16
Mof_N 	N 	0.10217	0.68109	0.84569	-0.172
Mof_N 	N 	0.21641	0.50959	0.81803	-0.164
Mof_N 	N 	0.24582	0.53574	0.78762	-0.177
Mof_N 	N 	0.80852	0.7716	0.04098	-0.17
Mof_N 	N 	0.81869	0.72411	0.05391	-0.162
Mof_N 	N 	0.14331	0.62109	0.82395	-0.115
Mof_N 	N 	0.17894	0.58196	0.8157	-0.119
Mof_N 	N 	0.9168	0.74248	0.95742	-0.117
Mof_N 	N 	0.87502	0.74458	0.99344	-0.114
Mof_N 	N 	0.39019	0.40071	0.46735	-0.172
Mof_N 	N 	0.41758	0.3575	0.48874	-0.156
Mof_N 	N 	0.32064	0.4165	0.58076	-0.161
Mof_N 	N 	0.34569	0.37105	0.60217	-0.172
Mof_N 	N 	0.31803	0.45597	0.71641	-0.164
Mof_N 	N 	0.28762	0.43082	0.74582	-0.177
Mof_N 	N 	0.54098	0.3789	0.30852	-0.17
Mof_N 	N 	0.55391	0.40329	0.31869	-0.162
Mof_N 	N 	0.32395	0.41165	0.64331	-0.115
Mof_N 	N 	0.3157	0.4234	0.67894	-0.119
Mof_N 	N 	0.45742	0.3833	0.4168	-0.117
Mof_N 	N 	0.49344	0.38696	0.37502	-0.114
Mof_N 	N 	0.90071	0.89019	0.74175	-0.172
Mof_N 	N 	0.8575	0.91758	0.73618	-0.156
Mof_N 	N 	0.9165	0.82064	0.6821	-0.161
Mof_N 	N 	0.87105	0.84569	0.68109	-0.172
Mof_N 	N 	0.95597	0.81803	0.50959	-0.164
Mof_N 	N 	0.93082	0.78762	0.53574	-0.177
Mof_N 	N 	0.8789	0.04098	0.7716	-0.17
Mof_N 	N 	0.90329	0.05391	0.72411	-0.162
Mof_N 	N 	0.91165	0.82395	0.62109	-0.114
Mof_N 	N 	0.9234	0.8157	0.58196	-0.119
Mof_N 	N 	0.8833	0.95742	0.74248	-0.117
Mof_N 	N 	0.88696	0.99344	0.74458	-0.114
Mof_N 	N 	0.24175	0.46735	0.40071	-0.172
Mof_N 	N 	0.23618	0.48874	0.3575	-0.156
Mof_N 	N 	0.1821	0.58076	0.4165	-0.161
Mof_N 	N 	0.18109	0.60217	0.37105	-0.172
Mof_N 	N 	0.00959	0.71641	0.45597	-0.164
Mof_N 	N 	0.03574	0.74582	0.43082	-0.177
Mof_N 	N 	0.2716	0.30852	0.3789	-0.17
Mof_N 	N 	0.22411	0.31869	0.40329	-0.162
Mof_N 	N 	0.12109	0.64331	0.41165	-0.115
Mof_N 	N 	0.08196	0.67894	0.4234	-0.119
Mof_N 	N 	0.24248	0.4168	0.3833	-0.117
Mof_N 	N 	0.24458	0.37502	0.38696	-0.114
Mof_N 	N 	0.10981	0.03265	0.09929	-0.172
Mof_N 	N 	0.08242	0.01126	0.1425	-0.156
Mof_N 	N 	0.17936	0.91924	0.0835	-0.16
Mof_N 	N 	0.15431	0.89783	0.12895	-0.172
Mof_N 	N 	0.18197	0.78359	0.04403	-0.164
Mof_N 	N 	0.21238	0.75418	0.06918	-0.177
Mof_N 	N 	0.95902	0.19148	0.1211	-0.17
Mof_N 	N 	0.94609	0.18131	0.09671	-0.161
Mof_N 	N 	0.17605	0.85669	0.08835	-0.114
Mof_N 	N 	0.1843	0.82106	0.0766	-0.119
Mof_N 	N 	0.04258	0.0832	0.1167	-0.117
Mof_N 	N 	0.00656	0.12498	0.11304	-0.113
Mof_N 	N 	0.53265	0.60981	0.75825	-0.172
Mof_N 	N 	0.51126	0.58242	0.76382	-0.156
Mof_N 	N 	0.41924	0.67936	0.8179	-0.161
Mof_N 	N 	0.39783	0.65431	0.81891	-0.172
Mof_N 	N 	0.28359	0.68197	0.99041	-0.164
Mof_N 	N 	0.25418	0.71238	0.96426	-0.177
Mof_N 	N 	0.69148	0.45902	0.7284	-0.17
Mof_N 	N 	0.68131	0.44609	0.77589	-0.162
Mof_N 	N 	0.35669	0.67605	0.87891	-0.115
Mof_N 	N 	0.32106	0.6843	0.91804	-0.119
Mof_N 	N 	0.5832	0.54258	0.75752	-0.117
Mof_N 	N 	0.62498	0.50656	0.75542	-0.114
Mof_N 	N 	0.25825	0.09929	0.03265	-0.172
Mof_N 	N 	0.26382	0.1425	0.01126	-0.156
Mof_N 	N 	0.3179	0.0835	0.91924	-0.161
Mof_N 	N 	0.31891	0.12895	0.89783	-0.172
Mof_N 	N 	0.49041	0.04403	0.78359	-0.164
Mof_N 	N 	0.46426	0.06918	0.75418	-0.177
Mof_N 	N 	0.2284	0.1211	0.19148	-0.17
Mof_N 	N 	0.27589	0.09671	0.18131	-0.162
Mof_N 	N 	0.37891	0.08835	0.85669	-0.115
Mof_N 	N 	0.41804	0.0766	0.82106	-0.119
Mof_N 	N 	0.25752	0.1167	0.0832	-0.117
Mof_N 	N 	0.25542	0.11304	0.12498	-0.114
Mof_N 	N 	0.59929	0.75825	0.60981	-0.172
Mof_N 	N 	0.6425	0.76382	0.58242	-0.156
Mof_N 	N 	0.5835	0.8179	0.67936	-0.161
Mof_N 	N 	0.62895	0.81891	0.65431	-0.172
Mof_N 	N 	0.54403	0.99041	0.68197	-0.164
Mof_N 	N 	0.56918	0.96426	0.71238	-0.177
Mof_N 	N 	0.6211	0.7284	0.45902	-0.17
Mof_N 	N 	0.59671	0.77589	0.44609	-0.162
Mof_N 	N 	0.58835	0.87891	0.67605	-0.114
Mof_N 	N 	0.5766	0.91804	0.6843	-0.119
Mof_N 	N 	0.6167	0.75752	0.54258	-0.117
Mof_N 	N 	0.61304	0.75542	0.50656	-0.114
Mof_N 	N 	0.59929	0.03265	0.75825	-0.172
Mof_N 	N 	0.6425	0.01126	0.76382	-0.156
Mof_N 	N 	0.5835	0.91924	0.8179	-0.161
Mof_N 	N 	0.62895	0.89783	0.81891	-0.172
Mof_N 	N 	0.54403	0.78359	0.99041	-0.164
Mof_N 	N 	0.56918	0.75418	0.96426	-0.177
Mof_N 	N 	0.6211	0.19148	0.7284	-0.17
Mof_N 	N 	0.59671	0.18131	0.77589	-0.162
Mof_N 	N 	0.58835	0.85669	0.87891	-0.115
Mof_N 	N 	0.5766	0.82106	0.91804	-0.119
Mof_N 	N 	0.6167	0.0832	0.75752	-0.117
Mof_N 	N 	0.61304	0.12498	0.75542	-0.114
Mof_N 	N 	0.25825	0.60981	0.09929	-0.172
Mof_N 	N 	0.26382	0.58242	0.1425	-0.156
Mof_N 	N 	0.3179	0.67936	0.0835	-0.161
Mof_N 	N 	0.31891	0.65431	0.12895	-0.172
Mof_N 	N 	0.49041	0.68197	0.04403	-0.164
Mof_N 	N 	0.46426	0.71238	0.06918	-0.177
Mof_N 	N 	0.2284	0.45902	0.1211	-0.17
Mof_N 	N 	0.27589	0.44609	0.09671	-0.162
Mof_N 	N 	0.37891	0.67605	0.08835	-0.115
Mof_N 	N 	0.41804	0.6843	0.0766	-0.119
Mof_N 	N 	0.25752	0.54258	0.1167	-0.117
Mof_N 	N 	0.25542	0.50656	0.11304	-0.114
Mof_N 	N 	0.53265	0.09929	0.60981	-0.172
Mof_N 	N 	0.51126	0.1425	0.58242	-0.156
Mof_N 	N 	0.41924	0.0835	0.67936	-0.161
Mof_N 	N 	0.39783	0.12895	0.65431	-0.172
Mof_N 	N 	0.28359	0.04403	0.68197	-0.164
Mof_N 	N 	0.25418	0.06918	0.71238	-0.177
Mof_N 	N 	0.69148	0.1211	0.45902	-0.17
Mof_N 	N 	0.68131	0.09671	0.44609	-0.162
Mof_N 	N 	0.35669	0.08835	0.67605	-0.114
Mof_N 	N 	0.32106	0.0766	0.6843	-0.119
Mof_N 	N 	0.5832	0.1167	0.54258	-0.117
Mof_N 	N 	0.62498	0.11304	0.50656	-0.114
Mof_N 	N 	0.10981	0.75825	0.03265	-0.172
Mof_N 	N 	0.08242	0.76382	0.01126	-0.156
Mof_N 	N 	0.17936	0.8179	0.91924	-0.161
Mof_N 	N 	0.15431	0.81891	0.89783	-0.172
Mof_N 	N 	0.18197	0.99041	0.78359	-0.164
Mof_N 	N 	0.21238	0.96426	0.75418	-0.177
Mof_N 	N 	0.95902	0.7284	0.19148	-0.17
Mof_N 	N 	0.94609	0.77589	0.18131	-0.162
Mof_N 	N 	0.17605	0.87891	0.85669	-0.115
Mof_N 	N 	0.1843	0.91804	0.82106	-0.119
Mof_N 	N 	0.04258	0.75752	0.0832	-0.117
Mof_N 	N 	0.00656	0.75542	0.12498	-0.114
Mof_N 	N 	0.25825	0.03265	0.60981	-0.172
Mof_N 	N 	0.26382	0.01126	0.58242	-0.156
Mof_N 	N 	0.3179	0.91924	0.67936	-0.16
Mof_N 	N 	0.31891	0.89783	0.65431	-0.172
Mof_N 	N 	0.49041	0.78359	0.68197	-0.164
Mof_N 	N 	0.46426	0.75418	0.71238	-0.177
Mof_N 	N 	0.2284	0.19148	0.45902	-0.17
Mof_N 	N 	0.27589	0.18131	0.44609	-0.162
Mof_N 	N 	0.37891	0.85669	0.67605	-0.114
Mof_N 	N 	0.41804	0.82106	0.6843	-0.119
Mof_N 	N 	0.25752	0.0832	0.54258	-0.117
Mof_N 	N 	0.25542	0.12498	0.50656	-0.114
Mof_N 	N 	0.59929	0.60981	0.03265	-0.172
Mof_N 	N 	0.6425	0.58242	0.01126	-0.156
Mof_N 	N 	0.5835	0.67936	0.91924	-0.161
Mof_N 	N 	0.62895	0.65431	0.89783	-0.172
Mof_N 	N 	0.54403	0.68197	0.78359	-0.164
Mof_N 	N 	0.56918	0.71238	0.75418	-0.177
Mof_N 	N 	0.6211	0.45902	0.19148	-0.17
Mof_N 	N 	0.59671	0.44609	0.18131	-0.162
Mof_N 	N 	0.58835	0.67605	0.85669	-0.115
Mof_N 	N 	0.5766	0.6843	0.82106	-0.119
Mof_N 	N 	0.6167	0.54258	0.0832	-0.117
Mof_N 	N 	0.61304	0.50656	0.12498	-0.114
Mof_N 	N 	0.10981	0.09929	0.75825	-0.172
Mof_N 	N 	0.08242	0.1425	0.76382	-0.156
Mof_N 	N 	0.17936	0.0835	0.8179	-0.161
Mof_N 	N 	0.15431	0.12895	0.81891	-0.172
Mof_N 	N 	0.18197	0.04403	0.99041	-0.164
Mof_N 	N 	0.21238	0.06918	0.96426	-0.177
Mof_N 	N 	0.95902	0.1211	0.7284	-0.17
Mof_N 	N 	0.94609	0.09671	0.77589	-0.162
Mof_N 	N 	0.17605	0.08835	0.87891	-0.115
Mof_N 	N 	0.1843	0.0766	0.91804	-0.119
Mof_N 	N 	0.04258	0.1167	0.75752	-0.117
Mof_N 	N 	0.00656	0.11304	0.75542	-0.114
Mof_N 	N 	0.53265	0.75825	0.09929	-0.172
Mof_N 	N 	0.51126	0.76382	0.1425	-0.156
Mof_N 	N 	0.41924	0.8179	0.0835	-0.161
Mof_N 	N 	0.39783	0.81891	0.12895	-0.172
Mof_N 	N 	0.28359	0.99041	0.04403	-0.164
Mof_N 	N 	0.25418	0.96426	0.06918	-0.177
Mof_N 	N 	0.69148	0.7284	0.1211	-0.17
Mof_N 	N 	0.68131	0.77589	0.09671	-0.162
Mof_N 	N 	0.35669	0.87891	0.08835	-0.115
Mof_N 	N 	0.32106	0.91804	0.0766	-0.119
Mof_N 	N 	0.5832	0.75752	0.1167	-0.117
Mof_N 	N 	0.62498	0.75542	0.11304	-0.114
Mof_N 	N 	0.03265	0.10981	0.59929	-0.172
Mof_N 	N 	0.01126	0.08242	0.6425	-0.156
Mof_N 	N 	0.91924	0.17936	0.5835	-0.161
Mof_N 	N 	0.89783	0.15431	0.62895	-0.172
Mof_N 	N 	0.78359	0.18197	0.54403	-0.164
Mof_N 	N 	0.75418	0.21238	0.56918	-0.177
Mof_N 	N 	0.19148	0.95902	0.6211	-0.17
Mof_N 	N 	0.18131	0.94609	0.59671	-0.162
Mof_N 	N 	0.85669	0.17605	0.58835	-0.115
Mof_N 	N 	0.82106	0.1843	0.5766	-0.119
Mof_N 	N 	0.0832	0.04258	0.6167	-0.117
Mof_N 	N 	0.12498	0.00656	0.61304	-0.114
Mof_N 	N 	0.60981	0.53265	0.25825	-0.172
Mof_N 	N 	0.58242	0.51126	0.26382	-0.156
Mof_N 	N 	0.67936	0.41924	0.3179	-0.161
Mof_N 	N 	0.65431	0.39783	0.31891	-0.172
Mof_N 	N 	0.68197	0.28359	0.49041	-0.164
Mof_N 	N 	0.71238	0.25418	0.46426	-0.177
Mof_N 	N 	0.45902	0.69148	0.2284	-0.17
Mof_N 	N 	0.44609	0.68131	0.27589	-0.162
Mof_N 	N 	0.67605	0.35669	0.37891	-0.115
Mof_N 	N 	0.6843	0.32106	0.41804	-0.119
Mof_N 	N 	0.54258	0.5832	0.25752	-0.117
Mof_N 	N 	0.50656	0.62498	0.25542	-0.114
Mof_N 	N 	0.09929	0.25825	0.53265	-0.172
Mof_N 	N 	0.1425	0.26382	0.51126	-0.156
Mof_N 	N 	0.0835	0.3179	0.41924	-0.161
Mof_N 	N 	0.12895	0.31891	0.39783	-0.172
Mof_N 	N 	0.04403	0.49041	0.28359	-0.164
Mof_N 	N 	0.06918	0.46426	0.25418	-0.177
Mof_N 	N 	0.1211	0.2284	0.69148	-0.17
Mof_N 	N 	0.09671	0.27589	0.68131	-0.162
Mof_N 	N 	0.08835	0.37891	0.35669	-0.114
Mof_N 	N 	0.0766	0.41804	0.32106	-0.119
Mof_N 	N 	0.1167	0.25752	0.5832	-0.117
Mof_N 	N 	0.11304	0.25542	0.62498	-0.114
Mof_N 	N 	0.75825	0.59929	0.10981	-0.172
Mof_N 	N 	0.76382	0.6425	0.08242	-0.156
Mof_N 	N 	0.8179	0.5835	0.17936	-0.161
Mof_N 	N 	0.81891	0.62895	0.15431	-0.172
Mof_N 	N 	0.99041	0.54403	0.18197	-0.164
Mof_N 	N 	0.96426	0.56918	0.21238	-0.177
Mof_N 	N 	0.7284	0.6211	0.95902	-0.17
Mof_N 	N 	0.77589	0.59671	0.94609	-0.162
Mof_N 	N 	0.87891	0.58835	0.17605	-0.115
Mof_N 	N 	0.91804	0.5766	0.1843	-0.119
Mof_N 	N 	0.75752	0.6167	0.04258	-0.117
Mof_N 	N 	0.75542	0.61304	0.00656	-0.115
Mof_N 	N 	0.03265	0.59929	0.25825	-0.172
Mof_N 	N 	0.01126	0.6425	0.26382	-0.156
Mof_N 	N 	0.91924	0.5835	0.3179	-0.16
Mof_N 	N 	0.89783	0.62895	0.31891	-0.172
Mof_N 	N 	0.78359	0.54403	0.49041	-0.164
Mof_N 	N 	0.75418	0.56918	0.46426	-0.177
Mof_N 	N 	0.19148	0.6211	0.2284	-0.17
Mof_N 	N 	0.18131	0.59671	0.27589	-0.162
Mof_N 	N 	0.85669	0.58835	0.37891	-0.115
Mof_N 	N 	0.82106	0.5766	0.41804	-0.119
Mof_N 	N 	0.0832	0.6167	0.25752	-0.117
Mof_N 	N 	0.12498	0.61304	0.25542	-0.114
Mof_N 	N 	0.60981	0.25825	0.59929	-0.172
Mof_N 	N 	0.58242	0.26382	0.6425	-0.156
Mof_N 	N 	0.67936	0.3179	0.5835	-0.161
Mof_N 	N 	0.65431	0.31891	0.62895	-0.172
Mof_N 	N 	0.68197	0.49041	0.54403	-0.164
Mof_N 	N 	0.71238	0.46426	0.56918	-0.177
Mof_N 	N 	0.45902	0.2284	0.6211	-0.17
Mof_N 	N 	0.44609	0.27589	0.59671	-0.162
Mof_N 	N 	0.67605	0.37891	0.58835	-0.115
Mof_N 	N 	0.6843	0.41804	0.5766	-0.119
Mof_N 	N 	0.54258	0.25752	0.6167	-0.117
Mof_N 	N 	0.50656	0.25542	0.61304	-0.114
Mof_N 	N 	0.09929	0.53265	0.10981	-0.172
Mof_N 	N 	0.1425	0.51126	0.08242	-0.156
Mof_N 	N 	0.0835	0.41924	0.17936	-0.161
Mof_N 	N 	0.12895	0.39783	0.15431	-0.172
Mof_N 	N 	0.04403	0.28359	0.18197	-0.164
Mof_N 	N 	0.06918	0.25418	0.21238	-0.177
Mof_N 	N 	0.1211	0.69148	0.95902	-0.17
Mof_N 	N 	0.09671	0.68131	0.94609	-0.162
Mof_N 	N 	0.08835	0.35669	0.17605	-0.114
Mof_N 	N 	0.0766	0.32106	0.1843	-0.119
Mof_N 	N 	0.1167	0.5832	0.04258	-0.117
Mof_N 	N 	0.11304	0.62498	0.00656	-0.114
Mof_N 	N 	0.75825	0.10981	0.53265	-0.172
Mof_N 	N 	0.76382	0.08242	0.51126	-0.156
Mof_N 	N 	0.8179	0.17936	0.41924	-0.161
Mof_N 	N 	0.81891	0.15431	0.39783	-0.172
Mof_N 	N 	0.99041	0.18197	0.28359	-0.164
Mof_N 	N 	0.96426	0.21238	0.25418	-0.177
Mof_N 	N 	0.7284	0.95902	0.69148	-0.17
Mof_N 	N 	0.77589	0.94609	0.68131	-0.162
Mof_N 	N 	0.87891	0.17605	0.35669	-0.115
Mof_N 	N 	0.91804	0.1843	0.32106	-0.119
Mof_N 	N 	0.75752	0.04258	0.5832	-0.117
Mof_N 	N 	0.75542	0.00656	0.62498	-0.115
Mof_N 	N 	0.03265	0.25825	0.10981	-0.172
Mof_N 	N 	0.01126	0.26382	0.08242	-0.155
Mof_N 	N 	0.91924	0.3179	0.17936	-0.16
Mof_N 	N 	0.89783	0.31891	0.15431	-0.172
Mof_N 	N 	0.78359	0.49041	0.18197	-0.164
Mof_N 	N 	0.75418	0.46426	0.21238	-0.177
Mof_N 	N 	0.19148	0.2284	0.95902	-0.17
Mof_N 	N 	0.18131	0.27589	0.94609	-0.162
Mof_N 	N 	0.85669	0.37891	0.17605	-0.115
Mof_N 	N 	0.82106	0.41804	0.1843	-0.119
Mof_N 	N 	0.0832	0.25752	0.04258	-0.117
Mof_N 	N 	0.12498	0.25542	0.00656	-0.114
Mof_N 	N 	0.60981	0.59929	0.53265	-0.172
Mof_N 	N 	0.58242	0.6425	0.51126	-0.156
Mof_N 	N 	0.67936	0.5835	0.41924	-0.161
Mof_N 	N 	0.65431	0.62895	0.39783	-0.172
Mof_N 	N 	0.68197	0.54403	0.28359	-0.164
Mof_N 	N 	0.71238	0.56918	0.25418	-0.177
Mof_N 	N 	0.45902	0.6211	0.69148	-0.17
Mof_N 	N 	0.44609	0.59671	0.68131	-0.162
Mof_N 	N 	0.67605	0.58835	0.35669	-0.115
Mof_N 	N 	0.6843	0.5766	0.32106	-0.119
Mof_N 	N 	0.54258	0.6167	0.5832	-0.117
Mof_N 	N 	0.50656	0.61304	0.62498	-0.114
Mof_N 	N 	0.09929	0.10981	0.25825	-0.172
Mof_N 	N 	0.1425	0.08242	0.26382	-0.156
Mof_N 	N 	0.0835	0.17936	0.3179	-0.161
Mof_N 	N 	0.12895	0.15431	0.31891	-0.172
Mof_N 	N 	0.04403	0.18197	0.49041	-0.164
Mof_N 	N 	0.06918	0.21238	0.46426	-0.177
Mof_N 	N 	0.1211	0.95902	0.2284	-0.17
Mof_N 	N 	0.09671	0.94609	0.27589	-0.162
Mof_N 	N 	0.08835	0.17605	0.37891	-0.114
Mof_N 	N 	0.0766	0.1843	0.41804	-0.119
Mof_N 	N 	0.1167	0.04258	0.25752	-0.117
Mof_N 	N 	0.11304	0.00656	0.25542	-0.114
Mof_N 	N 	0.75825	0.53265	0.59929	-0.172
Mof_N 	N 	0.76382	0.51126	0.6425	-0.156
Mof_N 	N 	0.8179	0.41924	0.5835	-0.161
Mof_N 	N 	0.81891	0.39783	0.62895	-0.172
Mof_N 	N 	0.99041	0.28359	0.54403	-0.164
Mof_N 	N 	0.96426	0.25418	0.56918	-0.177
Mof_N 	N 	0.7284	0.69148	0.6211	-0.17
Mof_N 	N 	0.77589	0.68131	0.59671	-0.162
Mof_N 	N 	0.87891	0.35669	0.58835	-0.115
Mof_N 	N 	0.91804	0.32106	0.5766	-0.119
Mof_N 	N 	0.75752	0.5832	0.6167	-0.117
Mof_N 	N 	0.75542	0.62498	0.61304	-0.114
Mof_N 	N 	0.89019	0.96735	0.90071	-0.172
Mof_N 	N 	0.91758	0.98874	0.8575	-0.156
Mof_N 	N 	0.82064	0.08076	0.9165	-0.16
Mof_N 	N 	0.84569	0.10217	0.87105	-0.172
Mof_N 	N 	0.81803	0.21641	0.95597	-0.164
Mof_N 	N 	0.78762	0.24582	0.93082	-0.177
Mof_N 	N 	0.04098	0.80852	0.8789	-0.17
Mof_N 	N 	0.05391	0.81869	0.90329	-0.161
Mof_N 	N 	0.82395	0.14331	0.91165	-0.114
Mof_N 	N 	0.8157	0.17894	0.9234	-0.119
Mof_N 	N 	0.95742	0.9168	0.8833	-0.117
Mof_N 	N 	0.99344	0.87502	0.88696	-0.113
Mof_N 	N 	0.46735	0.39019	0.24175	-0.172
Mof_N 	N 	0.48874	0.41758	0.23618	-0.156
Mof_N 	N 	0.58076	0.32064	0.1821	-0.161
Mof_N 	N 	0.60217	0.34569	0.18109	-0.172
Mof_N 	N 	0.71641	0.31803	0.00959	-0.164
Mof_N 	N 	0.74582	0.28762	0.03574	-0.177
Mof_N 	N 	0.30852	0.54098	0.2716	-0.17
Mof_N 	N 	0.31869	0.55391	0.22411	-0.162
Mof_N 	N 	0.64331	0.32395	0.12109	-0.115
Mof_N 	N 	0.67894	0.3157	0.08196	-0.119
Mof_N 	N 	0.4168	0.45742	0.24248	-0.117
Mof_N 	N 	0.37502	0.49344	0.24458	-0.114
Mof_N 	N 	0.74175	0.90071	0.96735	-0.172
Mof_N 	N 	0.73618	0.8575	0.98874	-0.156
Mof_N 	N 	0.6821	0.9165	0.08076	-0.161
Mof_N 	N 	0.68109	0.87105	0.10217	-0.172
Mof_N 	N 	0.50959	0.95597	0.21641	-0.164
Mof_N 	N 	0.53574	0.93082	0.24582	-0.177
Mof_N 	N 	0.7716	0.8789	0.80852	-0.17
Mof_N 	N 	0.72411	0.90329	0.81869	-0.162
Mof_N 	N 	0.62109	0.91165	0.14331	-0.115
Mof_N 	N 	0.58196	0.9234	0.17894	-0.119
Mof_N 	N 	0.74248	0.8833	0.9168	-0.117
Mof_N 	N 	0.74458	0.88696	0.87502	-0.114
Mof_N 	N 	0.40071	0.24175	0.39019	-0.172
Mof_N 	N 	0.3575	0.23618	0.41758	-0.156
Mof_N 	N 	0.4165	0.1821	0.32064	-0.161
Mof_N 	N 	0.37105	0.18109	0.34569	-0.172
Mof_N 	N 	0.45597	0.00959	0.31803	-0.164
Mof_N 	N 	0.43082	0.03574	0.28762	-0.177
Mof_N 	N 	0.3789	0.2716	0.54098	-0.17
Mof_N 	N 	0.40329	0.22411	0.55391	-0.162
Mof_N 	N 	0.41165	0.12109	0.32395	-0.114
Mof_N 	N 	0.4234	0.08196	0.3157	-0.119
Mof_N 	N 	0.3833	0.24248	0.45742	-0.117
Mof_N 	N 	0.38696	0.24458	0.49344	-0.114
Mof_N 	N 	0.40071	0.96735	0.24175	-0.172
Mof_N 	N 	0.3575	0.98874	0.23618	-0.156
Mof_N 	N 	0.4165	0.08076	0.1821	-0.161
Mof_N 	N 	0.37105	0.10217	0.18109	-0.172
Mof_N 	N 	0.45597	0.21641	0.00959	-0.164
Mof_N 	N 	0.43082	0.24582	0.03574	-0.177
Mof_N 	N 	0.3789	0.80852	0.2716	-0.17
Mof_N 	N 	0.40329	0.81869	0.22411	-0.162
Mof_N 	N 	0.41165	0.14331	0.12109	-0.115
Mof_N 	N 	0.4234	0.17894	0.08196	-0.119
Mof_N 	N 	0.3833	0.9168	0.24248	-0.117
Mof_N 	N 	0.38696	0.87502	0.24458	-0.114
Mof_N 	N 	0.74175	0.39019	0.90071	-0.172
Mof_N 	N 	0.73618	0.41758	0.8575	-0.156
Mof_N 	N 	0.6821	0.32064	0.9165	-0.161
Mof_N 	N 	0.68109	0.34569	0.87105	-0.172
Mof_N 	N 	0.50959	0.31803	0.95597	-0.164
Mof_N 	N 	0.53574	0.28762	0.93082	-0.177
Mof_N 	N 	0.7716	0.54098	0.8789	-0.17
Mof_N 	N 	0.72411	0.55391	0.90329	-0.162
Mof_N 	N 	0.62109	0.32395	0.91165	-0.115
Mof_N 	N 	0.58196	0.3157	0.9234	-0.119
Mof_N 	N 	0.74248	0.45742	0.8833	-0.117
Mof_N 	N 	0.74458	0.49344	0.88696	-0.114
Mof_N 	N 	0.46735	0.90071	0.39019	-0.172
Mof_N 	N 	0.48874	0.8575	0.41758	-0.156
Mof_N 	N 	0.58076	0.9165	0.32064	-0.161
Mof_N 	N 	0.60217	0.87105	0.34569	-0.172
Mof_N 	N 	0.71641	0.95597	0.31803	-0.164
Mof_N 	N 	0.74582	0.93082	0.28762	-0.177
Mof_N 	N 	0.30852	0.8789	0.54098	-0.17
Mof_N 	N 	0.31869	0.90329	0.55391	-0.162
Mof_N 	N 	0.64331	0.91165	0.32395	-0.114
Mof_N 	N 	0.67894	0.9234	0.3157	-0.119
Mof_N 	N 	0.4168	0.8833	0.45742	-0.117
Mof_N 	N 	0.37502	0.88696	0.49344	-0.114
Mof_N 	N 	0.89019	0.24175	0.96735	-0.172
Mof_N 	N 	0.91758	0.23618	0.98874	-0.156
Mof_N 	N 	0.82064	0.1821	0.08076	-0.161
Mof_N 	N 	0.84569	0.18109	0.10217	-0.172
Mof_N 	N 	0.81803	0.00959	0.21641	-0.164
Mof_N 	N 	0.78762	0.03574	0.24582	-0.177
Mof_N 	N 	0.04098	0.2716	0.80852	-0.17
Mof_N 	N 	0.05391	0.22411	0.81869	-0.162
Mof_N 	N 	0.82395	0.12109	0.14331	-0.115
Mof_N 	N 	0.8157	0.08196	0.17894	-0.119
Mof_N 	N 	0.95742	0.24248	0.9168	-0.117
Mof_N 	N 	0.99344	0.24458	0.87502	-0.114
Mof_N 	N 	0.74175	0.96735	0.39019	-0.172
Mof_N 	N 	0.73618	0.98874	0.41758	-0.156
Mof_N 	N 	0.6821	0.08076	0.32064	-0.16
Mof_N 	N 	0.68109	0.10217	0.34569	-0.172
Mof_N 	N 	0.50959	0.21641	0.31803	-0.164
Mof_N 	N 	0.53574	0.24582	0.28762	-0.177
Mof_N 	N 	0.7716	0.80852	0.54098	-0.17
Mof_N 	N 	0.72411	0.81869	0.55391	-0.162
Mof_N 	N 	0.62109	0.14331	0.32395	-0.114
Mof_N 	N 	0.58196	0.17894	0.3157	-0.119
Mof_N 	N 	0.74248	0.9168	0.45742	-0.117
Mof_N 	N 	0.74458	0.87502	0.49344	-0.114
Mof_N 	N 	0.40071	0.39019	0.96735	-0.172
Mof_N 	N 	0.3575	0.41758	0.98874	-0.156
Mof_N 	N 	0.4165	0.32064	0.08076	-0.161
Mof_N 	N 	0.37105	0.34569	0.10217	-0.172
Mof_N 	N 	0.45597	0.31803	0.21641	-0.164
Mof_N 	N 	0.43082	0.28762	0.24582	-0.177
Mof_N 	N 	0.3789	0.54098	0.80852	-0.17
Mof_N 	N 	0.40329	0.55391	0.81869	-0.162
Mof_N 	N 	0.41165	0.32395	0.14331	-0.115
Mof_N 	N 	0.4234	0.3157	0.17894	-0.119
Mof_N 	N 	0.3833	0.45742	0.9168	-0.117
Mof_N 	N 	0.38696	0.49344	0.87502	-0.114
Mof_N 	N 	0.89019	0.90071	0.24175	-0.172
Mof_N 	N 	0.91758	0.8575	0.23618	-0.156
Mof_N 	N 	0.82064	0.9165	0.1821	-0.161
Mof_N 	N 	0.84569	0.87105	0.18109	-0.172
Mof_N 	N 	0.81803	0.95597	0.00959	-0.164
Mof_N 	N 	0.78762	0.93082	0.03574	-0.177
Mof_N 	N 	0.04098	0.8789	0.2716	-0.17
Mof_N 	N 	0.05391	0.90329	0.22411	-0.162
Mof_N 	N 	0.82395	0.91165	0.12109	-0.115
Mof_N 	N 	0.8157	0.9234	0.08196	-0.119
Mof_N 	N 	0.95742	0.8833	0.24248	-0.117
Mof_N 	N 	0.99344	0.88696	0.24458	-0.114
Mof_N 	N 	0.46735	0.24175	0.90071	-0.172
Mof_N 	N 	0.48874	0.23618	0.8575	-0.156
Mof_N 	N 	0.58076	0.1821	0.9165	-0.161
Mof_N 	N 	0.60217	0.18109	0.87105	-0.172
Mof_N 	N 	0.71641	0.00959	0.95597	-0.164
Mof_N 	N 	0.74582	0.03574	0.93082	-0.177
Mof_N 	N 	0.30852	0.2716	0.8789	-0.17
Mof_N 	N 	0.31869	0.22411	0.90329	-0.162
Mof_N 	N 	0.64331	0.12109	0.91165	-0.115
Mof_N 	N 	0.67894	0.08196	0.9234	-0.119
Mof_N 	N 	0.4168	0.24248	0.8833	-0.117
Mof_N 	N 	0.37502	0.24458	0.88696	-0.114
_end
