data_functionalizedCrystal
_audit_creation_method	'EQeq! by Chris Wilmer'
_symmetry_space_group_name_H-M	'P1'
_symmetry_Int_Tables_number	1
_symmetry_cell_setting	triclinic
loop_
_symmetry_equiv_pos_as_xyz
  x,y,z
_cell_length_a	16.9847
_cell_length_b	24.2343
_cell_length_c	36.286
_cell_angle_alpha	90
_cell_angle_beta	90
_cell_angle_gamma	90
loop_
_atom_site_label
_atom_site_type_symbol
_atom_site_fract_x
_atom_site_fract_y
_atom_site_fract_z
_atom_site_charge
Mof_Ce	Ce	0.43198	0.06074	0.02082	2.45
Mof_Ce	Ce	0.60937	0.20105	0.14065	1.981
Mof_Ce	Ce	0.8917	0.09575	0.23973	3.543
Mof_O 	O 	0.3401	0.096	0.9733	-0.52
Mof_O 	O 	0.2795	0.1626	0.9422	-0.324
Mof_O 	O 	0.522	0.1186	0.0577	-0.596
Mof_O 	O 	0.567	0.1993	0.0777	-0.597
Mof_O 	O 	0.4189	0.334	0.9954	-0.431
Mof_H 	H 	0.3943	0.3419	0.976	0.191
Mof_O 	O 	0.4446	0.9888	0.9749	-0.694
Mof_O 	O 	0.7344	0.214	0.1734	-0.595
Mof_O 	O 	0.7819	0.1431	0.2049	-0.307
Mof_O 	O 	0.9885	0.1466	0.278	-0.661
Mof_O 	O 	0.0354	0.2231	0.304	-0.57
Mof_O 	O 	0.8917	0.3725	0.2311	-0.436
Mof_H 	H 	0.935	0.3842	0.2391	0.188
Mof_O 	O 	0.9129	0.0462	0.3032	-1.014
Mof_H 	H 	0.9622	0.0372	0.3055	0.266
Mof_H 	H 	0.884	0.0165	0.304	0.982
Mof_O 	O 	0.7492	0.0689	0.2327	-0.985
Mof_H 	H 	0.74	0.0397	0.2461	0.474
Mof_H 	H 	0.7395	0.0615	0.2097	0.299
Mof_O 	O 	0.8844	0.0515	0.1774	-1.651
Mof_H 	H 	0.8372	0.0556	0.1685	0.58
Mof_H 	H 	0.8948	0.0165	0.1796	0.746
Mof_N 	N 	0.4295	0.1652	0.0095	-0.25
Mof_N 	N 	0.8895	0.2028	0.2372	-0.282
Mof_C 	C 	0.3287	0.1465	0.9645	0.347
Mof_C 	C 	0.3794	0.1878	0.9853	0.029
Mof_C 	C 	0.3732	0.244	0.9791	-0.167
Mof_H 	H 	0.3373	0.2582	0.9614	0.047
Mof_C 	C 	0.4212	0.2789	0.9995	0.254
Mof_C 	C 	0.4729	0.2558	0.0256	-0.135
Mof_H 	H 	0.5059	0.2784	0.0404	0.081
Mof_C 	C 	0.4733	0.199	0.0288	-0.014
Mof_C 	C 	0.5257	0.1713	0.0568	0.418
Mof_C 	C 	0.7862	0.1941	0.1941	0.437
Mof_C 	C 	0.8395	0.2296	0.2153	-0.038
Mof_C 	C 	0.8379	0.2864	0.212	-0.132
Mof_H 	H 	0.8032	0.3043	0.1952	0.049
Mof_C 	C 	0.8892	0.3161	0.2343	0.226
Mof_C 	C 	0.9386	0.2889	0.2584	-0.138
Mof_H 	H 	0.9728	0.3086	0.2744	0.059
Mof_C 	C 	0.9363	0.2322	0.2584	-0.015
Mof_C 	C 	0.9913	0.2	0.282	0.445
Mof_W 	W 	0.56758	0.1355	0.93302	1.517
Mof_W 	W 	0.67805	0.24659	0.97267	1.195
Mof_W 	W 	0.77972	0.13533	0.92791	1.189
Mof_W 	W 	0.56222	0.12074	0.84033	1.117
Mof_W 	W 	0.46315	0.22469	0.88089	1.193
Mof_W 	W 	0.5687	0.33651	0.92323	1.192
Mof_W 	W 	0.7683	0.34072	0.91867	1.56
Mof_W 	W 	0.87443	0.23004	0.87578	1.559
Mof_W 	W 	0.77397	0.12584	0.83508	1.164
Mof_W 	W 	0.65699	0.21997	0.7816	1.166
Mof_W 	W 	0.56259	0.32429	0.82485	1.581
Mof_W 	W 	0.76119	0.32324	0.82038	1.611
Mof_O 	O 	0.5288	0.0907	0.9644	-0.645
Mof_O 	O 	0.8282	0.3921	0.9343	-0.681
Mof_O 	O 	0.9731	0.2401	0.8727	-0.598
Mof_O 	O 	0.5006	0.3707	0.8035	-0.718
Mof_O 	O 	0.8155	0.3702	0.7959	-0.691
Mof_O 	O 	0.5983	0.195	0.962	-0.502
Mof_O 	O 	0.6731	0.113	0.9311	-0.523
Mof_O 	O 	0.5495	0.0915	0.8891	-0.521
Mof_O 	O 	0.4708	0.1737	0.9207	-0.495
Mof_O 	O 	0.5968	0.3036	0.9684	-0.467
Mof_O 	O 	0.7522	0.3055	0.9657	-0.5
Mof_O 	O 	0.7527	0.1946	0.9595	-0.469
Mof_O 	O 	0.8714	0.1768	0.9143	-0.498
Mof_O 	O 	0.7912	0.0941	0.8841	-0.484
Mof_O 	O 	0.4664	0.1628	0.8483	-0.464
Mof_O 	O 	0.5851	0.1693	0.8014	-0.478
Mof_O 	O 	0.6679	0.1009	0.8411	-0.486
Mof_O 	O 	0.492	0.2709	0.8419	-0.51
Mof_O 	O 	0.4956	0.2817	0.9135	-0.475
Mof_O 	O 	0.6692	0.3758	0.925	-0.506
Mof_O 	O 	0.5705	0.3529	0.8717	-0.502
Mof_O 	O 	0.8425	0.2846	0.9083	-0.543
Mof_O 	O 	0.7625	0.3548	0.8678	-0.541
Mof_O 	O 	0.8661	0.1683	0.8415	-0.495
Mof_O 	O 	0.8377	0.2729	0.836	-0.544
Mof_O 	O 	0.7388	0.1715	0.7974	-0.467
Mof_O 	O 	0.581	0.2778	0.7822	-0.509
Mof_O 	O 	0.7362	0.2776	0.7792	-0.511
Mof_O 	O 	0.6611	0.3587	0.8128	-0.539
Mof_B 	B 	0.6694	0.2299	0.8778	3.231
Mof_O 	O 	0.5971	0.1926	0.8815	-0.758
Mof_O 	O 	0.6701	0.272	0.9094	-0.758
Mof_O 	O 	0.7441	0.1943	0.8785	-0.76
Mof_O 	O 	0.6652	0.2623	0.8413	-0.781
Mof_O 	O 	0.8131	0.1431	0.1893	-0.347
Mof_O 	O 	0.8571	0.0144	0.2839	-1.661
Mof_H 	H 	0.8586	0.9834	0.2718	0.522
Mof_H 	H 	0.8102	0.0193	0.2929	0.563
Mof_O 	O 	0.7821	0.0269	0.2461	-1
Mof_H 	H 	0.7911	0.999	0.2316	0.306
Mof_H 	H 	0.738	0.0426	0.2398	0.322
Mof_O 	O 	0.883	0.0301	0.1865	0.549
Mof_H 	H 	0.8351	0.0175	0.1847	-0.293
Mof_H 	H 	0.9152	0.0029	0.1902	-0.63
Mof_O 	O 	0.595	0.2648	0.8765	-0.689
Mof_O 	O 	0.674	0.1991	0.9148	-0.682
Mof_O 	O 	0.743	0.2684	0.8738	-0.694
Mof_O 	O 	0.67	0.1885	0.8457	-0.666
Mof_Ce	Ce	0.06802	0.93926	0.52082	2.449
Mof_Ce	Ce	0.89063	0.79895	0.64065	1.982
Mof_Ce	Ce	0.6083	0.90425	0.73973	3.544
Mof_O 	O 	0.1599	0.904	0.4733	-0.52
Mof_O 	O 	0.2205	0.8374	0.4422	-0.323
Mof_O 	O 	0.978	0.8814	0.5577	-0.595
Mof_O 	O 	0.933	0.8007	0.5777	-0.597
Mof_O 	O 	0.0811	0.666	0.4954	-0.431
Mof_H 	H 	0.1057	0.6581	0.476	0.191
Mof_O 	O 	0.0554	0.0112	0.4749	-0.694
Mof_O 	O 	0.7656	0.786	0.6734	-0.595
Mof_O 	O 	0.7181	0.8569	0.7049	-0.307
Mof_O 	O 	0.5115	0.8534	0.778	-0.661
Mof_O 	O 	0.4646	0.7769	0.804	-0.57
Mof_O 	O 	0.6083	0.6275	0.7311	-0.436
Mof_H 	H 	0.565	0.6158	0.7391	0.188
Mof_O 	O 	0.5871	0.9538	0.8032	-1.014
Mof_H 	H 	0.5378	0.9628	0.8055	0.266
Mof_H 	H 	0.616	0.9835	0.804	0.982
Mof_O 	O 	0.7508	0.9311	0.7327	-0.985
Mof_H 	H 	0.76	0.9603	0.7461	0.474
Mof_H 	H 	0.7605	0.9385	0.7097	0.3
Mof_O 	O 	0.6156	0.9485	0.6774	-1.651
Mof_H 	H 	0.6628	0.9444	0.6685	0.58
Mof_H 	H 	0.6052	0.9835	0.6796	0.746
Mof_N 	N 	0.0705	0.8348	0.5095	-0.25
Mof_N 	N 	0.6105	0.7972	0.7372	-0.282
Mof_C 	C 	0.1713	0.8535	0.4645	0.347
Mof_C 	C 	0.1206	0.8122	0.4853	0.029
Mof_C 	C 	0.1268	0.756	0.4791	-0.167
Mof_H 	H 	0.1627	0.7418	0.4614	0.047
Mof_C 	C 	0.0788	0.7211	0.4995	0.254
Mof_C 	C 	0.0271	0.7442	0.5256	-0.135
Mof_H 	H 	0.9941	0.7216	0.5404	0.081
Mof_C 	C 	0.0267	0.801	0.5288	-0.015
Mof_C 	C 	0.9743	0.8287	0.5568	0.418
Mof_C 	C 	0.7138	0.8059	0.6941	0.437
Mof_C 	C 	0.6605	0.7704	0.7153	-0.038
Mof_C 	C 	0.6621	0.7136	0.712	-0.132
Mof_H 	H 	0.6968	0.6957	0.6952	0.049
Mof_C 	C 	0.6108	0.6839	0.7343	0.226
Mof_C 	C 	0.5614	0.7111	0.7584	-0.138
Mof_H 	H 	0.5272	0.6914	0.7744	0.059
Mof_C 	C 	0.5637	0.7678	0.7584	-0.015
Mof_C 	C 	0.5087	0.8	0.782	0.446
Mof_W 	W 	0.93242	0.8645	0.43302	1.517
Mof_W 	W 	0.82195	0.75341	0.47267	1.195
Mof_W 	W 	0.72028	0.86467	0.42791	1.189
Mof_W 	W 	0.93778	0.87926	0.34033	1.117
Mof_W 	W 	0.03685	0.77531	0.38089	1.193
Mof_W 	W 	0.9313	0.66349	0.42323	1.192
Mof_W 	W 	0.7317	0.65928	0.41867	1.561
Mof_W 	W 	0.62557	0.76996	0.37578	1.559
Mof_W 	W 	0.72603	0.87416	0.33508	1.165
Mof_W 	W 	0.84301	0.78003	0.2816	1.167
Mof_W 	W 	0.93741	0.67571	0.32485	1.581
Mof_W 	W 	0.73881	0.67676	0.32038	1.612
Mof_O 	O 	0.9712	0.9093	0.4644	-0.644
Mof_O 	O 	0.6718	0.6079	0.4343	-0.682
Mof_O 	O 	0.5269	0.7599	0.3727	-0.597
Mof_O 	O 	0.9994	0.6293	0.3035	-0.718
Mof_O 	O 	0.6845	0.6298	0.2959	-0.691
Mof_O 	O 	0.9017	0.805	0.462	-0.502
Mof_O 	O 	0.8269	0.887	0.4311	-0.523
Mof_O 	O 	0.9505	0.9085	0.3891	-0.521
Mof_O 	O 	0.0292	0.8263	0.4207	-0.495
Mof_O 	O 	0.9032	0.6964	0.4684	-0.467
Mof_O 	O 	0.7478	0.6945	0.4657	-0.5
Mof_O 	O 	0.7473	0.8054	0.4595	-0.469
Mof_O 	O 	0.6286	0.8232	0.4143	-0.498
Mof_O 	O 	0.7088	0.9059	0.3841	-0.484
Mof_O 	O 	0.0336	0.8372	0.3483	-0.465
Mof_O 	O 	0.9149	0.8307	0.3014	-0.478
Mof_O 	O 	0.8321	0.8991	0.3411	-0.486
Mof_O 	O 	0.008	0.7291	0.3419	-0.511
Mof_O 	O 	0.0044	0.7183	0.4135	-0.476
Mof_O 	O 	0.8308	0.6242	0.425	-0.506
Mof_O 	O 	0.9295	0.6471	0.3717	-0.503
Mof_O 	O 	0.6575	0.7154	0.4083	-0.543
Mof_O 	O 	0.7375	0.6452	0.3678	-0.541
Mof_O 	O 	0.6339	0.8317	0.3415	-0.495
Mof_O 	O 	0.6623	0.7271	0.336	-0.544
Mof_O 	O 	0.7612	0.8285	0.2974	-0.467
Mof_O 	O 	0.919	0.7222	0.2822	-0.509
Mof_O 	O 	0.7638	0.7224	0.2792	-0.511
Mof_O 	O 	0.8389	0.6413	0.3128	-0.539
Mof_B 	B 	0.8306	0.7701	0.3778	3.231
Mof_O 	O 	0.9029	0.8074	0.3815	-0.758
Mof_O 	O 	0.8299	0.728	0.4094	-0.758
Mof_O 	O 	0.7559	0.8057	0.3785	-0.76
Mof_O 	O 	0.8348	0.7377	0.3413	-0.781
Mof_O 	O 	0.6869	0.8569	0.6893	-0.347
Mof_O 	O 	0.6429	0.9856	0.7839	-1.66
Mof_H 	H 	0.6414	0.0166	0.7718	0.521
Mof_H 	H 	0.6898	0.9807	0.7929	0.562
Mof_O 	O 	0.7179	0.9731	0.7461	-0.999
Mof_H 	H 	0.7089	0.001	0.7316	0.305
Mof_H 	H 	0.762	0.9574	0.7398	0.322
Mof_O 	O 	0.617	0.9699	0.6865	0.549
Mof_H 	H 	0.6649	0.9825	0.6847	-0.293
Mof_H 	H 	0.5848	0.9971	0.6902	-0.63
Mof_O 	O 	0.905	0.7352	0.3765	-0.689
Mof_O 	O 	0.826	0.8009	0.4148	-0.682
Mof_O 	O 	0.757	0.7316	0.3738	-0.694
Mof_O 	O 	0.83	0.8115	0.3457	-0.666
Mof_Ce	Ce	0.56802	0.56074	0.47918	2.451
Mof_Ce	Ce	0.39063	0.70105	0.35935	1.982
Mof_Ce	Ce	0.1083	0.59575	0.26027	3.544
Mof_O 	O 	0.6599	0.596	0.5267	-0.52
Mof_O 	O 	0.7205	0.6626	0.5578	-0.323
Mof_O 	O 	0.478	0.6186	0.4423	-0.595
Mof_O 	O 	0.433	0.6993	0.4223	-0.597
Mof_O 	O 	0.5811	0.834	0.5046	-0.431
Mof_H 	H 	0.6057	0.8419	0.524	0.191
Mof_O 	O 	0.5554	0.4888	0.5251	-0.694
Mof_O 	O 	0.2656	0.714	0.3266	-0.595
Mof_O 	O 	0.2181	0.6431	0.2951	-0.307
Mof_O 	O 	0.0115	0.6466	0.222	-0.661
Mof_O 	O 	0.9646	0.7231	0.196	-0.569
Mof_O 	O 	0.1083	0.8725	0.2689	-0.436
Mof_H 	H 	0.065	0.8842	0.2609	0.188
Mof_O 	O 	0.0871	0.5462	0.1968	-1.014
Mof_H 	H 	0.0378	0.5372	0.1945	0.266
Mof_H 	H 	0.116	0.5165	0.196	0.982
Mof_O 	O 	0.2508	0.5689	0.2673	-0.985
Mof_H 	H 	0.26	0.5397	0.2539	0.474
Mof_H 	H 	0.2605	0.5615	0.2903	0.299
Mof_O 	O 	0.1156	0.5515	0.3226	-1.651
Mof_H 	H 	0.1628	0.5556	0.3315	0.58
Mof_H 	H 	0.1052	0.5165	0.3204	0.746
Mof_N 	N 	0.5705	0.6652	0.4905	-0.25
Mof_N 	N 	0.1105	0.7028	0.2628	-0.282
Mof_C 	C 	0.6713	0.6465	0.5355	0.348
Mof_C 	C 	0.6206	0.6878	0.5147	0.029
Mof_C 	C 	0.6268	0.744	0.5209	-0.167
Mof_H 	H 	0.6627	0.7582	0.5386	0.047
Mof_C 	C 	0.5788	0.7789	0.5005	0.253
Mof_C 	C 	0.5271	0.7558	0.4744	-0.135
Mof_H 	H 	0.4941	0.7784	0.4596	0.081
Mof_C 	C 	0.5267	0.699	0.4712	-0.015
Mof_C 	C 	0.4743	0.6713	0.4432	0.418
Mof_C 	C 	0.2138	0.6941	0.3059	0.437
Mof_C 	C 	0.1605	0.7296	0.2847	-0.038
Mof_C 	C 	0.1621	0.7864	0.288	-0.132
Mof_H 	H 	0.1968	0.8043	0.3048	0.049
Mof_C 	C 	0.1108	0.8161	0.2657	0.226
Mof_C 	C 	0.0614	0.7889	0.2416	-0.138
Mof_H 	H 	0.0272	0.8086	0.2256	0.058
Mof_C 	C 	0.0637	0.7322	0.2416	-0.015
Mof_C 	C 	0.0087	0.7	0.218	0.445
Mof_W 	W 	0.43242	0.6355	0.56698	1.517
Mof_W 	W 	0.32195	0.74659	0.52733	1.195
Mof_W 	W 	0.22028	0.63533	0.57209	1.189
Mof_W 	W 	0.43778	0.62074	0.65967	1.117
Mof_W 	W 	0.53685	0.72469	0.61911	1.193
Mof_W 	W 	0.4313	0.83651	0.57677	1.192
Mof_W 	W 	0.2317	0.84072	0.58133	1.56
Mof_W 	W 	0.12557	0.73004	0.62422	1.559
Mof_W 	W 	0.22603	0.62584	0.66492	1.165
Mof_W 	W 	0.34301	0.71997	0.7184	1.166
Mof_W 	W 	0.43741	0.82429	0.67515	1.581
Mof_W 	W 	0.23881	0.82324	0.67962	1.612
Mof_O 	O 	0.4712	0.5907	0.5356	-0.645
Mof_O 	O 	0.1718	0.8921	0.5657	-0.681
Mof_O 	O 	0.0269	0.7401	0.6273	-0.597
Mof_O 	O 	0.4994	0.8707	0.6965	-0.718
Mof_O 	O 	0.1845	0.8702	0.7041	-0.691
Mof_O 	O 	0.4017	0.695	0.538	-0.502
Mof_O 	O 	0.3269	0.613	0.5689	-0.523
Mof_O 	O 	0.4505	0.5915	0.6109	-0.521
Mof_O 	O 	0.5292	0.6737	0.5793	-0.495
Mof_O 	O 	0.4032	0.8036	0.5316	-0.467
Mof_O 	O 	0.2478	0.8055	0.5343	-0.5
Mof_O 	O 	0.2473	0.6946	0.5405	-0.469
Mof_O 	O 	0.1286	0.6768	0.5857	-0.498
Mof_O 	O 	0.2088	0.5941	0.6159	-0.484
Mof_O 	O 	0.5336	0.6628	0.6517	-0.464
Mof_O 	O 	0.4149	0.6693	0.6986	-0.478
Mof_O 	O 	0.3321	0.6009	0.6589	-0.486
Mof_O 	O 	0.508	0.7709	0.6581	-0.51
Mof_O 	O 	0.5044	0.7817	0.5865	-0.475
Mof_O 	O 	0.3308	0.8758	0.575	-0.506
Mof_O 	O 	0.4295	0.8529	0.6283	-0.502
Mof_O 	O 	0.1575	0.7846	0.5917	-0.543
Mof_O 	O 	0.2375	0.8548	0.6322	-0.541
Mof_O 	O 	0.1339	0.6683	0.6585	-0.495
Mof_O 	O 	0.1623	0.7729	0.664	-0.544
Mof_O 	O 	0.2612	0.6715	0.7026	-0.467
Mof_O 	O 	0.419	0.7778	0.7178	-0.509
Mof_O 	O 	0.2638	0.7776	0.7208	-0.511
Mof_O 	O 	0.3389	0.8587	0.6872	-0.539
Mof_B 	B 	0.3306	0.7299	0.6222	3.231
Mof_O 	O 	0.4029	0.6926	0.6185	-0.758
Mof_O 	O 	0.3299	0.772	0.5906	-0.758
Mof_O 	O 	0.2559	0.6943	0.6215	-0.76
Mof_O 	O 	0.3348	0.7623	0.6587	-0.781
Mof_O 	O 	0.1869	0.6431	0.3107	-0.347
Mof_O 	O 	0.1429	0.5144	0.2161	-1.66
Mof_H 	H 	0.1414	0.4834	0.2282	0.522
Mof_H 	H 	0.1898	0.5193	0.2071	0.562
Mof_O 	O 	0.2179	0.5269	0.2539	-1
Mof_H 	H 	0.2089	0.499	0.2684	0.305
Mof_H 	H 	0.262	0.5426	0.2602	0.322
Mof_O 	O 	0.117	0.5301	0.3135	0.549
Mof_H 	H 	0.1649	0.5175	0.3153	-0.293
Mof_H 	H 	0.0848	0.5029	0.3098	-0.63
Mof_O 	O 	0.405	0.7648	0.6235	-0.689
Mof_O 	O 	0.326	0.6991	0.5852	-0.682
Mof_O 	O 	0.257	0.7684	0.6262	-0.694
Mof_O 	O 	0.33	0.6885	0.6543	-0.666
Mof_Ce	Ce	0.93198	0.43926	0.97918	2.448
Mof_Ce	Ce	0.10937	0.29895	0.85935	1.983
Mof_Ce	Ce	0.3917	0.40425	0.76027	3.544
Mof_O 	O 	0.8401	0.404	0.0267	-0.519
Mof_O 	O 	0.7795	0.3374	0.0578	-0.323
Mof_O 	O 	0.022	0.3814	0.9423	-0.595
Mof_O 	O 	0.067	0.3007	0.9223	-0.597
Mof_O 	O 	0.9189	0.166	0.0046	-0.432
Mof_H 	H 	0.8943	0.1581	0.024	0.191
Mof_O 	O 	0.9446	0.5112	0.0251	-0.693
Mof_O 	O 	0.2344	0.286	0.8266	-0.595
Mof_O 	O 	0.2819	0.3569	0.7951	-0.307
Mof_O 	O 	0.4885	0.3534	0.722	-0.661
Mof_O 	O 	0.5354	0.2769	0.696	-0.57
Mof_O 	O 	0.3917	0.1275	0.7689	-0.436
Mof_H 	H 	0.435	0.1158	0.7609	0.188
Mof_O 	O 	0.4129	0.4538	0.6968	-1.014
Mof_H 	H 	0.4622	0.4628	0.6945	0.266
Mof_H 	H 	0.384	0.4835	0.696	0.982
Mof_O 	O 	0.2492	0.4311	0.7673	-0.985
Mof_H 	H 	0.24	0.4603	0.7539	0.474
Mof_H 	H 	0.2395	0.4385	0.7903	0.3
Mof_O 	O 	0.3844	0.4485	0.8226	-1.651
Mof_H 	H 	0.3372	0.4444	0.8315	0.58
Mof_H 	H 	0.3948	0.4835	0.8204	0.746
Mof_N 	N 	0.9295	0.3348	0.9905	-0.251
Mof_N 	N 	0.3895	0.2972	0.7628	-0.282
Mof_C 	C 	0.8287	0.3535	0.0355	0.347
Mof_C 	C 	0.8794	0.3122	0.0147	0.03
Mof_C 	C 	0.8732	0.256	0.0209	-0.169
Mof_H 	H 	0.8373	0.2418	0.0386	0.047
Mof_C 	C 	0.9212	0.2211	0.0005	0.256
Mof_C 	C 	0.9729	0.2442	0.9744	-0.138
Mof_H 	H 	0.0059	0.2216	0.9596	0.083
Mof_C 	C 	0.9733	0.301	0.9712	-0.014
Mof_C 	C 	0.0257	0.3287	0.9432	0.418
Mof_C 	C 	0.2862	0.3059	0.8059	0.437
Mof_C 	C 	0.3395	0.2704	0.7847	-0.038
Mof_C 	C 	0.3379	0.2136	0.788	-0.132
Mof_H 	H 	0.3032	0.1957	0.8048	0.049
Mof_C 	C 	0.3892	0.1839	0.7657	0.226
Mof_C 	C 	0.4386	0.2111	0.7416	-0.138
Mof_H 	H 	0.4728	0.1914	0.7256	0.059
Mof_C 	C 	0.4363	0.2678	0.7416	-0.015
Mof_C 	C 	0.4913	0.3	0.718	0.446
Mof_W 	W 	0.06758	0.3645	0.06698	1.516
Mof_W 	W 	0.17805	0.25341	0.02733	1.195
Mof_W 	W 	0.27972	0.36467	0.07209	1.189
Mof_W 	W 	0.06222	0.37926	0.15967	1.116
Mof_W 	W 	0.96315	0.27531	0.11911	1.193
Mof_W 	W 	0.0687	0.16349	0.07677	1.192
Mof_W 	W 	0.2683	0.15928	0.08133	1.561
Mof_W 	W 	0.37443	0.26996	0.12422	1.559
Mof_W 	W 	0.27397	0.37416	0.16492	1.165
Mof_W 	W 	0.15699	0.28003	0.2184	1.166
Mof_W 	W 	0.06259	0.17571	0.17515	1.581
Mof_W 	W 	0.26119	0.17676	0.17962	1.612
Mof_O 	O 	0.0288	0.4093	0.0356	-0.645
Mof_O 	O 	0.3282	0.1079	0.0657	-0.682
Mof_O 	O 	0.4731	0.2599	0.1273	-0.597
Mof_O 	O 	0.0006	0.1293	0.1965	-0.719
Mof_O 	O 	0.3155	0.1298	0.2041	-0.691
Mof_O 	O 	0.0983	0.305	0.038	-0.502
Mof_O 	O 	0.1731	0.387	0.0689	-0.523
Mof_O 	O 	0.0495	0.4085	0.1109	-0.521
Mof_O 	O 	0.9708	0.3263	0.0793	-0.495
Mof_O 	O 	0.0968	0.1964	0.0316	-0.467
Mof_O 	O 	0.2522	0.1945	0.0343	-0.5
Mof_O 	O 	0.2527	0.3054	0.0405	-0.469
Mof_O 	O 	0.3714	0.3232	0.0857	-0.498
Mof_O 	O 	0.2912	0.4059	0.1159	-0.484
Mof_O 	O 	0.9664	0.3372	0.1517	-0.464
Mof_O 	O 	0.0851	0.3307	0.1986	-0.478
Mof_O 	O 	0.1679	0.3991	0.1589	-0.486
Mof_O 	O 	0.992	0.2291	0.1581	-0.51
Mof_O 	O 	0.9956	0.2183	0.0865	-0.475
Mof_O 	O 	0.1692	0.1242	0.075	-0.506
Mof_O 	O 	0.0705	0.1471	0.1283	-0.503
Mof_O 	O 	0.3425	0.2154	0.0917	-0.543
Mof_O 	O 	0.2625	0.1452	0.1322	-0.541
Mof_O 	O 	0.3661	0.3317	0.1585	-0.495
Mof_O 	O 	0.3377	0.2271	0.164	-0.544
Mof_O 	O 	0.2388	0.3285	0.2026	-0.467
Mof_O 	O 	0.081	0.2222	0.2178	-0.509
Mof_O 	O 	0.2362	0.2224	0.2208	-0.511
Mof_O 	O 	0.1611	0.1413	0.1872	-0.539
Mof_B 	B 	0.1694	0.2701	0.1222	3.231
Mof_O 	O 	0.0971	0.3074	0.1185	-0.758
Mof_O 	O 	0.1701	0.228	0.0906	-0.758
Mof_O 	O 	0.2441	0.3057	0.1215	-0.76
Mof_O 	O 	0.1652	0.2377	0.1587	-0.781
Mof_O 	O 	0.3131	0.3569	0.8107	-0.347
Mof_O 	O 	0.3571	0.4856	0.7161	-1.66
Mof_H 	H 	0.3586	0.5166	0.7282	0.522
Mof_H 	H 	0.3102	0.4807	0.7071	0.562
Mof_O 	O 	0.2821	0.4731	0.7539	-1
Mof_H 	H 	0.2911	0.501	0.7684	0.305
Mof_H 	H 	0.238	0.4574	0.7602	0.322
Mof_O 	O 	0.383	0.4699	0.8135	0.549
Mof_H 	H 	0.3351	0.4825	0.8153	-0.293
Mof_H 	H 	0.4152	0.4971	0.8098	-0.63
Mof_O 	O 	0.095	0.2352	0.1235	-0.689
Mof_O 	O 	0.174	0.3009	0.0852	-0.682
Mof_O 	O 	0.243	0.2316	0.1262	-0.694
Mof_O 	O 	0.17	0.3115	0.1543	-0.666
Mof_Ce	Ce	0.56802	0.93926	0.97918	2.451
Mof_Ce	Ce	0.39063	0.79895	0.85935	1.982
Mof_Ce	Ce	0.1083	0.90425	0.76027	3.544
Mof_O 	O 	0.6599	0.904	0.0267	-0.519
Mof_O 	O 	0.7205	0.8374	0.0578	-0.323
Mof_O 	O 	0.478	0.8814	0.9423	-0.595
Mof_O 	O 	0.433	0.8007	0.9223	-0.597
Mof_O 	O 	0.5811	0.666	0.0046	-0.431
Mof_H 	H 	0.6057	0.6581	0.024	0.191
Mof_O 	O 	0.5554	0.0112	0.0251	-0.694
Mof_O 	O 	0.2656	0.786	0.8266	-0.595
Mof_O 	O 	0.2181	0.8569	0.7951	-0.307
Mof_O 	O 	0.0115	0.8534	0.722	-0.661
Mof_O 	O 	0.9646	0.7769	0.696	-0.57
Mof_O 	O 	0.1083	0.6275	0.7689	-0.436
Mof_H 	H 	0.065	0.6158	0.7609	0.188
Mof_O 	O 	0.0871	0.9538	0.6968	-1.014
Mof_H 	H 	0.0378	0.9628	0.6945	0.266
Mof_H 	H 	0.116	0.9835	0.696	0.982
Mof_O 	O 	0.2508	0.9311	0.7673	-0.985
Mof_H 	H 	0.26	0.9603	0.7539	0.474
Mof_H 	H 	0.2605	0.9385	0.7903	0.299
Mof_O 	O 	0.1156	0.9485	0.8226	-1.651
Mof_H 	H 	0.1628	0.9444	0.8315	0.58
Mof_H 	H 	0.1052	0.9835	0.8204	0.746
Mof_N 	N 	0.5705	0.8348	0.9905	-0.25
Mof_N 	N 	0.1105	0.7972	0.7628	-0.282
Mof_C 	C 	0.6713	0.8535	0.0355	0.347
Mof_C 	C 	0.6206	0.8122	0.0147	0.029
Mof_C 	C 	0.6268	0.756	0.0209	-0.167
Mof_H 	H 	0.6627	0.7418	0.0386	0.047
Mof_C 	C 	0.5788	0.7211	0.0005	0.254
Mof_C 	C 	0.5271	0.7442	0.9744	-0.135
Mof_H 	H 	0.4941	0.7216	0.9596	0.081
Mof_C 	C 	0.5267	0.801	0.9712	-0.014
Mof_C 	C 	0.4743	0.8287	0.9432	0.418
Mof_C 	C 	0.2138	0.8059	0.8059	0.437
Mof_C 	C 	0.1605	0.7704	0.7847	-0.038
Mof_C 	C 	0.1621	0.7136	0.788	-0.132
Mof_H 	H 	0.1968	0.6957	0.8048	0.049
Mof_C 	C 	0.1108	0.6839	0.7657	0.226
Mof_C 	C 	0.0614	0.7111	0.7416	-0.138
Mof_H 	H 	0.0272	0.6914	0.7256	0.059
Mof_C 	C 	0.0637	0.7678	0.7416	-0.015
Mof_C 	C 	0.0087	0.8	0.718	0.445
Mof_W 	W 	0.43242	0.8645	0.06698	1.517
Mof_W 	W 	0.32195	0.75341	0.02733	1.195
Mof_W 	W 	0.22028	0.86467	0.07209	1.189
Mof_W 	W 	0.43778	0.87926	0.15967	1.117
Mof_W 	W 	0.53685	0.77531	0.11911	1.193
Mof_W 	W 	0.4313	0.66349	0.07677	1.192
Mof_W 	W 	0.2317	0.65928	0.08133	1.56
Mof_W 	W 	0.12557	0.76996	0.12422	1.559
Mof_W 	W 	0.22603	0.87416	0.16492	1.164
Mof_W 	W 	0.34301	0.78003	0.2184	1.166
Mof_W 	W 	0.43741	0.67571	0.17515	1.581
Mof_W 	W 	0.23881	0.67676	0.17962	1.611
Mof_O 	O 	0.4712	0.9093	0.0356	-0.645
Mof_O 	O 	0.1718	0.6079	0.0657	-0.681
Mof_O 	O 	0.0269	0.7599	0.1273	-0.598
Mof_O 	O 	0.4994	0.6293	0.1965	-0.718
Mof_O 	O 	0.1845	0.6298	0.2041	-0.691
Mof_O 	O 	0.4017	0.805	0.038	-0.502
Mof_O 	O 	0.3269	0.887	0.0689	-0.523
Mof_O 	O 	0.4505	0.9085	0.1109	-0.521
Mof_O 	O 	0.5292	0.8263	0.0793	-0.495
Mof_O 	O 	0.4032	0.6964	0.0316	-0.467
Mof_O 	O 	0.2478	0.6945	0.0343	-0.5
Mof_O 	O 	0.2473	0.8054	0.0405	-0.469
Mof_O 	O 	0.1286	0.8232	0.0857	-0.498
Mof_O 	O 	0.2088	0.9059	0.1159	-0.484
Mof_O 	O 	0.5336	0.8372	0.1517	-0.464
Mof_O 	O 	0.4149	0.8307	0.1986	-0.478
Mof_O 	O 	0.3321	0.8991	0.1589	-0.486
Mof_O 	O 	0.508	0.7291	0.1581	-0.51
Mof_O 	O 	0.5044	0.7183	0.0865	-0.475
Mof_O 	O 	0.3308	0.6242	0.075	-0.506
Mof_O 	O 	0.4295	0.6471	0.1283	-0.502
Mof_O 	O 	0.1575	0.7154	0.0917	-0.543
Mof_O 	O 	0.2375	0.6452	0.1322	-0.541
Mof_O 	O 	0.1339	0.8317	0.1585	-0.495
Mof_O 	O 	0.1623	0.7271	0.164	-0.544
Mof_O 	O 	0.2612	0.8285	0.2026	-0.467
Mof_O 	O 	0.419	0.7222	0.2178	-0.509
Mof_O 	O 	0.2638	0.7224	0.2208	-0.511
Mof_O 	O 	0.3389	0.6413	0.1872	-0.539
Mof_B 	B 	0.3306	0.7701	0.1222	3.231
Mof_O 	O 	0.4029	0.8074	0.1185	-0.758
Mof_O 	O 	0.3299	0.728	0.0906	-0.758
Mof_O 	O 	0.2559	0.8057	0.1215	-0.76
Mof_O 	O 	0.3348	0.7377	0.1587	-0.781
Mof_O 	O 	0.1869	0.8569	0.8107	-0.347
Mof_O 	O 	0.1429	0.9856	0.7161	-1.661
Mof_H 	H 	0.1414	0.0166	0.7282	0.522
Mof_H 	H 	0.1898	0.9807	0.7071	0.563
Mof_O 	O 	0.2179	0.9731	0.7539	-1
Mof_H 	H 	0.2089	0.001	0.7684	0.306
Mof_H 	H 	0.262	0.9574	0.7602	0.322
Mof_O 	O 	0.117	0.9699	0.8135	0.549
Mof_H 	H 	0.1649	0.9825	0.8153	-0.293
Mof_H 	H 	0.0848	0.9971	0.8098	-0.63
Mof_O 	O 	0.405	0.7352	0.1235	-0.689
Mof_O 	O 	0.326	0.8009	0.0852	-0.682
Mof_O 	O 	0.257	0.7316	0.1262	-0.694
Mof_O 	O 	0.33	0.8115	0.1543	-0.666
Mof_Ce	Ce	0.93198	0.06074	0.47918	2.449
Mof_Ce	Ce	0.10937	0.20105	0.35935	1.982
Mof_Ce	Ce	0.3917	0.09575	0.26027	3.544
Mof_O 	O 	0.8401	0.096	0.5267	-0.52
Mof_O 	O 	0.7795	0.1626	0.5578	-0.323
Mof_O 	O 	0.022	0.1186	0.4423	-0.595
Mof_O 	O 	0.067	0.1993	0.4223	-0.597
Mof_O 	O 	0.9189	0.334	0.5046	-0.431
Mof_H 	H 	0.8943	0.3419	0.524	0.191
Mof_O 	O 	0.9446	0.9888	0.5251	-0.694
Mof_O 	O 	0.2344	0.214	0.3266	-0.595
Mof_O 	O 	0.2819	0.1431	0.2951	-0.307
Mof_O 	O 	0.4885	0.1466	0.222	-0.661
Mof_O 	O 	0.5354	0.2231	0.196	-0.57
Mof_O 	O 	0.3917	0.3725	0.2689	-0.436
Mof_H 	H 	0.435	0.3842	0.2609	0.188
Mof_O 	O 	0.4129	0.0462	0.1968	-1.014
Mof_H 	H 	0.4622	0.0372	0.1945	0.266
Mof_H 	H 	0.384	0.0165	0.196	0.982
Mof_O 	O 	0.2492	0.0689	0.2673	-0.985
Mof_H 	H 	0.24	0.0397	0.2539	0.474
Mof_H 	H 	0.2395	0.0615	0.2903	0.3
Mof_O 	O 	0.3844	0.0515	0.3226	-1.651
Mof_H 	H 	0.3372	0.0556	0.3315	0.58
Mof_H 	H 	0.3948	0.0165	0.3204	0.746
Mof_N 	N 	0.9295	0.1652	0.4905	-0.25
Mof_N 	N 	0.3895	0.2028	0.2628	-0.282
Mof_C 	C 	0.8287	0.1465	0.5355	0.347
Mof_C 	C 	0.8794	0.1878	0.5147	0.029
Mof_C 	C 	0.8732	0.244	0.5209	-0.167
Mof_H 	H 	0.8373	0.2582	0.5386	0.047
Mof_C 	C 	0.9212	0.2789	0.5005	0.254
Mof_C 	C 	0.9729	0.2558	0.4744	-0.135
Mof_H 	H 	0.0059	0.2784	0.4596	0.081
Mof_C 	C 	0.9733	0.199	0.4712	-0.015
Mof_C 	C 	0.0257	0.1713	0.4432	0.418
Mof_C 	C 	0.2862	0.1941	0.3059	0.437
Mof_C 	C 	0.3395	0.2296	0.2847	-0.038
Mof_C 	C 	0.3379	0.2864	0.288	-0.132
Mof_H 	H 	0.3032	0.3043	0.3048	0.049
Mof_C 	C 	0.3892	0.3161	0.2657	0.226
Mof_C 	C 	0.4386	0.2889	0.2416	-0.138
Mof_H 	H 	0.4728	0.3086	0.2256	0.059
Mof_C 	C 	0.4363	0.2322	0.2416	-0.015
Mof_C 	C 	0.4913	0.2	0.218	0.446
Mof_W 	W 	0.06758	0.1355	0.56698	1.517
Mof_W 	W 	0.17805	0.24659	0.52733	1.195
Mof_W 	W 	0.27972	0.13533	0.57209	1.189
Mof_W 	W 	0.06222	0.12074	0.65967	1.117
Mof_W 	W 	0.96315	0.22469	0.61911	1.193
Mof_W 	W 	0.0687	0.33651	0.57677	1.192
Mof_W 	W 	0.2683	0.34072	0.58133	1.561
Mof_W 	W 	0.37443	0.23004	0.62422	1.559
Mof_W 	W 	0.27397	0.12584	0.66492	1.165
Mof_W 	W 	0.15699	0.21997	0.7184	1.167
Mof_W 	W 	0.06259	0.32429	0.67515	1.581
Mof_W 	W 	0.26119	0.32324	0.67962	1.612
Mof_O 	O 	0.0288	0.0907	0.5356	-0.644
Mof_O 	O 	0.3282	0.3921	0.5657	-0.682
Mof_O 	O 	0.4731	0.2401	0.6273	-0.597
Mof_O 	O 	0.0006	0.3707	0.6965	-0.718
Mof_O 	O 	0.3155	0.3702	0.7041	-0.691
Mof_O 	O 	0.0983	0.195	0.538	-0.502
Mof_O 	O 	0.1731	0.113	0.5689	-0.523
Mof_O 	O 	0.0495	0.0915	0.6109	-0.521
Mof_O 	O 	0.9708	0.1737	0.5793	-0.495
Mof_O 	O 	0.0968	0.3036	0.5316	-0.467
Mof_O 	O 	0.2522	0.3055	0.5343	-0.5
Mof_O 	O 	0.2527	0.1946	0.5405	-0.469
Mof_O 	O 	0.3714	0.1768	0.5857	-0.498
Mof_O 	O 	0.2912	0.0941	0.6159	-0.484
Mof_O 	O 	0.9664	0.1628	0.6517	-0.465
Mof_O 	O 	0.0851	0.1693	0.6986	-0.478
Mof_O 	O 	0.1679	0.1009	0.6589	-0.486
Mof_O 	O 	0.992	0.2709	0.6581	-0.511
Mof_O 	O 	0.9956	0.2817	0.5865	-0.476
Mof_O 	O 	0.1692	0.3758	0.575	-0.506
Mof_O 	O 	0.0705	0.3529	0.6283	-0.503
Mof_O 	O 	0.3425	0.2846	0.5917	-0.543
Mof_O 	O 	0.2625	0.3548	0.6322	-0.541
Mof_O 	O 	0.3661	0.1683	0.6585	-0.495
Mof_O 	O 	0.3377	0.2729	0.664	-0.544
Mof_O 	O 	0.2388	0.1715	0.7026	-0.467
Mof_O 	O 	0.081	0.2778	0.7178	-0.509
Mof_O 	O 	0.2362	0.2776	0.7208	-0.511
Mof_O 	O 	0.1611	0.3587	0.6872	-0.539
Mof_B 	B 	0.1694	0.2299	0.6222	3.231
Mof_O 	O 	0.0971	0.1926	0.6185	-0.758
Mof_O 	O 	0.1701	0.272	0.5906	-0.758
Mof_O 	O 	0.2441	0.1943	0.6215	-0.76
Mof_O 	O 	0.1652	0.2623	0.6587	-0.781
Mof_O 	O 	0.3131	0.1431	0.3107	-0.347
Mof_O 	O 	0.3571	0.0144	0.2161	-1.66
Mof_H 	H 	0.3586	0.9834	0.2282	0.521
Mof_H 	H 	0.3102	0.0193	0.2071	0.562
Mof_O 	O 	0.2821	0.0269	0.2539	-0.999
Mof_H 	H 	0.2911	0.999	0.2684	0.305
Mof_H 	H 	0.238	0.0426	0.2602	0.322
Mof_O 	O 	0.383	0.0301	0.3135	0.549
Mof_H 	H 	0.3351	0.0175	0.3153	-0.293
Mof_H 	H 	0.4152	0.0029	0.3098	-0.63
Mof_O 	O 	0.095	0.2648	0.6235	-0.689
Mof_O 	O 	0.174	0.1991	0.5852	-0.682
Mof_O 	O 	0.243	0.2684	0.6262	-0.694
Mof_O 	O 	0.17	0.1885	0.6543	-0.666
Mof_Ce	Ce	0.43198	0.43926	0.52082	2.451
Mof_Ce	Ce	0.60937	0.29895	0.64065	1.982
Mof_Ce	Ce	0.8917	0.40425	0.73973	3.544
Mof_O 	O 	0.3401	0.404	0.4733	-0.52
Mof_O 	O 	0.2795	0.3374	0.4422	-0.323
Mof_O 	O 	0.522	0.3814	0.5577	-0.595
Mof_O 	O 	0.567	0.3007	0.5777	-0.597
Mof_O 	O 	0.4189	0.166	0.4954	-0.431
Mof_H 	H 	0.3943	0.1581	0.476	0.191
Mof_O 	O 	0.4446	0.5112	0.4749	-0.694
Mof_O 	O 	0.7344	0.286	0.6734	-0.595
Mof_O 	O 	0.7819	0.3569	0.7049	-0.307
Mof_O 	O 	0.9885	0.3534	0.778	-0.661
Mof_O 	O 	0.0354	0.2769	0.804	-0.569
Mof_O 	O 	0.8917	0.1275	0.7311	-0.436
Mof_H 	H 	0.935	0.1158	0.7391	0.188
Mof_O 	O 	0.9129	0.4538	0.8032	-1.014
Mof_H 	H 	0.9622	0.4628	0.8055	0.266
Mof_H 	H 	0.884	0.4835	0.804	0.982
Mof_O 	O 	0.7492	0.4311	0.7327	-0.985
Mof_H 	H 	0.74	0.4603	0.7461	0.474
Mof_H 	H 	0.7395	0.4385	0.7097	0.299
Mof_O 	O 	0.8844	0.4485	0.6774	-1.651
Mof_H 	H 	0.8372	0.4444	0.6685	0.58
Mof_H 	H 	0.8948	0.4835	0.6796	0.746
Mof_N 	N 	0.4295	0.3348	0.5095	-0.25
Mof_N 	N 	0.8895	0.2972	0.7372	-0.282
Mof_C 	C 	0.3287	0.3535	0.4645	0.348
Mof_C 	C 	0.3794	0.3122	0.4853	0.029
Mof_C 	C 	0.3732	0.256	0.4791	-0.167
Mof_H 	H 	0.3373	0.2418	0.4614	0.047
Mof_C 	C 	0.4212	0.2211	0.4995	0.253
Mof_C 	C 	0.4729	0.2442	0.5256	-0.135
Mof_H 	H 	0.5059	0.2216	0.5404	0.081
Mof_C 	C 	0.4733	0.301	0.5288	-0.015
Mof_C 	C 	0.5257	0.3287	0.5568	0.418
Mof_C 	C 	0.7862	0.3059	0.6941	0.437
Mof_C 	C 	0.8395	0.2704	0.7153	-0.038
Mof_C 	C 	0.8379	0.2136	0.712	-0.132
Mof_H 	H 	0.8032	0.1957	0.6952	0.049
Mof_C 	C 	0.8892	0.1839	0.7343	0.226
Mof_C 	C 	0.9386	0.2111	0.7584	-0.138
Mof_H 	H 	0.9728	0.1914	0.7744	0.058
Mof_C 	C 	0.9363	0.2678	0.7584	-0.015
Mof_C 	C 	0.9913	0.3	0.782	0.445
Mof_W 	W 	0.56758	0.3645	0.43302	1.517
Mof_W 	W 	0.67805	0.25341	0.47267	1.195
Mof_W 	W 	0.77972	0.36467	0.42791	1.189
Mof_W 	W 	0.56222	0.37926	0.34033	1.117
Mof_W 	W 	0.46315	0.27531	0.38089	1.193
Mof_W 	W 	0.5687	0.16349	0.42323	1.192
Mof_W 	W 	0.7683	0.15928	0.41867	1.56
Mof_W 	W 	0.87443	0.26996	0.37578	1.559
Mof_W 	W 	0.77397	0.37416	0.33508	1.165
Mof_W 	W 	0.65699	0.28003	0.2816	1.166
Mof_W 	W 	0.56259	0.17571	0.32485	1.581
Mof_W 	W 	0.76119	0.17676	0.32038	1.612
Mof_O 	O 	0.5288	0.4093	0.4644	-0.645
Mof_O 	O 	0.8282	0.1079	0.4343	-0.681
Mof_O 	O 	0.9731	0.2599	0.3727	-0.597
Mof_O 	O 	0.5006	0.1293	0.3035	-0.718
Mof_O 	O 	0.8155	0.1298	0.2959	-0.691
Mof_O 	O 	0.5983	0.305	0.462	-0.502
Mof_O 	O 	0.6731	0.387	0.4311	-0.523
Mof_O 	O 	0.5495	0.4085	0.3891	-0.521
Mof_O 	O 	0.4708	0.3263	0.4207	-0.495
Mof_O 	O 	0.5968	0.1964	0.4684	-0.467
Mof_O 	O 	0.7522	0.1945	0.4657	-0.5
Mof_O 	O 	0.7527	0.3054	0.4595	-0.469
Mof_O 	O 	0.8714	0.3232	0.4143	-0.498
Mof_O 	O 	0.7912	0.4059	0.3841	-0.484
Mof_O 	O 	0.4664	0.3372	0.3483	-0.464
Mof_O 	O 	0.5851	0.3307	0.3014	-0.478
Mof_O 	O 	0.6679	0.3991	0.3411	-0.486
Mof_O 	O 	0.492	0.2291	0.3419	-0.51
Mof_O 	O 	0.4956	0.2183	0.4135	-0.475
Mof_O 	O 	0.6692	0.1242	0.425	-0.506
Mof_O 	O 	0.5705	0.1471	0.3717	-0.502
Mof_O 	O 	0.8425	0.2154	0.4083	-0.543
Mof_O 	O 	0.7625	0.1452	0.3678	-0.541
Mof_O 	O 	0.8661	0.3317	0.3415	-0.495
Mof_O 	O 	0.8377	0.2271	0.336	-0.544
Mof_O 	O 	0.7388	0.3285	0.2974	-0.467
Mof_O 	O 	0.581	0.2222	0.2822	-0.509
Mof_O 	O 	0.7362	0.2224	0.2792	-0.511
Mof_O 	O 	0.6611	0.1413	0.3128	-0.539
Mof_B 	B 	0.6694	0.2701	0.3778	3.231
Mof_O 	O 	0.5971	0.3074	0.3815	-0.758
Mof_O 	O 	0.6701	0.228	0.4094	-0.758
Mof_O 	O 	0.7441	0.3057	0.3785	-0.76
Mof_O 	O 	0.6652	0.2377	0.3413	-0.781
Mof_O 	O 	0.8131	0.3569	0.6893	-0.347
Mof_O 	O 	0.8571	0.4856	0.7839	-1.66
Mof_H 	H 	0.8586	0.5166	0.7718	0.522
Mof_H 	H 	0.8102	0.4807	0.7929	0.562
Mof_O 	O 	0.7821	0.4731	0.7461	-1
Mof_H 	H 	0.7911	0.501	0.7316	0.305
Mof_H 	H 	0.738	0.4574	0.7398	0.322
Mof_O 	O 	0.883	0.4699	0.6865	0.549
Mof_H 	H 	0.8351	0.4825	0.6847	-0.293
Mof_H 	H 	0.9152	0.4971	0.6902	-0.63
Mof_O 	O 	0.595	0.2352	0.3765	-0.689
Mof_O 	O 	0.674	0.3009	0.4148	-0.682
Mof_O 	O 	0.743	0.2316	0.3738	-0.694
Mof_O 	O 	0.67	0.3115	0.3457	-0.666
Mof_Ce	Ce	0.06802	0.56074	0.02082	2.448
Mof_Ce	Ce	0.89063	0.70105	0.14065	1.983
Mof_Ce	Ce	0.6083	0.59575	0.23973	3.544
Mof_O 	O 	0.1599	0.596	0.9733	-0.519
Mof_O 	O 	0.2205	0.6626	0.9422	-0.323
Mof_O 	O 	0.978	0.6186	0.0577	-0.595
Mof_O 	O 	0.933	0.6993	0.0777	-0.597
Mof_O 	O 	0.0811	0.834	0.9954	-0.432
Mof_H 	H 	0.1057	0.8419	0.976	0.191
Mof_O 	O 	0.0554	0.4888	0.9749	-0.693
Mof_O 	O 	0.7656	0.714	0.1734	-0.595
Mof_O 	O 	0.7181	0.6431	0.2049	-0.307
Mof_O 	O 	0.5115	0.6466	0.278	-0.661
Mof_O 	O 	0.4646	0.7231	0.304	-0.57
Mof_O 	O 	0.6083	0.8725	0.2311	-0.436
Mof_H 	H 	0.565	0.8842	0.2391	0.188
Mof_O 	O 	0.5871	0.5462	0.3032	-1.014
Mof_H 	H 	0.5378	0.5372	0.3055	0.266
Mof_H 	H 	0.616	0.5165	0.304	0.982
Mof_O 	O 	0.7508	0.5689	0.2327	-0.985
Mof_H 	H 	0.76	0.5397	0.2461	0.474
Mof_H 	H 	0.7605	0.5615	0.2097	0.3
Mof_O 	O 	0.6156	0.5515	0.1774	-1.651
Mof_H 	H 	0.6628	0.5556	0.1685	0.58
Mof_H 	H 	0.6052	0.5165	0.1796	0.746
Mof_N 	N 	0.0705	0.6652	0.0095	-0.251
Mof_N 	N 	0.6105	0.7028	0.2372	-0.282
Mof_C 	C 	0.1713	0.6465	0.9645	0.347
Mof_C 	C 	0.1206	0.6878	0.9853	0.03
Mof_C 	C 	0.1268	0.744	0.9791	-0.169
Mof_H 	H 	0.1627	0.7582	0.9614	0.047
Mof_C 	C 	0.0788	0.7789	0.9995	0.256
Mof_C 	C 	0.0271	0.7558	0.0256	-0.138
Mof_H 	H 	0.9941	0.7784	0.0404	0.083
Mof_C 	C 	0.0267	0.699	0.0288	-0.014
Mof_C 	C 	0.9743	0.6713	0.0568	0.418
Mof_C 	C 	0.7138	0.6941	0.1941	0.437
Mof_C 	C 	0.6605	0.7296	0.2153	-0.038
Mof_C 	C 	0.6621	0.7864	0.212	-0.132
Mof_H 	H 	0.6968	0.8043	0.1952	0.049
Mof_C 	C 	0.6108	0.8161	0.2343	0.226
Mof_C 	C 	0.5614	0.7889	0.2584	-0.138
Mof_H 	H 	0.5272	0.8086	0.2744	0.059
Mof_C 	C 	0.5637	0.7322	0.2584	-0.015
Mof_C 	C 	0.5087	0.7	0.282	0.446
Mof_W 	W 	0.93242	0.6355	0.93302	1.516
Mof_W 	W 	0.82195	0.74659	0.97267	1.195
Mof_W 	W 	0.72028	0.63533	0.92791	1.189
Mof_W 	W 	0.93778	0.62074	0.84033	1.116
Mof_W 	W 	0.03685	0.72469	0.88089	1.193
Mof_W 	W 	0.9313	0.83651	0.92323	1.192
Mof_W 	W 	0.7317	0.84072	0.91867	1.561
Mof_W 	W 	0.62557	0.73004	0.87578	1.559
Mof_W 	W 	0.72603	0.62584	0.83508	1.165
Mof_W 	W 	0.84301	0.71997	0.7816	1.166
Mof_W 	W 	0.93741	0.82429	0.82485	1.581
Mof_W 	W 	0.73881	0.82324	0.82038	1.612
Mof_O 	O 	0.9712	0.5907	0.9644	-0.645
Mof_O 	O 	0.6718	0.8921	0.9343	-0.682
Mof_O 	O 	0.5269	0.7401	0.8727	-0.597
Mof_O 	O 	0.9994	0.8707	0.8035	-0.719
Mof_O 	O 	0.6845	0.8702	0.7959	-0.691
Mof_O 	O 	0.9017	0.695	0.962	-0.502
Mof_O 	O 	0.8269	0.613	0.9311	-0.523
Mof_O 	O 	0.9505	0.5915	0.8891	-0.521
Mof_O 	O 	0.0292	0.6737	0.9207	-0.495
Mof_O 	O 	0.9032	0.8036	0.9684	-0.467
Mof_O 	O 	0.7478	0.8055	0.9657	-0.5
Mof_O 	O 	0.7473	0.6946	0.9595	-0.469
Mof_O 	O 	0.6286	0.6768	0.9143	-0.498
Mof_O 	O 	0.7088	0.5941	0.8841	-0.484
Mof_O 	O 	0.0336	0.6628	0.8483	-0.464
Mof_O 	O 	0.9149	0.6693	0.8014	-0.478
Mof_O 	O 	0.8321	0.6009	0.8411	-0.486
Mof_O 	O 	0.008	0.7709	0.8419	-0.51
Mof_O 	O 	0.0044	0.7817	0.9135	-0.475
Mof_O 	O 	0.8308	0.8758	0.925	-0.506
Mof_O 	O 	0.9295	0.8529	0.8717	-0.503
Mof_O 	O 	0.6575	0.7846	0.9083	-0.543
Mof_O 	O 	0.7375	0.8548	0.8678	-0.541
Mof_O 	O 	0.6339	0.6683	0.8415	-0.495
Mof_O 	O 	0.6623	0.7729	0.836	-0.544
Mof_O 	O 	0.7612	0.6715	0.7974	-0.467
Mof_O 	O 	0.919	0.7778	0.7822	-0.509
Mof_O 	O 	0.7638	0.7776	0.7792	-0.511
Mof_O 	O 	0.8389	0.8587	0.8128	-0.539
Mof_B 	B 	0.8306	0.7299	0.8778	3.231
Mof_O 	O 	0.9029	0.6926	0.8815	-0.758
Mof_O 	O 	0.8299	0.772	0.9094	-0.758
Mof_O 	O 	0.7559	0.6943	0.8785	-0.76
Mof_O 	O 	0.8348	0.7623	0.8413	-0.781
Mof_O 	O 	0.6869	0.6431	0.1893	-0.347
Mof_O 	O 	0.6429	0.5144	0.2839	-1.66
Mof_H 	H 	0.6414	0.4834	0.2718	0.522
Mof_H 	H 	0.6898	0.5193	0.2929	0.562
Mof_O 	O 	0.7179	0.5269	0.2461	-1
Mof_H 	H 	0.7089	0.499	0.2316	0.305
Mof_H 	H 	0.762	0.5426	0.2398	0.322
Mof_O 	O 	0.617	0.5301	0.1865	0.549
Mof_H 	H 	0.6649	0.5175	0.1847	-0.293
Mof_H 	H 	0.5848	0.5029	0.1902	-0.63
Mof_O 	O 	0.905	0.7648	0.8765	-0.689
Mof_O 	O 	0.826	0.6991	0.9148	-0.682
Mof_O 	O 	0.757	0.7684	0.8738	-0.694
Mof_O 	O 	0.83	0.6885	0.8457	-0.666
_end
