data_functionalizedCrystal
_audit_creation_method	'EQeq! by Chris Wilmer'
_symmetry_space_group_name_H-M	'P1'
_symmetry_Int_Tables_number	1
_symmetry_cell_setting	triclinic
loop_
_symmetry_equiv_pos_as_xyz
  x,y,z
_cell_length_a	22.0248
_cell_length_b	16.4933
_cell_length_c	25.6766
_cell_angle_alpha	90
_cell_angle_beta	115.385
_cell_angle_gamma	90
loop_
_atom_site_label
_atom_site_type_symbol
_atom_site_fract_x
_atom_site_fract_y
_atom_site_fract_z
_atom_site_charge
Mof_Ag	Ag	0.27396	0.70871	0.86825	0.522
Mof_Ag	Ag	0.79472	0.00057	0.3677	0.535
Mof_C 	C 	0.62799	0.0622	0.91131	-0.145
Mof_H 	H 	0.5853	0.0408	0.89	0.081
Mof_C 	C 	0.42269	0.4	0.39269	0.063
Mof_H 	H 	0.403	0.4043	0.3527	-0.026
Mof_C 	C 	0.65417	0.2191	0.50159	0.097
Mof_C 	C 	0.62828	0.0072	0.00273	0.097
Mof_C 	C 	0.48185	0.3869	0.50967	-0.136
Mof_H 	H 	0.5011	0.3839	0.5497	0.073
Mof_C 	C 	0.40318	0.8164	0.88927	0.081
Mof_H 	H 	0.3851	0.8105	0.8494	-0.01
Mof_C 	C 	0.74352	0.1332	0.49657	-0.137
Mof_H 	H 	0.7641	0.1327	0.5367	0.085
Mof_C 	C 	0.57522	0.301	0.50741	0.093
Mof_C 	C 	0.72338	0.0867	0.0001	-0.145
Mof_H 	H 	0.7459	0.0825	0.04	0.074
Mof_C 	C 	0.77208	0.0923	0.46552	0.088
Mof_H 	H 	0.8123	0.0648	0.4857	-0.013
Mof_C 	C 	0.62797	0.9767	0.08817	0.1
Mof_C 	C 	0.66035	0.0524	0.9706	0.06
Mof_C 	C 	0.46102	0.8612	0.91594	-0.132
Mof_H 	H 	0.4813	0.8842	0.8943	0.084
Mof_C 	C 	0.752	0.1269	0.96949	0.072
Mof_H 	H 	0.7944	0.1494	0.9897	-0.02
Mof_C 	C 	0.68396	0.175	0.46714	0.069
Mof_C 	C 	0.65826	0.9866	0.15177	0.058
Mof_C 	C 	0.45707	0.8341	0.00551	-0.133
Mof_H 	H 	0.4746	0.8381	0.0454	0.084
Mof_C 	C 	0.7798	0.1986	0.74071	0.079
Mof_H 	H 	0.8219	0.1746	0.7598	-0.015
Mof_C 	C 	0.7123	0.0384	0.17844	-0.133
Mof_H 	H 	0.7285	0.0689	0.1567	0.069
Mof_C 	C 	0.48227	0.3578	0.41911	-0.134
Mof_H 	H 	0.502	0.3348	0.397	0.077
Mof_C 	C 	0.69074	0.2427	0.65224	0.055
Mof_C 	C 	0.66105	0.1047	0.88475	0.075
Mof_H 	H 	0.6389	0.1121	0.8451	-0.021
Mof_C 	C 	0.54988	0.9227	0.00579	0.103
Mof_C 	C 	0.7534	0.2074	0.68172	-0.138
Mof_H 	H 	0.7775	0.1898	0.6617	0.082
Mof_C 	C 	0.6566	0.2681	0.68412	-0.143
Mof_H 	H 	0.6144	0.2921	0.6661	0.073
Mof_C 	C 	0.6868	0.2571	0.74319	0.075
Mof_H 	H 	0.6637	0.2742	0.7641	-0.025
Mof_C 	C 	0.7417	0.0439	0.23765	0.067
Mof_H 	H 	0.7775	0.0795	0.2551	-0.015
Mof_C 	C 	0.3989	0.7906	0.97492	0.087
Mof_H 	H 	0.3776	0.7666	0.9954	-0.013
Mof_C 	C 	0.51252	0.3499	0.47817	0.054
Mof_C 	C 	0.65874	0.2524	0.58861	0.095
Mof_C 	C 	0.6556	0.1746	0.40785	-0.14
Mof_H 	H 	0.6162	0.2031	0.3868	0.081
Mof_C 	C 	0.6335	0.9445	0.18542	-0.142
Mof_H 	H 	0.5957	0.9117	0.1688	0.084
Mof_C 	C 	0.4221	0.4283	0.47993	0.074
Mof_H 	H 	0.4019	0.4528	0.5011	-0.011
Mof_C 	C 	0.48923	0.872	0.97531	0.067
Mof_C 	C 	0.6672	0.9533	0.2444	0.086
Mof_H 	H 	0.6511	0.9242	0.2669	-0.021
Mof_C 	C 	0.6867	0.1311	0.3801	0.084
Mof_H 	H 	0.6665	0.1299	0.34	-0.007
Mof_N 	N 	0.37125	0.78079	0.91762	-0.192
Mof_N 	N 	0.72237	0.1356	0.91218	-0.215
Mof_N 	N 	0.7212	0.0002	0.2718	-0.199
Mof_N 	N 	0.57468	0.961	0.973	-0.138
Mof_N 	N 	0.65627	0.0185	0.05984	-0.142
Mof_N 	N 	0.57488	0.9275	0.06315	-0.137
Mof_N 	N 	0.74471	0.0902	0.40804	-0.189
Mof_N 	N 	0.74701	0.2233	0.77197	-0.199
Mof_N 	N 	0.39173	0.4352	0.42212	-0.208
Mof_N 	N 	0.59751	0.2602	0.47349	-0.14
Mof_N 	N 	0.68699	0.2126	0.55933	-0.136
Mof_N 	N 	0.60405	0.2993	0.56481	-0.149
Mof_Ag	Ag	0.77396	0.20871	0.86825	0.523
Mof_Ag	Ag	0.29472	0.50057	0.3677	0.535
Mof_C 	C 	0.12799	0.5622	0.91131	-0.146
Mof_H 	H 	0.0853	0.5408	0.89	0.083
Mof_C 	C 	0.92269	0.9	0.39269	0.064
Mof_H 	H 	0.903	0.9043	0.3527	-0.025
Mof_C 	C 	0.15417	0.7191	0.50159	0.098
Mof_C 	C 	0.12828	0.5072	0.00273	0.096
Mof_C 	C 	0.98185	0.8869	0.50967	-0.135
Mof_H 	H 	0.0011	0.8839	0.5497	0.074
Mof_C 	C 	0.90318	0.3164	0.88927	0.081
Mof_H 	H 	0.8851	0.3105	0.8494	-0.009
Mof_C 	C 	0.24352	0.6332	0.49657	-0.136
Mof_H 	H 	0.2641	0.6327	0.5367	0.086
Mof_C 	C 	0.07522	0.801	0.50741	0.094
Mof_C 	C 	0.22338	0.5867	0.0001	-0.149
Mof_H 	H 	0.2459	0.5825	0.04	0.076
Mof_C 	C 	0.27208	0.5923	0.46552	0.088
Mof_H 	H 	0.3123	0.5648	0.4857	-0.013
Mof_C 	C 	0.12797	0.4767	0.08817	0.1
Mof_C 	C 	0.16035	0.5524	0.9706	0.064
Mof_C 	C 	0.96102	0.3612	0.91594	-0.131
Mof_H 	H 	0.9813	0.3842	0.8943	0.083
Mof_C 	C 	0.252	0.6269	0.96949	0.075
Mof_H 	H 	0.2944	0.6494	0.9897	-0.021
Mof_C 	C 	0.18396	0.675	0.46714	0.069
Mof_C 	C 	0.15826	0.4866	0.15177	0.059
Mof_C 	C 	0.95707	0.3341	0.00551	-0.129
Mof_H 	H 	0.9746	0.3381	0.0454	0.083
Mof_C 	C 	0.2798	0.6986	0.74071	0.079
Mof_H 	H 	0.3219	0.6746	0.7598	-0.015
Mof_C 	C 	0.2123	0.5384	0.17844	-0.133
Mof_H 	H 	0.2285	0.5689	0.1567	0.069
Mof_C 	C 	0.98227	0.8578	0.41911	-0.133
Mof_H 	H 	0.002	0.8348	0.397	0.077
Mof_C 	C 	0.19074	0.7427	0.65224	0.055
Mof_C 	C 	0.16105	0.6047	0.88475	0.076
Mof_H 	H 	0.1389	0.6121	0.8451	-0.022
Mof_C 	C 	0.04988	0.4227	0.00579	0.103
Mof_C 	C 	0.2534	0.7074	0.68172	-0.138
Mof_H 	H 	0.2775	0.6898	0.6617	0.082
Mof_C 	C 	0.1566	0.7681	0.68412	-0.143
Mof_H 	H 	0.1144	0.7921	0.6661	0.073
Mof_C 	C 	0.1868	0.7571	0.74319	0.075
Mof_H 	H 	0.1637	0.7742	0.7641	-0.025
Mof_C 	C 	0.2417	0.5439	0.23765	0.067
Mof_H 	H 	0.2775	0.5795	0.2551	-0.015
Mof_C 	C 	0.8989	0.2906	0.97492	0.085
Mof_H 	H 	0.8776	0.2666	0.9954	-0.012
Mof_C 	C 	0.01252	0.8499	0.47817	0.054
Mof_C 	C 	0.15874	0.7524	0.58861	0.095
Mof_C 	C 	0.1556	0.6746	0.40785	-0.14
Mof_H 	H 	0.1162	0.7031	0.3868	0.081
Mof_C 	C 	0.1335	0.4445	0.18542	-0.142
Mof_H 	H 	0.0957	0.4117	0.1688	0.084
Mof_C 	C 	0.9221	0.9283	0.47993	0.074
Mof_H 	H 	0.9019	0.9528	0.5011	-0.011
Mof_C 	C 	0.98923	0.372	0.97531	0.065
Mof_C 	C 	0.1672	0.4533	0.2444	0.086
Mof_H 	H 	0.1511	0.4242	0.2669	-0.021
Mof_C 	C 	0.1867	0.6311	0.3801	0.084
Mof_H 	H 	0.1665	0.6299	0.34	-0.007
Mof_N 	N 	0.87125	0.28079	0.91762	-0.192
Mof_N 	N 	0.22237	0.6356	0.91218	-0.215
Mof_N 	N 	0.2212	0.5002	0.2718	-0.199
Mof_N 	N 	0.07468	0.461	0.973	-0.137
Mof_N 	N 	0.15627	0.5185	0.05984	-0.142
Mof_N 	N 	0.07488	0.4275	0.06315	-0.137
Mof_N 	N 	0.24471	0.5902	0.40804	-0.189
Mof_N 	N 	0.24701	0.7233	0.77197	-0.199
Mof_N 	N 	0.89173	0.9352	0.42212	-0.208
Mof_N 	N 	0.09751	0.7602	0.47349	-0.14
Mof_N 	N 	0.18699	0.7126	0.55933	-0.136
Mof_N 	N 	0.10405	0.7993	0.56481	-0.149
Mof_Ag	Ag	0.72604	0.70871	0.63175	0.523
Mof_Ag	Ag	0.20528	0.00057	0.1323	0.536
Mof_C 	C 	0.37201	0.0622	0.58869	-0.145
Mof_H 	H 	0.4147	0.0408	0.61	0.082
Mof_C 	C 	0.57731	0.4	0.10731	0.064
Mof_H 	H 	0.597	0.4043	0.1473	-0.025
Mof_C 	C 	0.34583	0.2191	0.99841	0.098
Mof_C 	C 	0.37172	0.0072	0.49727	0.098
Mof_C 	C 	0.51815	0.3869	0.99033	-0.136
Mof_H 	H 	0.4989	0.3839	0.9503	0.074
Mof_C 	C 	0.59682	0.8164	0.61073	0.082
Mof_H 	H 	0.6149	0.8105	0.6506	-0.009
Mof_C 	C 	0.25648	0.1332	0.00343	-0.137
Mof_H 	H 	0.2359	0.1327	0.9633	0.087
Mof_C 	C 	0.42478	0.301	0.99259	0.094
Mof_C 	C 	0.27662	0.0867	0.4999	-0.146
Mof_H 	H 	0.2541	0.0825	0.46	0.075
Mof_C 	C 	0.22792	0.0923	0.03448	0.089
Mof_H 	H 	0.1877	0.0648	0.0143	-0.013
Mof_C 	C 	0.37203	0.9767	0.41183	0.1
Mof_C 	C 	0.33965	0.0524	0.5294	0.062
Mof_C 	C 	0.53898	0.8612	0.58406	-0.132
Mof_H 	H 	0.5187	0.8842	0.6057	0.083
Mof_C 	C 	0.248	0.1269	0.53051	0.073
Mof_H 	H 	0.2056	0.1494	0.5103	-0.02
Mof_C 	C 	0.31604	0.175	0.03286	0.069
Mof_C 	C 	0.34174	0.9866	0.34823	0.059
Mof_C 	C 	0.54293	0.8341	0.49449	-0.131
Mof_H 	H 	0.5254	0.8381	0.4546	0.084
Mof_C 	C 	0.2202	0.1986	0.75929	0.079
Mof_H 	H 	0.1781	0.1746	0.7402	-0.015
Mof_C 	C 	0.2877	0.0384	0.32156	-0.133
Mof_H 	H 	0.2715	0.0689	0.3433	0.069
Mof_C 	C 	0.51773	0.3578	0.08089	-0.134
Mof_H 	H 	0.498	0.3348	0.103	0.077
Mof_C 	C 	0.30926	0.2427	0.84776	0.055
Mof_C 	C 	0.33895	0.1047	0.61525	0.076
Mof_H 	H 	0.3611	0.1121	0.6549	-0.021
Mof_C 	C 	0.45012	0.9227	0.49421	0.103
Mof_C 	C 	0.2466	0.2074	0.81828	-0.138
Mof_H 	H 	0.2225	0.1898	0.8383	0.082
Mof_C 	C 	0.3434	0.2681	0.81588	-0.143
Mof_H 	H 	0.3856	0.2921	0.8339	0.073
Mof_C 	C 	0.3132	0.2571	0.75681	0.075
Mof_H 	H 	0.3363	0.2742	0.7359	-0.025
Mof_C 	C 	0.2583	0.0439	0.26235	0.067
Mof_H 	H 	0.2225	0.0795	0.2449	-0.015
Mof_C 	C 	0.6011	0.7906	0.52508	0.086
Mof_H 	H 	0.6224	0.7666	0.5046	-0.012
Mof_C 	C 	0.48748	0.3499	0.02183	0.055
Mof_C 	C 	0.34126	0.2524	0.91139	0.095
Mof_C 	C 	0.3444	0.1746	0.09215	-0.14
Mof_H 	H 	0.3838	0.2031	0.1132	0.081
Mof_C 	C 	0.3665	0.9445	0.31458	-0.142
Mof_H 	H 	0.4043	0.9117	0.3312	0.084
Mof_C 	C 	0.5779	0.4283	0.02007	0.075
Mof_H 	H 	0.5981	0.4528	0.9989	-0.012
Mof_C 	C 	0.51077	0.872	0.52469	0.066
Mof_C 	C 	0.3328	0.9533	0.2556	0.086
Mof_H 	H 	0.3489	0.9242	0.2331	-0.021
Mof_C 	C 	0.3133	0.1311	0.1199	0.084
Mof_H 	H 	0.3335	0.1299	0.16	-0.007
Mof_N 	N 	0.62875	0.78079	0.58238	-0.192
Mof_N 	N 	0.27763	0.1356	0.58782	-0.215
Mof_N 	N 	0.2788	0.0002	0.2282	-0.199
Mof_N 	N 	0.42532	0.961	0.527	-0.138
Mof_N 	N 	0.34373	0.0185	0.44016	-0.142
Mof_N 	N 	0.42512	0.9275	0.43685	-0.137
Mof_N 	N 	0.25529	0.0902	0.09196	-0.189
Mof_N 	N 	0.25299	0.2233	0.72803	-0.199
Mof_N 	N 	0.60827	0.4352	0.07788	-0.208
Mof_N 	N 	0.40249	0.2602	0.02651	-0.14
Mof_N 	N 	0.31301	0.2126	0.94067	-0.136
Mof_N 	N 	0.39595	0.2993	0.93519	-0.149
Mof_Ag	Ag	0.22604	0.20871	0.63175	0.523
Mof_Ag	Ag	0.70528	0.50057	0.1323	0.535
Mof_C 	C 	0.87201	0.5622	0.58869	-0.145
Mof_H 	H 	0.9147	0.5408	0.61	0.082
Mof_C 	C 	0.07731	0.9	0.10731	0.065
Mof_H 	H 	0.097	0.9043	0.1473	-0.025
Mof_C 	C 	0.84583	0.7191	0.99841	0.097
Mof_C 	C 	0.87172	0.5072	0.49727	0.098
Mof_C 	C 	0.01815	0.8869	0.99033	-0.132
Mof_H 	H 	0.9989	0.8839	0.9503	0.073
Mof_C 	C 	0.09682	0.3164	0.61073	0.082
Mof_H 	H 	0.1149	0.3105	0.6506	-0.009
Mof_C 	C 	0.75648	0.6332	0.00343	-0.136
Mof_H 	H 	0.7359	0.6327	0.9633	0.086
Mof_C 	C 	0.92478	0.801	0.99259	0.093
Mof_C 	C 	0.77662	0.5867	0.4999	-0.146
Mof_H 	H 	0.7541	0.5825	0.46	0.075
Mof_C 	C 	0.72792	0.5923	0.03448	0.088
Mof_H 	H 	0.6877	0.5648	0.0143	-0.013
Mof_C 	C 	0.87203	0.4767	0.41183	0.1
Mof_C 	C 	0.83965	0.5524	0.5294	0.062
Mof_C 	C 	0.03898	0.3612	0.58406	-0.132
Mof_H 	H 	0.0187	0.3842	0.6057	0.083
Mof_C 	C 	0.748	0.6269	0.53051	0.073
Mof_H 	H 	0.7056	0.6494	0.5103	-0.02
Mof_C 	C 	0.81604	0.675	0.03286	0.069
Mof_C 	C 	0.84174	0.4866	0.34823	0.059
Mof_C 	C 	0.04293	0.3341	0.49449	-0.131
Mof_H 	H 	0.0254	0.3381	0.4546	0.084
Mof_C 	C 	0.7202	0.6986	0.75929	0.079
Mof_H 	H 	0.6781	0.6746	0.7402	-0.015
Mof_C 	C 	0.7877	0.5384	0.32156	-0.133
Mof_H 	H 	0.7715	0.5689	0.3433	0.069
Mof_C 	C 	0.01773	0.8578	0.08089	-0.136
Mof_H 	H 	0.998	0.8348	0.103	0.078
Mof_C 	C 	0.80926	0.7427	0.84776	0.055
Mof_C 	C 	0.83895	0.6047	0.61525	0.075
Mof_H 	H 	0.8611	0.6121	0.6549	-0.021
Mof_C 	C 	0.95012	0.4227	0.49421	0.103
Mof_C 	C 	0.7466	0.7074	0.81828	-0.138
Mof_H 	H 	0.7225	0.6898	0.8383	0.082
Mof_C 	C 	0.8434	0.7681	0.81588	-0.143
Mof_H 	H 	0.8856	0.7921	0.8339	0.073
Mof_C 	C 	0.8132	0.7571	0.75681	0.075
Mof_H 	H 	0.8363	0.7742	0.7359	-0.025
Mof_C 	C 	0.7583	0.5439	0.26235	0.067
Mof_H 	H 	0.7225	0.5795	0.2449	-0.015
Mof_C 	C 	0.1011	0.2906	0.52508	0.086
Mof_H 	H 	0.1224	0.2666	0.5046	-0.012
Mof_C 	C 	0.98748	0.8499	0.02183	0.055
Mof_C 	C 	0.84126	0.7524	0.91139	0.095
Mof_C 	C 	0.8444	0.6746	0.09215	-0.14
Mof_H 	H 	0.8838	0.7031	0.1132	0.081
Mof_C 	C 	0.8665	0.4445	0.31458	-0.142
Mof_H 	H 	0.9043	0.4117	0.3312	0.084
Mof_C 	C 	0.0779	0.9283	0.02007	0.071
Mof_H 	H 	0.0981	0.9528	0.9989	-0.009
Mof_C 	C 	0.01077	0.372	0.52469	0.066
Mof_C 	C 	0.8328	0.4533	0.2556	0.086
Mof_H 	H 	0.8489	0.4242	0.2331	-0.021
Mof_C 	C 	0.8133	0.6311	0.1199	0.084
Mof_H 	H 	0.8335	0.6299	0.16	-0.007
Mof_N 	N 	0.12875	0.28079	0.58238	-0.192
Mof_N 	N 	0.77763	0.6356	0.58782	-0.215
Mof_N 	N 	0.7788	0.5002	0.2282	-0.199
Mof_N 	N 	0.92532	0.461	0.527	-0.138
Mof_N 	N 	0.84373	0.5185	0.44016	-0.142
Mof_N 	N 	0.92512	0.4275	0.43685	-0.137
Mof_N 	N 	0.75529	0.5902	0.09196	-0.189
Mof_N 	N 	0.75299	0.7233	0.72803	-0.199
Mof_N 	N 	0.10827	0.9352	0.07788	-0.207
Mof_N 	N 	0.90249	0.7602	0.02651	-0.139
Mof_N 	N 	0.81301	0.7126	0.94067	-0.136
Mof_N 	N 	0.89595	0.7993	0.93519	-0.149
Mof_Ag	Ag	0.72604	0.29129	0.13175	0.523
Mof_Ag	Ag	0.20528	0.99943	0.6323	0.536
Mof_C 	C 	0.37201	0.9378	0.08869	-0.144
Mof_H 	H 	0.4147	0.9592	0.11	0.082
Mof_C 	C 	0.57731	0.6	0.60731	0.064
Mof_H 	H 	0.597	0.5957	0.6473	-0.025
Mof_C 	C 	0.34583	0.7809	0.49841	0.098
Mof_C 	C 	0.37172	0.9928	0.99727	0.098
Mof_C 	C 	0.51815	0.6131	0.49033	-0.135
Mof_H 	H 	0.4989	0.6161	0.4503	0.074
Mof_C 	C 	0.59682	0.1836	0.11073	0.082
Mof_H 	H 	0.6149	0.1895	0.1506	-0.009
Mof_C 	C 	0.25648	0.8668	0.50343	-0.136
Mof_H 	H 	0.2359	0.8673	0.4633	0.086
Mof_C 	C 	0.42478	0.699	0.49259	0.094
Mof_C 	C 	0.27662	0.9133	0.9999	-0.144
Mof_H 	H 	0.2541	0.9175	0.96	0.074
Mof_C 	C 	0.22792	0.9077	0.53448	0.088
Mof_H 	H 	0.1877	0.9352	0.5143	-0.013
Mof_C 	C 	0.37203	0.0233	0.91183	0.1
Mof_C 	C 	0.33965	0.9476	0.0294	0.06
Mof_C 	C 	0.53898	0.1388	0.08406	-0.132
Mof_H 	H 	0.5187	0.1158	0.1057	0.084
Mof_C 	C 	0.248	0.8731	0.03051	0.072
Mof_H 	H 	0.2056	0.8506	0.0103	-0.02
Mof_C 	C 	0.31604	0.825	0.53286	0.069
Mof_C 	C 	0.34174	0.0134	0.84823	0.058
Mof_C 	C 	0.54293	0.1659	0.99449	-0.133
Mof_H 	H 	0.5254	0.1619	0.9546	0.084
Mof_C 	C 	0.2202	0.8014	0.25929	0.079
Mof_H 	H 	0.1781	0.8254	0.2402	-0.015
Mof_C 	C 	0.2877	0.9616	0.82156	-0.133
Mof_H 	H 	0.2715	0.9311	0.8433	0.069
Mof_C 	C 	0.51773	0.6422	0.58089	-0.134
Mof_H 	H 	0.498	0.6652	0.603	0.077
Mof_C 	C 	0.30926	0.7573	0.34776	0.055
Mof_C 	C 	0.33895	0.8953	0.11525	0.075
Mof_H 	H 	0.3611	0.8879	0.1549	-0.021
Mof_C 	C 	0.45012	0.0773	0.99421	0.103
Mof_C 	C 	0.2466	0.7926	0.31828	-0.138
Mof_H 	H 	0.2225	0.8102	0.3383	0.082
Mof_C 	C 	0.3434	0.7319	0.31588	-0.143
Mof_H 	H 	0.3856	0.7079	0.3339	0.073
Mof_C 	C 	0.3132	0.7429	0.25681	0.075
Mof_H 	H 	0.3363	0.7258	0.2359	-0.025
Mof_C 	C 	0.2583	0.9561	0.76235	0.067
Mof_H 	H 	0.2225	0.9205	0.7449	-0.015
Mof_C 	C 	0.6011	0.2094	0.02508	0.087
Mof_H 	H 	0.6224	0.2334	0.0046	-0.013
Mof_C 	C 	0.48748	0.6501	0.52183	0.054
Mof_C 	C 	0.34126	0.7476	0.41139	0.095
Mof_C 	C 	0.3444	0.8254	0.59215	-0.14
Mof_H 	H 	0.3838	0.7969	0.6132	0.081
Mof_C 	C 	0.3665	0.0555	0.81458	-0.142
Mof_H 	H 	0.4043	0.0883	0.8312	0.084
Mof_C 	C 	0.5779	0.5717	0.52007	0.074
Mof_H 	H 	0.5981	0.5472	0.4989	-0.011
Mof_C 	C 	0.51077	0.128	0.02469	0.067
Mof_C 	C 	0.3328	0.0467	0.7556	0.086
Mof_H 	H 	0.3489	0.0758	0.7331	-0.021
Mof_C 	C 	0.3133	0.8689	0.6199	0.084
Mof_H 	H 	0.3335	0.8701	0.66	-0.007
Mof_N 	N 	0.62875	0.21921	0.08238	-0.192
Mof_N 	N 	0.27763	0.8644	0.08782	-0.215
Mof_N 	N 	0.2788	0.9998	0.7282	-0.199
Mof_N 	N 	0.42532	0.039	0.027	-0.138
Mof_N 	N 	0.34373	0.9815	0.94016	-0.142
Mof_N 	N 	0.42512	0.0725	0.93685	-0.137
Mof_N 	N 	0.25529	0.9098	0.59196	-0.189
Mof_N 	N 	0.25299	0.7767	0.22803	-0.199
Mof_N 	N 	0.60827	0.5648	0.57788	-0.208
Mof_N 	N 	0.40249	0.7398	0.52651	-0.14
Mof_N 	N 	0.31301	0.7874	0.44067	-0.136
Mof_N 	N 	0.39595	0.7007	0.43519	-0.149
Mof_Ag	Ag	0.22604	0.79129	0.13175	0.523
Mof_Ag	Ag	0.70528	0.49943	0.6323	0.535
Mof_C 	C 	0.87201	0.4378	0.08869	-0.146
Mof_H 	H 	0.9147	0.4592	0.11	0.083
Mof_C 	C 	0.07731	0.1	0.60731	0.064
Mof_H 	H 	0.097	0.0957	0.6473	-0.025
Mof_C 	C 	0.84583	0.2809	0.49841	0.098
Mof_C 	C 	0.87172	0.4928	0.99727	0.096
Mof_C 	C 	0.01815	0.1131	0.49033	-0.135
Mof_H 	H 	0.9989	0.1161	0.4503	0.074
Mof_C 	C 	0.09682	0.6836	0.11073	0.081
Mof_H 	H 	0.1149	0.6895	0.1506	-0.009
Mof_C 	C 	0.75648	0.3668	0.50343	-0.136
Mof_H 	H 	0.7359	0.3673	0.4633	0.086
Mof_C 	C 	0.92478	0.199	0.49259	0.094
Mof_C 	C 	0.77662	0.4133	0.9999	-0.149
Mof_H 	H 	0.7541	0.4175	0.96	0.076
Mof_C 	C 	0.72792	0.4077	0.53448	0.088
Mof_H 	H 	0.6877	0.4352	0.5143	-0.013
Mof_C 	C 	0.87203	0.5233	0.91183	0.1
Mof_C 	C 	0.83965	0.4476	0.0294	0.064
Mof_C 	C 	0.03898	0.6388	0.08406	-0.131
Mof_H 	H 	0.0187	0.6158	0.1057	0.083
Mof_C 	C 	0.748	0.3731	0.03051	0.075
Mof_H 	H 	0.7056	0.3506	0.0103	-0.021
Mof_C 	C 	0.81604	0.325	0.53286	0.069
Mof_C 	C 	0.84174	0.5134	0.84823	0.059
Mof_C 	C 	0.04293	0.6659	0.99449	-0.129
Mof_H 	H 	0.0254	0.6619	0.9546	0.083
Mof_C 	C 	0.7202	0.3014	0.25929	0.079
Mof_H 	H 	0.6781	0.3254	0.2402	-0.015
Mof_C 	C 	0.7877	0.4616	0.82156	-0.133
Mof_H 	H 	0.7715	0.4311	0.8433	0.069
Mof_C 	C 	0.01773	0.1422	0.58089	-0.133
Mof_H 	H 	0.998	0.1652	0.603	0.077
Mof_C 	C 	0.80926	0.2573	0.34776	0.055
Mof_C 	C 	0.83895	0.3953	0.11525	0.076
Mof_H 	H 	0.8611	0.3879	0.1549	-0.022
Mof_C 	C 	0.95012	0.5773	0.99421	0.103
Mof_C 	C 	0.7466	0.2926	0.31828	-0.138
Mof_H 	H 	0.7225	0.3102	0.3383	0.082
Mof_C 	C 	0.8434	0.2319	0.31588	-0.143
Mof_H 	H 	0.8856	0.2079	0.3339	0.073
Mof_C 	C 	0.8132	0.2429	0.25681	0.075
Mof_H 	H 	0.8363	0.2258	0.2359	-0.025
Mof_C 	C 	0.7583	0.4561	0.76235	0.067
Mof_H 	H 	0.7225	0.4205	0.7449	-0.015
Mof_C 	C 	0.1011	0.7094	0.02508	0.085
Mof_H 	H 	0.1224	0.7334	0.0046	-0.012
Mof_C 	C 	0.98748	0.1501	0.52183	0.054
Mof_C 	C 	0.84126	0.2476	0.41139	0.095
Mof_C 	C 	0.8444	0.3254	0.59215	-0.14
Mof_H 	H 	0.8838	0.2969	0.6132	0.081
Mof_C 	C 	0.8665	0.5555	0.81458	-0.142
Mof_H 	H 	0.9043	0.5883	0.8312	0.084
Mof_C 	C 	0.0779	0.0717	0.52007	0.074
Mof_H 	H 	0.0981	0.0472	0.4989	-0.011
Mof_C 	C 	0.01077	0.628	0.02469	0.065
Mof_C 	C 	0.8328	0.5467	0.7556	0.086
Mof_H 	H 	0.8489	0.5758	0.7331	-0.021
Mof_C 	C 	0.8133	0.3689	0.6199	0.084
Mof_H 	H 	0.8335	0.3701	0.66	-0.007
Mof_N 	N 	0.12875	0.71921	0.08238	-0.192
Mof_N 	N 	0.77763	0.3644	0.08782	-0.215
Mof_N 	N 	0.7788	0.4998	0.7282	-0.199
Mof_N 	N 	0.92532	0.539	0.027	-0.137
Mof_N 	N 	0.84373	0.4815	0.94016	-0.142
Mof_N 	N 	0.92512	0.5725	0.93685	-0.137
Mof_N 	N 	0.75529	0.4098	0.59196	-0.189
Mof_N 	N 	0.75299	0.2767	0.22803	-0.199
Mof_N 	N 	0.10827	0.0648	0.57788	-0.208
Mof_N 	N 	0.90249	0.2398	0.52651	-0.14
Mof_N 	N 	0.81301	0.2874	0.44067	-0.136
Mof_N 	N 	0.89595	0.2007	0.43519	-0.149
Mof_Ag	Ag	0.27396	0.29129	0.36825	0.523
Mof_Ag	Ag	0.79472	0.99943	0.8677	0.536
Mof_C 	C 	0.62799	0.9378	0.41131	-0.145
Mof_H 	H 	0.5853	0.9592	0.39	0.082
Mof_C 	C 	0.42269	0.6	0.89269	0.064
Mof_H 	H 	0.403	0.5957	0.8527	-0.025
Mof_C 	C 	0.65417	0.7809	0.00159	0.098
Mof_C 	C 	0.62828	0.9928	0.50273	0.098
Mof_C 	C 	0.48185	0.6131	0.00967	-0.136
Mof_H 	H 	0.5011	0.6161	0.0497	0.074
Mof_C 	C 	0.40318	0.1836	0.38927	0.082
Mof_H 	H 	0.3851	0.1895	0.3494	-0.009
Mof_C 	C 	0.74352	0.8668	0.99657	-0.137
Mof_H 	H 	0.7641	0.8673	0.0367	0.087
Mof_C 	C 	0.57522	0.699	0.00741	0.094
Mof_C 	C 	0.72338	0.9133	0.5001	-0.146
Mof_H 	H 	0.7459	0.9175	0.54	0.075
Mof_C 	C 	0.77208	0.9077	0.96552	0.089
Mof_H 	H 	0.8123	0.9352	0.9857	-0.013
Mof_C 	C 	0.62797	0.0233	0.58817	0.1
Mof_C 	C 	0.66035	0.9476	0.4706	0.062
Mof_C 	C 	0.46102	0.1388	0.41594	-0.132
Mof_H 	H 	0.4813	0.1158	0.3943	0.083
Mof_C 	C 	0.752	0.8731	0.46949	0.073
Mof_H 	H 	0.7944	0.8506	0.4897	-0.02
Mof_C 	C 	0.68396	0.825	0.96714	0.069
Mof_C 	C 	0.65826	0.0134	0.65177	0.059
Mof_C 	C 	0.45707	0.1659	0.50551	-0.131
Mof_H 	H 	0.4746	0.1619	0.5454	0.084
Mof_C 	C 	0.7798	0.8014	0.24071	0.079
Mof_H 	H 	0.8219	0.8254	0.2598	-0.015
Mof_C 	C 	0.7123	0.9616	0.67844	-0.133
Mof_H 	H 	0.7285	0.9311	0.6567	0.069
Mof_C 	C 	0.48227	0.6422	0.91911	-0.134
Mof_H 	H 	0.502	0.6652	0.897	0.077
Mof_C 	C 	0.69074	0.7573	0.15224	0.055
Mof_C 	C 	0.66105	0.8953	0.38475	0.076
Mof_H 	H 	0.6389	0.8879	0.3451	-0.021
Mof_C 	C 	0.54988	0.0773	0.50579	0.103
Mof_C 	C 	0.7534	0.7926	0.18172	-0.138
Mof_H 	H 	0.7775	0.8102	0.1617	0.082
Mof_C 	C 	0.6566	0.7319	0.18412	-0.143
Mof_H 	H 	0.6144	0.7079	0.1661	0.073
Mof_C 	C 	0.6868	0.7429	0.24319	0.075
Mof_H 	H 	0.6637	0.7258	0.2641	-0.025
Mof_C 	C 	0.7417	0.9561	0.73765	0.067
Mof_H 	H 	0.7775	0.9205	0.7551	-0.015
Mof_C 	C 	0.3989	0.2094	0.47492	0.086
Mof_H 	H 	0.3776	0.2334	0.4954	-0.012
Mof_C 	C 	0.51252	0.6501	0.97817	0.055
Mof_C 	C 	0.65874	0.7476	0.08861	0.095
Mof_C 	C 	0.6556	0.8254	0.90785	-0.14
Mof_H 	H 	0.6162	0.7969	0.8868	0.081
Mof_C 	C 	0.6335	0.0555	0.68542	-0.142
Mof_H 	H 	0.5957	0.0883	0.6688	0.084
Mof_C 	C 	0.4221	0.5717	0.97993	0.075
Mof_H 	H 	0.4019	0.5472	0.0011	-0.012
Mof_C 	C 	0.48923	0.128	0.47531	0.066
Mof_C 	C 	0.6672	0.0467	0.7444	0.086
Mof_H 	H 	0.6511	0.0758	0.7669	-0.021
Mof_C 	C 	0.6867	0.8689	0.8801	0.084
Mof_H 	H 	0.6665	0.8701	0.84	-0.007
Mof_N 	N 	0.37125	0.21921	0.41762	-0.192
Mof_N 	N 	0.72237	0.8644	0.41218	-0.215
Mof_N 	N 	0.7212	0.9998	0.7718	-0.199
Mof_N 	N 	0.57468	0.039	0.473	-0.138
Mof_N 	N 	0.65627	0.9815	0.55984	-0.142
Mof_N 	N 	0.57488	0.0725	0.56315	-0.137
Mof_N 	N 	0.74471	0.9098	0.90804	-0.189
Mof_N 	N 	0.74701	0.7767	0.27197	-0.199
Mof_N 	N 	0.39173	0.5648	0.92212	-0.208
Mof_N 	N 	0.59751	0.7398	0.97349	-0.14
Mof_N 	N 	0.68699	0.7874	0.05933	-0.136
Mof_N 	N 	0.60405	0.7007	0.06481	-0.149
Mof_Ag	Ag	0.77396	0.79129	0.36825	0.523
Mof_Ag	Ag	0.29472	0.49943	0.8677	0.535
Mof_C 	C 	0.12799	0.4378	0.41131	-0.145
Mof_H 	H 	0.0853	0.4592	0.39	0.082
Mof_C 	C 	0.92269	0.1	0.89269	0.065
Mof_H 	H 	0.903	0.0957	0.8527	-0.025
Mof_C 	C 	0.15417	0.2809	0.00159	0.097
Mof_C 	C 	0.12828	0.4928	0.50273	0.098
Mof_C 	C 	0.98185	0.1131	0.00967	-0.132
Mof_H 	H 	0.0011	0.1161	0.0497	0.073
Mof_C 	C 	0.90318	0.6836	0.38927	0.082
Mof_H 	H 	0.8851	0.6895	0.3494	-0.009
Mof_C 	C 	0.24352	0.3668	0.99657	-0.136
Mof_H 	H 	0.2641	0.3673	0.0367	0.086
Mof_C 	C 	0.07522	0.199	0.00741	0.093
Mof_C 	C 	0.22338	0.4133	0.5001	-0.146
Mof_H 	H 	0.2459	0.4175	0.54	0.075
Mof_C 	C 	0.27208	0.4077	0.96552	0.088
Mof_H 	H 	0.3123	0.4352	0.9857	-0.013
Mof_C 	C 	0.12797	0.5233	0.58817	0.1
Mof_C 	C 	0.16035	0.4476	0.4706	0.062
Mof_C 	C 	0.96102	0.6388	0.41594	-0.132
Mof_H 	H 	0.9813	0.6158	0.3943	0.083
Mof_C 	C 	0.252	0.3731	0.46949	0.073
Mof_H 	H 	0.2944	0.3506	0.4897	-0.02
Mof_C 	C 	0.18396	0.325	0.96714	0.069
Mof_C 	C 	0.15826	0.5134	0.65177	0.059
Mof_C 	C 	0.95707	0.6659	0.50551	-0.131
Mof_H 	H 	0.9746	0.6619	0.5454	0.084
Mof_C 	C 	0.2798	0.3014	0.24071	0.079
Mof_H 	H 	0.3219	0.3254	0.2598	-0.015
Mof_C 	C 	0.2123	0.4616	0.67844	-0.133
Mof_H 	H 	0.2285	0.4311	0.6567	0.069
Mof_C 	C 	0.98227	0.1422	0.91911	-0.136
Mof_H 	H 	0.002	0.1652	0.897	0.078
Mof_C 	C 	0.19074	0.2573	0.15224	0.055
Mof_C 	C 	0.16105	0.3953	0.38475	0.075
Mof_H 	H 	0.1389	0.3879	0.3451	-0.021
Mof_C 	C 	0.04988	0.5773	0.50579	0.103
Mof_C 	C 	0.2534	0.2926	0.18172	-0.138
Mof_H 	H 	0.2775	0.3102	0.1617	0.082
Mof_C 	C 	0.1566	0.2319	0.18412	-0.143
Mof_H 	H 	0.1144	0.2079	0.1661	0.073
Mof_C 	C 	0.1868	0.2429	0.24319	0.075
Mof_H 	H 	0.1637	0.2258	0.2641	-0.025
Mof_C 	C 	0.2417	0.4561	0.73765	0.067
Mof_H 	H 	0.2775	0.4205	0.7551	-0.015
Mof_C 	C 	0.8989	0.7094	0.47492	0.086
Mof_H 	H 	0.8776	0.7334	0.4954	-0.012
Mof_C 	C 	0.01252	0.1501	0.97817	0.055
Mof_C 	C 	0.15874	0.2476	0.08861	0.095
Mof_C 	C 	0.1556	0.3254	0.90785	-0.14
Mof_H 	H 	0.1162	0.2969	0.8868	0.081
Mof_C 	C 	0.1335	0.5555	0.68542	-0.142
Mof_H 	H 	0.0957	0.5883	0.6688	0.084
Mof_C 	C 	0.9221	0.0717	0.97993	0.071
Mof_H 	H 	0.9019	0.0472	0.0011	-0.009
Mof_C 	C 	0.98923	0.628	0.47531	0.066
Mof_C 	C 	0.1672	0.5467	0.7444	0.086
Mof_H 	H 	0.1511	0.5758	0.7669	-0.021
Mof_C 	C 	0.1867	0.3689	0.8801	0.084
Mof_H 	H 	0.1665	0.3701	0.84	-0.007
Mof_N 	N 	0.87125	0.71921	0.41762	-0.192
Mof_N 	N 	0.22237	0.3644	0.41218	-0.215
Mof_N 	N 	0.2212	0.4998	0.7718	-0.199
Mof_N 	N 	0.07468	0.539	0.473	-0.138
Mof_N 	N 	0.15627	0.4815	0.55984	-0.142
Mof_N 	N 	0.07488	0.5725	0.56315	-0.137
Mof_N 	N 	0.24471	0.4098	0.90804	-0.189
Mof_N 	N 	0.24701	0.2767	0.27197	-0.199
Mof_N 	N 	0.89173	0.0648	0.92212	-0.207
Mof_N 	N 	0.09751	0.2398	0.97349	-0.139
Mof_N 	N 	0.18699	0.2874	0.05933	-0.136
Mof_N 	N 	0.10405	0.2007	0.06481	-0.149
_end
