data_functionalizedCrystal
_audit_creation_method	'EQeq! by Chris Wilmer'
_symmetry_space_group_name_H-M	'P1'
_symmetry_Int_Tables_number	1
_symmetry_cell_setting	triclinic
loop_
_symmetry_equiv_pos_as_xyz
  x,y,z
_cell_length_a	29.875
_cell_length_b	29.875
_cell_length_c	18.072
_cell_angle_alpha	90
_cell_angle_beta	90
_cell_angle_gamma	120
loop_
_atom_site_label
_atom_site_type_symbol
_atom_site_fract_x
_atom_site_fract_y
_atom_site_fract_z
_atom_site_charge
Mof_Zn	Zn	0.62518	0.85376	0.5193	1.209
Mof_N 	N 	0.63542	0.89378	0.42017	-0.244
Mof_N 	N 	0.59882	0.79276	0.4447	-0.25
Mof_N 	N 	0.58157	0.76896	0.32818	-0.271
Mof_O 	O 	0.47706	0.49205	0.24302	-0.456
Mof_O 	O 	0.44807	0.52351	0.15478	-0.321
Mof_O 	O 	0.58201	0.63467	0.7518	-0.368
Mof_O 	O 	0.49762	0.59452	0.73537	-0.416
Mof_C 	C 	0.65053	0.944	0.412	0.07
Mof_H 	H 	0.6604	0.9654	0.4547	0.004
Mof_C 	C 	0.6523	0.96584	0.3434	-0.111
Mof_H 	H 	0.6624	0.0014	0.3395	0.081
Mof_C 	C 	0.6391	0.93527	0.2811	0.03
Mof_H 	H 	0.6407	0.9496	0.2336	0.025
Mof_C 	C 	0.6235	0.88319	0.2885	-0.089
Mof_H 	H 	0.6146	0.8615	0.2463	0.065
Mof_C 	C 	0.6213	0.86357	0.35866	0.023
Mof_C 	C 	0.60216	0.80939	0.37534	0.099
Mof_C 	C 	0.57513	0.73984	0.44186	0.025
Mof_C 	C 	0.56385	0.72382	0.36859	0.053
Mof_C 	C 	0.5392	0.67328	0.33108	0.035
Mof_C 	C 	0.51499	0.66711	0.2624	-0.095
Mof_H 	H 	0.5144	0.6957	0.2404	0.074
Mof_C 	C 	0.49214	0.62034	0.22643	0.027
Mof_H 	H 	0.4758	0.617	0.18	0.032
Mof_C 	C 	0.49246	0.5775	0.25701	-0.103
Mof_C 	C 	0.51682	0.58335	0.32566	0.025
Mof_H 	H 	0.5178	0.5548	0.3472	0.037
Mof_C 	C 	0.53953	0.63048	0.36239	-0.096
Mof_H 	H 	0.5554	0.6338	0.4091	0.067
Mof_C 	C 	0.46987	0.52726	0.21442	0.34
Mof_C 	C 	0.56554	0.7104	0.51134	0.025
Mof_C 	C 	0.6056	0.72747	0.56327	-0.091
Mof_H 	H 	0.6382	0.7569	0.5527	0.053
Mof_C 	C 	0.59788	0.70157	0.63019	0.013
Mof_H 	H 	0.6252	0.7133	0.6651	0.037
Mof_C 	C 	0.55002	0.65839	0.64607	-0.076
Mof_C 	C 	0.50966	0.64214	0.5955	0.012
Mof_H 	H 	0.4766	0.6136	0.607	0.045
Mof_C 	C 	0.51776	0.66776	0.5279	-0.084
Mof_H 	H 	0.4904	0.6559	0.493	0.062
Mof_C 	C 	0.54334	0.62818	0.7164	0.296
Mof_H 	H 	0.5809	0.7704	0.287	0.21
Mof_Zn	Zn	0.29185	0.18709	0.85263	1.208
Mof_N 	N 	0.30209	0.22711	0.7535	-0.245
Mof_N 	N 	0.26549	0.12609	0.77803	-0.25
Mof_N 	N 	0.24824	0.10229	0.66151	-0.271
Mof_O 	O 	0.14373	0.82538	0.57635	-0.456
Mof_O 	O 	0.11474	0.85684	0.48811	-0.321
Mof_O 	O 	0.24868	0.968	0.08513	-0.368
Mof_O 	O 	0.16429	0.92785	0.0687	-0.416
Mof_C 	C 	0.3172	0.27733	0.74533	0.071
Mof_H 	H 	0.32707	0.29873	0.78803	0.003
Mof_C 	C 	0.31897	0.29917	0.67673	-0.112
Mof_H 	H 	0.32907	0.33473	0.67283	0.082
Mof_C 	C 	0.30577	0.2686	0.61443	0.031
Mof_H 	H 	0.30737	0.28293	0.56693	0.024
Mof_C 	C 	0.29017	0.21652	0.62183	-0.09
Mof_H 	H 	0.28127	0.19483	0.57963	0.065
Mof_C 	C 	0.28797	0.1969	0.69199	0.023
Mof_C 	C 	0.26883	0.14272	0.70867	0.099
Mof_C 	C 	0.2418	0.07317	0.77519	0.025
Mof_C 	C 	0.23052	0.05715	0.70192	0.053
Mof_C 	C 	0.20587	0.00661	0.66441	0.035
Mof_C 	C 	0.18166	0.00044	0.59573	-0.095
Mof_H 	H 	0.18107	0.02903	0.57373	0.074
Mof_C 	C 	0.15881	0.95367	0.55976	0.027
Mof_H 	H 	0.14247	0.95033	0.51333	0.032
Mof_C 	C 	0.15913	0.91083	0.59034	-0.103
Mof_C 	C 	0.18349	0.91668	0.65899	0.025
Mof_H 	H 	0.18447	0.88813	0.68053	0.036
Mof_C 	C 	0.2062	0.96381	0.69572	-0.096
Mof_H 	H 	0.22207	0.96713	0.74243	0.067
Mof_C 	C 	0.13654	0.86059	0.54775	0.34
Mof_C 	C 	0.23221	0.04373	0.84467	0.025
Mof_C 	C 	0.27227	0.0608	0.8966	-0.091
Mof_H 	H 	0.30487	0.09023	0.88603	0.053
Mof_C 	C 	0.26455	0.0349	0.96352	0.015
Mof_H 	H 	0.29187	0.04663	0.99843	0.036
Mof_C 	C 	0.21669	0.99172	0.9794	-0.078
Mof_C 	C 	0.17633	0.97547	0.92883	0.011
Mof_H 	H 	0.14327	0.94693	0.94033	0.045
Mof_C 	C 	0.18443	0.00109	0.86123	-0.082
Mof_H 	H 	0.15707	0.98923	0.82633	0.061
Mof_C 	C 	0.21001	0.96151	0.04973	0.298
Mof_H 	H 	0.24757	0.10373	0.62033	0.21
Mof_Zn	Zn	0.95851	0.52043	0.18597	1.208
Mof_N 	N 	0.96875	0.56045	0.08684	-0.245
Mof_N 	N 	0.93215	0.45943	0.11137	-0.25
Mof_N 	N 	0.9149	0.43563	0.99485	-0.27
Mof_O 	O 	0.81039	0.15872	0.90969	-0.456
Mof_O 	O 	0.7814	0.19018	0.82145	-0.322
Mof_O 	O 	0.91534	0.30134	0.41847	-0.368
Mof_O 	O 	0.83095	0.26119	0.40204	-0.416
Mof_C 	C 	0.98386	0.61067	0.07867	0.071
Mof_H 	H 	0.99373	0.63207	0.12137	0.003
Mof_C 	C 	0.98563	0.63251	0.01007	-0.113
Mof_H 	H 	0.99573	0.66807	0.00617	0.082
Mof_C 	C 	0.97243	0.60194	0.94777	0.032
Mof_H 	H 	0.97403	0.61627	0.90027	0.024
Mof_C 	C 	0.95683	0.54986	0.95517	-0.089
Mof_H 	H 	0.94793	0.52817	0.91297	0.065
Mof_C 	C 	0.95463	0.53024	0.02533	0.023
Mof_C 	C 	0.93549	0.47606	0.04201	0.098
Mof_C 	C 	0.90846	0.40651	0.10853	0.026
Mof_C 	C 	0.89718	0.39049	0.03526	0.05
Mof_C 	C 	0.87253	0.33995	0.99775	0.04
Mof_C 	C 	0.84832	0.33378	0.92907	-0.099
Mof_H 	H 	0.84773	0.36237	0.90707	0.075
Mof_C 	C 	0.82547	0.28701	0.8931	0.031
Mof_H 	H 	0.80913	0.28367	0.84667	0.031
Mof_C 	C 	0.82579	0.24417	0.92368	-0.106
Mof_C 	C 	0.85015	0.25002	0.99233	0.032
Mof_H 	H 	0.85113	0.22147	0.01387	0.033
Mof_C 	C 	0.87286	0.29715	0.02906	-0.103
Mof_H 	H 	0.88873	0.30047	0.07577	0.069
Mof_C 	C 	0.8032	0.19393	0.88109	0.341
Mof_C 	C 	0.89887	0.37707	0.17801	0.024
Mof_C 	C 	0.93893	0.39414	0.22994	-0.09
Mof_H 	H 	0.97153	0.42357	0.21937	0.053
Mof_C 	C 	0.93121	0.36824	0.29686	0.013
Mof_H 	H 	0.95853	0.37997	0.33177	0.037
Mof_C 	C 	0.88335	0.32506	0.31274	-0.076
Mof_C 	C 	0.84299	0.30881	0.26217	0.012
Mof_H 	H 	0.80993	0.28027	0.27367	0.045
Mof_C 	C 	0.85109	0.33443	0.19457	-0.084
Mof_H 	H 	0.82373	0.32257	0.15967	0.062
Mof_C 	C 	0.87667	0.29485	0.38307	0.296
Mof_H 	H 	0.91423	0.43707	0.95367	0.209
Mof_Zn	Zn	0.14624	0.77142	0.5193	1.208
Mof_N 	N 	0.10622	0.74164	0.42017	-0.245
Mof_N 	N 	0.20724	0.80606	0.4447	-0.25
Mof_N 	N 	0.23104	0.81261	0.32818	-0.271
Mof_O 	O 	0.50795	0.98501	0.24302	-0.456
Mof_O 	O 	0.47649	0.92456	0.15478	-0.321
Mof_O 	O 	0.36533	0.94734	0.7518	-0.368
Mof_O 	O 	0.40548	0.9031	0.73537	-0.416
Mof_C 	C 	0.056	0.70653	0.412	0.07
Mof_H 	H 	0.0346	0.695	0.4547	0.003
Mof_C 	C 	0.03416	0.68646	0.3434	-0.111
Mof_H 	H 	0.9986	0.661	0.3395	0.081
Mof_C 	C 	0.06473	0.70383	0.2811	0.03
Mof_H 	H 	0.0504	0.6911	0.2336	0.025
Mof_C 	C 	0.11681	0.74031	0.2885	-0.089
Mof_H 	H 	0.1385	0.7531	0.2463	0.065
Mof_C 	C 	0.13643	0.75773	0.35866	0.023
Mof_C 	C 	0.19061	0.79277	0.37534	0.099
Mof_C 	C 	0.26016	0.83529	0.44186	0.025
Mof_C 	C 	0.27618	0.84003	0.36859	0.053
Mof_C 	C 	0.32672	0.86592	0.33108	0.035
Mof_C 	C 	0.33289	0.84788	0.2624	-0.095
Mof_H 	H 	0.3043	0.8187	0.2404	0.074
Mof_C 	C 	0.37966	0.8718	0.22643	0.027
Mof_H 	H 	0.383	0.8588	0.18	0.032
Mof_C 	C 	0.4225	0.91496	0.25701	-0.103
Mof_C 	C 	0.41665	0.93347	0.32566	0.025
Mof_H 	H 	0.4452	0.963	0.3472	0.037
Mof_C 	C 	0.36952	0.90905	0.36239	-0.096
Mof_H 	H 	0.3662	0.9216	0.4091	0.067
Mof_C 	C 	0.47274	0.94261	0.21442	0.34
Mof_C 	C 	0.2896	0.85514	0.51134	0.025
Mof_C 	C 	0.27253	0.87813	0.56327	-0.091
Mof_H 	H 	0.2431	0.8813	0.5527	0.053
Mof_C 	C 	0.29843	0.89631	0.63019	0.013
Mof_H 	H 	0.2867	0.9119	0.6651	0.037
Mof_C 	C 	0.34161	0.89163	0.64607	-0.076
Mof_C 	C 	0.35786	0.86752	0.5955	0.012
Mof_H 	H 	0.3864	0.863	0.607	0.045
Mof_C 	C 	0.33224	0.85	0.5279	-0.084
Mof_H 	H 	0.3441	0.8345	0.493	0.062
Mof_C 	C 	0.37182	0.91516	0.7164	0.296
Mof_H 	H 	0.2296	0.8105	0.287	0.21
Mof_Zn	Zn	0.81291	0.10475	0.85263	1.208
Mof_N 	N 	0.77289	0.07497	0.7535	-0.245
Mof_N 	N 	0.87391	0.13939	0.77803	-0.25
Mof_N 	N 	0.89771	0.14594	0.66151	-0.271
Mof_O 	O 	0.17462	0.31834	0.57635	-0.456
Mof_O 	O 	0.14316	0.25789	0.48811	-0.321
Mof_O 	O 	0.032	0.28067	0.08513	-0.368
Mof_O 	O 	0.07215	0.23643	0.0687	-0.416
Mof_C 	C 	0.72267	0.03986	0.74533	0.07
Mof_H 	H 	0.70127	0.02833	0.78803	0.004
Mof_C 	C 	0.70083	0.01979	0.67673	-0.111
Mof_H 	H 	0.66527	0.99433	0.67283	0.081
Mof_C 	C 	0.7314	0.03716	0.61443	0.03
Mof_H 	H 	0.71707	0.02443	0.56693	0.025
Mof_C 	C 	0.78348	0.07364	0.62183	-0.089
Mof_H 	H 	0.80517	0.08643	0.57963	0.065
Mof_C 	C 	0.8031	0.09106	0.69199	0.023
Mof_C 	C 	0.85728	0.1261	0.70867	0.099
Mof_C 	C 	0.92683	0.16862	0.77519	0.025
Mof_C 	C 	0.94285	0.17336	0.70192	0.053
Mof_C 	C 	0.99339	0.19925	0.66441	0.035
Mof_C 	C 	0.99956	0.18121	0.59573	-0.095
Mof_H 	H 	0.97097	0.15203	0.57373	0.074
Mof_C 	C 	0.04633	0.20513	0.55976	0.027
Mof_H 	H 	0.04967	0.19213	0.51333	0.032
Mof_C 	C 	0.08917	0.24829	0.59034	-0.103
Mof_C 	C 	0.08332	0.2668	0.65899	0.025
Mof_H 	H 	0.11187	0.29633	0.68053	0.036
Mof_C 	C 	0.03619	0.24238	0.69572	-0.096
Mof_H 	H 	0.03287	0.25493	0.74243	0.067
Mof_C 	C 	0.13941	0.27594	0.54775	0.34
Mof_C 	C 	0.95627	0.18847	0.84467	0.024
Mof_C 	C 	0.9392	0.21146	0.8966	-0.091
Mof_H 	H 	0.90977	0.21463	0.88603	0.053
Mof_C 	C 	0.9651	0.22964	0.96352	0.014
Mof_H 	H 	0.95337	0.24523	0.99843	0.037
Mof_C 	C 	0.00828	0.22496	0.9794	-0.077
Mof_C 	C 	0.02453	0.20085	0.92883	0.011
Mof_H 	H 	0.05307	0.19633	0.94033	0.045
Mof_C 	C 	0.99891	0.18333	0.86123	-0.082
Mof_H 	H 	0.01077	0.16783	0.82633	0.061
Mof_C 	C 	0.03849	0.24849	0.04973	0.296
Mof_H 	H 	0.89627	0.14383	0.62033	0.21
Mof_Zn	Zn	0.47957	0.43809	0.18597	1.208
Mof_N 	N 	0.43955	0.40831	0.08684	-0.245
Mof_N 	N 	0.54057	0.47273	0.11137	-0.25
Mof_N 	N 	0.56437	0.47928	0.99485	-0.271
Mof_O 	O 	0.84128	0.65168	0.90969	-0.456
Mof_O 	O 	0.80982	0.59123	0.82145	-0.321
Mof_O 	O 	0.69866	0.61401	0.41847	-0.368
Mof_O 	O 	0.73881	0.56977	0.40204	-0.416
Mof_C 	C 	0.38933	0.3732	0.07867	0.071
Mof_H 	H 	0.36793	0.36167	0.12137	0.003
Mof_C 	C 	0.36749	0.35313	0.01007	-0.112
Mof_H 	H 	0.33193	0.32767	0.00617	0.082
Mof_C 	C 	0.39806	0.3705	0.94777	0.031
Mof_H 	H 	0.38373	0.35777	0.90027	0.024
Mof_C 	C 	0.45014	0.40698	0.95517	-0.09
Mof_H 	H 	0.47183	0.41977	0.91297	0.065
Mof_C 	C 	0.46976	0.4244	0.02533	0.023
Mof_C 	C 	0.52394	0.45944	0.04201	0.099
Mof_C 	C 	0.59349	0.50196	0.10853	0.025
Mof_C 	C 	0.60951	0.5067	0.03526	0.052
Mof_C 	C 	0.66005	0.53259	0.99775	0.036
Mof_C 	C 	0.66622	0.51455	0.92907	-0.096
Mof_H 	H 	0.63763	0.48537	0.90707	0.074
Mof_C 	C 	0.71299	0.53847	0.8931	0.028
Mof_H 	H 	0.71633	0.52547	0.84667	0.032
Mof_C 	C 	0.75583	0.58163	0.92368	-0.103
Mof_C 	C 	0.74998	0.60014	0.99233	0.027
Mof_H 	H 	0.77853	0.62967	0.01387	0.036
Mof_C 	C 	0.70285	0.57572	0.02906	-0.097
Mof_H 	H 	0.69953	0.58827	0.07577	0.068
Mof_C 	C 	0.80607	0.60928	0.88109	0.34
Mof_C 	C 	0.62293	0.52181	0.17801	0.025
Mof_C 	C 	0.60586	0.5448	0.22994	-0.091
Mof_H 	H 	0.57643	0.54797	0.21937	0.053
Mof_C 	C 	0.63176	0.56298	0.29686	0.013
Mof_H 	H 	0.62003	0.57857	0.33177	0.037
Mof_C 	C 	0.67494	0.5583	0.31274	-0.076
Mof_C 	C 	0.69119	0.53419	0.26217	0.012
Mof_H 	H 	0.71973	0.52967	0.27367	0.045
Mof_C 	C 	0.66557	0.51667	0.19457	-0.084
Mof_H 	H 	0.67743	0.50117	0.15967	0.062
Mof_C 	C 	0.70515	0.58183	0.38307	0.296
Mof_H 	H 	0.56293	0.47717	0.95367	0.21
Mof_Zn	Zn	0.22858	0.37482	0.5193	1.208
Mof_N 	N 	0.25836	0.36458	0.42017	-0.245
Mof_N 	N 	0.19394	0.40118	0.4447	-0.25
Mof_N 	N 	0.18739	0.41843	0.32818	-0.271
Mof_O 	O 	0.01499	0.52294	0.24302	-0.456
Mof_O 	O 	0.07544	0.55193	0.15478	-0.321
Mof_O 	O 	0.05266	0.41799	0.7518	-0.368
Mof_O 	O 	0.0969	0.50238	0.73537	-0.416
Mof_C 	C 	0.29347	0.34947	0.412	0.071
Mof_H 	H 	0.305	0.3396	0.4547	0.003
Mof_C 	C 	0.31354	0.3477	0.3434	-0.112
Mof_H 	H 	0.339	0.3376	0.3395	0.082
Mof_C 	C 	0.29617	0.3609	0.2811	0.031
Mof_H 	H 	0.3089	0.3593	0.2336	0.024
Mof_C 	C 	0.25969	0.3765	0.2885	-0.09
Mof_H 	H 	0.2469	0.3854	0.2463	0.065
Mof_C 	C 	0.24227	0.3787	0.35866	0.023
Mof_C 	C 	0.20723	0.39784	0.37534	0.099
Mof_C 	C 	0.16471	0.42487	0.44186	0.025
Mof_C 	C 	0.15997	0.43615	0.36859	0.053
Mof_C 	C 	0.13408	0.4608	0.33108	0.035
Mof_C 	C 	0.15212	0.48501	0.2624	-0.095
Mof_H 	H 	0.1813	0.4856	0.2404	0.074
Mof_C 	C 	0.1282	0.50786	0.22643	0.027
Mof_H 	H 	0.1412	0.5242	0.18	0.032
Mof_C 	C 	0.08504	0.50754	0.25701	-0.103
Mof_C 	C 	0.06653	0.48318	0.32566	0.025
Mof_H 	H 	0.037	0.4822	0.3472	0.037
Mof_C 	C 	0.09095	0.46047	0.36239	-0.096
Mof_H 	H 	0.0784	0.4446	0.4091	0.067
Mof_C 	C 	0.05739	0.53013	0.21442	0.34
Mof_C 	C 	0.14486	0.43446	0.51134	0.025
Mof_C 	C 	0.12187	0.3944	0.56327	-0.091
Mof_H 	H 	0.1187	0.3618	0.5527	0.053
Mof_C 	C 	0.10369	0.40212	0.63019	0.013
Mof_H 	H 	0.0881	0.3748	0.6651	0.037
Mof_C 	C 	0.10837	0.44998	0.64607	-0.076
Mof_C 	C 	0.13248	0.49034	0.5955	0.012
Mof_H 	H 	0.137	0.5234	0.607	0.045
Mof_C 	C 	0.15	0.48224	0.5279	-0.084
Mof_H 	H 	0.1655	0.5096	0.493	0.062
Mof_C 	C 	0.08484	0.45666	0.7164	0.296
Mof_H 	H 	0.1895	0.4191	0.287	0.21
Mof_Zn	Zn	0.89525	0.70815	0.85263	1.208
Mof_N 	N 	0.92503	0.69791	0.7535	-0.245
Mof_N 	N 	0.86061	0.73451	0.77803	-0.25
Mof_N 	N 	0.85406	0.75176	0.66151	-0.271
Mof_O 	O 	0.68166	0.85627	0.57635	-0.456
Mof_O 	O 	0.74211	0.88526	0.48811	-0.321
Mof_O 	O 	0.71933	0.75132	0.08513	-0.368
Mof_O 	O 	0.76357	0.83571	0.0687	-0.416
Mof_C 	C 	0.96014	0.6828	0.74533	0.07
Mof_H 	H 	0.97167	0.67293	0.78803	0.004
Mof_C 	C 	0.98021	0.68103	0.67673	-0.111
Mof_H 	H 	0.00567	0.67093	0.67283	0.081
Mof_C 	C 	0.96284	0.69423	0.61443	0.03
Mof_H 	H 	0.97557	0.69263	0.56693	0.025
Mof_C 	C 	0.92636	0.70983	0.62183	-0.089
Mof_H 	H 	0.91357	0.71873	0.57963	0.065
Mof_C 	C 	0.90894	0.71203	0.69199	0.023
Mof_C 	C 	0.8739	0.73117	0.70867	0.099
Mof_C 	C 	0.83138	0.7582	0.77519	0.025
Mof_C 	C 	0.82664	0.76948	0.70192	0.053
Mof_C 	C 	0.80075	0.79413	0.66441	0.035
Mof_C 	C 	0.81879	0.81834	0.59573	-0.095
Mof_H 	H 	0.84797	0.81893	0.57373	0.074
Mof_C 	C 	0.79487	0.84119	0.55976	0.027
Mof_H 	H 	0.80787	0.85753	0.51333	0.032
Mof_C 	C 	0.75171	0.84087	0.59034	-0.103
Mof_C 	C 	0.7332	0.81651	0.65899	0.025
Mof_H 	H 	0.70367	0.81553	0.68053	0.036
Mof_C 	C 	0.75762	0.7938	0.69572	-0.096
Mof_H 	H 	0.74507	0.77793	0.74243	0.067
Mof_C 	C 	0.72406	0.86346	0.54775	0.34
Mof_C 	C 	0.81153	0.76779	0.84467	0.025
Mof_C 	C 	0.78854	0.72773	0.8966	-0.091
Mof_H 	H 	0.78537	0.69513	0.88603	0.053
Mof_C 	C 	0.77036	0.73545	0.96352	0.013
Mof_H 	H 	0.75477	0.70813	0.99843	0.037
Mof_C 	C 	0.77504	0.78331	0.9794	-0.076
Mof_C 	C 	0.79915	0.82367	0.92883	0.012
Mof_H 	H 	0.80367	0.85673	0.94033	0.045
Mof_C 	C 	0.81667	0.81557	0.86123	-0.084
Mof_H 	H 	0.83217	0.84293	0.82633	0.062
Mof_C 	C 	0.75151	0.78999	0.04973	0.296
Mof_H 	H 	0.85617	0.75243	0.62033	0.21
Mof_Zn	Zn	0.56191	0.04149	0.18597	1.208
Mof_N 	N 	0.59169	0.03125	0.08684	-0.246
Mof_N 	N 	0.52727	0.06785	0.11137	-0.25
Mof_N 	N 	0.52072	0.0851	0.99485	-0.27
Mof_O 	O 	0.34832	0.18961	0.90969	-0.457
Mof_O 	O 	0.40877	0.2186	0.82145	-0.321
Mof_O 	O 	0.38599	0.08466	0.41847	-0.368
Mof_O 	O 	0.43023	0.16905	0.40204	-0.416
Mof_C 	C 	0.6268	0.01614	0.07867	0.071
Mof_H 	H 	0.63833	0.00627	0.12137	0.003
Mof_C 	C 	0.64687	0.01437	0.01007	-0.114
Mof_H 	H 	0.67233	0.00427	0.00617	0.082
Mof_C 	C 	0.6295	0.02757	0.94777	0.033
Mof_H 	H 	0.64223	0.02597	0.90027	0.024
Mof_C 	C 	0.59302	0.04317	0.95517	-0.089
Mof_H 	H 	0.58023	0.05207	0.91297	0.065
Mof_C 	C 	0.5756	0.04537	0.02533	0.023
Mof_C 	C 	0.54056	0.06451	0.04201	0.099
Mof_C 	C 	0.49804	0.09154	0.10853	0.026
Mof_C 	C 	0.4933	0.10282	0.03526	0.051
Mof_C 	C 	0.46741	0.12747	0.99775	0.038
Mof_C 	C 	0.48545	0.15168	0.92907	-0.097
Mof_H 	H 	0.51463	0.15227	0.90707	0.075
Mof_C 	C 	0.46153	0.17453	0.8931	0.029
Mof_H 	H 	0.47453	0.19087	0.84667	0.032
Mof_C 	C 	0.41837	0.17421	0.92368	-0.104
Mof_C 	C 	0.39986	0.14985	0.99233	0.028
Mof_H 	H 	0.37033	0.14887	0.01387	0.035
Mof_C 	C 	0.42428	0.12714	0.02906	-0.099
Mof_H 	H 	0.41173	0.11127	0.07577	0.068
Mof_C 	C 	0.39072	0.1968	0.88109	0.341
Mof_C 	C 	0.47819	0.10113	0.17801	0.024
Mof_C 	C 	0.4552	0.06107	0.22994	-0.091
Mof_H 	H 	0.45203	0.02847	0.21937	0.053
Mof_C 	C 	0.43702	0.06879	0.29686	0.013
Mof_H 	H 	0.42143	0.04147	0.33177	0.037
Mof_C 	C 	0.4417	0.11665	0.31274	-0.076
Mof_C 	C 	0.46581	0.15701	0.26217	0.012
Mof_H 	H 	0.47033	0.19007	0.27367	0.045
Mof_C 	C 	0.48333	0.14891	0.19457	-0.084
Mof_H 	H 	0.49883	0.17627	0.15967	0.062
Mof_C 	C 	0.41817	0.12333	0.38307	0.296
Mof_H 	H 	0.52283	0.08577	0.95367	0.209
Mof_Zn	Zn	0.37482	0.14624	0.4807	1.208
Mof_N 	N 	0.36458	0.10622	0.57983	-0.245
Mof_N 	N 	0.40118	0.20724	0.5553	-0.25
Mof_N 	N 	0.41843	0.23104	0.67182	-0.271
Mof_O 	O 	0.52294	0.50795	0.75698	-0.456
Mof_O 	O 	0.55193	0.47649	0.84522	-0.321
Mof_O 	O 	0.41799	0.36533	0.2482	-0.368
Mof_O 	O 	0.50238	0.40548	0.26463	-0.416
Mof_C 	C 	0.34947	0.056	0.588	0.07
Mof_H 	H 	0.3396	0.0346	0.5453	0.004
Mof_C 	C 	0.3477	0.03416	0.6566	-0.111
Mof_H 	H 	0.3376	0.9986	0.6605	0.081
Mof_C 	C 	0.3609	0.06473	0.7189	0.03
Mof_H 	H 	0.3593	0.0504	0.7664	0.025
Mof_C 	C 	0.3765	0.11681	0.7115	-0.089
Mof_H 	H 	0.3854	0.1385	0.7537	0.065
Mof_C 	C 	0.3787	0.13643	0.64134	0.023
Mof_C 	C 	0.39784	0.19061	0.62466	0.099
Mof_C 	C 	0.42487	0.26016	0.55814	0.025
Mof_C 	C 	0.43615	0.27618	0.63141	0.053
Mof_C 	C 	0.4608	0.32672	0.66892	0.035
Mof_C 	C 	0.48501	0.33289	0.7376	-0.095
Mof_H 	H 	0.4856	0.3043	0.7596	0.074
Mof_C 	C 	0.50786	0.37966	0.77357	0.027
Mof_H 	H 	0.5242	0.383	0.82	0.032
Mof_C 	C 	0.50754	0.4225	0.74299	-0.103
Mof_C 	C 	0.48318	0.41665	0.67434	0.025
Mof_H 	H 	0.4822	0.4452	0.6528	0.037
Mof_C 	C 	0.46047	0.36952	0.63761	-0.096
Mof_H 	H 	0.4446	0.3662	0.5909	0.067
Mof_C 	C 	0.53013	0.47274	0.78558	0.34
Mof_C 	C 	0.43446	0.2896	0.48866	0.025
Mof_C 	C 	0.3944	0.27253	0.43673	-0.091
Mof_H 	H 	0.3618	0.2431	0.4473	0.053
Mof_C 	C 	0.40212	0.29843	0.36981	0.013
Mof_H 	H 	0.3748	0.2867	0.3349	0.037
Mof_C 	C 	0.44998	0.34161	0.35393	-0.076
Mof_C 	C 	0.49034	0.35786	0.4045	0.012
Mof_H 	H 	0.5234	0.3864	0.393	0.045
Mof_C 	C 	0.48224	0.33224	0.4721	-0.084
Mof_H 	H 	0.5096	0.3441	0.507	0.062
Mof_C 	C 	0.45666	0.37182	0.2836	0.296
Mof_H 	H 	0.4191	0.2296	0.713	0.21
Mof_Zn	Zn	0.04149	0.47957	0.81403	1.208
Mof_N 	N 	0.03125	0.43955	0.91316	-0.245
Mof_N 	N 	0.06785	0.54057	0.88863	-0.25
Mof_N 	N 	0.0851	0.56437	0.00515	-0.27
Mof_O 	O 	0.18961	0.84128	0.09031	-0.456
Mof_O 	O 	0.2186	0.80982	0.17855	-0.322
Mof_O 	O 	0.08466	0.69866	0.58153	-0.368
Mof_O 	O 	0.16905	0.73881	0.59796	-0.416
Mof_C 	C 	0.01614	0.38933	0.92133	0.071
Mof_H 	H 	0.00627	0.36793	0.87863	0.003
Mof_C 	C 	0.01437	0.36749	0.98993	-0.113
Mof_H 	H 	0.00427	0.33193	0.99383	0.082
Mof_C 	C 	0.02757	0.39806	0.05223	0.032
Mof_H 	H 	0.02597	0.38373	0.09973	0.024
Mof_C 	C 	0.04317	0.45014	0.04483	-0.089
Mof_H 	H 	0.05207	0.47183	0.08703	0.065
Mof_C 	C 	0.04537	0.46976	0.97467	0.023
Mof_C 	C 	0.06451	0.52394	0.95799	0.098
Mof_C 	C 	0.09154	0.59349	0.89147	0.026
Mof_C 	C 	0.10282	0.60951	0.96474	0.05
Mof_C 	C 	0.12747	0.66005	0.00225	0.04
Mof_C 	C 	0.15168	0.66622	0.07093	-0.099
Mof_H 	H 	0.15227	0.63763	0.09293	0.075
Mof_C 	C 	0.17453	0.71299	0.1069	0.031
Mof_H 	H 	0.19087	0.71633	0.15333	0.031
Mof_C 	C 	0.17421	0.75583	0.07632	-0.106
Mof_C 	C 	0.14985	0.74998	0.00767	0.032
Mof_H 	H 	0.14887	0.77853	0.98613	0.033
Mof_C 	C 	0.12714	0.70285	0.97094	-0.103
Mof_H 	H 	0.11127	0.69953	0.92423	0.069
Mof_C 	C 	0.1968	0.80607	0.11891	0.341
Mof_C 	C 	0.10113	0.62293	0.82199	0.024
Mof_C 	C 	0.06107	0.60586	0.77006	-0.09
Mof_H 	H 	0.02847	0.57643	0.78063	0.053
Mof_C 	C 	0.06879	0.63176	0.70314	0.013
Mof_H 	H 	0.04147	0.62003	0.66823	0.037
Mof_C 	C 	0.11665	0.67494	0.68726	-0.076
Mof_C 	C 	0.15701	0.69119	0.73783	0.012
Mof_H 	H 	0.19007	0.71973	0.72633	0.045
Mof_C 	C 	0.14891	0.66557	0.80543	-0.084
Mof_H 	H 	0.17627	0.67743	0.84033	0.062
Mof_C 	C 	0.12333	0.70515	0.61693	0.296
Mof_H 	H 	0.08577	0.56293	0.04633	0.209
Mof_Zn	Zn	0.70815	0.81291	0.14737	1.208
Mof_N 	N 	0.69791	0.77289	0.2465	-0.245
Mof_N 	N 	0.73451	0.87391	0.22197	-0.25
Mof_N 	N 	0.75176	0.89771	0.33849	-0.271
Mof_O 	O 	0.85627	0.17462	0.42365	-0.456
Mof_O 	O 	0.88526	0.14316	0.51189	-0.321
Mof_O 	O 	0.75132	0.032	0.91487	-0.368
Mof_O 	O 	0.83571	0.07215	0.9313	-0.416
Mof_C 	C 	0.6828	0.72267	0.25467	0.071
Mof_H 	H 	0.67293	0.70127	0.21197	0.003
Mof_C 	C 	0.68103	0.70083	0.32327	-0.112
Mof_H 	H 	0.67093	0.66527	0.32717	0.082
Mof_C 	C 	0.69423	0.7314	0.38557	0.031
Mof_H 	H 	0.69263	0.71707	0.43307	0.024
Mof_C 	C 	0.70983	0.78348	0.37817	-0.09
Mof_H 	H 	0.71873	0.80517	0.42037	0.065
Mof_C 	C 	0.71203	0.8031	0.30801	0.023
Mof_C 	C 	0.73117	0.85728	0.29133	0.099
Mof_C 	C 	0.7582	0.92683	0.22481	0.025
Mof_C 	C 	0.76948	0.94285	0.29808	0.053
Mof_C 	C 	0.79413	0.99339	0.33559	0.035
Mof_C 	C 	0.81834	0.99956	0.40427	-0.095
Mof_H 	H 	0.81893	0.97097	0.42627	0.074
Mof_C 	C 	0.84119	0.04633	0.44024	0.027
Mof_H 	H 	0.85753	0.04967	0.48667	0.032
Mof_C 	C 	0.84087	0.08917	0.40966	-0.103
Mof_C 	C 	0.81651	0.08332	0.34101	0.025
Mof_H 	H 	0.81553	0.11187	0.31947	0.036
Mof_C 	C 	0.7938	0.03619	0.30428	-0.096
Mof_H 	H 	0.77793	0.03287	0.25757	0.067
Mof_C 	C 	0.86346	0.13941	0.45225	0.34
Mof_C 	C 	0.76779	0.95627	0.15533	0.025
Mof_C 	C 	0.72773	0.9392	0.1034	-0.091
Mof_H 	H 	0.69513	0.90977	0.11397	0.053
Mof_C 	C 	0.73545	0.9651	0.03648	0.015
Mof_H 	H 	0.70813	0.95337	0.00157	0.036
Mof_C 	C 	0.78331	0.00828	0.0206	-0.078
Mof_C 	C 	0.82367	0.02453	0.07117	0.011
Mof_H 	H 	0.85673	0.05307	0.05967	0.045
Mof_C 	C 	0.81557	0.99891	0.13877	-0.082
Mof_H 	H 	0.84293	0.01077	0.17367	0.061
Mof_C 	C 	0.78999	0.03849	0.95027	0.298
Mof_H 	H 	0.75243	0.89627	0.37967	0.21
Mof_Zn	Zn	0.85376	0.22858	0.4807	1.208
Mof_N 	N 	0.89378	0.25836	0.57983	-0.245
Mof_N 	N 	0.79276	0.19394	0.5553	-0.25
Mof_N 	N 	0.76896	0.18739	0.67182	-0.271
Mof_O 	O 	0.49205	0.01499	0.75698	-0.456
Mof_O 	O 	0.52351	0.07544	0.84522	-0.321
Mof_O 	O 	0.63467	0.05266	0.2482	-0.368
Mof_O 	O 	0.59452	0.0969	0.26463	-0.416
Mof_C 	C 	0.944	0.29347	0.588	0.07
Mof_H 	H 	0.9654	0.305	0.5453	0.003
Mof_C 	C 	0.96584	0.31354	0.6566	-0.111
Mof_H 	H 	0.0014	0.339	0.6605	0.081
Mof_C 	C 	0.93527	0.29617	0.7189	0.03
Mof_H 	H 	0.9496	0.3089	0.7664	0.025
Mof_C 	C 	0.88319	0.25969	0.7115	-0.089
Mof_H 	H 	0.8615	0.2469	0.7537	0.065
Mof_C 	C 	0.86357	0.24227	0.64134	0.023
Mof_C 	C 	0.80939	0.20723	0.62466	0.099
Mof_C 	C 	0.73984	0.16471	0.55814	0.025
Mof_C 	C 	0.72382	0.15997	0.63141	0.053
Mof_C 	C 	0.67328	0.13408	0.66892	0.035
Mof_C 	C 	0.66711	0.15212	0.7376	-0.095
Mof_H 	H 	0.6957	0.1813	0.7596	0.074
Mof_C 	C 	0.62034	0.1282	0.77357	0.027
Mof_H 	H 	0.617	0.1412	0.82	0.032
Mof_C 	C 	0.5775	0.08504	0.74299	-0.103
Mof_C 	C 	0.58335	0.06653	0.67434	0.025
Mof_H 	H 	0.5548	0.037	0.6528	0.037
Mof_C 	C 	0.63048	0.09095	0.63761	-0.096
Mof_H 	H 	0.6338	0.0784	0.5909	0.067
Mof_C 	C 	0.52726	0.05739	0.78558	0.34
Mof_C 	C 	0.7104	0.14486	0.48866	0.025
Mof_C 	C 	0.72747	0.12187	0.43673	-0.091
Mof_H 	H 	0.7569	0.1187	0.4473	0.053
Mof_C 	C 	0.70157	0.10369	0.36981	0.013
Mof_H 	H 	0.7133	0.0881	0.3349	0.037
Mof_C 	C 	0.65839	0.10837	0.35393	-0.076
Mof_C 	C 	0.64214	0.13248	0.4045	0.012
Mof_H 	H 	0.6136	0.137	0.393	0.045
Mof_C 	C 	0.66776	0.15	0.4721	-0.084
Mof_H 	H 	0.6559	0.1655	0.507	0.062
Mof_C 	C 	0.62818	0.08484	0.2836	0.296
Mof_H 	H 	0.7704	0.1895	0.713	0.21
Mof_Zn	Zn	0.52043	0.56191	0.81403	1.208
Mof_N 	N 	0.56045	0.59169	0.91316	-0.245
Mof_N 	N 	0.45943	0.52727	0.88863	-0.25
Mof_N 	N 	0.43563	0.52072	0.00515	-0.271
Mof_O 	O 	0.15872	0.34832	0.09031	-0.456
Mof_O 	O 	0.19018	0.40877	0.17855	-0.321
Mof_O 	O 	0.30134	0.38599	0.58153	-0.368
Mof_O 	O 	0.26119	0.43023	0.59796	-0.416
Mof_C 	C 	0.61067	0.6268	0.92133	0.071
Mof_H 	H 	0.63207	0.63833	0.87863	0.003
Mof_C 	C 	0.63251	0.64687	0.98993	-0.112
Mof_H 	H 	0.66807	0.67233	0.99383	0.082
Mof_C 	C 	0.60194	0.6295	0.05223	0.031
Mof_H 	H 	0.61627	0.64223	0.09973	0.024
Mof_C 	C 	0.54986	0.59302	0.04483	-0.09
Mof_H 	H 	0.52817	0.58023	0.08703	0.065
Mof_C 	C 	0.53024	0.5756	0.97467	0.023
Mof_C 	C 	0.47606	0.54056	0.95799	0.099
Mof_C 	C 	0.40651	0.49804	0.89147	0.025
Mof_C 	C 	0.39049	0.4933	0.96474	0.052
Mof_C 	C 	0.33995	0.46741	0.00225	0.036
Mof_C 	C 	0.33378	0.48545	0.07093	-0.096
Mof_H 	H 	0.36237	0.51463	0.09293	0.074
Mof_C 	C 	0.28701	0.46153	0.1069	0.028
Mof_H 	H 	0.28367	0.47453	0.15333	0.032
Mof_C 	C 	0.24417	0.41837	0.07632	-0.103
Mof_C 	C 	0.25002	0.39986	0.00767	0.027
Mof_H 	H 	0.22147	0.37033	0.98613	0.036
Mof_C 	C 	0.29715	0.42428	0.97094	-0.097
Mof_H 	H 	0.30047	0.41173	0.92423	0.068
Mof_C 	C 	0.19393	0.39072	0.11891	0.34
Mof_C 	C 	0.37707	0.47819	0.82199	0.025
Mof_C 	C 	0.39414	0.4552	0.77006	-0.091
Mof_H 	H 	0.42357	0.45203	0.78063	0.053
Mof_C 	C 	0.36824	0.43702	0.70314	0.013
Mof_H 	H 	0.37997	0.42143	0.66823	0.037
Mof_C 	C 	0.32506	0.4417	0.68726	-0.076
Mof_C 	C 	0.30881	0.46581	0.73783	0.012
Mof_H 	H 	0.28027	0.47033	0.72633	0.045
Mof_C 	C 	0.33443	0.48333	0.80543	-0.084
Mof_H 	H 	0.32257	0.49883	0.84033	0.062
Mof_C 	C 	0.29485	0.41817	0.61693	0.296
Mof_H 	H 	0.43707	0.52283	0.04633	0.21
Mof_Zn	Zn	0.18709	0.89525	0.14737	1.208
Mof_N 	N 	0.22711	0.92503	0.2465	-0.245
Mof_N 	N 	0.12609	0.86061	0.22197	-0.25
Mof_N 	N 	0.10229	0.85406	0.33849	-0.271
Mof_O 	O 	0.82538	0.68166	0.42365	-0.456
Mof_O 	O 	0.85684	0.74211	0.51189	-0.321
Mof_O 	O 	0.968	0.71933	0.91487	-0.368
Mof_O 	O 	0.92785	0.76357	0.9313	-0.416
Mof_C 	C 	0.27733	0.96014	0.25467	0.07
Mof_H 	H 	0.29873	0.97167	0.21197	0.004
Mof_C 	C 	0.29917	0.98021	0.32327	-0.111
Mof_H 	H 	0.33473	0.00567	0.32717	0.081
Mof_C 	C 	0.2686	0.96284	0.38557	0.03
Mof_H 	H 	0.28293	0.97557	0.43307	0.025
Mof_C 	C 	0.21652	0.92636	0.37817	-0.089
Mof_H 	H 	0.19483	0.91357	0.42037	0.065
Mof_C 	C 	0.1969	0.90894	0.30801	0.023
Mof_C 	C 	0.14272	0.8739	0.29133	0.099
Mof_C 	C 	0.07317	0.83138	0.22481	0.025
Mof_C 	C 	0.05715	0.82664	0.29808	0.053
Mof_C 	C 	0.00661	0.80075	0.33559	0.035
Mof_C 	C 	0.00044	0.81879	0.40427	-0.095
Mof_H 	H 	0.02903	0.84797	0.42627	0.074
Mof_C 	C 	0.95367	0.79487	0.44024	0.027
Mof_H 	H 	0.95033	0.80787	0.48667	0.032
Mof_C 	C 	0.91083	0.75171	0.40966	-0.103
Mof_C 	C 	0.91668	0.7332	0.34101	0.025
Mof_H 	H 	0.88813	0.70367	0.31947	0.036
Mof_C 	C 	0.96381	0.75762	0.30428	-0.096
Mof_H 	H 	0.96713	0.74507	0.25757	0.067
Mof_C 	C 	0.86059	0.72406	0.45225	0.34
Mof_C 	C 	0.04373	0.81153	0.15533	0.024
Mof_C 	C 	0.0608	0.78854	0.1034	-0.091
Mof_H 	H 	0.09023	0.78537	0.11397	0.053
Mof_C 	C 	0.0349	0.77036	0.03648	0.014
Mof_H 	H 	0.04663	0.75477	0.00157	0.037
Mof_C 	C 	0.99172	0.77504	0.0206	-0.077
Mof_C 	C 	0.97547	0.79915	0.07117	0.011
Mof_H 	H 	0.94693	0.80367	0.05967	0.045
Mof_C 	C 	0.00109	0.81667	0.13877	-0.082
Mof_H 	H 	0.98923	0.83217	0.17367	0.061
Mof_C 	C 	0.96151	0.75151	0.95027	0.296
Mof_H 	H 	0.10373	0.85617	0.37967	0.21
Mof_Zn	Zn	0.77142	0.62518	0.4807	1.208
Mof_N 	N 	0.74164	0.63542	0.57983	-0.245
Mof_N 	N 	0.80606	0.59882	0.5553	-0.25
Mof_N 	N 	0.81261	0.58157	0.67182	-0.271
Mof_O 	O 	0.98501	0.47706	0.75698	-0.456
Mof_O 	O 	0.92456	0.44807	0.84522	-0.321
Mof_O 	O 	0.94734	0.58201	0.2482	-0.368
Mof_O 	O 	0.9031	0.49762	0.26463	-0.416
Mof_C 	C 	0.70653	0.65053	0.588	0.071
Mof_H 	H 	0.695	0.6604	0.5453	0.003
Mof_C 	C 	0.68646	0.6523	0.6566	-0.112
Mof_H 	H 	0.661	0.6624	0.6605	0.082
Mof_C 	C 	0.70383	0.6391	0.7189	0.031
Mof_H 	H 	0.6911	0.6407	0.7664	0.024
Mof_C 	C 	0.74031	0.6235	0.7115	-0.09
Mof_H 	H 	0.7531	0.6146	0.7537	0.065
Mof_C 	C 	0.75773	0.6213	0.64134	0.023
Mof_C 	C 	0.79277	0.60216	0.62466	0.099
Mof_C 	C 	0.83529	0.57513	0.55814	0.025
Mof_C 	C 	0.84003	0.56385	0.63141	0.053
Mof_C 	C 	0.86592	0.5392	0.66892	0.035
Mof_C 	C 	0.84788	0.51499	0.7376	-0.095
Mof_H 	H 	0.8187	0.5144	0.7596	0.074
Mof_C 	C 	0.8718	0.49214	0.77357	0.027
Mof_H 	H 	0.8588	0.4758	0.82	0.032
Mof_C 	C 	0.91496	0.49246	0.74299	-0.103
Mof_C 	C 	0.93347	0.51682	0.67434	0.025
Mof_H 	H 	0.963	0.5178	0.6528	0.037
Mof_C 	C 	0.90905	0.53953	0.63761	-0.096
Mof_H 	H 	0.9216	0.5554	0.5909	0.067
Mof_C 	C 	0.94261	0.46987	0.78558	0.34
Mof_C 	C 	0.85514	0.56554	0.48866	0.025
Mof_C 	C 	0.87813	0.6056	0.43673	-0.091
Mof_H 	H 	0.8813	0.6382	0.4473	0.053
Mof_C 	C 	0.89631	0.59788	0.36981	0.013
Mof_H 	H 	0.9119	0.6252	0.3349	0.037
Mof_C 	C 	0.89163	0.55002	0.35393	-0.076
Mof_C 	C 	0.86752	0.50966	0.4045	0.012
Mof_H 	H 	0.863	0.4766	0.393	0.045
Mof_C 	C 	0.85	0.51776	0.4721	-0.084
Mof_H 	H 	0.8345	0.4904	0.507	0.062
Mof_C 	C 	0.91516	0.54334	0.2836	0.296
Mof_H 	H 	0.8105	0.5809	0.713	0.21
Mof_Zn	Zn	0.43809	0.95851	0.81403	1.208
Mof_N 	N 	0.40831	0.96875	0.91316	-0.246
Mof_N 	N 	0.47273	0.93215	0.88863	-0.25
Mof_N 	N 	0.47928	0.9149	0.00515	-0.27
Mof_O 	O 	0.65168	0.81039	0.09031	-0.457
Mof_O 	O 	0.59123	0.7814	0.17855	-0.321
Mof_O 	O 	0.61401	0.91534	0.58153	-0.368
Mof_O 	O 	0.56977	0.83095	0.59796	-0.416
Mof_C 	C 	0.3732	0.98386	0.92133	0.071
Mof_H 	H 	0.36167	0.99373	0.87863	0.003
Mof_C 	C 	0.35313	0.98563	0.98993	-0.114
Mof_H 	H 	0.32767	0.99573	0.99383	0.082
Mof_C 	C 	0.3705	0.97243	0.05223	0.033
Mof_H 	H 	0.35777	0.97403	0.09973	0.024
Mof_C 	C 	0.40698	0.95683	0.04483	-0.089
Mof_H 	H 	0.41977	0.94793	0.08703	0.065
Mof_C 	C 	0.4244	0.95463	0.97467	0.023
Mof_C 	C 	0.45944	0.93549	0.95799	0.099
Mof_C 	C 	0.50196	0.90846	0.89147	0.026
Mof_C 	C 	0.5067	0.89718	0.96474	0.051
Mof_C 	C 	0.53259	0.87253	0.00225	0.038
Mof_C 	C 	0.51455	0.84832	0.07093	-0.097
Mof_H 	H 	0.48537	0.84773	0.09293	0.075
Mof_C 	C 	0.53847	0.82547	0.1069	0.029
Mof_H 	H 	0.52547	0.80913	0.15333	0.032
Mof_C 	C 	0.58163	0.82579	0.07632	-0.104
Mof_C 	C 	0.60014	0.85015	0.00767	0.028
Mof_H 	H 	0.62967	0.85113	0.98613	0.035
Mof_C 	C 	0.57572	0.87286	0.97094	-0.099
Mof_H 	H 	0.58827	0.88873	0.92423	0.068
Mof_C 	C 	0.60928	0.8032	0.11891	0.341
Mof_C 	C 	0.52181	0.89887	0.82199	0.024
Mof_C 	C 	0.5448	0.93893	0.77006	-0.091
Mof_H 	H 	0.54797	0.97153	0.78063	0.053
Mof_C 	C 	0.56298	0.93121	0.70314	0.013
Mof_H 	H 	0.57857	0.95853	0.66823	0.037
Mof_C 	C 	0.5583	0.88335	0.68726	-0.076
Mof_C 	C 	0.53419	0.84299	0.73783	0.012
Mof_H 	H 	0.52967	0.80993	0.72633	0.045
Mof_C 	C 	0.51667	0.85109	0.80543	-0.084
Mof_H 	H 	0.50117	0.82373	0.84033	0.062
Mof_C 	C 	0.58183	0.87667	0.61693	0.296
Mof_H 	H 	0.47717	0.91423	0.04633	0.209
Mof_Zn	Zn	0.10475	0.29185	0.14737	1.208
Mof_N 	N 	0.07497	0.30209	0.2465	-0.245
Mof_N 	N 	0.13939	0.26549	0.22197	-0.25
Mof_N 	N 	0.14594	0.24824	0.33849	-0.271
Mof_O 	O 	0.31834	0.14373	0.42365	-0.456
Mof_O 	O 	0.25789	0.11474	0.51189	-0.321
Mof_O 	O 	0.28067	0.24868	0.91487	-0.368
Mof_O 	O 	0.23643	0.16429	0.9313	-0.416
Mof_C 	C 	0.03986	0.3172	0.25467	0.07
Mof_H 	H 	0.02833	0.32707	0.21197	0.004
Mof_C 	C 	0.01979	0.31897	0.32327	-0.111
Mof_H 	H 	0.99433	0.32907	0.32717	0.081
Mof_C 	C 	0.03716	0.30577	0.38557	0.03
Mof_H 	H 	0.02443	0.30737	0.43307	0.025
Mof_C 	C 	0.07364	0.29017	0.37817	-0.089
Mof_H 	H 	0.08643	0.28127	0.42037	0.065
Mof_C 	C 	0.09106	0.28797	0.30801	0.023
Mof_C 	C 	0.1261	0.26883	0.29133	0.099
Mof_C 	C 	0.16862	0.2418	0.22481	0.025
Mof_C 	C 	0.17336	0.23052	0.29808	0.053
Mof_C 	C 	0.19925	0.20587	0.33559	0.035
Mof_C 	C 	0.18121	0.18166	0.40427	-0.095
Mof_H 	H 	0.15203	0.18107	0.42627	0.074
Mof_C 	C 	0.20513	0.15881	0.44024	0.027
Mof_H 	H 	0.19213	0.14247	0.48667	0.032
Mof_C 	C 	0.24829	0.15913	0.40966	-0.103
Mof_C 	C 	0.2668	0.18349	0.34101	0.025
Mof_H 	H 	0.29633	0.18447	0.31947	0.036
Mof_C 	C 	0.24238	0.2062	0.30428	-0.096
Mof_H 	H 	0.25493	0.22207	0.25757	0.067
Mof_C 	C 	0.27594	0.13654	0.45225	0.34
Mof_C 	C 	0.18847	0.23221	0.15533	0.025
Mof_C 	C 	0.21146	0.27227	0.1034	-0.091
Mof_H 	H 	0.21463	0.30487	0.11397	0.053
Mof_C 	C 	0.22964	0.26455	0.03648	0.013
Mof_H 	H 	0.24523	0.29187	0.00157	0.037
Mof_C 	C 	0.22496	0.21669	0.0206	-0.076
Mof_C 	C 	0.20085	0.17633	0.07117	0.012
Mof_H 	H 	0.19633	0.14327	0.05967	0.045
Mof_C 	C 	0.18333	0.18443	0.13877	-0.084
Mof_H 	H 	0.16783	0.15707	0.17367	0.062
Mof_C 	C 	0.24849	0.21001	0.95027	0.296
Mof_H 	H 	0.14383	0.24757	0.37967	0.21
_end
