data_functionalizedCrystal
_audit_creation_method	'EQeq! by Chris Wilmer'
_symmetry_space_group_name_H-M	'P1'
_symmetry_Int_Tables_number	1
_symmetry_cell_setting	triclinic
loop_
_symmetry_equiv_pos_as_xyz
  x,y,z
_cell_length_a	7.0187
_cell_length_b	7.0187
_cell_length_c	7.5098
_cell_angle_alpha	90
_cell_angle_beta	90
_cell_angle_gamma	90
loop_
_atom_site_label
_atom_site_type_symbol
_atom_site_fract_x
_atom_site_fract_y
_atom_site_fract_z
_atom_site_charge
Mof_C 	C 	0.90081	0.4541	0.6479	0.008
Mof_H 	H 	0.8156	0.4173	0.7667	0.081
Mof_C 	C 	0.09919	0.5459	0.6479	0.008
Mof_H 	H 	0.1844	0.5827	0.7667	0.081
Mof_C 	C 	0.5459	0.90081	0.6479	0.007
Mof_H 	H 	0.5827	0.8156	0.7667	0.08
Mof_C 	C 	0.4541	0.09919	0.6479	0.007
Mof_H 	H 	0.4173	0.1844	0.7667	0.08
Mof_C 	C 	0.09919	0.4541	0.3521	0.007
Mof_H 	H 	0.1844	0.4173	0.2333	0.081
Mof_C 	C 	0.90081	0.5459	0.3521	0.007
Mof_H 	H 	0.8156	0.5827	0.2333	0.081
Mof_C 	C 	0.4541	0.90081	0.3521	0.007
Mof_H 	H 	0.4173	0.8156	0.2333	0.081
Mof_C 	C 	0.5459	0.09919	0.3521	0.007
Mof_H 	H 	0.5827	0.1844	0.2333	0.081
Mof_C 	C 	0.09919	0.5459	0.3521	0.007
Mof_H 	H 	0.1844	0.5827	0.2333	0.081
Mof_C 	C 	0.90081	0.4541	0.3521	0.007
Mof_H 	H 	0.8156	0.4173	0.2333	0.081
Mof_C 	C 	0.4541	0.09919	0.3521	0.007
Mof_H 	H 	0.4173	0.1844	0.2333	0.081
Mof_C 	C 	0.5459	0.90081	0.3521	0.007
Mof_H 	H 	0.5827	0.8156	0.2333	0.081
Mof_C 	C 	0.90081	0.5459	0.6479	0.007
Mof_H 	H 	0.8156	0.5827	0.7667	0.08
Mof_C 	C 	0.09919	0.4541	0.6479	0.007
Mof_H 	H 	0.1844	0.4173	0.7667	0.08
Mof_C 	C 	0.5459	0.09919	0.6479	0.007
Mof_H 	H 	0.5827	0.1844	0.7667	0.08
Mof_C 	C 	0.4541	0.90081	0.6479	0.007
Mof_H 	H 	0.4173	0.8156	0.7667	0.08
Mof_Ni	Ni	0.5	0.5	0.5	1.156
Mof_Si	Si	0.5	0.5	-0	3.39
Mof_F 	F 	0.5	0.5	0.7634	-0.89
Mof_F 	F 	0.5	0.5	0.2366	-0.888
Mof_F 	F 	0.664	0.664	-0	-0.858
Mof_F 	F 	0.336	0.336	-0	-0.858
Mof_F 	F 	0.336	0.664	-0	-0.858
Mof_F 	F 	0.664	0.336	-0	-0.858
Mof_N 	N 	0.8045	0.5	0.5	-0.185
Mof_N 	N 	0.1955	0.5	0.5	-0.185
Mof_N 	N 	0.5	0.8045	0.5	-0.185
Mof_N 	N 	0.5	0.1955	0.5	-0.185
_end
