# CIF file generated by openbabel 3.1.0, see https://openbabel.org
data_I
_chemical_name_common 'image0'
_cell_length_a 17.1607
_cell_length_b 17.1607
_cell_length_c 17.1607
_cell_angle_alpha 90
_cell_angle_beta 90
_cell_angle_gamma 90
_space_group_name_H-M_alt 'P 1'
_space_group_name_Hall 'P 1'
loop_
    _symmetry_equiv_pos_as_xyz
    x,y,z
loop_
    _atom_site_label
    _atom_site_type_symbol
    _atom_site_fract_x
    _atom_site_fract_y
    _atom_site_fract_z
    _atom_site_occupancy
    H1       H        0.36670    0.00550    0.56870    1.000
    H2       H        0.38700    0.97700    0.59700    1.000
    H3       H        0.63330    0.99450    0.56870    1.000
    H4       H        0.61300    0.02300    0.59700    1.000
    H5       H        0.63330    0.00550    0.43130    1.000
    H6       H        0.61300    0.97700    0.40300    1.000
    H7       H        0.36670    0.99450    0.43130    1.000
    H8       H        0.38700    0.02300    0.40300    1.000
    H9       H        0.56870    0.36670    0.00550    1.000
    H10      H        0.59700    0.38700    0.97700    1.000
    H11      H        0.56870    0.63330    0.99450    1.000
    H12      H        0.59700    0.61300    0.02300    1.000
    H13      H        0.43130    0.63330    0.00550    1.000
    H14      H        0.40300    0.61300    0.97700    1.000
    H15      H        0.43130    0.36670    0.99450    1.000
    H16      H        0.40300    0.38700    0.02300    1.000
    H17      H        0.00550    0.56870    0.36670    1.000
    H18      H        0.97700    0.59700    0.38700    1.000
    H19      H        0.99450    0.56870    0.63330    1.000
    H20      H        0.02300    0.59700    0.61300    1.000
    H21      H        0.00550    0.43130    0.63330    1.000
    H22      H        0.97700    0.40300    0.61300    1.000
    H23      H        0.99450    0.43130    0.36670    1.000
    H24      H        0.02300    0.40300    0.38700    1.000
    H25      H        0.00550    0.36670    0.56870    1.000
    H26      H        0.97700    0.38700    0.59700    1.000
    H27      H        0.99450    0.63330    0.56870    1.000
    H28      H        0.02300    0.61300    0.59700    1.000
    H29      H        0.00550    0.63330    0.43130    1.000
    H30      H        0.97700    0.61300    0.40300    1.000
    H31      H        0.99450    0.36670    0.43130    1.000
    H32      H        0.02300    0.38700    0.40300    1.000
    H33      H        0.36670    0.56870    0.00550    1.000
    H34      H        0.38700    0.59700    0.97700    1.000
    H35      H        0.63330    0.56870    0.99450    1.000
    H36      H        0.61300    0.59700    0.02300    1.000
    H37      H        0.63330    0.43130    0.00550    1.000
    H38      H        0.61300    0.40300    0.97700    1.000
    H39      H        0.36670    0.43130    0.99450    1.000
    H40      H        0.38700    0.40300    0.02300    1.000
    H41      H        0.56870    0.00550    0.36670    1.000
    H42      H        0.59700    0.97700    0.38700    1.000
    H43      H        0.56870    0.99450    0.63330    1.000
    H44      H        0.59700    0.02300    0.61300    1.000
    H45      H        0.43130    0.00550    0.63330    1.000
    H46      H        0.40300    0.97700    0.61300    1.000
    H47      H        0.43130    0.99450    0.36670    1.000
    H48      H        0.40300    0.02300    0.38700    1.000
    Zn1      Zn       0.56551    0.43449    0.43449    1.000
    Zn2      Zn       0.43449    0.56551    0.43449    1.000
    Zn3      Zn       0.43449    0.43449    0.56551    1.000
    Zn4      Zn       0.56551    0.56551    0.56551    1.000
    O1       O        0.54697    0.32469    0.45303    1.000
    C1       C        0.44900    0.16780    0.55100    1.000
    H49      H        0.41300    0.20500    0.58700    1.000
    C2       C        0.45090    0.08460    0.54910    1.000
    H50      H        0.36710    0.07050    0.63290    1.000
    C3       C        0.39960    0.04110    0.60040    1.000
    O2       O        0.45303    0.67531    0.45303    1.000
    C4       C        0.55100    0.83220    0.55100    1.000
    H51      H        0.58700    0.79500    0.58700    1.000
    C5       C        0.54910    0.91540    0.54910    1.000
    H52      H        0.63290    0.92950    0.63290    1.000
    C6       C        0.60040    0.95890    0.60040    1.000
    O3       O        0.45303    0.32469    0.54697    1.000
    C7       C        0.55100    0.16780    0.44900    1.000
    H53      H        0.58700    0.20500    0.41300    1.000
    C8       C        0.54910    0.08460    0.45090    1.000
    H54      H        0.63290    0.07050    0.36710    1.000
    C9       C        0.60040    0.04110    0.39960    1.000
    O4       O        0.54697    0.67531    0.54697    1.000
    C10      C        0.44900    0.83220    0.44900    1.000
    H55      H        0.41300    0.79500    0.41300    1.000
    C11      C        0.45090    0.91540    0.45090    1.000
    H56      H        0.36710    0.92950    0.36710    1.000
    C12      C        0.39960    0.95890    0.39960    1.000
    O5       O        0.45303    0.54697    0.32469    1.000
    C13      C        0.55100    0.44900    0.16780    1.000
    H57      H        0.58700    0.41300    0.20500    1.000
    C14      C        0.54910    0.45090    0.08460    1.000
    H58      H        0.63290    0.36710    0.07050    1.000
    C15      C        0.60040    0.39960    0.04110    1.000
    O6       O        0.45303    0.45303    0.67531    1.000
    C16      C        0.55100    0.55100    0.83220    1.000
    H59      H        0.58700    0.58700    0.79500    1.000
    C17      C        0.54910    0.54910    0.91540    1.000
    H60      H        0.63290    0.63290    0.92950    1.000
    C18      C        0.60040    0.60040    0.95890    1.000
    O7       O        0.54697    0.45303    0.32469    1.000
    C19      C        0.44900    0.55100    0.16780    1.000
    H61      H        0.41300    0.58700    0.20500    1.000
    C20      C        0.45090    0.54910    0.08460    1.000
    H62      H        0.36710    0.63290    0.07050    1.000
    C21      C        0.39960    0.60040    0.04110    1.000
    O8       O        0.54697    0.54697    0.67531    1.000
    C22      C        0.44900    0.44900    0.83220    1.000
    H63      H        0.41300    0.41300    0.79500    1.000
    C23      C        0.45090    0.45090    0.91540    1.000
    H64      H        0.36710    0.36710    0.92950    1.000
    C24      C        0.39960    0.39960    0.95890    1.000
    O9       O        0.32469    0.45303    0.54697    1.000
    C25      C        0.16780    0.55100    0.44900    1.000
    H65      H        0.20500    0.58700    0.41300    1.000
    C26      C        0.08460    0.54910    0.45090    1.000
    H66      H        0.07050    0.63290    0.36710    1.000
    C27      C        0.04110    0.60040    0.39960    1.000
    O10      O        0.67531    0.45303    0.45303    1.000
    C28      C        0.83220    0.55100    0.55100    1.000
    H67      H        0.79500    0.58700    0.58700    1.000
    C29      C        0.91540    0.54910    0.54910    1.000
    H68      H        0.92950    0.63290    0.63290    1.000
    C30      C        0.95890    0.60040    0.60040    1.000
    O11      O        0.32469    0.54697    0.45303    1.000
    C31      C        0.16780    0.44900    0.55100    1.000
    H69      H        0.20500    0.41300    0.58700    1.000
    C32      C        0.08460    0.45090    0.54910    1.000
    H70      H        0.07050    0.36710    0.63290    1.000
    C33      C        0.04110    0.39960    0.60040    1.000
    O12      O        0.67531    0.54697    0.54697    1.000
    C34      C        0.83220    0.44900    0.44900    1.000
    H71      H        0.79500    0.41300    0.41300    1.000
    C35      C        0.91540    0.45090    0.45090    1.000
    H72      H        0.92950    0.36710    0.36710    1.000
    C36      C        0.95890    0.39960    0.39960    1.000
    O13      O        0.50000    0.50000    0.50000    1.000
    C37      C        0.50000    0.28850    0.50000    1.000
    C38      C        0.50000    0.20600    0.50000    1.000
    C39      C        0.50000    0.04360    0.50000    1.000
    C40      C        0.50000    0.71150    0.50000    1.000
    C41      C        0.50000    0.79400    0.50000    1.000
    C42      C        0.50000    0.95640    0.50000    1.000
    C43      C        0.50000    0.50000    0.28850    1.000
    C44      C        0.50000    0.50000    0.20600    1.000
    C45      C        0.50000    0.50000    0.04360    1.000
    C46      C        0.50000    0.50000    0.71150    1.000
    C47      C        0.50000    0.50000    0.79400    1.000
    C48      C        0.50000    0.50000    0.95640    1.000
    C49      C        0.28850    0.50000    0.50000    1.000
    C50      C        0.20600    0.50000    0.50000    1.000
    C51      C        0.04360    0.50000    0.50000    1.000
    C52      C        0.71150    0.50000    0.50000    1.000
    C53      C        0.79400    0.50000    0.50000    1.000
    C54      C        0.95640    0.50000    0.50000    1.000
