data_functionalizedCrystal
_audit_creation_method	'EQeq! by Chris Wilmer'
_symmetry_space_group_name_H-M	'P1'
_symmetry_Int_Tables_number	1
_symmetry_cell_setting	triclinic
loop_
_symmetry_equiv_pos_as_xyz
  x,y,z
_cell_length_a	9.228
_cell_length_b	34.079
_cell_length_c	23.299
_cell_angle_alpha	90
_cell_angle_beta	90
_cell_angle_gamma	90
loop_
_atom_site_label
_atom_site_type_symbol
_atom_site_fract_x
_atom_site_fract_y
_atom_site_fract_z
_atom_site_charge
Mof_C 	C 	0.0008	0.7817	0.4139	0.087
Mof_H 	H 	0.9439	0.7662	0.4377	-0.008
Mof_C 	C 	0.9369	0.7992	0.3666	-0.165
Mof_H 	H 	0.8384	0.7957	0.3597	0.08
Mof_C 	C 	0.0183	0.82142	0.32976	0.103
Mof_C 	C 	0.1605	0.8264	0.3442	-0.169
Mof_H 	H 	0.2197	0.8418	0.321	0.084
Mof_C 	C 	0.2184	0.8089	0.393	0.096
Mof_H 	H 	0.3152	0.8132	0.4022	-0.01
Mof_C 	C 	0.954	0.83847	0.27735	-0.055
Mof_H 	H 	0.8596	0.8264	0.2697	0.041
Mof_C 	C 	0.9418	0.88465	0.27254	-0.083
Mof_H 	H 	0.8492	0.8913	0.2544	0.047
Mof_C 	C 	0.9587	0.90925	0.32653	0.155
Mof_C 	C 	0.8564	0.9092	0.3679	-0.218
Mof_H 	H 	0.7749	0.8934	0.3639	0.101
Mof_C 	C 	0.8712	0.932	0.415	0.129
Mof_H 	H 	0.7968	0.9321	0.4419	-0.02
Mof_C 	C 	0.0799	0.9546	0.3857	0.147
Mof_H 	H 	0.16	0.9707	0.3907	-0.025
Mof_C 	C 	0.0737	0.933	0.3362	-0.227
Mof_H 	H 	0.1481	0.9346	0.3094	0.104
Mof_N 	N 	0.139	0.78625	0.42657	-0.168
Mof_N 	N 	0.9867	0.95437	0.42485	-0.187
Mof_C 	C 	0.5008	0.2817	0.4139	0.105
Mof_H 	H 	0.4439	0.2662	0.4377	-0.014
Mof_C 	C 	0.4369	0.2992	0.3666	-0.186
Mof_H 	H 	0.3384	0.2957	0.3597	0.087
Mof_C 	C 	0.5183	0.32142	0.32976	0.123
Mof_C 	C 	0.6605	0.3264	0.3442	-0.18
Mof_H 	H 	0.7197	0.3418	0.321	0.089
Mof_C 	C 	0.7184	0.3089	0.393	0.103
Mof_H 	H 	0.8152	0.3132	0.4022	-0.013
Mof_C 	C 	0.454	0.33847	0.27735	-0.072
Mof_H 	H 	0.3596	0.3264	0.2697	0.046
Mof_C 	C 	0.4418	0.38465	0.27254	-0.076
Mof_H 	H 	0.3492	0.3913	0.2544	0.044
Mof_C 	C 	0.4587	0.40925	0.32653	0.146
Mof_C 	C 	0.3564	0.4092	0.3679	-0.214
Mof_H 	H 	0.2749	0.3934	0.3639	0.099
Mof_C 	C 	0.3712	0.432	0.415	0.126
Mof_H 	H 	0.2968	0.4321	0.4419	-0.02
Mof_C 	C 	0.5799	0.4546	0.3857	0.147
Mof_H 	H 	0.66	0.4707	0.3907	-0.026
Mof_C 	C 	0.5737	0.433	0.3362	-0.221
Mof_H 	H 	0.6481	0.4346	0.3094	0.102
Mof_N 	N 	0.639	0.28625	0.42657	-0.172
Mof_N 	N 	0.4867	0.45437	0.42485	-0.19
Mof_C 	C 	0.9992	0.2183	0.4139	0.121
Mof_H 	H 	0.0561	0.2338	0.4377	-0.021
Mof_C 	C 	0.0631	0.2008	0.3666	-0.205
Mof_H 	H 	0.1616	0.2043	0.3597	0.094
Mof_C 	C 	0.9817	0.17858	0.32976	0.141
Mof_C 	C 	0.8395	0.1736	0.3442	-0.191
Mof_H 	H 	0.7803	0.1582	0.321	0.093
Mof_C 	C 	0.7816	0.1911	0.393	0.11
Mof_H 	H 	0.6848	0.1868	0.4022	-0.015
Mof_C 	C 	0.046	0.16153	0.27735	-0.089
Mof_H 	H 	0.1404	0.1736	0.2697	0.051
Mof_C 	C 	0.0582	0.11535	0.27254	-0.068
Mof_H 	H 	0.1508	0.1087	0.2544	0.042
Mof_C 	C 	0.0413	0.09075	0.32653	0.137
Mof_C 	C 	0.1436	0.0908	0.3679	-0.209
Mof_H 	H 	0.2251	0.1066	0.3639	0.097
Mof_C 	C 	0.1288	0.068	0.415	0.122
Mof_H 	H 	0.2032	0.0679	0.4419	-0.019
Mof_C 	C 	0.9201	0.0454	0.3857	0.147
Mof_H 	H 	0.84	0.0293	0.3907	-0.027
Mof_C 	C 	0.9263	0.067	0.3362	-0.214
Mof_H 	H 	0.8519	0.0654	0.3094	0.099
Mof_N 	N 	0.861	0.21375	0.42657	-0.176
Mof_N 	N 	0.0133	0.04563	0.42485	-0.191
Mof_C 	C 	0.4992	0.7183	0.4139	0.106
Mof_H 	H 	0.5561	0.7338	0.4377	-0.014
Mof_C 	C 	0.5631	0.7008	0.3666	-0.186
Mof_H 	H 	0.6616	0.7043	0.3597	0.088
Mof_C 	C 	0.4817	0.67858	0.32976	0.123
Mof_C 	C 	0.3395	0.6736	0.3442	-0.18
Mof_H 	H 	0.2803	0.6582	0.321	0.089
Mof_C 	C 	0.2816	0.6911	0.393	0.103
Mof_H 	H 	0.1848	0.6868	0.4022	-0.013
Mof_C 	C 	0.546	0.66153	0.27735	-0.072
Mof_H 	H 	0.6404	0.6736	0.2697	0.046
Mof_C 	C 	0.5582	0.61535	0.27254	-0.076
Mof_H 	H 	0.6508	0.6087	0.2544	0.045
Mof_C 	C 	0.5413	0.59075	0.32653	0.146
Mof_C 	C 	0.6436	0.5908	0.3679	-0.214
Mof_H 	H 	0.7251	0.6066	0.3639	0.099
Mof_C 	C 	0.6288	0.568	0.415	0.126
Mof_H 	H 	0.7032	0.5679	0.4419	-0.019
Mof_C 	C 	0.4201	0.5454	0.3857	0.147
Mof_H 	H 	0.34	0.5293	0.3907	-0.027
Mof_C 	C 	0.4263	0.567	0.3362	-0.221
Mof_H 	H 	0.3519	0.5654	0.3094	0.102
Mof_N 	N 	0.361	0.71375	0.42657	-0.172
Mof_N 	N 	0.5133	0.54563	0.42485	-0.19
Mof_C 	C 	0.9992	0.7817	0.0861	0.12
Mof_H 	H 	0.0561	0.7662	0.0623	-0.025
Mof_C 	C 	0.0631	0.7992	0.1334	-0.206
Mof_H 	H 	0.1616	0.7957	0.1403	0.093
Mof_C 	C 	0.9817	0.82142	0.17024	0.141
Mof_C 	C 	0.8395	0.8264	0.1558	-0.192
Mof_H 	H 	0.7803	0.8418	0.179	0.093
Mof_C 	C 	0.7816	0.8089	0.107	0.109
Mof_H 	H 	0.6848	0.8132	0.0978	-0.017
Mof_C 	C 	0.046	0.83847	0.22265	-0.089
Mof_H 	H 	0.1404	0.8264	0.2303	0.051
Mof_C 	C 	0.0582	0.88465	0.22746	-0.069
Mof_H 	H 	0.1508	0.8913	0.2456	0.042
Mof_C 	C 	0.0413	0.90925	0.17347	0.138
Mof_C 	C 	0.1436	0.9092	0.1321	-0.21
Mof_H 	H 	0.2251	0.8934	0.1361	0.096
Mof_C 	C 	0.1288	0.932	0.085	0.122
Mof_H 	H 	0.2032	0.9321	0.0581	-0.022
Mof_C 	C 	0.9201	0.9546	0.1143	0.147
Mof_H 	H 	0.84	0.9707	0.1093	-0.026
Mof_C 	C 	0.9263	0.933	0.1638	-0.214
Mof_H 	H 	0.8519	0.9346	0.1906	0.1
Mof_N 	N 	0.861	0.78625	0.07343	-0.178
Mof_N 	N 	0.0133	0.95437	0.07515	-0.191
Mof_C 	C 	0.4992	0.2817	0.0861	0.105
Mof_H 	H 	0.5561	0.2662	0.0623	-0.018
Mof_C 	C 	0.5631	0.2992	0.1334	-0.187
Mof_H 	H 	0.6616	0.2957	0.1403	0.087
Mof_C 	C 	0.4817	0.32142	0.17024	0.123
Mof_C 	C 	0.3395	0.3264	0.1558	-0.181
Mof_H 	H 	0.2803	0.3418	0.179	0.088
Mof_C 	C 	0.2816	0.3089	0.107	0.103
Mof_H 	H 	0.1848	0.3132	0.0978	-0.015
Mof_C 	C 	0.546	0.33847	0.22265	-0.072
Mof_H 	H 	0.6404	0.3264	0.2303	0.046
Mof_C 	C 	0.5582	0.38465	0.22746	-0.076
Mof_H 	H 	0.6508	0.3913	0.2456	0.045
Mof_C 	C 	0.5413	0.40925	0.17347	0.146
Mof_C 	C 	0.6436	0.4092	0.1321	-0.215
Mof_H 	H 	0.7251	0.3934	0.1361	0.098
Mof_C 	C 	0.6288	0.432	0.085	0.125
Mof_H 	H 	0.7032	0.4321	0.0581	-0.024
Mof_C 	C 	0.4201	0.4546	0.1143	0.147
Mof_H 	H 	0.34	0.4707	0.1093	-0.028
Mof_C 	C 	0.4263	0.433	0.1638	-0.222
Mof_H 	H 	0.3519	0.4346	0.1906	0.102
Mof_N 	N 	0.361	0.28625	0.07343	-0.174
Mof_N 	N 	0.5133	0.45437	0.07515	-0.191
Mof_C 	C 	0.0008	0.2183	0.0861	0.087
Mof_H 	H 	0.9439	0.2338	0.0623	-0.01
Mof_C 	C 	0.9369	0.2008	0.1334	-0.165
Mof_H 	H 	0.8384	0.2043	0.1403	0.08
Mof_C 	C 	0.0183	0.17858	0.17024	0.104
Mof_C 	C 	0.1605	0.1736	0.1558	-0.169
Mof_H 	H 	0.2197	0.1582	0.179	0.084
Mof_C 	C 	0.2184	0.1911	0.107	0.095
Mof_H 	H 	0.3152	0.1868	0.0978	-0.012
Mof_C 	C 	0.954	0.16153	0.22265	-0.054
Mof_H 	H 	0.8596	0.1736	0.2303	0.041
Mof_C 	C 	0.9418	0.11535	0.22746	-0.083
Mof_H 	H 	0.8492	0.1087	0.2456	0.047
Mof_C 	C 	0.9587	0.09075	0.17347	0.155
Mof_C 	C 	0.8564	0.0908	0.1321	-0.22
Mof_H 	H 	0.7749	0.1066	0.1361	0.1
Mof_C 	C 	0.8712	0.068	0.085	0.128
Mof_H 	H 	0.7968	0.0679	0.0581	-0.025
Mof_C 	C 	0.0799	0.0454	0.1143	0.146
Mof_H 	H 	0.16	0.0293	0.1093	-0.029
Mof_C 	C 	0.0737	0.067	0.1638	-0.229
Mof_H 	H 	0.1481	0.0654	0.1906	0.104
Mof_N 	N 	0.139	0.21375	0.07343	-0.17
Mof_N 	N 	0.9867	0.04563	0.07515	-0.19
Mof_C 	C 	0.5008	0.7183	0.0861	0.105
Mof_H 	H 	0.4439	0.7338	0.0623	-0.018
Mof_C 	C 	0.4369	0.7008	0.1334	-0.187
Mof_H 	H 	0.3384	0.7043	0.1403	0.087
Mof_C 	C 	0.5183	0.67858	0.17024	0.123
Mof_C 	C 	0.6605	0.6736	0.1558	-0.181
Mof_H 	H 	0.7197	0.6582	0.179	0.089
Mof_C 	C 	0.7184	0.6911	0.107	0.102
Mof_H 	H 	0.8152	0.6868	0.0978	-0.014
Mof_C 	C 	0.454	0.66153	0.22265	-0.072
Mof_H 	H 	0.3596	0.6736	0.2303	0.046
Mof_C 	C 	0.4418	0.61535	0.22746	-0.076
Mof_H 	H 	0.3492	0.6087	0.2456	0.044
Mof_C 	C 	0.4587	0.59075	0.17347	0.146
Mof_C 	C 	0.3564	0.5908	0.1321	-0.215
Mof_H 	H 	0.2749	0.6066	0.1361	0.098
Mof_C 	C 	0.3712	0.568	0.085	0.125
Mof_H 	H 	0.2968	0.5679	0.0581	-0.024
Mof_C 	C 	0.5799	0.5454	0.1143	0.147
Mof_H 	H 	0.66	0.5293	0.1093	-0.028
Mof_C 	C 	0.5737	0.567	0.1638	-0.222
Mof_H 	H 	0.6481	0.5654	0.1906	0.102
Mof_N 	N 	0.639	0.71375	0.07343	-0.174
Mof_N 	N 	0.4867	0.54563	0.07515	-0.191
Mof_C 	C 	0.9992	0.2183	0.5861	0.12
Mof_H 	H 	0.0561	0.2338	0.5623	-0.021
Mof_C 	C 	0.0631	0.2008	0.6334	-0.204
Mof_H 	H 	0.1616	0.2043	0.6403	0.094
Mof_C 	C 	0.9817	0.17858	0.67024	0.14
Mof_C 	C 	0.8395	0.1736	0.6558	-0.191
Mof_H 	H 	0.7803	0.1582	0.679	0.093
Mof_C 	C 	0.7816	0.1911	0.607	0.11
Mof_H 	H 	0.6848	0.1868	0.5978	-0.015
Mof_C 	C 	0.046	0.16153	0.72265	-0.088
Mof_H 	H 	0.1404	0.1736	0.7303	0.051
Mof_C 	C 	0.0582	0.11535	0.72746	-0.069
Mof_H 	H 	0.1508	0.1087	0.7456	0.043
Mof_C 	C 	0.0413	0.09075	0.67347	0.138
Mof_C 	C 	0.1436	0.0908	0.6321	-0.21
Mof_H 	H 	0.2251	0.1066	0.6361	0.097
Mof_C 	C 	0.1288	0.068	0.585	0.122
Mof_H 	H 	0.2032	0.0679	0.5581	-0.019
Mof_C 	C 	0.9201	0.0454	0.6143	0.147
Mof_H 	H 	0.84	0.0293	0.6093	-0.027
Mof_C 	C 	0.9263	0.067	0.6638	-0.215
Mof_H 	H 	0.8519	0.0654	0.6906	0.1
Mof_N 	N 	0.861	0.21375	0.57343	-0.176
Mof_N 	N 	0.0133	0.04563	0.57515	-0.191
Mof_C 	C 	0.4992	0.7183	0.5861	0.106
Mof_H 	H 	0.5561	0.7338	0.5623	-0.014
Mof_C 	C 	0.5631	0.7008	0.6334	-0.186
Mof_H 	H 	0.6616	0.7043	0.6403	0.088
Mof_C 	C 	0.4817	0.67858	0.67024	0.123
Mof_C 	C 	0.3395	0.6736	0.6558	-0.18
Mof_H 	H 	0.2803	0.6582	0.679	0.089
Mof_C 	C 	0.2816	0.6911	0.607	0.103
Mof_H 	H 	0.1848	0.6868	0.5978	-0.013
Mof_C 	C 	0.546	0.66153	0.72265	-0.072
Mof_H 	H 	0.6404	0.6736	0.7303	0.046
Mof_C 	C 	0.5582	0.61535	0.72746	-0.076
Mof_H 	H 	0.6508	0.6087	0.7456	0.045
Mof_C 	C 	0.5413	0.59075	0.67347	0.147
Mof_C 	C 	0.6436	0.5908	0.6321	-0.214
Mof_H 	H 	0.7251	0.6066	0.6361	0.1
Mof_C 	C 	0.6288	0.568	0.585	0.126
Mof_H 	H 	0.7032	0.5679	0.5581	-0.019
Mof_C 	C 	0.4201	0.5454	0.6143	0.148
Mof_H 	H 	0.34	0.5293	0.6093	-0.027
Mof_C 	C 	0.4263	0.567	0.6638	-0.221
Mof_H 	H 	0.3519	0.5654	0.6906	0.102
Mof_N 	N 	0.361	0.71375	0.57343	-0.172
Mof_N 	N 	0.5133	0.54563	0.57515	-0.19
Mof_C 	C 	0.0008	0.7817	0.5861	0.089
Mof_H 	H 	0.9439	0.7662	0.5623	-0.007
Mof_C 	C 	0.9369	0.7992	0.6334	-0.165
Mof_H 	H 	0.8384	0.7957	0.6403	0.081
Mof_C 	C 	0.0183	0.82142	0.67024	0.105
Mof_C 	C 	0.1605	0.8264	0.6558	-0.169
Mof_H 	H 	0.2197	0.8418	0.679	0.085
Mof_C 	C 	0.2184	0.8089	0.607	0.096
Mof_H 	H 	0.3152	0.8132	0.5978	-0.01
Mof_C 	C 	0.954	0.83847	0.72265	-0.055
Mof_H 	H 	0.8596	0.8264	0.7303	0.042
Mof_C 	C 	0.9418	0.88465	0.72746	-0.083
Mof_H 	H 	0.8492	0.8913	0.7456	0.048
Mof_C 	C 	0.9587	0.90925	0.67347	0.155
Mof_C 	C 	0.8564	0.9092	0.6321	-0.218
Mof_H 	H 	0.7749	0.8934	0.6361	0.101
Mof_C 	C 	0.8712	0.932	0.585	0.129
Mof_H 	H 	0.7968	0.9321	0.5581	-0.02
Mof_C 	C 	0.0799	0.9546	0.6143	0.147
Mof_H 	H 	0.16	0.9707	0.6093	-0.025
Mof_C 	C 	0.0737	0.933	0.6638	-0.228
Mof_H 	H 	0.1481	0.9346	0.6906	0.105
Mof_N 	N 	0.139	0.78625	0.57343	-0.168
Mof_N 	N 	0.9867	0.95437	0.57515	-0.187
Mof_C 	C 	0.5008	0.2817	0.5861	0.106
Mof_H 	H 	0.4439	0.2662	0.5623	-0.014
Mof_C 	C 	0.4369	0.2992	0.6334	-0.186
Mof_H 	H 	0.3384	0.2957	0.6403	0.088
Mof_C 	C 	0.5183	0.32142	0.67024	0.123
Mof_C 	C 	0.6605	0.3264	0.6558	-0.18
Mof_H 	H 	0.7197	0.3418	0.679	0.089
Mof_C 	C 	0.7184	0.3089	0.607	0.103
Mof_H 	H 	0.8152	0.3132	0.5978	-0.013
Mof_C 	C 	0.454	0.33847	0.72265	-0.072
Mof_H 	H 	0.3596	0.3264	0.7303	0.046
Mof_C 	C 	0.4418	0.38465	0.72746	-0.076
Mof_H 	H 	0.3492	0.3913	0.7456	0.045
Mof_C 	C 	0.4587	0.40925	0.67347	0.147
Mof_C 	C 	0.3564	0.4092	0.6321	-0.214
Mof_H 	H 	0.2749	0.3934	0.6361	0.099
Mof_C 	C 	0.3712	0.432	0.585	0.126
Mof_H 	H 	0.2968	0.4321	0.5581	-0.02
Mof_C 	C 	0.5799	0.4546	0.6143	0.148
Mof_H 	H 	0.66	0.4707	0.6093	-0.026
Mof_C 	C 	0.5737	0.433	0.6638	-0.221
Mof_H 	H 	0.6481	0.4346	0.6906	0.102
Mof_N 	N 	0.639	0.28625	0.57343	-0.172
Mof_N 	N 	0.4867	0.45437	0.57515	-0.19
Mof_C 	C 	0.0008	0.2183	0.9139	0.089
Mof_H 	H 	0.9439	0.2338	0.9377	-0.001
Mof_C 	C 	0.9369	0.2008	0.8666	-0.163
Mof_H 	H 	0.8384	0.2043	0.8597	0.082
Mof_C 	C 	0.0183	0.17858	0.82976	0.104
Mof_C 	C 	0.1605	0.1736	0.8442	-0.167
Mof_H 	H 	0.2197	0.1582	0.821	0.085
Mof_C 	C 	0.2184	0.1911	0.893	0.097
Mof_H 	H 	0.3152	0.1868	0.9022	-0.006
Mof_C 	C 	0.954	0.16153	0.77735	-0.055
Mof_H 	H 	0.8596	0.1736	0.7697	0.042
Mof_C 	C 	0.9418	0.11535	0.77254	-0.082
Mof_H 	H 	0.8492	0.1087	0.7544	0.047
Mof_C 	C 	0.9587	0.09075	0.82653	0.153
Mof_C 	C 	0.8564	0.0908	0.8679	-0.216
Mof_H 	H 	0.7749	0.1066	0.8639	0.102
Mof_C 	C 	0.8712	0.068	0.915	0.129
Mof_H 	H 	0.7968	0.0679	0.9419	-0.014
Mof_C 	C 	0.0799	0.0454	0.8857	0.146
Mof_H 	H 	0.16	0.0293	0.8907	-0.023
Mof_C 	C 	0.0737	0.067	0.8362	-0.226
Mof_H 	H 	0.1481	0.0654	0.8094	0.103
Mof_N 	N 	0.139	0.21375	0.92657	-0.162
Mof_N 	N 	0.9867	0.04563	0.92485	-0.182
Mof_C 	C 	0.5008	0.7183	0.9139	0.106
Mof_H 	H 	0.4439	0.7338	0.9377	-0.008
Mof_C 	C 	0.4369	0.7008	0.8666	-0.183
Mof_H 	H 	0.3384	0.7043	0.8597	0.088
Mof_C 	C 	0.5183	0.67858	0.82976	0.123
Mof_C 	C 	0.6605	0.6736	0.8442	-0.178
Mof_H 	H 	0.7197	0.6582	0.821	0.089
Mof_C 	C 	0.7184	0.6911	0.893	0.104
Mof_H 	H 	0.8152	0.6868	0.9022	-0.009
Mof_C 	C 	0.454	0.66153	0.77735	-0.072
Mof_H 	H 	0.3596	0.6736	0.7697	0.046
Mof_C 	C 	0.4418	0.61535	0.77254	-0.075
Mof_H 	H 	0.3492	0.6087	0.7544	0.045
Mof_C 	C 	0.4587	0.59075	0.82653	0.145
Mof_C 	C 	0.3564	0.5908	0.8679	-0.211
Mof_H 	H 	0.2749	0.6066	0.8639	0.1
Mof_C 	C 	0.3712	0.568	0.915	0.126
Mof_H 	H 	0.2968	0.5679	0.9419	-0.013
Mof_C 	C 	0.5799	0.5454	0.8857	0.146
Mof_H 	H 	0.66	0.5293	0.8907	-0.022
Mof_C 	C 	0.5737	0.567	0.8362	-0.218
Mof_H 	H 	0.6481	0.5654	0.8094	0.102
Mof_N 	N 	0.639	0.71375	0.92657	-0.166
Mof_N 	N 	0.4867	0.54563	0.92485	-0.183
Mof_C 	C 	0.9992	0.7817	0.9139	0.12
Mof_H 	H 	0.0561	0.7662	0.9377	-0.014
Mof_C 	C 	0.0631	0.7992	0.8666	-0.201
Mof_H 	H 	0.1616	0.7957	0.8597	0.094
Mof_C 	C 	0.9817	0.82142	0.82976	0.139
Mof_C 	C 	0.8395	0.8264	0.8442	-0.189
Mof_H 	H 	0.7803	0.8418	0.821	0.093
Mof_C 	C 	0.7816	0.8089	0.893	0.11
Mof_H 	H 	0.6848	0.8132	0.9022	-0.011
Mof_C 	C 	0.046	0.83847	0.77735	-0.088
Mof_H 	H 	0.1404	0.8264	0.7697	0.051
Mof_C 	C 	0.0582	0.88465	0.77254	-0.068
Mof_H 	H 	0.1508	0.8913	0.7544	0.043
Mof_C 	C 	0.0413	0.90925	0.82653	0.138
Mof_C 	C 	0.1436	0.9092	0.8679	-0.206
Mof_H 	H 	0.2251	0.8934	0.8639	0.098
Mof_C 	C 	0.1288	0.932	0.915	0.123
Mof_H 	H 	0.2032	0.9321	0.9419	-0.011
Mof_C 	C 	0.9201	0.9546	0.8857	0.147
Mof_H 	H 	0.84	0.9707	0.8907	-0.02
Mof_C 	C 	0.9263	0.933	0.8362	-0.211
Mof_H 	H 	0.8519	0.9346	0.8094	0.1
Mof_N 	N 	0.861	0.78625	0.92657	-0.169
Mof_N 	N 	0.0133	0.95437	0.92485	-0.182
Mof_C 	C 	0.4992	0.2817	0.9139	0.106
Mof_H 	H 	0.5561	0.2662	0.9377	-0.008
Mof_C 	C 	0.5631	0.2992	0.8666	-0.183
Mof_H 	H 	0.6616	0.2957	0.8597	0.089
Mof_C 	C 	0.4817	0.32142	0.82976	0.123
Mof_C 	C 	0.3395	0.3264	0.8442	-0.179
Mof_H 	H 	0.2803	0.3418	0.821	0.089
Mof_C 	C 	0.2816	0.3089	0.893	0.104
Mof_H 	H 	0.1848	0.3132	0.9022	-0.009
Mof_C 	C 	0.546	0.33847	0.77735	-0.072
Mof_H 	H 	0.6404	0.3264	0.7697	0.047
Mof_C 	C 	0.5582	0.38465	0.77254	-0.075
Mof_H 	H 	0.6508	0.3913	0.7544	0.045
Mof_C 	C 	0.5413	0.40925	0.82653	0.145
Mof_C 	C 	0.6436	0.4092	0.8679	-0.211
Mof_H 	H 	0.7251	0.3934	0.8639	0.1
Mof_C 	C 	0.6288	0.432	0.915	0.126
Mof_H 	H 	0.7032	0.4321	0.9419	-0.013
Mof_C 	C 	0.4201	0.4546	0.8857	0.146
Mof_H 	H 	0.34	0.4707	0.8907	-0.023
Mof_C 	C 	0.4263	0.433	0.8362	-0.219
Mof_H 	H 	0.3519	0.4346	0.8094	0.102
Mof_N 	N 	0.361	0.28625	0.92657	-0.166
Mof_N 	N 	0.5133	0.45437	0.92485	-0.183
Mof_Cd	Cd	0.25	0.75	0.5	0.325
Mof_Cd	Cd	0.75	0.25	0.5	0.327
Mof_Cd	Cd	0.75	0.75	-0	0.307
Mof_Cd	Cd	0.25	0.25	-0	0.305
Mof_Cd	Cd	-9.04766e-33	0	0.5	0.322
Mof_Cd	Cd	0.5	0.5	0.5	0.329
Mof_Cd	Cd	-0	0	-0	0.302
Mof_Cd	Cd	0.5	0.5	-0	0.309
_end
