data_functionalizedCrystal
_audit_creation_method	'EQeq! by Chris Wilmer'
_symmetry_space_group_name_H-M	'P1'
_symmetry_Int_Tables_number	1
_symmetry_cell_setting	triclinic
loop_
_symmetry_equiv_pos_as_xyz
  x,y,z
_cell_length_a	10.798
_cell_length_b	15.8375
_cell_length_c	15.8375
_cell_angle_alpha	94.8089
_cell_angle_beta	103.458
_cell_angle_gamma	103.458
loop_
_atom_site_label
_atom_site_type_symbol
_atom_site_fract_x
_atom_site_fract_y
_atom_site_fract_z
_atom_site_charge
Mof_Co	Co	0.0415	0.9337	0.7721	1.099
Mof_Co	Co	0.2797	0.422	0.2606	1.104
Mof_Co	Co	0.5415	0.7721	0.9337	1.111
Mof_Co	Co	0.7797	0.2606	0.422	1.108
Mof_H 	H 	0.8284	0.7638	0.946	0.031
Mof_H 	H 	0.7475	0.8641	0.7025	-0.005
Mof_H 	H 	0.1683	0.3028	0.0842	-0.048
Mof_H 	H 	0.2523	0.5523	0.1397	-0.066
Mof_H 	H 	0.1184	0.63	0.0666	0.099
Mof_H 	H 	0.0151	0.442	0.2568	0.001
Mof_H 	H 	0.4528	0.7261	0.4497	0.089
Mof_H 	H 	0.5925	0.7655	0.6011	0.1
Mof_H 	H 	0.7359	0.6088	0.4252	0.106
Mof_H 	H 	0.3088	0.6095	0.3497	-0.016
Mof_H 	H 	0.0237	0.8405	0.5885	-0.05
Mof_H 	H 	0.8724	0.7411	0.4823	0.095
Mof_H 	H 	0.5791	0.4928	0.3304	-0.001
Mof_H 	H 	0.9635	0.6836	0.998	0.088
Mof_H 	H 	0.858	0.0646	0.9536	0.068
Mof_H 	H 	0.559	0.6222	0.0512	-0.02
Mof_H 	H 	0.8393	0.4927	0.1773	0.088
Mof_H 	H 	0.6674	0.8819	0.1121	-0.036
Mof_H 	H 	0.0066	0.1842	0.0128	0.078
Mof_H 	H 	0.1011	0.2567	0.3033	0.008
Mof_H 	H 	0.8031	0.0157	0.1801	0.068
Mof_H 	H 	0.907	0.1474	0.2364	0.052
Mof_H 	H 	0.7607	0.9208	0.894	0.003
Mof_H 	H 	0.7155	0.5486	0.0954	0.058
Mof_H 	H 	0.3284	0.946	0.7638	0.029
Mof_H 	H 	0.2475	0.7025	0.8641	-0.008
Mof_H 	H 	0.6683	0.0842	0.3028	-0.037
Mof_H 	H 	0.7523	0.1397	0.5523	-0.055
Mof_H 	H 	0.6184	0.0666	0.63	0.091
Mof_H 	H 	0.5151	0.2568	0.442	-0.003
Mof_H 	H 	0.9528	0.4497	0.7261	0.075
Mof_H 	H 	0.0925	0.6011	0.7655	0.095
Mof_H 	H 	0.2359	0.4252	0.6088	0.085
Mof_H 	H 	0.8088	0.3497	0.6095	-0.002
Mof_H 	H 	0.5237	0.5885	0.8405	-0.003
Mof_H 	H 	0.3724	0.4823	0.7411	0.08
Mof_H 	H 	0.0791	0.3304	0.4928	0.013
Mof_H 	H 	0.4635	0.998	0.6836	0.077
Mof_H 	H 	0.358	0.9536	0.0646	0.065
Mof_H 	H 	0.059	0.0512	0.6222	-0.029
Mof_H 	H 	0.3393	0.1773	0.4927	0.093
Mof_H 	H 	0.1674	0.1121	0.8819	-0.043
Mof_H 	H 	0.5066	0.0128	0.1842	0.069
Mof_H 	H 	0.6011	0.3033	0.2567	0.002
Mof_H 	H 	0.3031	0.1801	0.0157	0.073
Mof_H 	H 	0.407	0.2364	0.1474	0.057
Mof_H 	H 	0.2607	0.894	0.9208	-0.001
Mof_H 	H 	0.2155	0.0954	0.5486	0.056
Mof_C 	C 	0.8011	0.7203	0.9787	0.048
Mof_C 	C 	0.7724	0.8376	0.6568	0.101
Mof_C 	C 	0.1172	0.2703	0.1161	0.102
Mof_C 	C 	0.1685	0.544	0.1488	0.148
Mof_C 	C 	0.0905	0.5917	0.1039	-0.235
Mof_C 	C 	0.9602	0.1378	0.1156	0.084
Mof_C 	C 	0.8658	0.052	0.0734	0.052
Mof_C 	C 	0.7066	0.7373	0.5177	0.057
Mof_C 	C 	0.6087	0.6718	0.4486	0.082
Mof_C 	C 	0.0306	0.4774	0.2144	0.078
Mof_C 	C 	0.8708	0.6223	0.0749	0.027
Mof_C 	C 	0.9681	0.5778	0.1192	0.113
Mof_C 	C 	0.4798	0.6795	0.4269	-0.16
Mof_C 	C 	0.6783	0.7796	0.595	-0.135
Mof_C 	C 	0.6471	0.6081	0.4123	-0.152
Mof_C 	C 	0.3968	0.6083	0.3671	0.103
Mof_C 	C 	0.9362	0.825	0.591	0.157
Mof_C 	C 	0.8421	0.7657	0.5263	-0.16
Mof_C 	C 	0.5527	0.5393	0.3539	0.09
Mof_C 	C 	0.8858	0.676	0.0156	-0.096
Mof_C 	C 	0.8314	0.0247	0.9899	-0.128
Mof_C 	C 	0.6409	0.6384	0.0394	0.041
Mof_C 	C 	0.9252	0.5109	0.1721	-0.124
Mof_C 	C 	0.7097	0.9186	0.0788	0.082
Mof_C 	C 	0.0252	0.1956	0.0736	-0.193
Mof_C 	C 	0.0735	0.2452	0.2424	0.044
Mof_C 	C 	0.794	0.9981	0.1209	-0.127
Mof_C 	C 	0.9673	0.172	0.2062	-0.097
Mof_C 	C 	0.759	0.9418	0.9502	0.074
Mof_C 	C 	0.7421	0.5995	0.0717	-0.095
Mof_C 	C 	0.3011	0.9787	0.7203	0.043
Mof_C 	C 	0.2724	0.6568	0.8376	0.095
Mof_C 	C 	0.6172	0.1161	0.2703	0.084
Mof_C 	C 	0.6685	0.1488	0.544	0.134
Mof_C 	C 	0.5905	0.1039	0.5917	-0.186
Mof_C 	C 	0.4602	0.1156	0.1378	0.046
Mof_C 	C 	0.3658	0.0734	0.052	0.069
Mof_C 	C 	0.2066	0.5177	0.7373	0.059
Mof_C 	C 	0.1087	0.4486	0.6718	0.017
Mof_C 	C 	0.5306	0.2144	0.4774	0.118
Mof_C 	C 	0.3708	0.0749	0.6223	0.032
Mof_C 	C 	0.4681	0.1192	0.5778	0.079
Mof_C 	C 	0.9798	0.4269	0.6795	-0.087
Mof_C 	C 	0.1783	0.595	0.7796	-0.138
Mof_C 	C 	0.1471	0.4123	0.6081	-0.101
Mof_C 	C 	0.8968	0.3671	0.6083	0.077
Mof_C 	C 	0.4362	0.591	0.825	0.083
Mof_C 	C 	0.3421	0.5263	0.7657	-0.132
Mof_C 	C 	0.0527	0.3539	0.5393	0.029
Mof_C 	C 	0.3858	0.0156	0.676	-0.097
Mof_C 	C 	0.3314	0.9899	0.0247	-0.142
Mof_C 	C 	0.1409	0.0394	0.6384	0.043
Mof_C 	C 	0.4252	0.1721	0.5109	-0.156
Mof_C 	C 	0.2097	0.0788	0.9186	0.09
Mof_C 	C 	0.5252	0.0736	0.1956	-0.141
Mof_C 	C 	0.5735	0.2424	0.2452	0.082
Mof_C 	C 	0.294	0.1209	0.9981	-0.147
Mof_C 	C 	0.4673	0.2062	0.172	-0.127
Mof_C 	C 	0.259	0.9502	0.9418	0.074
Mof_C 	C 	0.2421	0.0717	0.5995	-0.102
Mof_N 	N 	0.671	0.7027	0.9883	-0.248
Mof_N 	N 	0.8991	0.86	0.6576	-0.251
Mof_N 	N 	0.1415	0.4906	0.2004	-0.281
Mof_N 	N 	0.4254	0.5389	0.3313	-0.252
Mof_N 	N 	0.138	0.2989	0.2001	-0.249
Mof_N 	N 	0.6857	0.8917	0.9943	-0.248
Mof_N 	N 	0.0233	0.7817	0.8281	0.04
Mof_N 	N 	0.3068	0.3693	0.4105	0.053
Mof_N 	N 	0.171	0.9883	0.7027	-0.251
Mof_N 	N 	0.3991	0.6576	0.86	-0.248
Mof_N 	N 	0.6415	0.2004	0.4906	-0.282
Mof_N 	N 	0.9254	0.3313	0.5389	-0.223
Mof_N 	N 	0.638	0.2001	0.2989	-0.249
Mof_N 	N 	0.1857	0.9943	0.8917	-0.255
Mof_N 	N 	0.5233	0.8281	0.7817	0.053
Mof_N 	N 	0.8068	0.4105	0.3693	0.052
Mof_O 	O 	0.1008	0.8121	0.7833	-0.265
Mof_O 	O 	0.2214	0.4128	0.3844	-0.259
Mof_O 	O 	0.9502	0.8357	0.8433	-0.244
Mof_O 	O 	0.367	0.3478	0.3592	-0.271
Mof_O 	O 	0.0038	0.7119	0.8541	-0.154
Mof_O 	O 	0.3156	0.3464	0.4846	-0.134
Mof_O 	O 	0.6008	0.7833	0.8121	-0.257
Mof_O 	O 	0.7214	0.3844	0.4128	-0.253
Mof_O 	O 	0.4502	0.8433	0.8357	-0.269
Mof_O 	O 	0.867	0.3592	0.3478	-0.26
Mof_O 	O 	0.5038	0.8541	0.7119	-0.139
Mof_O 	O 	0.8156	0.4846	0.3464	-0.126
_end
