data_functionalizedCrystal
_audit_creation_method	'EQeq! by Chris Wilmer'
_symmetry_space_group_name_H-M	'P1'
_symmetry_Int_Tables_number	1
_symmetry_cell_setting	triclinic
loop_
_symmetry_equiv_pos_as_xyz
  x,y,z
_cell_length_a	18.747
_cell_length_b	23.355
_cell_length_c	30.404
_cell_angle_alpha	90
_cell_angle_beta	90
_cell_angle_gamma	90
loop_
_atom_site_label
_atom_site_type_symbol
_atom_site_fract_x
_atom_site_fract_y
_atom_site_fract_z
_atom_site_charge
Mof_Cu	Cu	0.51418	0.38975	0.12143	0.823
Mof_N 	N 	0.52065	0.47349	0.1217	-0.265
Mof_N 	N 	0.46219	0.34458	0.16732	-0.257
Mof_N 	N 	0.31272	0.1616	0.32837	-0.262
Mof_C 	C 	0.54213	0.50213	0.15739	0.073
Mof_H 	H 	0.5579	0.4813	0.1816	-0.031
Mof_C 	C 	0.54201	0.56136	0.16007	-0.138
Mof_H 	H 	0.5565	0.5795	0.1858	0.071
Mof_C 	C 	0.52038	0.59318	0.1244	0.055
Mof_C 	C 	0.4993	0.56371	0.08695	-0.144
Mof_H 	H 	0.4849	0.5836	0.062	0.069
Mof_C 	C 	0.49982	0.50469	0.08705	0.072
Mof_H 	H 	0.485	0.4856	0.0618	-0.036
Mof_C 	C 	0.46957	0.3553	0.21029	0.083
Mof_H 	H 	0.4954	0.3875	0.2188	-0.026
Mof_C 	C 	0.42367	0.29865	0.15625	0.076
Mof_H 	H 	0.417	0.291	0.1265	-0.041
Mof_C 	C 	0.44084	0.32112	0.24258	-0.144
Mof_H 	H 	0.4476	0.3302	0.2721	0.075
Mof_C 	C 	0.39353	0.26227	0.18631	-0.157
Mof_H 	H 	0.3677	0.2306	0.1769	0.078
Mof_C 	C 	0.40175	0.27295	0.23094	0.062
Mof_C 	C 	0.3705	0.23469	0.26458	0.045
Mof_C 	C 	0.34628	0.2554	0.30453	-0.136
Mof_H 	H 	0.3493	0.2943	0.3108	0.069
Mof_C 	C 	0.36441	0.1761	0.25736	-0.136
Mof_H 	H 	0.3794	0.1602	0.2309	0.069
Mof_C 	C 	0.33609	0.14174	0.28974	0.051
Mof_H 	H 	0.3331	0.1026	0.2845	-0.03
Mof_C 	C 	0.31778	0.21821	0.3349	0.058
Mof_H 	H 	0.3011	0.2331	0.3613	-0.016
Mof_Cu	Cu	0.51418	0.88975	0.62143	0.822
Mof_N 	N 	0.52065	0.97349	0.6217	-0.266
Mof_N 	N 	0.46219	0.84458	0.66732	-0.258
Mof_N 	N 	0.31272	0.6616	0.82837	-0.263
Mof_C 	C 	0.54213	0.00213	0.65739	0.072
Mof_H 	H 	0.5579	0.9813	0.6816	-0.032
Mof_C 	C 	0.54201	0.06136	0.66007	-0.139
Mof_H 	H 	0.5565	0.0795	0.6858	0.07
Mof_C 	C 	0.52038	0.09318	0.6244	0.054
Mof_C 	C 	0.4993	0.06371	0.58695	-0.145
Mof_H 	H 	0.4849	0.0836	0.562	0.069
Mof_C 	C 	0.49982	0.00469	0.58705	0.072
Mof_H 	H 	0.485	0.9856	0.5618	-0.036
Mof_C 	C 	0.46957	0.8553	0.71029	0.083
Mof_H 	H 	0.4954	0.8875	0.7188	-0.026
Mof_C 	C 	0.42367	0.79865	0.65625	0.076
Mof_H 	H 	0.417	0.791	0.6265	-0.041
Mof_C 	C 	0.44084	0.82112	0.74258	-0.144
Mof_H 	H 	0.4476	0.8302	0.7721	0.075
Mof_C 	C 	0.39353	0.76227	0.68631	-0.157
Mof_H 	H 	0.3677	0.7306	0.6769	0.078
Mof_C 	C 	0.40175	0.77295	0.73094	0.062
Mof_C 	C 	0.3705	0.73469	0.76458	0.045
Mof_C 	C 	0.34628	0.7554	0.80453	-0.136
Mof_H 	H 	0.3493	0.7943	0.8108	0.069
Mof_C 	C 	0.36441	0.6761	0.75736	-0.136
Mof_H 	H 	0.3794	0.6602	0.7309	0.069
Mof_C 	C 	0.33609	0.64174	0.78974	0.051
Mof_H 	H 	0.3331	0.6026	0.7845	-0.03
Mof_C 	C 	0.31778	0.71821	0.8349	0.058
Mof_H 	H 	0.3011	0.7331	0.8613	-0.016
Mof_Cu	Cu	0.01418	0.38975	0.62143	0.823
Mof_N 	N 	0.02065	0.47349	0.6217	-0.266
Mof_N 	N 	0.96219	0.34458	0.66732	-0.258
Mof_N 	N 	0.81272	0.1616	0.82837	-0.263
Mof_C 	C 	0.04213	0.50213	0.65739	0.072
Mof_H 	H 	0.0579	0.4813	0.6816	-0.032
Mof_C 	C 	0.04201	0.56136	0.66007	-0.139
Mof_H 	H 	0.0565	0.5795	0.6858	0.07
Mof_C 	C 	0.02038	0.59318	0.6244	0.054
Mof_C 	C 	0.9993	0.56371	0.58695	-0.145
Mof_H 	H 	0.9849	0.5836	0.562	0.069
Mof_C 	C 	0.99982	0.50469	0.58705	0.072
Mof_H 	H 	0.985	0.4856	0.5618	-0.036
Mof_C 	C 	0.96957	0.3553	0.71029	0.083
Mof_H 	H 	0.9954	0.3875	0.7188	-0.026
Mof_C 	C 	0.92367	0.29865	0.65625	0.076
Mof_H 	H 	0.917	0.291	0.6265	-0.041
Mof_C 	C 	0.94084	0.32112	0.74258	-0.144
Mof_H 	H 	0.9476	0.3302	0.7721	0.075
Mof_C 	C 	0.89353	0.26227	0.68631	-0.157
Mof_H 	H 	0.8677	0.2306	0.6769	0.078
Mof_C 	C 	0.90175	0.27295	0.73094	0.062
Mof_C 	C 	0.8705	0.23469	0.76458	0.045
Mof_C 	C 	0.84628	0.2554	0.80453	-0.136
Mof_H 	H 	0.8493	0.2943	0.8108	0.069
Mof_C 	C 	0.86441	0.1761	0.75736	-0.136
Mof_H 	H 	0.8794	0.1602	0.7309	0.069
Mof_C 	C 	0.83609	0.14174	0.78974	0.051
Mof_H 	H 	0.8331	0.1026	0.7845	-0.03
Mof_C 	C 	0.81778	0.21821	0.8349	0.058
Mof_H 	H 	0.8011	0.2331	0.8613	-0.016
Mof_Cu	Cu	0.01418	0.88975	0.12143	0.822
Mof_N 	N 	0.02065	0.97349	0.1217	-0.267
Mof_N 	N 	0.96219	0.84458	0.16732	-0.258
Mof_N 	N 	0.81272	0.6616	0.32837	-0.263
Mof_C 	C 	0.04213	0.00213	0.15739	0.074
Mof_H 	H 	0.0579	0.9813	0.1816	-0.033
Mof_C 	C 	0.04201	0.06136	0.16007	-0.14
Mof_H 	H 	0.0565	0.0795	0.1858	0.071
Mof_C 	C 	0.02038	0.09318	0.1244	0.055
Mof_C 	C 	0.9993	0.06371	0.08695	-0.144
Mof_H 	H 	0.9849	0.0836	0.062	0.069
Mof_C 	C 	0.99982	0.00469	0.08705	0.07
Mof_H 	H 	0.985	0.9856	0.0618	-0.034
Mof_C 	C 	0.96957	0.8553	0.21029	0.083
Mof_H 	H 	0.9954	0.8875	0.2188	-0.025
Mof_C 	C 	0.92367	0.79865	0.15625	0.076
Mof_H 	H 	0.917	0.791	0.1265	-0.04
Mof_C 	C 	0.94084	0.82112	0.24258	-0.144
Mof_H 	H 	0.9476	0.8302	0.2721	0.075
Mof_C 	C 	0.89353	0.76227	0.18631	-0.157
Mof_H 	H 	0.8677	0.7306	0.1769	0.078
Mof_C 	C 	0.90175	0.77295	0.23094	0.062
Mof_C 	C 	0.8705	0.73469	0.26458	0.045
Mof_C 	C 	0.84628	0.7554	0.30453	-0.136
Mof_H 	H 	0.8493	0.7943	0.3108	0.069
Mof_C 	C 	0.86441	0.6761	0.25736	-0.136
Mof_H 	H 	0.8794	0.6602	0.2309	0.069
Mof_C 	C 	0.83609	0.64174	0.28974	0.051
Mof_H 	H 	0.8331	0.6026	0.2845	-0.03
Mof_C 	C 	0.81778	0.71821	0.3349	0.058
Mof_H 	H 	0.8011	0.7331	0.3613	-0.016
Mof_Cu	Cu	0.51418	0.36025	0.62857	0.822
Mof_N 	N 	0.52065	0.27651	0.6283	-0.266
Mof_N 	N 	0.46219	0.40542	0.58268	-0.258
Mof_N 	N 	0.31272	0.5884	0.42163	-0.263
Mof_C 	C 	0.54213	0.24787	0.59261	0.072
Mof_H 	H 	0.5579	0.2687	0.5684	-0.032
Mof_C 	C 	0.54201	0.18864	0.58993	-0.139
Mof_H 	H 	0.5565	0.1705	0.5642	0.07
Mof_C 	C 	0.52038	0.15682	0.6256	0.054
Mof_C 	C 	0.4993	0.18629	0.66305	-0.145
Mof_H 	H 	0.4849	0.1664	0.688	0.069
Mof_C 	C 	0.49982	0.24531	0.66295	0.072
Mof_H 	H 	0.485	0.2644	0.6882	-0.036
Mof_C 	C 	0.46957	0.3947	0.53971	0.083
Mof_H 	H 	0.4954	0.3625	0.5312	-0.026
Mof_C 	C 	0.42367	0.45135	0.59375	0.076
Mof_H 	H 	0.417	0.459	0.6235	-0.041
Mof_C 	C 	0.44084	0.42888	0.50742	-0.144
Mof_H 	H 	0.4476	0.4198	0.4779	0.075
Mof_C 	C 	0.39353	0.48773	0.56369	-0.157
Mof_H 	H 	0.3677	0.5194	0.5731	0.078
Mof_C 	C 	0.40175	0.47705	0.51906	0.062
Mof_C 	C 	0.3705	0.51531	0.48542	0.045
Mof_C 	C 	0.34628	0.4946	0.44547	-0.136
Mof_H 	H 	0.3493	0.4557	0.4392	0.069
Mof_C 	C 	0.36441	0.5739	0.49264	-0.136
Mof_H 	H 	0.3794	0.5898	0.5191	0.069
Mof_C 	C 	0.33609	0.60826	0.46026	0.051
Mof_H 	H 	0.3331	0.6474	0.4655	-0.03
Mof_C 	C 	0.31778	0.53179	0.4151	0.058
Mof_H 	H 	0.3011	0.5169	0.3887	-0.016
Mof_Cu	Cu	0.51418	0.86025	0.12857	0.822
Mof_N 	N 	0.52065	0.77651	0.1283	-0.266
Mof_N 	N 	0.46219	0.90542	0.08268	-0.258
Mof_N 	N 	0.31272	0.0884	0.92163	-0.263
Mof_C 	C 	0.54213	0.74787	0.09261	0.072
Mof_H 	H 	0.5579	0.7687	0.0684	-0.032
Mof_C 	C 	0.54201	0.68864	0.08993	-0.139
Mof_H 	H 	0.5565	0.6705	0.0642	0.07
Mof_C 	C 	0.52038	0.65682	0.1256	0.054
Mof_C 	C 	0.4993	0.68629	0.16305	-0.145
Mof_H 	H 	0.4849	0.6664	0.188	0.069
Mof_C 	C 	0.49982	0.74531	0.16295	0.072
Mof_H 	H 	0.485	0.7644	0.1882	-0.036
Mof_C 	C 	0.46957	0.8947	0.03971	0.082
Mof_H 	H 	0.4954	0.8625	0.0312	-0.025
Mof_C 	C 	0.42367	0.95135	0.09375	0.076
Mof_H 	H 	0.417	0.959	0.1235	-0.041
Mof_C 	C 	0.44084	0.92888	0.00742	-0.143
Mof_H 	H 	0.4476	0.9198	0.9779	0.074
Mof_C 	C 	0.39353	0.98773	0.06369	-0.157
Mof_H 	H 	0.3677	0.0194	0.0731	0.078
Mof_C 	C 	0.40175	0.97705	0.01906	0.061
Mof_C 	C 	0.3705	0.01531	0.98542	0.047
Mof_C 	C 	0.34628	0.9946	0.94547	-0.139
Mof_H 	H 	0.3493	0.9557	0.9392	0.069
Mof_C 	C 	0.36441	0.0739	0.99264	-0.136
Mof_H 	H 	0.3794	0.0898	0.0191	0.069
Mof_C 	C 	0.33609	0.10826	0.96026	0.051
Mof_H 	H 	0.3331	0.1474	0.9655	-0.03
Mof_C 	C 	0.31778	0.03179	0.9151	0.06
Mof_H 	H 	0.3011	0.0169	0.8887	-0.017
Mof_Cu	Cu	0.01418	0.36025	0.12857	0.822
Mof_N 	N 	0.02065	0.27651	0.1283	-0.266
Mof_N 	N 	0.96219	0.40542	0.08268	-0.258
Mof_N 	N 	0.81272	0.5884	0.92163	-0.263
Mof_C 	C 	0.04213	0.24787	0.09261	0.072
Mof_H 	H 	0.0579	0.2687	0.0684	-0.032
Mof_C 	C 	0.04201	0.18864	0.08993	-0.139
Mof_H 	H 	0.0565	0.1705	0.0642	0.07
Mof_C 	C 	0.02038	0.15682	0.1256	0.054
Mof_C 	C 	0.9993	0.18629	0.16305	-0.145
Mof_H 	H 	0.9849	0.1664	0.188	0.069
Mof_C 	C 	0.99982	0.24531	0.16295	0.072
Mof_H 	H 	0.985	0.2644	0.1882	-0.036
Mof_C 	C 	0.96957	0.3947	0.03971	0.082
Mof_H 	H 	0.9954	0.3625	0.0312	-0.025
Mof_C 	C 	0.92367	0.45135	0.09375	0.076
Mof_H 	H 	0.917	0.459	0.1235	-0.041
Mof_C 	C 	0.94084	0.42888	0.00742	-0.144
Mof_H 	H 	0.9476	0.4198	0.9779	0.074
Mof_C 	C 	0.89353	0.48773	0.06369	-0.157
Mof_H 	H 	0.8677	0.5194	0.0731	0.078
Mof_C 	C 	0.90175	0.47705	0.01906	0.062
Mof_C 	C 	0.8705	0.51531	0.98542	0.045
Mof_C 	C 	0.84628	0.4946	0.94547	-0.136
Mof_H 	H 	0.8493	0.4557	0.9392	0.069
Mof_C 	C 	0.86441	0.5739	0.99264	-0.137
Mof_H 	H 	0.8794	0.5898	0.0191	0.069
Mof_C 	C 	0.83609	0.60826	0.96026	0.051
Mof_H 	H 	0.8331	0.6474	0.9655	-0.031
Mof_C 	C 	0.81778	0.53179	0.9151	0.058
Mof_H 	H 	0.8011	0.5169	0.8887	-0.016
Mof_Cu	Cu	0.01418	0.86025	0.62857	0.822
Mof_N 	N 	0.02065	0.77651	0.6283	-0.267
Mof_N 	N 	0.96219	0.90542	0.58268	-0.258
Mof_N 	N 	0.81272	0.0884	0.42163	-0.262
Mof_C 	C 	0.04213	0.74787	0.59261	0.072
Mof_H 	H 	0.0579	0.7687	0.5684	-0.032
Mof_C 	C 	0.04201	0.68864	0.58993	-0.139
Mof_H 	H 	0.0565	0.6705	0.5642	0.07
Mof_C 	C 	0.02038	0.65682	0.6256	0.054
Mof_C 	C 	0.9993	0.68629	0.66305	-0.145
Mof_H 	H 	0.9849	0.6664	0.688	0.069
Mof_C 	C 	0.99982	0.74531	0.66295	0.073
Mof_H 	H 	0.985	0.7644	0.6882	-0.036
Mof_C 	C 	0.96957	0.8947	0.53971	0.083
Mof_H 	H 	0.9954	0.8625	0.5312	-0.025
Mof_C 	C 	0.92367	0.95135	0.59375	0.076
Mof_H 	H 	0.917	0.959	0.6235	-0.04
Mof_C 	C 	0.94084	0.92888	0.50742	-0.145
Mof_H 	H 	0.9476	0.9198	0.4779	0.076
Mof_C 	C 	0.89353	0.98773	0.56369	-0.157
Mof_H 	H 	0.8677	0.0194	0.5731	0.078
Mof_C 	C 	0.90175	0.97705	0.51906	0.064
Mof_C 	C 	0.8705	0.01531	0.48542	0.042
Mof_C 	C 	0.84628	0.9946	0.44547	-0.132
Mof_H 	H 	0.8493	0.9557	0.4392	0.067
Mof_C 	C 	0.86441	0.0739	0.49264	-0.134
Mof_H 	H 	0.8794	0.0898	0.5191	0.068
Mof_C 	C 	0.83609	0.10826	0.46026	0.049
Mof_H 	H 	0.8331	0.1474	0.4655	-0.03
Mof_C 	C 	0.81778	0.03179	0.4151	0.056
Mof_H 	H 	0.8011	0.0169	0.3887	-0.016
Mof_Cu	Cu	0.76418	0.63975	0.87857	0.822
Mof_N 	N 	0.77065	0.72349	0.8783	-0.266
Mof_N 	N 	0.71219	0.59458	0.83268	-0.258
Mof_N 	N 	0.56272	0.4116	0.67163	-0.263
Mof_C 	C 	0.79213	0.75213	0.84261	0.072
Mof_H 	H 	0.8079	0.7313	0.8184	-0.032
Mof_C 	C 	0.79201	0.81136	0.83993	-0.139
Mof_H 	H 	0.8065	0.8295	0.8142	0.07
Mof_C 	C 	0.77038	0.84318	0.8756	0.054
Mof_C 	C 	0.7493	0.81371	0.91305	-0.145
Mof_H 	H 	0.7349	0.8336	0.938	0.069
Mof_C 	C 	0.74982	0.75469	0.91295	0.072
Mof_H 	H 	0.735	0.7356	0.9382	-0.036
Mof_C 	C 	0.71957	0.6053	0.78971	0.083
Mof_H 	H 	0.7454	0.6375	0.7812	-0.026
Mof_C 	C 	0.67367	0.54865	0.84375	0.076
Mof_H 	H 	0.667	0.541	0.8735	-0.041
Mof_C 	C 	0.69084	0.57112	0.75742	-0.144
Mof_H 	H 	0.6976	0.5802	0.7279	0.075
Mof_C 	C 	0.64353	0.51227	0.81369	-0.157
Mof_H 	H 	0.6177	0.4806	0.8231	0.078
Mof_C 	C 	0.65175	0.52295	0.76906	0.062
Mof_C 	C 	0.6205	0.48469	0.73542	0.045
Mof_C 	C 	0.59628	0.5054	0.69547	-0.136
Mof_H 	H 	0.5993	0.5443	0.6892	0.069
Mof_C 	C 	0.61441	0.4261	0.74264	-0.136
Mof_H 	H 	0.6294	0.4102	0.7691	0.069
Mof_C 	C 	0.58609	0.39174	0.71026	0.051
Mof_H 	H 	0.5831	0.3526	0.7155	-0.03
Mof_C 	C 	0.56778	0.46821	0.6651	0.058
Mof_H 	H 	0.5511	0.4831	0.6387	-0.016
Mof_Cu	Cu	0.76418	0.13975	0.37857	0.822
Mof_N 	N 	0.77065	0.22349	0.3783	-0.266
Mof_N 	N 	0.71219	0.09458	0.33268	-0.258
Mof_N 	N 	0.56272	0.9116	0.17163	-0.263
Mof_C 	C 	0.79213	0.25213	0.34261	0.072
Mof_H 	H 	0.8079	0.2313	0.3184	-0.032
Mof_C 	C 	0.79201	0.31136	0.33993	-0.139
Mof_H 	H 	0.8065	0.3295	0.3142	0.07
Mof_C 	C 	0.77038	0.34318	0.3756	0.054
Mof_C 	C 	0.7493	0.31371	0.41305	-0.145
Mof_H 	H 	0.7349	0.3336	0.438	0.069
Mof_C 	C 	0.74982	0.25469	0.41295	0.072
Mof_H 	H 	0.735	0.2356	0.4382	-0.036
Mof_C 	C 	0.71957	0.1053	0.28971	0.082
Mof_H 	H 	0.7454	0.1375	0.2812	-0.025
Mof_C 	C 	0.67367	0.04865	0.34375	0.076
Mof_H 	H 	0.667	0.041	0.3735	-0.041
Mof_C 	C 	0.69084	0.07112	0.25742	-0.144
Mof_H 	H 	0.6976	0.0802	0.2279	0.075
Mof_C 	C 	0.64353	0.01227	0.31369	-0.158
Mof_H 	H 	0.6177	0.9806	0.3231	0.079
Mof_C 	C 	0.65175	0.02295	0.26906	0.061
Mof_C 	C 	0.6205	0.98469	0.23542	0.046
Mof_C 	C 	0.59628	0.0054	0.19547	-0.138
Mof_H 	H 	0.5993	0.0443	0.1892	0.069
Mof_C 	C 	0.61441	0.9261	0.24264	-0.136
Mof_H 	H 	0.6294	0.9102	0.2691	0.069
Mof_C 	C 	0.58609	0.89174	0.21026	0.051
Mof_H 	H 	0.5831	0.8526	0.2155	-0.031
Mof_C 	C 	0.56778	0.96821	0.1651	0.059
Mof_H 	H 	0.5511	0.9831	0.1387	-0.017
Mof_Cu	Cu	0.26418	0.63975	0.37857	0.822
Mof_N 	N 	0.27065	0.72349	0.3783	-0.266
Mof_N 	N 	0.21219	0.59458	0.33268	-0.258
Mof_N 	N 	0.06272	0.4116	0.17163	-0.263
Mof_C 	C 	0.29213	0.75213	0.34261	0.072
Mof_H 	H 	0.3079	0.7313	0.3184	-0.032
Mof_C 	C 	0.29201	0.81136	0.33993	-0.14
Mof_H 	H 	0.3065	0.8295	0.3142	0.07
Mof_C 	C 	0.27038	0.84318	0.3756	0.054
Mof_C 	C 	0.2493	0.81371	0.41305	-0.145
Mof_H 	H 	0.2349	0.8336	0.438	0.069
Mof_C 	C 	0.24982	0.75469	0.41295	0.072
Mof_H 	H 	0.235	0.7356	0.4382	-0.036
Mof_C 	C 	0.21957	0.6053	0.28971	0.083
Mof_H 	H 	0.2454	0.6375	0.2812	-0.026
Mof_C 	C 	0.17367	0.54865	0.34375	0.076
Mof_H 	H 	0.167	0.541	0.3735	-0.041
Mof_C 	C 	0.19084	0.57112	0.25742	-0.144
Mof_H 	H 	0.1976	0.5802	0.2279	0.075
Mof_C 	C 	0.14353	0.51227	0.31369	-0.157
Mof_H 	H 	0.1177	0.4806	0.3231	0.078
Mof_C 	C 	0.15175	0.52295	0.26906	0.062
Mof_C 	C 	0.1205	0.48469	0.23542	0.045
Mof_C 	C 	0.09628	0.5054	0.19547	-0.136
Mof_H 	H 	0.0993	0.5443	0.1892	0.069
Mof_C 	C 	0.11441	0.4261	0.24264	-0.136
Mof_H 	H 	0.1294	0.4102	0.2691	0.069
Mof_C 	C 	0.08609	0.39174	0.21026	0.051
Mof_H 	H 	0.0831	0.3526	0.2155	-0.03
Mof_C 	C 	0.06778	0.46821	0.1651	0.058
Mof_H 	H 	0.0511	0.4831	0.1387	-0.016
Mof_Cu	Cu	0.26418	0.13975	0.87857	0.822
Mof_N 	N 	0.27065	0.22349	0.8783	-0.266
Mof_N 	N 	0.21219	0.09458	0.83268	-0.258
Mof_N 	N 	0.06272	0.9116	0.67163	-0.262
Mof_C 	C 	0.29213	0.25213	0.84261	0.072
Mof_H 	H 	0.3079	0.2313	0.8184	-0.032
Mof_C 	C 	0.29201	0.31136	0.83993	-0.139
Mof_H 	H 	0.3065	0.3295	0.8142	0.07
Mof_C 	C 	0.27038	0.34318	0.8756	0.054
Mof_C 	C 	0.2493	0.31371	0.91305	-0.145
Mof_H 	H 	0.2349	0.3336	0.938	0.069
Mof_C 	C 	0.24982	0.25469	0.91295	0.072
Mof_H 	H 	0.235	0.2356	0.9382	-0.036
Mof_C 	C 	0.21957	0.1053	0.78971	0.083
Mof_H 	H 	0.2454	0.1375	0.7812	-0.026
Mof_C 	C 	0.17367	0.04865	0.84375	0.076
Mof_H 	H 	0.167	0.041	0.8735	-0.04
Mof_C 	C 	0.19084	0.07112	0.75742	-0.145
Mof_H 	H 	0.1976	0.0802	0.7279	0.075
Mof_C 	C 	0.14353	0.01227	0.81369	-0.156
Mof_H 	H 	0.1177	0.9806	0.8231	0.077
Mof_C 	C 	0.15175	0.02295	0.76906	0.064
Mof_C 	C 	0.1205	0.98469	0.73542	0.041
Mof_C 	C 	0.09628	0.0054	0.69547	-0.131
Mof_H 	H 	0.0993	0.0443	0.6892	0.067
Mof_C 	C 	0.11441	0.9261	0.74264	-0.133
Mof_H 	H 	0.1294	0.9102	0.7691	0.068
Mof_C 	C 	0.08609	0.89174	0.71026	0.049
Mof_H 	H 	0.0831	0.8526	0.7155	-0.03
Mof_C 	C 	0.06778	0.96821	0.6651	0.055
Mof_H 	H 	0.0511	0.9831	0.6387	-0.015
Mof_Cu	Cu	0.76418	0.61025	0.37143	0.822
Mof_N 	N 	0.77065	0.52651	0.3717	-0.266
Mof_N 	N 	0.71219	0.65542	0.41732	-0.258
Mof_N 	N 	0.56272	0.8384	0.57837	-0.263
Mof_C 	C 	0.79213	0.49787	0.40739	0.072
Mof_H 	H 	0.8079	0.5187	0.4316	-0.032
Mof_C 	C 	0.79201	0.43864	0.41007	-0.139
Mof_H 	H 	0.8065	0.4205	0.4358	0.07
Mof_C 	C 	0.77038	0.40682	0.3744	0.054
Mof_C 	C 	0.7493	0.43629	0.33695	-0.145
Mof_H 	H 	0.7349	0.4164	0.312	0.069
Mof_C 	C 	0.74982	0.49531	0.33705	0.072
Mof_H 	H 	0.735	0.5144	0.3118	-0.036
Mof_C 	C 	0.71957	0.6447	0.46029	0.083
Mof_H 	H 	0.7454	0.6125	0.4688	-0.026
Mof_C 	C 	0.67367	0.70135	0.40625	0.076
Mof_H 	H 	0.667	0.709	0.3765	-0.041
Mof_C 	C 	0.69084	0.67888	0.49258	-0.144
Mof_H 	H 	0.6976	0.6698	0.5221	0.075
Mof_C 	C 	0.64353	0.73773	0.43631	-0.157
Mof_H 	H 	0.6177	0.7694	0.4269	0.078
Mof_C 	C 	0.65175	0.72705	0.48094	0.062
Mof_C 	C 	0.6205	0.76531	0.51458	0.045
Mof_C 	C 	0.59628	0.7446	0.55453	-0.136
Mof_H 	H 	0.5993	0.7057	0.5608	0.069
Mof_C 	C 	0.61441	0.8239	0.50736	-0.136
Mof_H 	H 	0.6294	0.8398	0.4809	0.069
Mof_C 	C 	0.58609	0.85826	0.53974	0.051
Mof_H 	H 	0.5831	0.8974	0.5345	-0.03
Mof_C 	C 	0.56778	0.78179	0.5849	0.058
Mof_H 	H 	0.5511	0.7669	0.6113	-0.016
Mof_Cu	Cu	0.76418	0.11025	0.87143	0.822
Mof_N 	N 	0.77065	0.02651	0.8717	-0.267
Mof_N 	N 	0.71219	0.15542	0.91732	-0.258
Mof_N 	N 	0.56272	0.3384	0.07837	-0.263
Mof_C 	C 	0.79213	0.99787	0.90739	0.073
Mof_H 	H 	0.8079	0.0187	0.9316	-0.033
Mof_C 	C 	0.79201	0.93864	0.91007	-0.14
Mof_H 	H 	0.8065	0.9205	0.9358	0.07
Mof_C 	C 	0.77038	0.90682	0.8744	0.055
Mof_C 	C 	0.7493	0.93629	0.83695	-0.146
Mof_H 	H 	0.7349	0.9164	0.812	0.07
Mof_C 	C 	0.74982	0.99531	0.83705	0.073
Mof_H 	H 	0.735	0.0144	0.8118	-0.037
Mof_C 	C 	0.71957	0.1447	0.96029	0.083
Mof_H 	H 	0.7454	0.1125	0.9688	-0.026
Mof_C 	C 	0.67367	0.20135	0.90625	0.076
Mof_H 	H 	0.667	0.209	0.8765	-0.041
Mof_C 	C 	0.69084	0.17888	0.99258	-0.145
Mof_H 	H 	0.6976	0.1698	0.0221	0.075
Mof_C 	C 	0.64353	0.23773	0.93631	-0.157
Mof_H 	H 	0.6177	0.2694	0.9269	0.078
Mof_C 	C 	0.65175	0.22705	0.98094	0.062
Mof_C 	C 	0.6205	0.26531	0.01458	0.045
Mof_C 	C 	0.59628	0.2446	0.05453	-0.136
Mof_H 	H 	0.5993	0.2057	0.0608	0.068
Mof_C 	C 	0.61441	0.3239	0.00736	-0.136
Mof_H 	H 	0.6294	0.3398	0.9809	0.069
Mof_C 	C 	0.58609	0.35826	0.03974	0.051
Mof_H 	H 	0.5831	0.3974	0.0345	-0.03
Mof_C 	C 	0.56778	0.28179	0.0849	0.058
Mof_H 	H 	0.5511	0.2669	0.1113	-0.016
Mof_Cu	Cu	0.26418	0.61025	0.87143	0.822
Mof_N 	N 	0.27065	0.52651	0.8717	-0.266
Mof_N 	N 	0.21219	0.65542	0.91732	-0.258
Mof_N 	N 	0.06272	0.8384	0.07837	-0.263
Mof_C 	C 	0.29213	0.49787	0.90739	0.072
Mof_H 	H 	0.3079	0.5187	0.9316	-0.032
Mof_C 	C 	0.29201	0.43864	0.91007	-0.139
Mof_H 	H 	0.3065	0.4205	0.9358	0.07
Mof_C 	C 	0.27038	0.40682	0.8744	0.054
Mof_C 	C 	0.2493	0.43629	0.83695	-0.145
Mof_H 	H 	0.2349	0.4164	0.812	0.069
Mof_C 	C 	0.24982	0.49531	0.83705	0.072
Mof_H 	H 	0.235	0.5144	0.8118	-0.036
Mof_C 	C 	0.21957	0.6447	0.96029	0.083
Mof_H 	H 	0.2454	0.6125	0.9688	-0.025
Mof_C 	C 	0.17367	0.70135	0.90625	0.076
Mof_H 	H 	0.167	0.709	0.8765	-0.041
Mof_C 	C 	0.19084	0.67888	0.99258	-0.144
Mof_H 	H 	0.1976	0.6698	0.0221	0.075
Mof_C 	C 	0.14353	0.73773	0.93631	-0.157
Mof_H 	H 	0.1177	0.7694	0.9269	0.078
Mof_C 	C 	0.15175	0.72705	0.98094	0.062
Mof_C 	C 	0.1205	0.76531	0.01458	0.045
Mof_C 	C 	0.09628	0.7446	0.05453	-0.136
Mof_H 	H 	0.0993	0.7057	0.0608	0.068
Mof_C 	C 	0.11441	0.8239	0.00736	-0.136
Mof_H 	H 	0.1294	0.8398	0.9809	0.069
Mof_C 	C 	0.08609	0.85826	0.03974	0.051
Mof_H 	H 	0.0831	0.8974	0.0345	-0.031
Mof_C 	C 	0.06778	0.78179	0.0849	0.058
Mof_H 	H 	0.0511	0.7669	0.1113	-0.016
Mof_Cu	Cu	0.26418	0.11025	0.37143	0.822
Mof_N 	N 	0.27065	0.02651	0.3717	-0.265
Mof_N 	N 	0.21219	0.15542	0.41732	-0.258
Mof_N 	N 	0.06272	0.3384	0.57837	-0.263
Mof_C 	C 	0.29213	0.99787	0.40739	0.07
Mof_H 	H 	0.3079	0.0187	0.4316	-0.031
Mof_C 	C 	0.29201	0.93864	0.41007	-0.138
Mof_H 	H 	0.3065	0.9205	0.4358	0.069
Mof_C 	C 	0.27038	0.90682	0.3744	0.053
Mof_C 	C 	0.2493	0.93629	0.33695	-0.143
Mof_H 	H 	0.2349	0.9164	0.312	0.069
Mof_C 	C 	0.24982	0.99531	0.33705	0.07
Mof_H 	H 	0.235	0.0144	0.3118	-0.035
Mof_C 	C 	0.21957	0.1447	0.46029	0.083
Mof_H 	H 	0.2454	0.1125	0.4688	-0.026
Mof_C 	C 	0.17367	0.20135	0.40625	0.076
Mof_H 	H 	0.167	0.209	0.3765	-0.041
Mof_C 	C 	0.19084	0.17888	0.49258	-0.144
Mof_H 	H 	0.1976	0.1698	0.5221	0.075
Mof_C 	C 	0.14353	0.23773	0.43631	-0.157
Mof_H 	H 	0.1177	0.2694	0.4269	0.078
Mof_C 	C 	0.15175	0.22705	0.48094	0.062
Mof_C 	C 	0.1205	0.26531	0.51458	0.045
Mof_C 	C 	0.09628	0.2446	0.55453	-0.136
Mof_H 	H 	0.0993	0.2057	0.5608	0.069
Mof_C 	C 	0.11441	0.3239	0.50736	-0.135
Mof_H 	H 	0.1294	0.3398	0.4809	0.069
Mof_C 	C 	0.08609	0.35826	0.53974	0.051
Mof_H 	H 	0.0831	0.3974	0.5345	-0.03
Mof_C 	C 	0.06778	0.28179	0.5849	0.058
Mof_H 	H 	0.0511	0.2669	0.6113	-0.016
Mof_Cu	Cu	0.23582	0.36025	0.12143	0.822
Mof_N 	N 	0.22935	0.27651	0.1217	-0.266
Mof_N 	N 	0.28781	0.40542	0.16732	-0.258
Mof_N 	N 	0.43728	0.5884	0.32837	-0.263
Mof_C 	C 	0.20787	0.24787	0.15739	0.072
Mof_H 	H 	0.1921	0.2687	0.1816	-0.032
Mof_C 	C 	0.20799	0.18864	0.16007	-0.139
Mof_H 	H 	0.1935	0.1705	0.1858	0.07
Mof_C 	C 	0.22962	0.15682	0.1244	0.054
Mof_C 	C 	0.2507	0.18629	0.08695	-0.145
Mof_H 	H 	0.2651	0.1664	0.062	0.069
Mof_C 	C 	0.25018	0.24531	0.08705	0.072
Mof_H 	H 	0.265	0.2644	0.0618	-0.036
Mof_C 	C 	0.28043	0.3947	0.21029	0.083
Mof_H 	H 	0.2546	0.3625	0.2188	-0.026
Mof_C 	C 	0.32633	0.45135	0.15625	0.076
Mof_H 	H 	0.333	0.459	0.1265	-0.041
Mof_C 	C 	0.30916	0.42888	0.24258	-0.144
Mof_H 	H 	0.3024	0.4198	0.2721	0.075
Mof_C 	C 	0.35647	0.48773	0.18631	-0.157
Mof_H 	H 	0.3823	0.5194	0.1769	0.078
Mof_C 	C 	0.34825	0.47705	0.23094	0.062
Mof_C 	C 	0.3795	0.51531	0.26458	0.045
Mof_C 	C 	0.40372	0.4946	0.30453	-0.136
Mof_H 	H 	0.4007	0.4557	0.3108	0.069
Mof_C 	C 	0.38559	0.5739	0.25736	-0.136
Mof_H 	H 	0.3706	0.5898	0.2309	0.069
Mof_C 	C 	0.41391	0.60826	0.28974	0.051
Mof_H 	H 	0.4169	0.6474	0.2845	-0.03
Mof_C 	C 	0.43222	0.53179	0.3349	0.058
Mof_H 	H 	0.4489	0.5169	0.3613	-0.016
Mof_Cu	Cu	0.23582	0.86025	0.62143	0.822
Mof_N 	N 	0.22935	0.77651	0.6217	-0.266
Mof_N 	N 	0.28781	0.90542	0.66732	-0.258
Mof_N 	N 	0.43728	0.0884	0.82837	-0.263
Mof_C 	C 	0.20787	0.74787	0.65739	0.072
Mof_H 	H 	0.1921	0.7687	0.6816	-0.032
Mof_C 	C 	0.20799	0.68864	0.66007	-0.139
Mof_H 	H 	0.1935	0.6705	0.6858	0.07
Mof_C 	C 	0.22962	0.65682	0.6244	0.054
Mof_C 	C 	0.2507	0.68629	0.58695	-0.145
Mof_H 	H 	0.2651	0.6664	0.562	0.069
Mof_C 	C 	0.25018	0.74531	0.58705	0.072
Mof_H 	H 	0.265	0.7644	0.5618	-0.036
Mof_C 	C 	0.28043	0.8947	0.71029	0.082
Mof_H 	H 	0.2546	0.8625	0.7188	-0.025
Mof_C 	C 	0.32633	0.95135	0.65625	0.076
Mof_H 	H 	0.333	0.959	0.6265	-0.041
Mof_C 	C 	0.30916	0.92888	0.74258	-0.144
Mof_H 	H 	0.3024	0.9198	0.7721	0.075
Mof_C 	C 	0.35647	0.98773	0.68631	-0.158
Mof_H 	H 	0.3823	0.0194	0.6769	0.079
Mof_C 	C 	0.34825	0.97705	0.73094	0.061
Mof_C 	C 	0.3795	0.01531	0.76458	0.046
Mof_C 	C 	0.40372	0.9946	0.80453	-0.138
Mof_H 	H 	0.4007	0.9557	0.8108	0.069
Mof_C 	C 	0.38559	0.0739	0.75736	-0.136
Mof_H 	H 	0.3706	0.0898	0.7309	0.069
Mof_C 	C 	0.41391	0.10826	0.78974	0.051
Mof_H 	H 	0.4169	0.1474	0.7845	-0.031
Mof_C 	C 	0.43222	0.03179	0.8349	0.059
Mof_H 	H 	0.4489	0.0169	0.8613	-0.017
Mof_Cu	Cu	0.73582	0.36025	0.62143	0.822
Mof_N 	N 	0.72935	0.27651	0.6217	-0.266
Mof_N 	N 	0.78781	0.40542	0.66732	-0.258
Mof_N 	N 	0.93728	0.5884	0.82837	-0.263
Mof_C 	C 	0.70787	0.24787	0.65739	0.072
Mof_H 	H 	0.6921	0.2687	0.6816	-0.032
Mof_C 	C 	0.70799	0.18864	0.66007	-0.14
Mof_H 	H 	0.6935	0.1705	0.6858	0.07
Mof_C 	C 	0.72962	0.15682	0.6244	0.054
Mof_C 	C 	0.7507	0.18629	0.58695	-0.145
Mof_H 	H 	0.7651	0.1664	0.562	0.069
Mof_C 	C 	0.75018	0.24531	0.58705	0.072
Mof_H 	H 	0.765	0.2644	0.5618	-0.036
Mof_C 	C 	0.78043	0.3947	0.71029	0.083
Mof_H 	H 	0.7546	0.3625	0.7188	-0.026
Mof_C 	C 	0.82633	0.45135	0.65625	0.076
Mof_H 	H 	0.833	0.459	0.6265	-0.041
Mof_C 	C 	0.80916	0.42888	0.74258	-0.144
Mof_H 	H 	0.8024	0.4198	0.7721	0.075
Mof_C 	C 	0.85647	0.48773	0.68631	-0.157
Mof_H 	H 	0.8823	0.5194	0.6769	0.078
Mof_C 	C 	0.84825	0.47705	0.73094	0.062
Mof_C 	C 	0.8795	0.51531	0.76458	0.045
Mof_C 	C 	0.90372	0.4946	0.80453	-0.136
Mof_H 	H 	0.9007	0.4557	0.8108	0.069
Mof_C 	C 	0.88559	0.5739	0.75736	-0.136
Mof_H 	H 	0.8706	0.5898	0.7309	0.069
Mof_C 	C 	0.91391	0.60826	0.78974	0.051
Mof_H 	H 	0.9169	0.6474	0.7845	-0.03
Mof_C 	C 	0.93222	0.53179	0.8349	0.058
Mof_H 	H 	0.9489	0.5169	0.8613	-0.016
Mof_Cu	Cu	0.73582	0.86025	0.12143	0.822
Mof_N 	N 	0.72935	0.77651	0.1217	-0.266
Mof_N 	N 	0.78781	0.90542	0.16732	-0.258
Mof_N 	N 	0.93728	0.0884	0.32837	-0.262
Mof_C 	C 	0.70787	0.74787	0.15739	0.072
Mof_H 	H 	0.6921	0.7687	0.1816	-0.032
Mof_C 	C 	0.70799	0.68864	0.16007	-0.139
Mof_H 	H 	0.6935	0.6705	0.1858	0.07
Mof_C 	C 	0.72962	0.65682	0.1244	0.054
Mof_C 	C 	0.7507	0.68629	0.08695	-0.145
Mof_H 	H 	0.7651	0.6664	0.062	0.069
Mof_C 	C 	0.75018	0.74531	0.08705	0.072
Mof_H 	H 	0.765	0.7644	0.0618	-0.036
Mof_C 	C 	0.78043	0.8947	0.21029	0.083
Mof_H 	H 	0.7546	0.8625	0.2188	-0.026
Mof_C 	C 	0.82633	0.95135	0.15625	0.076
Mof_H 	H 	0.833	0.959	0.1265	-0.04
Mof_C 	C 	0.80916	0.92888	0.24258	-0.145
Mof_H 	H 	0.8024	0.9198	0.2721	0.075
Mof_C 	C 	0.85647	0.98773	0.18631	-0.156
Mof_H 	H 	0.8823	0.0194	0.1769	0.077
Mof_C 	C 	0.84825	0.97705	0.23094	0.064
Mof_C 	C 	0.8795	0.01531	0.26458	0.041
Mof_C 	C 	0.90372	0.9946	0.30453	-0.131
Mof_H 	H 	0.9007	0.9557	0.3108	0.067
Mof_C 	C 	0.88559	0.0739	0.25736	-0.133
Mof_H 	H 	0.8706	0.0898	0.2309	0.068
Mof_C 	C 	0.91391	0.10826	0.28974	0.049
Mof_H 	H 	0.9169	0.1474	0.2845	-0.03
Mof_C 	C 	0.93222	0.03179	0.3349	0.055
Mof_H 	H 	0.9489	0.0169	0.3613	-0.015
Mof_Cu	Cu	0.23582	0.38975	0.62857	0.822
Mof_N 	N 	0.22935	0.47349	0.6283	-0.266
Mof_N 	N 	0.28781	0.34458	0.58268	-0.258
Mof_N 	N 	0.43728	0.1616	0.42163	-0.263
Mof_C 	C 	0.20787	0.50213	0.59261	0.072
Mof_H 	H 	0.1921	0.4813	0.5684	-0.032
Mof_C 	C 	0.20799	0.56136	0.58993	-0.139
Mof_H 	H 	0.1935	0.5795	0.5642	0.07
Mof_C 	C 	0.22962	0.59318	0.6256	0.054
Mof_C 	C 	0.2507	0.56371	0.66305	-0.145
Mof_H 	H 	0.2651	0.5836	0.688	0.069
Mof_C 	C 	0.25018	0.50469	0.66295	0.072
Mof_H 	H 	0.265	0.4856	0.6882	-0.036
Mof_C 	C 	0.28043	0.3553	0.53971	0.083
Mof_H 	H 	0.2546	0.3875	0.5312	-0.026
Mof_C 	C 	0.32633	0.29865	0.59375	0.076
Mof_H 	H 	0.333	0.291	0.6235	-0.041
Mof_C 	C 	0.30916	0.32112	0.50742	-0.144
Mof_H 	H 	0.3024	0.3302	0.4779	0.075
Mof_C 	C 	0.35647	0.26227	0.56369	-0.157
Mof_H 	H 	0.3823	0.2306	0.5731	0.078
Mof_C 	C 	0.34825	0.27295	0.51906	0.062
Mof_C 	C 	0.3795	0.23469	0.48542	0.045
Mof_C 	C 	0.40372	0.2554	0.44547	-0.136
Mof_H 	H 	0.4007	0.2943	0.4392	0.069
Mof_C 	C 	0.38559	0.1761	0.49264	-0.136
Mof_H 	H 	0.3706	0.1602	0.5191	0.069
Mof_C 	C 	0.41391	0.14174	0.46026	0.051
Mof_H 	H 	0.4169	0.1026	0.4655	-0.03
Mof_C 	C 	0.43222	0.21821	0.4151	0.058
Mof_H 	H 	0.4489	0.2331	0.3887	-0.016
Mof_Cu	Cu	0.23582	0.88975	0.12857	0.822
Mof_N 	N 	0.22935	0.97349	0.1283	-0.267
Mof_N 	N 	0.28781	0.84458	0.08268	-0.258
Mof_N 	N 	0.43728	0.6616	0.92163	-0.263
Mof_C 	C 	0.20787	0.00213	0.09261	0.073
Mof_H 	H 	0.1921	0.9813	0.0684	-0.033
Mof_C 	C 	0.20799	0.06136	0.08993	-0.14
Mof_H 	H 	0.1935	0.0795	0.0642	0.07
Mof_C 	C 	0.22962	0.09318	0.1256	0.055
Mof_C 	C 	0.2507	0.06371	0.16305	-0.146
Mof_H 	H 	0.2651	0.0836	0.188	0.07
Mof_C 	C 	0.25018	0.00469	0.16295	0.073
Mof_H 	H 	0.265	0.9856	0.1882	-0.037
Mof_C 	C 	0.28043	0.8553	0.03971	0.083
Mof_H 	H 	0.2546	0.8875	0.0312	-0.026
Mof_C 	C 	0.32633	0.79865	0.09375	0.076
Mof_H 	H 	0.333	0.791	0.1235	-0.041
Mof_C 	C 	0.30916	0.82112	0.00742	-0.145
Mof_H 	H 	0.3024	0.8302	0.9779	0.075
Mof_C 	C 	0.35647	0.76227	0.06369	-0.157
Mof_H 	H 	0.3823	0.7306	0.0731	0.078
Mof_C 	C 	0.34825	0.77295	0.01906	0.062
Mof_C 	C 	0.3795	0.73469	0.98542	0.045
Mof_C 	C 	0.40372	0.7554	0.94547	-0.136
Mof_H 	H 	0.4007	0.7943	0.9392	0.068
Mof_C 	C 	0.38559	0.6761	0.99264	-0.136
Mof_H 	H 	0.3706	0.6602	0.0191	0.069
Mof_C 	C 	0.41391	0.64174	0.96026	0.051
Mof_H 	H 	0.4169	0.6026	0.9655	-0.03
Mof_C 	C 	0.43222	0.71821	0.9151	0.058
Mof_H 	H 	0.4489	0.7331	0.8887	-0.016
Mof_Cu	Cu	0.73582	0.38975	0.12857	0.822
Mof_N 	N 	0.72935	0.47349	0.1283	-0.266
Mof_N 	N 	0.78781	0.34458	0.08268	-0.258
Mof_N 	N 	0.93728	0.1616	0.92163	-0.263
Mof_C 	C 	0.70787	0.50213	0.09261	0.072
Mof_H 	H 	0.6921	0.4813	0.0684	-0.032
Mof_C 	C 	0.70799	0.56136	0.08993	-0.139
Mof_H 	H 	0.6935	0.5795	0.0642	0.07
Mof_C 	C 	0.72962	0.59318	0.1256	0.054
Mof_C 	C 	0.7507	0.56371	0.16305	-0.145
Mof_H 	H 	0.7651	0.5836	0.188	0.069
Mof_C 	C 	0.75018	0.50469	0.16295	0.072
Mof_H 	H 	0.765	0.4856	0.1882	-0.036
Mof_C 	C 	0.78043	0.3553	0.03971	0.083
Mof_H 	H 	0.7546	0.3875	0.0312	-0.025
Mof_C 	C 	0.82633	0.29865	0.09375	0.076
Mof_H 	H 	0.833	0.291	0.1235	-0.041
Mof_C 	C 	0.80916	0.32112	0.00742	-0.144
Mof_H 	H 	0.8024	0.3302	0.9779	0.075
Mof_C 	C 	0.85647	0.26227	0.06369	-0.157
Mof_H 	H 	0.8823	0.2306	0.0731	0.078
Mof_C 	C 	0.84825	0.27295	0.01906	0.062
Mof_C 	C 	0.8795	0.23469	0.98542	0.045
Mof_C 	C 	0.90372	0.2554	0.94547	-0.136
Mof_H 	H 	0.9007	0.2943	0.9392	0.068
Mof_C 	C 	0.88559	0.1761	0.99264	-0.136
Mof_H 	H 	0.8706	0.1602	0.0191	0.069
Mof_C 	C 	0.91391	0.14174	0.96026	0.051
Mof_H 	H 	0.9169	0.1026	0.9655	-0.031
Mof_C 	C 	0.93222	0.21821	0.9151	0.058
Mof_H 	H 	0.9489	0.2331	0.8887	-0.016
Mof_Cu	Cu	0.73582	0.88975	0.62857	0.822
Mof_N 	N 	0.72935	0.97349	0.6283	-0.265
Mof_N 	N 	0.78781	0.84458	0.58268	-0.258
Mof_N 	N 	0.93728	0.6616	0.42163	-0.263
Mof_C 	C 	0.70787	0.00213	0.59261	0.07
Mof_H 	H 	0.6921	0.9813	0.5684	-0.031
Mof_C 	C 	0.70799	0.06136	0.58993	-0.138
Mof_H 	H 	0.6935	0.0795	0.5642	0.069
Mof_C 	C 	0.72962	0.09318	0.6256	0.053
Mof_C 	C 	0.7507	0.06371	0.66305	-0.143
Mof_H 	H 	0.7651	0.0836	0.688	0.069
Mof_C 	C 	0.75018	0.00469	0.66295	0.07
Mof_H 	H 	0.765	0.9856	0.6882	-0.035
Mof_C 	C 	0.78043	0.8553	0.53971	0.083
Mof_H 	H 	0.7546	0.8875	0.5312	-0.026
Mof_C 	C 	0.82633	0.79865	0.59375	0.076
Mof_H 	H 	0.833	0.791	0.6235	-0.041
Mof_C 	C 	0.80916	0.82112	0.50742	-0.144
Mof_H 	H 	0.8024	0.8302	0.4779	0.075
Mof_C 	C 	0.85647	0.76227	0.56369	-0.157
Mof_H 	H 	0.8823	0.7306	0.5731	0.078
Mof_C 	C 	0.84825	0.77295	0.51906	0.062
Mof_C 	C 	0.8795	0.73469	0.48542	0.045
Mof_C 	C 	0.90372	0.7554	0.44547	-0.136
Mof_H 	H 	0.9007	0.7943	0.4392	0.069
Mof_C 	C 	0.88559	0.6761	0.49264	-0.135
Mof_H 	H 	0.8706	0.6602	0.5191	0.069
Mof_C 	C 	0.91391	0.64174	0.46026	0.051
Mof_H 	H 	0.9169	0.6026	0.4655	-0.03
Mof_C 	C 	0.93222	0.71821	0.4151	0.058
Mof_H 	H 	0.9489	0.7331	0.3887	-0.016
Mof_Cu	Cu	0.48582	0.61025	0.87857	0.822
Mof_N 	N 	0.47935	0.52651	0.8783	-0.266
Mof_N 	N 	0.53781	0.65542	0.83268	-0.258
Mof_N 	N 	0.68728	0.8384	0.67163	-0.263
Mof_C 	C 	0.45787	0.49787	0.84261	0.072
Mof_H 	H 	0.4421	0.5187	0.8184	-0.032
Mof_C 	C 	0.45799	0.43864	0.83993	-0.139
Mof_H 	H 	0.4435	0.4205	0.8142	0.07
Mof_C 	C 	0.47962	0.40682	0.8756	0.054
Mof_C 	C 	0.5007	0.43629	0.91305	-0.145
Mof_H 	H 	0.5151	0.4164	0.938	0.069
Mof_C 	C 	0.50018	0.49531	0.91295	0.072
Mof_H 	H 	0.515	0.5144	0.9382	-0.036
Mof_C 	C 	0.53043	0.6447	0.78971	0.083
Mof_H 	H 	0.5046	0.6125	0.7812	-0.026
Mof_C 	C 	0.57633	0.70135	0.84375	0.076
Mof_H 	H 	0.583	0.709	0.8735	-0.041
Mof_C 	C 	0.55916	0.67888	0.75742	-0.144
Mof_H 	H 	0.5524	0.6698	0.7279	0.075
Mof_C 	C 	0.60647	0.73773	0.81369	-0.157
Mof_H 	H 	0.6323	0.7694	0.8231	0.078
Mof_C 	C 	0.59825	0.72705	0.76906	0.062
Mof_C 	C 	0.6295	0.76531	0.73542	0.045
Mof_C 	C 	0.65372	0.7446	0.69547	-0.136
Mof_H 	H 	0.6507	0.7057	0.6892	0.069
Mof_C 	C 	0.63559	0.8239	0.74264	-0.136
Mof_H 	H 	0.6206	0.8398	0.7691	0.069
Mof_C 	C 	0.66391	0.85826	0.71026	0.051
Mof_H 	H 	0.6669	0.8974	0.7155	-0.03
Mof_C 	C 	0.68222	0.78179	0.6651	0.058
Mof_H 	H 	0.6989	0.7669	0.6387	-0.016
Mof_Cu	Cu	0.48582	0.11025	0.37857	0.822
Mof_N 	N 	0.47935	0.02651	0.3783	-0.266
Mof_N 	N 	0.53781	0.15542	0.33268	-0.258
Mof_N 	N 	0.68728	0.3384	0.17163	-0.263
Mof_C 	C 	0.45787	0.99787	0.34261	0.072
Mof_H 	H 	0.4421	0.0187	0.3184	-0.032
Mof_C 	C 	0.45799	0.93864	0.33993	-0.139
Mof_H 	H 	0.4435	0.9205	0.3142	0.07
Mof_C 	C 	0.47962	0.90682	0.3756	0.054
Mof_C 	C 	0.5007	0.93629	0.41305	-0.145
Mof_H 	H 	0.5151	0.9164	0.438	0.069
Mof_C 	C 	0.50018	0.99531	0.41295	0.072
Mof_H 	H 	0.515	0.0144	0.4382	-0.036
Mof_C 	C 	0.53043	0.1447	0.28971	0.083
Mof_H 	H 	0.5046	0.1125	0.2812	-0.026
Mof_C 	C 	0.57633	0.20135	0.34375	0.076
Mof_H 	H 	0.583	0.209	0.3735	-0.041
Mof_C 	C 	0.55916	0.17888	0.25742	-0.144
Mof_H 	H 	0.5524	0.1698	0.2279	0.075
Mof_C 	C 	0.60647	0.23773	0.31369	-0.157
Mof_H 	H 	0.6323	0.2694	0.3231	0.078
Mof_C 	C 	0.59825	0.22705	0.26906	0.062
Mof_C 	C 	0.6295	0.26531	0.23542	0.045
Mof_C 	C 	0.65372	0.2446	0.19547	-0.136
Mof_H 	H 	0.6507	0.2057	0.1892	0.069
Mof_C 	C 	0.63559	0.3239	0.24264	-0.136
Mof_H 	H 	0.6206	0.3398	0.2691	0.069
Mof_C 	C 	0.66391	0.35826	0.21026	0.051
Mof_H 	H 	0.6669	0.3974	0.2155	-0.03
Mof_C 	C 	0.68222	0.28179	0.1651	0.058
Mof_H 	H 	0.6989	0.2669	0.1387	-0.016
Mof_Cu	Cu	0.98582	0.61025	0.37857	0.823
Mof_N 	N 	0.97935	0.52651	0.3783	-0.266
Mof_N 	N 	0.03781	0.65542	0.33268	-0.258
Mof_N 	N 	0.18728	0.8384	0.17163	-0.263
Mof_C 	C 	0.95787	0.49787	0.34261	0.072
Mof_H 	H 	0.9421	0.5187	0.3184	-0.032
Mof_C 	C 	0.95799	0.43864	0.33993	-0.139
Mof_H 	H 	0.9435	0.4205	0.3142	0.07
Mof_C 	C 	0.97962	0.40682	0.3756	0.054
Mof_C 	C 	0.0007	0.43629	0.41305	-0.145
Mof_H 	H 	0.0151	0.4164	0.438	0.069
Mof_C 	C 	0.00018	0.49531	0.41295	0.072
Mof_H 	H 	0.015	0.5144	0.4382	-0.036
Mof_C 	C 	0.03043	0.6447	0.28971	0.083
Mof_H 	H 	0.0046	0.6125	0.2812	-0.026
Mof_C 	C 	0.07633	0.70135	0.34375	0.076
Mof_H 	H 	0.083	0.709	0.3735	-0.041
Mof_C 	C 	0.05916	0.67888	0.25742	-0.144
Mof_H 	H 	0.0524	0.6698	0.2279	0.075
Mof_C 	C 	0.10647	0.73773	0.31369	-0.157
Mof_H 	H 	0.1323	0.7694	0.3231	0.078
Mof_C 	C 	0.09825	0.72705	0.26906	0.062
Mof_C 	C 	0.1295	0.76531	0.23542	0.045
Mof_C 	C 	0.15372	0.7446	0.19547	-0.136
Mof_H 	H 	0.1507	0.7057	0.1892	0.069
Mof_C 	C 	0.13559	0.8239	0.24264	-0.136
Mof_H 	H 	0.1206	0.8398	0.2691	0.069
Mof_C 	C 	0.16391	0.85826	0.21026	0.051
Mof_H 	H 	0.1669	0.8974	0.2155	-0.03
Mof_C 	C 	0.18222	0.78179	0.1651	0.058
Mof_H 	H 	0.1989	0.7669	0.1387	-0.016
Mof_Cu	Cu	0.98582	0.11025	0.87857	0.822
Mof_N 	N 	0.97935	0.02651	0.8783	-0.267
Mof_N 	N 	0.03781	0.15542	0.83268	-0.258
Mof_N 	N 	0.18728	0.3384	0.67163	-0.263
Mof_C 	C 	0.95787	0.99787	0.84261	0.074
Mof_H 	H 	0.9421	0.0187	0.8184	-0.033
Mof_C 	C 	0.95799	0.93864	0.83993	-0.14
Mof_H 	H 	0.9435	0.9205	0.8142	0.071
Mof_C 	C 	0.97962	0.90682	0.8756	0.055
Mof_C 	C 	0.0007	0.93629	0.91305	-0.144
Mof_H 	H 	0.0151	0.9164	0.938	0.069
Mof_C 	C 	0.00018	0.99531	0.91295	0.07
Mof_H 	H 	0.015	0.0144	0.9382	-0.034
Mof_C 	C 	0.03043	0.1447	0.78971	0.083
Mof_H 	H 	0.0046	0.1125	0.7812	-0.025
Mof_C 	C 	0.07633	0.20135	0.84375	0.076
Mof_H 	H 	0.083	0.209	0.8735	-0.04
Mof_C 	C 	0.05916	0.17888	0.75742	-0.144
Mof_H 	H 	0.0524	0.1698	0.7279	0.075
Mof_C 	C 	0.10647	0.23773	0.81369	-0.157
Mof_H 	H 	0.1323	0.2694	0.8231	0.078
Mof_C 	C 	0.09825	0.22705	0.76906	0.062
Mof_C 	C 	0.1295	0.26531	0.73542	0.045
Mof_C 	C 	0.15372	0.2446	0.69547	-0.136
Mof_H 	H 	0.1507	0.2057	0.6892	0.069
Mof_C 	C 	0.13559	0.3239	0.74264	-0.136
Mof_H 	H 	0.1206	0.3398	0.7691	0.069
Mof_C 	C 	0.16391	0.35826	0.71026	0.051
Mof_H 	H 	0.1669	0.3974	0.7155	-0.03
Mof_C 	C 	0.18222	0.28179	0.6651	0.058
Mof_H 	H 	0.1989	0.2669	0.6387	-0.016
Mof_Cu	Cu	0.48582	0.63975	0.37143	0.822
Mof_N 	N 	0.47935	0.72349	0.3717	-0.266
Mof_N 	N 	0.53781	0.59458	0.41732	-0.258
Mof_N 	N 	0.68728	0.4116	0.57837	-0.263
Mof_C 	C 	0.45787	0.75213	0.40739	0.072
Mof_H 	H 	0.4421	0.7313	0.4316	-0.032
Mof_C 	C 	0.45799	0.81136	0.41007	-0.139
Mof_H 	H 	0.4435	0.8295	0.4358	0.07
Mof_C 	C 	0.47962	0.84318	0.3744	0.054
Mof_C 	C 	0.5007	0.81371	0.33695	-0.145
Mof_H 	H 	0.5151	0.8336	0.312	0.069
Mof_C 	C 	0.50018	0.75469	0.33705	0.072
Mof_H 	H 	0.515	0.7356	0.3118	-0.036
Mof_C 	C 	0.53043	0.6053	0.46029	0.083
Mof_H 	H 	0.5046	0.6375	0.4688	-0.026
Mof_C 	C 	0.57633	0.54865	0.40625	0.076
Mof_H 	H 	0.583	0.541	0.3765	-0.041
Mof_C 	C 	0.55916	0.57112	0.49258	-0.144
Mof_H 	H 	0.5524	0.5802	0.5221	0.075
Mof_C 	C 	0.60647	0.51227	0.43631	-0.157
Mof_H 	H 	0.6323	0.4806	0.4269	0.078
Mof_C 	C 	0.59825	0.52295	0.48094	0.062
Mof_C 	C 	0.6295	0.48469	0.51458	0.045
Mof_C 	C 	0.65372	0.5054	0.55453	-0.136
Mof_H 	H 	0.6507	0.5443	0.5608	0.069
Mof_C 	C 	0.63559	0.4261	0.50736	-0.136
Mof_H 	H 	0.6206	0.4102	0.4809	0.069
Mof_C 	C 	0.66391	0.39174	0.53974	0.051
Mof_H 	H 	0.6669	0.3526	0.5345	-0.03
Mof_C 	C 	0.68222	0.46821	0.5849	0.058
Mof_H 	H 	0.6989	0.4831	0.6113	-0.016
Mof_Cu	Cu	0.48582	0.13975	0.87143	0.822
Mof_N 	N 	0.47935	0.22349	0.8717	-0.266
Mof_N 	N 	0.53781	0.09458	0.91732	-0.258
Mof_N 	N 	0.68728	0.9116	0.07837	-0.263
Mof_C 	C 	0.45787	0.25213	0.90739	0.072
Mof_H 	H 	0.4421	0.2313	0.9316	-0.032
Mof_C 	C 	0.45799	0.31136	0.91007	-0.139
Mof_H 	H 	0.4435	0.3295	0.9358	0.07
Mof_C 	C 	0.47962	0.34318	0.8744	0.054
Mof_C 	C 	0.5007	0.31371	0.83695	-0.145
Mof_H 	H 	0.5151	0.3336	0.812	0.069
Mof_C 	C 	0.50018	0.25469	0.83705	0.072
Mof_H 	H 	0.515	0.2356	0.8118	-0.036
Mof_C 	C 	0.53043	0.1053	0.96029	0.082
Mof_H 	H 	0.5046	0.1375	0.9688	-0.025
Mof_C 	C 	0.57633	0.04865	0.90625	0.076
Mof_H 	H 	0.583	0.041	0.8765	-0.041
Mof_C 	C 	0.55916	0.07112	0.99258	-0.143
Mof_H 	H 	0.5524	0.0802	0.0221	0.074
Mof_C 	C 	0.60647	0.01227	0.93631	-0.157
Mof_H 	H 	0.6323	0.9806	0.9269	0.078
Mof_C 	C 	0.59825	0.02295	0.98094	0.061
Mof_C 	C 	0.6295	0.98469	0.01458	0.047
Mof_C 	C 	0.65372	0.0054	0.05453	-0.139
Mof_H 	H 	0.6507	0.0443	0.0608	0.069
Mof_C 	C 	0.63559	0.9261	0.00736	-0.136
Mof_H 	H 	0.6206	0.9102	0.9809	0.069
Mof_C 	C 	0.66391	0.89174	0.03974	0.051
Mof_H 	H 	0.6669	0.8526	0.0345	-0.03
Mof_C 	C 	0.68222	0.96821	0.0849	0.06
Mof_H 	H 	0.6989	0.9831	0.1113	-0.017
Mof_Cu	Cu	0.98582	0.63975	0.87143	0.822
Mof_N 	N 	0.97935	0.72349	0.8717	-0.266
Mof_N 	N 	0.03781	0.59458	0.91732	-0.258
Mof_N 	N 	0.18728	0.4116	0.07837	-0.263
Mof_C 	C 	0.95787	0.75213	0.90739	0.072
Mof_H 	H 	0.9421	0.7313	0.9316	-0.032
Mof_C 	C 	0.95799	0.81136	0.91007	-0.139
Mof_H 	H 	0.9435	0.8295	0.9358	0.07
Mof_C 	C 	0.97962	0.84318	0.8744	0.054
Mof_C 	C 	0.0007	0.81371	0.83695	-0.145
Mof_H 	H 	0.0151	0.8336	0.812	0.069
Mof_C 	C 	0.00018	0.75469	0.83705	0.072
Mof_H 	H 	0.015	0.7356	0.8118	-0.036
Mof_C 	C 	0.03043	0.6053	0.96029	0.082
Mof_H 	H 	0.0046	0.6375	0.9688	-0.025
Mof_C 	C 	0.07633	0.54865	0.90625	0.076
Mof_H 	H 	0.083	0.541	0.8765	-0.041
Mof_C 	C 	0.05916	0.57112	0.99258	-0.144
Mof_H 	H 	0.0524	0.5802	0.0221	0.074
Mof_C 	C 	0.10647	0.51227	0.93631	-0.157
Mof_H 	H 	0.1323	0.4806	0.9269	0.078
Mof_C 	C 	0.09825	0.52295	0.98094	0.062
Mof_C 	C 	0.1295	0.48469	0.01458	0.045
Mof_C 	C 	0.15372	0.5054	0.05453	-0.136
Mof_H 	H 	0.1507	0.5443	0.0608	0.069
Mof_C 	C 	0.13559	0.4261	0.00736	-0.137
Mof_H 	H 	0.1206	0.4102	0.9809	0.069
Mof_C 	C 	0.16391	0.39174	0.03974	0.051
Mof_H 	H 	0.1669	0.3526	0.0345	-0.031
Mof_C 	C 	0.18222	0.46821	0.0849	0.058
Mof_H 	H 	0.1989	0.4831	0.1113	-0.016
Mof_Cu	Cu	0.98582	0.13975	0.37143	0.822
Mof_N 	N 	0.97935	0.22349	0.3717	-0.267
Mof_N 	N 	0.03781	0.09458	0.41732	-0.258
Mof_N 	N 	0.18728	0.9116	0.57837	-0.262
Mof_C 	C 	0.95787	0.25213	0.40739	0.072
Mof_H 	H 	0.9421	0.2313	0.4316	-0.032
Mof_C 	C 	0.95799	0.31136	0.41007	-0.139
Mof_H 	H 	0.9435	0.3295	0.4358	0.07
Mof_C 	C 	0.97962	0.34318	0.3744	0.054
Mof_C 	C 	0.0007	0.31371	0.33695	-0.145
Mof_H 	H 	0.0151	0.3336	0.312	0.069
Mof_C 	C 	0.00018	0.25469	0.33705	0.073
Mof_H 	H 	0.015	0.2356	0.3118	-0.036
Mof_C 	C 	0.03043	0.1053	0.46029	0.083
Mof_H 	H 	0.0046	0.1375	0.4688	-0.025
Mof_C 	C 	0.07633	0.04865	0.40625	0.076
Mof_H 	H 	0.083	0.041	0.3765	-0.04
Mof_C 	C 	0.05916	0.07112	0.49258	-0.145
Mof_H 	H 	0.0524	0.0802	0.5221	0.076
Mof_C 	C 	0.10647	0.01227	0.43631	-0.157
Mof_H 	H 	0.1323	0.9806	0.4269	0.078
Mof_C 	C 	0.09825	0.02295	0.48094	0.064
Mof_C 	C 	0.1295	0.98469	0.51458	0.042
Mof_C 	C 	0.15372	0.0054	0.55453	-0.132
Mof_H 	H 	0.1507	0.0443	0.5608	0.067
Mof_C 	C 	0.13559	0.9261	0.50736	-0.134
Mof_H 	H 	0.1206	0.9102	0.4809	0.068
Mof_C 	C 	0.16391	0.89174	0.53974	0.049
Mof_H 	H 	0.1669	0.8526	0.5345	-0.03
Mof_C 	C 	0.18222	0.96821	0.5849	0.056
Mof_H 	H 	0.1989	0.9831	0.6113	-0.016
_end
