data_functionalizedCrystal
_audit_creation_method	'EQeq! by Chris Wilmer'
_symmetry_space_group_name_H-M	'P1'
_symmetry_Int_Tables_number	1
_symmetry_cell_setting	triclinic
loop_
_symmetry_equiv_pos_as_xyz
  x,y,z
_cell_length_a	31.281
_cell_length_b	10.5676
_cell_length_c	19.875
_cell_angle_alpha	90
_cell_angle_beta	94.444
_cell_angle_gamma	90
loop_
_atom_site_label
_atom_site_type_symbol
_atom_site_fract_x
_atom_site_fract_y
_atom_site_fract_z
_atom_site_charge
Mof_Co	Co	0.32813	0.84107	0.257	1.19
Mof_O 	O 	0.26669	0.857	0.20796	-0.41
Mof_O 	O 	0.39024	0.796	0.30321	-0.476
Mof_H 	H 	0.4013	0.86	0.3202	0.29
Mof_O 	O 	0.05165	0.9611	0.07344	-0.394
Mof_O 	O 	0.09579	0.1257	0.09058	-0.268
Mof_O 	O 	0.2504	0.0462	0.16497	-0.321
Mof_C 	C 	0.12206	0.9225	0.12262	-0.109
Mof_C 	C 	0.16317	0.9679	0.13757	0.098
Mof_H 	H 	0.1693	0.0523	0.1291	0.009
Mof_N 	N 	0.32832	0.6566	0.21517	-0.167
Mof_O 	O 	0.29424	0.772	0.34025	-0.454
Mof_H 	H 	0.2828	0.7043	0.3298	0.273
Mof_N 	N 	0.98896	0.1878	0.03346	-0.162
Mof_N 	N 	0.0206	0.2586	0.06297	-0.162
Mof_H 	H 	0.0462	0.2315	0.0731	0.13
Mof_C 	C 	0.19543	0.889	0.16515	-0.146
Mof_C 	C 	0.24083	0.9356	0.18016	0.396
Mof_C 	C 	0.14496	0.7137	0.1604	-0.132
Mof_C 	C 	0.08715	0.0103	0.09315	0.302
Mof_C 	C 	0.9554	0.2652	0.02687	-0.033
Mof_H 	H 	0.9285	0.2416	0.0078	0.033
Mof_C 	C 	0.9651	0.385	0.05161	0.097
Mof_C 	C 	0.11292	0.7948	0.13277	0.05
Mof_H 	H 	0.0855	0.7638	0.1212	0.026
Mof_C 	C 	0.18546	0.7638	0.17768	0.071
Mof_H 	H 	0.2065	0.7116	0.1983	0.029
Mof_C 	C 	0.00749	0.3772	0.07483	-0.068
Mof_H 	H 	0.0241	0.4419	0.095	0.055
Mof_C 	C 	0.33992	0.4613	0.17501	0.066
Mof_C 	C 	0.35774	0.5714	0.204	-0.011
Mof_H 	H 	0.387	0.5833	0.2143	0.051
Mof_N 	N 	0.29123	0.6009	0.19306	-0.15
Mof_H 	H 	0.2666	0.6365	0.1939	0.121
Mof_C 	C 	0.93663	0.4997	0.0522	-0.258
Mof_H 	H 	0.9536	0.571	0.0696	0.113
Mof_H 	H 	0.9263	0.5194	0.0062	0.103
Mof_C 	C 	0.36199	0.3413	0.158	-0.238
Mof_H 	H 	0.3442	0.2967	0.1236	0.105
Mof_H 	H 	0.3648	0.288	0.1978	0.109
Mof_C 	C 	0.29692	0.4844	0.1696	-0.014
Mof_H 	H 	0.2755	0.4292	0.1527	0.056
Mof_C 	C 	0.40563	0.3609	0.1331	0.058
Mof_C 	C 	0.41708	0.4294	0.0784	-0.014
Mof_H 	H 	0.3976	0.4742	0.0499	0.029
Mof_C 	C 	0.4429	0.3088	0.1567	-0.011
Mof_H 	H 	0.4465	0.2543	0.1935	0.039
Mof_N 	N 	0.45881	0.4251	0.07059	-0.179
Mof_N 	N 	0.47363	0.3472	0.1196	-0.15
Mof_H 	H 	0.5	0.3246	0.1262	0.11
Mof_N 	N 	0.85746	0.4243	0.17675	-0.172
Mof_C 	C 	0.89888	0.4843	0.0936	0.065
Mof_N 	N 	0.83619	0.5069	0.13462	-0.157
Mof_H 	H 	0.8105	0.5327	0.1389	0.131
Mof_C 	C 	0.85993	0.5435	0.0859	-0.012
Mof_H 	H 	0.8515	0.6004	0.0517	0.037
Mof_C 	C 	0.89545	0.4109	0.1514	-0.02
Mof_H 	H 	0.9172	0.3588	0.1701	0.048
Mof_O 	O 	0.16939	0.51173	0.19252	-0.396
Mof_O 	O 	0.09985	0.5335	0.16018	-0.302
Mof_C 	C 	0.13745	0.5775	0.1726	0.344
Mof_Co	Co	0.82813	0.34107	0.257	1.184
Mof_O 	O 	0.76669	0.357	0.20796	-0.408
Mof_O 	O 	0.89024	0.296	0.30321	-0.477
Mof_H 	H 	0.9013	0.36	0.3202	0.285
Mof_O 	O 	0.55165	0.4611	0.07344	-0.419
Mof_O 	O 	0.59579	0.6257	0.09058	-0.275
Mof_O 	O 	0.7504	0.5462	0.16497	-0.302
Mof_C 	C 	0.62206	0.4225	0.12262	-0.123
Mof_C 	C 	0.66317	0.4679	0.13757	0.056
Mof_H 	H 	0.6693	0.5523	0.1291	0.034
Mof_N 	N 	0.82832	0.1566	0.21517	-0.163
Mof_O 	O 	0.79424	0.272	0.34025	-0.459
Mof_H 	H 	0.7828	0.2043	0.3298	0.274
Mof_N 	N 	0.48896	0.6878	0.03346	-0.181
Mof_N 	N 	0.5206	0.7586	0.06297	-0.161
Mof_H 	H 	0.5462	0.7315	0.0731	0.135
Mof_C 	C 	0.69543	0.389	0.16515	-0.128
Mof_C 	C 	0.74083	0.4356	0.18016	0.364
Mof_C 	C 	0.64496	0.2137	0.1604	-0.132
Mof_C 	C 	0.58715	0.5103	0.09315	0.343
Mof_C 	C 	0.4554	0.7652	0.02687	-0.004
Mof_H 	H 	0.4285	0.7416	0.0078	0.024
Mof_C 	C 	0.4651	0.885	0.05161	0.026
Mof_C 	C 	0.61292	0.2948	0.13277	0.052
Mof_H 	H 	0.5855	0.2638	0.1212	0.024
Mof_C 	C 	0.68546	0.2638	0.17768	0.06
Mof_H 	H 	0.7065	0.2116	0.1983	0.031
Mof_C 	C 	0.50749	0.8772	0.07483	-0.002
Mof_H 	H 	0.5241	0.9419	0.095	0.043
Mof_C 	C 	0.83992	0.9613	0.17501	0.091
Mof_C 	C 	0.85774	0.0714	0.204	-0.044
Mof_H 	H 	0.887	0.0833	0.2143	0.058
Mof_N 	N 	0.79123	0.1009	0.19306	-0.16
Mof_H 	H 	0.7666	0.1365	0.1939	0.12
Mof_C 	C 	0.43663	0.9997	0.0522	-0.146
Mof_H 	H 	0.4536	0.071	0.0696	0.064
Mof_H 	H 	0.4263	0.0194	0.0062	0.058
Mof_C 	C 	0.86199	0.8413	0.158	-0.255
Mof_H 	H 	0.8442	0.7967	0.1236	0.111
Mof_H 	H 	0.8648	0.788	0.1978	0.116
Mof_C 	C 	0.79692	0.9844	0.1696	-0.004
Mof_H 	H 	0.7755	0.9292	0.1527	0.056
Mof_C 	C 	0.90563	0.8609	0.1331	0.072
Mof_C 	C 	0.91708	0.9294	0.0784	-0.017
Mof_H 	H 	0.8976	0.9742	0.0499	0.037
Mof_C 	C 	0.9429	0.8088	0.1567	-0.02
Mof_H 	H 	0.9465	0.7543	0.1935	0.051
Mof_N 	N 	0.95881	0.9251	0.07059	-0.168
Mof_N 	N 	0.97363	0.8472	0.1196	-0.124
Mof_H 	H 	-1.08476e-18	0.8246	0.1262	0.087
Mof_N 	N 	0.35746	0.9243	0.17675	-0.166
Mof_C 	C 	0.39888	0.9843	0.0936	0.051
Mof_N 	N 	0.33619	0.0069	0.13462	-0.164
Mof_H 	H 	0.3105	0.0327	0.1389	0.13
Mof_C 	C 	0.35993	0.0435	0.0859	-0.018
Mof_H 	H 	0.3515	0.1004	0.0517	0.036
Mof_C 	C 	0.39545	0.9109	0.1514	-0.004
Mof_H 	H 	0.4172	0.8588	0.1701	0.042
Mof_O 	O 	0.66939	0.01173	0.19252	-0.406
Mof_O 	O 	0.59985	0.0335	0.16018	-0.31
Mof_C 	C 	0.63745	0.0775	0.1726	0.344
Mof_Co	Co	0.67187	0.84107	0.243	1.188
Mof_O 	O 	0.73331	0.857	0.29204	-0.409
Mof_O 	O 	0.60976	0.796	0.19679	-0.477
Mof_H 	H 	0.5987	0.86	0.1798	0.287
Mof_O 	O 	0.94835	0.9611	0.42656	-0.368
Mof_O 	O 	0.90421	0.1257	0.40942	-0.255
Mof_O 	O 	0.7496	0.0462	0.33503	-0.317
Mof_C 	C 	0.87794	0.9225	0.37738	-0.097
Mof_C 	C 	0.83683	0.9679	0.36243	0.092
Mof_H 	H 	0.8307	0.0523	0.3709	0.016
Mof_N 	N 	0.67168	0.6566	0.28483	-0.166
Mof_O 	O 	0.70576	0.772	0.15975	-0.461
Mof_H 	H 	0.7172	0.7043	0.1702	0.274
Mof_N 	N 	0.01104	0.1878	0.46654	-0.188
Mof_N 	N 	0.9794	0.2586	0.43703	-0.153
Mof_H 	H 	0.9538	0.2315	0.4269	0.14
Mof_C 	C 	0.80457	0.889	0.33485	-0.138
Mof_C 	C 	0.75917	0.9356	0.31984	0.394
Mof_C 	C 	0.85504	0.7137	0.3396	-0.122
Mof_C 	C 	0.91285	0.0103	0.40685	0.302
Mof_C 	C 	0.0446	0.2652	0.47313	-0.002
Mof_H 	H 	0.0715	0.2416	0.4922	0.035
Mof_C 	C 	0.0349	0.385	0.44839	0.017
Mof_C 	C 	0.88708	0.7948	0.36723	0.046
Mof_H 	H 	0.9145	0.7638	0.3788	0.038
Mof_C 	C 	0.81454	0.7638	0.32232	0.067
Mof_H 	H 	0.7935	0.7116	0.3017	0.032
Mof_C 	C 	0.99251	0.3772	0.42517	0.037
Mof_H 	H 	0.9759	0.4419	0.405	0.038
Mof_C 	C 	0.66008	0.4613	0.32499	0.07
Mof_C 	C 	0.64226	0.5714	0.296	-0.012
Mof_H 	H 	0.613	0.5833	0.2857	0.051
Mof_N 	N 	0.70877	0.6009	0.30694	-0.149
Mof_H 	H 	0.7334	0.6365	0.3061	0.123
Mof_C 	C 	0.06337	0.4997	0.4478	-0.213
Mof_H 	H 	0.0464	0.571	0.4304	0.096
Mof_H 	H 	0.0737	0.5194	0.4938	0.105
Mof_C 	C 	0.63801	0.3413	0.342	-0.242
Mof_H 	H 	0.6558	0.2967	0.3764	0.111
Mof_H 	H 	0.6352	0.288	0.3022	0.111
Mof_C 	C 	0.70308	0.4844	0.3304	-0.013
Mof_H 	H 	0.7245	0.4292	0.3473	0.06
Mof_C 	C 	0.59437	0.3609	0.3669	0.062
Mof_C 	C 	0.58292	0.4294	0.4216	-0.013
Mof_H 	H 	0.6024	0.4742	0.4501	0.041
Mof_C 	C 	0.5571	0.3088	0.3433	-0.011
Mof_H 	H 	0.5535	0.2543	0.3065	0.039
Mof_N 	N 	0.54119	0.4251	0.42941	-0.172
Mof_N 	N 	0.52637	0.3472	0.3804	-0.15
Mof_H 	H 	0.5	0.3246	0.3738	0.114
Mof_N 	N 	0.14254	0.4243	0.32325	-0.173
Mof_C 	C 	0.10112	0.4843	0.4064	0.051
Mof_N 	N 	0.16381	0.5069	0.36538	-0.158
Mof_H 	H 	0.1895	0.5327	0.3611	0.135
Mof_C 	C 	0.14007	0.5435	0.4141	-0.001
Mof_H 	H 	0.1485	0.6004	0.4483	0.043
Mof_C 	C 	0.10455	0.4109	0.3486	-0.011
Mof_H 	H 	0.0828	0.3588	0.3299	0.039
Mof_O 	O 	0.83061	0.51173	0.30748	-0.393
Mof_O 	O 	0.90015	0.5335	0.33982	-0.291
Mof_C 	C 	0.86255	0.5775	0.3274	0.343
Mof_Co	Co	0.17187	0.34107	0.243	1.184
Mof_O 	O 	0.23331	0.357	0.29204	-0.406
Mof_O 	O 	0.10976	0.296	0.19679	-0.481
Mof_H 	H 	0.0987	0.36	0.1798	0.282
Mof_O 	O 	0.44835	0.4611	0.42656	-0.407
Mof_O 	O 	0.40421	0.6257	0.40942	-0.264
Mof_O 	O 	0.2496	0.5462	0.33503	-0.298
Mof_C 	C 	0.37794	0.4225	0.37738	-0.114
Mof_C 	C 	0.33683	0.4679	0.36243	0.055
Mof_H 	H 	0.3307	0.5523	0.3709	0.039
Mof_N 	N 	0.17168	0.1566	0.28483	-0.163
Mof_O 	O 	0.20576	0.272	0.15975	-0.466
Mof_H 	H 	0.2172	0.2043	0.1702	0.275
Mof_N 	N 	0.51104	0.6878	0.46654	-0.172
Mof_N 	N 	0.4794	0.7586	0.43703	-0.159
Mof_H 	H 	0.4538	0.7315	0.4269	0.14
Mof_C 	C 	0.30457	0.389	0.33485	-0.122
Mof_C 	C 	0.25917	0.4356	0.31984	0.364
Mof_C 	C 	0.35504	0.2137	0.3396	-0.125
Mof_C 	C 	0.41285	0.5103	0.40685	0.344
Mof_C 	C 	0.5446	0.7652	0.47313	-0.004
Mof_H 	H 	0.5715	0.7416	0.4922	0.039
Mof_C 	C 	0.5349	0.885	0.44839	0.043
Mof_C 	C 	0.38708	0.2948	0.36723	0.052
Mof_H 	H 	0.4145	0.2638	0.3788	0.031
Mof_C 	C 	0.31454	0.2638	0.32232	0.06
Mof_H 	H 	0.2935	0.2116	0.3017	0.033
Mof_C 	C 	0.49251	0.8772	0.42517	0
Mof_H 	H 	0.4759	0.9419	0.405	0.049
Mof_C 	C 	0.16008	0.9613	0.32499	0.093
Mof_C 	C 	0.14226	0.0714	0.296	-0.043
Mof_H 	H 	0.113	0.0833	0.2857	0.054
Mof_N 	N 	0.20877	0.1009	0.30694	-0.16
Mof_H 	H 	0.2334	0.1365	0.3061	0.122
Mof_C 	C 	0.56337	0.9997	0.4478	-0.168
Mof_H 	H 	0.5464	0.071	0.4304	0.078
Mof_H 	H 	0.5737	0.0194	0.4938	0.081
Mof_C 	C 	0.13801	0.8413	0.342	-0.256
Mof_H 	H 	0.1558	0.7967	0.3764	0.116
Mof_H 	H 	0.1352	0.788	0.3022	0.116
Mof_C 	C 	0.20308	0.9844	0.3304	-0.001
Mof_H 	H 	0.2245	0.9292	0.3473	0.06
Mof_C 	C 	0.09437	0.8609	0.3669	0.072
Mof_C 	C 	0.08292	0.9294	0.4216	-0.015
Mof_H 	H 	0.1024	0.9742	0.4501	0.047
Mof_C 	C 	0.0571	0.8088	0.3433	-0.017
Mof_H 	H 	0.0535	0.7543	0.3065	0.04
Mof_N 	N 	0.04119	0.9251	0.42941	-0.17
Mof_N 	N 	0.02637	0.8472	0.3804	-0.148
Mof_H 	H 	2.16952e-18	0.8246	0.3738	0.105
Mof_N 	N 	0.64254	0.9243	0.32325	-0.165
Mof_C 	C 	0.60112	0.9843	0.4064	0.063
Mof_N 	N 	0.66381	0.0069	0.36538	-0.162
Mof_H 	H 	0.6895	0.0327	0.3611	0.132
Mof_C 	C 	0.64007	0.0435	0.4141	-0.02
Mof_H 	H 	0.6485	0.1004	0.4483	0.047
Mof_C 	C 	0.60455	0.9109	0.3486	-0.009
Mof_H 	H 	0.5828	0.8588	0.3299	0.044
Mof_O 	O 	0.33061	0.01173	0.30748	-0.403
Mof_O 	O 	0.40015	0.0335	0.33982	-0.304
Mof_C 	C 	0.36255	0.0775	0.3274	0.345
Mof_Co	Co	0.67187	0.15893	0.743	1.181
Mof_O 	O 	0.73331	0.143	0.79204	-0.4
Mof_O 	O 	0.60976	0.204	0.69679	-0.477
Mof_H 	H 	0.5987	0.14	0.6798	0.279
Mof_O 	O 	0.94835	0.0389	0.92656	-0.399
Mof_O 	O 	0.90421	0.8743	0.90942	-0.257
Mof_O 	O 	0.7496	0.9538	0.83503	-0.276
Mof_C 	C 	0.87794	0.0775	0.87738	-0.11
Mof_C 	C 	0.83683	0.0321	0.86243	0.012
Mof_H 	H 	0.8307	0.9477	0.8709	0.069
Mof_N 	N 	0.67168	0.3434	0.78483	-0.166
Mof_O 	O 	0.70576	0.228	0.65975	-0.463
Mof_H 	H 	0.7172	0.2957	0.6702	0.275
Mof_N 	N 	0.01104	0.8122	0.96654	-0.166
Mof_N 	N 	0.9794	0.7414	0.93703	-0.151
Mof_H 	H 	0.9538	0.7685	0.9269	0.151
Mof_C 	C 	0.80457	0.111	0.83485	-0.097
Mof_C 	C 	0.75917	0.0644	0.81984	0.335
Mof_C 	C 	0.85504	0.2863	0.8396	-0.109
Mof_C 	C 	0.91285	0.9897	0.90685	0.378
Mof_C 	C 	0.0446	0.7348	0.97313	-0.003
Mof_H 	H 	0.0715	0.7584	0.9922	0.055
Mof_C 	C 	0.0349	0.615	0.94839	0.037
Mof_C 	C 	0.88708	0.2052	0.86723	0.048
Mof_H 	H 	0.9145	0.2362	0.8788	0.042
Mof_C 	C 	0.81454	0.2362	0.82232	0.045
Mof_H 	H 	0.7935	0.2884	0.8017	0.04
Mof_C 	C 	0.99251	0.6228	0.92517	0.038
Mof_H 	H 	0.9759	0.5581	0.905	0.045
Mof_C 	C 	0.66008	0.5387	0.82499	0.074
Mof_C 	C 	0.64226	0.4286	0.796	-0.013
Mof_H 	H 	0.613	0.4167	0.7857	0.051
Mof_N 	N 	0.70877	0.3991	0.80694	-0.149
Mof_H 	H 	0.7334	0.3635	0.8061	0.124
Mof_C 	C 	0.06337	0.5003	0.9478	-0.235
Mof_H 	H 	0.0464	0.429	0.9304	0.11
Mof_H 	H 	0.0737	0.4806	0.9938	0.127
Mof_C 	C 	0.63801	0.6587	0.842	-0.248
Mof_H 	H 	0.6558	0.7033	0.8764	0.118
Mof_H 	H 	0.6352	0.712	0.8022	0.113
Mof_C 	C 	0.70308	0.5156	0.8304	-0.013
Mof_H 	H 	0.7245	0.5708	0.8473	0.064
Mof_C 	C 	0.59437	0.6391	0.8669	0.069
Mof_C 	C 	0.58292	0.5706	0.9216	-0.013
Mof_H 	H 	0.6024	0.5258	0.9501	0.053
Mof_C 	C 	0.5571	0.6912	0.8433	-0.013
Mof_H 	H 	0.5535	0.7457	0.8065	0.043
Mof_N 	N 	0.54119	0.5749	0.92941	-0.159
Mof_N 	N 	0.52637	0.6528	0.8804	-0.149
Mof_H 	H 	0.5	0.6754	0.8738	0.119
Mof_N 	N 	0.14254	0.5757	0.82325	-0.171
Mof_C 	C 	0.10112	0.5157	0.9064	0.066
Mof_N 	N 	0.16381	0.4931	0.86538	-0.156
Mof_H 	H 	0.1895	0.4673	0.8611	0.138
Mof_C 	C 	0.14007	0.4565	0.9141	-0.004
Mof_H 	H 	0.1485	0.3996	0.9483	0.055
Mof_C 	C 	0.10455	0.5891	0.8486	-0.015
Mof_H 	H 	0.0828	0.6412	0.8299	0.044
Mof_O 	O 	0.83061	0.48827	0.80748	-0.389
Mof_O 	O 	0.90015	0.4665	0.83982	-0.284
Mof_C 	C 	0.86255	0.4225	0.8274	0.341
Mof_Co	Co	0.17187	0.65893	0.743	1.185
Mof_O 	O 	0.23331	0.643	0.79204	-0.403
Mof_O 	O 	0.10976	0.704	0.69679	-0.476
Mof_H 	H 	0.0987	0.64	0.6798	0.283
Mof_O 	O 	0.44835	0.5389	0.92656	-0.387
Mof_O 	O 	0.40421	0.3743	0.90942	-0.253
Mof_O 	O 	0.2496	0.4538	0.83503	-0.294
Mof_C 	C 	0.37794	0.5775	0.87738	-0.102
Mof_C 	C 	0.33683	0.5321	0.86243	0.052
Mof_H 	H 	0.3307	0.4477	0.8709	0.045
Mof_N 	N 	0.17168	0.8434	0.78483	-0.169
Mof_O 	O 	0.20576	0.728	0.65975	-0.458
Mof_H 	H 	0.2172	0.7957	0.6702	0.274
Mof_N 	N 	0.51104	0.3122	0.96654	-0.153
Mof_N 	N 	0.4794	0.2414	0.93703	-0.151
Mof_H 	H 	0.4538	0.2685	0.9269	0.145
Mof_C 	C 	0.30457	0.611	0.83485	-0.114
Mof_C 	C 	0.25917	0.5644	0.81984	0.364
Mof_C 	C 	0.35504	0.7863	0.8396	-0.111
Mof_C 	C 	0.41285	0.4897	0.90685	0.343
Mof_C 	C 	0.5446	0.2348	0.97313	-0.03
Mof_H 	H 	0.5715	0.2584	0.9922	0.062
Mof_C 	C 	0.5349	0.115	0.94839	0.103
Mof_C 	C 	0.38708	0.7052	0.86723	0.048
Mof_H 	H 	0.4145	0.7362	0.8788	0.041
Mof_C 	C 	0.31454	0.7362	0.82232	0.056
Mof_H 	H 	0.2935	0.7884	0.8017	0.038
Mof_C 	C 	0.49251	0.1228	0.92517	-0.024
Mof_H 	H 	0.4759	0.0581	0.905	0.056
Mof_C 	C 	0.16008	0.0387	0.82499	0.051
Mof_C 	C 	0.14226	0.9286	0.796	0.019
Mof_H 	H 	0.113	0.9167	0.7857	0.046
Mof_N 	N 	0.20877	0.8991	0.80694	-0.139
Mof_H 	H 	0.2334	0.8635	0.8061	0.125
Mof_C 	C 	0.56337	0.0003	0.9478	-0.336
Mof_H 	H 	0.5464	0.929	0.9304	0.153
Mof_H 	H 	0.5737	0.9806	0.9938	0.167
Mof_C 	C 	0.13801	0.1587	0.842	-0.235
Mof_H 	H 	0.1558	0.2033	0.8764	0.113
Mof_H 	H 	0.1352	0.212	0.8022	0.108
Mof_C 	C 	0.20308	0.0156	0.8304	-0.024
Mof_H 	H 	0.2245	0.0708	0.8473	0.065
Mof_C 	C 	0.09437	0.1391	0.8669	0.06
Mof_C 	C 	0.08292	0.0706	0.9216	-0.012
Mof_H 	H 	0.1024	0.0258	0.9501	0.048
Mof_C 	C 	0.0571	0.1912	0.8433	-0.014
Mof_H 	H 	0.0535	0.2457	0.8065	0.037
Mof_N 	N 	0.04119	0.0749	0.92941	-0.166
Mof_N 	N 	0.02637	0.1528	0.8804	-0.149
Mof_H 	H 	2.24291e-33	0.1754	0.8738	0.107
Mof_N 	N 	0.64254	0.0757	0.82325	-0.177
Mof_C 	C 	0.60112	0.0157	0.9064	0.078
Mof_N 	N 	0.66381	0.9931	0.86538	-0.15
Mof_H 	H 	0.6895	0.9673	0.8611	0.139
Mof_C 	C 	0.64007	0.9565	0.9141	0.001
Mof_H 	H 	0.6485	0.8996	0.9483	0.055
Mof_C 	C 	0.60455	0.0891	0.8486	-0.029
Mof_H 	H 	0.5828	0.1412	0.8299	0.049
Mof_O 	O 	0.33061	0.98827	0.80748	-0.38
Mof_O 	O 	0.40015	0.9665	0.83982	-0.278
Mof_C 	C 	0.36255	0.9225	0.8274	0.342
Mof_Co	Co	0.32813	0.15893	0.757	1.181
Mof_O 	O 	0.26669	0.143	0.70796	-0.402
Mof_O 	O 	0.39024	0.204	0.80321	-0.476
Mof_H 	H 	0.4013	0.14	0.8202	0.281
Mof_O 	O 	0.05165	0.0389	0.57344	-0.436
Mof_O 	O 	0.09579	0.8743	0.59058	-0.273
Mof_O 	O 	0.2504	0.9538	0.66497	-0.279
Mof_C 	C 	0.12206	0.0775	0.62262	-0.127
Mof_C 	C 	0.16317	0.0321	0.63757	0.015
Mof_H 	H 	0.1693	0.9477	0.6291	0.064
Mof_N 	N 	0.32832	0.3434	0.71517	-0.167
Mof_O 	O 	0.29424	0.228	0.84025	-0.455
Mof_H 	H 	0.2828	0.2957	0.8298	0.275
Mof_N 	N 	0.98896	0.8122	0.53346	-0.146
Mof_N 	N 	0.0206	0.7414	0.56297	-0.158
Mof_H 	H 	0.0462	0.7685	0.5731	0.14
Mof_C 	C 	0.19543	0.111	0.66515	-0.104
Mof_C 	C 	0.24083	0.0644	0.68016	0.334
Mof_C 	C 	0.14496	0.2863	0.6604	-0.12
Mof_C 	C 	0.08715	0.9897	0.59315	0.385
Mof_C 	C 	0.9554	0.7348	0.52687	-0.032
Mof_H 	H 	0.9285	0.7584	0.5078	0.052
Mof_C 	C 	0.9651	0.615	0.55161	0.113
Mof_C 	C 	0.11292	0.2052	0.63277	0.054
Mof_H 	H 	0.0855	0.2362	0.6212	0.029
Mof_C 	C 	0.18546	0.2362	0.67768	0.049
Mof_H 	H 	0.2065	0.2884	0.6983	0.038
Mof_C 	C 	0.00749	0.6228	0.57483	-0.063
Mof_H 	H 	0.0241	0.5581	0.595	0.061
Mof_C 	C 	0.33992	0.5387	0.67501	0.07
Mof_C 	C 	0.35774	0.4286	0.704	-0.012
Mof_H 	H 	0.387	0.4167	0.7143	0.051
Mof_N 	N 	0.29123	0.3991	0.69306	-0.15
Mof_H 	H 	0.2666	0.3635	0.6939	0.122
Mof_C 	C 	0.93663	0.5003	0.5522	-0.276
Mof_H 	H 	0.9536	0.429	0.5696	0.125
Mof_H 	H 	0.9263	0.4806	0.5062	0.124
Mof_C 	C 	0.36199	0.6587	0.658	-0.244
Mof_H 	H 	0.3442	0.7033	0.6236	0.112
Mof_H 	H 	0.3648	0.712	0.6978	0.112
Mof_C 	C 	0.29692	0.5156	0.6696	-0.014
Mof_H 	H 	0.2755	0.5708	0.6527	0.06
Mof_C 	C 	0.40563	0.6391	0.6331	0.064
Mof_C 	C 	0.41708	0.5706	0.5784	-0.013
Mof_H 	H 	0.3976	0.5258	0.5499	0.041
Mof_C 	C 	0.4429	0.6912	0.6567	-0.012
Mof_H 	H 	0.4465	0.7457	0.6935	0.043
Mof_N 	N 	0.45881	0.5749	0.57059	-0.172
Mof_N 	N 	0.47363	0.6528	0.6196	-0.15
Mof_H 	H 	0.5	0.6754	0.6262	0.115
Mof_N 	N 	0.85746	0.5757	0.67675	-0.17
Mof_C 	C 	0.89888	0.5157	0.5936	0.078
Mof_N 	N 	0.83619	0.4931	0.63462	-0.155
Mof_H 	H 	0.8105	0.4673	0.6389	0.134
Mof_C 	C 	0.85993	0.4565	0.5859	-0.015
Mof_H 	H 	0.8515	0.3996	0.5517	0.048
Mof_C 	C 	0.89545	0.5891	0.6514	-0.023
Mof_H 	H 	0.9172	0.6412	0.6701	0.052
Mof_O 	O 	0.16939	0.48827	0.69252	-0.393
Mof_O 	O 	0.09985	0.4665	0.66018	-0.296
Mof_C 	C 	0.13745	0.4225	0.6726	0.343
Mof_Co	Co	0.82813	0.65893	0.757	1.185
Mof_O 	O 	0.76669	0.643	0.70796	-0.405
Mof_O 	O 	0.89024	0.704	0.80321	-0.473
Mof_H 	H 	0.9013	0.64	0.8202	0.286
Mof_O 	O 	0.55165	0.5389	0.57344	-0.407
Mof_O 	O 	0.59579	0.3743	0.59058	-0.265
Mof_O 	O 	0.7504	0.4538	0.66497	-0.299
Mof_C 	C 	0.62206	0.5775	0.62262	-0.112
Mof_C 	C 	0.66317	0.5321	0.63757	0.054
Mof_H 	H 	0.6693	0.4477	0.6291	0.039
Mof_N 	N 	0.82832	0.8434	0.71517	-0.169
Mof_O 	O 	0.79424	0.728	0.84025	-0.451
Mof_H 	H 	0.7828	0.7957	0.8298	0.274
Mof_N 	N 	0.48896	0.3122	0.53346	-0.168
Mof_N 	N 	0.5206	0.2414	0.56297	-0.154
Mof_H 	H 	0.5462	0.2685	0.5731	0.138
Mof_C 	C 	0.69543	0.611	0.66515	-0.12
Mof_C 	C 	0.74083	0.5644	0.68016	0.364
Mof_C 	C 	0.64496	0.7863	0.6604	-0.118
Mof_C 	C 	0.58715	0.4897	0.59315	0.344
Mof_C 	C 	0.4554	0.2348	0.52687	-0.031
Mof_H 	H 	0.4285	0.2584	0.5078	0.047
Mof_C 	C 	0.4651	0.115	0.55161	0.087
Mof_C 	C 	0.61292	0.7052	0.63277	0.049
Mof_H 	H 	0.5855	0.7362	0.6212	0.034
Mof_C 	C 	0.68546	0.7362	0.67768	0.057
Mof_H 	H 	0.7065	0.7884	0.6983	0.036
Mof_C 	C 	0.50749	0.1228	0.57483	-0.027
Mof_H 	H 	0.5241	0.0581	0.595	0.049
Mof_C 	C 	0.83992	0.0387	0.67501	0.05
Mof_C 	C 	0.85774	0.9286	0.704	0.016
Mof_H 	H 	0.887	0.9167	0.7143	0.049
Mof_N 	N 	0.79123	0.8991	0.69306	-0.139
Mof_H 	H 	0.7666	0.8635	0.6939	0.123
Mof_C 	C 	0.43663	0.0003	0.5522	-0.321
Mof_H 	H 	0.4536	0.929	0.5696	0.143
Mof_H 	H 	0.4263	0.9806	0.5062	0.148
Mof_C 	C 	0.86199	0.1587	0.658	-0.235
Mof_H 	H 	0.8442	0.2033	0.6236	0.109
Mof_H 	H 	0.8648	0.212	0.6978	0.109
Mof_C 	C 	0.79692	0.0156	0.6696	-0.026
Mof_H 	H 	0.7755	0.0708	0.6527	0.061
Mof_C 	C 	0.90563	0.1391	0.6331	0.061
Mof_C 	C 	0.91708	0.0706	0.5784	-0.014
Mof_H 	H 	0.8976	0.0258	0.5499	0.037
Mof_C 	C 	0.9429	0.1912	0.6567	-0.017
Mof_H 	H 	0.9465	0.2457	0.6935	0.048
Mof_N 	N 	0.95881	0.0749	0.57059	-0.169
Mof_N 	N 	0.97363	0.1528	0.6196	-0.125
Mof_H 	H 	-4.33904e-18	0.1754	0.6262	0.088
Mof_N 	N 	0.35746	0.0757	0.67675	-0.179
Mof_C 	C 	0.39888	0.0157	0.5936	0.066
Mof_N 	N 	0.33619	0.9931	0.63462	-0.152
Mof_H 	H 	0.3105	0.9673	0.6389	0.136
Mof_C 	C 	0.35993	0.9565	0.5859	0.005
Mof_H 	H 	0.3515	0.8996	0.5517	0.044
Mof_C 	C 	0.39545	0.0891	0.6514	-0.025
Mof_H 	H 	0.4172	0.1412	0.6701	0.047
Mof_O 	O 	0.66939	0.98827	0.69252	-0.383
Mof_O 	O 	0.59985	0.9665	0.66018	-0.284
Mof_C 	C 	0.63745	0.9225	0.6726	0.341
Mof_Co	Co	-0	0	-0	1.11
Mof_Co	Co	0.5	0.5	-0	1.13
Mof_Co	Co	1.28342e-33	0	0.5	1.131
Mof_Co	Co	0.5	0.5	0.5	1.151
_end
