# CIF file generated by openbabel 3.1.0, see https://openbabel.org
data_I
_chemical_name_common 'image0'
_cell_length_a 7.663
_cell_length_b 10.104
_cell_length_c 17.426
_cell_angle_alpha 90
_cell_angle_beta 90
_cell_angle_gamma 90
_space_group_name_H-M_alt 'P 1'
_space_group_name_Hall 'P 1'
loop_
    _symmetry_equiv_pos_as_xyz
    x,y,z
loop_
    _atom_site_label
    _atom_site_type_symbol
    _atom_site_fract_x
    _atom_site_fract_y
    _atom_site_fract_z
    _atom_site_occupancy
    N1       N        0.15000    0.40290    0.79243    1.000
    N2       N        0.32580    0.40170    0.80764    1.000
    N3       N        0.21230    0.58360    0.85905    1.000
    C1       C        0.08940    0.51170    0.82387    1.000
    H1       H        0.97250    0.53640    0.82190    1.000
    C2       C        0.35760    0.51110    0.84677    1.000
    H2       H        0.46790    0.53550    0.86400    1.000
    N4       N        0.35000    0.59710    0.29243    1.000
    N5       N        0.17420    0.59830    0.30764    1.000
    N6       N        0.28770    0.41640    0.35905    1.000
    C3       C        0.41060    0.48830    0.32387    1.000
    H3       H        0.52750    0.46360    0.32190    1.000
    C4       C        0.14240    0.48890    0.34677    1.000
    H4       H        0.03210    0.46450    0.36400    1.000
    N7       N        0.85000    0.90290    0.20757    1.000
    N8       N        0.67420    0.90170    0.19236    1.000
    N9       N        0.78770    0.08360    0.14095    1.000
    C5       C        0.91060    0.01170    0.17613    1.000
    H5       H        0.02750    0.03640    0.17810    1.000
    C6       C        0.64240    0.01110    0.15323    1.000
    H6       H        0.53210    0.03550    0.13600    1.000
    N10      N        0.65000    0.09710    0.70757    1.000
    N11      N        0.82580    0.09830    0.69236    1.000
    N12      N        0.71230    0.91640    0.64095    1.000
    C7       C        0.58940    0.98830    0.67613    1.000
    H7       H        0.47250    0.96360    0.67810    1.000
    C8       C        0.85760    0.98890    0.65323    1.000
    H8       H        0.96790    0.96450    0.63600    1.000
    N13      N        0.85000    0.59710    0.20757    1.000
    N14      N        0.67420    0.59830    0.19236    1.000
    N15      N        0.78770    0.41640    0.14095    1.000
    C9       C        0.91060    0.48830    0.17613    1.000
    H9       H        0.02750    0.46360    0.17810    1.000
    C10      C        0.64240    0.48890    0.15323    1.000
    H10      H        0.53210    0.46450    0.13600    1.000
    N16      N        0.65000    0.40290    0.70757    1.000
    N17      N        0.82580    0.40170    0.69236    1.000
    N18      N        0.71230    0.58360    0.64095    1.000
    C11      C        0.58940    0.51170    0.67613    1.000
    H11      H        0.47250    0.53640    0.67810    1.000
    C12      C        0.85760    0.51110    0.65323    1.000
    H12      H        0.96790    0.53550    0.63600    1.000
    N19      N        0.15000    0.09710    0.79243    1.000
    N20      N        0.32580    0.09830    0.80764    1.000
    N21      N        0.21230    0.91640    0.85905    1.000
    C13      C        0.08940    0.98830    0.82387    1.000
    H13      H        0.97250    0.96360    0.82190    1.000
    C14      C        0.35760    0.98890    0.84677    1.000
    H14      H        0.46790    0.96450    0.86400    1.000
    N22      N        0.35000    0.90290    0.29243    1.000
    N23      N        0.17420    0.90170    0.30764    1.000
    N24      N        0.28770    0.08360    0.35905    1.000
    C15      C        0.41060    0.01170    0.32387    1.000
    H15      H        0.52750    0.03640    0.32190    1.000
    C16      C        0.14240    0.01110    0.34677    1.000
    H16      H        0.03210    0.03550    0.36400    1.000
    Zn1      Zn       0.15692    0.75000    0.91555    1.000
    Zn2      Zn       0.00750    0.75000    0.26119    1.000
    N25      N        0.33900    0.75000    0.14161    1.000
    N26      N        0.16210    0.75000    0.15229    1.000
    N27      N        0.21300    0.75000    0.02704    1.000
    C17      C        0.36330    0.75000    0.06680    1.000
    H17      H        0.47290    0.75000    0.04390    1.000
    C18      C        0.09310    0.75000    0.08320    1.000
    H18      H        0.97340    0.75000    0.07420    1.000
    Zn3      Zn       0.34308    0.25000    0.41555    1.000
    Zn4      Zn       0.49250    0.25000    0.76119    1.000
    N28      N        0.16100    0.25000    0.64161    1.000
    N29      N        0.33790    0.25000    0.65229    1.000
    N30      N        0.28700    0.25000    0.52704    1.000
    C19      C        0.13670    0.25000    0.56680    1.000
    H19      H        0.02710    0.25000    0.54390    1.000
    C20      C        0.40690    0.25000    0.58320    1.000
    H20      H        0.52660    0.25000    0.57420    1.000
    Zn5      Zn       0.84308    0.25000    0.08445    1.000
    Zn6      Zn       0.99250    0.25000    0.73881    1.000
    N31      N        0.66100    0.25000    0.85839    1.000
    N32      N        0.83790    0.25000    0.84771    1.000
    N33      N        0.78700    0.25000    0.97296    1.000
    C21      C        0.63670    0.25000    0.93320    1.000
    H21      H        0.52710    0.25000    0.95610    1.000
    C22      C        0.90690    0.25000    0.91680    1.000
    H22      H        0.02660    0.25000    0.92580    1.000
    Zn7      Zn       0.65692    0.75000    0.58445    1.000
    Zn8      Zn       0.50750    0.75000    0.23881    1.000
    N34      N        0.83900    0.75000    0.35839    1.000
    N35      N        0.66210    0.75000    0.34771    1.000
    N36      N        0.71300    0.75000    0.47296    1.000
    C23      C        0.86330    0.75000    0.43320    1.000
    H23      H        0.97290    0.75000    0.45610    1.000
    C24      C        0.59310    0.75000    0.41680    1.000
    H24      H        0.47340    0.75000    0.42580    1.000
