# CIF file generated by openbabel 3.1.0, see https://openbabel.org
data_I
_chemical_name_common 'image0'
_cell_length_a 10.893
_cell_length_b 6.618
_cell_length_c 17.337
_cell_angle_alpha 90
_cell_angle_beta 106.885
_cell_angle_gamma 90
_space_group_name_H-M_alt 'P 1'
_space_group_name_Hall 'P 1'
loop_
    _symmetry_equiv_pos_as_xyz
    x,y,z
loop_
    _atom_site_label
    _atom_site_type_symbol
    _atom_site_fract_x
    _atom_site_fract_y
    _atom_site_fract_z
    _atom_site_occupancy
    Mn1      Mn       0.46859    0.49677    0.08739    1.000
    O1       O        0.27340    0.35280    0.03820    1.000
    O2       O        0.34850    0.03850    0.06010    1.000
    O3       O        0.36280    0.14540    0.33810    1.000
    O4       O        0.35990    0.45440    0.38620    1.000
    O5       O        0.56240    0.31270    0.01860    1.000
    H1       H        0.65450    0.31280    0.04670    1.000
    C1       C        0.25740    0.16570    0.04140    1.000
    C2       C        0.12360    0.08180    0.02220    1.000
    C3       C        0.03380    0.15070    0.05990    1.000
    C4       C        0.07210    0.29790    0.12830    1.000
    C5       C        0.17170    0.24730    0.19660    1.000
    H2       H        0.21110    0.12180    0.19900    1.000
    C6       C        0.21350    0.37980    0.26120    1.000
    C7       C        0.15360    0.56850    0.25640    1.000
    H3       H        0.18070    0.65950    0.29890    1.000
    C8       C        0.05440    0.62090    0.18910    1.000
    H4       H        0.01610    0.74740    0.18630    1.000
    C9       C        0.01140    0.48370    0.12520    1.000
    H5       H        0.94250    0.51700    0.08100    1.000
    C10      C        0.32260    0.32200    0.33450    1.000
    C11      C        0.08770    0.93030    0.96330    1.000
    H6       H        0.14810    0.88310    0.93920    1.000
    Mn2      Mn       0.53141    0.99677    0.41261    1.000
    O6       O        0.72660    0.85280    0.46180    1.000
    O7       O        0.65150    0.53850    0.43990    1.000
    O8       O        0.63720    0.64540    0.16190    1.000
    O9       O        0.64010    0.95440    0.11380    1.000
    O10      O        0.43760    0.81270    0.48140    1.000
    H7       H        0.34550    0.81280    0.45330    1.000
    C12      C        0.74260    0.66570    0.45860    1.000
    C13      C        0.87640    0.58180    0.47780    1.000
    C14      C        0.96620    0.65070    0.44010    1.000
    C15      C        0.92790    0.79790    0.37170    1.000
    C16      C        0.82830    0.74730    0.30340    1.000
    H8       H        0.78890    0.62180    0.30100    1.000
    C17      C        0.78650    0.87980    0.23880    1.000
    C18      C        0.84640    0.06850    0.24360    1.000
    H9       H        0.81930    0.15950    0.20110    1.000
    C19      C        0.94560    0.12090    0.31090    1.000
    H10      H        0.98390    0.24740    0.31370    1.000
    C20      C        0.98860    0.98370    0.37480    1.000
    H11      H        0.05750    0.01700    0.41900    1.000
    C21      C        0.67740    0.82200    0.16550    1.000
    C22      C        0.91230    0.43030    0.53670    1.000
    H12      H        0.85190    0.38310    0.56080    1.000
    Mn3      Mn       0.53141    0.50323    0.91261    1.000
    O11      O        0.72660    0.64720    0.96180    1.000
    O12      O        0.65150    0.96150    0.93990    1.000
    O13      O        0.63720    0.85460    0.66190    1.000
    O14      O        0.64010    0.54560    0.61380    1.000
    O15      O        0.43760    0.68730    0.98140    1.000
    H13      H        0.34550    0.68720    0.95330    1.000
    C23      C        0.74260    0.83430    0.95860    1.000
    C24      C        0.87640    0.91820    0.97780    1.000
    C25      C        0.96620    0.84930    0.94010    1.000
    C26      C        0.92790    0.70210    0.87170    1.000
    C27      C        0.82830    0.75270    0.80340    1.000
    H14      H        0.78890    0.87820    0.80100    1.000
    C28      C        0.78650    0.62020    0.73880    1.000
    C29      C        0.84640    0.43150    0.74360    1.000
    H15      H        0.81930    0.34050    0.70110    1.000
    C30      C        0.94560    0.37910    0.81090    1.000
    H16      H        0.98390    0.25260    0.81370    1.000
    C31      C        0.98860    0.51630    0.87480    1.000
    H17      H        0.05750    0.48300    0.91900    1.000
    C32      C        0.67740    0.67800    0.66550    1.000
    C33      C        0.91230    0.06970    0.03670    1.000
    H18      H        0.85190    0.11690    0.06080    1.000
    Mn4      Mn       0.46859    0.00323    0.58739    1.000
    O16      O        0.27340    0.14720    0.53820    1.000
    O17      O        0.34850    0.46150    0.56010    1.000
    O18      O        0.36280    0.35460    0.83810    1.000
    O19      O        0.35990    0.04560    0.88620    1.000
    O20      O        0.56240    0.18730    0.51860    1.000
    H19      H        0.65450    0.18720    0.54670    1.000
    C34      C        0.25740    0.33430    0.54140    1.000
    C35      C        0.12360    0.41820    0.52220    1.000
    C36      C        0.03380    0.34930    0.55990    1.000
    C37      C        0.07210    0.20210    0.62830    1.000
    C38      C        0.17170    0.25270    0.69660    1.000
    H20      H        0.21110    0.37820    0.69900    1.000
    C39      C        0.21350    0.12020    0.76120    1.000
    C40      C        0.15360    0.93150    0.75640    1.000
    H21      H        0.18070    0.84050    0.79890    1.000
    C41      C        0.05440    0.87910    0.68910    1.000
    H22      H        0.01610    0.75260    0.68630    1.000
    C42      C        0.01140    0.01630    0.62520    1.000
    H23      H        0.94250    0.98300    0.58100    1.000
    C43      C        0.32260    0.17800    0.83450    1.000
    C44      C        0.08770    0.56970    0.46330    1.000
    H24      H        0.14810    0.61690    0.43920    1.000
    Mn5      Mn       0.50000    0.00000    0.00000    1.000
    Mn6      Mn       0.50000    0.50000    0.50000    1.000
