data_functionalizedCrystal
_audit_creation_method	'EQeq! by Chris Wilmer'
_symmetry_space_group_name_H-M	'P1'
_symmetry_Int_Tables_number	1
_symmetry_cell_setting	triclinic
loop_
_symmetry_equiv_pos_as_xyz
  x,y,z
_cell_length_a	12.6751
_cell_length_b	12.6751
_cell_length_c	32.243
_cell_angle_alpha	90
_cell_angle_beta	90
_cell_angle_gamma	120
loop_
_atom_site_label
_atom_site_type_symbol
_atom_site_fract_x
_atom_site_fract_y
_atom_site_fract_z
_atom_site_charge
Mof_C 	C 	0.0407	0.2139	0.07478	0.11
Mof_C 	C 	0.139	0.3912	0.11938	0.111
Mof_C 	C 	0.9347	0.2197	0.13911	0.073
Mof_N 	N 	0.21585	0.48808	0.12814	-0.158
Mof_C 	C 	0.8332	0.1056	0.13113	-0.053
Mof_H 	H 	0.8318	0.0626	0.1068	0.057
Mof_C 	C 	0.9324	0.2797	0.1754	-0.063
Mof_H 	H 	0.9999	0.3575	0.1817	0.067
Mof_C 	C 	0.04	0.2752	0.1109	-0.125
Mof_N 	N 	0.03591	0.15919	0.04544	-0.159
Mof_C 	C 	0.70737	0.54723	0.40811	0.116
Mof_C 	C 	0.80567	0.72453	0.45271	0.116
Mof_C 	C 	0.60137	0.55303	0.47244	0.066
Mof_N 	N 	0.88252	0.82141	0.46147	-0.146
Mof_C 	C 	0.49987	0.43893	0.46446	-0.065
Mof_H 	H 	0.49847	0.39593	0.44013	0.061
Mof_C 	C 	0.59907	0.61303	0.50873	-0.065
Mof_H 	H 	0.66657	0.69083	0.51503	0.064
Mof_C 	C 	0.70667	0.60853	0.44423	-0.111
Mof_N 	N 	0.70258	0.49252	0.37877	-0.154
Mof_C 	C 	0.37403	0.88057	0.74145	0.11
Mof_C 	C 	0.47233	0.05787	0.78605	0.091
Mof_C 	C 	0.26803	0.88637	0.80578	0.047
Mof_N 	N 	0.54918	0.15475	0.79481	-0.151
Mof_C 	C 	0.16653	0.77227	0.7978	-0.056
Mof_H 	H 	0.16513	0.72927	0.77347	0.058
Mof_C 	C 	0.26573	0.94637	0.84207	-0.027
Mof_H 	H 	0.33323	0.02417	0.84837	0.041
Mof_C 	C 	0.37333	0.94187	0.77757	-0.087
Mof_N 	N 	0.36924	0.82586	0.71211	-0.152
Mof_C 	C 	0.7861	0.8268	0.07478	0.12
Mof_C 	C 	0.6088	0.7478	0.11938	0.116
Mof_C 	C 	0.7803	0.715	0.13911	0.08
Mof_N 	N 	0.51192	0.72777	0.12814	-0.156
Mof_C 	C 	0.8944	0.7276	0.13113	-0.087
Mof_H 	H 	0.9374	0.7692	0.1068	0.074
Mof_C 	C 	0.7203	0.6527	0.1754	-0.077
Mof_H 	H 	0.6425	0.6424	0.1817	0.067
Mof_C 	C 	0.7248	0.7648	0.1109	-0.115
Mof_N 	N 	0.84081	0.87672	0.04544	-0.147
Mof_C 	C 	0.45277	0.16013	0.40811	0.108
Mof_C 	C 	0.27547	0.08113	0.45271	0.103
Mof_C 	C 	0.44697	0.04833	0.47244	0.029
Mof_N 	N 	0.17859	0.0611	0.46147	-0.157
Mof_C 	C 	0.56107	0.06093	0.46446	-0.035
Mof_H 	H 	0.60407	0.10253	0.44013	0.051
Mof_C 	C 	0.38697	0.98603	0.50873	-0.022
Mof_H 	H 	0.30917	0.97573	0.51503	0.053
Mof_C 	C 	0.39147	0.09813	0.44423	-0.1
Mof_N 	N 	0.50748	0.21005	0.37877	-0.154
Mof_C 	C 	0.11943	0.49347	0.74145	0.118
Mof_C 	C 	0.94213	0.41447	0.78605	0.134
Mof_C 	C 	0.11363	0.38167	0.80578	0.086
Mof_N 	N 	0.84525	0.39444	0.79481	-0.159
Mof_C 	C 	0.22773	0.39427	0.7978	-0.082
Mof_H 	H 	0.27073	0.43587	0.77347	0.066
Mof_C 	C 	0.05363	0.31937	0.84207	-0.108
Mof_H 	H 	0.97583	0.30907	0.84837	0.085
Mof_C 	C 	0.05813	0.43147	0.77757	-0.137
Mof_N 	N 	0.17414	0.54339	0.71211	-0.158
Mof_C 	C 	0.1732	0.9593	0.07478	0.11
Mof_C 	C 	0.2522	0.861	0.11938	0.11
Mof_C 	C 	0.285	0.0653	0.13911	0.041
Mof_N 	N 	0.27223	0.78415	0.12814	-0.153
Mof_C 	C 	0.2724	0.1668	0.13113	-0.053
Mof_H 	H 	0.2308	0.1682	0.1068	0.054
Mof_C 	C 	0.3473	0.0676	0.1754	-0.053
Mof_H 	H 	0.3576	0.0001	0.1817	0.052
Mof_C 	C 	0.2352	0.96	0.1109	-0.093
Mof_N 	N 	0.12328	0.96409	0.04544	-0.15
Mof_C 	C 	0.83987	0.29263	0.40811	0.119
Mof_C 	C 	0.91887	0.19433	0.45271	0.12
Mof_C 	C 	0.95167	0.39863	0.47244	0.099
Mof_N 	N 	0.9389	0.11748	0.46147	-0.153
Mof_C 	C 	0.93907	0.50013	0.46446	-0.092
Mof_H 	H 	0.89747	0.50153	0.44013	0.072
Mof_C 	C 	0.01397	0.40093	0.50873	-0.106
Mof_H 	H 	0.02427	0.33343	0.51503	0.071
Mof_C 	C 	0.90187	0.29333	0.44423	-0.122
Mof_N 	N 	0.78995	0.29742	0.37877	-0.156
Mof_C 	C 	0.50653	0.62597	0.74145	0.114
Mof_C 	C 	0.58553	0.52767	0.78605	0.113
Mof_C 	C 	0.61833	0.73197	0.80578	0.06
Mof_N 	N 	0.60556	0.45082	0.79481	-0.155
Mof_C 	C 	0.60573	0.83347	0.7978	-0.054
Mof_H 	H 	0.56413	0.83487	0.77347	0.06
Mof_C 	C 	0.68063	0.73427	0.84207	-0.055
Mof_H 	H 	0.69093	0.66677	0.84837	0.06
Mof_C 	C 	0.56853	0.62667	0.77757	-0.108
Mof_N 	N 	0.45661	0.63076	0.71211	-0.154
Mof_C 	C 	0.9593	0.7861	0.92522	0.118
Mof_C 	C 	0.861	0.6088	0.88062	0.115
Mof_C 	C 	0.0653	0.7803	0.86089	0.059
Mof_N 	N 	0.78415	0.51192	0.87186	-0.153
Mof_C 	C 	0.1668	0.8944	0.86887	-0.078
Mof_H 	H 	0.1682	0.9374	0.8932	0.069
Mof_C 	C 	0.0676	0.7203	0.8246	-0.067
Mof_H 	H 	0.0001	0.6425	0.8183	0.058
Mof_C 	C 	0.96	0.7248	0.8891	-0.099
Mof_N 	N 	0.96409	0.84081	0.95456	-0.144
Mof_C 	C 	0.62597	0.11943	0.25855	0.118
Mof_C 	C 	0.52767	0.94213	0.21395	0.134
Mof_C 	C 	0.73197	0.11363	0.19422	0.08
Mof_N 	N 	0.45082	0.84525	0.20519	-0.159
Mof_C 	C 	0.83347	0.22773	0.2022	-0.071
Mof_H 	H 	0.83487	0.27073	0.22653	0.065
Mof_C 	C 	0.73427	0.05363	0.15793	-0.097
Mof_H 	H 	0.66677	0.97583	0.15163	0.081
Mof_C 	C 	0.62667	0.05813	0.22243	-0.133
Mof_N 	N 	0.63076	0.17414	0.28789	-0.157
Mof_C 	C 	0.29263	0.45277	0.59189	0.113
Mof_C 	C 	0.19433	0.27547	0.54729	0.11
Mof_C 	C 	0.39863	0.44697	0.52756	0.064
Mof_N 	N 	0.11748	0.17859	0.53853	-0.158
Mof_C 	C 	0.50013	0.56107	0.53554	-0.063
Mof_H 	H 	0.50153	0.60407	0.55987	0.062
Mof_C 	C 	0.40093	0.38697	0.49127	-0.064
Mof_H 	H 	0.33343	0.30917	0.48497	0.061
Mof_C 	C 	0.29333	0.39147	0.55577	-0.111
Mof_N 	N 	0.29742	0.50748	0.62123	-0.155
Mof_C 	C 	0.2139	0.1732	0.92522	0.109
Mof_C 	C 	0.3912	0.2522	0.88062	0.11
Mof_C 	C 	0.2197	0.285	0.86089	0.05
Mof_N 	N 	0.48808	0.27223	0.87186	-0.155
Mof_C 	C 	0.1056	0.2724	0.86887	-0.041
Mof_H 	H 	0.0626	0.2308	0.8932	0.05
Mof_C 	C 	0.2797	0.3473	0.8246	-0.051
Mof_H 	H 	0.3575	0.3576	0.8183	0.057
Mof_C 	C 	0.2752	0.2352	0.8891	-0.106
Mof_N 	N 	0.15919	0.12328	0.95456	-0.155
Mof_C 	C 	0.88057	0.50653	0.25855	0.11
Mof_C 	C 	0.05787	0.58553	0.21395	0.092
Mof_C 	C 	0.88637	0.61833	0.19422	0.044
Mof_N 	N 	0.15475	0.60556	0.20519	-0.151
Mof_C 	C 	0.77227	0.60573	0.2022	-0.047
Mof_H 	H 	0.72927	0.56413	0.22653	0.057
Mof_C 	C 	0.94637	0.68063	0.15793	-0.021
Mof_H 	H 	0.02417	0.69093	0.15163	0.04
Mof_C 	C 	0.94187	0.56853	0.22243	-0.086
Mof_N 	N 	0.82586	0.45661	0.28789	-0.151
Mof_C 	C 	0.54723	0.83987	0.59189	0.121
Mof_C 	C 	0.72453	0.91887	0.54729	0.123
Mof_C 	C 	0.55303	0.95167	0.52756	0.1
Mof_N 	N 	0.82141	0.9389	0.53853	-0.148
Mof_C 	C 	0.43893	0.93907	0.53554	-0.093
Mof_H 	H 	0.39593	0.89747	0.55987	0.072
Mof_C 	C 	0.61303	0.01397	0.49127	-0.106
Mof_H 	H 	0.69083	0.02427	0.48497	0.072
Mof_C 	C 	0.60853	0.90187	0.55577	-0.122
Mof_N 	N 	0.49252	0.78995	0.62123	-0.155
Mof_C 	C 	0.8268	0.0407	0.92522	0.118
Mof_C 	C 	0.7478	0.139	0.88062	0.117
Mof_C 	C 	0.715	0.9347	0.86089	0.088
Mof_N 	N 	0.72777	0.21585	0.87186	-0.157
Mof_C 	C 	0.7276	0.8332	0.86887	-0.075
Mof_H 	H 	0.7692	0.8318	0.8932	0.069
Mof_C 	C 	0.6527	0.9324	0.8246	-0.075
Mof_H 	H 	0.6424	0.9999	0.8183	0.072
Mof_C 	C 	0.7648	0.04	0.8891	-0.128
Mof_N 	N 	0.87672	0.03591	0.95456	-0.151
Mof_C 	C 	0.49347	0.37403	0.25855	0.114
Mof_C 	C 	0.41447	0.47233	0.21395	0.113
Mof_C 	C 	0.38167	0.26803	0.19422	0.07
Mof_N 	N 	0.39444	0.54918	0.20519	-0.156
Mof_C 	C 	0.39427	0.16653	0.2022	-0.075
Mof_H 	H 	0.43587	0.16513	0.22653	0.063
Mof_C 	C 	0.31937	0.26573	0.15793	-0.074
Mof_H 	H 	0.30907	0.33323	0.15163	0.064
Mof_C 	C 	0.43147	0.37333	0.22243	-0.114
Mof_N 	N 	0.54339	0.36924	0.28789	-0.155
Mof_C 	C 	0.16013	0.70737	0.59189	0.11
Mof_C 	C 	0.08113	0.80567	0.54729	0.107
Mof_C 	C 	0.04833	0.60137	0.52756	0.031
Mof_N 	N 	0.0611	0.88252	0.53853	-0.15
Mof_C 	C 	0.06093	0.49987	0.53554	-0.036
Mof_H 	H 	0.10253	0.49847	0.55987	0.051
Mof_C 	C 	0.98603	0.59907	0.49127	-0.024
Mof_H 	H 	0.97573	0.66657	0.48497	0.054
Mof_C 	C 	0.09813	0.70667	0.55577	-0.1
Mof_N 	N 	0.21005	0.70258	0.62123	-0.154
Mof_Cd	Cd	0.33333	0.66667	0.16667	0.401
Mof_Cd	Cd	2.25082e-32	0	0.5	0.375
Mof_Cd	Cd	0.66667	0.33333	0.83333	0.401
Mof_Cd	Cd	-0	0	-0	0.373
Mof_Cd	Cd	0.66667	0.33333	0.33333	0.403
Mof_Cd	Cd	0.33333	0.66667	0.66667	0.403
_end
