data_functionalizedCrystal
_audit_creation_method	'EQeq! by Chris Wilmer'
_symmetry_space_group_name_H-M	'P1'
_symmetry_Int_Tables_number	1
_symmetry_cell_setting	triclinic
loop_
_symmetry_equiv_pos_as_xyz
  x,y,z
_cell_length_a	14.565
_cell_length_b	14.565
_cell_length_c	18.045
_cell_angle_alpha	69.8347
_cell_angle_beta	69.8347
_cell_angle_gamma	87.8664
loop_
_atom_site_label
_atom_site_type_symbol
_atom_site_fract_x
_atom_site_fract_y
_atom_site_fract_z
_atom_site_charge
Mof_Eu	Eu	0.40698	0.05624	0.233	2.389
Mof_Eu	Eu	0.94376	0.59302	0.267	2.382
Mof_Eu	Eu	0.59302	0.94376	0.767	2.389
Mof_Eu	Eu	0.05624	0.40698	0.733	2.382
Mof_Eu	Eu	0.02444	0.97556	0.25	2.484
Mof_Eu	Eu	0.97556	0.02444	0.75	2.484
Mof_Eu	Eu	0.31333	0.68667	0.75	2.016
Mof_Eu	Eu	0.68667	0.31333	0.25	2.016
Mof_Co	Co	0.70979	0.00445	0.24399	1.167
Mof_Co	Co	0.99555	0.29021	0.25601	1.166
Mof_Co	Co	0.29021	0.99555	0.75601	1.167
Mof_Co	Co	0.00445	0.70979	0.74399	1.166
Mof_Co	Co	0.6662	0.3338	0.75	1.061
Mof_Co	Co	0.3338	0.6662	0.25	1.061
Mof_H 	H 	0.4527	0.8623	0.5242	0.031
Mof_H 	H 	0.7254	0.8942	0.5311	0.045
Mof_H 	H 	0.0902	0.7456	0.0252	0.057
Mof_H 	H 	0.0948	0.021	0.0297	0.058
Mof_H 	H 	0.4049	0.1407	0.9788	0.005
Mof_H 	H 	0.2875	0.8619	0.0684	-0.004
Mof_H 	H 	0.1377	0.5473	0.9758	0.022
Mof_H 	H 	0.1058	0.2746	0.9689	0.046
Mof_H 	H 	0.2544	0.9098	0.4748	0.045
Mof_H 	H 	0.979	0.9052	0.4703	0.06
Mof_H 	H 	0.8593	0.5951	0.5212	0.006
Mof_H 	H 	0.1381	0.7125	0.4316	-0.001
Mof_H 	H 	0.5473	0.1377	0.4758	0.031
Mof_H 	H 	0.2746	0.1058	0.4689	0.045
Mof_H 	H 	0.9098	0.2544	0.9748	0.057
Mof_H 	H 	0.9052	0.979	0.9703	0.058
Mof_H 	H 	0.5951	0.8593	0.0212	0.005
Mof_H 	H 	0.7125	0.1381	0.9316	-0.004
Mof_H 	H 	0.8623	0.4527	0.0242	0.022
Mof_H 	H 	0.8942	0.7254	0.0311	0.046
Mof_H 	H 	0.7456	0.0902	0.5252	0.045
Mof_H 	H 	0.021	0.0948	0.5297	0.06
Mof_H 	H 	0.1407	0.4049	0.4788	0.006
Mof_H 	H 	0.8619	0.2875	0.5684	-0.001
Mof_C 	C 	0.5612	0.923	0.4106	-0.051
Mof_C 	C 	0.5195	0.8823	0.4974	0.043
Mof_C 	C 	0.5819	0.8719	0.5441	-0.181
Mof_C 	C 	0.6828	0.8992	0.5018	0.047
Mof_C 	C 	0.7167	0.9341	0.4136	-0.037
Mof_C 	C 	0.5042	0.9488	0.349	0.326
Mof_C 	C 	0.5386	0.8344	0.6397	0.588
Mof_C 	C 	0.8237	0.9599	0.3578	0.301
Mof_C 	C 	0.1721	0.8495	0.9167	-0.037
Mof_C 	C 	0.1117	0.8121	0.999	0.024
Mof_C 	C 	0.0828	0.8776	0.043	-0.155
Mof_C 	C 	0.1148	0.9766	0.0019	0.007
Mof_C 	C 	0.1775	0.0077	0.9185	-0.012
Mof_C 	C 	0.2116	0.793	0.8583	0.289
Mof_C 	C 	0.0214	0.8386	0.1355	0.592
Mof_C 	C 	0.2234	0.1116	0.8643	0.297
Mof_C 	C 	0.4669	0.0629	0.9043	-0.082
Mof_C 	C 	0.4033	0.0791	0.9742	0.08
Mof_C 	C 	0.3361	0.0027	0.0382	-0.187
Mof_C 	C 	0.3333	0.9133	0.0279	0.074
Mof_C 	C 	0.4007	0.9015	0.9556	-0.092
Mof_C 	C 	0.5453	0.1383	0.8327	0.385
Mof_C 	C 	0.2723	0.0149	0.1201	0.534
Mof_C 	C 	0.4109	0.8057	0.9393	0.356
Mof_C 	C 	0.077	0.4388	0.0894	-0.055
Mof_C 	C 	0.1177	0.4805	0.0026	0.057
Mof_C 	C 	0.1281	0.4181	0.9559	-0.188
Mof_C 	C 	0.1008	0.3172	0.9982	0.042
Mof_C 	C 	0.0659	0.2833	0.0864	-0.033
Mof_C 	C 	0.0512	0.4958	0.151	0.328
Mof_C 	C 	0.1656	0.4614	0.8603	0.59
Mof_C 	C 	0.0401	0.1763	0.1422	0.3
Mof_C 	C 	0.1505	0.8279	0.5833	-0.044
Mof_C 	C 	0.1879	0.8883	0.501	0.048
Mof_C 	C 	0.1224	0.9172	0.457	-0.165
Mof_C 	C 	0.0234	0.8852	0.4981	0.002
Mof_C 	C 	0.9923	0.8225	0.5815	-0.008
Mof_C 	C 	0.207	0.7884	0.6417	0.292
Mof_C 	C 	0.1614	0.9786	0.3645	0.591
Mof_C 	C 	0.8884	0.7766	0.6357	0.296
Mof_C 	C 	0.9371	0.5331	0.5957	-0.081
Mof_C 	C 	0.9209	0.5967	0.5258	0.077
Mof_C 	C 	0.9973	0.6639	0.4618	-0.182
Mof_C 	C 	0.0867	0.6667	0.4721	0.066
Mof_C 	C 	0.0985	0.5993	0.5444	-0.086
Mof_C 	C 	0.8617	0.4547	0.6673	0.384
Mof_C 	C 	0.9851	0.7277	0.3799	0.532
Mof_C 	C 	0.1943	0.5891	0.5607	0.354
Mof_C 	C 	0.4388	0.077	0.5894	-0.051
Mof_C 	C 	0.4805	0.1177	0.5026	0.043
Mof_C 	C 	0.4181	0.1281	0.4559	-0.181
Mof_C 	C 	0.3172	0.1008	0.4982	0.047
Mof_C 	C 	0.2833	0.0659	0.5864	-0.037
Mof_C 	C 	0.4958	0.0512	0.651	0.326
Mof_C 	C 	0.4614	0.1656	0.3603	0.588
Mof_C 	C 	0.1763	0.0401	0.6422	0.301
Mof_C 	C 	0.8279	0.1505	0.0833	-0.037
Mof_C 	C 	0.8883	0.1879	0.001	0.024
Mof_C 	C 	0.9172	0.1224	0.957	-0.155
Mof_C 	C 	0.8852	0.0234	0.9981	0.007
Mof_C 	C 	0.8225	0.9923	0.0815	-0.012
Mof_C 	C 	0.7884	0.207	0.1417	0.289
Mof_C 	C 	0.9786	0.1614	0.8645	0.592
Mof_C 	C 	0.7766	0.8884	0.1357	0.297
Mof_C 	C 	0.5331	0.9371	0.0957	-0.082
Mof_C 	C 	0.5967	0.9209	0.0258	0.08
Mof_C 	C 	0.6639	0.9973	0.9618	-0.187
Mof_C 	C 	0.6667	0.0867	0.9721	0.074
Mof_C 	C 	0.5993	0.0985	0.0444	-0.092
Mof_C 	C 	0.4547	0.8617	0.1673	0.385
Mof_C 	C 	0.7277	0.9851	0.8799	0.534
Mof_C 	C 	0.5891	0.1943	0.0607	0.356
Mof_C 	C 	0.923	0.5612	0.9106	-0.055
Mof_C 	C 	0.8823	0.5195	0.9974	0.057
Mof_C 	C 	0.8719	0.5819	0.0441	-0.188
Mof_C 	C 	0.8992	0.6828	0.0018	0.042
Mof_C 	C 	0.9341	0.7167	0.9136	-0.033
Mof_C 	C 	0.9488	0.5042	0.849	0.328
Mof_C 	C 	0.8344	0.5386	0.1397	0.59
Mof_C 	C 	0.9599	0.8237	0.8578	0.3
Mof_C 	C 	0.8495	0.1721	0.4167	-0.044
Mof_C 	C 	0.8121	0.1117	0.499	0.048
Mof_C 	C 	0.8776	0.0828	0.543	-0.165
Mof_C 	C 	0.9766	0.1148	0.5019	0.002
Mof_C 	C 	0.0077	0.1775	0.4185	-0.008
Mof_C 	C 	0.793	0.2116	0.3583	0.292
Mof_C 	C 	0.8386	0.0214	0.6355	0.591
Mof_C 	C 	0.1116	0.2234	0.3643	0.296
Mof_C 	C 	0.0629	0.4669	0.4043	-0.081
Mof_C 	C 	0.0791	0.4033	0.4742	0.077
Mof_C 	C 	0.0027	0.3361	0.5382	-0.182
Mof_C 	C 	0.9133	0.3333	0.5279	0.066
Mof_C 	C 	0.9015	0.4007	0.4556	-0.086
Mof_C 	C 	0.1383	0.5453	0.3327	0.384
Mof_C 	C 	0.0149	0.2723	0.6201	0.532
Mof_C 	C 	0.8057	0.4109	0.4393	0.354
Mof_N 	N 	0.6577	0.9487	0.3704	-0.2
Mof_N 	N 	0.2053	0.9449	0.8786	-0.217
Mof_N 	N 	0.467	0.9748	0.8946	-0.2
Mof_N 	N 	0.0513	0.3423	0.1296	-0.2
Mof_N 	N 	0.0551	0.7947	0.6214	-0.216
Mof_N 	N 	0.0252	0.533	0.6054	-0.201
Mof_N 	N 	0.3423	0.0513	0.6296	-0.2
Mof_N 	N 	0.7947	0.0551	0.1214	-0.217
Mof_N 	N 	0.533	0.0252	0.1054	-0.2
Mof_N 	N 	0.9487	0.6577	0.8704	-0.2
Mof_N 	N 	0.9449	0.2053	0.3786	-0.216
Mof_N 	N 	0.9748	0.467	0.3946	-0.201
Mof_O 	O 	0.5566	0.9968	0.2735	-0.569
Mof_O 	O 	0.4167	0.9275	0.3753	-0.396
Mof_O 	O 	0.4632	0.7786	0.6745	-0.638
Mof_O 	O 	0.5851	0.8603	0.6763	-0.593
Mof_O 	O 	0.8887	0.9511	0.3875	-0.441
Mof_O 	O 	0.842	0.9902	0.2775	-0.54
Mof_O 	O 	0.2793	0.8379	0.7865	-0.542
Mof_O 	O 	0.1797	0.7067	0.8795	-0.405
Mof_O 	O 	0.0069	0.7491	0.1689	-0.61
Mof_O 	O 	0.9888	0.897	0.1718	-0.629
Mof_O 	O 	0.2062	0.1764	0.8935	-0.262
Mof_O 	O 	0.2824	0.121	0.7896	-0.391
Mof_O 	O 	0.6013	0.1061	0.7754	-0.521
Mof_O 	O 	0.5522	0.222	0.8336	-0.485
Mof_O 	O 	0.1905	0.9665	0.1593	-0.576
Mof_O 	O 	0.3115	0.0703	0.1426	-0.571
Mof_O 	O 	0.3538	0.7336	0.9884	-0.313
Mof_O 	O 	0.4814	0.8068	0.8717	-0.537
Mof_O 	O 	0.0032	0.4434	0.2265	-0.568
Mof_O 	O 	0.0725	0.5833	0.1247	-0.396
Mof_O 	O 	0.2214	0.5368	0.8255	-0.639
Mof_O 	O 	0.1397	0.4149	0.8237	-0.594
Mof_O 	O 	0.0489	0.1113	0.1125	-0.439
Mof_O 	O 	0.0098	0.158	0.2225	-0.538
Mof_O 	O 	0.1621	0.7207	0.7135	-0.544
Mof_O 	O 	0.2933	0.8203	0.6205	-0.405
Mof_O 	O 	0.2509	0.9931	0.3311	-0.612
Mof_O 	O 	0.103	0.0112	0.3282	-0.625
Mof_O 	O 	0.8236	0.7938	0.6065	-0.261
Mof_O 	O 	0.879	0.7176	0.7104	-0.391
Mof_O 	O 	0.8939	0.3987	0.7246	-0.52
Mof_O 	O 	0.778	0.4478	0.6664	-0.484
Mof_O 	O 	0.0335	0.8095	0.3407	-0.576
Mof_O 	O 	0.9297	0.6885	0.3574	-0.57
Mof_O 	O 	0.2664	0.6462	0.5116	-0.31
Mof_O 	O 	0.1932	0.5186	0.6283	-0.536
Mof_O 	O 	0.4434	0.0032	0.7265	-0.569
Mof_O 	O 	0.5833	0.0725	0.6247	-0.396
Mof_O 	O 	0.5368	0.2214	0.3255	-0.638
Mof_O 	O 	0.4149	0.1397	0.3237	-0.593
Mof_O 	O 	0.1113	0.0489	0.6125	-0.441
Mof_O 	O 	0.158	0.0098	0.7225	-0.54
Mof_O 	O 	0.7207	0.1621	0.2135	-0.542
Mof_O 	O 	0.8203	0.2933	0.1205	-0.405
Mof_O 	O 	0.9931	0.2509	0.8311	-0.61
Mof_O 	O 	0.0112	0.103	0.8282	-0.629
Mof_O 	O 	0.7938	0.8236	0.1065	-0.262
Mof_O 	O 	0.7176	0.879	0.2104	-0.391
Mof_O 	O 	0.3987	0.8939	0.2246	-0.521
Mof_O 	O 	0.4478	0.778	0.1664	-0.485
Mof_O 	O 	0.8095	0.0335	0.8407	-0.576
Mof_O 	O 	0.6885	0.9297	0.8574	-0.571
Mof_O 	O 	0.6462	0.2664	0.0116	-0.313
Mof_O 	O 	0.5186	0.1932	0.1283	-0.537
Mof_O 	O 	0.9968	0.5566	0.7735	-0.568
Mof_O 	O 	0.9275	0.4167	0.8753	-0.396
Mof_O 	O 	0.7786	0.4632	0.1745	-0.639
Mof_O 	O 	0.8603	0.5851	0.1763	-0.594
Mof_O 	O 	0.9511	0.8887	0.8875	-0.439
Mof_O 	O 	0.9902	0.842	0.7775	-0.538
Mof_O 	O 	0.8379	0.2793	0.2865	-0.544
Mof_O 	O 	0.7067	0.1797	0.3795	-0.405
Mof_O 	O 	0.7491	0.0069	0.6689	-0.612
Mof_O 	O 	0.897	0.9888	0.6718	-0.625
Mof_O 	O 	0.1764	0.2062	0.3935	-0.261
Mof_O 	O 	0.121	0.2824	0.2896	-0.391
Mof_O 	O 	0.1061	0.6013	0.2754	-0.52
Mof_O 	O 	0.222	0.5522	0.3336	-0.484
Mof_O 	O 	0.9665	0.1905	0.6593	-0.576
Mof_O 	O 	0.0703	0.3115	0.6426	-0.57
Mof_O 	O 	0.7336	0.3538	0.4884	-0.31
Mof_O 	O 	0.8068	0.4814	0.3717	-0.536
_end
