# CIF file generated by openbabel 3.1.0, see https://openbabel.org
data_I
_chemical_name_common 'image0'
_cell_length_a 14.986
_cell_length_b 23.552
_cell_length_c 9.051
_cell_angle_alpha 90
_cell_angle_beta 90
_cell_angle_gamma 90
_space_group_name_H-M_alt 'P 1'
_space_group_name_Hall 'P 1'
loop_
    _symmetry_equiv_pos_as_xyz
    x,y,z
loop_
    _atom_site_label
    _atom_site_type_symbol
    _atom_site_fract_x
    _atom_site_fract_y
    _atom_site_fract_z
    _atom_site_occupancy
    Fe1      Fe       0.07179    0.05425    0.69772    1.000
    Cl1      Cl       0.18147    0.99569    0.59890    1.000
    O1       O        0.15920    0.12505    0.64010    1.000
    O2       O        0.23090    0.13005    0.00390    1.000
    O3       O        0.26450    0.17903    0.74470    1.000
    O4       O        0.13150    0.07291    0.89610    1.000
    C1       C        0.18820    0.11221    0.89470    1.000
    C2       C        0.20470    0.14158    0.74530    1.000
    Fe2      Fe       0.07179    0.55425    0.19772    1.000
    Cl2      Cl       0.18147    0.49569    0.09890    1.000
    O5       O        0.15920    0.62505    0.14010    1.000
    O6       O        0.23090    0.63005    0.50390    1.000
    O7       O        0.26450    0.67903    0.24470    1.000
    O8       O        0.13150    0.57291    0.39610    1.000
    C3       C        0.18820    0.61221    0.39470    1.000
    C4       C        0.20470    0.64158    0.24530    1.000
    Fe3      Fe       0.57179    0.05425    0.19772    1.000
    Cl3      Cl       0.68147    0.99569    0.09890    1.000
    O9       O        0.65920    0.12505    0.14010    1.000
    O10      O        0.73090    0.13005    0.50390    1.000
    O11      O        0.76450    0.17903    0.24470    1.000
    O12      O        0.63150    0.07291    0.39610    1.000
    C5       C        0.68820    0.11221    0.39470    1.000
    C6       C        0.70470    0.14158    0.24530    1.000
    Fe4      Fe       0.57179    0.55425    0.69772    1.000
    Cl4      Cl       0.68147    0.49569    0.59890    1.000
    O13      O        0.65920    0.62505    0.64010    1.000
    O14      O        0.73090    0.63005    0.00390    1.000
    O15      O        0.76450    0.67903    0.74470    1.000
    O16      O        0.63150    0.57291    0.89610    1.000
    C7       C        0.68820    0.61221    0.89470    1.000
    C8       C        0.70470    0.64158    0.74530    1.000
    Fe5      Fe       0.92821    0.94575    0.69772    1.000
    Cl5      Cl       0.81853    0.00431    0.59890    1.000
    O17      O        0.84080    0.87495    0.64010    1.000
    O18      O        0.76910    0.86995    0.00390    1.000
    O19      O        0.73550    0.82097    0.74470    1.000
    O20      O        0.86850    0.92709    0.89610    1.000
    C9       C        0.81180    0.88779    0.89470    1.000
    C10      C        0.79530    0.85842    0.74530    1.000
    Fe6      Fe       0.92821    0.44575    0.19772    1.000
    Cl6      Cl       0.81853    0.50431    0.09890    1.000
    O21      O        0.84080    0.37495    0.14010    1.000
    O22      O        0.76910    0.36995    0.50390    1.000
    O23      O        0.73550    0.32097    0.24470    1.000
    O24      O        0.86850    0.42709    0.39610    1.000
    C11      C        0.81180    0.38779    0.39470    1.000
    C12      C        0.79530    0.35842    0.24530    1.000
    Fe7      Fe       0.42821    0.94575    0.19772    1.000
    Cl7      Cl       0.31853    0.00431    0.09890    1.000
    O25      O        0.34080    0.87495    0.14010    1.000
    O26      O        0.26910    0.86995    0.50390    1.000
    O27      O        0.23550    0.82097    0.24470    1.000
    O28      O        0.36850    0.92709    0.39610    1.000
    C13      C        0.31180    0.88779    0.39470    1.000
    C14      C        0.29530    0.85842    0.24530    1.000
    Fe8      Fe       0.42821    0.44575    0.69772    1.000
    Cl8      Cl       0.31853    0.50431    0.59890    1.000
    O29      O        0.34080    0.37495    0.64010    1.000
    O30      O        0.26910    0.36995    0.00390    1.000
    O31      O        0.23550    0.32097    0.74470    1.000
    O32      O        0.36850    0.42709    0.89610    1.000
    C15      C        0.31180    0.38779    0.89470    1.000
    C16      C        0.29530    0.35842    0.74530    1.000
    Fe9      Fe       0.32179    0.19575    0.94772    1.000
    Cl9      Cl       0.43147    0.25431    0.84890    1.000
    O33      O        0.40920    0.12495    0.89010    1.000
    O34      O        0.48090    0.11995    0.25390    1.000
    O35      O        0.51450    0.07097    0.99470    1.000
    O36      O        0.38150    0.17709    0.14610    1.000
    C17      C        0.43820    0.13779    0.14470    1.000
    C18      C        0.45470    0.10842    0.99530    1.000
    Fe10     Fe       0.32179    0.69575    0.44772    1.000
    Cl10     Cl       0.43147    0.75431    0.34890    1.000
    O37      O        0.40920    0.62495    0.39010    1.000
    O38      O        0.48090    0.61995    0.75390    1.000
    O39      O        0.51450    0.57097    0.49470    1.000
    O40      O        0.38150    0.67709    0.64610    1.000
    C19      C        0.43820    0.63779    0.64470    1.000
    C20      C        0.45470    0.60842    0.49530    1.000
    Fe11     Fe       0.82179    0.19575    0.44772    1.000
    Cl11     Cl       0.93147    0.25431    0.34890    1.000
    O41      O        0.90920    0.12495    0.39010    1.000
    O42      O        0.98090    0.11995    0.75390    1.000
    O43      O        0.01450    0.07097    0.49470    1.000
    O44      O        0.88150    0.17709    0.64610    1.000
    C21      C        0.93820    0.13779    0.64470    1.000
    C22      C        0.95470    0.10842    0.49530    1.000
    Fe12     Fe       0.82179    0.69575    0.94772    1.000
    Cl12     Cl       0.93147    0.75431    0.84890    1.000
    O45      O        0.90920    0.62495    0.89010    1.000
    O46      O        0.98090    0.61995    0.25390    1.000
    O47      O        0.01450    0.57097    0.99470    1.000
    O48      O        0.88150    0.67709    0.14610    1.000
    C23      C        0.93820    0.63779    0.14470    1.000
    C24      C        0.95470    0.60842    0.99530    1.000
    Fe13     Fe       0.17821    0.30425    0.94772    1.000
    Cl13     Cl       0.06853    0.24569    0.84890    1.000
    O49      O        0.09080    0.37505    0.89010    1.000
    O50      O        0.01910    0.38005    0.25390    1.000
    O51      O        0.98550    0.42903    0.99470    1.000
    O52      O        0.11850    0.32291    0.14610    1.000
    C25      C        0.06180    0.36221    0.14470    1.000
    C26      C        0.04530    0.39158    0.99530    1.000
    Fe14     Fe       0.17821    0.80425    0.44772    1.000
    Cl14     Cl       0.06853    0.74569    0.34890    1.000
    O53      O        0.09080    0.87505    0.39010    1.000
    O54      O        0.01910    0.88005    0.75390    1.000
    O55      O        0.98550    0.92903    0.49470    1.000
    O56      O        0.11850    0.82291    0.64610    1.000
    C27      C        0.06180    0.86221    0.64470    1.000
    C28      C        0.04530    0.89158    0.49530    1.000
    Fe15     Fe       0.67821    0.30425    0.44772    1.000
    Cl15     Cl       0.56853    0.24569    0.34890    1.000
    O57      O        0.59080    0.37505    0.39010    1.000
    O58      O        0.51910    0.38005    0.75390    1.000
    O59      O        0.48550    0.42903    0.49470    1.000
    O60      O        0.61850    0.32291    0.64610    1.000
    C29      C        0.56180    0.36221    0.64470    1.000
    C30      C        0.54530    0.39158    0.49530    1.000
    Fe16     Fe       0.67821    0.80425    0.94772    1.000
    Cl16     Cl       0.56853    0.74569    0.84890    1.000
    O61      O        0.59080    0.87505    0.89010    1.000
    O62      O        0.51910    0.88005    0.25390    1.000
    O63      O        0.48550    0.92903    0.99470    1.000
    O64      O        0.61850    0.82291    0.14610    1.000
    C31      C        0.56180    0.86221    0.14470    1.000
    C32      C        0.54530    0.89158    0.99530    1.000
    O65      O        0.00000    0.00000    0.77200    1.000
    O66      O        0.00000    0.50000    0.27200    1.000
    O67      O        0.50000    0.00000    0.27200    1.000
    O68      O        0.50000    0.50000    0.77200    1.000
    O69      O        0.25000    0.25000    0.02200    1.000
    O70      O        0.25000    0.75000    0.52200    1.000
    O71      O        0.75000    0.25000    0.52200    1.000
    O72      O        0.75000    0.75000    0.02200    1.000
