data_functionalizedCrystal
_audit_creation_method	'EQeq! by Chris Wilmer'
_symmetry_space_group_name_H-M	'P1'
_symmetry_Int_Tables_number	1
_symmetry_cell_setting	triclinic
loop_
_symmetry_equiv_pos_as_xyz
  x,y,z
_cell_length_a	20.2996
_cell_length_b	9.4001
_cell_length_c	9.6941
_cell_angle_alpha	90
_cell_angle_beta	111.31
_cell_angle_gamma	90
loop_
_atom_site_label
_atom_site_type_symbol
_atom_site_fract_x
_atom_site_fract_y
_atom_site_fract_z
_atom_site_charge
Mof_P 	P 	0.39466	0.4199	0.96426	0.918
Mof_F 	F 	0.31292	0.12274	0.16309	-0.499
Mof_O 	O 	0.44	0.45586	0.12312	-0.577
Mof_O 	O 	0.43845	0.3662	0.87825	-0.453
Mof_F 	F 	0.55997	0.78084	0.383	-0.476
Mof_F 	F 	0.26405	0.40722	0.14605	-0.586
Mof_O 	O 	0.33953	0.3078	0.95548	-0.328
Mof_O 	O 	0.35762	0.5626	0.8961	-0.618
Mof_H 	H 	0.3315	0.564	0.823	0.546
Mof_P 	P 	0.89466	0.9199	0.96426	0.874
Mof_F 	F 	0.81292	0.62274	0.16309	-0.482
Mof_O 	O 	0.94	0.95586	0.12312	-0.433
Mof_O 	O 	0.93845	0.8662	0.87825	-0.317
Mof_F 	F 	0.05997	0.28084	0.383	-0.484
Mof_F 	F 	0.76405	0.90722	0.14605	-0.577
Mof_O 	O 	0.83953	0.8078	0.95548	-0.315
Mof_O 	O 	0.85762	0.0626	0.8961	-0.575
Mof_H 	H 	0.8315	0.064	0.823	0.533
Mof_P 	P 	0.60534	0.4199	0.53574	0.808
Mof_F 	F 	0.68708	0.12274	0.33691	-0.522
Mof_O 	O 	0.56	0.45586	0.37688	-0.469
Mof_O 	O 	0.56155	0.3662	0.62175	-0.472
Mof_F 	F 	0.44003	0.78084	0.117	-0.529
Mof_F 	F 	0.73595	0.40722	0.35395	-0.588
Mof_O 	O 	0.66047	0.3078	0.54452	-0.445
Mof_O 	O 	0.64238	0.5626	0.6039	-0.681
Mof_H 	H 	0.6685	0.564	0.677	0.576
Mof_P 	P 	0.10534	0.9199	0.53574	0.783
Mof_F 	F 	0.18708	0.62274	0.33691	-0.531
Mof_O 	O 	0.06	0.95586	0.37688	-0.466
Mof_O 	O 	0.06155	0.8662	0.62175	-0.464
Mof_F 	F 	0.94003	0.28084	0.117	-0.413
Mof_F 	F 	0.23595	0.90722	0.35395	-0.59
Mof_O 	O 	0.16047	0.8078	0.54452	-0.448
Mof_O 	O 	0.14238	0.0626	0.6039	-0.683
Mof_H 	H 	0.1685	0.064	0.677	0.575
Mof_P 	P 	0.60534	0.5801	0.03574	0.669
Mof_F 	F 	0.68708	0.87726	0.83691	-0.4
Mof_O 	O 	0.56	0.54414	0.87688	-0.342
Mof_O 	O 	0.56155	0.6338	0.12175	-0.49
Mof_F 	F 	0.44003	0.21916	0.617	-0.476
Mof_F 	F 	0.73595	0.59278	0.85395	-0.472
Mof_O 	O 	0.66047	0.6922	0.04452	-0.44
Mof_O 	O 	0.64238	0.4374	0.1039	-0.736
Mof_H 	H 	0.6685	0.436	0.177	0.579
Mof_P 	P 	0.10534	0.0801	0.03574	0.636
Mof_F 	F 	0.18708	0.37726	0.83691	-0.407
Mof_O 	O 	0.06	0.04414	0.87688	-0.339
Mof_O 	O 	0.06155	0.1338	0.12175	-0.482
Mof_F 	F 	0.94003	0.71916	0.617	-0.358
Mof_F 	F 	0.23595	0.09278	0.85395	-0.473
Mof_O 	O 	0.16047	0.1922	0.04452	-0.442
Mof_O 	O 	0.14238	0.9374	0.1039	-0.724
Mof_H 	H 	0.1685	0.936	0.177	0.574
Mof_P 	P 	0.39466	0.5801	0.46426	0.801
Mof_F 	F 	0.31292	0.87726	0.66309	-0.48
Mof_O 	O 	0.44	0.54414	0.62312	-0.46
Mof_O 	O 	0.43845	0.6338	0.37825	-0.477
Mof_F 	F 	0.55997	0.21916	0.883	-0.421
Mof_F 	F 	0.26405	0.59278	0.64605	-0.575
Mof_O 	O 	0.33953	0.6922	0.45548	-0.452
Mof_O 	O 	0.35762	0.4374	0.3961	-0.684
Mof_H 	H 	0.3315	0.436	0.323	0.555
Mof_P 	P 	0.89466	0.0801	0.46426	0.768
Mof_F 	F 	0.81292	0.37726	0.66309	-0.463
Mof_O 	O 	0.94	0.04414	0.62312	-0.328
Mof_O 	O 	0.93845	0.1338	0.37825	-0.339
Mof_F 	F 	0.05997	0.71916	0.883	-0.429
Mof_F 	F 	0.76405	0.09278	0.64605	-0.568
Mof_O 	O 	0.83953	0.1922	0.45548	-0.434
Mof_O 	O 	0.85762	0.9374	0.3961	-0.639
Mof_H 	H 	0.8315	0.936	0.323	0.543
Mof_Sc	Sc	0.5	0.62667	0.25	2.136
Mof_Sc	Sc	6.10309e-34	0.12667	0.25	1.733
Mof_Sc	Sc	0.5	0.37333	0.75	2.198
Mof_Sc	Sc	-3.29845e-17	0.87333	0.75	1.799
Mof_Sc	Sc	0.25	0.25	-0	1.976
Mof_Sc	Sc	0.75	0.25	0.5	2.388
Mof_Sc	Sc	0.75	0.75	-0	2.005
Mof_Sc	Sc	0.25	0.75	0.5	2.378
_end
