data_functionalizedCrystal
_audit_creation_method	'EQeq! by Chris Wilmer'
_symmetry_space_group_name_H-M	'P1'
_symmetry_Int_Tables_number	1
_symmetry_cell_setting	triclinic
loop_
_symmetry_equiv_pos_as_xyz
  x,y,z
_cell_length_a	14.7955
_cell_length_b	14.7955
_cell_length_c	11.7785
_cell_angle_alpha	90
_cell_angle_beta	90
_cell_angle_gamma	90
loop_
_atom_site_label
_atom_site_type_symbol
_atom_site_fract_x
_atom_site_fract_y
_atom_site_fract_z
_atom_site_charge
Mof_O 	O 	0.62129	0.38032	0.60089	-1.445
Mof_O 	O 	0.60389	0.28756	0.7426	-1.511
Mof_C 	C 	0.59271	0.36141	0.69627	1.257
Mof_C 	C 	0.54277	0.43043	0.75788	-0.495
Mof_C 	C 	0.54277	0.43043	0.87633	0.138
Mof_H 	H 	0.57401	0.37962	0.91959	0.007
Mof_O 	O 	0.12129	0.88032	0.10089	-1.3
Mof_O 	O 	0.10389	0.78756	0.2426	-1.48
Mof_C 	C 	0.09271	0.86141	0.19627	1.19
Mof_C 	C 	0.04277	0.93043	0.25788	-0.528
Mof_C 	C 	0.04277	0.93043	0.37633	0.301
Mof_H 	H 	0.07401	0.87962	0.41959	-0.107
Mof_O 	O 	0.87871	0.11968	0.10089	-1.315
Mof_O 	O 	0.89611	0.21244	0.2426	-1.482
Mof_C 	C 	0.90729	0.13859	0.19627	1.194
Mof_C 	C 	0.95723	0.06957	0.25788	-0.555
Mof_C 	C 	0.95723	0.06957	0.37633	0.27
Mof_H 	H 	0.92599	0.12038	0.41959	-0.103
Mof_O 	O 	0.37871	0.61968	0.60089	-1.447
Mof_O 	O 	0.39611	0.71244	0.7426	-1.508
Mof_C 	C 	0.40729	0.63859	0.69627	1.256
Mof_C 	C 	0.45723	0.56957	0.75788	-0.494
Mof_C 	C 	0.45723	0.56957	0.87633	0.139
Mof_H 	H 	0.42599	0.62038	0.91959	0.009
Mof_O 	O 	0.61968	0.12129	0.85089	-1.511
Mof_O 	O 	0.71244	0.10389	0.9926	-1.3
Mof_C 	C 	0.63859	0.09271	0.94627	1.617
Mof_C 	C 	0.56957	0.04277	0.00788	-1.342
Mof_C 	C 	0.56957	0.04277	0.12633	0.642
Mof_H 	H 	0.62038	0.07401	0.16959	-0.237
Mof_O 	O 	0.11968	0.62129	0.35089	-1.452
Mof_O 	O 	0.21244	0.60389	0.4926	-1.54
Mof_C 	C 	0.13859	0.59271	0.44627	1.293
Mof_C 	C 	0.06957	0.54277	0.50788	-0.626
Mof_C 	C 	0.06957	0.54277	0.62633	0.348
Mof_H 	H 	0.12038	0.57401	0.66959	-0.122
Mof_O 	O 	0.88032	0.37871	0.35089	-1.448
Mof_O 	O 	0.78756	0.39611	0.4926	-1.537
Mof_C 	C 	0.86141	0.40729	0.44627	1.292
Mof_C 	C 	0.93043	0.45723	0.50788	-0.616
Mof_C 	C 	0.93043	0.45723	0.62633	0.358
Mof_H 	H 	0.87962	0.42599	0.66959	-0.122
Mof_O 	O 	0.38032	0.87871	0.85089	-1.496
Mof_O 	O 	0.28756	0.89611	0.9926	-1.286
Mof_C 	C 	0.36141	0.90729	0.94627	1.619
Mof_C 	C 	0.43043	0.95723	0.00788	-1.311
Mof_C 	C 	0.43043	0.95723	0.12633	0.684
Mof_H 	H 	0.37962	0.92599	0.16959	-0.24
Mof_O 	O 	0.87871	0.38032	0.14911	-1.291
Mof_O 	O 	0.89611	0.28756	0.0074	-1.29
Mof_C 	C 	0.90729	0.36141	0.05373	0.702
Mof_C 	C 	0.95723	0.43043	0.99212	0.33
Mof_C 	C 	0.95723	0.43043	0.87367	-0.186
Mof_H 	H 	0.92599	0.37962	0.83041	0.066
Mof_O 	O 	0.37871	0.88032	0.64911	-1.426
Mof_O 	O 	0.39611	0.78756	0.5074	-1.53
Mof_C 	C 	0.40729	0.86141	0.55373	1.259
Mof_C 	C 	0.45723	0.93043	0.49212	-0.5
Mof_C 	C 	0.45723	0.93043	0.37367	0.239
Mof_H 	H 	0.42599	0.87962	0.33041	-0.09
Mof_O 	O 	0.62129	0.11968	0.64911	-1.443
Mof_O 	O 	0.60389	0.21244	0.5074	-1.535
Mof_C 	C 	0.59271	0.13859	0.55373	1.264
Mof_C 	C 	0.54277	0.06957	0.49212	-0.54
Mof_C 	C 	0.54277	0.06957	0.37367	0.199
Mof_H 	H 	0.57401	0.12038	0.33041	-0.086
Mof_O 	O 	0.12129	0.61968	0.14911	-1.295
Mof_O 	O 	0.10389	0.71244	0.0074	-1.287
Mof_C 	C 	0.09271	0.63859	0.05373	0.703
Mof_C 	C 	0.04277	0.56957	0.99212	0.32
Mof_C 	C 	0.04277	0.56957	0.87367	-0.196
Mof_H 	H 	0.07401	0.62038	0.83041	0.068
Mof_O 	O 	0.88032	0.12129	0.89911	-1.141
Mof_O 	O 	0.78756	0.10389	0.7574	-1.48
Mof_C 	C 	0.86141	0.09271	0.80373	1.156
Mof_C 	C 	0.93043	0.04277	0.74212	-0.48
Mof_C 	C 	0.93043	0.04277	0.62367	0.237
Mof_H 	H 	0.87962	0.07401	0.58041	-0.093
Mof_O 	O 	0.38032	0.62129	0.39911	-1.466
Mof_O 	O 	0.28756	0.60389	0.2574	-1.538
Mof_C 	C 	0.36141	0.59271	0.30373	1.305
Mof_C 	C 	0.43043	0.54277	0.24212	-0.669
Mof_C 	C 	0.43043	0.54277	0.12367	0.391
Mof_H 	H 	0.37962	0.57401	0.08041	-0.199
Mof_O 	O 	0.61968	0.37871	0.39911	-1.466
Mof_O 	O 	0.71244	0.39611	0.2574	-1.535
Mof_C 	C 	0.63859	0.40729	0.30373	1.304
Mof_C 	C 	0.56957	0.45723	0.24212	-0.668
Mof_C 	C 	0.56957	0.45723	0.12367	0.392
Mof_H 	H 	0.62038	0.42599	0.08041	-0.198
Mof_O 	O 	0.11968	0.87871	0.89911	-1.124
Mof_O 	O 	0.21244	0.89611	0.7574	-1.469
Mof_C 	C 	0.13859	0.90729	0.80373	1.151
Mof_C 	C 	0.06957	0.95723	0.74212	-0.447
Mof_C 	C 	0.06957	0.95723	0.62367	0.268
Mof_H 	H 	0.12038	0.92599	0.58041	-0.093
Mof_Al	Al	0.69236	0.30764	0.5	5.915
Mof_Al	Al	0.19236	0.80764	-0	4.685
Mof_Al	Al	0.80764	0.19236	-0	4.706
Mof_Al	Al	0.30764	0.69236	0.5	5.919
Mof_Al	Al	0.69236	0.19236	0.75	5.9
Mof_Al	Al	0.19236	0.69236	0.25	5.763
Mof_Al	Al	0.80764	0.30764	0.25	5.759
Mof_Al	Al	0.30764	0.80764	0.75	5.9
Mof_O 	O 	0.75199	0.25	0.625	-2.539
Mof_H 	H 	0.81282	0.25	0.625	0.683
Mof_O 	O 	0.25199	0.75	0.125	-2.299
Mof_H 	H 	0.31282	0.75	0.125	0.587
Mof_O 	O 	0.74801	0.25	0.125	-2.302
Mof_H 	H 	0.68718	0.25	0.125	0.587
Mof_O 	O 	0.24801	0.75	0.625	-2.54
Mof_H 	H 	0.18718	0.75	0.625	0.684
Mof_O 	O 	0.75	0.25199	0.875	-2.253
Mof_H 	H 	0.75	0.31282	0.875	0.657
Mof_O 	O 	0.25	0.75199	0.375	-2.514
Mof_H 	H 	0.25	0.81282	0.375	0.677
Mof_O 	O 	0.75	0.24801	0.375	-2.512
Mof_H 	H 	0.75	0.18718	0.375	0.672
Mof_O 	O 	0.25	0.74801	0.875	-2.248
Mof_H 	H 	0.25	0.68718	0.875	0.655
Mof_C 	C 	0.5	0.5	0.69866	0.388
Mof_C 	C 	0.5	0.5	0.93556	0.163
Mof_H 	H 	0.5	0.5	0.61214	-0.038
Mof_C 	C 	-6.30832e-34	0	0.19866	0.349
Mof_C 	C 	-3.59513e-33	0	0.43556	-0.227
Mof_H 	H 	-2.7718e-34	0	0.11214	-0.099
Mof_C 	C 	0.5	0	0.94866	1.307
Mof_C 	C 	0.5	2.4476e-33	0.18556	-0.513
Mof_H 	H 	0.5	0	0.86214	-0.287
Mof_C 	C 	3.78679e-33	0.5	0.44866	0.471
Mof_C 	C 	-1.26393e-32	0.5	0.68556	-0.318
Mof_H 	H 	-3.81428e-33	0.5	0.36214	-0.084
Mof_C 	C 	-1.07056e-33	0.5	0.05134	-0.59
Mof_C 	C 	2.43098e-33	0.5	0.81444	0.19
Mof_H 	H 	-8.12311e-34	0.5	0.13786	0.21
Mof_C 	C 	0.5	4.89521e-33	0.55134	0.354
Mof_C 	C 	0.5	-2.4476e-33	0.31444	-0.097
Mof_H 	H 	0.5	4.89521e-33	0.63786	-0.03
Mof_C 	C 	7.28709e-33	9.79042e-33	0.80134	0.303
Mof_C 	C 	1.68477e-33	0	0.56444	-0.193
Mof_H 	H 	-2.24508e-33	0	0.88786	0.012
Mof_C 	C 	0.5	0.5	0.30134	0.509
Mof_C 	C 	0.5	0.5	0.06444	-0.496
Mof_H 	H 	0.5	0.5	0.38786	-0.077
_end
