data_functionalizedCrystal
_audit_creation_method	'EQeq! by Chris Wilmer'
_symmetry_space_group_name_H-M	'P1'
_symmetry_Int_Tables_number	1
_symmetry_cell_setting	triclinic
loop_
_symmetry_equiv_pos_as_xyz
  x,y,z
_cell_length_a	9.86
_cell_length_b	11.65
_cell_length_c	13.113
_cell_angle_alpha	90
_cell_angle_beta	90
_cell_angle_gamma	101.99
loop_
_atom_site_label
_atom_site_type_symbol
_atom_site_fract_x
_atom_site_fract_y
_atom_site_fract_z
_atom_site_charge
Mof_Cd	Cd	0.25672	0.49402	0.50469	0.475
Mof_Cd	Cd	0.74328	0.50598	0.49531	0.475
Mof_Cd	Cd	0.74328	0.00598	0.00469	0.466
Mof_Cd	Cd	0.25672	0.99402	0.99531	0.466
Mof_H 	H 	0.2766	0.0026	0.2394	0.03
Mof_H 	H 	0.6632	0.3755	0.8775	0.069
Mof_H 	H 	0.0211	0.6088	0.3672	0.042
Mof_H 	H 	0.3368	0.1245	0.3775	0.068
Mof_H 	H 	0.6632	0.8755	0.6225	0.068
Mof_H 	H 	0.4055	0.2592	0.0495	0.026
Mof_H 	H 	0.7234	0.4974	0.7394	0.03
Mof_H 	H 	0.4872	0.8873	0.3173	0.068
Mof_H 	H 	0.1065	0.743	0.2416	0.077
Mof_H 	H 	0.3368	0.6245	0.1225	0.069
Mof_H 	H 	0.4872	0.3873	0.1827	0.067
Mof_H 	H 	0.4055	0.7592	0.4505	0.026
Mof_H 	H 	0.7142	0.2638	0.3246	0.082
Mof_H 	H 	0.6448	0.6431	0.3133	0.032
Mof_H 	H 	0.6448	0.1431	0.1867	0.032
Mof_H 	H 	0.5128	0.6127	0.8173	0.067
Mof_H 	H 	0.8935	0.757	0.7416	0.074
Mof_H 	H 	0.9789	0.3912	0.6328	0.042
Mof_H 	H 	0.2858	0.7362	0.6754	0.082
Mof_H 	H 	0.2766	0.5026	0.2606	0.03
Mof_H 	H 	0.5945	0.7408	0.9505	0.026
Mof_H 	H 	0.2858	0.2362	0.8246	0.083
Mof_H 	H 	0.3552	0.3569	0.6867	0.032
Mof_H 	H 	0.1065	0.243	0.2584	0.074
Mof_H 	H 	0.5945	0.2408	0.5495	0.026
Mof_H 	H 	0.7234	0.9974	0.7606	0.03
Mof_H 	H 	0.0211	0.1088	0.1328	0.045
Mof_H 	H 	0.9789	0.8912	0.8672	0.045
Mof_H 	H 	0.8935	0.257	0.7584	0.077
Mof_H 	H 	0.3552	0.8569	0.8133	0.032
Mof_H 	H 	0.7142	0.7638	0.1754	0.083
Mof_H 	H 	0.5128	0.1127	0.6827	0.068
Mof_C 	C 	0.9193	0.2688	0.3047	-0.019
Mof_C 	C 	0.5367	0.6463	0.6152	0.303
Mof_C 	C 	0.3152	0.0815	0.2284	0.047
Mof_C 	C 	0.0397	0.8546	0.8317	0.039
Mof_C 	C 	0.6848	0.9185	0.7716	0.047
Mof_C 	C 	0.4184	0.7712	0.204	-0.021
Mof_C 	C 	0.4633	0.8537	0.1152	0.302
Mof_C 	C 	0.221	0.763	0.7155	-0.08
Mof_C 	C 	0.0304	0.6471	0.6092	0.305
Mof_C 	C 	0.9883	0.2774	0.7459	-0.069
Mof_C 	C 	0.5816	0.7288	0.704	-0.023
Mof_C 	C 	0.0117	0.7226	0.2541	-0.069
Mof_C 	C 	0.9883	0.7774	0.7541	-0.062
Mof_C 	C 	0.6463	0.3462	0.8117	-0.076
Mof_C 	C 	0.261	0.836	0.7984	0.06
Mof_C 	C 	0.4184	0.2712	0.296	-0.023
Mof_C 	C 	0.9193	0.7688	0.1953	-0.014
Mof_C 	C 	0.3537	0.6538	0.1883	-0.076
Mof_C 	C 	0.9696	0.8529	0.1092	0.301
Mof_C 	C 	0.6463	0.8462	0.6883	-0.075
Mof_C 	C 	0.5367	0.1463	0.8848	0.302
Mof_C 	C 	0.739	0.164	0.2016	0.06
Mof_C 	C 	0.4633	0.3537	0.3848	0.303
Mof_C 	C 	0.9603	0.1454	0.1683	0.039
Mof_C 	C 	0.4412	0.3107	0.1963	-0.076
Mof_C 	C 	0.5588	0.6893	0.8037	-0.076
Mof_C 	C 	0.3934	0.2323	0.1163	0.055
Mof_C 	C 	0.261	0.336	0.7016	0.063
Mof_C 	C 	0.0117	0.2226	0.2459	-0.062
Mof_C 	C 	0.6848	0.4185	0.7284	0.047
Mof_C 	C 	0.6066	0.2677	0.6163	0.056
Mof_C 	C 	0.3537	0.1538	0.3117	-0.075
Mof_C 	C 	0.739	0.664	0.2984	0.063
Mof_C 	C 	0.5588	0.1893	0.6963	-0.077
Mof_C 	C 	0.779	0.737	0.2155	-0.083
Mof_C 	C 	0.3152	0.5815	0.2716	0.047
Mof_C 	C 	0.4412	0.8107	0.3037	-0.077
Mof_C 	C 	0.221	0.263	0.7845	-0.083
Mof_C 	C 	0.0807	0.7312	0.6953	-0.019
Mof_C 	C 	0.779	0.237	0.2845	-0.08
Mof_C 	C 	0.9696	0.3529	0.3908	0.305
Mof_C 	C 	0.9603	0.6454	0.3317	0.047
Mof_C 	C 	0.0304	0.1471	0.8908	0.301
Mof_C 	C 	0.3934	0.7323	0.3837	0.056
Mof_C 	C 	0.0807	0.2312	0.8047	-0.014
Mof_C 	C 	0.5816	0.2288	0.796	-0.021
Mof_C 	C 	0.6066	0.7677	0.8837	0.055
Mof_C 	C 	0.0397	0.3546	0.6683	0.047
Mof_N 	N 	0.3317	0.1216	0.1324	-0.134
Mof_N 	N 	0.6683	0.3784	0.6324	-0.134
Mof_N 	N 	0.1746	0.8787	0.8577	-0.132
Mof_N 	N 	0.8254	0.6213	0.3577	-0.133
Mof_N 	N 	0.1746	0.3787	0.6423	-0.133
Mof_N 	N 	0.6683	0.8784	0.8676	-0.134
Mof_N 	N 	0.8254	0.1213	0.1423	-0.132
Mof_N 	N 	0.3317	0.6216	0.3676	-0.134
Mof_O 	O 	0.5837	0.4126	0.3795	-0.284
Mof_O 	O 	0.9036	0.1058	0.8922	-0.272
Mof_O 	O 	0.3808	0.8527	0.0438	-0.271
Mof_O 	O 	0.8821	0.8728	0.0464	-0.273
Mof_O 	O 	0.5837	0.9126	0.1205	-0.28
Mof_O 	O 	0.6192	0.1473	0.9562	-0.271
Mof_O 	O 	0.4163	0.0874	0.8795	-0.28
Mof_O 	O 	0.3808	0.3527	0.4562	-0.275
Mof_O 	O 	0.6192	0.6473	0.5438	-0.275
Mof_O 	O 	0.9036	0.6058	0.6078	-0.278
Mof_O 	O 	0.0964	0.3942	0.3922	-0.278
Mof_O 	O 	0.1179	0.1272	0.9536	-0.273
Mof_O 	O 	0.4163	0.5874	0.6205	-0.284
Mof_O 	O 	0.8821	0.3728	0.4536	-0.276
Mof_O 	O 	0.1179	0.6272	0.5464	-0.276
Mof_O 	O 	0.0964	0.8942	0.1078	-0.272
_end
