data_functionalizedCrystal
_audit_creation_method	'EQeq! by Chris Wilmer'
_symmetry_space_group_name_H-M	'P1'
_symmetry_Int_Tables_number	1
_symmetry_cell_setting	triclinic
loop_
_symmetry_equiv_pos_as_xyz
  x,y,z
_cell_length_a	12.9179
_cell_length_b	15.2839
_cell_length_c	15.4266
_cell_angle_alpha	90
_cell_angle_beta	90
_cell_angle_gamma	90
loop_
_atom_site_label
_atom_site_type_symbol
_atom_site_fract_x
_atom_site_fract_y
_atom_site_fract_z
_atom_site_charge
Mof_Cd	Cd	0.25899	0.71115	0.72476	0.468
Mof_I 	I 	0.41148	0.78646	0.82248	-0.113
Mof_O 	O 	0.3472	0.6692	0.611	-0.289
Mof_O 	O 	0.2353	0.565	0.5759	-0.283
Mof_O 	O 	0.293	0.3954	0.3075	-0.285
Mof_O 	O 	0.4313	0.4235	0.2273	-0.297
Mof_O 	O 	0.6317	0.6888	0.277	-0.27
Mof_O 	O 	0.6134	0.7653	0.3987	-0.287
Mof_C 	C 	0.3133	0.6122	0.5611	0.333
Mof_C 	C 	0.3733	0.4388	0.2882	0.342
Mof_C 	C 	0.5858	0.7041	0.3486	0.306
Mof_C 	C 	0.3716	0.5974	0.4771	-0.095
Mof_C 	C 	0.3474	0.5266	0.4241	0.044
Mof_H 	H 	0.2959	0.4876	0.4408	0.048
Mof_C 	C 	0.3977	0.5142	0.3488	-0.093
Mof_C 	C 	0.4773	0.5709	0.3217	0.033
Mof_H 	H 	0.5128	0.5611	0.2702	0.05
Mof_C 	C 	0.502	0.6441	0.3758	-0.092
Mof_C 	C 	0.4499	0.6548	0.4532	0.039
Mof_H 	H 	0.4675	0.701	0.4896	0.041
Mof_Cd	Cd	0.06313	0.59298	0.58238	0.403
Mof_Cd	Cd	0.24101	0.28885	0.22476	0.467
Mof_I 	I 	0.08852	0.21354	0.32248	-0.114
Mof_O 	O 	0.1528	0.3308	0.111	-0.289
Mof_O 	O 	0.2647	0.435	0.0759	-0.283
Mof_O 	O 	0.207	0.6046	0.8075	-0.285
Mof_O 	O 	0.0687	0.5765	0.7273	-0.297
Mof_O 	O 	0.8683	0.3112	0.777	-0.27
Mof_O 	O 	0.8866	0.2347	0.8987	-0.287
Mof_C 	C 	0.1867	0.3878	0.0611	0.333
Mof_C 	C 	0.1267	0.5612	0.7882	0.343
Mof_C 	C 	0.9142	0.2959	0.8486	0.307
Mof_C 	C 	0.1284	0.4026	0.9771	-0.095
Mof_C 	C 	0.1526	0.4734	0.9241	0.044
Mof_H 	H 	0.2041	0.5124	0.9408	0.048
Mof_C 	C 	0.1023	0.4858	0.8488	-0.094
Mof_C 	C 	0.0227	0.4291	0.8217	0.033
Mof_H 	H 	0.9872	0.4389	0.7702	0.05
Mof_C 	C 	0.998	0.3559	0.8758	-0.093
Mof_C 	C 	0.0501	0.3452	0.9532	0.04
Mof_H 	H 	0.0325	0.299	0.9896	0.041
Mof_Cd	Cd	0.43687	0.40702	0.08238	0.402
Mof_Cd	Cd	0.74101	0.21115	0.77524	0.467
Mof_I 	I 	0.58852	0.28646	0.67752	-0.114
Mof_O 	O 	0.6528	0.1692	0.889	-0.289
Mof_O 	O 	0.7647	0.065	0.9241	-0.283
Mof_O 	O 	0.707	0.8954	0.1925	-0.285
Mof_O 	O 	0.5687	0.9235	0.2727	-0.297
Mof_O 	O 	0.3683	0.1888	0.223	-0.27
Mof_O 	O 	0.3866	0.2653	0.1013	-0.287
Mof_C 	C 	0.6867	0.1122	0.9389	0.333
Mof_C 	C 	0.6267	0.9388	0.2118	0.342
Mof_C 	C 	0.4142	0.2041	0.1514	0.306
Mof_C 	C 	0.6284	0.0974	0.0229	-0.095
Mof_C 	C 	0.6526	0.0266	0.0759	0.044
Mof_H 	H 	0.7041	0.9876	0.0592	0.047
Mof_C 	C 	0.6023	0.0142	0.1512	-0.093
Mof_C 	C 	0.5227	0.0709	0.1783	0.033
Mof_H 	H 	0.4872	0.0611	0.2298	0.05
Mof_C 	C 	0.498	0.1441	0.1242	-0.092
Mof_C 	C 	0.5501	0.1548	0.0468	0.039
Mof_H 	H 	0.5325	0.201	0.0104	0.041
Mof_Cd	Cd	0.93687	0.09298	0.91762	0.402
Mof_Cd	Cd	0.75899	0.78885	0.27524	0.467
Mof_I 	I 	0.91148	0.71354	0.17752	-0.115
Mof_O 	O 	0.8472	0.8308	0.389	-0.289
Mof_O 	O 	0.7353	0.935	0.4241	-0.283
Mof_O 	O 	0.793	0.1046	0.6925	-0.285
Mof_O 	O 	0.9313	0.0765	0.7727	-0.298
Mof_O 	O 	0.1317	0.8112	0.723	-0.27
Mof_O 	O 	0.1134	0.7347	0.6013	-0.288
Mof_C 	C 	0.8133	0.8878	0.4389	0.333
Mof_C 	C 	0.8733	0.0612	0.7118	0.342
Mof_C 	C 	0.0858	0.7959	0.6514	0.307
Mof_C 	C 	0.8716	0.9026	0.5229	-0.095
Mof_C 	C 	0.8474	0.9734	0.5759	0.044
Mof_H 	H 	0.7959	0.0124	0.5592	0.047
Mof_C 	C 	0.8977	0.9858	0.6512	-0.094
Mof_C 	C 	0.9773	0.9291	0.6783	0.034
Mof_H 	H 	0.0128	0.9389	0.7298	0.05
Mof_C 	C 	0.002	0.8559	0.6242	-0.093
Mof_C 	C 	0.9499	0.8452	0.5468	0.04
Mof_H 	H 	0.9675	0.799	0.5104	0.041
Mof_Cd	Cd	0.56313	0.90702	0.41762	0.402
_end
