data_functionalizedCrystal
_audit_creation_method	'EQeq! by Chris Wilmer'
_symmetry_space_group_name_H-M	'P1'
_symmetry_Int_Tables_number	1
_symmetry_cell_setting	triclinic
loop_
_symmetry_equiv_pos_as_xyz
  x,y,z
_cell_length_a	28.457
_cell_length_b	28.457
_cell_length_c	28.457
_cell_angle_alpha	90
_cell_angle_beta	90
_cell_angle_gamma	90
loop_
_atom_site_label
_atom_site_type_symbol
_atom_site_fract_x
_atom_site_fract_y
_atom_site_fract_z
_atom_site_charge
Mof_Ni	Ni	0.3494	0.6196	0.8992	-0.377
Mof_Ni	Ni	0.3404	0.6281	0.9234	-0.848
Mof_Ni	Ni	0.3441	0.6429	0.9231	1.566
Mof_Ni	Ni	0.3801	0.6322	0.9034	0.605
Mof_Ni	Ni	0.363	0.6027	0.9244	0.854
Mof_Ni	Ni	0.3623	0.6228	0.93	-0.029
Mof_Ni	Ni	0.3561	0.6534	0.8884	0.256
Mof_O 	O 	0.3945	0.5844	0.9398	-0.338
Mof_O 	O 	0.3887	0.5923	0.953	-0.674
Mof_O 	O 	0.4542	0.6312	0.9525	-0.068
Mof_O 	O 	0.4597	0.6269	0.941	-0.278
Mof_C 	C 	0.4311	0.5957	0.9631	0.545
Mof_C 	C 	0.4453	0.569	0.0034	-0.326
Mof_C 	C 	0.4826	0.5809	0.0303	0.25
Mof_O 	O 	0.3678	0.5794	0.8412	-0.55
Mof_O 	O 	0.4083	0.6599	0.8749	-0.027
Mof_C 	C 	0.4132	0.591	0.8254	-0.331
Mof_C 	C 	0.4205	0.6062	0.8312	0.57
Mof_C 	C 	0.4162	0.5744	0.7744	-0.663
Mof_C 	C 	0.431	0.5904	0.781	-1.124
Mof_N 	N 	0.3345	0.6681	0.9558	0.17
Mof_C 	C 	0.3283	0.6557	0.9995	0.262
Mof_C 	C 	0.316	0.6853	0.0335	0.234
Mof_C 	C 	0.3091	0.7307	0.0259	0.072
Mof_C 	C 	0.316	0.7434	0.9817	-0.224
Mof_C 	C 	0.328	0.713	0.9483	-0.214
Mof_N 	N 	0.3309	0.6794	0.9507	-0.595
Mof_C 	C 	0.324	0.6706	0.9952	-0.769
Mof_C 	C 	0.3141	0.7032	0.0271	0.068
Mof_C 	C 	0.3103	0.7484	0.0162	-0.066
Mof_C 	C 	0.3174	0.7574	0.9711	0.152
Mof_C 	C 	0.3267	0.7239	0.94	0.406
Mof_H 	H 	0.5	0.609	0.022	-0.02
Mof_H 	H 	0.436	0.575	0.844	0.353
Mof_H 	H 	0.442	0.591	0.852	-0.437
Mof_H 	H 	0.412	0.541	0.773	-0.249
Mof_H 	H 	0.446	0.583	0.762	0.439
Mof_H 	H 	0.392	0.589	0.756	0.063
Mof_H 	H 	0.428	0.557	0.779	0.856
Mof_H 	H 	0.462	0.6	0.773	0.1
Mof_H 	H 	0.409	0.605	0.76	0.496
Mof_H 	H 	0.333	0.623	0.008	-0.596
Mof_H 	H 	0.312	0.673	0.065	0.058
Mof_H 	H 	0.3	0.752	0.05	0
Mof_H 	H 	0.312	0.776	0.973	0.05
Mof_H 	H 	0.332	0.725	0.917	0.196
Mof_H 	H 	0.326	0.638	0.005	0.632
Mof_H 	H 	0.31	0.694	0.059	-0.137
Mof_H 	H 	0.303	0.772	0.039	0.057
Mof_H 	H 	0.316	0.789	0.96	-0.041
Mof_H 	H 	0.33	0.733	0.908	-0.348
Mof_Ni	Ni	0.1506	0.3804	0.3992	-0.376
Mof_Ni	Ni	0.1596	0.3719	0.4234	-0.846
Mof_Ni	Ni	0.1559	0.3571	0.4231	1.566
Mof_Ni	Ni	0.1199	0.3678	0.4034	0.606
Mof_Ni	Ni	0.137	0.3973	0.4244	0.855
Mof_Ni	Ni	0.1377	0.3772	0.43	-0.027
Mof_Ni	Ni	0.1439	0.3466	0.3884	0.257
Mof_O 	O 	0.1055	0.4156	0.4398	-0.337
Mof_O 	O 	0.1113	0.4077	0.453	-0.673
Mof_O 	O 	0.0458	0.3688	0.4525	-0.067
Mof_O 	O 	0.0403	0.3731	0.441	-0.277
Mof_C 	C 	0.0689	0.4043	0.4631	0.547
Mof_C 	C 	0.0547	0.431	0.5034	-0.326
Mof_C 	C 	0.0174	0.4191	0.5303	0.251
Mof_O 	O 	0.1322	0.4206	0.3412	-0.55
Mof_O 	O 	0.0917	0.3401	0.3749	-0.026
Mof_C 	C 	0.0868	0.409	0.3254	-0.329
Mof_C 	C 	0.0795	0.3938	0.3312	0.571
Mof_C 	C 	0.0838	0.4256	0.2744	-0.663
Mof_C 	C 	0.069	0.4096	0.281	-1.124
Mof_N 	N 	0.1655	0.3319	0.4558	0.171
Mof_C 	C 	0.1717	0.3443	0.4995	0.262
Mof_C 	C 	0.184	0.3147	0.5335	0.236
Mof_C 	C 	0.1909	0.2693	0.5259	0.07
Mof_C 	C 	0.184	0.2566	0.4817	-0.22
Mof_C 	C 	0.172	0.287	0.4483	-0.215
Mof_N 	N 	0.1691	0.3206	0.4507	-0.595
Mof_C 	C 	0.176	0.3294	0.4952	-0.771
Mof_C 	C 	0.1859	0.2968	0.5271	0.068
Mof_C 	C 	0.1897	0.2516	0.5162	-0.067
Mof_C 	C 	0.1826	0.2426	0.4711	0.153
Mof_C 	C 	0.1733	0.2761	0.44	0.405
Mof_H 	H 	-6.80622e-33	0.391	0.522	-0.02
Mof_H 	H 	0.064	0.425	0.344	0.353
Mof_H 	H 	0.058	0.409	0.352	-0.437
Mof_H 	H 	0.088	0.459	0.273	-0.249
Mof_H 	H 	0.054	0.417	0.262	0.439
Mof_H 	H 	0.108	0.411	0.256	0.063
Mof_H 	H 	0.072	0.443	0.279	0.856
Mof_H 	H 	0.038	0.4	0.273	0.101
Mof_H 	H 	0.091	0.395	0.26	0.496
Mof_H 	H 	0.167	0.377	0.508	-0.598
Mof_H 	H 	0.188	0.327	0.565	0.057
Mof_H 	H 	0.2	0.248	0.55	0.001
Mof_H 	H 	0.188	0.224	0.473	0.044
Mof_H 	H 	0.168	0.275	0.417	0.195
Mof_H 	H 	0.174	0.362	0.505	0.635
Mof_H 	H 	0.19	0.306	0.559	-0.138
Mof_H 	H 	0.197	0.228	0.539	0.057
Mof_H 	H 	0.184	0.211	0.46	-0.037
Mof_H 	H 	0.17	0.267	0.408	-0.346
Mof_Ni	Ni	0.6506	0.1196	0.6008	-0.376
Mof_Ni	Ni	0.6596	0.1281	0.5766	-0.846
Mof_Ni	Ni	0.6559	0.1429	0.5769	1.566
Mof_Ni	Ni	0.6199	0.1322	0.5966	0.606
Mof_Ni	Ni	0.637	0.1027	0.5756	0.855
Mof_Ni	Ni	0.6377	0.1228	0.57	-0.027
Mof_Ni	Ni	0.6439	0.1534	0.6116	0.257
Mof_O 	O 	0.6055	0.0844	0.5602	-0.337
Mof_O 	O 	0.6113	0.0923	0.547	-0.673
Mof_O 	O 	0.5458	0.1312	0.5475	-0.067
Mof_O 	O 	0.5403	0.1269	0.559	-0.277
Mof_C 	C 	0.5689	0.0957	0.5369	0.547
Mof_C 	C 	0.5547	0.069	0.4966	-0.326
Mof_C 	C 	0.5174	0.0809	0.4697	0.251
Mof_O 	O 	0.6322	0.0794	0.6588	-0.549
Mof_O 	O 	0.5917	0.1599	0.6251	-0.026
Mof_C 	C 	0.5868	0.091	0.6746	-0.33
Mof_C 	C 	0.5795	0.1062	0.6688	0.57
Mof_C 	C 	0.5838	0.0744	0.7256	-0.662
Mof_C 	C 	0.569	0.0904	0.719	-1.123
Mof_N 	N 	0.6655	0.1681	0.5442	0.171
Mof_C 	C 	0.6717	0.1557	0.5005	0.262
Mof_C 	C 	0.684	0.1853	0.4665	0.236
Mof_C 	C 	0.6909	0.2307	0.4741	0.07
Mof_C 	C 	0.684	0.2434	0.5183	-0.22
Mof_C 	C 	0.672	0.213	0.5517	-0.215
Mof_N 	N 	0.6691	0.1794	0.5493	-0.595
Mof_C 	C 	0.676	0.1706	0.5048	-0.771
Mof_C 	C 	0.6859	0.2032	0.4729	0.068
Mof_C 	C 	0.6897	0.2484	0.4838	-0.067
Mof_C 	C 	0.6826	0.2574	0.5289	0.153
Mof_C 	C 	0.6733	0.2239	0.56	0.405
Mof_H 	H 	0.5	0.109	0.478	-0.02
Mof_H 	H 	0.564	0.075	0.656	0.353
Mof_H 	H 	0.558	0.091	0.648	-0.437
Mof_H 	H 	0.588	0.041	0.727	-0.249
Mof_H 	H 	0.554	0.083	0.738	0.439
Mof_H 	H 	0.608	0.089	0.744	0.063
Mof_H 	H 	0.572	0.057	0.721	0.855
Mof_H 	H 	0.538	0.1	0.727	0.1
Mof_H 	H 	0.591	0.105	0.74	0.495
Mof_H 	H 	0.667	0.123	0.492	-0.599
Mof_H 	H 	0.688	0.173	0.435	0.057
Mof_H 	H 	0.7	0.252	0.45	0.001
Mof_H 	H 	0.688	0.276	0.527	0.045
Mof_H 	H 	0.668	0.225	0.583	0.195
Mof_H 	H 	0.674	0.138	0.495	0.635
Mof_H 	H 	0.69	0.194	0.441	-0.138
Mof_H 	H 	0.697	0.272	0.461	0.057
Mof_H 	H 	0.684	0.289	0.54	-0.037
Mof_H 	H 	0.67	0.233	0.592	-0.346
Mof_Ni	Ni	0.8494	0.8804	0.1008	-0.376
Mof_Ni	Ni	0.8404	0.8719	0.0766	-0.846
Mof_Ni	Ni	0.8441	0.8571	0.0769	1.566
Mof_Ni	Ni	0.8801	0.8678	0.0966	0.606
Mof_Ni	Ni	0.863	0.8973	0.0756	0.855
Mof_Ni	Ni	0.8623	0.8772	0.07	-0.027
Mof_Ni	Ni	0.8561	0.8466	0.1116	0.257
Mof_O 	O 	0.8945	0.9156	0.0602	-0.336
Mof_O 	O 	0.8887	0.9077	0.047	-0.674
Mof_O 	O 	0.9542	0.8688	0.0475	-0.067
Mof_O 	O 	0.9597	0.8731	0.059	-0.277
Mof_C 	C 	0.9311	0.9043	0.0369	0.547
Mof_C 	C 	0.9453	0.931	0.9966	-0.326
Mof_C 	C 	0.9826	0.9191	0.9697	0.251
Mof_O 	O 	0.8678	0.9206	0.1588	-0.55
Mof_O 	O 	0.9083	0.8401	0.1251	-0.027
Mof_C 	C 	0.9132	0.909	0.1746	-0.329
Mof_C 	C 	0.9205	0.8938	0.1688	0.571
Mof_C 	C 	0.9162	0.9256	0.2256	-0.664
Mof_C 	C 	0.931	0.9096	0.219	-1.125
Mof_N 	N 	0.8345	0.8319	0.0442	0.171
Mof_C 	C 	0.8283	0.8443	0.0005	0.262
Mof_C 	C 	0.816	0.8147	0.9665	0.238
Mof_C 	C 	0.8091	0.7693	0.9741	0.068
Mof_C 	C 	0.816	0.7566	0.0183	-0.217
Mof_C 	C 	0.828	0.787	0.0517	-0.215
Mof_N 	N 	0.8309	0.8206	0.0493	-0.595
Mof_C 	C 	0.824	0.8294	0.0048	-0.773
Mof_C 	C 	0.8141	0.7968	0.9729	0.068
Mof_C 	C 	0.8103	0.7516	0.9838	-0.068
Mof_C 	C 	0.8174	0.7426	0.0289	0.154
Mof_C 	C 	0.8267	0.7761	0.06	0.405
Mof_H 	H 	1.24303e-32	0.891	0.978	-0.02
Mof_H 	H 	0.936	0.925	0.156	0.352
Mof_H 	H 	0.942	0.909	0.148	-0.437
Mof_H 	H 	0.912	0.959	0.227	-0.25
Mof_H 	H 	0.946	0.917	0.238	0.44
Mof_H 	H 	0.892	0.911	0.244	0.063
Mof_H 	H 	0.928	0.943	0.221	0.857
Mof_H 	H 	0.962	0.9	0.227	0.101
Mof_H 	H 	0.909	0.895	0.24	0.496
Mof_H 	H 	0.833	0.877	0.992	-0.601
Mof_H 	H 	0.812	0.827	0.935	0.057
Mof_H 	H 	0.8	0.748	0.95	0.002
Mof_H 	H 	0.812	0.724	0.027	0.04
Mof_H 	H 	0.832	0.775	0.083	0.194
Mof_H 	H 	0.826	0.862	0.995	0.638
Mof_H 	H 	0.81	0.806	0.941	-0.138
Mof_H 	H 	0.803	0.728	0.961	0.057
Mof_H 	H 	0.816	0.711	0.04	-0.034
Mof_H 	H 	0.83	0.767	0.092	-0.345
Mof_Ni	Ni	0.8992	0.3494	0.6196	-0.376
Mof_Ni	Ni	0.9234	0.3404	0.6281	-0.847
Mof_Ni	Ni	0.9231	0.3441	0.6429	1.567
Mof_Ni	Ni	0.9034	0.3801	0.6322	0.606
Mof_Ni	Ni	0.9244	0.363	0.6027	0.855
Mof_Ni	Ni	0.93	0.3623	0.6228	-0.028
Mof_Ni	Ni	0.8884	0.3561	0.6534	0.257
Mof_O 	O 	0.9398	0.3945	0.5844	-0.337
Mof_O 	O 	0.953	0.3887	0.5923	-0.673
Mof_O 	O 	0.9525	0.4542	0.6312	-0.067
Mof_O 	O 	0.941	0.4597	0.6269	-0.277
Mof_C 	C 	0.9631	0.4311	0.5957	0.546
Mof_C 	C 	0.0034	0.4453	0.569	-0.325
Mof_C 	C 	0.0303	0.4826	0.5809	0.251
Mof_O 	O 	0.8412	0.3678	0.5794	-0.549
Mof_O 	O 	0.8749	0.4083	0.6599	-0.026
Mof_C 	C 	0.8254	0.4132	0.591	-0.33
Mof_C 	C 	0.8312	0.4205	0.6062	0.571
Mof_C 	C 	0.7744	0.4162	0.5744	-0.663
Mof_C 	C 	0.781	0.431	0.5904	-1.124
Mof_N 	N 	0.9558	0.3345	0.6681	0.17
Mof_C 	C 	0.9995	0.3283	0.6557	0.262
Mof_C 	C 	0.0335	0.316	0.6853	0.234
Mof_C 	C 	0.0259	0.3091	0.7307	0.072
Mof_C 	C 	0.9817	0.316	0.7434	-0.224
Mof_C 	C 	0.9483	0.328	0.713	-0.214
Mof_N 	N 	0.9507	0.3309	0.6794	-0.595
Mof_C 	C 	0.9952	0.324	0.6706	-0.769
Mof_C 	C 	0.0271	0.3141	0.7032	0.068
Mof_C 	C 	0.0162	0.3103	0.7484	-0.066
Mof_C 	C 	0.9711	0.3174	0.7574	0.152
Mof_C 	C 	0.94	0.3267	0.7239	0.406
Mof_H 	H 	0.022	0.5	0.609	-0.02
Mof_H 	H 	0.844	0.436	0.575	0.353
Mof_H 	H 	0.852	0.442	0.591	-0.437
Mof_H 	H 	0.773	0.412	0.541	-0.249
Mof_H 	H 	0.762	0.446	0.583	0.439
Mof_H 	H 	0.756	0.392	0.589	0.063
Mof_H 	H 	0.779	0.428	0.557	0.856
Mof_H 	H 	0.773	0.462	0.6	0.1
Mof_H 	H 	0.76	0.409	0.605	0.496
Mof_H 	H 	0.008	0.333	0.623	-0.596
Mof_H 	H 	0.065	0.312	0.673	0.058
Mof_H 	H 	0.05	0.3	0.752	0
Mof_H 	H 	0.973	0.312	0.776	0.05
Mof_H 	H 	0.917	0.332	0.725	0.196
Mof_H 	H 	0.005	0.326	0.638	0.632
Mof_H 	H 	0.059	0.31	0.694	-0.137
Mof_H 	H 	0.039	0.303	0.772	0.057
Mof_H 	H 	0.96	0.316	0.789	-0.041
Mof_H 	H 	0.908	0.33	0.733	-0.348
Mof_Ni	Ni	0.3992	0.1506	0.3804	-0.376
Mof_Ni	Ni	0.4234	0.1596	0.3719	-0.846
Mof_Ni	Ni	0.4231	0.1559	0.3571	1.566
Mof_Ni	Ni	0.4034	0.1199	0.3678	0.606
Mof_Ni	Ni	0.4244	0.137	0.3973	0.855
Mof_Ni	Ni	0.43	0.1377	0.3772	-0.027
Mof_Ni	Ni	0.3884	0.1439	0.3466	0.257
Mof_O 	O 	0.4398	0.1055	0.4156	-0.337
Mof_O 	O 	0.453	0.1113	0.4077	-0.673
Mof_O 	O 	0.4525	0.0458	0.3688	-0.067
Mof_O 	O 	0.441	0.0403	0.3731	-0.277
Mof_C 	C 	0.4631	0.0689	0.4043	0.547
Mof_C 	C 	0.5034	0.0547	0.431	-0.326
Mof_C 	C 	0.5303	0.0174	0.4191	0.251
Mof_O 	O 	0.3412	0.1322	0.4206	-0.55
Mof_O 	O 	0.3749	0.0917	0.3401	-0.026
Mof_C 	C 	0.3254	0.0868	0.409	-0.329
Mof_C 	C 	0.3312	0.0795	0.3938	0.571
Mof_C 	C 	0.2744	0.0838	0.4256	-0.663
Mof_C 	C 	0.281	0.069	0.4096	-1.124
Mof_N 	N 	0.4558	0.1655	0.3319	0.171
Mof_C 	C 	0.4995	0.1717	0.3443	0.262
Mof_C 	C 	0.5335	0.184	0.3147	0.236
Mof_C 	C 	0.5259	0.1909	0.2693	0.07
Mof_C 	C 	0.4817	0.184	0.2566	-0.22
Mof_C 	C 	0.4483	0.172	0.287	-0.215
Mof_N 	N 	0.4507	0.1691	0.3206	-0.595
Mof_C 	C 	0.4952	0.176	0.3294	-0.771
Mof_C 	C 	0.5271	0.1859	0.2968	0.068
Mof_C 	C 	0.5162	0.1897	0.2516	-0.067
Mof_C 	C 	0.4711	0.1826	0.2426	0.153
Mof_C 	C 	0.44	0.1733	0.2761	0.405
Mof_H 	H 	0.522	0	0.391	-0.02
Mof_H 	H 	0.344	0.064	0.425	0.353
Mof_H 	H 	0.352	0.058	0.409	-0.437
Mof_H 	H 	0.273	0.088	0.459	-0.249
Mof_H 	H 	0.262	0.054	0.417	0.439
Mof_H 	H 	0.256	0.108	0.411	0.063
Mof_H 	H 	0.279	0.072	0.443	0.856
Mof_H 	H 	0.273	0.038	0.4	0.101
Mof_H 	H 	0.26	0.091	0.395	0.496
Mof_H 	H 	0.508	0.167	0.377	-0.598
Mof_H 	H 	0.565	0.188	0.327	0.057
Mof_H 	H 	0.55	0.2	0.248	0.001
Mof_H 	H 	0.473	0.188	0.224	0.044
Mof_H 	H 	0.417	0.168	0.275	0.195
Mof_H 	H 	0.505	0.174	0.362	0.635
Mof_H 	H 	0.559	0.19	0.306	-0.138
Mof_H 	H 	0.539	0.197	0.228	0.057
Mof_H 	H 	0.46	0.184	0.211	-0.037
Mof_H 	H 	0.408	0.17	0.267	-0.346
Mof_Ni	Ni	0.6008	0.6506	0.1196	-0.376
Mof_Ni	Ni	0.5766	0.6596	0.1281	-0.846
Mof_Ni	Ni	0.5769	0.6559	0.1429	1.566
Mof_Ni	Ni	0.5966	0.6199	0.1322	0.606
Mof_Ni	Ni	0.5756	0.637	0.1027	0.855
Mof_Ni	Ni	0.57	0.6377	0.1228	-0.027
Mof_Ni	Ni	0.6116	0.6439	0.1534	0.257
Mof_O 	O 	0.5602	0.6055	0.0844	-0.337
Mof_O 	O 	0.547	0.6113	0.0923	-0.673
Mof_O 	O 	0.5475	0.5458	0.1312	-0.067
Mof_O 	O 	0.559	0.5403	0.1269	-0.277
Mof_C 	C 	0.5369	0.5689	0.0957	0.547
Mof_C 	C 	0.4966	0.5547	0.069	-0.326
Mof_C 	C 	0.4697	0.5174	0.0809	0.251
Mof_O 	O 	0.6588	0.6322	0.0794	-0.549
Mof_O 	O 	0.6251	0.5917	0.1599	-0.026
Mof_C 	C 	0.6746	0.5868	0.091	-0.33
Mof_C 	C 	0.6688	0.5795	0.1062	0.57
Mof_C 	C 	0.7256	0.5838	0.0744	-0.662
Mof_C 	C 	0.719	0.569	0.0904	-1.123
Mof_N 	N 	0.5442	0.6655	0.1681	0.171
Mof_C 	C 	0.5005	0.6717	0.1557	0.262
Mof_C 	C 	0.4665	0.684	0.1853	0.236
Mof_C 	C 	0.4741	0.6909	0.2307	0.07
Mof_C 	C 	0.5183	0.684	0.2434	-0.22
Mof_C 	C 	0.5517	0.672	0.213	-0.215
Mof_N 	N 	0.5493	0.6691	0.1794	-0.595
Mof_C 	C 	0.5048	0.676	0.1706	-0.771
Mof_C 	C 	0.4729	0.6859	0.2032	0.068
Mof_C 	C 	0.4838	0.6897	0.2484	-0.067
Mof_C 	C 	0.5289	0.6826	0.2574	0.153
Mof_C 	C 	0.56	0.6733	0.2239	0.405
Mof_H 	H 	0.478	0.5	0.109	-0.02
Mof_H 	H 	0.656	0.564	0.075	0.353
Mof_H 	H 	0.648	0.558	0.091	-0.437
Mof_H 	H 	0.727	0.588	0.041	-0.249
Mof_H 	H 	0.738	0.554	0.083	0.439
Mof_H 	H 	0.744	0.608	0.089	0.063
Mof_H 	H 	0.721	0.572	0.057	0.855
Mof_H 	H 	0.727	0.538	0.1	0.1
Mof_H 	H 	0.74	0.591	0.105	0.495
Mof_H 	H 	0.492	0.667	0.123	-0.599
Mof_H 	H 	0.435	0.688	0.173	0.057
Mof_H 	H 	0.45	0.7	0.252	0.001
Mof_H 	H 	0.527	0.688	0.276	0.045
Mof_H 	H 	0.583	0.668	0.225	0.195
Mof_H 	H 	0.495	0.674	0.138	0.635
Mof_H 	H 	0.441	0.69	0.194	-0.138
Mof_H 	H 	0.461	0.697	0.272	0.057
Mof_H 	H 	0.54	0.684	0.289	-0.037
Mof_H 	H 	0.592	0.67	0.233	-0.346
Mof_Ni	Ni	0.1008	0.8494	0.8804	-0.376
Mof_Ni	Ni	0.0766	0.8404	0.8719	-0.846
Mof_Ni	Ni	0.0769	0.8441	0.8571	1.566
Mof_Ni	Ni	0.0966	0.8801	0.8678	0.606
Mof_Ni	Ni	0.0756	0.863	0.8973	0.855
Mof_Ni	Ni	0.07	0.8623	0.8772	-0.027
Mof_Ni	Ni	0.1116	0.8561	0.8466	0.257
Mof_O 	O 	0.0602	0.8945	0.9156	-0.336
Mof_O 	O 	0.047	0.8887	0.9077	-0.674
Mof_O 	O 	0.0475	0.9542	0.8688	-0.067
Mof_O 	O 	0.059	0.9597	0.8731	-0.277
Mof_C 	C 	0.0369	0.9311	0.9043	0.547
Mof_C 	C 	0.9966	0.9453	0.931	-0.326
Mof_C 	C 	0.9697	0.9826	0.9191	0.251
Mof_O 	O 	0.1588	0.8678	0.9206	-0.55
Mof_O 	O 	0.1251	0.9083	0.8401	-0.027
Mof_C 	C 	0.1746	0.9132	0.909	-0.329
Mof_C 	C 	0.1688	0.9205	0.8938	0.571
Mof_C 	C 	0.2256	0.9162	0.9256	-0.664
Mof_C 	C 	0.219	0.931	0.9096	-1.125
Mof_N 	N 	0.0442	0.8345	0.8319	0.171
Mof_C 	C 	0.0005	0.8283	0.8443	0.262
Mof_C 	C 	0.9665	0.816	0.8147	0.238
Mof_C 	C 	0.9741	0.8091	0.7693	0.068
Mof_C 	C 	0.0183	0.816	0.7566	-0.217
Mof_C 	C 	0.0517	0.828	0.787	-0.215
Mof_N 	N 	0.0493	0.8309	0.8206	-0.595
Mof_C 	C 	0.0048	0.824	0.8294	-0.773
Mof_C 	C 	0.9729	0.8141	0.7968	0.068
Mof_C 	C 	0.9838	0.8103	0.7516	-0.068
Mof_C 	C 	0.0289	0.8174	0.7426	0.154
Mof_C 	C 	0.06	0.8267	0.7761	0.405
Mof_H 	H 	0.978	0	0.891	-0.02
Mof_H 	H 	0.156	0.936	0.925	0.352
Mof_H 	H 	0.148	0.942	0.909	-0.437
Mof_H 	H 	0.227	0.912	0.959	-0.25
Mof_H 	H 	0.238	0.946	0.917	0.44
Mof_H 	H 	0.244	0.892	0.911	0.063
Mof_H 	H 	0.221	0.928	0.943	0.857
Mof_H 	H 	0.227	0.962	0.9	0.101
Mof_H 	H 	0.24	0.909	0.895	0.496
Mof_H 	H 	0.992	0.833	0.877	-0.601
Mof_H 	H 	0.935	0.812	0.827	0.057
Mof_H 	H 	0.95	0.8	0.748	0.002
Mof_H 	H 	0.027	0.812	0.724	0.04
Mof_H 	H 	0.083	0.832	0.775	0.194
Mof_H 	H 	0.995	0.826	0.862	0.638
Mof_H 	H 	0.941	0.81	0.806	-0.138
Mof_H 	H 	0.961	0.803	0.728	0.057
Mof_H 	H 	0.04	0.816	0.711	-0.034
Mof_H 	H 	0.092	0.83	0.767	-0.345
Mof_Ni	Ni	0.6196	0.8992	0.3494	-0.376
Mof_Ni	Ni	0.6281	0.9234	0.3404	-0.847
Mof_Ni	Ni	0.6429	0.9231	0.3441	1.567
Mof_Ni	Ni	0.6322	0.9034	0.3801	0.606
Mof_Ni	Ni	0.6027	0.9244	0.363	0.855
Mof_Ni	Ni	0.6228	0.93	0.3623	-0.028
Mof_Ni	Ni	0.6534	0.8884	0.3561	0.257
Mof_O 	O 	0.5844	0.9398	0.3945	-0.337
Mof_O 	O 	0.5923	0.953	0.3887	-0.673
Mof_O 	O 	0.6312	0.9525	0.4542	-0.067
Mof_O 	O 	0.6269	0.941	0.4597	-0.277
Mof_C 	C 	0.5957	0.9631	0.4311	0.546
Mof_C 	C 	0.569	0.0034	0.4453	-0.325
Mof_C 	C 	0.5809	0.0303	0.4826	0.251
Mof_O 	O 	0.5794	0.8412	0.3678	-0.549
Mof_O 	O 	0.6599	0.8749	0.4083	-0.026
Mof_C 	C 	0.591	0.8254	0.4132	-0.33
Mof_C 	C 	0.6062	0.8312	0.4205	0.571
Mof_C 	C 	0.5744	0.7744	0.4162	-0.663
Mof_C 	C 	0.5904	0.781	0.431	-1.124
Mof_N 	N 	0.6681	0.9558	0.3345	0.17
Mof_C 	C 	0.6557	0.9995	0.3283	0.262
Mof_C 	C 	0.6853	0.0335	0.316	0.234
Mof_C 	C 	0.7307	0.0259	0.3091	0.072
Mof_C 	C 	0.7434	0.9817	0.316	-0.224
Mof_C 	C 	0.713	0.9483	0.328	-0.214
Mof_N 	N 	0.6794	0.9507	0.3309	-0.595
Mof_C 	C 	0.6706	0.9952	0.324	-0.769
Mof_C 	C 	0.7032	0.0271	0.3141	0.068
Mof_C 	C 	0.7484	0.0162	0.3103	-0.066
Mof_C 	C 	0.7574	0.9711	0.3174	0.152
Mof_C 	C 	0.7239	0.94	0.3267	0.406
Mof_H 	H 	0.609	0.022	0.5	-0.02
Mof_H 	H 	0.575	0.844	0.436	0.353
Mof_H 	H 	0.591	0.852	0.442	-0.437
Mof_H 	H 	0.541	0.773	0.412	-0.249
Mof_H 	H 	0.583	0.762	0.446	0.439
Mof_H 	H 	0.589	0.756	0.392	0.063
Mof_H 	H 	0.557	0.779	0.428	0.856
Mof_H 	H 	0.6	0.773	0.462	0.1
Mof_H 	H 	0.605	0.76	0.409	0.496
Mof_H 	H 	0.623	0.008	0.333	-0.596
Mof_H 	H 	0.673	0.065	0.312	0.058
Mof_H 	H 	0.752	0.05	0.3	0
Mof_H 	H 	0.776	0.973	0.312	0.05
Mof_H 	H 	0.725	0.917	0.332	0.196
Mof_H 	H 	0.638	0.005	0.326	0.632
Mof_H 	H 	0.694	0.059	0.31	-0.137
Mof_H 	H 	0.772	0.039	0.303	0.057
Mof_H 	H 	0.789	0.96	0.316	-0.041
Mof_H 	H 	0.733	0.908	0.33	-0.348
Mof_Ni	Ni	0.3804	0.3992	0.1506	-0.376
Mof_Ni	Ni	0.3719	0.4234	0.1596	-0.846
Mof_Ni	Ni	0.3571	0.4231	0.1559	1.566
Mof_Ni	Ni	0.3678	0.4034	0.1199	0.606
Mof_Ni	Ni	0.3973	0.4244	0.137	0.855
Mof_Ni	Ni	0.3772	0.43	0.1377	-0.027
Mof_Ni	Ni	0.3466	0.3884	0.1439	0.257
Mof_O 	O 	0.4156	0.4398	0.1055	-0.337
Mof_O 	O 	0.4077	0.453	0.1113	-0.673
Mof_O 	O 	0.3688	0.4525	0.0458	-0.067
Mof_O 	O 	0.3731	0.441	0.0403	-0.277
Mof_C 	C 	0.4043	0.4631	0.0689	0.547
Mof_C 	C 	0.431	0.5034	0.0547	-0.326
Mof_C 	C 	0.4191	0.5303	0.0174	0.251
Mof_O 	O 	0.4206	0.3412	0.1322	-0.55
Mof_O 	O 	0.3401	0.3749	0.0917	-0.026
Mof_C 	C 	0.409	0.3254	0.0868	-0.329
Mof_C 	C 	0.3938	0.3312	0.0795	0.571
Mof_C 	C 	0.4256	0.2744	0.0838	-0.663
Mof_C 	C 	0.4096	0.281	0.069	-1.124
Mof_N 	N 	0.3319	0.4558	0.1655	0.171
Mof_C 	C 	0.3443	0.4995	0.1717	0.262
Mof_C 	C 	0.3147	0.5335	0.184	0.236
Mof_C 	C 	0.2693	0.5259	0.1909	0.07
Mof_C 	C 	0.2566	0.4817	0.184	-0.22
Mof_C 	C 	0.287	0.4483	0.172	-0.215
Mof_N 	N 	0.3206	0.4507	0.1691	-0.595
Mof_C 	C 	0.3294	0.4952	0.176	-0.771
Mof_C 	C 	0.2968	0.5271	0.1859	0.068
Mof_C 	C 	0.2516	0.5162	0.1897	-0.067
Mof_C 	C 	0.2426	0.4711	0.1826	0.153
Mof_C 	C 	0.2761	0.44	0.1733	0.405
Mof_H 	H 	0.391	0.522	-0	-0.02
Mof_H 	H 	0.425	0.344	0.064	0.353
Mof_H 	H 	0.409	0.352	0.058	-0.437
Mof_H 	H 	0.459	0.273	0.088	-0.249
Mof_H 	H 	0.417	0.262	0.054	0.439
Mof_H 	H 	0.411	0.256	0.108	0.063
Mof_H 	H 	0.443	0.279	0.072	0.856
Mof_H 	H 	0.4	0.273	0.038	0.101
Mof_H 	H 	0.395	0.26	0.091	0.496
Mof_H 	H 	0.377	0.508	0.167	-0.598
Mof_H 	H 	0.327	0.565	0.188	0.057
Mof_H 	H 	0.248	0.55	0.2	0.001
Mof_H 	H 	0.224	0.473	0.188	0.044
Mof_H 	H 	0.275	0.417	0.168	0.195
Mof_H 	H 	0.362	0.505	0.174	0.635
Mof_H 	H 	0.306	0.559	0.19	-0.138
Mof_H 	H 	0.228	0.539	0.197	0.057
Mof_H 	H 	0.211	0.46	0.184	-0.037
Mof_H 	H 	0.267	0.408	0.17	-0.346
Mof_Ni	Ni	0.1196	0.6008	0.6506	-0.376
Mof_Ni	Ni	0.1281	0.5766	0.6596	-0.846
Mof_Ni	Ni	0.1429	0.5769	0.6559	1.566
Mof_Ni	Ni	0.1322	0.5966	0.6199	0.606
Mof_Ni	Ni	0.1027	0.5756	0.637	0.855
Mof_Ni	Ni	0.1228	0.57	0.6377	-0.027
Mof_Ni	Ni	0.1534	0.6116	0.6439	0.257
Mof_O 	O 	0.0844	0.5602	0.6055	-0.337
Mof_O 	O 	0.0923	0.547	0.6113	-0.673
Mof_O 	O 	0.1312	0.5475	0.5458	-0.067
Mof_O 	O 	0.1269	0.559	0.5403	-0.277
Mof_C 	C 	0.0957	0.5369	0.5689	0.547
Mof_C 	C 	0.069	0.4966	0.5547	-0.326
Mof_C 	C 	0.0809	0.4697	0.5174	0.251
Mof_O 	O 	0.0794	0.6588	0.6322	-0.549
Mof_O 	O 	0.1599	0.6251	0.5917	-0.026
Mof_C 	C 	0.091	0.6746	0.5868	-0.33
Mof_C 	C 	0.1062	0.6688	0.5795	0.57
Mof_C 	C 	0.0744	0.7256	0.5838	-0.662
Mof_C 	C 	0.0904	0.719	0.569	-1.123
Mof_N 	N 	0.1681	0.5442	0.6655	0.171
Mof_C 	C 	0.1557	0.5005	0.6717	0.262
Mof_C 	C 	0.1853	0.4665	0.684	0.236
Mof_C 	C 	0.2307	0.4741	0.6909	0.07
Mof_C 	C 	0.2434	0.5183	0.684	-0.22
Mof_C 	C 	0.213	0.5517	0.672	-0.215
Mof_N 	N 	0.1794	0.5493	0.6691	-0.595
Mof_C 	C 	0.1706	0.5048	0.676	-0.771
Mof_C 	C 	0.2032	0.4729	0.6859	0.068
Mof_C 	C 	0.2484	0.4838	0.6897	-0.067
Mof_C 	C 	0.2574	0.5289	0.6826	0.153
Mof_C 	C 	0.2239	0.56	0.6733	0.405
Mof_H 	H 	0.109	0.478	0.5	-0.02
Mof_H 	H 	0.075	0.656	0.564	0.353
Mof_H 	H 	0.091	0.648	0.558	-0.437
Mof_H 	H 	0.041	0.727	0.588	-0.249
Mof_H 	H 	0.083	0.738	0.554	0.439
Mof_H 	H 	0.089	0.744	0.608	0.063
Mof_H 	H 	0.057	0.721	0.572	0.855
Mof_H 	H 	0.1	0.727	0.538	0.1
Mof_H 	H 	0.105	0.74	0.591	0.495
Mof_H 	H 	0.123	0.492	0.667	-0.599
Mof_H 	H 	0.173	0.435	0.688	0.057
Mof_H 	H 	0.252	0.45	0.7	0.001
Mof_H 	H 	0.276	0.527	0.688	0.045
Mof_H 	H 	0.225	0.583	0.668	0.195
Mof_H 	H 	0.138	0.495	0.674	0.635
Mof_H 	H 	0.194	0.441	0.69	-0.138
Mof_H 	H 	0.272	0.461	0.697	0.057
Mof_H 	H 	0.289	0.54	0.684	-0.037
Mof_H 	H 	0.233	0.592	0.67	-0.346
Mof_Ni	Ni	0.8804	0.1008	0.8494	-0.376
Mof_Ni	Ni	0.8719	0.0766	0.8404	-0.846
Mof_Ni	Ni	0.8571	0.0769	0.8441	1.566
Mof_Ni	Ni	0.8678	0.0966	0.8801	0.606
Mof_Ni	Ni	0.8973	0.0756	0.863	0.855
Mof_Ni	Ni	0.8772	0.07	0.8623	-0.027
Mof_Ni	Ni	0.8466	0.1116	0.8561	0.257
Mof_O 	O 	0.9156	0.0602	0.8945	-0.336
Mof_O 	O 	0.9077	0.047	0.8887	-0.674
Mof_O 	O 	0.8688	0.0475	0.9542	-0.067
Mof_O 	O 	0.8731	0.059	0.9597	-0.277
Mof_C 	C 	0.9043	0.0369	0.9311	0.547
Mof_C 	C 	0.931	0.9966	0.9453	-0.326
Mof_C 	C 	0.9191	0.9697	0.9826	0.251
Mof_O 	O 	0.9206	0.1588	0.8678	-0.55
Mof_O 	O 	0.8401	0.1251	0.9083	-0.027
Mof_C 	C 	0.909	0.1746	0.9132	-0.329
Mof_C 	C 	0.8938	0.1688	0.9205	0.571
Mof_C 	C 	0.9256	0.2256	0.9162	-0.664
Mof_C 	C 	0.9096	0.219	0.931	-1.125
Mof_N 	N 	0.8319	0.0442	0.8345	0.171
Mof_C 	C 	0.8443	0.0005	0.8283	0.262
Mof_C 	C 	0.8147	0.9665	0.816	0.238
Mof_C 	C 	0.7693	0.9741	0.8091	0.068
Mof_C 	C 	0.7566	0.0183	0.816	-0.217
Mof_C 	C 	0.787	0.0517	0.828	-0.215
Mof_N 	N 	0.8206	0.0493	0.8309	-0.595
Mof_C 	C 	0.8294	0.0048	0.824	-0.773
Mof_C 	C 	0.7968	0.9729	0.8141	0.068
Mof_C 	C 	0.7516	0.9838	0.8103	-0.068
Mof_C 	C 	0.7426	0.0289	0.8174	0.154
Mof_C 	C 	0.7761	0.06	0.8267	0.405
Mof_H 	H 	0.891	0.978	-0	-0.02
Mof_H 	H 	0.925	0.156	0.936	0.352
Mof_H 	H 	0.909	0.148	0.942	-0.437
Mof_H 	H 	0.959	0.227	0.912	-0.25
Mof_H 	H 	0.917	0.238	0.946	0.44
Mof_H 	H 	0.911	0.244	0.892	0.063
Mof_H 	H 	0.943	0.221	0.928	0.857
Mof_H 	H 	0.9	0.227	0.962	0.101
Mof_H 	H 	0.895	0.24	0.909	0.496
Mof_H 	H 	0.877	0.992	0.833	-0.601
Mof_H 	H 	0.827	0.935	0.812	0.057
Mof_H 	H 	0.748	0.95	0.8	0.002
Mof_H 	H 	0.724	0.027	0.812	0.04
Mof_H 	H 	0.775	0.083	0.832	0.194
Mof_H 	H 	0.862	0.995	0.826	0.638
Mof_H 	H 	0.806	0.941	0.81	-0.138
Mof_H 	H 	0.728	0.961	0.803	0.057
Mof_H 	H 	0.711	0.04	0.816	-0.034
Mof_H 	H 	0.767	0.092	0.83	-0.345
Mof_Ni	Ni	0.8696	0.0994	0.8508	-0.376
Mof_Ni	Ni	0.8781	0.0904	0.8266	-0.846
Mof_Ni	Ni	0.8929	0.0941	0.8269	1.566
Mof_Ni	Ni	0.8822	0.1301	0.8466	0.606
Mof_Ni	Ni	0.8527	0.113	0.8256	0.855
Mof_Ni	Ni	0.8728	0.1123	0.82	-0.027
Mof_Ni	Ni	0.9034	0.1061	0.8616	0.257
Mof_O 	O 	0.8344	0.1445	0.8102	-0.337
Mof_O 	O 	0.8423	0.1387	0.797	-0.674
Mof_O 	O 	0.8812	0.2042	0.7975	-0.067
Mof_O 	O 	0.8769	0.2097	0.809	-0.277
Mof_C 	C 	0.8457	0.1811	0.7869	0.547
Mof_C 	C 	0.819	0.1953	0.7466	-0.326
Mof_C 	C 	0.8309	0.2326	0.7197	0.252
Mof_O 	O 	0.8294	0.1178	0.9088	-0.549
Mof_O 	O 	0.9099	0.1583	0.8751	-0.026
Mof_C 	C 	0.841	0.1632	0.9246	-0.33
Mof_C 	C 	0.8562	0.1705	0.9188	0.569
Mof_C 	C 	0.8244	0.1662	0.9756	-0.66
Mof_C 	C 	0.8404	0.181	0.969	-1.12
Mof_N 	N 	0.9181	0.0845	0.7942	0.171
Mof_C 	C 	0.9057	0.0783	0.7505	0.262
Mof_C 	C 	0.9353	0.066	0.7165	0.237
Mof_C 	C 	0.9807	0.0591	0.7241	0.069
Mof_C 	C 	0.9934	0.066	0.7683	-0.221
Mof_C 	C 	0.963	0.078	0.8017	-0.214
Mof_N 	N 	0.9294	0.0809	0.7993	-0.595
Mof_C 	C 	0.9206	0.074	0.7548	-0.771
Mof_C 	C 	0.9532	0.0641	0.7229	0.068
Mof_C 	C 	0.9984	0.0603	0.7338	-0.067
Mof_C 	C 	0.0074	0.0674	0.7789	0.152
Mof_C 	C 	0.9739	0.0767	0.81	0.405
Mof_H 	H 	0.859	0.25	0.728	-0.02
Mof_H 	H 	0.825	0.186	0.906	0.353
Mof_H 	H 	0.841	0.192	0.898	-0.437
Mof_H 	H 	0.791	0.162	0.977	-0.249
Mof_H 	H 	0.833	0.196	0.988	0.438
Mof_H 	H 	0.839	0.142	0.994	0.063
Mof_H 	H 	0.807	0.178	0.971	0.853
Mof_H 	H 	0.85	0.212	0.977	0.1
Mof_H 	H 	0.855	0.159	0.99	0.494
Mof_H 	H 	0.873	0.083	0.742	-0.598
Mof_H 	H 	0.923	0.062	0.685	0.057
Mof_H 	H 	0.002	0.05	0.7	0.002
Mof_H 	H 	0.026	0.062	0.777	0.047
Mof_H 	H 	0.975	0.082	0.833	0.195
Mof_H 	H 	0.888	0.076	0.745	0.635
Mof_H 	H 	0.944	0.06	0.691	-0.138
Mof_H 	H 	0.022	0.053	0.711	0.057
Mof_H 	H 	0.039	0.066	0.79	-0.039
Mof_H 	H 	0.983	0.08	0.842	-0.346
Mof_Ni	Ni	0.6304	0.9006	0.3508	-0.376
Mof_Ni	Ni	0.6219	0.9096	0.3266	-0.847
Mof_Ni	Ni	0.6071	0.9059	0.3269	1.567
Mof_Ni	Ni	0.6178	0.8699	0.3466	0.606
Mof_Ni	Ni	0.6473	0.887	0.3256	0.855
Mof_Ni	Ni	0.6272	0.8877	0.32	-0.027
Mof_Ni	Ni	0.5966	0.8939	0.3616	0.257
Mof_O 	O 	0.6656	0.8555	0.3102	-0.337
Mof_O 	O 	0.6577	0.8613	0.297	-0.673
Mof_O 	O 	0.6188	0.7958	0.2975	-0.067
Mof_O 	O 	0.6231	0.7903	0.309	-0.277
Mof_C 	C 	0.6543	0.8189	0.2869	0.547
Mof_C 	C 	0.681	0.8047	0.2466	-0.326
Mof_C 	C 	0.6691	0.7674	0.2197	0.252
Mof_O 	O 	0.6706	0.8822	0.4088	-0.55
Mof_O 	O 	0.5901	0.8417	0.3751	-0.026
Mof_C 	C 	0.659	0.8368	0.4246	-0.329
Mof_C 	C 	0.6438	0.8295	0.4188	0.571
Mof_C 	C 	0.6756	0.8338	0.4756	-0.663
Mof_C 	C 	0.6596	0.819	0.469	-1.124
Mof_N 	N 	0.5819	0.9155	0.2942	0.171
Mof_C 	C 	0.5943	0.9217	0.2505	0.262
Mof_C 	C 	0.5647	0.934	0.2165	0.236
Mof_C 	C 	0.5193	0.9409	0.2241	0.07
Mof_C 	C 	0.5066	0.934	0.2683	-0.221
Mof_C 	C 	0.537	0.922	0.3017	-0.215
Mof_N 	N 	0.5706	0.9191	0.2993	-0.595
Mof_C 	C 	0.5794	0.926	0.2548	-0.771
Mof_C 	C 	0.5468	0.9359	0.2229	0.068
Mof_C 	C 	0.5016	0.9397	0.2338	-0.067
Mof_C 	C 	0.4926	0.9326	0.2789	0.153
Mof_C 	C 	0.5261	0.9233	0.31	0.405
Mof_H 	H 	0.641	0.75	0.228	-0.02
Mof_H 	H 	0.675	0.814	0.406	0.353
Mof_H 	H 	0.659	0.808	0.398	-0.437
Mof_H 	H 	0.709	0.838	0.477	-0.249
Mof_H 	H 	0.667	0.804	0.488	0.439
Mof_H 	H 	0.661	0.858	0.494	0.063
Mof_H 	H 	0.693	0.822	0.471	0.856
Mof_H 	H 	0.65	0.788	0.477	0.101
Mof_H 	H 	0.645	0.841	0.49	0.496
Mof_H 	H 	0.627	0.917	0.242	-0.599
Mof_H 	H 	0.577	0.938	0.185	0.057
Mof_H 	H 	0.498	0.95	0.2	0.001
Mof_H 	H 	0.474	0.938	0.277	0.045
Mof_H 	H 	0.525	0.918	0.333	0.195
Mof_H 	H 	0.612	0.924	0.245	0.636
Mof_H 	H 	0.556	0.94	0.191	-0.138
Mof_H 	H 	0.478	0.947	0.211	0.057
Mof_H 	H 	0.461	0.934	0.29	-0.038
Mof_H 	H 	0.517	0.92	0.342	-0.346
Mof_Ni	Ni	0.3696	0.4006	0.1492	-0.376
Mof_Ni	Ni	0.3781	0.4096	0.1734	-0.846
Mof_Ni	Ni	0.3929	0.4059	0.1731	1.566
Mof_Ni	Ni	0.3822	0.3699	0.1534	0.606
Mof_Ni	Ni	0.3527	0.387	0.1744	0.855
Mof_Ni	Ni	0.3728	0.3877	0.18	-0.027
Mof_Ni	Ni	0.4034	0.3939	0.1384	0.257
Mof_O 	O 	0.3344	0.3555	0.1898	-0.337
Mof_O 	O 	0.3423	0.3613	0.203	-0.673
Mof_O 	O 	0.3812	0.2958	0.2025	-0.067
Mof_O 	O 	0.3769	0.2903	0.191	-0.277
Mof_C 	C 	0.3457	0.3189	0.2131	0.547
Mof_C 	C 	0.319	0.3047	0.2534	-0.326
Mof_C 	C 	0.3309	0.2674	0.2803	0.252
Mof_O 	O 	0.3294	0.3822	0.0912	-0.55
Mof_O 	O 	0.4099	0.3417	0.1249	-0.026
Mof_C 	C 	0.341	0.3368	0.0754	-0.33
Mof_C 	C 	0.3562	0.3295	0.0812	0.571
Mof_C 	C 	0.3244	0.3338	0.0244	-0.663
Mof_C 	C 	0.3404	0.319	0.031	-1.124
Mof_N 	N 	0.4181	0.4155	0.2058	0.171
Mof_C 	C 	0.4057	0.4217	0.2495	0.262
Mof_C 	C 	0.4353	0.434	0.2835	0.236
Mof_C 	C 	0.4807	0.4409	0.2759	0.07
Mof_C 	C 	0.4934	0.434	0.2317	-0.22
Mof_C 	C 	0.463	0.422	0.1983	-0.215
Mof_N 	N 	0.4294	0.4191	0.2007	-0.595
Mof_C 	C 	0.4206	0.426	0.2452	-0.771
Mof_C 	C 	0.4532	0.4359	0.2771	0.068
Mof_C 	C 	0.4984	0.4397	0.2662	-0.067
Mof_C 	C 	0.5074	0.4326	0.2211	0.153
Mof_C 	C 	0.4739	0.4233	0.19	0.405
Mof_H 	H 	0.359	0.25	0.272	-0.02
Mof_H 	H 	0.325	0.314	0.094	0.353
Mof_H 	H 	0.341	0.308	0.102	-0.437
Mof_H 	H 	0.291	0.338	0.023	-0.249
Mof_H 	H 	0.333	0.304	0.012	0.439
Mof_H 	H 	0.339	0.358	0.006	0.063
Mof_H 	H 	0.307	0.322	0.029	0.856
Mof_H 	H 	0.35	0.288	0.023	0.101
Mof_H 	H 	0.355	0.341	0.01	0.496
Mof_H 	H 	0.373	0.417	0.258	-0.599
Mof_H 	H 	0.423	0.438	0.315	0.057
Mof_H 	H 	0.502	0.45	0.3	0.001
Mof_H 	H 	0.526	0.438	0.223	0.045
Mof_H 	H 	0.475	0.418	0.167	0.195
Mof_H 	H 	0.388	0.424	0.255	0.635
Mof_H 	H 	0.444	0.44	0.309	-0.138
Mof_H 	H 	0.522	0.447	0.289	0.057
Mof_H 	H 	0.539	0.434	0.21	-0.037
Mof_H 	H 	0.483	0.42	0.158	-0.346
Mof_Ni	Ni	0.1304	0.5994	0.6492	-0.376
Mof_Ni	Ni	0.1219	0.5904	0.6734	-0.846
Mof_Ni	Ni	0.1071	0.5941	0.6731	1.566
Mof_Ni	Ni	0.1178	0.6301	0.6534	0.606
Mof_Ni	Ni	0.1473	0.613	0.6744	0.855
Mof_Ni	Ni	0.1272	0.6123	0.68	-0.027
Mof_Ni	Ni	0.0966	0.6061	0.6384	0.257
Mof_O 	O 	0.1656	0.6445	0.6898	-0.337
Mof_O 	O 	0.1577	0.6387	0.703	-0.674
Mof_O 	O 	0.1188	0.7042	0.7025	-0.067
Mof_O 	O 	0.1231	0.7097	0.691	-0.277
Mof_C 	C 	0.1543	0.6811	0.7131	0.547
Mof_C 	C 	0.181	0.6953	0.7534	-0.326
Mof_C 	C 	0.1691	0.7326	0.7803	0.252
Mof_O 	O 	0.1706	0.6178	0.5912	-0.55
Mof_O 	O 	0.0901	0.6583	0.6249	-0.026
Mof_C 	C 	0.159	0.6632	0.5754	-0.329
Mof_C 	C 	0.1438	0.6705	0.5812	0.571
Mof_C 	C 	0.1756	0.6662	0.5244	-0.663
Mof_C 	C 	0.1596	0.681	0.531	-1.125
Mof_N 	N 	0.0819	0.5845	0.7058	0.171
Mof_C 	C 	0.0943	0.5783	0.7495	0.262
Mof_C 	C 	0.0647	0.566	0.7835	0.236
Mof_C 	C 	0.0193	0.5591	0.7759	0.07
Mof_C 	C 	0.0066	0.566	0.7317	-0.22
Mof_C 	C 	0.037	0.578	0.6983	-0.215
Mof_N 	N 	0.0706	0.5809	0.7007	-0.595
Mof_C 	C 	0.0794	0.574	0.7452	-0.771
Mof_C 	C 	0.0468	0.5641	0.7771	0.069
Mof_C 	C 	0.0016	0.5603	0.7662	-0.067
Mof_C 	C 	0.9926	0.5674	0.7211	0.154
Mof_C 	C 	0.0261	0.5767	0.69	0.405
Mof_H 	H 	0.141	0.75	0.772	-0.02
Mof_H 	H 	0.175	0.686	0.594	0.353
Mof_H 	H 	0.159	0.692	0.602	-0.437
Mof_H 	H 	0.209	0.662	0.523	-0.25
Mof_H 	H 	0.167	0.696	0.512	0.44
Mof_H 	H 	0.161	0.642	0.506	0.063
Mof_H 	H 	0.193	0.678	0.529	0.856
Mof_H 	H 	0.15	0.712	0.523	0.101
Mof_H 	H 	0.145	0.659	0.51	0.496
Mof_H 	H 	0.127	0.583	0.758	-0.599
Mof_H 	H 	0.077	0.562	0.815	0.057
Mof_H 	H 	0.998	0.55	0.8	0.001
Mof_H 	H 	0.974	0.562	0.723	0.042
Mof_H 	H 	0.025	0.582	0.667	0.195
Mof_H 	H 	0.112	0.576	0.755	0.636
Mof_H 	H 	0.056	0.56	0.809	-0.137
Mof_H 	H 	0.978	0.553	0.789	0.057
Mof_H 	H 	0.961	0.566	0.71	-0.036
Mof_H 	H 	0.017	0.58	0.658	-0.346
Mof_Ni	Ni	0.5994	0.6492	0.1304	-0.376
Mof_Ni	Ni	0.5904	0.6734	0.1219	-0.846
Mof_Ni	Ni	0.5941	0.6731	0.1071	1.566
Mof_Ni	Ni	0.6301	0.6534	0.1178	0.606
Mof_Ni	Ni	0.613	0.6744	0.1473	0.855
Mof_Ni	Ni	0.6123	0.68	0.1272	-0.027
Mof_Ni	Ni	0.6061	0.6384	0.0966	0.257
Mof_O 	O 	0.6445	0.6898	0.1656	-0.337
Mof_O 	O 	0.6387	0.703	0.1577	-0.674
Mof_O 	O 	0.7042	0.7025	0.1188	-0.067
Mof_O 	O 	0.7097	0.691	0.1231	-0.277
Mof_C 	C 	0.6811	0.7131	0.1543	0.547
Mof_C 	C 	0.6953	0.7534	0.181	-0.326
Mof_C 	C 	0.7326	0.7803	0.1691	0.252
Mof_O 	O 	0.6178	0.5912	0.1706	-0.55
Mof_O 	O 	0.6583	0.6249	0.0901	-0.026
Mof_C 	C 	0.6632	0.5754	0.159	-0.329
Mof_C 	C 	0.6705	0.5812	0.1438	0.571
Mof_C 	C 	0.6662	0.5244	0.1756	-0.663
Mof_C 	C 	0.681	0.531	0.1596	-1.125
Mof_N 	N 	0.5845	0.7058	0.0819	0.171
Mof_C 	C 	0.5783	0.7495	0.0943	0.262
Mof_C 	C 	0.566	0.7835	0.0647	0.236
Mof_C 	C 	0.5591	0.7759	0.0193	0.07
Mof_C 	C 	0.566	0.7317	0.0066	-0.22
Mof_C 	C 	0.578	0.6983	0.037	-0.215
Mof_N 	N 	0.5809	0.7007	0.0706	-0.595
Mof_C 	C 	0.574	0.7452	0.0794	-0.771
Mof_C 	C 	0.5641	0.7771	0.0468	0.069
Mof_C 	C 	0.5603	0.7662	0.0016	-0.067
Mof_C 	C 	0.5674	0.7211	0.9926	0.154
Mof_C 	C 	0.5767	0.69	0.0261	0.405
Mof_H 	H 	0.75	0.772	0.141	-0.02
Mof_H 	H 	0.686	0.594	0.175	0.353
Mof_H 	H 	0.692	0.602	0.159	-0.437
Mof_H 	H 	0.662	0.523	0.209	-0.25
Mof_H 	H 	0.696	0.512	0.167	0.44
Mof_H 	H 	0.642	0.506	0.161	0.063
Mof_H 	H 	0.678	0.529	0.193	0.856
Mof_H 	H 	0.712	0.523	0.15	0.101
Mof_H 	H 	0.659	0.51	0.145	0.496
Mof_H 	H 	0.583	0.758	0.127	-0.599
Mof_H 	H 	0.562	0.815	0.077	0.057
Mof_H 	H 	0.55	0.8	0.998	0.001
Mof_H 	H 	0.562	0.723	0.974	0.042
Mof_H 	H 	0.582	0.667	0.025	0.195
Mof_H 	H 	0.576	0.755	0.112	0.636
Mof_H 	H 	0.56	0.809	0.056	-0.137
Mof_H 	H 	0.553	0.789	0.978	0.057
Mof_H 	H 	0.566	0.71	0.961	-0.036
Mof_H 	H 	0.58	0.658	0.017	-0.346
Mof_Ni	Ni	0.4006	0.1492	0.3696	-0.376
Mof_Ni	Ni	0.4096	0.1734	0.3781	-0.846
Mof_Ni	Ni	0.4059	0.1731	0.3929	1.566
Mof_Ni	Ni	0.3699	0.1534	0.3822	0.606
Mof_Ni	Ni	0.387	0.1744	0.3527	0.855
Mof_Ni	Ni	0.3877	0.18	0.3728	-0.027
Mof_Ni	Ni	0.3939	0.1384	0.4034	0.257
Mof_O 	O 	0.3555	0.1898	0.3344	-0.337
Mof_O 	O 	0.3613	0.203	0.3423	-0.673
Mof_O 	O 	0.2958	0.2025	0.3812	-0.067
Mof_O 	O 	0.2903	0.191	0.3769	-0.277
Mof_C 	C 	0.3189	0.2131	0.3457	0.547
Mof_C 	C 	0.3047	0.2534	0.319	-0.326
Mof_C 	C 	0.2674	0.2803	0.3309	0.252
Mof_O 	O 	0.3822	0.0912	0.3294	-0.55
Mof_O 	O 	0.3417	0.1249	0.4099	-0.026
Mof_C 	C 	0.3368	0.0754	0.341	-0.33
Mof_C 	C 	0.3295	0.0812	0.3562	0.571
Mof_C 	C 	0.3338	0.0244	0.3244	-0.663
Mof_C 	C 	0.319	0.031	0.3404	-1.124
Mof_N 	N 	0.4155	0.2058	0.4181	0.171
Mof_C 	C 	0.4217	0.2495	0.4057	0.262
Mof_C 	C 	0.434	0.2835	0.4353	0.236
Mof_C 	C 	0.4409	0.2759	0.4807	0.07
Mof_C 	C 	0.434	0.2317	0.4934	-0.22
Mof_C 	C 	0.422	0.1983	0.463	-0.215
Mof_N 	N 	0.4191	0.2007	0.4294	-0.595
Mof_C 	C 	0.426	0.2452	0.4206	-0.771
Mof_C 	C 	0.4359	0.2771	0.4532	0.068
Mof_C 	C 	0.4397	0.2662	0.4984	-0.067
Mof_C 	C 	0.4326	0.2211	0.5074	0.153
Mof_C 	C 	0.4233	0.19	0.4739	0.405
Mof_H 	H 	0.25	0.272	0.359	-0.02
Mof_H 	H 	0.314	0.094	0.325	0.353
Mof_H 	H 	0.308	0.102	0.341	-0.437
Mof_H 	H 	0.338	0.023	0.291	-0.249
Mof_H 	H 	0.304	0.012	0.333	0.439
Mof_H 	H 	0.358	0.006	0.339	0.063
Mof_H 	H 	0.322	0.029	0.307	0.856
Mof_H 	H 	0.288	0.023	0.35	0.101
Mof_H 	H 	0.341	0.01	0.355	0.496
Mof_H 	H 	0.417	0.258	0.373	-0.599
Mof_H 	H 	0.438	0.315	0.423	0.057
Mof_H 	H 	0.45	0.3	0.502	0.001
Mof_H 	H 	0.438	0.223	0.526	0.045
Mof_H 	H 	0.418	0.167	0.475	0.195
Mof_H 	H 	0.424	0.255	0.388	0.635
Mof_H 	H 	0.44	0.309	0.444	-0.138
Mof_H 	H 	0.447	0.289	0.522	0.057
Mof_H 	H 	0.434	0.21	0.539	-0.037
Mof_H 	H 	0.42	0.158	0.483	-0.346
Mof_Ni	Ni	0.9006	0.3508	0.6304	-0.376
Mof_Ni	Ni	0.9096	0.3266	0.6219	-0.847
Mof_Ni	Ni	0.9059	0.3269	0.6071	1.567
Mof_Ni	Ni	0.8699	0.3466	0.6178	0.606
Mof_Ni	Ni	0.887	0.3256	0.6473	0.855
Mof_Ni	Ni	0.8877	0.32	0.6272	-0.027
Mof_Ni	Ni	0.8939	0.3616	0.5966	0.257
Mof_O 	O 	0.8555	0.3102	0.6656	-0.337
Mof_O 	O 	0.8613	0.297	0.6577	-0.673
Mof_O 	O 	0.7958	0.2975	0.6188	-0.067
Mof_O 	O 	0.7903	0.309	0.6231	-0.277
Mof_C 	C 	0.8189	0.2869	0.6543	0.547
Mof_C 	C 	0.8047	0.2466	0.681	-0.326
Mof_C 	C 	0.7674	0.2197	0.6691	0.252
Mof_O 	O 	0.8822	0.4088	0.6706	-0.55
Mof_O 	O 	0.8417	0.3751	0.5901	-0.026
Mof_C 	C 	0.8368	0.4246	0.659	-0.329
Mof_C 	C 	0.8295	0.4188	0.6438	0.571
Mof_C 	C 	0.8338	0.4756	0.6756	-0.663
Mof_C 	C 	0.819	0.469	0.6596	-1.124
Mof_N 	N 	0.9155	0.2942	0.5819	0.171
Mof_C 	C 	0.9217	0.2505	0.5943	0.262
Mof_C 	C 	0.934	0.2165	0.5647	0.236
Mof_C 	C 	0.9409	0.2241	0.5193	0.07
Mof_C 	C 	0.934	0.2683	0.5066	-0.221
Mof_C 	C 	0.922	0.3017	0.537	-0.215
Mof_N 	N 	0.9191	0.2993	0.5706	-0.595
Mof_C 	C 	0.926	0.2548	0.5794	-0.771
Mof_C 	C 	0.9359	0.2229	0.5468	0.068
Mof_C 	C 	0.9397	0.2338	0.5016	-0.067
Mof_C 	C 	0.9326	0.2789	0.4926	0.153
Mof_C 	C 	0.9233	0.31	0.5261	0.405
Mof_H 	H 	0.75	0.228	0.641	-0.02
Mof_H 	H 	0.814	0.406	0.675	0.353
Mof_H 	H 	0.808	0.398	0.659	-0.437
Mof_H 	H 	0.838	0.477	0.709	-0.249
Mof_H 	H 	0.804	0.488	0.667	0.439
Mof_H 	H 	0.858	0.494	0.661	0.063
Mof_H 	H 	0.822	0.471	0.693	0.856
Mof_H 	H 	0.788	0.477	0.65	0.101
Mof_H 	H 	0.841	0.49	0.645	0.496
Mof_H 	H 	0.917	0.242	0.627	-0.599
Mof_H 	H 	0.938	0.185	0.577	0.057
Mof_H 	H 	0.95	0.2	0.498	0.001
Mof_H 	H 	0.938	0.277	0.474	0.045
Mof_H 	H 	0.918	0.333	0.525	0.195
Mof_H 	H 	0.924	0.245	0.612	0.636
Mof_H 	H 	0.94	0.191	0.556	-0.138
Mof_H 	H 	0.947	0.211	0.478	0.057
Mof_H 	H 	0.934	0.29	0.461	-0.038
Mof_H 	H 	0.92	0.342	0.517	-0.346
Mof_Ni	Ni	0.0994	0.8508	0.8696	-0.376
Mof_Ni	Ni	0.0904	0.8266	0.8781	-0.846
Mof_Ni	Ni	0.0941	0.8269	0.8929	1.566
Mof_Ni	Ni	0.1301	0.8466	0.8822	0.606
Mof_Ni	Ni	0.113	0.8256	0.8527	0.855
Mof_Ni	Ni	0.1123	0.82	0.8728	-0.027
Mof_Ni	Ni	0.1061	0.8616	0.9034	0.257
Mof_O 	O 	0.1445	0.8102	0.8344	-0.337
Mof_O 	O 	0.1387	0.797	0.8423	-0.674
Mof_O 	O 	0.2042	0.7975	0.8812	-0.067
Mof_O 	O 	0.2097	0.809	0.8769	-0.277
Mof_C 	C 	0.1811	0.7869	0.8457	0.547
Mof_C 	C 	0.1953	0.7466	0.819	-0.326
Mof_C 	C 	0.2326	0.7197	0.8309	0.252
Mof_O 	O 	0.1178	0.9088	0.8294	-0.549
Mof_O 	O 	0.1583	0.8751	0.9099	-0.026
Mof_C 	C 	0.1632	0.9246	0.841	-0.33
Mof_C 	C 	0.1705	0.9188	0.8562	0.569
Mof_C 	C 	0.1662	0.9756	0.8244	-0.66
Mof_C 	C 	0.181	0.969	0.8404	-1.12
Mof_N 	N 	0.0845	0.7942	0.9181	0.171
Mof_C 	C 	0.0783	0.7505	0.9057	0.262
Mof_C 	C 	0.066	0.7165	0.9353	0.237
Mof_C 	C 	0.0591	0.7241	0.9807	0.069
Mof_C 	C 	0.066	0.7683	0.9934	-0.221
Mof_C 	C 	0.078	0.8017	0.963	-0.214
Mof_N 	N 	0.0809	0.7993	0.9294	-0.595
Mof_C 	C 	0.074	0.7548	0.9206	-0.771
Mof_C 	C 	0.0641	0.7229	0.9532	0.068
Mof_C 	C 	0.0603	0.7338	0.9984	-0.067
Mof_C 	C 	0.0674	0.7789	0.0074	0.152
Mof_C 	C 	0.0767	0.81	0.9739	0.405
Mof_H 	H 	0.25	0.728	0.859	-0.02
Mof_H 	H 	0.186	0.906	0.825	0.353
Mof_H 	H 	0.192	0.898	0.841	-0.437
Mof_H 	H 	0.162	0.977	0.791	-0.249
Mof_H 	H 	0.196	0.988	0.833	0.438
Mof_H 	H 	0.142	0.994	0.839	0.063
Mof_H 	H 	0.178	0.971	0.807	0.853
Mof_H 	H 	0.212	0.977	0.85	0.1
Mof_H 	H 	0.159	0.99	0.855	0.494
Mof_H 	H 	0.083	0.742	0.873	-0.598
Mof_H 	H 	0.062	0.685	0.923	0.057
Mof_H 	H 	0.05	0.7	0.002	0.002
Mof_H 	H 	0.062	0.777	0.026	0.047
Mof_H 	H 	0.082	0.833	0.975	0.195
Mof_H 	H 	0.076	0.745	0.888	0.635
Mof_H 	H 	0.06	0.691	0.944	-0.138
Mof_H 	H 	0.053	0.711	0.022	0.057
Mof_H 	H 	0.066	0.79	0.039	-0.039
Mof_H 	H 	0.08	0.842	0.983	-0.346
Mof_Ni	Ni	0.1492	0.3696	0.4006	-0.376
Mof_Ni	Ni	0.1734	0.3781	0.4096	-0.846
Mof_Ni	Ni	0.1731	0.3929	0.4059	1.566
Mof_Ni	Ni	0.1534	0.3822	0.3699	0.606
Mof_Ni	Ni	0.1744	0.3527	0.387	0.855
Mof_Ni	Ni	0.18	0.3728	0.3877	-0.027
Mof_Ni	Ni	0.1384	0.4034	0.3939	0.257
Mof_O 	O 	0.1898	0.3344	0.3555	-0.337
Mof_O 	O 	0.203	0.3423	0.3613	-0.673
Mof_O 	O 	0.2025	0.3812	0.2958	-0.067
Mof_O 	O 	0.191	0.3769	0.2903	-0.277
Mof_C 	C 	0.2131	0.3457	0.3189	0.547
Mof_C 	C 	0.2534	0.319	0.3047	-0.326
Mof_C 	C 	0.2803	0.3309	0.2674	0.252
Mof_O 	O 	0.0912	0.3294	0.3822	-0.55
Mof_O 	O 	0.1249	0.4099	0.3417	-0.026
Mof_C 	C 	0.0754	0.341	0.3368	-0.33
Mof_C 	C 	0.0812	0.3562	0.3295	0.571
Mof_C 	C 	0.0244	0.3244	0.3338	-0.663
Mof_C 	C 	0.031	0.3404	0.319	-1.124
Mof_N 	N 	0.2058	0.4181	0.4155	0.171
Mof_C 	C 	0.2495	0.4057	0.4217	0.262
Mof_C 	C 	0.2835	0.4353	0.434	0.236
Mof_C 	C 	0.2759	0.4807	0.4409	0.07
Mof_C 	C 	0.2317	0.4934	0.434	-0.22
Mof_C 	C 	0.1983	0.463	0.422	-0.215
Mof_N 	N 	0.2007	0.4294	0.4191	-0.595
Mof_C 	C 	0.2452	0.4206	0.426	-0.771
Mof_C 	C 	0.2771	0.4532	0.4359	0.068
Mof_C 	C 	0.2662	0.4984	0.4397	-0.067
Mof_C 	C 	0.2211	0.5074	0.4326	0.153
Mof_C 	C 	0.19	0.4739	0.4233	0.405
Mof_H 	H 	0.272	0.359	0.25	-0.02
Mof_H 	H 	0.094	0.325	0.314	0.353
Mof_H 	H 	0.102	0.341	0.308	-0.437
Mof_H 	H 	0.023	0.291	0.338	-0.249
Mof_H 	H 	0.012	0.333	0.304	0.439
Mof_H 	H 	0.006	0.339	0.358	0.063
Mof_H 	H 	0.029	0.307	0.322	0.856
Mof_H 	H 	0.023	0.35	0.288	0.101
Mof_H 	H 	0.01	0.355	0.341	0.496
Mof_H 	H 	0.258	0.373	0.417	-0.599
Mof_H 	H 	0.315	0.423	0.438	0.057
Mof_H 	H 	0.3	0.502	0.45	0.001
Mof_H 	H 	0.223	0.526	0.438	0.045
Mof_H 	H 	0.167	0.475	0.418	0.195
Mof_H 	H 	0.255	0.388	0.424	0.635
Mof_H 	H 	0.309	0.444	0.44	-0.138
Mof_H 	H 	0.289	0.522	0.447	0.057
Mof_H 	H 	0.21	0.539	0.434	-0.037
Mof_H 	H 	0.158	0.483	0.42	-0.346
Mof_Ni	Ni	0.6492	0.1304	0.5994	-0.376
Mof_Ni	Ni	0.6734	0.1219	0.5904	-0.846
Mof_Ni	Ni	0.6731	0.1071	0.5941	1.566
Mof_Ni	Ni	0.6534	0.1178	0.6301	0.606
Mof_Ni	Ni	0.6744	0.1473	0.613	0.855
Mof_Ni	Ni	0.68	0.1272	0.6123	-0.027
Mof_Ni	Ni	0.6384	0.0966	0.6061	0.257
Mof_O 	O 	0.6898	0.1656	0.6445	-0.337
Mof_O 	O 	0.703	0.1577	0.6387	-0.674
Mof_O 	O 	0.7025	0.1188	0.7042	-0.067
Mof_O 	O 	0.691	0.1231	0.7097	-0.277
Mof_C 	C 	0.7131	0.1543	0.6811	0.547
Mof_C 	C 	0.7534	0.181	0.6953	-0.326
Mof_C 	C 	0.7803	0.1691	0.7326	0.252
Mof_O 	O 	0.5912	0.1706	0.6178	-0.55
Mof_O 	O 	0.6249	0.0901	0.6583	-0.026
Mof_C 	C 	0.5754	0.159	0.6632	-0.329
Mof_C 	C 	0.5812	0.1438	0.6705	0.571
Mof_C 	C 	0.5244	0.1756	0.6662	-0.663
Mof_C 	C 	0.531	0.1596	0.681	-1.125
Mof_N 	N 	0.7058	0.0819	0.5845	0.171
Mof_C 	C 	0.7495	0.0943	0.5783	0.262
Mof_C 	C 	0.7835	0.0647	0.566	0.236
Mof_C 	C 	0.7759	0.0193	0.5591	0.07
Mof_C 	C 	0.7317	0.0066	0.566	-0.22
Mof_C 	C 	0.6983	0.037	0.578	-0.215
Mof_N 	N 	0.7007	0.0706	0.5809	-0.595
Mof_C 	C 	0.7452	0.0794	0.574	-0.771
Mof_C 	C 	0.7771	0.0468	0.5641	0.069
Mof_C 	C 	0.7662	0.0016	0.5603	-0.067
Mof_C 	C 	0.7211	0.9926	0.5674	0.154
Mof_C 	C 	0.69	0.0261	0.5767	0.405
Mof_H 	H 	0.772	0.141	0.75	-0.02
Mof_H 	H 	0.594	0.175	0.686	0.353
Mof_H 	H 	0.602	0.159	0.692	-0.437
Mof_H 	H 	0.523	0.209	0.662	-0.25
Mof_H 	H 	0.512	0.167	0.696	0.44
Mof_H 	H 	0.506	0.161	0.642	0.063
Mof_H 	H 	0.529	0.193	0.678	0.856
Mof_H 	H 	0.523	0.15	0.712	0.101
Mof_H 	H 	0.51	0.145	0.659	0.496
Mof_H 	H 	0.758	0.127	0.583	-0.599
Mof_H 	H 	0.815	0.077	0.562	0.057
Mof_H 	H 	0.8	0.998	0.55	0.001
Mof_H 	H 	0.723	0.974	0.562	0.042
Mof_H 	H 	0.667	0.025	0.582	0.195
Mof_H 	H 	0.755	0.112	0.576	0.636
Mof_H 	H 	0.809	0.056	0.56	-0.137
Mof_H 	H 	0.789	0.978	0.553	0.057
Mof_H 	H 	0.71	0.961	0.566	-0.036
Mof_H 	H 	0.658	0.017	0.58	-0.346
Mof_Ni	Ni	0.8508	0.8696	0.0994	-0.376
Mof_Ni	Ni	0.8266	0.8781	0.0904	-0.846
Mof_Ni	Ni	0.8269	0.8929	0.0941	1.566
Mof_Ni	Ni	0.8466	0.8822	0.1301	0.606
Mof_Ni	Ni	0.8256	0.8527	0.113	0.855
Mof_Ni	Ni	0.82	0.8728	0.1123	-0.027
Mof_Ni	Ni	0.8616	0.9034	0.1061	0.257
Mof_O 	O 	0.8102	0.8344	0.1445	-0.337
Mof_O 	O 	0.797	0.8423	0.1387	-0.674
Mof_O 	O 	0.7975	0.8812	0.2042	-0.067
Mof_O 	O 	0.809	0.8769	0.2097	-0.277
Mof_C 	C 	0.7869	0.8457	0.1811	0.547
Mof_C 	C 	0.7466	0.819	0.1953	-0.326
Mof_C 	C 	0.7197	0.8309	0.2326	0.252
Mof_O 	O 	0.9088	0.8294	0.1178	-0.549
Mof_O 	O 	0.8751	0.9099	0.1583	-0.026
Mof_C 	C 	0.9246	0.841	0.1632	-0.33
Mof_C 	C 	0.9188	0.8562	0.1705	0.569
Mof_C 	C 	0.9756	0.8244	0.1662	-0.66
Mof_C 	C 	0.969	0.8404	0.181	-1.12
Mof_N 	N 	0.7942	0.9181	0.0845	0.171
Mof_C 	C 	0.7505	0.9057	0.0783	0.262
Mof_C 	C 	0.7165	0.9353	0.066	0.237
Mof_C 	C 	0.7241	0.9807	0.0591	0.069
Mof_C 	C 	0.7683	0.9934	0.066	-0.221
Mof_C 	C 	0.8017	0.963	0.078	-0.214
Mof_N 	N 	0.7993	0.9294	0.0809	-0.595
Mof_C 	C 	0.7548	0.9206	0.074	-0.771
Mof_C 	C 	0.7229	0.9532	0.0641	0.068
Mof_C 	C 	0.7338	0.9984	0.0603	-0.067
Mof_C 	C 	0.7789	0.0074	0.0674	0.152
Mof_C 	C 	0.81	0.9739	0.0767	0.405
Mof_H 	H 	0.728	0.859	0.25	-0.02
Mof_H 	H 	0.906	0.825	0.186	0.353
Mof_H 	H 	0.898	0.841	0.192	-0.437
Mof_H 	H 	0.977	0.791	0.162	-0.249
Mof_H 	H 	0.988	0.833	0.196	0.438
Mof_H 	H 	0.994	0.839	0.142	0.063
Mof_H 	H 	0.971	0.807	0.178	0.853
Mof_H 	H 	0.977	0.85	0.212	0.1
Mof_H 	H 	0.99	0.855	0.159	0.494
Mof_H 	H 	0.742	0.873	0.083	-0.598
Mof_H 	H 	0.685	0.923	0.062	0.057
Mof_H 	H 	0.7	0.002	0.05	0.002
Mof_H 	H 	0.777	0.026	0.062	0.047
Mof_H 	H 	0.833	0.975	0.082	0.195
Mof_H 	H 	0.745	0.888	0.076	0.635
Mof_H 	H 	0.691	0.944	0.06	-0.138
Mof_H 	H 	0.711	0.022	0.053	0.057
Mof_H 	H 	0.79	0.039	0.066	-0.039
Mof_H 	H 	0.842	0.983	0.08	-0.346
Mof_Ni	Ni	0.3508	0.6304	0.9006	-0.376
Mof_Ni	Ni	0.3266	0.6219	0.9096	-0.847
Mof_Ni	Ni	0.3269	0.6071	0.9059	1.567
Mof_Ni	Ni	0.3466	0.6178	0.8699	0.606
Mof_Ni	Ni	0.3256	0.6473	0.887	0.855
Mof_Ni	Ni	0.32	0.6272	0.8877	-0.027
Mof_Ni	Ni	0.3616	0.5966	0.8939	0.257
Mof_O 	O 	0.3102	0.6656	0.8555	-0.337
Mof_O 	O 	0.297	0.6577	0.8613	-0.673
Mof_O 	O 	0.2975	0.6188	0.7958	-0.067
Mof_O 	O 	0.309	0.6231	0.7903	-0.277
Mof_C 	C 	0.2869	0.6543	0.8189	0.547
Mof_C 	C 	0.2466	0.681	0.8047	-0.326
Mof_C 	C 	0.2197	0.6691	0.7674	0.252
Mof_O 	O 	0.4088	0.6706	0.8822	-0.55
Mof_O 	O 	0.3751	0.5901	0.8417	-0.026
Mof_C 	C 	0.4246	0.659	0.8368	-0.329
Mof_C 	C 	0.4188	0.6438	0.8295	0.571
Mof_C 	C 	0.4756	0.6756	0.8338	-0.663
Mof_C 	C 	0.469	0.6596	0.819	-1.124
Mof_N 	N 	0.2942	0.5819	0.9155	0.171
Mof_C 	C 	0.2505	0.5943	0.9217	0.262
Mof_C 	C 	0.2165	0.5647	0.934	0.236
Mof_C 	C 	0.2241	0.5193	0.9409	0.07
Mof_C 	C 	0.2683	0.5066	0.934	-0.221
Mof_C 	C 	0.3017	0.537	0.922	-0.215
Mof_N 	N 	0.2993	0.5706	0.9191	-0.595
Mof_C 	C 	0.2548	0.5794	0.926	-0.771
Mof_C 	C 	0.2229	0.5468	0.9359	0.068
Mof_C 	C 	0.2338	0.5016	0.9397	-0.067
Mof_C 	C 	0.2789	0.4926	0.9326	0.153
Mof_C 	C 	0.31	0.5261	0.9233	0.405
Mof_H 	H 	0.228	0.641	0.75	-0.02
Mof_H 	H 	0.406	0.675	0.814	0.353
Mof_H 	H 	0.398	0.659	0.808	-0.437
Mof_H 	H 	0.477	0.709	0.838	-0.249
Mof_H 	H 	0.488	0.667	0.804	0.439
Mof_H 	H 	0.494	0.661	0.858	0.063
Mof_H 	H 	0.471	0.693	0.822	0.856
Mof_H 	H 	0.477	0.65	0.788	0.101
Mof_H 	H 	0.49	0.645	0.841	0.496
Mof_H 	H 	0.242	0.627	0.917	-0.599
Mof_H 	H 	0.185	0.577	0.938	0.057
Mof_H 	H 	0.2	0.498	0.95	0.001
Mof_H 	H 	0.277	0.474	0.938	0.045
Mof_H 	H 	0.333	0.525	0.918	0.195
Mof_H 	H 	0.245	0.612	0.924	0.636
Mof_H 	H 	0.191	0.556	0.94	-0.138
Mof_H 	H 	0.211	0.478	0.947	0.057
Mof_H 	H 	0.29	0.461	0.934	-0.038
Mof_H 	H 	0.342	0.517	0.92	-0.346
Mof_Ni	Ni	0.8494	0.1196	0.3992	-0.376
Mof_Ni	Ni	0.8404	0.1281	0.4234	-0.846
Mof_Ni	Ni	0.8441	0.1429	0.4231	1.566
Mof_Ni	Ni	0.8801	0.1322	0.4034	0.606
Mof_Ni	Ni	0.863	0.1027	0.4244	0.855
Mof_Ni	Ni	0.8623	0.1228	0.43	-0.027
Mof_Ni	Ni	0.8561	0.1534	0.3884	0.257
Mof_O 	O 	0.8945	0.0844	0.4398	-0.337
Mof_O 	O 	0.8887	0.0923	0.453	-0.674
Mof_O 	O 	0.9542	0.1312	0.4525	-0.067
Mof_O 	O 	0.9597	0.1269	0.441	-0.277
Mof_C 	C 	0.9311	0.0957	0.4631	0.547
Mof_C 	C 	0.9453	0.069	0.5034	-0.326
Mof_C 	C 	0.9826	0.0809	0.5303	0.251
Mof_O 	O 	0.8678	0.0794	0.3412	-0.55
Mof_O 	O 	0.9083	0.1599	0.3749	-0.026
Mof_C 	C 	0.9132	0.091	0.3254	-0.329
Mof_C 	C 	0.9205	0.1062	0.3312	0.571
Mof_C 	C 	0.9162	0.0744	0.2744	-0.663
Mof_C 	C 	0.931	0.0904	0.281	-1.125
Mof_N 	N 	0.8345	0.1681	0.4558	0.171
Mof_C 	C 	0.8283	0.1557	0.4995	0.262
Mof_C 	C 	0.816	0.1853	0.5335	0.236
Mof_C 	C 	0.8091	0.2307	0.5259	0.07
Mof_C 	C 	0.816	0.2434	0.4817	-0.22
Mof_C 	C 	0.828	0.213	0.4483	-0.215
Mof_N 	N 	0.8309	0.1794	0.4507	-0.595
Mof_C 	C 	0.824	0.1706	0.4952	-0.771
Mof_C 	C 	0.8141	0.2032	0.5271	0.068
Mof_C 	C 	0.8103	0.2484	0.5162	-0.067
Mof_C 	C 	0.8174	0.2574	0.4711	0.153
Mof_C 	C 	0.8267	0.2239	0.44	0.405
Mof_H 	H 	-2.42452e-33	0.109	0.522	-0.02
Mof_H 	H 	0.936	0.075	0.344	0.353
Mof_H 	H 	0.942	0.091	0.352	-0.437
Mof_H 	H 	0.912	0.041	0.273	-0.25
Mof_H 	H 	0.946	0.083	0.262	0.44
Mof_H 	H 	0.892	0.089	0.256	0.063
Mof_H 	H 	0.928	0.057	0.279	0.856
Mof_H 	H 	0.962	0.1	0.273	0.1
Mof_H 	H 	0.909	0.105	0.26	0.496
Mof_H 	H 	0.833	0.123	0.508	-0.599
Mof_H 	H 	0.812	0.173	0.565	0.057
Mof_H 	H 	0.8	0.252	0.55	0.001
Mof_H 	H 	0.812	0.276	0.473	0.045
Mof_H 	H 	0.832	0.225	0.417	0.195
Mof_H 	H 	0.826	0.138	0.505	0.635
Mof_H 	H 	0.81	0.194	0.559	-0.138
Mof_H 	H 	0.803	0.272	0.539	0.057
Mof_H 	H 	0.816	0.289	0.46	-0.037
Mof_H 	H 	0.83	0.233	0.408	-0.346
Mof_Ni	Ni	0.6506	0.8804	0.8992	-0.376
Mof_Ni	Ni	0.6596	0.8719	0.9234	-0.847
Mof_Ni	Ni	0.6559	0.8571	0.9231	1.567
Mof_Ni	Ni	0.6199	0.8678	0.9034	0.606
Mof_Ni	Ni	0.637	0.8973	0.9244	0.855
Mof_Ni	Ni	0.6377	0.8772	0.93	-0.028
Mof_Ni	Ni	0.6439	0.8466	0.8884	0.257
Mof_O 	O 	0.6055	0.9156	0.9398	-0.337
Mof_O 	O 	0.6113	0.9077	0.953	-0.673
Mof_O 	O 	0.5458	0.8688	0.9525	-0.067
Mof_O 	O 	0.5403	0.8731	0.941	-0.277
Mof_C 	C 	0.5689	0.9043	0.9631	0.546
Mof_C 	C 	0.5547	0.931	0.0034	-0.325
Mof_C 	C 	0.5174	0.9191	0.0303	0.251
Mof_O 	O 	0.6322	0.9206	0.8412	-0.55
Mof_O 	O 	0.5917	0.8401	0.8749	-0.026
Mof_C 	C 	0.5868	0.909	0.8254	-0.329
Mof_C 	C 	0.5795	0.8938	0.8312	0.571
Mof_C 	C 	0.5838	0.9256	0.7744	-0.663
Mof_C 	C 	0.569	0.9096	0.781	-1.125
Mof_N 	N 	0.6655	0.8319	0.9558	0.17
Mof_C 	C 	0.6717	0.8443	0.9995	0.262
Mof_C 	C 	0.684	0.8147	0.0335	0.234
Mof_C 	C 	0.6909	0.7693	0.0259	0.072
Mof_C 	C 	0.684	0.7566	0.9817	-0.224
Mof_C 	C 	0.672	0.787	0.9483	-0.214
Mof_N 	N 	0.6691	0.8206	0.9507	-0.596
Mof_C 	C 	0.676	0.8294	0.9952	-0.769
Mof_C 	C 	0.6859	0.7968	0.0271	0.068
Mof_C 	C 	0.6897	0.7516	0.0162	-0.066
Mof_C 	C 	0.6826	0.7426	0.9711	0.152
Mof_C 	C 	0.6733	0.7761	0.94	0.406
Mof_H 	H 	0.5	0.891	0.022	-0.02
Mof_H 	H 	0.564	0.925	0.844	0.353
Mof_H 	H 	0.558	0.909	0.852	-0.437
Mof_H 	H 	0.588	0.959	0.773	-0.25
Mof_H 	H 	0.554	0.917	0.762	0.44
Mof_H 	H 	0.608	0.911	0.756	0.063
Mof_H 	H 	0.572	0.943	0.779	0.856
Mof_H 	H 	0.538	0.9	0.773	0.101
Mof_H 	H 	0.591	0.895	0.76	0.496
Mof_H 	H 	0.667	0.877	0.008	-0.596
Mof_H 	H 	0.688	0.827	0.065	0.058
Mof_H 	H 	0.7	0.748	0.05	0
Mof_H 	H 	0.688	0.724	0.973	0.05
Mof_H 	H 	0.668	0.775	0.917	0.196
Mof_H 	H 	0.674	0.862	0.005	0.632
Mof_H 	H 	0.69	0.806	0.059	-0.137
Mof_H 	H 	0.697	0.728	0.039	0.057
Mof_H 	H 	0.684	0.711	0.96	-0.041
Mof_H 	H 	0.67	0.767	0.908	-0.348
Mof_Ni	Ni	0.1506	0.6196	0.1008	-0.376
Mof_Ni	Ni	0.1596	0.6281	0.0766	-0.846
Mof_Ni	Ni	0.1559	0.6429	0.0769	1.566
Mof_Ni	Ni	0.1199	0.6322	0.0966	0.606
Mof_Ni	Ni	0.137	0.6027	0.0756	0.855
Mof_Ni	Ni	0.1377	0.6228	0.07	-0.027
Mof_Ni	Ni	0.1439	0.6534	0.1116	0.257
Mof_O 	O 	0.1055	0.5844	0.0602	-0.337
Mof_O 	O 	0.1113	0.5923	0.047	-0.674
Mof_O 	O 	0.0458	0.6312	0.0475	-0.067
Mof_O 	O 	0.0403	0.6269	0.059	-0.277
Mof_C 	C 	0.0689	0.5957	0.0369	0.547
Mof_C 	C 	0.0547	0.569	0.9966	-0.326
Mof_C 	C 	0.0174	0.5809	0.9697	0.251
Mof_O 	O 	0.1322	0.5794	0.1588	-0.549
Mof_O 	O 	0.0917	0.6599	0.1251	-0.026
Mof_C 	C 	0.0868	0.591	0.1746	-0.33
Mof_C 	C 	0.0795	0.6062	0.1688	0.571
Mof_C 	C 	0.0838	0.5744	0.2256	-0.662
Mof_C 	C 	0.069	0.5904	0.219	-1.123
Mof_N 	N 	0.1655	0.6681	0.0442	0.171
Mof_C 	C 	0.1717	0.6557	0.0005	0.262
Mof_C 	C 	0.184	0.6853	0.9665	0.238
Mof_C 	C 	0.1909	0.7307	0.9741	0.068
Mof_C 	C 	0.184	0.7434	0.0183	-0.217
Mof_C 	C 	0.172	0.713	0.0517	-0.215
Mof_N 	N 	0.1691	0.6794	0.0493	-0.595
Mof_C 	C 	0.176	0.6706	0.0048	-0.772
Mof_C 	C 	0.1859	0.7032	0.9729	0.068
Mof_C 	C 	0.1897	0.7484	0.9838	-0.068
Mof_C 	C 	0.1826	0.7574	0.0289	0.154
Mof_C 	C 	0.1733	0.7239	0.06	0.405
Mof_H 	H 	1.24303e-32	0.609	0.978	-0.02
Mof_H 	H 	0.064	0.575	0.156	0.353
Mof_H 	H 	0.058	0.591	0.148	-0.437
Mof_H 	H 	0.088	0.541	0.227	-0.249
Mof_H 	H 	0.054	0.583	0.238	0.439
Mof_H 	H 	0.108	0.589	0.244	0.063
Mof_H 	H 	0.072	0.557	0.221	0.855
Mof_H 	H 	0.038	0.6	0.227	0.1
Mof_H 	H 	0.091	0.605	0.24	0.496
Mof_H 	H 	0.167	0.623	0.992	-0.601
Mof_H 	H 	0.188	0.673	0.935	0.057
Mof_H 	H 	0.2	0.752	0.95	0.002
Mof_H 	H 	0.188	0.776	0.027	0.04
Mof_H 	H 	0.168	0.725	0.083	0.194
Mof_H 	H 	0.174	0.638	0.995	0.638
Mof_H 	H 	0.19	0.694	0.941	-0.138
Mof_H 	H 	0.197	0.772	0.961	0.057
Mof_H 	H 	0.184	0.789	0.04	-0.034
Mof_H 	H 	0.17	0.733	0.092	-0.345
Mof_Ni	Ni	0.3494	0.3804	0.6008	-0.376
Mof_Ni	Ni	0.3404	0.3719	0.5766	-0.846
Mof_Ni	Ni	0.3441	0.3571	0.5769	1.566
Mof_Ni	Ni	0.3801	0.3678	0.5966	0.606
Mof_Ni	Ni	0.363	0.3973	0.5756	0.855
Mof_Ni	Ni	0.3623	0.3772	0.57	-0.027
Mof_Ni	Ni	0.3561	0.3466	0.6116	0.257
Mof_O 	O 	0.3945	0.4156	0.5602	-0.337
Mof_O 	O 	0.3887	0.4077	0.547	-0.673
Mof_O 	O 	0.4542	0.3688	0.5475	-0.067
Mof_O 	O 	0.4597	0.3731	0.559	-0.277
Mof_C 	C 	0.4311	0.4043	0.5369	0.547
Mof_C 	C 	0.4453	0.431	0.4966	-0.326
Mof_C 	C 	0.4826	0.4191	0.4697	0.252
Mof_O 	O 	0.3678	0.4206	0.6588	-0.549
Mof_O 	O 	0.4083	0.3401	0.6251	-0.026
Mof_C 	C 	0.4132	0.409	0.6746	-0.33
Mof_C 	C 	0.4205	0.3938	0.6688	0.571
Mof_C 	C 	0.4162	0.4256	0.7256	-0.662
Mof_C 	C 	0.431	0.4096	0.719	-1.123
Mof_N 	N 	0.3345	0.3319	0.5442	0.171
Mof_C 	C 	0.3283	0.3443	0.5005	0.262
Mof_C 	C 	0.316	0.3147	0.4665	0.236
Mof_C 	C 	0.3091	0.2693	0.4741	0.07
Mof_C 	C 	0.316	0.2566	0.5183	-0.22
Mof_C 	C 	0.328	0.287	0.5517	-0.215
Mof_N 	N 	0.3309	0.3206	0.5493	-0.595
Mof_C 	C 	0.324	0.3294	0.5048	-0.771
Mof_C 	C 	0.3141	0.2968	0.4729	0.068
Mof_C 	C 	0.3103	0.2516	0.4838	-0.067
Mof_C 	C 	0.3174	0.2426	0.5289	0.153
Mof_C 	C 	0.3267	0.2761	0.56	0.405
Mof_H 	H 	0.5	0.391	0.478	-0.02
Mof_H 	H 	0.436	0.425	0.656	0.353
Mof_H 	H 	0.442	0.409	0.648	-0.437
Mof_H 	H 	0.412	0.459	0.727	-0.249
Mof_H 	H 	0.446	0.417	0.738	0.439
Mof_H 	H 	0.392	0.411	0.744	0.063
Mof_H 	H 	0.428	0.443	0.721	0.855
Mof_H 	H 	0.462	0.4	0.727	0.1
Mof_H 	H 	0.409	0.395	0.74	0.496
Mof_H 	H 	0.333	0.377	0.492	-0.599
Mof_H 	H 	0.312	0.327	0.435	0.057
Mof_H 	H 	0.3	0.248	0.45	0.001
Mof_H 	H 	0.312	0.224	0.527	0.045
Mof_H 	H 	0.332	0.275	0.583	0.195
Mof_H 	H 	0.326	0.362	0.495	0.635
Mof_H 	H 	0.31	0.306	0.441	-0.138
Mof_H 	H 	0.303	0.228	0.461	0.057
Mof_H 	H 	0.316	0.211	0.54	-0.037
Mof_H 	H 	0.33	0.267	0.592	-0.346
Mof_Ni	Ni	0.3992	0.8494	0.1196	-0.376
Mof_Ni	Ni	0.4234	0.8404	0.1281	-0.846
Mof_Ni	Ni	0.4231	0.8441	0.1429	1.566
Mof_Ni	Ni	0.4034	0.8801	0.1322	0.606
Mof_Ni	Ni	0.4244	0.863	0.1027	0.855
Mof_Ni	Ni	0.43	0.8623	0.1228	-0.027
Mof_Ni	Ni	0.3884	0.8561	0.1534	0.257
Mof_O 	O 	0.4398	0.8945	0.0844	-0.337
Mof_O 	O 	0.453	0.8887	0.0923	-0.674
Mof_O 	O 	0.4525	0.9542	0.1312	-0.067
Mof_O 	O 	0.441	0.9597	0.1269	-0.277
Mof_C 	C 	0.4631	0.9311	0.0957	0.547
Mof_C 	C 	0.5034	0.9453	0.069	-0.326
Mof_C 	C 	0.5303	0.9826	0.0809	0.251
Mof_O 	O 	0.3412	0.8678	0.0794	-0.55
Mof_O 	O 	0.3749	0.9083	0.1599	-0.026
Mof_C 	C 	0.3254	0.9132	0.091	-0.329
Mof_C 	C 	0.3312	0.9205	0.1062	0.571
Mof_C 	C 	0.2744	0.9162	0.0744	-0.663
Mof_C 	C 	0.281	0.931	0.0904	-1.125
Mof_N 	N 	0.4558	0.8345	0.1681	0.171
Mof_C 	C 	0.4995	0.8283	0.1557	0.262
Mof_C 	C 	0.5335	0.816	0.1853	0.236
Mof_C 	C 	0.5259	0.8091	0.2307	0.07
Mof_C 	C 	0.4817	0.816	0.2434	-0.22
Mof_C 	C 	0.4483	0.828	0.213	-0.215
Mof_N 	N 	0.4507	0.8309	0.1794	-0.595
Mof_C 	C 	0.4952	0.824	0.1706	-0.771
Mof_C 	C 	0.5271	0.8141	0.2032	0.068
Mof_C 	C 	0.5162	0.8103	0.2484	-0.067
Mof_C 	C 	0.4711	0.8174	0.2574	0.153
Mof_C 	C 	0.44	0.8267	0.2239	0.405
Mof_H 	H 	0.522	1.09543e-33	0.109	-0.02
Mof_H 	H 	0.344	0.936	0.075	0.353
Mof_H 	H 	0.352	0.942	0.091	-0.437
Mof_H 	H 	0.273	0.912	0.041	-0.25
Mof_H 	H 	0.262	0.946	0.083	0.44
Mof_H 	H 	0.256	0.892	0.089	0.063
Mof_H 	H 	0.279	0.928	0.057	0.856
Mof_H 	H 	0.273	0.962	0.1	0.1
Mof_H 	H 	0.26	0.909	0.105	0.496
Mof_H 	H 	0.508	0.833	0.123	-0.599
Mof_H 	H 	0.565	0.812	0.173	0.057
Mof_H 	H 	0.55	0.8	0.252	0.001
Mof_H 	H 	0.473	0.812	0.276	0.045
Mof_H 	H 	0.417	0.832	0.225	0.195
Mof_H 	H 	0.505	0.826	0.138	0.635
Mof_H 	H 	0.559	0.81	0.194	-0.138
Mof_H 	H 	0.539	0.803	0.272	0.057
Mof_H 	H 	0.46	0.816	0.289	-0.037
Mof_H 	H 	0.408	0.83	0.233	-0.346
Mof_Ni	Ni	0.8992	0.6506	0.8804	-0.376
Mof_Ni	Ni	0.9234	0.6596	0.8719	-0.847
Mof_Ni	Ni	0.9231	0.6559	0.8571	1.567
Mof_Ni	Ni	0.9034	0.6199	0.8678	0.606
Mof_Ni	Ni	0.9244	0.637	0.8973	0.855
Mof_Ni	Ni	0.93	0.6377	0.8772	-0.028
Mof_Ni	Ni	0.8884	0.6439	0.8466	0.257
Mof_O 	O 	0.9398	0.6055	0.9156	-0.337
Mof_O 	O 	0.953	0.6113	0.9077	-0.673
Mof_O 	O 	0.9525	0.5458	0.8688	-0.067
Mof_O 	O 	0.941	0.5403	0.8731	-0.277
Mof_C 	C 	0.9631	0.5689	0.9043	0.546
Mof_C 	C 	0.0034	0.5547	0.931	-0.325
Mof_C 	C 	0.0303	0.5174	0.9191	0.251
Mof_O 	O 	0.8412	0.6322	0.9206	-0.55
Mof_O 	O 	0.8749	0.5917	0.8401	-0.026
Mof_C 	C 	0.8254	0.5868	0.909	-0.329
Mof_C 	C 	0.8312	0.5795	0.8938	0.571
Mof_C 	C 	0.7744	0.5838	0.9256	-0.663
Mof_C 	C 	0.781	0.569	0.9096	-1.125
Mof_N 	N 	0.9558	0.6655	0.8319	0.17
Mof_C 	C 	0.9995	0.6717	0.8443	0.262
Mof_C 	C 	0.0335	0.684	0.8147	0.234
Mof_C 	C 	0.0259	0.6909	0.7693	0.072
Mof_C 	C 	0.9817	0.684	0.7566	-0.224
Mof_C 	C 	0.9483	0.672	0.787	-0.214
Mof_N 	N 	0.9507	0.6691	0.8206	-0.596
Mof_C 	C 	0.9952	0.676	0.8294	-0.769
Mof_C 	C 	0.0271	0.6859	0.7968	0.068
Mof_C 	C 	0.0162	0.6897	0.7516	-0.066
Mof_C 	C 	0.9711	0.6826	0.7426	0.152
Mof_C 	C 	0.94	0.6733	0.7761	0.406
Mof_H 	H 	0.022	0.5	0.891	-0.02
Mof_H 	H 	0.844	0.564	0.925	0.353
Mof_H 	H 	0.852	0.558	0.909	-0.437
Mof_H 	H 	0.773	0.588	0.959	-0.25
Mof_H 	H 	0.762	0.554	0.917	0.44
Mof_H 	H 	0.756	0.608	0.911	0.063
Mof_H 	H 	0.779	0.572	0.943	0.856
Mof_H 	H 	0.773	0.538	0.9	0.101
Mof_H 	H 	0.76	0.591	0.895	0.496
Mof_H 	H 	0.008	0.667	0.877	-0.596
Mof_H 	H 	0.065	0.688	0.827	0.058
Mof_H 	H 	0.05	0.7	0.748	0
Mof_H 	H 	0.973	0.688	0.724	0.05
Mof_H 	H 	0.917	0.668	0.775	0.196
Mof_H 	H 	0.005	0.674	0.862	0.632
Mof_H 	H 	0.059	0.69	0.806	-0.137
Mof_H 	H 	0.039	0.697	0.728	0.057
Mof_H 	H 	0.96	0.684	0.711	-0.041
Mof_H 	H 	0.908	0.67	0.767	-0.348
Mof_Ni	Ni	0.1008	0.1506	0.6196	-0.376
Mof_Ni	Ni	0.0766	0.1596	0.6281	-0.846
Mof_Ni	Ni	0.0769	0.1559	0.6429	1.566
Mof_Ni	Ni	0.0966	0.1199	0.6322	0.606
Mof_Ni	Ni	0.0756	0.137	0.6027	0.855
Mof_Ni	Ni	0.07	0.1377	0.6228	-0.027
Mof_Ni	Ni	0.1116	0.1439	0.6534	0.257
Mof_O 	O 	0.0602	0.1055	0.5844	-0.337
Mof_O 	O 	0.047	0.1113	0.5923	-0.674
Mof_O 	O 	0.0475	0.0458	0.6312	-0.067
Mof_O 	O 	0.059	0.0403	0.6269	-0.277
Mof_C 	C 	0.0369	0.0689	0.5957	0.547
Mof_C 	C 	0.9966	0.0547	0.569	-0.326
Mof_C 	C 	0.9697	0.0174	0.5809	0.251
Mof_O 	O 	0.1588	0.1322	0.5794	-0.549
Mof_O 	O 	0.1251	0.0917	0.6599	-0.026
Mof_C 	C 	0.1746	0.0868	0.591	-0.33
Mof_C 	C 	0.1688	0.0795	0.6062	0.571
Mof_C 	C 	0.2256	0.0838	0.5744	-0.662
Mof_C 	C 	0.219	0.069	0.5904	-1.123
Mof_N 	N 	0.0442	0.1655	0.6681	0.171
Mof_C 	C 	0.0005	0.1717	0.6557	0.262
Mof_C 	C 	0.9665	0.184	0.6853	0.238
Mof_C 	C 	0.9741	0.1909	0.7307	0.068
Mof_C 	C 	0.0183	0.184	0.7434	-0.217
Mof_C 	C 	0.0517	0.172	0.713	-0.215
Mof_N 	N 	0.0493	0.1691	0.6794	-0.595
Mof_C 	C 	0.0048	0.176	0.6706	-0.772
Mof_C 	C 	0.9729	0.1859	0.7032	0.068
Mof_C 	C 	0.9838	0.1897	0.7484	-0.068
Mof_C 	C 	0.0289	0.1826	0.7574	0.154
Mof_C 	C 	0.06	0.1733	0.7239	0.405
Mof_H 	H 	0.978	4.3817e-33	0.609	-0.02
Mof_H 	H 	0.156	0.064	0.575	0.353
Mof_H 	H 	0.148	0.058	0.591	-0.437
Mof_H 	H 	0.227	0.088	0.541	-0.249
Mof_H 	H 	0.238	0.054	0.583	0.439
Mof_H 	H 	0.244	0.108	0.589	0.063
Mof_H 	H 	0.221	0.072	0.557	0.855
Mof_H 	H 	0.227	0.038	0.6	0.1
Mof_H 	H 	0.24	0.091	0.605	0.496
Mof_H 	H 	0.992	0.167	0.623	-0.601
Mof_H 	H 	0.935	0.188	0.673	0.057
Mof_H 	H 	0.95	0.2	0.752	0.002
Mof_H 	H 	0.027	0.188	0.776	0.04
Mof_H 	H 	0.083	0.168	0.725	0.194
Mof_H 	H 	0.995	0.174	0.638	0.638
Mof_H 	H 	0.941	0.19	0.694	-0.138
Mof_H 	H 	0.961	0.197	0.772	0.057
Mof_H 	H 	0.04	0.184	0.789	-0.034
Mof_H 	H 	0.092	0.17	0.733	-0.345
Mof_Ni	Ni	0.6008	0.3494	0.3804	-0.376
Mof_Ni	Ni	0.5766	0.3404	0.3719	-0.846
Mof_Ni	Ni	0.5769	0.3441	0.3571	1.566
Mof_Ni	Ni	0.5966	0.3801	0.3678	0.606
Mof_Ni	Ni	0.5756	0.363	0.3973	0.855
Mof_Ni	Ni	0.57	0.3623	0.3772	-0.027
Mof_Ni	Ni	0.6116	0.3561	0.3466	0.257
Mof_O 	O 	0.5602	0.3945	0.4156	-0.337
Mof_O 	O 	0.547	0.3887	0.4077	-0.673
Mof_O 	O 	0.5475	0.4542	0.3688	-0.067
Mof_O 	O 	0.559	0.4597	0.3731	-0.277
Mof_C 	C 	0.5369	0.4311	0.4043	0.547
Mof_C 	C 	0.4966	0.4453	0.431	-0.326
Mof_C 	C 	0.4697	0.4826	0.4191	0.252
Mof_O 	O 	0.6588	0.3678	0.4206	-0.549
Mof_O 	O 	0.6251	0.4083	0.3401	-0.026
Mof_C 	C 	0.6746	0.4132	0.409	-0.33
Mof_C 	C 	0.6688	0.4205	0.3938	0.571
Mof_C 	C 	0.7256	0.4162	0.4256	-0.662
Mof_C 	C 	0.719	0.431	0.4096	-1.123
Mof_N 	N 	0.5442	0.3345	0.3319	0.171
Mof_C 	C 	0.5005	0.3283	0.3443	0.262
Mof_C 	C 	0.4665	0.316	0.3147	0.236
Mof_C 	C 	0.4741	0.3091	0.2693	0.07
Mof_C 	C 	0.5183	0.316	0.2566	-0.22
Mof_C 	C 	0.5517	0.328	0.287	-0.215
Mof_N 	N 	0.5493	0.3309	0.3206	-0.595
Mof_C 	C 	0.5048	0.324	0.3294	-0.771
Mof_C 	C 	0.4729	0.3141	0.2968	0.068
Mof_C 	C 	0.4838	0.3103	0.2516	-0.067
Mof_C 	C 	0.5289	0.3174	0.2426	0.153
Mof_C 	C 	0.56	0.3267	0.2761	0.405
Mof_H 	H 	0.478	0.5	0.391	-0.02
Mof_H 	H 	0.656	0.436	0.425	0.353
Mof_H 	H 	0.648	0.442	0.409	-0.437
Mof_H 	H 	0.727	0.412	0.459	-0.249
Mof_H 	H 	0.738	0.446	0.417	0.439
Mof_H 	H 	0.744	0.392	0.411	0.063
Mof_H 	H 	0.721	0.428	0.443	0.855
Mof_H 	H 	0.727	0.462	0.4	0.1
Mof_H 	H 	0.74	0.409	0.395	0.496
Mof_H 	H 	0.492	0.333	0.377	-0.599
Mof_H 	H 	0.435	0.312	0.327	0.057
Mof_H 	H 	0.45	0.3	0.248	0.001
Mof_H 	H 	0.527	0.312	0.224	0.045
Mof_H 	H 	0.583	0.332	0.275	0.195
Mof_H 	H 	0.495	0.326	0.362	0.635
Mof_H 	H 	0.441	0.31	0.306	-0.138
Mof_H 	H 	0.461	0.303	0.228	0.057
Mof_H 	H 	0.54	0.316	0.211	-0.037
Mof_H 	H 	0.592	0.33	0.267	-0.346
Mof_Ni	Ni	0.1196	0.3992	0.8494	-0.376
Mof_Ni	Ni	0.1281	0.4234	0.8404	-0.846
Mof_Ni	Ni	0.1429	0.4231	0.8441	1.566
Mof_Ni	Ni	0.1322	0.4034	0.8801	0.606
Mof_Ni	Ni	0.1027	0.4244	0.863	0.855
Mof_Ni	Ni	0.1228	0.43	0.8623	-0.027
Mof_Ni	Ni	0.1534	0.3884	0.8561	0.257
Mof_O 	O 	0.0844	0.4398	0.8945	-0.337
Mof_O 	O 	0.0923	0.453	0.8887	-0.674
Mof_O 	O 	0.1312	0.4525	0.9542	-0.067
Mof_O 	O 	0.1269	0.441	0.9597	-0.277
Mof_C 	C 	0.0957	0.4631	0.9311	0.547
Mof_C 	C 	0.069	0.5034	0.9453	-0.326
Mof_C 	C 	0.0809	0.5303	0.9826	0.251
Mof_O 	O 	0.0794	0.3412	0.8678	-0.55
Mof_O 	O 	0.1599	0.3749	0.9083	-0.026
Mof_C 	C 	0.091	0.3254	0.9132	-0.329
Mof_C 	C 	0.1062	0.3312	0.9205	0.571
Mof_C 	C 	0.0744	0.2744	0.9162	-0.663
Mof_C 	C 	0.0904	0.281	0.931	-1.125
Mof_N 	N 	0.1681	0.4558	0.8345	0.171
Mof_C 	C 	0.1557	0.4995	0.8283	0.262
Mof_C 	C 	0.1853	0.5335	0.816	0.236
Mof_C 	C 	0.2307	0.5259	0.8091	0.07
Mof_C 	C 	0.2434	0.4817	0.816	-0.22
Mof_C 	C 	0.213	0.4483	0.828	-0.215
Mof_N 	N 	0.1794	0.4507	0.8309	-0.595
Mof_C 	C 	0.1706	0.4952	0.824	-0.771
Mof_C 	C 	0.2032	0.5271	0.8141	0.068
Mof_C 	C 	0.2484	0.5162	0.8103	-0.067
Mof_C 	C 	0.2574	0.4711	0.8174	0.153
Mof_C 	C 	0.2239	0.44	0.8267	0.405
Mof_H 	H 	0.109	0.522	-0	-0.02
Mof_H 	H 	0.075	0.344	0.936	0.353
Mof_H 	H 	0.091	0.352	0.942	-0.437
Mof_H 	H 	0.041	0.273	0.912	-0.25
Mof_H 	H 	0.083	0.262	0.946	0.44
Mof_H 	H 	0.089	0.256	0.892	0.063
Mof_H 	H 	0.057	0.279	0.928	0.856
Mof_H 	H 	0.1	0.273	0.962	0.1
Mof_H 	H 	0.105	0.26	0.909	0.496
Mof_H 	H 	0.123	0.508	0.833	-0.599
Mof_H 	H 	0.173	0.565	0.812	0.057
Mof_H 	H 	0.252	0.55	0.8	0.001
Mof_H 	H 	0.276	0.473	0.812	0.045
Mof_H 	H 	0.225	0.417	0.832	0.195
Mof_H 	H 	0.138	0.505	0.826	0.635
Mof_H 	H 	0.194	0.559	0.81	-0.138
Mof_H 	H 	0.272	0.539	0.803	0.057
Mof_H 	H 	0.289	0.46	0.816	-0.037
Mof_H 	H 	0.233	0.408	0.83	-0.346
Mof_Ni	Ni	0.8804	0.8992	0.6506	-0.376
Mof_Ni	Ni	0.8719	0.9234	0.6596	-0.847
Mof_Ni	Ni	0.8571	0.9231	0.6559	1.567
Mof_Ni	Ni	0.8678	0.9034	0.6199	0.606
Mof_Ni	Ni	0.8973	0.9244	0.637	0.855
Mof_Ni	Ni	0.8772	0.93	0.6377	-0.028
Mof_Ni	Ni	0.8466	0.8884	0.6439	0.257
Mof_O 	O 	0.9156	0.9398	0.6055	-0.337
Mof_O 	O 	0.9077	0.953	0.6113	-0.673
Mof_O 	O 	0.8688	0.9525	0.5458	-0.067
Mof_O 	O 	0.8731	0.941	0.5403	-0.277
Mof_C 	C 	0.9043	0.9631	0.5689	0.546
Mof_C 	C 	0.931	0.0034	0.5547	-0.325
Mof_C 	C 	0.9191	0.0303	0.5174	0.251
Mof_O 	O 	0.9206	0.8412	0.6322	-0.55
Mof_O 	O 	0.8401	0.8749	0.5917	-0.026
Mof_C 	C 	0.909	0.8254	0.5868	-0.329
Mof_C 	C 	0.8938	0.8312	0.5795	0.571
Mof_C 	C 	0.9256	0.7744	0.5838	-0.663
Mof_C 	C 	0.9096	0.781	0.569	-1.125
Mof_N 	N 	0.8319	0.9558	0.6655	0.17
Mof_C 	C 	0.8443	0.9995	0.6717	0.262
Mof_C 	C 	0.8147	0.0335	0.684	0.234
Mof_C 	C 	0.7693	0.0259	0.6909	0.072
Mof_C 	C 	0.7566	0.9817	0.684	-0.224
Mof_C 	C 	0.787	0.9483	0.672	-0.214
Mof_N 	N 	0.8206	0.9507	0.6691	-0.596
Mof_C 	C 	0.8294	0.9952	0.676	-0.769
Mof_C 	C 	0.7968	0.0271	0.6859	0.068
Mof_C 	C 	0.7516	0.0162	0.6897	-0.066
Mof_C 	C 	0.7426	0.9711	0.6826	0.152
Mof_C 	C 	0.7761	0.94	0.6733	0.406
Mof_H 	H 	0.891	0.022	0.5	-0.02
Mof_H 	H 	0.925	0.844	0.564	0.353
Mof_H 	H 	0.909	0.852	0.558	-0.437
Mof_H 	H 	0.959	0.773	0.588	-0.25
Mof_H 	H 	0.917	0.762	0.554	0.44
Mof_H 	H 	0.911	0.756	0.608	0.063
Mof_H 	H 	0.943	0.779	0.572	0.856
Mof_H 	H 	0.9	0.773	0.538	0.101
Mof_H 	H 	0.895	0.76	0.591	0.496
Mof_H 	H 	0.877	0.008	0.667	-0.596
Mof_H 	H 	0.827	0.065	0.688	0.058
Mof_H 	H 	0.748	0.05	0.7	0
Mof_H 	H 	0.724	0.973	0.688	0.05
Mof_H 	H 	0.775	0.917	0.668	0.196
Mof_H 	H 	0.862	0.005	0.674	0.632
Mof_H 	H 	0.806	0.059	0.69	-0.137
Mof_H 	H 	0.728	0.039	0.697	0.057
Mof_H 	H 	0.711	0.96	0.684	-0.041
Mof_H 	H 	0.767	0.908	0.67	-0.348
Mof_Ni	Ni	0.6196	0.1008	0.1506	-0.376
Mof_Ni	Ni	0.6281	0.0766	0.1596	-0.846
Mof_Ni	Ni	0.6429	0.0769	0.1559	1.566
Mof_Ni	Ni	0.6322	0.0966	0.1199	0.606
Mof_Ni	Ni	0.6027	0.0756	0.137	0.855
Mof_Ni	Ni	0.6228	0.07	0.1377	-0.027
Mof_Ni	Ni	0.6534	0.1116	0.1439	0.257
Mof_O 	O 	0.5844	0.0602	0.1055	-0.337
Mof_O 	O 	0.5923	0.047	0.1113	-0.674
Mof_O 	O 	0.6312	0.0475	0.0458	-0.067
Mof_O 	O 	0.6269	0.059	0.0403	-0.277
Mof_C 	C 	0.5957	0.0369	0.0689	0.547
Mof_C 	C 	0.569	0.9966	0.0547	-0.326
Mof_C 	C 	0.5809	0.9697	0.0174	0.251
Mof_O 	O 	0.5794	0.1588	0.1322	-0.549
Mof_O 	O 	0.6599	0.1251	0.0917	-0.026
Mof_C 	C 	0.591	0.1746	0.0868	-0.33
Mof_C 	C 	0.6062	0.1688	0.0795	0.571
Mof_C 	C 	0.5744	0.2256	0.0838	-0.662
Mof_C 	C 	0.5904	0.219	0.069	-1.123
Mof_N 	N 	0.6681	0.0442	0.1655	0.171
Mof_C 	C 	0.6557	0.0005	0.1717	0.262
Mof_C 	C 	0.6853	0.9665	0.184	0.238
Mof_C 	C 	0.7307	0.9741	0.1909	0.068
Mof_C 	C 	0.7434	0.0183	0.184	-0.217
Mof_C 	C 	0.713	0.0517	0.172	-0.215
Mof_N 	N 	0.6794	0.0493	0.1691	-0.595
Mof_C 	C 	0.6706	0.0048	0.176	-0.772
Mof_C 	C 	0.7032	0.9729	0.1859	0.068
Mof_C 	C 	0.7484	0.9838	0.1897	-0.068
Mof_C 	C 	0.7574	0.0289	0.1826	0.154
Mof_C 	C 	0.7239	0.06	0.1733	0.405
Mof_H 	H 	0.609	0.978	-0	-0.02
Mof_H 	H 	0.575	0.156	0.064	0.353
Mof_H 	H 	0.591	0.148	0.058	-0.437
Mof_H 	H 	0.541	0.227	0.088	-0.249
Mof_H 	H 	0.583	0.238	0.054	0.439
Mof_H 	H 	0.589	0.244	0.108	0.063
Mof_H 	H 	0.557	0.221	0.072	0.855
Mof_H 	H 	0.6	0.227	0.038	0.1
Mof_H 	H 	0.605	0.24	0.091	0.496
Mof_H 	H 	0.623	0.992	0.167	-0.601
Mof_H 	H 	0.673	0.935	0.188	0.057
Mof_H 	H 	0.752	0.95	0.2	0.002
Mof_H 	H 	0.776	0.027	0.188	0.04
Mof_H 	H 	0.725	0.083	0.168	0.194
Mof_H 	H 	0.638	0.995	0.174	0.638
Mof_H 	H 	0.694	0.941	0.19	-0.138
Mof_H 	H 	0.772	0.961	0.197	0.057
Mof_H 	H 	0.789	0.04	0.184	-0.034
Mof_H 	H 	0.733	0.092	0.17	-0.345
Mof_Ni	Ni	0.3804	0.6008	0.3494	-0.376
Mof_Ni	Ni	0.3719	0.5766	0.3404	-0.846
Mof_Ni	Ni	0.3571	0.5769	0.3441	1.566
Mof_Ni	Ni	0.3678	0.5966	0.3801	0.606
Mof_Ni	Ni	0.3973	0.5756	0.363	0.855
Mof_Ni	Ni	0.3772	0.57	0.3623	-0.027
Mof_Ni	Ni	0.3466	0.6116	0.3561	0.257
Mof_O 	O 	0.4156	0.5602	0.3945	-0.337
Mof_O 	O 	0.4077	0.547	0.3887	-0.673
Mof_O 	O 	0.3688	0.5475	0.4542	-0.067
Mof_O 	O 	0.3731	0.559	0.4597	-0.277
Mof_C 	C 	0.4043	0.5369	0.4311	0.547
Mof_C 	C 	0.431	0.4966	0.4453	-0.326
Mof_C 	C 	0.4191	0.4697	0.4826	0.252
Mof_O 	O 	0.4206	0.6588	0.3678	-0.549
Mof_O 	O 	0.3401	0.6251	0.4083	-0.026
Mof_C 	C 	0.409	0.6746	0.4132	-0.33
Mof_C 	C 	0.3938	0.6688	0.4205	0.571
Mof_C 	C 	0.4256	0.7256	0.4162	-0.662
Mof_C 	C 	0.4096	0.719	0.431	-1.123
Mof_N 	N 	0.3319	0.5442	0.3345	0.171
Mof_C 	C 	0.3443	0.5005	0.3283	0.262
Mof_C 	C 	0.3147	0.4665	0.316	0.236
Mof_C 	C 	0.2693	0.4741	0.3091	0.07
Mof_C 	C 	0.2566	0.5183	0.316	-0.22
Mof_C 	C 	0.287	0.5517	0.328	-0.215
Mof_N 	N 	0.3206	0.5493	0.3309	-0.595
Mof_C 	C 	0.3294	0.5048	0.324	-0.771
Mof_C 	C 	0.2968	0.4729	0.3141	0.068
Mof_C 	C 	0.2516	0.4838	0.3103	-0.067
Mof_C 	C 	0.2426	0.5289	0.3174	0.153
Mof_C 	C 	0.2761	0.56	0.3267	0.405
Mof_H 	H 	0.391	0.478	0.5	-0.02
Mof_H 	H 	0.425	0.656	0.436	0.353
Mof_H 	H 	0.409	0.648	0.442	-0.437
Mof_H 	H 	0.459	0.727	0.412	-0.249
Mof_H 	H 	0.417	0.738	0.446	0.439
Mof_H 	H 	0.411	0.744	0.392	0.063
Mof_H 	H 	0.443	0.721	0.428	0.855
Mof_H 	H 	0.4	0.727	0.462	0.1
Mof_H 	H 	0.395	0.74	0.409	0.496
Mof_H 	H 	0.377	0.492	0.333	-0.599
Mof_H 	H 	0.327	0.435	0.312	0.057
Mof_H 	H 	0.248	0.45	0.3	0.001
Mof_H 	H 	0.224	0.527	0.312	0.045
Mof_H 	H 	0.275	0.583	0.332	0.195
Mof_H 	H 	0.362	0.495	0.326	0.635
Mof_H 	H 	0.306	0.441	0.31	-0.138
Mof_H 	H 	0.228	0.461	0.303	0.057
Mof_H 	H 	0.211	0.54	0.316	-0.037
Mof_H 	H 	0.267	0.592	0.33	-0.346
Mof_Ni	Ni	0.3696	0.5994	0.3508	-0.376
Mof_Ni	Ni	0.3781	0.5904	0.3266	-0.846
Mof_Ni	Ni	0.3929	0.5941	0.3269	1.566
Mof_Ni	Ni	0.3822	0.6301	0.3466	0.606
Mof_Ni	Ni	0.3527	0.613	0.3256	0.855
Mof_Ni	Ni	0.3728	0.6123	0.32	-0.027
Mof_Ni	Ni	0.4034	0.6061	0.3616	0.257
Mof_O 	O 	0.3344	0.6445	0.3102	-0.337
Mof_O 	O 	0.3423	0.6387	0.297	-0.673
Mof_O 	O 	0.3812	0.7042	0.2975	-0.067
Mof_O 	O 	0.3769	0.7097	0.309	-0.277
Mof_C 	C 	0.3457	0.6811	0.2869	0.547
Mof_C 	C 	0.319	0.6953	0.2466	-0.326
Mof_C 	C 	0.3309	0.7326	0.2197	0.252
Mof_O 	O 	0.3294	0.6178	0.4088	-0.55
Mof_O 	O 	0.4099	0.6583	0.3751	-0.026
Mof_C 	C 	0.341	0.6632	0.4246	-0.329
Mof_C 	C 	0.3562	0.6705	0.4188	0.571
Mof_C 	C 	0.3244	0.6662	0.4756	-0.663
Mof_C 	C 	0.3404	0.681	0.469	-1.124
Mof_N 	N 	0.4181	0.5845	0.2942	0.171
Mof_C 	C 	0.4057	0.5783	0.2505	0.262
Mof_C 	C 	0.4353	0.566	0.2165	0.236
Mof_C 	C 	0.4807	0.5591	0.2241	0.07
Mof_C 	C 	0.4934	0.566	0.2683	-0.22
Mof_C 	C 	0.463	0.578	0.3017	-0.215
Mof_N 	N 	0.4294	0.5809	0.2993	-0.595
Mof_C 	C 	0.4206	0.574	0.2548	-0.771
Mof_C 	C 	0.4532	0.5641	0.2229	0.068
Mof_C 	C 	0.4984	0.5603	0.2338	-0.067
Mof_C 	C 	0.5074	0.5674	0.2789	0.153
Mof_C 	C 	0.4739	0.5767	0.31	0.405
Mof_H 	H 	0.359	0.75	0.228	-0.02
Mof_H 	H 	0.325	0.686	0.406	0.353
Mof_H 	H 	0.341	0.692	0.398	-0.437
Mof_H 	H 	0.291	0.662	0.477	-0.249
Mof_H 	H 	0.333	0.696	0.488	0.439
Mof_H 	H 	0.339	0.642	0.494	0.063
Mof_H 	H 	0.307	0.678	0.471	0.856
Mof_H 	H 	0.35	0.712	0.477	0.1
Mof_H 	H 	0.355	0.659	0.49	0.496
Mof_H 	H 	0.373	0.583	0.242	-0.599
Mof_H 	H 	0.423	0.562	0.185	0.057
Mof_H 	H 	0.502	0.55	0.2	0.001
Mof_H 	H 	0.526	0.562	0.277	0.045
Mof_H 	H 	0.475	0.582	0.333	0.195
Mof_H 	H 	0.388	0.576	0.245	0.635
Mof_H 	H 	0.444	0.56	0.191	-0.138
Mof_H 	H 	0.522	0.553	0.211	0.057
Mof_H 	H 	0.539	0.566	0.29	-0.037
Mof_H 	H 	0.483	0.58	0.342	-0.346
Mof_Ni	Ni	0.1304	0.4006	0.8508	-0.376
Mof_Ni	Ni	0.1219	0.4096	0.8266	-0.846
Mof_Ni	Ni	0.1071	0.4059	0.8269	1.566
Mof_Ni	Ni	0.1178	0.3699	0.8466	0.606
Mof_Ni	Ni	0.1473	0.387	0.8256	0.855
Mof_Ni	Ni	0.1272	0.3877	0.82	-0.027
Mof_Ni	Ni	0.0966	0.3939	0.8616	0.257
Mof_O 	O 	0.1656	0.3555	0.8102	-0.337
Mof_O 	O 	0.1577	0.3613	0.797	-0.674
Mof_O 	O 	0.1188	0.2958	0.7975	-0.067
Mof_O 	O 	0.1231	0.2903	0.809	-0.277
Mof_C 	C 	0.1543	0.3189	0.7869	0.547
Mof_C 	C 	0.181	0.3047	0.7466	-0.326
Mof_C 	C 	0.1691	0.2674	0.7197	0.252
Mof_O 	O 	0.1706	0.3822	0.9088	-0.549
Mof_O 	O 	0.0901	0.3417	0.8751	-0.026
Mof_C 	C 	0.159	0.3368	0.9246	-0.33
Mof_C 	C 	0.1438	0.3295	0.9188	0.57
Mof_C 	C 	0.1756	0.3338	0.9756	-0.661
Mof_C 	C 	0.1596	0.319	0.969	-1.122
Mof_N 	N 	0.0819	0.4155	0.7942	0.171
Mof_C 	C 	0.0943	0.4217	0.7505	0.262
Mof_C 	C 	0.0647	0.434	0.7165	0.236
Mof_C 	C 	0.0193	0.4409	0.7241	0.07
Mof_C 	C 	0.0066	0.434	0.7683	-0.22
Mof_C 	C 	0.037	0.422	0.8017	-0.215
Mof_N 	N 	0.0706	0.4191	0.7993	-0.595
Mof_C 	C 	0.0794	0.426	0.7548	-0.771
Mof_C 	C 	0.0468	0.4359	0.7229	0.069
Mof_C 	C 	0.0016	0.4397	0.7338	-0.067
Mof_C 	C 	0.9926	0.4326	0.7789	0.154
Mof_C 	C 	0.0261	0.4233	0.81	0.405
Mof_H 	H 	0.141	0.25	0.728	-0.02
Mof_H 	H 	0.175	0.314	0.906	0.353
Mof_H 	H 	0.159	0.308	0.898	-0.437
Mof_H 	H 	0.209	0.338	0.977	-0.249
Mof_H 	H 	0.167	0.304	0.988	0.438
Mof_H 	H 	0.161	0.358	0.994	0.063
Mof_H 	H 	0.193	0.322	0.971	0.854
Mof_H 	H 	0.15	0.288	0.977	0.1
Mof_H 	H 	0.145	0.341	0.99	0.495
Mof_H 	H 	0.127	0.417	0.742	-0.599
Mof_H 	H 	0.077	0.438	0.685	0.057
Mof_H 	H 	0.998	0.45	0.7	0.001
Mof_H 	H 	0.974	0.438	0.777	0.042
Mof_H 	H 	0.025	0.418	0.833	0.195
Mof_H 	H 	0.112	0.424	0.745	0.636
Mof_H 	H 	0.056	0.44	0.691	-0.137
Mof_H 	H 	0.978	0.447	0.711	0.057
Mof_H 	H 	0.961	0.434	0.79	-0.036
Mof_H 	H 	0.017	0.42	0.842	-0.346
Mof_Ni	Ni	0.8696	0.9006	0.6492	-0.376
Mof_Ni	Ni	0.8781	0.9096	0.6734	-0.847
Mof_Ni	Ni	0.8929	0.9059	0.6731	1.567
Mof_Ni	Ni	0.8822	0.8699	0.6534	0.606
Mof_Ni	Ni	0.8527	0.887	0.6744	0.855
Mof_Ni	Ni	0.8728	0.8877	0.68	-0.027
Mof_Ni	Ni	0.9034	0.8939	0.6384	0.257
Mof_O 	O 	0.8344	0.8555	0.6898	-0.337
Mof_O 	O 	0.8423	0.8613	0.703	-0.673
Mof_O 	O 	0.8812	0.7958	0.7025	-0.067
Mof_O 	O 	0.8769	0.7903	0.691	-0.277
Mof_C 	C 	0.8457	0.8189	0.7131	0.547
Mof_C 	C 	0.819	0.8047	0.7534	-0.326
Mof_C 	C 	0.8309	0.7674	0.7803	0.252
Mof_O 	O 	0.8294	0.8822	0.5912	-0.549
Mof_O 	O 	0.9099	0.8417	0.6249	-0.026
Mof_C 	C 	0.841	0.8368	0.5754	-0.33
Mof_C 	C 	0.8562	0.8295	0.5812	0.57
Mof_C 	C 	0.8244	0.8338	0.5244	-0.662
Mof_C 	C 	0.8404	0.819	0.531	-1.122
Mof_N 	N 	0.9181	0.9155	0.7058	0.17
Mof_C 	C 	0.9057	0.9217	0.7495	0.262
Mof_C 	C 	0.9353	0.934	0.7835	0.237
Mof_C 	C 	0.9807	0.9409	0.7759	0.07
Mof_C 	C 	0.9934	0.934	0.7317	-0.222
Mof_C 	C 	0.963	0.922	0.6983	-0.214
Mof_N 	N 	0.9294	0.9191	0.7007	-0.595
Mof_C 	C 	0.9206	0.926	0.7452	-0.771
Mof_C 	C 	0.9532	0.9359	0.7771	0.068
Mof_C 	C 	0.9984	0.9397	0.7662	-0.067
Mof_C 	C 	0.0074	0.9326	0.7211	0.152
Mof_C 	C 	0.9739	0.9233	0.69	0.406
Mof_H 	H 	0.859	0.75	0.772	-0.02
Mof_H 	H 	0.825	0.814	0.594	0.353
Mof_H 	H 	0.841	0.808	0.602	-0.437
Mof_H 	H 	0.791	0.838	0.523	-0.249
Mof_H 	H 	0.833	0.804	0.512	0.439
Mof_H 	H 	0.839	0.858	0.506	0.063
Mof_H 	H 	0.807	0.822	0.529	0.855
Mof_H 	H 	0.85	0.788	0.523	0.1
Mof_H 	H 	0.855	0.841	0.51	0.495
Mof_H 	H 	0.873	0.917	0.758	-0.599
Mof_H 	H 	0.923	0.938	0.815	0.057
Mof_H 	H 	0.002	0.95	0.8	0.002
Mof_H 	H 	0.026	0.938	0.723	0.048
Mof_H 	H 	0.975	0.918	0.667	0.195
Mof_H 	H 	0.888	0.924	0.755	0.635
Mof_H 	H 	0.944	0.94	0.809	-0.138
Mof_H 	H 	0.022	0.947	0.789	0.057
Mof_H 	H 	0.039	0.934	0.71	-0.04
Mof_H 	H 	0.983	0.92	0.658	-0.347
Mof_Ni	Ni	0.6304	0.0994	0.1492	-0.376
Mof_Ni	Ni	0.6219	0.0904	0.1734	-0.846
Mof_Ni	Ni	0.6071	0.0941	0.1731	1.566
Mof_Ni	Ni	0.6178	0.1301	0.1534	0.606
Mof_Ni	Ni	0.6473	0.113	0.1744	0.855
Mof_Ni	Ni	0.6272	0.1123	0.18	-0.027
Mof_Ni	Ni	0.5966	0.1061	0.1384	0.257
Mof_O 	O 	0.6656	0.1445	0.1898	-0.337
Mof_O 	O 	0.6577	0.1387	0.203	-0.674
Mof_O 	O 	0.6188	0.2042	0.2025	-0.067
Mof_O 	O 	0.6231	0.2097	0.191	-0.277
Mof_C 	C 	0.6543	0.1811	0.2131	0.547
Mof_C 	C 	0.681	0.1953	0.2534	-0.326
Mof_C 	C 	0.6691	0.2326	0.2803	0.252
Mof_O 	O 	0.6706	0.1178	0.0912	-0.55
Mof_O 	O 	0.5901	0.1583	0.1249	-0.026
Mof_C 	C 	0.659	0.1632	0.0754	-0.329
Mof_C 	C 	0.6438	0.1705	0.0812	0.571
Mof_C 	C 	0.6756	0.1662	0.0244	-0.663
Mof_C 	C 	0.6596	0.181	0.031	-1.125
Mof_N 	N 	0.5819	0.0845	0.2058	0.171
Mof_C 	C 	0.5943	0.0783	0.2495	0.262
Mof_C 	C 	0.5647	0.066	0.2835	0.236
Mof_C 	C 	0.5193	0.0591	0.2759	0.07
Mof_C 	C 	0.5066	0.066	0.2317	-0.22
Mof_C 	C 	0.537	0.078	0.1983	-0.215
Mof_N 	N 	0.5706	0.0809	0.2007	-0.595
Mof_C 	C 	0.5794	0.074	0.2452	-0.771
Mof_C 	C 	0.5468	0.0641	0.2771	0.068
Mof_C 	C 	0.5016	0.0603	0.2662	-0.067
Mof_C 	C 	0.4926	0.0674	0.2211	0.153
Mof_C 	C 	0.5261	0.0767	0.19	0.405
Mof_H 	H 	0.641	0.25	0.272	-0.02
Mof_H 	H 	0.675	0.186	0.094	0.353
Mof_H 	H 	0.659	0.192	0.102	-0.437
Mof_H 	H 	0.709	0.162	0.023	-0.249
Mof_H 	H 	0.667	0.196	0.012	0.44
Mof_H 	H 	0.661	0.142	0.006	0.063
Mof_H 	H 	0.693	0.178	0.029	0.856
Mof_H 	H 	0.65	0.212	0.023	0.101
Mof_H 	H 	0.645	0.159	0.01	0.496
Mof_H 	H 	0.627	0.083	0.258	-0.598
Mof_H 	H 	0.577	0.062	0.315	0.057
Mof_H 	H 	0.498	0.05	0.3	0.001
Mof_H 	H 	0.474	0.062	0.223	0.044
Mof_H 	H 	0.525	0.082	0.167	0.195
Mof_H 	H 	0.612	0.076	0.255	0.635
Mof_H 	H 	0.556	0.06	0.309	-0.137
Mof_H 	H 	0.478	0.053	0.289	0.057
Mof_H 	H 	0.461	0.066	0.21	-0.037
Mof_H 	H 	0.517	0.08	0.158	-0.346
Mof_Ni	Ni	0.0994	0.1492	0.6304	-0.376
Mof_Ni	Ni	0.0904	0.1734	0.6219	-0.846
Mof_Ni	Ni	0.0941	0.1731	0.6071	1.566
Mof_Ni	Ni	0.1301	0.1534	0.6178	0.606
Mof_Ni	Ni	0.113	0.1744	0.6473	0.855
Mof_Ni	Ni	0.1123	0.18	0.6272	-0.027
Mof_Ni	Ni	0.1061	0.1384	0.5966	0.257
Mof_O 	O 	0.1445	0.1898	0.6656	-0.337
Mof_O 	O 	0.1387	0.203	0.6577	-0.674
Mof_O 	O 	0.2042	0.2025	0.6188	-0.067
Mof_O 	O 	0.2097	0.191	0.6231	-0.277
Mof_C 	C 	0.1811	0.2131	0.6543	0.547
Mof_C 	C 	0.1953	0.2534	0.681	-0.326
Mof_C 	C 	0.2326	0.2803	0.6691	0.252
Mof_O 	O 	0.1178	0.0912	0.6706	-0.55
Mof_O 	O 	0.1583	0.1249	0.5901	-0.026
Mof_C 	C 	0.1632	0.0754	0.659	-0.329
Mof_C 	C 	0.1705	0.0812	0.6438	0.571
Mof_C 	C 	0.1662	0.0244	0.6756	-0.663
Mof_C 	C 	0.181	0.031	0.6596	-1.125
Mof_N 	N 	0.0845	0.2058	0.5819	0.171
Mof_C 	C 	0.0783	0.2495	0.5943	0.262
Mof_C 	C 	0.066	0.2835	0.5647	0.236
Mof_C 	C 	0.0591	0.2759	0.5193	0.07
Mof_C 	C 	0.066	0.2317	0.5066	-0.22
Mof_C 	C 	0.078	0.1983	0.537	-0.215
Mof_N 	N 	0.0809	0.2007	0.5706	-0.595
Mof_C 	C 	0.074	0.2452	0.5794	-0.771
Mof_C 	C 	0.0641	0.2771	0.5468	0.068
Mof_C 	C 	0.0603	0.2662	0.5016	-0.067
Mof_C 	C 	0.0674	0.2211	0.4926	0.153
Mof_C 	C 	0.0767	0.19	0.5261	0.405
Mof_H 	H 	0.25	0.272	0.641	-0.02
Mof_H 	H 	0.186	0.094	0.675	0.353
Mof_H 	H 	0.192	0.102	0.659	-0.437
Mof_H 	H 	0.162	0.023	0.709	-0.249
Mof_H 	H 	0.196	0.012	0.667	0.44
Mof_H 	H 	0.142	0.006	0.661	0.063
Mof_H 	H 	0.178	0.029	0.693	0.856
Mof_H 	H 	0.212	0.023	0.65	0.101
Mof_H 	H 	0.159	0.01	0.645	0.496
Mof_H 	H 	0.083	0.258	0.627	-0.598
Mof_H 	H 	0.062	0.315	0.577	0.057
Mof_H 	H 	0.05	0.3	0.498	0.001
Mof_H 	H 	0.062	0.223	0.474	0.044
Mof_H 	H 	0.082	0.167	0.525	0.195
Mof_H 	H 	0.076	0.255	0.612	0.635
Mof_H 	H 	0.06	0.309	0.556	-0.137
Mof_H 	H 	0.053	0.289	0.478	0.057
Mof_H 	H 	0.066	0.21	0.461	-0.037
Mof_H 	H 	0.08	0.158	0.517	-0.346
Mof_Ni	Ni	0.9006	0.6492	0.8696	-0.376
Mof_Ni	Ni	0.9096	0.6734	0.8781	-0.847
Mof_Ni	Ni	0.9059	0.6731	0.8929	1.567
Mof_Ni	Ni	0.8699	0.6534	0.8822	0.606
Mof_Ni	Ni	0.887	0.6744	0.8527	0.855
Mof_Ni	Ni	0.8877	0.68	0.8728	-0.027
Mof_Ni	Ni	0.8939	0.6384	0.9034	0.257
Mof_O 	O 	0.8555	0.6898	0.8344	-0.337
Mof_O 	O 	0.8613	0.703	0.8423	-0.673
Mof_O 	O 	0.7958	0.7025	0.8812	-0.067
Mof_O 	O 	0.7903	0.691	0.8769	-0.277
Mof_C 	C 	0.8189	0.7131	0.8457	0.547
Mof_C 	C 	0.8047	0.7534	0.819	-0.326
Mof_C 	C 	0.7674	0.7803	0.8309	0.252
Mof_O 	O 	0.8822	0.5912	0.8294	-0.549
Mof_O 	O 	0.8417	0.6249	0.9099	-0.026
Mof_C 	C 	0.8368	0.5754	0.841	-0.33
Mof_C 	C 	0.8295	0.5812	0.8562	0.57
Mof_C 	C 	0.8338	0.5244	0.8244	-0.662
Mof_C 	C 	0.819	0.531	0.8404	-1.122
Mof_N 	N 	0.9155	0.7058	0.9181	0.17
Mof_C 	C 	0.9217	0.7495	0.9057	0.262
Mof_C 	C 	0.934	0.7835	0.9353	0.237
Mof_C 	C 	0.9409	0.7759	0.9807	0.07
Mof_C 	C 	0.934	0.7317	0.9934	-0.222
Mof_C 	C 	0.922	0.6983	0.963	-0.214
Mof_N 	N 	0.9191	0.7007	0.9294	-0.595
Mof_C 	C 	0.926	0.7452	0.9206	-0.771
Mof_C 	C 	0.9359	0.7771	0.9532	0.068
Mof_C 	C 	0.9397	0.7662	0.9984	-0.067
Mof_C 	C 	0.9326	0.7211	0.0074	0.152
Mof_C 	C 	0.9233	0.69	0.9739	0.406
Mof_H 	H 	0.75	0.772	0.859	-0.02
Mof_H 	H 	0.814	0.594	0.825	0.353
Mof_H 	H 	0.808	0.602	0.841	-0.437
Mof_H 	H 	0.838	0.523	0.791	-0.249
Mof_H 	H 	0.804	0.512	0.833	0.439
Mof_H 	H 	0.858	0.506	0.839	0.063
Mof_H 	H 	0.822	0.529	0.807	0.855
Mof_H 	H 	0.788	0.523	0.85	0.1
Mof_H 	H 	0.841	0.51	0.855	0.495
Mof_H 	H 	0.917	0.758	0.873	-0.599
Mof_H 	H 	0.938	0.815	0.923	0.057
Mof_H 	H 	0.95	0.8	0.002	0.002
Mof_H 	H 	0.938	0.723	0.026	0.048
Mof_H 	H 	0.918	0.667	0.975	0.195
Mof_H 	H 	0.924	0.755	0.888	0.635
Mof_H 	H 	0.94	0.809	0.944	-0.138
Mof_H 	H 	0.947	0.789	0.022	0.057
Mof_H 	H 	0.934	0.71	0.039	-0.04
Mof_H 	H 	0.92	0.658	0.983	-0.347
Mof_Ni	Ni	0.4006	0.8508	0.1304	-0.376
Mof_Ni	Ni	0.4096	0.8266	0.1219	-0.846
Mof_Ni	Ni	0.4059	0.8269	0.1071	1.566
Mof_Ni	Ni	0.3699	0.8466	0.1178	0.606
Mof_Ni	Ni	0.387	0.8256	0.1473	0.855
Mof_Ni	Ni	0.3877	0.82	0.1272	-0.027
Mof_Ni	Ni	0.3939	0.8616	0.0966	0.257
Mof_O 	O 	0.3555	0.8102	0.1656	-0.337
Mof_O 	O 	0.3613	0.797	0.1577	-0.674
Mof_O 	O 	0.2958	0.7975	0.1188	-0.067
Mof_O 	O 	0.2903	0.809	0.1231	-0.277
Mof_C 	C 	0.3189	0.7869	0.1543	0.547
Mof_C 	C 	0.3047	0.7466	0.181	-0.326
Mof_C 	C 	0.2674	0.7197	0.1691	0.252
Mof_O 	O 	0.3822	0.9088	0.1706	-0.549
Mof_O 	O 	0.3417	0.8751	0.0901	-0.026
Mof_C 	C 	0.3368	0.9246	0.159	-0.33
Mof_C 	C 	0.3295	0.9188	0.1438	0.57
Mof_C 	C 	0.3338	0.9756	0.1756	-0.661
Mof_C 	C 	0.319	0.969	0.1596	-1.122
Mof_N 	N 	0.4155	0.7942	0.0819	0.171
Mof_C 	C 	0.4217	0.7505	0.0943	0.262
Mof_C 	C 	0.434	0.7165	0.0647	0.236
Mof_C 	C 	0.4409	0.7241	0.0193	0.07
Mof_C 	C 	0.434	0.7683	0.0066	-0.22
Mof_C 	C 	0.422	0.8017	0.037	-0.215
Mof_N 	N 	0.4191	0.7993	0.0706	-0.595
Mof_C 	C 	0.426	0.7548	0.0794	-0.771
Mof_C 	C 	0.4359	0.7229	0.0468	0.069
Mof_C 	C 	0.4397	0.7338	0.0016	-0.067
Mof_C 	C 	0.4326	0.7789	0.9926	0.154
Mof_C 	C 	0.4233	0.81	0.0261	0.405
Mof_H 	H 	0.25	0.728	0.141	-0.02
Mof_H 	H 	0.314	0.906	0.175	0.353
Mof_H 	H 	0.308	0.898	0.159	-0.437
Mof_H 	H 	0.338	0.977	0.209	-0.249
Mof_H 	H 	0.304	0.988	0.167	0.438
Mof_H 	H 	0.358	0.994	0.161	0.063
Mof_H 	H 	0.322	0.971	0.193	0.854
Mof_H 	H 	0.288	0.977	0.15	0.1
Mof_H 	H 	0.341	0.99	0.145	0.495
Mof_H 	H 	0.417	0.742	0.127	-0.599
Mof_H 	H 	0.438	0.685	0.077	0.057
Mof_H 	H 	0.45	0.7	0.998	0.001
Mof_H 	H 	0.438	0.777	0.974	0.042
Mof_H 	H 	0.418	0.833	0.025	0.195
Mof_H 	H 	0.424	0.745	0.112	0.636
Mof_H 	H 	0.44	0.691	0.056	-0.137
Mof_H 	H 	0.447	0.711	0.978	0.057
Mof_H 	H 	0.434	0.79	0.961	-0.036
Mof_H 	H 	0.42	0.842	0.017	-0.346
Mof_Ni	Ni	0.5994	0.3508	0.3696	-0.376
Mof_Ni	Ni	0.5904	0.3266	0.3781	-0.846
Mof_Ni	Ni	0.5941	0.3269	0.3929	1.566
Mof_Ni	Ni	0.6301	0.3466	0.3822	0.606
Mof_Ni	Ni	0.613	0.3256	0.3527	0.855
Mof_Ni	Ni	0.6123	0.32	0.3728	-0.027
Mof_Ni	Ni	0.6061	0.3616	0.4034	0.257
Mof_O 	O 	0.6445	0.3102	0.3344	-0.337
Mof_O 	O 	0.6387	0.297	0.3423	-0.673
Mof_O 	O 	0.7042	0.2975	0.3812	-0.067
Mof_O 	O 	0.7097	0.309	0.3769	-0.277
Mof_C 	C 	0.6811	0.2869	0.3457	0.547
Mof_C 	C 	0.6953	0.2466	0.319	-0.326
Mof_C 	C 	0.7326	0.2197	0.3309	0.252
Mof_O 	O 	0.6178	0.4088	0.3294	-0.55
Mof_O 	O 	0.6583	0.3751	0.4099	-0.026
Mof_C 	C 	0.6632	0.4246	0.341	-0.329
Mof_C 	C 	0.6705	0.4188	0.3562	0.571
Mof_C 	C 	0.6662	0.4756	0.3244	-0.663
Mof_C 	C 	0.681	0.469	0.3404	-1.124
Mof_N 	N 	0.5845	0.2942	0.4181	0.171
Mof_C 	C 	0.5783	0.2505	0.4057	0.262
Mof_C 	C 	0.566	0.2165	0.4353	0.236
Mof_C 	C 	0.5591	0.2241	0.4807	0.07
Mof_C 	C 	0.566	0.2683	0.4934	-0.22
Mof_C 	C 	0.578	0.3017	0.463	-0.215
Mof_N 	N 	0.5809	0.2993	0.4294	-0.595
Mof_C 	C 	0.574	0.2548	0.4206	-0.771
Mof_C 	C 	0.5641	0.2229	0.4532	0.068
Mof_C 	C 	0.5603	0.2338	0.4984	-0.067
Mof_C 	C 	0.5674	0.2789	0.5074	0.153
Mof_C 	C 	0.5767	0.31	0.4739	0.405
Mof_H 	H 	0.75	0.228	0.359	-0.02
Mof_H 	H 	0.686	0.406	0.325	0.353
Mof_H 	H 	0.692	0.398	0.341	-0.437
Mof_H 	H 	0.662	0.477	0.291	-0.249
Mof_H 	H 	0.696	0.488	0.333	0.439
Mof_H 	H 	0.642	0.494	0.339	0.063
Mof_H 	H 	0.678	0.471	0.307	0.856
Mof_H 	H 	0.712	0.477	0.35	0.1
Mof_H 	H 	0.659	0.49	0.355	0.496
Mof_H 	H 	0.583	0.242	0.373	-0.599
Mof_H 	H 	0.562	0.185	0.423	0.057
Mof_H 	H 	0.55	0.2	0.502	0.001
Mof_H 	H 	0.562	0.277	0.526	0.045
Mof_H 	H 	0.582	0.333	0.475	0.195
Mof_H 	H 	0.576	0.245	0.388	0.635
Mof_H 	H 	0.56	0.191	0.444	-0.138
Mof_H 	H 	0.553	0.211	0.522	0.057
Mof_H 	H 	0.566	0.29	0.539	-0.037
Mof_H 	H 	0.58	0.342	0.483	-0.346
Mof_Ni	Ni	0.6492	0.8696	0.9006	-0.376
Mof_Ni	Ni	0.6734	0.8781	0.9096	-0.847
Mof_Ni	Ni	0.6731	0.8929	0.9059	1.567
Mof_Ni	Ni	0.6534	0.8822	0.8699	0.606
Mof_Ni	Ni	0.6744	0.8527	0.887	0.855
Mof_Ni	Ni	0.68	0.8728	0.8877	-0.027
Mof_Ni	Ni	0.6384	0.9034	0.8939	0.257
Mof_O 	O 	0.6898	0.8344	0.8555	-0.337
Mof_O 	O 	0.703	0.8423	0.8613	-0.673
Mof_O 	O 	0.7025	0.8812	0.7958	-0.067
Mof_O 	O 	0.691	0.8769	0.7903	-0.277
Mof_C 	C 	0.7131	0.8457	0.8189	0.547
Mof_C 	C 	0.7534	0.819	0.8047	-0.326
Mof_C 	C 	0.7803	0.8309	0.7674	0.252
Mof_O 	O 	0.5912	0.8294	0.8822	-0.549
Mof_O 	O 	0.6249	0.9099	0.8417	-0.026
Mof_C 	C 	0.5754	0.841	0.8368	-0.33
Mof_C 	C 	0.5812	0.8562	0.8295	0.57
Mof_C 	C 	0.5244	0.8244	0.8338	-0.662
Mof_C 	C 	0.531	0.8404	0.819	-1.122
Mof_N 	N 	0.7058	0.9181	0.9155	0.17
Mof_C 	C 	0.7495	0.9057	0.9217	0.262
Mof_C 	C 	0.7835	0.9353	0.934	0.237
Mof_C 	C 	0.7759	0.9807	0.9409	0.07
Mof_C 	C 	0.7317	0.9934	0.934	-0.222
Mof_C 	C 	0.6983	0.963	0.922	-0.214
Mof_N 	N 	0.7007	0.9294	0.9191	-0.595
Mof_C 	C 	0.7452	0.9206	0.926	-0.771
Mof_C 	C 	0.7771	0.9532	0.9359	0.068
Mof_C 	C 	0.7662	0.9984	0.9397	-0.067
Mof_C 	C 	0.7211	0.0074	0.9326	0.152
Mof_C 	C 	0.69	0.9739	0.9233	0.406
Mof_H 	H 	0.772	0.859	0.75	-0.02
Mof_H 	H 	0.594	0.825	0.814	0.353
Mof_H 	H 	0.602	0.841	0.808	-0.437
Mof_H 	H 	0.523	0.791	0.838	-0.249
Mof_H 	H 	0.512	0.833	0.804	0.439
Mof_H 	H 	0.506	0.839	0.858	0.063
Mof_H 	H 	0.529	0.807	0.822	0.855
Mof_H 	H 	0.523	0.85	0.788	0.1
Mof_H 	H 	0.51	0.855	0.841	0.495
Mof_H 	H 	0.758	0.873	0.917	-0.599
Mof_H 	H 	0.815	0.923	0.938	0.057
Mof_H 	H 	0.8	0.002	0.95	0.002
Mof_H 	H 	0.723	0.026	0.938	0.048
Mof_H 	H 	0.667	0.975	0.918	0.195
Mof_H 	H 	0.755	0.888	0.924	0.635
Mof_H 	H 	0.809	0.944	0.94	-0.138
Mof_H 	H 	0.789	0.022	0.947	0.057
Mof_H 	H 	0.71	0.039	0.934	-0.04
Mof_H 	H 	0.658	0.983	0.92	-0.347
Mof_Ni	Ni	0.1492	0.6304	0.0994	-0.376
Mof_Ni	Ni	0.1734	0.6219	0.0904	-0.846
Mof_Ni	Ni	0.1731	0.6071	0.0941	1.566
Mof_Ni	Ni	0.1534	0.6178	0.1301	0.606
Mof_Ni	Ni	0.1744	0.6473	0.113	0.855
Mof_Ni	Ni	0.18	0.6272	0.1123	-0.027
Mof_Ni	Ni	0.1384	0.5966	0.1061	0.257
Mof_O 	O 	0.1898	0.6656	0.1445	-0.337
Mof_O 	O 	0.203	0.6577	0.1387	-0.674
Mof_O 	O 	0.2025	0.6188	0.2042	-0.067
Mof_O 	O 	0.191	0.6231	0.2097	-0.277
Mof_C 	C 	0.2131	0.6543	0.1811	0.547
Mof_C 	C 	0.2534	0.681	0.1953	-0.326
Mof_C 	C 	0.2803	0.6691	0.2326	0.252
Mof_O 	O 	0.0912	0.6706	0.1178	-0.55
Mof_O 	O 	0.1249	0.5901	0.1583	-0.026
Mof_C 	C 	0.0754	0.659	0.1632	-0.329
Mof_C 	C 	0.0812	0.6438	0.1705	0.571
Mof_C 	C 	0.0244	0.6756	0.1662	-0.663
Mof_C 	C 	0.031	0.6596	0.181	-1.125
Mof_N 	N 	0.2058	0.5819	0.0845	0.171
Mof_C 	C 	0.2495	0.5943	0.0783	0.262
Mof_C 	C 	0.2835	0.5647	0.066	0.236
Mof_C 	C 	0.2759	0.5193	0.0591	0.07
Mof_C 	C 	0.2317	0.5066	0.066	-0.22
Mof_C 	C 	0.1983	0.537	0.078	-0.215
Mof_N 	N 	0.2007	0.5706	0.0809	-0.595
Mof_C 	C 	0.2452	0.5794	0.074	-0.771
Mof_C 	C 	0.2771	0.5468	0.0641	0.068
Mof_C 	C 	0.2662	0.5016	0.0603	-0.067
Mof_C 	C 	0.2211	0.4926	0.0674	0.153
Mof_C 	C 	0.19	0.5261	0.0767	0.405
Mof_H 	H 	0.272	0.641	0.25	-0.02
Mof_H 	H 	0.094	0.675	0.186	0.353
Mof_H 	H 	0.102	0.659	0.192	-0.437
Mof_H 	H 	0.023	0.709	0.162	-0.249
Mof_H 	H 	0.012	0.667	0.196	0.44
Mof_H 	H 	0.006	0.661	0.142	0.063
Mof_H 	H 	0.029	0.693	0.178	0.856
Mof_H 	H 	0.023	0.65	0.212	0.101
Mof_H 	H 	0.01	0.645	0.159	0.496
Mof_H 	H 	0.258	0.627	0.083	-0.598
Mof_H 	H 	0.315	0.577	0.062	0.057
Mof_H 	H 	0.3	0.498	0.05	0.001
Mof_H 	H 	0.223	0.474	0.062	0.044
Mof_H 	H 	0.167	0.525	0.082	0.195
Mof_H 	H 	0.255	0.612	0.076	0.635
Mof_H 	H 	0.309	0.556	0.06	-0.137
Mof_H 	H 	0.289	0.478	0.053	0.057
Mof_H 	H 	0.21	0.461	0.066	-0.037
Mof_H 	H 	0.158	0.517	0.08	-0.346
Mof_Ni	Ni	0.3508	0.3696	0.5994	-0.376
Mof_Ni	Ni	0.3266	0.3781	0.5904	-0.846
Mof_Ni	Ni	0.3269	0.3929	0.5941	1.566
Mof_Ni	Ni	0.3466	0.3822	0.6301	0.606
Mof_Ni	Ni	0.3256	0.3527	0.613	0.855
Mof_Ni	Ni	0.32	0.3728	0.6123	-0.027
Mof_Ni	Ni	0.3616	0.4034	0.6061	0.257
Mof_O 	O 	0.3102	0.3344	0.6445	-0.337
Mof_O 	O 	0.297	0.3423	0.6387	-0.673
Mof_O 	O 	0.2975	0.3812	0.7042	-0.067
Mof_O 	O 	0.309	0.3769	0.7097	-0.277
Mof_C 	C 	0.2869	0.3457	0.6811	0.547
Mof_C 	C 	0.2466	0.319	0.6953	-0.326
Mof_C 	C 	0.2197	0.3309	0.7326	0.252
Mof_O 	O 	0.4088	0.3294	0.6178	-0.55
Mof_O 	O 	0.3751	0.4099	0.6583	-0.026
Mof_C 	C 	0.4246	0.341	0.6632	-0.329
Mof_C 	C 	0.4188	0.3562	0.6705	0.571
Mof_C 	C 	0.4756	0.3244	0.6662	-0.663
Mof_C 	C 	0.469	0.3404	0.681	-1.124
Mof_N 	N 	0.2942	0.4181	0.5845	0.171
Mof_C 	C 	0.2505	0.4057	0.5783	0.262
Mof_C 	C 	0.2165	0.4353	0.566	0.236
Mof_C 	C 	0.2241	0.4807	0.5591	0.07
Mof_C 	C 	0.2683	0.4934	0.566	-0.22
Mof_C 	C 	0.3017	0.463	0.578	-0.215
Mof_N 	N 	0.2993	0.4294	0.5809	-0.595
Mof_C 	C 	0.2548	0.4206	0.574	-0.771
Mof_C 	C 	0.2229	0.4532	0.5641	0.068
Mof_C 	C 	0.2338	0.4984	0.5603	-0.067
Mof_C 	C 	0.2789	0.5074	0.5674	0.153
Mof_C 	C 	0.31	0.4739	0.5767	0.405
Mof_H 	H 	0.228	0.359	0.75	-0.02
Mof_H 	H 	0.406	0.325	0.686	0.353
Mof_H 	H 	0.398	0.341	0.692	-0.437
Mof_H 	H 	0.477	0.291	0.662	-0.249
Mof_H 	H 	0.488	0.333	0.696	0.439
Mof_H 	H 	0.494	0.339	0.642	0.063
Mof_H 	H 	0.471	0.307	0.678	0.856
Mof_H 	H 	0.477	0.35	0.712	0.1
Mof_H 	H 	0.49	0.355	0.659	0.496
Mof_H 	H 	0.242	0.373	0.583	-0.599
Mof_H 	H 	0.185	0.423	0.562	0.057
Mof_H 	H 	0.2	0.502	0.55	0.001
Mof_H 	H 	0.277	0.526	0.562	0.045
Mof_H 	H 	0.333	0.475	0.582	0.195
Mof_H 	H 	0.245	0.388	0.576	0.635
Mof_H 	H 	0.191	0.444	0.56	-0.138
Mof_H 	H 	0.211	0.522	0.553	0.057
Mof_H 	H 	0.29	0.539	0.566	-0.037
Mof_H 	H 	0.342	0.483	0.58	-0.346
Mof_Ni	Ni	0.8508	0.1304	0.4006	-0.376
Mof_Ni	Ni	0.8266	0.1219	0.4096	-0.846
Mof_Ni	Ni	0.8269	0.1071	0.4059	1.566
Mof_Ni	Ni	0.8466	0.1178	0.3699	0.606
Mof_Ni	Ni	0.8256	0.1473	0.387	0.855
Mof_Ni	Ni	0.82	0.1272	0.3877	-0.027
Mof_Ni	Ni	0.8616	0.0966	0.3939	0.257
Mof_O 	O 	0.8102	0.1656	0.3555	-0.337
Mof_O 	O 	0.797	0.1577	0.3613	-0.674
Mof_O 	O 	0.7975	0.1188	0.2958	-0.067
Mof_O 	O 	0.809	0.1231	0.2903	-0.277
Mof_C 	C 	0.7869	0.1543	0.3189	0.547
Mof_C 	C 	0.7466	0.181	0.3047	-0.326
Mof_C 	C 	0.7197	0.1691	0.2674	0.252
Mof_O 	O 	0.9088	0.1706	0.3822	-0.549
Mof_O 	O 	0.8751	0.0901	0.3417	-0.026
Mof_C 	C 	0.9246	0.159	0.3368	-0.33
Mof_C 	C 	0.9188	0.1438	0.3295	0.57
Mof_C 	C 	0.9756	0.1756	0.3338	-0.661
Mof_C 	C 	0.969	0.1596	0.319	-1.122
Mof_N 	N 	0.7942	0.0819	0.4155	0.171
Mof_C 	C 	0.7505	0.0943	0.4217	0.262
Mof_C 	C 	0.7165	0.0647	0.434	0.236
Mof_C 	C 	0.7241	0.0193	0.4409	0.07
Mof_C 	C 	0.7683	0.0066	0.434	-0.22
Mof_C 	C 	0.8017	0.037	0.422	-0.215
Mof_N 	N 	0.7993	0.0706	0.4191	-0.595
Mof_C 	C 	0.7548	0.0794	0.426	-0.771
Mof_C 	C 	0.7229	0.0468	0.4359	0.069
Mof_C 	C 	0.7338	0.0016	0.4397	-0.067
Mof_C 	C 	0.7789	0.9926	0.4326	0.154
Mof_C 	C 	0.81	0.0261	0.4233	0.405
Mof_H 	H 	0.728	0.141	0.25	-0.02
Mof_H 	H 	0.906	0.175	0.314	0.353
Mof_H 	H 	0.898	0.159	0.308	-0.437
Mof_H 	H 	0.977	0.209	0.338	-0.249
Mof_H 	H 	0.988	0.167	0.304	0.438
Mof_H 	H 	0.994	0.161	0.358	0.063
Mof_H 	H 	0.971	0.193	0.322	0.854
Mof_H 	H 	0.977	0.15	0.288	0.1
Mof_H 	H 	0.99	0.145	0.341	0.495
Mof_H 	H 	0.742	0.127	0.417	-0.599
Mof_H 	H 	0.685	0.077	0.438	0.057
Mof_H 	H 	0.7	0.998	0.45	0.001
Mof_H 	H 	0.777	0.974	0.438	0.042
Mof_H 	H 	0.833	0.025	0.418	0.195
Mof_H 	H 	0.745	0.112	0.424	0.636
Mof_H 	H 	0.691	0.056	0.44	-0.137
Mof_H 	H 	0.711	0.978	0.447	0.057
Mof_H 	H 	0.79	0.961	0.434	-0.036
Mof_H 	H 	0.842	0.017	0.42	-0.346
_end
