# CIF file generated by openbabel 3.1.0, see https://openbabel.org
data_I
_chemical_name_common 'LIFWOO_clean'
_cell_length_a 15.0473
_cell_length_b 17.7892
_cell_length_c 17.7892
_cell_angle_alpha 90
_cell_angle_beta 90
_cell_angle_gamma 90
_space_group_name_H-M_alt 'P 1'
_space_group_name_Hall 'P 1'
loop_
    _symmetry_equiv_pos_as_xyz
    x,y,z
loop_
    _atom_site_label
    _atom_site_type_symbol
    _atom_site_fract_x
    _atom_site_fract_y
    _atom_site_fract_z
    _atom_site_occupancy
    Zn1      Zn       0.87156    0.75000    0.75000    1.000
    Zn2      Zn       0.37156    0.75000    0.75000    1.000
    Si1      Si       0.62147    0.75000    0.75000    1.000
    Si2      Si       0.12147    0.75000    0.75000    1.000
    H1       H        0.77110    0.82680    0.87810    1.000
    H2       H        0.77260    0.84040    0.00750    1.000
    H3       H        0.97670    0.69230    0.01540    1.000
    H4       H        0.97300    0.68630    0.88520    1.000
    H5       H        0.88010    0.66160    0.13060    1.000
    H6       H        0.87520    0.89930    0.24370    1.000
    H7       H        0.87070    0.88890    0.11460    1.000
    H8       H        0.77110    0.67320    0.62190    1.000
    H9       H        0.77260    0.65960    0.49250    1.000
    H10      H        0.97670    0.80770    0.48460    1.000
    H11      H        0.97300    0.81370    0.61480    1.000
    H12      H        0.88010    0.83840    0.36940    1.000
    H13      H        0.87520    0.60070    0.25630    1.000
    H14      H        0.87070    0.61110    0.38540    1.000
    H15      H        0.77110    0.62190    0.82680    1.000
    H16      H        0.77260    0.49250    0.84040    1.000
    H17      H        0.97670    0.48460    0.69230    1.000
    H18      H        0.97300    0.61480    0.68630    1.000
    H19      H        0.88010    0.36940    0.66160    1.000
    H20      H        0.87520    0.25630    0.89930    1.000
    H21      H        0.87070    0.38540    0.88890    1.000
    H22      H        0.77110    0.87810    0.67320    1.000
    H23      H        0.77260    0.00750    0.65960    1.000
    H24      H        0.97670    0.01540    0.80770    1.000
    H25      H        0.97300    0.88520    0.81370    1.000
    H26      H        0.88010    0.13060    0.83840    1.000
    H27      H        0.87520    0.24370    0.60070    1.000
    H28      H        0.87070    0.11460    0.61110    1.000
    H29      H        0.27110    0.82680    0.62190    1.000
    H30      H        0.27260    0.84040    0.49250    1.000
    H31      H        0.47670    0.69230    0.48460    1.000
    H32      H        0.47300    0.68630    0.61480    1.000
    H33      H        0.38010    0.66160    0.36940    1.000
    H34      H        0.37520    0.89930    0.25630    1.000
    H35      H        0.37070    0.88890    0.38540    1.000
    H36      H        0.27110    0.67320    0.87810    1.000
    H37      H        0.27260    0.65960    0.00750    1.000
    H38      H        0.47670    0.80770    0.01540    1.000
    H39      H        0.47300    0.81370    0.88520    1.000
    H40      H        0.38010    0.83840    0.13060    1.000
    H41      H        0.37520    0.60070    0.24370    1.000
    H42      H        0.37070    0.61110    0.11460    1.000
    H43      H        0.27110    0.62190    0.67320    1.000
    H44      H        0.27260    0.49250    0.65960    1.000
    H45      H        0.47670    0.48460    0.80770    1.000
    H46      H        0.47300    0.61480    0.81370    1.000
    H47      H        0.38010    0.36940    0.83840    1.000
    H48      H        0.37520    0.25630    0.60070    1.000
    H49      H        0.37070    0.38540    0.61110    1.000
    H50      H        0.27110    0.87810    0.82680    1.000
    H51      H        0.27260    0.00750    0.84040    1.000
    H52      H        0.47670    0.01540    0.69230    1.000
    H53      H        0.47300    0.88520    0.68630    1.000
    H54      H        0.38010    0.13060    0.66160    1.000
    H55      H        0.37520    0.24370    0.89930    1.000
    H56      H        0.37070    0.11460    0.88890    1.000
    C1       C        0.81400    0.79983    0.90653    1.000
    C2       C        0.81380    0.80762    0.98369    1.000
    C3       C        0.87475    0.76680    0.02640    1.000
    C4       C        0.93420    0.72110    0.98827    1.000
    C5       C        0.93130    0.71739    0.91061    1.000
    C6       C        0.87629    0.77300    0.10940    1.000
    C7       C        0.87827    0.70970    0.15379    1.000
    C8       C        0.87764    0.71450    0.23265    1.000
    C9       C        0.87550    0.85090    0.22110    1.000
    C10      C        0.87370    0.84480    0.14460    1.000
    C11      C        0.81400    0.70017    0.59347    1.000
    C12      C        0.81380    0.69238    0.51631    1.000
    C13      C        0.87475    0.73320    0.47360    1.000
    C14      C        0.93420    0.77890    0.51173    1.000
    C15      C        0.93130    0.78261    0.58939    1.000
    C16      C        0.87629    0.72700    0.39060    1.000
    C17      C        0.87827    0.79030    0.34621    1.000
    C18      C        0.87764    0.78550    0.26735    1.000
    C19      C        0.87550    0.64910    0.27890    1.000
    C20      C        0.87370    0.65520    0.35540    1.000
    C21      C        0.81400    0.59347    0.79983    1.000
    C22      C        0.81380    0.51631    0.80762    1.000
    C23      C        0.87475    0.47360    0.76680    1.000
    C24      C        0.93420    0.51173    0.72110    1.000
    C25      C        0.93130    0.58939    0.71739    1.000
    C26      C        0.87629    0.39060    0.77300    1.000
    C27      C        0.87827    0.34621    0.70970    1.000
    C28      C        0.87764    0.26735    0.71450    1.000
    C29      C        0.87550    0.27890    0.85090    1.000
    C30      C        0.87370    0.35540    0.84480    1.000
    C31      C        0.81400    0.90653    0.70017    1.000
    C32      C        0.81380    0.98369    0.69238    1.000
    C33      C        0.87475    0.02640    0.73320    1.000
    C34      C        0.93420    0.98827    0.77890    1.000
    C35      C        0.93130    0.91061    0.78261    1.000
    C36      C        0.87629    0.10940    0.72700    1.000
    C37      C        0.87827    0.15379    0.79030    1.000
    C38      C        0.87764    0.23265    0.78550    1.000
    C39      C        0.87550    0.22110    0.64910    1.000
    C40      C        0.87370    0.14460    0.65520    1.000
    C41      C        0.31400    0.79983    0.59347    1.000
    C42      C        0.31380    0.80762    0.51631    1.000
    C43      C        0.37475    0.76680    0.47360    1.000
    C44      C        0.43420    0.72110    0.51173    1.000
    C45      C        0.43130    0.71739    0.58939    1.000
    C46      C        0.37629    0.77300    0.39060    1.000
    C47      C        0.37827    0.70970    0.34621    1.000
    C48      C        0.37764    0.71450    0.26735    1.000
    C49      C        0.37550    0.85090    0.27890    1.000
    C50      C        0.37370    0.84480    0.35540    1.000
    C51      C        0.31400    0.70017    0.90653    1.000
    C52      C        0.31380    0.69238    0.98369    1.000
    C53      C        0.37475    0.73320    0.02640    1.000
    C54      C        0.43420    0.77890    0.98827    1.000
    C55      C        0.43130    0.78261    0.91061    1.000
    C56      C        0.37629    0.72700    0.10940    1.000
    C57      C        0.37827    0.79030    0.15379    1.000
    C58      C        0.37764    0.78550    0.23265    1.000
    C59      C        0.37550    0.64910    0.22110    1.000
    C60      C        0.37370    0.65520    0.14460    1.000
    C61      C        0.31400    0.59347    0.70017    1.000
    C62      C        0.31380    0.51631    0.69238    1.000
    C63      C        0.37475    0.47360    0.73320    1.000
    C64      C        0.43420    0.51173    0.77890    1.000
    C65      C        0.43130    0.58939    0.78261    1.000
    C66      C        0.37629    0.39060    0.72700    1.000
    C67      C        0.37827    0.34621    0.79030    1.000
    C68      C        0.37764    0.26735    0.78550    1.000
    C69      C        0.37550    0.27890    0.64910    1.000
    C70      C        0.37370    0.35540    0.65520    1.000
    C71      C        0.31400    0.90653    0.79983    1.000
    C72      C        0.31380    0.98369    0.80762    1.000
    C73      C        0.37475    0.02640    0.76680    1.000
    C74      C        0.43420    0.98827    0.72110    1.000
    C75      C        0.43130    0.91061    0.71739    1.000
    C76      C        0.37629    0.10940    0.77300    1.000
    C77      C        0.37827    0.15379    0.70970    1.000
    C78      C        0.37764    0.23265    0.71450    1.000
    C79      C        0.37550    0.22110    0.85090    1.000
    C80      C        0.37370    0.14460    0.84480    1.000
    N1       N        0.87193    0.75602    0.86984    1.000
    N2       N        0.87193    0.74398    0.63016    1.000
    N3       N        0.87193    0.63016    0.75602    1.000
    N4       N        0.87193    0.86984    0.74398    1.000
    N5       N        0.37193    0.75602    0.63016    1.000
    N6       N        0.37193    0.74398    0.86984    1.000
    N7       N        0.37193    0.63016    0.74398    1.000
    N8       N        0.37193    0.86984    0.75602    1.000
    F1       F        0.62137    0.69930    0.82896    1.000
    F2       F        0.62137    0.80070    0.67104    1.000
    F3       F        0.62137    0.67104    0.69930    1.000
    F4       F        0.62137    0.82896    0.80070    1.000
    F5       F        0.12137    0.69930    0.67104    1.000
    F6       F        0.12137    0.80070    0.82896    1.000
    F7       F        0.12137    0.67104    0.80070    1.000
    F8       F        0.12137    0.82896    0.69930    1.000
    F9       F        0.73430    0.75000    0.75000    1.000
    F10      F        0.50870    0.75000    0.75000    1.000
    F11      F        0.23430    0.75000    0.75000    1.000
    F12      F        0.00870    0.75000    0.75000    1.000
    Zn3      Zn       0.62844    0.25000    0.25000    1.000
    Zn4      Zn       0.12844    0.25000    0.25000    1.000
    Si3      Si       0.87853    0.25000    0.25000    1.000
    Si4      Si       0.37853    0.25000    0.25000    1.000
    H57      H        0.72890    0.17320    0.37810    1.000
    H58      H        0.72740    0.15960    0.50750    1.000
    H59      H        0.52330    0.30770    0.51540    1.000
    H60      H        0.52700    0.31370    0.38520    1.000
    H61      H        0.61990    0.33840    0.63060    1.000
    H62      H        0.62480    0.10070    0.74370    1.000
    H63      H        0.62930    0.11110    0.61460    1.000
    H64      H        0.72890    0.32680    0.12190    1.000
    H65      H        0.72740    0.34040    0.99250    1.000
    H66      H        0.52330    0.19230    0.98460    1.000
    H67      H        0.52700    0.18630    0.11480    1.000
    H68      H        0.61990    0.16160    0.86940    1.000
    H69      H        0.62480    0.39930    0.75630    1.000
    H70      H        0.62930    0.38890    0.88540    1.000
    H71      H        0.72890    0.37810    0.32680    1.000
    H72      H        0.72740    0.50750    0.34040    1.000
    H73      H        0.52330    0.51540    0.19230    1.000
    H74      H        0.52700    0.38520    0.18630    1.000
    H75      H        0.61990    0.63060    0.16160    1.000
    H76      H        0.62480    0.74370    0.39930    1.000
    H77      H        0.62930    0.61460    0.38890    1.000
    H78      H        0.72890    0.12190    0.17320    1.000
    H79      H        0.72740    0.99250    0.15960    1.000
    H80      H        0.52330    0.98460    0.30770    1.000
    H81      H        0.52700    0.11480    0.31370    1.000
    H82      H        0.61990    0.86940    0.33840    1.000
    H83      H        0.62480    0.75630    0.10070    1.000
    H84      H        0.62930    0.88540    0.11110    1.000
    H85      H        0.22890    0.17320    0.12190    1.000
    H86      H        0.22740    0.15960    0.99250    1.000
    H87      H        0.02330    0.30770    0.98460    1.000
    H88      H        0.02700    0.31370    0.11480    1.000
    H89      H        0.11990    0.33840    0.86940    1.000
    H90      H        0.12480    0.10070    0.75630    1.000
    H91      H        0.12930    0.11110    0.88540    1.000
    H92      H        0.22890    0.32680    0.37810    1.000
    H93      H        0.22740    0.34040    0.50750    1.000
    H94      H        0.02330    0.19230    0.51540    1.000
    H95      H        0.02700    0.18630    0.38520    1.000
    H96      H        0.11990    0.16160    0.63060    1.000
    H97      H        0.12480    0.39930    0.74370    1.000
    H98      H        0.12930    0.38890    0.61460    1.000
    H99      H        0.22890    0.37810    0.17320    1.000
    H100     H        0.22740    0.50750    0.15960    1.000
    H101     H        0.02330    0.51540    0.30770    1.000
    H102     H        0.02700    0.38520    0.31370    1.000
    H103     H        0.11990    0.63060    0.33840    1.000
    H104     H        0.12480    0.74370    0.10070    1.000
    H105     H        0.12930    0.61460    0.11110    1.000
    H106     H        0.22890    0.12190    0.32680    1.000
    H107     H        0.22740    0.99250    0.34040    1.000
    H108     H        0.02330    0.98460    0.19230    1.000
    H109     H        0.02700    0.11480    0.18630    1.000
    H110     H        0.11990    0.86940    0.16160    1.000
    H111     H        0.12480    0.75630    0.39930    1.000
    H112     H        0.12930    0.88540    0.38890    1.000
    C81      C        0.68600    0.20017    0.40653    1.000
    C82      C        0.68620    0.19238    0.48369    1.000
    C83      C        0.62525    0.23320    0.52640    1.000
    C84      C        0.56580    0.27890    0.48827    1.000
    C85      C        0.56870    0.28261    0.41061    1.000
    C86      C        0.62371    0.22700    0.60940    1.000
    C87      C        0.62173    0.29030    0.65379    1.000
    C88      C        0.62236    0.28550    0.73265    1.000
    C89      C        0.62450    0.14910    0.72110    1.000
    C90      C        0.62630    0.15520    0.64460    1.000
    C91      C        0.68600    0.29983    0.09347    1.000
    C92      C        0.68620    0.30762    0.01631    1.000
    C93      C        0.62525    0.26680    0.97360    1.000
    C94      C        0.56580    0.22110    0.01173    1.000
    C95      C        0.56870    0.21739    0.08939    1.000
    C96      C        0.62371    0.27300    0.89060    1.000
    C97      C        0.62173    0.20970    0.84621    1.000
    C98      C        0.62236    0.21450    0.76735    1.000
    C99      C        0.62450    0.35090    0.77890    1.000
    C100     C        0.62630    0.34480    0.85540    1.000
    C101     C        0.68600    0.40653    0.29983    1.000
    C102     C        0.68620    0.48369    0.30762    1.000
    C103     C        0.62525    0.52640    0.26680    1.000
    C104     C        0.56580    0.48827    0.22110    1.000
    C105     C        0.56870    0.41061    0.21739    1.000
    C106     C        0.62371    0.60940    0.27300    1.000
    C107     C        0.62173    0.65379    0.20970    1.000
    C108     C        0.62236    0.73265    0.21450    1.000
    C109     C        0.62450    0.72110    0.35090    1.000
    C110     C        0.62630    0.64460    0.34480    1.000
    C111     C        0.68600    0.09347    0.20017    1.000
    C112     C        0.68620    0.01631    0.19238    1.000
    C113     C        0.62525    0.97360    0.23320    1.000
    C114     C        0.56580    0.01173    0.27890    1.000
    C115     C        0.56870    0.08939    0.28261    1.000
    C116     C        0.62371    0.89060    0.22700    1.000
    C117     C        0.62173    0.84621    0.29030    1.000
    C118     C        0.62236    0.76735    0.28550    1.000
    C119     C        0.62450    0.77890    0.14910    1.000
    C120     C        0.62630    0.85540    0.15520    1.000
    C121     C        0.18600    0.20017    0.09347    1.000
    C122     C        0.18620    0.19238    0.01631    1.000
    C123     C        0.12525    0.23320    0.97360    1.000
    C124     C        0.06580    0.27890    0.01173    1.000
    C125     C        0.06870    0.28261    0.08939    1.000
    C126     C        0.12371    0.22700    0.89060    1.000
    C127     C        0.12173    0.29030    0.84621    1.000
    C128     C        0.12236    0.28550    0.76735    1.000
    C129     C        0.12450    0.14910    0.77890    1.000
    C130     C        0.12630    0.15520    0.85540    1.000
    C131     C        0.18600    0.29983    0.40653    1.000
    C132     C        0.18620    0.30762    0.48369    1.000
    C133     C        0.12525    0.26680    0.52640    1.000
    C134     C        0.06580    0.22110    0.48827    1.000
    C135     C        0.06870    0.21739    0.41061    1.000
    C136     C        0.12371    0.27300    0.60940    1.000
    C137     C        0.12173    0.20970    0.65379    1.000
    C138     C        0.12236    0.21450    0.73265    1.000
    C139     C        0.12450    0.35090    0.72110    1.000
    C140     C        0.12630    0.34480    0.64460    1.000
    C141     C        0.18600    0.40653    0.20017    1.000
    C142     C        0.18620    0.48369    0.19238    1.000
    C143     C        0.12525    0.52640    0.23320    1.000
    C144     C        0.06580    0.48827    0.27890    1.000
    C145     C        0.06870    0.41061    0.28261    1.000
    C146     C        0.12371    0.60940    0.22700    1.000
    C147     C        0.12173    0.65379    0.29030    1.000
    C148     C        0.12236    0.73265    0.28550    1.000
    C149     C        0.12450    0.72110    0.14910    1.000
    C150     C        0.12630    0.64460    0.15520    1.000
    C151     C        0.18600    0.09347    0.29983    1.000
    C152     C        0.18620    0.01631    0.30762    1.000
    C153     C        0.12525    0.97360    0.26680    1.000
    C154     C        0.06580    0.01173    0.22110    1.000
    C155     C        0.06870    0.08939    0.21739    1.000
    C156     C        0.12371    0.89060    0.27300    1.000
    C157     C        0.12173    0.84621    0.20970    1.000
    C158     C        0.12236    0.76735    0.21450    1.000
    C159     C        0.12450    0.77890    0.35090    1.000
    C160     C        0.12630    0.85540    0.34480    1.000
    N9       N        0.62807    0.24398    0.36984    1.000
    N10      N        0.62807    0.25602    0.13016    1.000
    N11      N        0.62807    0.36984    0.25602    1.000
    N12      N        0.62807    0.13016    0.24398    1.000
    N13      N        0.12807    0.24398    0.13016    1.000
    N14      N        0.12807    0.25602    0.36984    1.000
    N15      N        0.12807    0.36984    0.24398    1.000
    N16      N        0.12807    0.13016    0.25602    1.000
    F13      F        0.87863    0.30070    0.32896    1.000
    F14      F        0.87863    0.19930    0.17104    1.000
    F15      F        0.87863    0.32896    0.19930    1.000
    F16      F        0.87863    0.17104    0.30070    1.000
    F17      F        0.37863    0.30070    0.17104    1.000
    F18      F        0.37863    0.19930    0.32896    1.000
    F19      F        0.37863    0.32896    0.30070    1.000
    F20      F        0.37863    0.17104    0.19930    1.000
    F21      F        0.76570    0.25000    0.25000    1.000
    F22      F        0.99130    0.25000    0.25000    1.000
    F23      F        0.26570    0.25000    0.25000    1.000
    F24      F        0.49130    0.25000    0.25000    1.000
