data_functionalizedCrystal
_audit_creation_method	'EQeq! by Chris Wilmer'
_symmetry_space_group_name_H-M	'P1'
_symmetry_Int_Tables_number	1
_symmetry_cell_setting	triclinic
loop_
_symmetry_equiv_pos_as_xyz
  x,y,z
_cell_length_a	18.024
_cell_length_b	19.371
_cell_length_c	23.242
_cell_angle_alpha	89.45
_cell_angle_beta	87.05
_cell_angle_gamma	63.73
loop_
_atom_site_label
_atom_site_type_symbol
_atom_site_fract_x
_atom_site_fract_y
_atom_site_fract_z
_atom_site_charge
Mof_K 	K 	0.3114	0.0437	0.5624	1.549
Mof_K 	K 	0.8867	0.9317	0.4406	4.202
Mof_Na	Na	0.1073	0.1454	0.6183	-2.131
Mof_W 	W 	0.93961	0.61802	0.59993	1.015
Mof_W 	W 	0.67766	0.94753	0.61314	1.459
Mof_W 	W 	0.92561	0.60061	0.89093	1.084
Mof_W 	W 	0.69672	0.7217	0.89228	1.341
Mof_W 	W 	0.1374	0.06936	0.0927	1.024
Mof_W 	W 	0.68085	0.58342	0.66733	1.006
Mof_W 	W 	0.71129	0.74371	0.60291	1.027
Mof_W 	W 	0.57823	0.11861	0.83771	1.38
Mof_W 	W 	0.11707	0.46615	0.66822	1.041
Mof_W 	W 	0.10081	0.45083	0.8094	1.077
Mof_W 	W 	0.49947	0.79075	0.81885	1.067
Mof_W 	W 	0.88517	0.9473	0.61674	1.43
Mof_W 	W 	0.1809	0.7824	0.82832	1.036
Mof_W 	W 	0.0476	0.74339	0.60783	1.001
Mof_W 	W 	0.5126	0.78589	0.67609	0.967
Mof_W 	W 	0.91257	0.45874	0.66535	1.029
Mof_W 	W 	0.22318	0.59581	0.67745	0.994
Mof_W 	W 	0.47466	0.9944	0.68675	1.382
Mof_W 	W 	0.6566	0.58416	0.80922	1.089
Mof_W 	W 	0.46484	0.99746	0.82872	1.047
Mof_W 	W 	0.97002	0.27117	0.10093	1.396
Mof_W 	W 	0.18093	0.80317	0.68669	0.944
Mof_W 	W 	0.88909	0.45794	0.80748	1.428
Mof_W 	W 	0.57529	0.12677	0.69603	1.047
Mof_W 	W 	0.0157	0.98859	0.83804	1.103
Mof_W 	W 	0.21005	0.57832	0.81897	1.084
Mof_W 	W 	0.78393	0.12996	0.69898	1.041
Mof_W 	W 	0.78761	0.11931	0.84093	1.09
Mof_W 	W 	0.01441	0.0096	0.69695	1.392
Mof_W 	W 	0.657	0.92719	0.90365	0.959
Mof_Eu	Eu	0.1606	0.2112	0.1719	9.224
Mof_Eu	Eu	0.84871	0.79497	0.67864	2.849
Mof_Eu	Eu	0.39661	0.27721	0.94381	1.963
Mof_Eu	Eu	0.9558	0.284	0.9254	1.252
Mof_Eu	Eu	0.0829	0.7029	0.0729	0.936
Mof_P 	P 	0.9393	0.5931	0.7459	0.724
Mof_P 	P 	0.6528	0.9501	0.7588	0.746
Mof_P 	P 	0.877	0.9524	0.7633	0.731
Mof_P 	P 	0.6902	0.7281	0.7482	0.714
Mof_P 	P 	0.9451	0.2689	0.2452	0.741
Mof_O 	O 	0.8934	0.9681	0.5451	-1.137
Mof_O 	O 	0.5352	0.1766	0.7685	-0.472
Mof_O 	O 	0.7168	0.8383	0.6089	-0.703
Mof_O 	O 	0.7239	0.7402	0.8033	-0.783
Mof_O 	O 	0.8301	0.6966	0.6031	-0.65
Mof_O 	O 	0.998	0.2584	0.1908	-0.867
Mof_O 	O 	0.7128	0.6481	0.6209	-0.489
Mof_O 	O 	0.1541	0.4064	0.7356	-0.439
Mof_O 	O 	0.872	0.9141	0.7083	-0.561
Mof_O 	O 	0.0457	0.5462	0.6212	-0.486
Mof_O 	O 	0.2745	0.553	0.748	-0.454
Mof_O 	O 	0.8978	0.382	0.8505	-0.563
Mof_O 	O 	0.5829	0.7752	0.8715	-0.492
Mof_O 	O 	0.4528	0.7896	0.7465	-0.471
Mof_O 	O 	0.2346	0.796	0.7566	-0.457
Mof_O 	O 	0.7324	0.7493	0.6966	-0.494
Mof_O 	O 	0.791	0.5086	0.6726	-0.451
Mof_O 	O 	0.5186	0.1889	0.8892	-0.616
Mof_O 	O 	0.553	0.9428	0.879	-0.483
Mof_O 	O 	0.9507	0.2829	0.0297	-0.595
Mof_O 	O 	0.5709	0.9561	0.6365	-0.563
Mof_O 	O 	0.6275	0.0327	0.8853	-0.499
Mof_O 	O 	0.8127	0.6742	0.8976	-0.924
Mof_O 	O 	0.1722	0.5052	0.8075	-0.454
Mof_O 	O 	0.8891	0.5273	0.8618	-0.493
Mof_O 	O 	0.8145	0.0474	0.6456	-0.556
Mof_O 	O 	0.6438	0.0485	0.6428	-0.543
Mof_O 	O 	0.7044	0.6439	0.7422	-0.4
Mof_O 	O 	0.0666	0.1759	0.0941	-0.974
Mof_O 	O 	0.5944	0.7802	0.748	-0.391
Mof_O 	O 	0.1339	0.6498	0.6279	-0.489
Mof_O 	O 	0.5737	0.6785	0.673	-0.467
Mof_O 	O 	0.5015	0.0828	0.6951	-0.478
Mof_O 	O 	0.8666	0.9085	0.817	-0.897
Mof_O 	O 	0.598	0.7914	0.6265	-0.498
Mof_O 	O 	0.8107	0.0369	0.7651	-0.406
Mof_O 	O 	0.8965	0.5382	0.743	-0.424
Mof_O 	O 	0.1064	0.8957	0.8282	-0.462
Mof_O 	O 	0.7892	0.9283	0.6133	-0.769
Mof_O 	O 	0.1063	0.7945	0.6352	-0.533
Mof_O 	O 	0.6365	0.0343	0.7632	-0.431
Mof_O 	O 	0.9624	0.9551	0.7627	-0.436
Mof_O 	O 	0.9015	0.5441	0.6179	-0.484
Mof_O 	O 	0.6936	0.9092	0.8126	-0.809
Mof_O 	O 	0.0329	0.5298	0.8641	-0.468
Mof_O 	O 	0.566	0.9533	0.7553	-0.428
Mof_O 	O 	0.111	0.9093	0.6987	-0.521
Mof_O 	O 	0.9029	0.0793	0.8367	-0.433
Mof_O 	O 	0.4131	0.0255	0.7585	-0.495
Mof_O 	O 	0.6464	0.5469	0.7345	-0.459
Mof_O 	O 	0.2301	0.6892	0.6842	-0.468
Mof_O 	O 	0.9007	0.2162	0.2431	-0.393
Mof_O 	O 	0.9705	0.7012	0.606	-0.67
Mof_O 	O 	0.0118	0.4301	0.8025	-0.451
Mof_O 	O 	0.1219	0.649	0.7504	-0.404
Mof_O 	O 	0.7063	0.9136	0.7039	-0.551
Mof_O 	O 	0.696	0.8181	0.9022	-0.96
Mof_O 	O 	0.2229	0.6768	0.8196	-0.452
Mof_O 	O 	0.042	0.0525	0.1141	-0.466
Mof_O 	O 	0.9056	0.2218	0.1198	-0.489
Mof_O 	O 	0.668	0.7104	0.9642	-0.67
Mof_O 	O 	0.7752	0.178	0.7716	-0.45
Mof_O 	O 	0.769	0.9133	0.9093	-0.936
Mof_O 	O 	0.0023	0.7521	0.7016	-0.516
Mof_O 	O 	0.6948	0.6313	0.8627	-0.489
Mof_O 	O 	0.0232	0.437	0.669	-0.453
Mof_O 	O 	0.6707	0.1342	0.8341	-0.483
Mof_O 	O 	0.1227	0.6338	0.8724	-0.486
Mof_O 	O 	0.4771	0.8978	0.6874	-0.518
Mof_O 	O 	0.035	0.5406	0.7426	-0.393
Mof_O 	O 	0.9127	0.636	0.8023	-0.793
Mof_O 	O 	0.467	0.8935	0.8188	-0.473
Mof_O 	O 	0.9095	0.4072	0.7335	-0.462
Mof_O 	O 	0.9583	0.6783	0.8998	-0.962
Mof_O 	O 	0.9183	0.6458	0.6945	-0.51
Mof_O 	O 	0.9501	0.8383	0.6121	-0.738
Mof_O 	O 	0.1804	0.5168	0.6759	-0.45
Mof_O 	O 	0.6779	0.1418	0.7023	-0.473
Mof_O 	O 	0.5596	0.676	0.8095	-0.46
Mof_O 	O 	0.909	0.0909	0.7013	-0.49
Mof_O 	O 	0.4942	0.0767	0.8313	-0.486
Mof_O 	O 	0.396	0.0412	0.6404	-0.729
Mof_O 	O 	0.9777	0.961	0.6415	-0.626
Mof_O 	O 	0.3359	0.0328	0.4581	-0.859
Mof_O 	O 	0.7752	0.5048	0.8004	-0.466
Mof_O 	O 	0.0446	0.0302	0.7702	-0.455
Mof_O 	O 	0.2018	0.9646	0.1132	-0.468
Mof_O 	O 	0.9387	0.9495	0.3495	-0.903
Mof_O 	O 	0.8399	0.7892	0.7782	-4.44
Mof_O 	O 	0.415	0.375	0.013	-0.223
Mof_O 	O 	0.481	0.332	0.966	-0.343
Mof_O 	O 	0.9323	0.2166	0.8414	-0.296
Mof_O 	O 	0.0652	0.27	0.8535	-0.285
Mof_O 	O 	0.994	0.63	0.0556	-0.304
Mof_O 	O 	0.118	0.798	0.039	-0.332
Mof_O 	O 	0.946	0.412	0.96	-0.144
Mof_O 	O 	0.052	0.163	0.9369	-0.393
Mof_O 	O 	0.193	0.642	0.06	-0.371
Mof_O 	O 	0.828	0.408	0.968	-0.192
Mof_O 	O 	0.398	0.341	0.854	-0.452
Mof_O 	O 	0.347	0.258	0.8507	-0.517
Mof_C 	C 	0.364	0.316	0.7611	-0.151
Mof_C 	C 	0.343	0.27	0.73	0.106
Mof_H 	H 	0.331	0.2321	0.7487	0.006
Mof_N 	N 	0.3382	0.2781	0.6726	-0.22
Mof_H 	H 	0.3243	0.2479	0.6523	0.07
Mof_C 	C 	0.355	0.332	0.6462	0.077
Mof_H 	H 	0.3517	0.3377	0.6056	-0.065
Mof_C 	C 	0.376	0.378	0.6772	-0.17
Mof_H 	H 	0.3879	0.4164	0.6586	0.039
Mof_C 	C 	0.381	0.37	0.7347	0.09
Mof_H 	H 	0.3957	0.4029	0.7566	0.005
Mof_C 	C 	0.374	0.295	0.826	0.373
Mof_K 	K 	0.6886	0.9563	0.4376	1.549
Mof_K 	K 	0.1133	0.0683	0.5594	4.202
Mof_Na	Na	0.8927	0.8546	0.3817	-2.131
Mof_W 	W 	0.06039	0.38198	0.40007	1.015
Mof_W 	W 	0.32234	0.05247	0.38686	1.459
Mof_W 	W 	0.07439	0.39939	0.10907	1.084
Mof_W 	W 	0.30328	0.2783	0.10772	1.341
Mof_W 	W 	0.8626	0.93064	0.9073	1.024
Mof_W 	W 	0.31915	0.41658	0.33267	1.006
Mof_W 	W 	0.28871	0.25629	0.39709	1.027
Mof_W 	W 	0.42177	0.88139	0.16229	1.38
Mof_W 	W 	0.88293	0.53385	0.33178	1.041
Mof_W 	W 	0.89919	0.54917	0.1906	1.077
Mof_W 	W 	0.50053	0.20925	0.18115	1.067
Mof_W 	W 	0.11483	0.0527	0.38326	1.43
Mof_W 	W 	0.8191	0.2176	0.17168	1.036
Mof_W 	W 	0.9524	0.25661	0.39217	1.001
Mof_W 	W 	0.4874	0.21411	0.32391	0.967
Mof_W 	W 	0.08743	0.54126	0.33465	1.029
Mof_W 	W 	0.77682	0.40419	0.32255	0.994
Mof_W 	W 	0.52534	0.0056	0.31325	1.382
Mof_W 	W 	0.3434	0.41584	0.19078	1.089
Mof_W 	W 	0.53516	0.00254	0.17128	1.047
Mof_W 	W 	0.02998	0.72883	0.89907	1.396
Mof_W 	W 	0.81907	0.19683	0.31331	0.944
Mof_W 	W 	0.11091	0.54206	0.19252	1.428
Mof_W 	W 	0.42471	0.87323	0.30397	1.047
Mof_W 	W 	0.9843	0.01141	0.16196	1.103
Mof_W 	W 	0.78995	0.42168	0.18103	1.084
Mof_W 	W 	0.21607	0.87004	0.30102	1.041
Mof_W 	W 	0.21239	0.88069	0.15907	1.09
Mof_W 	W 	0.98559	0.9904	0.30305	1.392
Mof_W 	W 	0.343	0.07281	0.09635	0.959
Mof_Eu	Eu	0.8394	0.7888	0.8281	9.224
Mof_Eu	Eu	0.15129	0.20503	0.32136	2.849
Mof_Eu	Eu	0.60339	0.72279	0.05619	1.963
Mof_Eu	Eu	0.0442	0.716	0.0746	1.252
Mof_Eu	Eu	0.9171	0.2971	0.9271	0.936
Mof_P 	P 	0.0607	0.4069	0.2541	0.724
Mof_P 	P 	0.3472	0.0499	0.2412	0.746
Mof_P 	P 	0.123	0.0476	0.2367	0.731
Mof_P 	P 	0.3098	0.2719	0.2518	0.714
Mof_P 	P 	0.0549	0.7311	0.7548	0.741
Mof_O 	O 	0.1066	0.0319	0.4549	-1.137
Mof_O 	O 	0.4648	0.8234	0.2315	-0.472
Mof_O 	O 	0.2832	0.1617	0.3911	-0.703
Mof_O 	O 	0.2761	0.2598	0.1967	-0.783
Mof_O 	O 	0.1699	0.3034	0.3969	-0.65
Mof_O 	O 	0.002	0.7416	0.8092	-0.867
Mof_O 	O 	0.2872	0.3519	0.3791	-0.489
Mof_O 	O 	0.8459	0.5936	0.2644	-0.439
Mof_O 	O 	0.128	0.0859	0.2917	-0.561
Mof_O 	O 	0.9543	0.4538	0.3788	-0.486
Mof_O 	O 	0.7255	0.447	0.252	-0.454
Mof_O 	O 	0.1022	0.618	0.1495	-0.563
Mof_O 	O 	0.4171	0.2248	0.1285	-0.492
Mof_O 	O 	0.5472	0.2104	0.2535	-0.471
Mof_O 	O 	0.7654	0.204	0.2434	-0.457
Mof_O 	O 	0.2676	0.2507	0.3034	-0.494
Mof_O 	O 	0.209	0.4914	0.3274	-0.451
Mof_O 	O 	0.4814	0.8111	0.1108	-0.616
Mof_O 	O 	0.447	0.0572	0.121	-0.483
Mof_O 	O 	0.0493	0.7171	0.9703	-0.595
Mof_O 	O 	0.4291	0.0439	0.3635	-0.563
Mof_O 	O 	0.3725	0.9673	0.1147	-0.499
Mof_O 	O 	0.1873	0.3258	0.1024	-0.924
Mof_O 	O 	0.8278	0.4948	0.1925	-0.454
Mof_O 	O 	0.1109	0.4727	0.1382	-0.493
Mof_O 	O 	0.1855	0.9526	0.3544	-0.556
Mof_O 	O 	0.3562	0.9515	0.3572	-0.543
Mof_O 	O 	0.2956	0.3561	0.2578	-0.4
Mof_O 	O 	0.9334	0.8241	0.9059	-0.974
Mof_O 	O 	0.4056	0.2198	0.252	-0.391
Mof_O 	O 	0.8661	0.3502	0.3721	-0.489
Mof_O 	O 	0.4263	0.3215	0.327	-0.467
Mof_O 	O 	0.4985	0.9172	0.3049	-0.478
Mof_O 	O 	0.1334	0.0915	0.183	-0.897
Mof_O 	O 	0.402	0.2086	0.3735	-0.498
Mof_O 	O 	0.1893	0.9631	0.2349	-0.406
Mof_O 	O 	0.1035	0.4618	0.257	-0.424
Mof_O 	O 	0.8936	0.1043	0.1718	-0.462
Mof_O 	O 	0.2108	0.0717	0.3867	-0.769
Mof_O 	O 	0.8937	0.2055	0.3648	-0.533
Mof_O 	O 	0.3635	0.9657	0.2368	-0.431
Mof_O 	O 	0.0376	0.0449	0.2373	-0.436
Mof_O 	O 	0.0985	0.4559	0.3821	-0.484
Mof_O 	O 	0.3064	0.0908	0.1874	-0.809
Mof_O 	O 	0.9671	0.4702	0.1359	-0.468
Mof_O 	O 	0.434	0.0467	0.2447	-0.428
Mof_O 	O 	0.889	0.0907	0.3013	-0.521
Mof_O 	O 	0.0971	0.9207	0.1633	-0.433
Mof_O 	O 	0.5869	0.9745	0.2415	-0.495
Mof_O 	O 	0.3536	0.4531	0.2655	-0.459
Mof_O 	O 	0.7699	0.3108	0.3158	-0.468
Mof_O 	O 	0.0993	0.7838	0.7569	-0.393
Mof_O 	O 	0.0295	0.2988	0.394	-0.67
Mof_O 	O 	0.9882	0.5699	0.1975	-0.451
Mof_O 	O 	0.8781	0.351	0.2496	-0.404
Mof_O 	O 	0.2937	0.0864	0.2961	-0.551
Mof_O 	O 	0.304	0.1819	0.0978	-0.96
Mof_O 	O 	0.7771	0.3232	0.1804	-0.452
Mof_O 	O 	0.958	0.9475	0.8859	-0.466
Mof_O 	O 	0.0944	0.7782	0.8802	-0.489
Mof_O 	O 	0.332	0.2896	0.0358	-0.67
Mof_O 	O 	0.2248	0.822	0.2284	-0.45
Mof_O 	O 	0.231	0.0867	0.0907	-0.936
Mof_O 	O 	0.9977	0.2479	0.2984	-0.516
Mof_O 	O 	0.3052	0.3687	0.1373	-0.489
Mof_O 	O 	0.9768	0.563	0.331	-0.453
Mof_O 	O 	0.3293	0.8658	0.1659	-0.483
Mof_O 	O 	0.8773	0.3662	0.1276	-0.486
Mof_O 	O 	0.5229	0.1022	0.3126	-0.518
Mof_O 	O 	0.965	0.4594	0.2574	-0.393
Mof_O 	O 	0.0873	0.364	0.1977	-0.793
Mof_O 	O 	0.533	0.1065	0.1812	-0.473
Mof_O 	O 	0.0905	0.5928	0.2665	-0.462
Mof_O 	O 	0.0417	0.3217	0.1002	-0.962
Mof_O 	O 	0.0817	0.3542	0.3055	-0.51
Mof_O 	O 	0.0499	0.1617	0.3879	-0.738
Mof_O 	O 	0.8196	0.4832	0.3241	-0.45
Mof_O 	O 	0.3221	0.8582	0.2977	-0.473
Mof_O 	O 	0.4404	0.324	0.1905	-0.46
Mof_O 	O 	0.091	0.9091	0.2987	-0.49
Mof_O 	O 	0.5058	0.9233	0.1687	-0.486
Mof_O 	O 	0.604	0.9588	0.3596	-0.729
Mof_O 	O 	0.0223	0.039	0.3585	-0.626
Mof_O 	O 	0.6641	0.9672	0.5419	-0.859
Mof_O 	O 	0.2248	0.4952	0.1996	-0.466
Mof_O 	O 	0.9554	0.9698	0.2298	-0.455
Mof_O 	O 	0.7982	0.0354	0.8868	-0.468
Mof_O 	O 	0.0613	0.0505	0.6505	-0.903
Mof_O 	O 	0.1601	0.2108	0.2218	-4.44
Mof_O 	O 	0.585	0.625	0.987	-0.223
Mof_O 	O 	0.519	0.668	0.034	-0.343
Mof_O 	O 	0.0677	0.7834	0.1586	-0.296
Mof_O 	O 	0.9348	0.73	0.1465	-0.285
Mof_O 	O 	0.006	0.37	0.9444	-0.304
Mof_O 	O 	0.882	0.202	0.961	-0.332
Mof_O 	O 	0.054	0.588	0.04	-0.144
Mof_O 	O 	0.948	0.837	0.0631	-0.393
Mof_O 	O 	0.807	0.358	0.94	-0.371
Mof_O 	O 	0.172	0.592	0.032	-0.192
Mof_O 	O 	0.602	0.659	0.146	-0.452
Mof_O 	O 	0.653	0.742	0.1493	-0.517
Mof_C 	C 	0.636	0.684	0.2389	-0.151
Mof_C 	C 	0.657	0.73	0.27	0.106
Mof_H 	H 	0.669	0.7679	0.2513	0.006
Mof_N 	N 	0.6618	0.7219	0.3274	-0.22
Mof_H 	H 	0.6757	0.7521	0.3477	0.07
Mof_C 	C 	0.645	0.668	0.3538	0.077
Mof_H 	H 	0.6483	0.6623	0.3944	-0.065
Mof_C 	C 	0.624	0.622	0.3228	-0.17
Mof_H 	H 	0.6121	0.5836	0.3414	0.039
Mof_C 	C 	0.619	0.63	0.2653	0.09
Mof_H 	H 	0.6043	0.5971	0.2434	0.005
Mof_C 	C 	0.626	0.705	0.174	0.373
_end
