# CIF file generated by openbabel 3.1.0, see https://openbabel.org
data_I
_chemical_name_common 'image0'
_cell_length_a 10.9221
_cell_length_b 19.266
_cell_length_c 19.4537
_cell_angle_alpha 90
_cell_angle_beta 98.385
_cell_angle_gamma 90
_space_group_name_H-M_alt 'P 1'
_space_group_name_Hall 'P 1'
loop_
    _symmetry_equiv_pos_as_xyz
    x,y,z
loop_
    _atom_site_label
    _atom_site_type_symbol
    _atom_site_fract_x
    _atom_site_fract_y
    _atom_site_fract_z
    _atom_site_occupancy
    Nd1      Nd       0.58499    0.37486    0.85784    1.000
    N1       N        0.75710    0.46377    0.91766    1.000
    C1       C        0.74430    0.50920    0.96830    1.000
    H1       H        0.67560    0.50490    0.99200    1.000
    C2       C        0.82860    0.56240    0.98720    1.000
    N2       N        0.92990    0.56840    0.95600    1.000
    C3       C        0.94580    0.52250    0.90630    1.000
    H2       H        0.01650    0.52560    0.88410    1.000
    C4       C        0.85950    0.47040    0.88690    1.000
    C5       C        0.80740    0.61470    0.04110    1.000
    H3       H        0.87110    0.61000    0.08110    1.000
    H4       H        0.72690    0.60690    0.05510    1.000
    H5       H        0.81040    0.66100    0.02190    1.000
    C6       C        0.87230    0.42010    0.82940    1.000
    O1       O        0.97330    0.41804    0.80584    1.000
    O2       O        0.77940    0.38367    0.80802    1.000
    N3       N        0.46800    0.25919    0.88886    1.000
    C7       C        0.51550    0.20780    0.92910    1.000
    H6       H        0.59760    0.21150    0.95130    1.000
    C8       C        0.44770    0.14800    0.93980    1.000
    N4       N        0.33310    0.13990    0.90670    1.000
    C9       C        0.28460    0.19200    0.86590    1.000
    H7       H        0.20350    0.18770    0.84230    1.000
    C10      C        0.35100    0.25210    0.85750    1.000
    C11      C        0.50120    0.09240    0.98830    1.000
    H8       H        0.44760    0.08460    0.02320    1.000
    H9       H        0.58250    0.10650    0.01090    1.000
    H10      H        0.50850    0.04980    0.96260    1.000
    C12      C        0.29680    0.31220    0.81500    1.000
    O3       O        0.18810    0.30659    0.78336    1.000
    O4       O        0.36370    0.36547    0.81437    1.000
    N5       N        0.48870    0.49207    0.87334    1.000
    N6       N        0.54480    0.37689    0.98200    1.000
    N7       N        0.57660    0.28650    0.76310    1.000
    Nd2      Nd       0.04936    0.37088    0.70113    1.000
    W1       W        0.46159    0.66178    0.85331    1.000
    C13      C        0.48060    0.55160    0.86800    1.000
    C14      C        0.53670    0.36410    0.03930    1.000
    C15      C        0.55890    0.24280    0.72250    1.000
    C16      C        0.64520    0.64290    0.82800    1.000
    N8       N        0.74230    0.63440    0.81240    1.000
    C17      C        0.27240    0.62730    0.83650    1.000
    N9       N        0.17100    0.60780    0.82670    1.000
    C18      C        0.43120    0.61380    0.75040    1.000
    N10      N        0.41480    0.58600    0.69760    1.000
    C19      C        0.35060    0.74200    0.89400    1.000
    N11      N        0.29000    0.78280    0.91490    1.000
    C20      C        0.59150    0.73720    0.90570    1.000
    N12      N        0.66130    0.77790    0.93100    1.000
    Nd3      Nd       0.41501    0.87486    0.64216    1.000
    N13      N        0.24290    0.96377    0.58234    1.000
    C21      C        0.25570    0.00920    0.53170    1.000
    H11      H        0.32440    0.00490    0.50800    1.000
    C22      C        0.17140    0.06240    0.51280    1.000
    N14      N        0.07010    0.06840    0.54400    1.000
    C23      C        0.05420    0.02250    0.59370    1.000
    H12      H        0.98350    0.02560    0.61590    1.000
    C24      C        0.14050    0.97040    0.61310    1.000
    C25      C        0.19260    0.11470    0.45890    1.000
    H13      H        0.12890    0.11000    0.41890    1.000
    H14      H        0.27310    0.10690    0.44490    1.000
    H15      H        0.18960    0.16100    0.47810    1.000
    C26      C        0.12770    0.92010    0.67060    1.000
    O5       O        0.02670    0.91804    0.69416    1.000
    O6       O        0.22060    0.88367    0.69198    1.000
    N15      N        0.53200    0.75919    0.61114    1.000
    C27      C        0.48450    0.70780    0.57090    1.000
    H16      H        0.40240    0.71150    0.54870    1.000
    C28      C        0.55230    0.64800    0.56020    1.000
    N16      N        0.66690    0.63990    0.59330    1.000
    C29      C        0.71540    0.69200    0.63410    1.000
    H17      H        0.79650    0.68770    0.65770    1.000
    C30      C        0.64900    0.75210    0.64250    1.000
    C31      C        0.49880    0.59240    0.51170    1.000
    H18      H        0.55240    0.58460    0.47680    1.000
    H19      H        0.41750    0.60650    0.48910    1.000
    H20      H        0.49150    0.54980    0.53740    1.000
    C32      C        0.70320    0.81220    0.68500    1.000
    O7       O        0.81190    0.80659    0.71664    1.000
    O8       O        0.63630    0.86547    0.68563    1.000
    N17      N        0.51130    0.99207    0.62666    1.000
    N18      N        0.45520    0.87689    0.51800    1.000
    N19      N        0.42340    0.78650    0.73690    1.000
    Nd4      Nd       0.95064    0.87088    0.79887    1.000
    W2       W        0.53841    0.16178    0.64669    1.000
    C33      C        0.51940    0.05160    0.63200    1.000
    C34      C        0.46330    0.86410    0.46070    1.000
    C35      C        0.44110    0.74280    0.77750    1.000
    C36      C        0.35480    0.14290    0.67200    1.000
    N20      N        0.25770    0.13440    0.68760    1.000
    C37      C        0.72760    0.12730    0.66350    1.000
    N21      N        0.82900    0.10780    0.67330    1.000
    C38      C        0.56880    0.11380    0.74960    1.000
    N22      N        0.58520    0.08600    0.80240    1.000
    C39      C        0.64940    0.24200    0.60600    1.000
    N23      N        0.71000    0.28280    0.58510    1.000
    C40      C        0.40850    0.23720    0.59430    1.000
    N24      N        0.33870    0.27790    0.56900    1.000
    Nd5      Nd       0.41501    0.62514    0.14216    1.000
    N25      N        0.24290    0.53623    0.08234    1.000
    C41      C        0.25570    0.49080    0.03170    1.000
    H21      H        0.32440    0.49510    0.00800    1.000
    C42      C        0.17140    0.43760    0.01280    1.000
    N26      N        0.07010    0.43160    0.04400    1.000
    C43      C        0.05420    0.47750    0.09370    1.000
    H22      H        0.98350    0.47440    0.11590    1.000
    C44      C        0.14050    0.52960    0.11310    1.000
    C45      C        0.19260    0.38530    0.95890    1.000
    H23      H        0.12890    0.39000    0.91890    1.000
    H24      H        0.27310    0.39310    0.94490    1.000
    H25      H        0.18960    0.33900    0.97810    1.000
    C46      C        0.12770    0.57990    0.17060    1.000
    O9       O        0.02670    0.58196    0.19416    1.000
    O10      O        0.22060    0.61633    0.19198    1.000
    N27      N        0.53200    0.74081    0.11114    1.000
    C47      C        0.48450    0.79220    0.07090    1.000
    H26      H        0.40240    0.78850    0.04870    1.000
    C48      C        0.55230    0.85200    0.06020    1.000
    N28      N        0.66690    0.86010    0.09330    1.000
    C49      C        0.71540    0.80800    0.13410    1.000
    H27      H        0.79650    0.81230    0.15770    1.000
    C50      C        0.64900    0.74790    0.14250    1.000
    C51      C        0.49880    0.90760    0.01170    1.000
    H28      H        0.55240    0.91540    0.97680    1.000
    H29      H        0.41750    0.89350    0.98910    1.000
    H30      H        0.49150    0.95020    0.03740    1.000
    C52      C        0.70320    0.68780    0.18500    1.000
    O11      O        0.81190    0.69341    0.21664    1.000
    O12      O        0.63630    0.63453    0.18563    1.000
    N29      N        0.51130    0.50793    0.12666    1.000
    N30      N        0.45520    0.62311    0.01800    1.000
    N31      N        0.42340    0.71350    0.23690    1.000
    Nd6      Nd       0.95064    0.62912    0.29887    1.000
    W3       W        0.53841    0.33822    0.14669    1.000
    C53      C        0.51940    0.44840    0.13200    1.000
    C54      C        0.46330    0.63590    0.96070    1.000
    C55      C        0.44110    0.75720    0.27750    1.000
    C56      C        0.35480    0.35710    0.17200    1.000
    N32      N        0.25770    0.36560    0.18760    1.000
    C57      C        0.72760    0.37270    0.16350    1.000
    N33      N        0.82900    0.39220    0.17330    1.000
    C58      C        0.56880    0.38620    0.24960    1.000
    N34      N        0.58520    0.41400    0.30240    1.000
    C59      C        0.64940    0.25800    0.10600    1.000
    N35      N        0.71000    0.21720    0.08510    1.000
    C60      C        0.40850    0.26280    0.09430    1.000
    N36      N        0.33870    0.22210    0.06900    1.000
    Nd7      Nd       0.58499    0.12514    0.35784    1.000
    N37      N        0.75710    0.03623    0.41766    1.000
    C61      C        0.74430    0.99080    0.46830    1.000
    H31      H        0.67560    0.99510    0.49200    1.000
    C62      C        0.82860    0.93760    0.48720    1.000
    N38      N        0.92990    0.93160    0.45600    1.000
    C63      C        0.94580    0.97750    0.40630    1.000
    H32      H        0.01650    0.97440    0.38410    1.000
    C64      C        0.85950    0.02960    0.38690    1.000
    C65      C        0.80740    0.88530    0.54110    1.000
    H33      H        0.87110    0.89000    0.58110    1.000
    H34      H        0.72690    0.89310    0.55510    1.000
    H35      H        0.81040    0.83900    0.52190    1.000
    C66      C        0.87230    0.07990    0.32940    1.000
    O13      O        0.97330    0.08196    0.30584    1.000
    O14      O        0.77940    0.11633    0.30802    1.000
    N39      N        0.46800    0.24081    0.38886    1.000
    C67      C        0.51550    0.29220    0.42910    1.000
    H36      H        0.59760    0.28850    0.45130    1.000
    C68      C        0.44770    0.35200    0.43980    1.000
    N40      N        0.33310    0.36010    0.40670    1.000
    C69      C        0.28460    0.30800    0.36590    1.000
    H37      H        0.20350    0.31230    0.34230    1.000
    C70      C        0.35100    0.24790    0.35750    1.000
    C71      C        0.50120    0.40760    0.48830    1.000
    H38      H        0.44760    0.41540    0.52320    1.000
    H39      H        0.58250    0.39350    0.51090    1.000
    H40      H        0.50850    0.45020    0.46260    1.000
    C72      C        0.29680    0.18780    0.31500    1.000
    O15      O        0.18810    0.19341    0.28336    1.000
    O16      O        0.36370    0.13453    0.31437    1.000
    N41      N        0.48870    0.00793    0.37334    1.000
    N42      N        0.54480    0.12311    0.48200    1.000
    N43      N        0.57660    0.21350    0.26310    1.000
    Nd8      Nd       0.04936    0.12912    0.20113    1.000
    W4       W        0.46159    0.83822    0.35331    1.000
    C73      C        0.48060    0.94840    0.36800    1.000
    C74      C        0.53670    0.13590    0.53930    1.000
    C75      C        0.55890    0.25720    0.22250    1.000
    C76      C        0.64520    0.85710    0.32800    1.000
    N44      N        0.74230    0.86560    0.31240    1.000
    C77      C        0.27240    0.87270    0.33650    1.000
    N45      N        0.17100    0.89220    0.32670    1.000
    C78      C        0.43120    0.88620    0.25040    1.000
    N46      N        0.41480    0.91400    0.19760    1.000
    C79      C        0.35060    0.75800    0.39400    1.000
    N47      N        0.29000    0.71720    0.41490    1.000
    C80      C        0.59150    0.76280    0.40570    1.000
    N48      N        0.66130    0.72210    0.43100    1.000
