data_functionalizedCrystal
_audit_creation_method	'EQeq! by Chris Wilmer'
_symmetry_space_group_name_H-M	'P1'
_symmetry_Int_Tables_number	1
_symmetry_cell_setting	triclinic
loop_
_symmetry_equiv_pos_as_xyz
  x,y,z
_cell_length_a	10.1617
_cell_length_b	11.6548
_cell_length_c	15.2943
_cell_angle_alpha	91.1495
_cell_angle_beta	90
_cell_angle_gamma	90
loop_
_atom_site_label
_atom_site_type_symbol
_atom_site_fract_x
_atom_site_fract_y
_atom_site_fract_z
_atom_site_charge
Mof_Mn	Mn	0.92207	0.75523	0.13184	1.114
Mof_Mn	Mn	0.11043	0.73843	0.30855	0.979
Mof_Mn	Mn	0.42207	0.74477	0.36816	1.013
Mof_Mn	Mn	0.61043	0.76157	0.19145	1.025
Mof_Mn	Mn	0.07793	0.24477	0.86816	0.898
Mof_Mn	Mn	0.88957	0.26157	0.69145	1.057
Mof_Mn	Mn	0.57793	0.25523	0.63184	0.997
Mof_Mn	Mn	0.38957	0.23843	0.80855	1.007
Mof_Mn	Mn	-0	0.5	-0	0.823
Mof_Mn	Mn	0.5	0	0.5	0.971
Mof_Mn	Mn	-0	0	-0	0.765
Mof_Mn	Mn	0.5	0.5	0.5	1.054
Mof_H 	H 	0.755	0.8672	0.3632	-0.063
Mof_H 	H 	0.047	0.473	0.262	-0.093
Mof_H 	H 	0.621	0.5389	0.0709	-0.103
Mof_H 	H 	0.224	0.9553	0.2123	-0.131
Mof_H 	H 	0.142	0.6924	0.9204	-0.102
Mof_H 	H 	0.712	0.0069	0.0289	-0.163
Mof_H 	H 	0.255	0.6328	0.1368	-0.09
Mof_H 	H 	0.547	0.027	0.238	-0.15
Mof_H 	H 	0.121	0.9611	0.4291	-0.091
Mof_H 	H 	0.724	0.5447	0.2877	-0.103
Mof_H 	H 	0.642	0.8076	0.5796	-0.067
Mof_H 	H 	0.212	0.4931	0.4711	-0.107
Mof_H 	H 	0.245	0.1328	0.6368	-0.091
Mof_H 	H 	0.953	0.527	0.738	-0.048
Mof_H 	H 	0.379	0.4611	0.9291	-0.063
Mof_H 	H 	0.776	0.0447	0.7877	-0.081
Mof_H 	H 	0.858	0.3076	0.0796	-0.033
Mof_H 	H 	0.288	0.9931	0.9711	0.007
Mof_H 	H 	0.745	0.3672	0.8632	-0.058
Mof_H 	H 	0.453	0.973	0.762	0.007
Mof_H 	H 	0.879	0.0389	0.5709	-0.081
Mof_H 	H 	0.276	0.4553	0.7123	-0.122
Mof_H 	H 	0.358	0.1924	0.4204	-0.096
Mof_H 	H 	0.788	0.5069	0.5289	-0.084
Mof_C 	C 	0.8319	0.83144	0.32724	0.438
Mof_C 	C 	0.0252	0.51826	0.20696	0.455
Mof_C 	C 	0.7133	0.56596	0.06556	0.469
Mof_C 	C 	0.1511	0.93716	0.17336	0.564
Mof_C 	C 	0.0898	0.74104	0.96244	0.56
Mof_C 	C 	0.726	0.93932	0.06362	0.56
Mof_C 	C 	0.3319	0.66856	0.17276	0.438
Mof_C 	C 	0.5252	0.98174	0.29304	0.6
Mof_C 	C 	0.2133	0.93404	0.43444	0.461
Mof_C 	C 	0.6511	0.56284	0.32664	0.489
Mof_C 	C 	0.5898	0.75896	0.53756	0.463
Mof_C 	C 	0.226	0.56068	0.43638	0.491
Mof_C 	C 	0.1681	0.16856	0.67276	0.439
Mof_C 	C 	0.9748	0.48174	0.79304	0.425
Mof_C 	C 	0.2867	0.43404	0.93444	0.443
Mof_C 	C 	0.8489	0.06284	0.82664	0.379
Mof_C 	C 	0.9102	0.25896	0.03756	0.314
Mof_C 	C 	0.274	0.06068	0.93638	0.368
Mof_C 	C 	0.6681	0.33144	0.82724	0.438
Mof_C 	C 	0.4748	0.01826	0.70696	0.293
Mof_C 	C 	0.7867	0.06596	0.56556	0.47
Mof_C 	C 	0.3489	0.43716	0.67336	0.495
Mof_C 	C 	0.4102	0.24104	0.46244	0.471
Mof_C 	C 	0.774	0.43932	0.56362	0.485
Mof_O 	O 	0.80368	0.80973	0.24736	-0.461
Mof_O 	O 	0.94029	0.81542	0.36237	-0.349
Mof_O 	O 	0.00774	0.62581	0.21628	-0.516
Mof_O 	O 	0.01977	0.46322	0.13721	-0.422
Mof_O 	O 	0.74321	0.6523	0.11468	-0.488
Mof_O 	O 	0.78957	0.51089	0.01824	-0.393
Mof_O 	O 	0.08754	0.84658	0.19152	-0.536
Mof_O 	O 	0.12904	0.00146	0.11176	-0.481
Mof_O 	O 	0.02258	0.6866	0.01907	-0.578
Mof_O 	O 	0.0962	0.8461	0.95623	-0.371
Mof_O 	O 	0.84397	0.9031	0.06634	-0.473
Mof_O 	O 	0.62987	0.89828	0.10165	-0.43
Mof_O 	O 	0.30368	0.69027	0.25264	-0.469
Mof_O 	O 	0.44029	0.68458	0.13763	-0.415
Mof_O 	O 	0.50774	0.87419	0.28372	-0.514
Mof_O 	O 	0.51977	0.03678	0.36279	-0.466
Mof_O 	O 	0.24321	0.8477	0.38532	-0.483
Mof_O 	O 	0.28957	0.98911	0.48176	-0.37
Mof_O 	O 	0.58754	0.65342	0.30848	-0.491
Mof_O 	O 	0.62904	0.49854	0.38824	-0.406
Mof_O 	O 	0.52258	0.8134	0.48093	-0.47
Mof_O 	O 	0.5962	0.6539	0.54377	-0.403
Mof_O 	O 	0.34397	0.5969	0.43366	-0.497
Mof_O 	O 	0.12987	0.60172	0.39835	-0.425
Mof_O 	O 	0.19632	0.19027	0.75264	-0.48
Mof_O 	O 	0.05971	0.18458	0.63763	-0.454
Mof_O 	O 	0.99226	0.37419	0.78372	-0.432
Mof_O 	O 	0.98023	0.53678	0.86279	-0.304
Mof_O 	O 	0.25679	0.3477	0.88532	-0.469
Mof_O 	O 	0.21043	0.48911	0.98176	-0.34
Mof_O 	O 	0.91246	0.15342	0.80848	-0.424
Mof_O 	O 	0.87096	0.99854	0.88824	-0.243
Mof_O 	O 	0.97742	0.3134	0.98093	-0.313
Mof_O 	O 	0.9038	0.1539	0.04377	-0.34
Mof_O 	O 	0.15603	0.0969	0.93366	-0.428
Mof_O 	O 	0.37013	0.10172	0.89835	-0.375
Mof_O 	O 	0.69632	0.30973	0.74736	-0.472
Mof_O 	O 	0.55971	0.31542	0.86237	-0.385
Mof_O 	O 	0.49226	0.12581	0.71628	-0.445
Mof_O 	O 	0.48023	0.96322	0.63721	-0.306
Mof_O 	O 	0.75679	0.1523	0.61468	-0.485
Mof_O 	O 	0.71043	0.01089	0.51824	-0.41
Mof_O 	O 	0.41246	0.34658	0.69152	-0.493
Mof_O 	O 	0.37096	0.50146	0.61176	-0.414
Mof_O 	O 	0.47742	0.1866	0.51907	-0.487
Mof_O 	O 	0.4038	0.3461	0.45623	-0.416
Mof_O 	O 	0.65603	0.4031	0.56634	-0.489
Mof_O 	O 	0.87013	0.39828	0.60165	-0.394
_end
