# CIF file generated by openbabel 3.1.0, see https://openbabel.org
data_I
_chemical_name_common 'image0'
_cell_length_a 16.378
_cell_length_b 16.16
_cell_length_c 5.277
_cell_angle_alpha 90
_cell_angle_beta 90
_cell_angle_gamma 90
_space_group_name_H-M_alt 'P 1'
_space_group_name_Hall 'P 1'
loop_
    _symmetry_equiv_pos_as_xyz
    x,y,z
loop_
    _atom_site_label
    _atom_site_type_symbol
    _atom_site_fract_x
    _atom_site_fract_y
    _atom_site_fract_z
    _atom_site_occupancy
    N1       N        0.25320    0.11040    0.88470    1.000
    N2       N        0.13890    0.00360    0.35850    1.000
    C1       C        0.24860    0.15220    0.05900    1.000
    C2       C        0.24540    0.20390    0.28440    1.000
    H1       H        0.29210    0.19200    0.39120    1.000
    H2       H        0.19630    0.19110    0.37980    1.000
    C3       C        0.25900    0.17640    0.96600    1.000
    C4       C        0.25100    0.25500    0.10200    1.000
    H3       H        0.20110    0.28220    0.05060    1.000
    H4       H        0.29640    0.29070    0.05340    1.000
    C5       C        0.09920    0.99740    0.18200    1.000
    C6       C        0.04550    0.99530    0.96280    1.000
    H5       H        0.05300    0.94330    0.87400    1.000
    H6       H        0.06040    0.03970    0.84800    1.000
    C7       C        0.07640    0.01030    0.26500    1.000
    C8       C        0.99760    0.01270    0.13600    1.000
    H7       H        0.97580    0.06850    0.14600    1.000
    H8       H        0.95990    0.97630    0.22390    1.000
    N3       N        0.24680    0.88960    0.88470    1.000
    N4       N        0.36110    0.99640    0.35850    1.000
    C9       C        0.25140    0.84780    0.05900    1.000
    C10      C        0.25460    0.79610    0.28440    1.000
    H9       H        0.20790    0.80800    0.39120    1.000
    H10      H        0.30370    0.80890    0.37980    1.000
    C11      C        0.24100    0.82360    0.96600    1.000
    C12      C        0.24900    0.74500    0.10200    1.000
    H11      H        0.29890    0.71780    0.05060    1.000
    H12      H        0.20360    0.70930    0.05340    1.000
    C13      C        0.40080    0.00260    0.18200    1.000
    C14      C        0.45450    0.00470    0.96280    1.000
    H13      H        0.44700    0.05670    0.87400    1.000
    H14      H        0.43960    0.96030    0.84800    1.000
    C15      C        0.42360    0.98970    0.26500    1.000
    C16      C        0.50240    0.98730    0.13600    1.000
    H15      H        0.52420    0.93150    0.14600    1.000
    H16      H        0.54010    0.02370    0.22390    1.000
    N5       N        0.24680    0.61040    0.61530    1.000
    N6       N        0.36110    0.50360    0.14150    1.000
    C17      C        0.25140    0.65220    0.44100    1.000
    C18      C        0.25460    0.70390    0.21560    1.000
    H17      H        0.20790    0.69200    0.10880    1.000
    H18      H        0.30370    0.69110    0.12020    1.000
    C19      C        0.24100    0.67640    0.53400    1.000
    C20      C        0.24900    0.75500    0.39800    1.000
    H19      H        0.29890    0.78220    0.44940    1.000
    H20      H        0.20360    0.79070    0.44660    1.000
    C21      C        0.40080    0.49740    0.31800    1.000
    C22      C        0.45450    0.49530    0.53720    1.000
    H21      H        0.44700    0.44330    0.62600    1.000
    H22      H        0.43960    0.53970    0.65200    1.000
    C23      C        0.42360    0.51030    0.23500    1.000
    C24      C        0.50240    0.51270    0.36400    1.000
    H23      H        0.52420    0.56850    0.35400    1.000
    H24      H        0.54010    0.47630    0.27610    1.000
    N7       N        0.25320    0.38960    0.61530    1.000
    N8       N        0.13890    0.49640    0.14150    1.000
    C25      C        0.24860    0.34780    0.44100    1.000
    C26      C        0.24540    0.29610    0.21560    1.000
    H25      H        0.29210    0.30800    0.10880    1.000
    H26      H        0.19630    0.30890    0.12020    1.000
    C27      C        0.25900    0.32360    0.53400    1.000
    C28      C        0.25100    0.24500    0.39800    1.000
    H27      H        0.20110    0.21780    0.44940    1.000
    H28      H        0.29640    0.20930    0.44660    1.000
    C29      C        0.09920    0.50260    0.31800    1.000
    C30      C        0.04550    0.50470    0.53720    1.000
    H29      H        0.05300    0.55670    0.62600    1.000
    H30      H        0.06040    0.46030    0.65200    1.000
    C31      C        0.07640    0.48970    0.23500    1.000
    C32      C        0.99760    0.48730    0.36400    1.000
    H31      H        0.97580    0.43150    0.35400    1.000
    H32      H        0.95990    0.52370    0.27610    1.000
    N9       N        0.74680    0.88960    0.11530    1.000
    N10      N        0.86110    0.99640    0.64150    1.000
    C33      C        0.75140    0.84780    0.94100    1.000
    C34      C        0.75460    0.79610    0.71560    1.000
    H33      H        0.70790    0.80800    0.60880    1.000
    H34      H        0.80370    0.80890    0.62020    1.000
    C35      C        0.74100    0.82360    0.03400    1.000
    C36      C        0.74900    0.74500    0.89800    1.000
    H35      H        0.79890    0.71780    0.94940    1.000
    H36      H        0.70360    0.70930    0.94660    1.000
    C37      C        0.90080    0.00260    0.81800    1.000
    C38      C        0.95450    0.00470    0.03720    1.000
    H37      H        0.94700    0.05670    0.12600    1.000
    H38      H        0.93960    0.96030    0.15200    1.000
    C39      C        0.92360    0.98970    0.73500    1.000
    C40      C        0.00240    0.98730    0.86400    1.000
    H39      H        0.02420    0.93150    0.85400    1.000
    H40      H        0.04010    0.02370    0.77610    1.000
    N11      N        0.75320    0.11040    0.11530    1.000
    N12      N        0.63890    0.00360    0.64150    1.000
    C41      C        0.74860    0.15220    0.94100    1.000
    C42      C        0.74540    0.20390    0.71560    1.000
    H41      H        0.79210    0.19200    0.60880    1.000
    H42      H        0.69630    0.19110    0.62020    1.000
    C43      C        0.75900    0.17640    0.03400    1.000
    C44      C        0.75100    0.25500    0.89800    1.000
    H43      H        0.70110    0.28220    0.94940    1.000
    H44      H        0.79640    0.29070    0.94660    1.000
    C45      C        0.59920    0.99740    0.81800    1.000
    C46      C        0.54550    0.99530    0.03720    1.000
    H45      H        0.55300    0.94330    0.12600    1.000
    H46      H        0.56040    0.03970    0.15200    1.000
    C47      C        0.57640    0.01030    0.73500    1.000
    C48      C        0.49760    0.01270    0.86400    1.000
    H47      H        0.47580    0.06850    0.85400    1.000
    H48      H        0.45990    0.97630    0.77610    1.000
    N13      N        0.75320    0.38960    0.38470    1.000
    N14      N        0.63890    0.49640    0.85850    1.000
    C49      C        0.74860    0.34780    0.55900    1.000
    C50      C        0.74540    0.29610    0.78440    1.000
    H49      H        0.79210    0.30800    0.89120    1.000
    H50      H        0.69630    0.30890    0.87980    1.000
    C51      C        0.75900    0.32360    0.46600    1.000
    C52      C        0.75100    0.24500    0.60200    1.000
    H51      H        0.70110    0.21780    0.55060    1.000
    H52      H        0.79640    0.20930    0.55340    1.000
    C53      C        0.59920    0.50260    0.68200    1.000
    C54      C        0.54550    0.50470    0.46280    1.000
    H53      H        0.55300    0.55670    0.37400    1.000
    H54      H        0.56040    0.46030    0.34800    1.000
    C55      C        0.57640    0.48970    0.76500    1.000
    C56      C        0.49760    0.48730    0.63600    1.000
    H55      H        0.47580    0.43150    0.64600    1.000
    H56      H        0.45990    0.52370    0.72390    1.000
    N15      N        0.74680    0.61040    0.38470    1.000
    N16      N        0.86110    0.50360    0.85850    1.000
    C57      C        0.75140    0.65220    0.55900    1.000
    C58      C        0.75460    0.70390    0.78440    1.000
    H57      H        0.70790    0.69200    0.89120    1.000
    H58      H        0.80370    0.69110    0.87980    1.000
    C59      C        0.74100    0.67640    0.46600    1.000
    C60      C        0.74900    0.75500    0.60200    1.000
    H59      H        0.79890    0.78220    0.55060    1.000
    H60      H        0.70360    0.79070    0.55340    1.000
    C61      C        0.90080    0.49740    0.68200    1.000
    C62      C        0.95450    0.49530    0.46280    1.000
    H61      H        0.94700    0.44330    0.37400    1.000
    H62      H        0.93960    0.53970    0.34800    1.000
    C63      C        0.92360    0.51030    0.76500    1.000
    C64      C        0.00240    0.51270    0.63600    1.000
    H63      H        0.02420    0.56850    0.64600    1.000
    H64      H        0.04010    0.47630    0.72390    1.000
    Ag1      Ag       0.25000    0.00000    0.61884    1.000
    Ag2      Ag       0.25000    0.50000    0.88116    1.000
    Ag3      Ag       0.75000    0.00000    0.38116    1.000
    Ag4      Ag       0.75000    0.50000    0.11884    1.000
