data_functionalizedCrystal
_audit_creation_method	'EQeq! by Chris Wilmer'
_symmetry_space_group_name_H-M	'P1'
_symmetry_Int_Tables_number	1
_symmetry_cell_setting	triclinic
loop_
_symmetry_equiv_pos_as_xyz
  x,y,z
_cell_length_a	32.035
_cell_length_b	14.308
_cell_length_c	8.852
_cell_angle_alpha	90
_cell_angle_beta	104.65
_cell_angle_gamma	90
loop_
_atom_site_label
_atom_site_type_symbol
_atom_site_fract_x
_atom_site_fract_y
_atom_site_fract_z
_atom_site_charge
Mof_P 	P 	0.957	0.6194	0.9073	1.261
Mof_P 	P 	0.8113	0.4649	0.9831	1.676
Mof_P 	P 	0.8192	0.7831	0.9949	1.338
Mof_Al	Al	0.7714	0.6278	0.1454	6.056
Mof_Al	Al	0.8545	0.6189	0.8233	5.999
Mof_O 	O 	0.9643	0.5292	0.821	-1.495
Mof_O 	O 	0.9801	0.7014	0.853	-0.379
Mof_O 	O 	0.9096	0.64	0.868	-1.763
Mof_O 	O 	0.9713	0.609	0.087	-1.358
Mof_O 	O 	0.7796	0.529	0.034	-1.897
Mof_O 	O 	0.7864	0.4032	0.849	-1.774
Mof_O 	O 	0.845	0.522	0.93	-1.962
Mof_O 	O 	0.8341	0.4024	0.118	-1.777
Mof_O 	O 	0.7817	0.8462	0.909	-1.889
Mof_O 	O 	0.8031	0.72	0.114	-1.895
Mof_O 	O 	0.8289	0.72	0.864	-1.798
Mof_O 	O 	0.8582	0.835	0.079	-0.472
Mof_P 	P 	0.457	0.1194	0.9073	1.342
Mof_P 	P 	0.3113	0.9649	0.9831	1.665
Mof_P 	P 	0.3192	0.2831	0.9949	1.358
Mof_Al	Al	0.2714	0.1278	0.1454	6.04
Mof_Al	Al	0.3545	0.1189	0.8233	6.02
Mof_O 	O 	0.4643	0.0292	0.821	-1.736
Mof_O 	O 	0.4801	0.2014	0.853	-0.463
Mof_O 	O 	0.4096	0.14	0.868	-1.79
Mof_O 	O 	0.4713	0.109	0.087	-1.6
Mof_O 	O 	0.2796	0.029	0.034	-1.899
Mof_O 	O 	0.2864	0.9032	0.849	-1.776
Mof_O 	O 	0.345	0.022	0.93	-1.966
Mof_O 	O 	0.3341	0.9024	0.118	-1.78
Mof_O 	O 	0.2817	0.3462	0.909	-1.892
Mof_O 	O 	0.3031	0.22	0.114	-1.906
Mof_O 	O 	0.3289	0.22	0.864	-1.807
Mof_O 	O 	0.3582	0.335	0.079	-0.505
Mof_P 	P 	0.043	0.6194	0.5927	1.263
Mof_P 	P 	0.1887	0.4649	0.5169	1.677
Mof_P 	P 	0.1808	0.7831	0.5051	1.353
Mof_Al	Al	0.2286	0.6278	0.3546	6.048
Mof_Al	Al	0.1455	0.6189	0.6767	5.969
Mof_O 	O 	0.0357	0.5292	0.679	-1.591
Mof_O 	O 	0.0199	0.7014	0.647	-0.498
Mof_O 	O 	0.0904	0.64	0.632	-1.771
Mof_O 	O 	0.0287	0.609	0.413	-1.466
Mof_O 	O 	0.2204	0.529	0.466	-1.897
Mof_O 	O 	0.2136	0.4032	0.651	-1.775
Mof_O 	O 	0.155	0.522	0.57	-1.96
Mof_O 	O 	0.1659	0.4024	0.382	-1.778
Mof_O 	O 	0.2183	0.8462	0.591	-1.893
Mof_O 	O 	0.1969	0.72	0.386	-1.904
Mof_O 	O 	0.1711	0.72	0.636	-1.799
Mof_O 	O 	0.1418	0.835	0.421	-0.511
Mof_P 	P 	0.543	0.1194	0.5927	1.337
Mof_P 	P 	0.6887	0.9649	0.5169	1.682
Mof_P 	P 	0.6808	0.2831	0.5051	1.356
Mof_Al	Al	0.7286	0.1278	0.3546	6.048
Mof_Al	Al	0.6455	0.1189	0.6767	6.018
Mof_O 	O 	0.5357	0.0292	0.679	-1.736
Mof_O 	O 	0.5199	0.2014	0.647	-0.463
Mof_O 	O 	0.5904	0.14	0.632	-1.791
Mof_O 	O 	0.5287	0.109	0.413	-1.596
Mof_O 	O 	0.7204	0.029	0.466	-1.899
Mof_O 	O 	0.7136	0.9032	0.651	-1.774
Mof_O 	O 	0.655	0.022	0.57	-1.975
Mof_O 	O 	0.6659	0.9024	0.382	-1.79
Mof_O 	O 	0.7183	0.3462	0.591	-1.894
Mof_O 	O 	0.6969	0.22	0.386	-1.907
Mof_O 	O 	0.6711	0.22	0.636	-1.808
Mof_O 	O 	0.6418	0.335	0.421	-0.504
Mof_P 	P 	0.043	0.3806	0.0927	1.266
Mof_P 	P 	0.1887	0.5351	0.0169	1.683
Mof_P 	P 	0.1808	0.2169	0.0051	1.35
Mof_Al	Al	0.2286	0.3722	0.8546	6.047
Mof_Al	Al	0.1455	0.3811	0.1767	5.97
Mof_O 	O 	0.0357	0.4708	0.179	-1.59
Mof_O 	O 	0.0199	0.2986	0.147	-0.497
Mof_O 	O 	0.0904	0.36	0.132	-1.771
Mof_O 	O 	0.0287	0.391	0.913	-1.468
Mof_O 	O 	0.2204	0.471	0.966	-1.9
Mof_O 	O 	0.2136	0.5968	0.151	-1.774
Mof_O 	O 	0.155	0.478	0.07	-1.96
Mof_O 	O 	0.1659	0.5976	0.882	-1.782
Mof_O 	O 	0.2183	0.1538	0.091	-1.893
Mof_O 	O 	0.1969	0.28	0.886	-1.904
Mof_O 	O 	0.1711	0.28	0.136	-1.798
Mof_O 	O 	0.1418	0.165	0.921	-0.51
Mof_P 	P 	0.543	0.8806	0.0927	1.344
Mof_P 	P 	0.6887	0.0351	0.0169	1.672
Mof_P 	P 	0.6808	0.7169	0.0051	1.365
Mof_Al	Al	0.7286	0.8722	0.8546	6.043
Mof_Al	Al	0.6455	0.8811	0.1767	6.025
Mof_O 	O 	0.5357	0.9708	0.179	-1.735
Mof_O 	O 	0.5199	0.7986	0.147	-0.463
Mof_O 	O 	0.5904	0.86	0.132	-1.791
Mof_O 	O 	0.5287	0.891	0.913	-1.603
Mof_O 	O 	0.7204	0.971	0.966	-1.902
Mof_O 	O 	0.7136	0.0968	0.151	-1.775
Mof_O 	O 	0.655	0.978	0.07	-1.968
Mof_O 	O 	0.6659	0.0976	0.882	-1.784
Mof_O 	O 	0.7183	0.6538	0.091	-1.895
Mof_O 	O 	0.6969	0.78	0.886	-1.91
Mof_O 	O 	0.6711	0.78	0.136	-1.808
Mof_O 	O 	0.6418	0.665	0.921	-0.509
Mof_P 	P 	0.957	0.3806	0.4073	1.269
Mof_P 	P 	0.8113	0.5351	0.4831	1.682
Mof_P 	P 	0.8192	0.2169	0.4949	1.355
Mof_Al	Al	0.7714	0.3722	0.6454	6.054
Mof_Al	Al	0.8545	0.3811	0.3233	6.008
Mof_O 	O 	0.9643	0.4708	0.321	-1.494
Mof_O 	O 	0.9801	0.2986	0.353	-0.376
Mof_O 	O 	0.9096	0.36	0.368	-1.763
Mof_O 	O 	0.9713	0.391	0.587	-1.365
Mof_O 	O 	0.7796	0.471	0.534	-1.9
Mof_O 	O 	0.7864	0.5968	0.349	-1.775
Mof_O 	O 	0.845	0.478	0.43	-1.962
Mof_O 	O 	0.8341	0.5976	0.618	-1.777
Mof_O 	O 	0.7817	0.1538	0.409	-1.89
Mof_O 	O 	0.8031	0.28	0.614	-1.902
Mof_O 	O 	0.8289	0.28	0.364	-1.8
Mof_O 	O 	0.8582	0.165	0.579	-0.482
Mof_P 	P 	0.457	0.8806	0.4073	1.337
Mof_P 	P 	0.3113	0.0351	0.4831	1.681
Mof_P 	P 	0.3192	0.7169	0.4949	1.355
Mof_Al	Al	0.2714	0.8722	0.6454	6.041
Mof_Al	Al	0.3545	0.8811	0.3233	6.017
Mof_O 	O 	0.4643	0.9708	0.321	-1.735
Mof_O 	O 	0.4801	0.7986	0.353	-0.463
Mof_O 	O 	0.4096	0.86	0.368	-1.79
Mof_O 	O 	0.4713	0.891	0.587	-1.596
Mof_O 	O 	0.2796	0.971	0.534	-1.899
Mof_O 	O 	0.2864	0.0968	0.349	-1.775
Mof_O 	O 	0.345	0.978	0.43	-1.973
Mof_O 	O 	0.3341	0.0976	0.618	-1.789
Mof_O 	O 	0.2817	0.6538	0.409	-1.892
Mof_O 	O 	0.3031	0.78	0.614	-1.905
Mof_O 	O 	0.3289	0.78	0.364	-1.807
Mof_O 	O 	0.3582	0.665	0.579	-0.503
Mof_Al	Al	7.24034e-18	0.4603	0.75	4.656
Mof_Al	Al	0.5	0.9603	0.75	5.389
Mof_Al	Al	3.24519e-34	0.5397	0.25	4.659
Mof_Al	Al	0.5	0.0397	0.25	5.388
_end
