data_functionalizedCrystal
_audit_creation_method	'EQeq! by Chris Wilmer'
_symmetry_space_group_name_H-M	'P1'
_symmetry_Int_Tables_number	1
_symmetry_cell_setting	triclinic
loop_
_symmetry_equiv_pos_as_xyz
  x,y,z
_cell_length_a	38.3323
_cell_length_b	15.1848
_cell_length_c	32.1945
_cell_angle_alpha	90
_cell_angle_beta	91.6553
_cell_angle_gamma	90
loop_
_atom_site_label
_atom_site_type_symbol
_atom_site_fract_x
_atom_site_fract_y
_atom_site_fract_z
_atom_site_charge
Mof_In	In	0.7859	0.04024	0.80123	2.531
Mof_O 	O 	0.7427	0.0611	0.75276	-0.504
Mof_O 	O 	0.75807	0.9257	0.768	-0.483
Mof_O 	O 	0.31493	0.6417	0.76391	-0.525
Mof_O 	O 	0.32898	0.5041	0.75737	-0.505
Mof_O 	O 	0.74468	0.9782	0.34705	-0.531
Mof_O 	O 	0.75883	0.8418	0.33424	-0.479
Mof_O 	O 	0.31291	0.5715	0.33846	-0.477
Mof_O 	O 	0.32925	0.4344	0.3484	-0.514
Mof_C 	C 	0.73882	0.9791	0.74819	0.319
Mof_C 	C 	0.7105	0.9439	0.71981	-0.075
Mof_C 	C 	0.68748	0.003	0.69961	0.016
Mof_H 	H 	0.6904	0.0634	0.7029	0.045
Mof_C 	C 	0.66009	0.9698	0.6745	-0.104
Mof_H 	H 	0.6448	0.0087	0.6611	0.068
Mof_C 	C 	0.65547	0.8801	0.6695	0.057
Mof_C 	C 	0.67923	0.822	0.68844	-0.094
Mof_H 	H 	0.677	0.7617	0.684	0.076
Mof_C 	C 	0.7063	0.8541	0.71403	0.027
Mof_H 	H 	0.7216	0.815	0.7273	0.051
Mof_C 	C 	0.62582	0.846	0.64419	-0.017
Mof_C 	C 	0.61164	0.8911	0.6107	-0.022
Mof_H 	H 	0.6211	0.9453	0.6037	0.039
Mof_C 	C 	0.58378	0.8587	0.58703	-0.086
Mof_H 	H 	0.575	0.8908	0.5645	0.064
Mof_C 	C 	0.5688	0.7775	0.59705	0.053
Mof_C 	C 	0.5821	0.7323	0.6314	-0.088
Mof_H 	H 	0.5716	0.6799	0.6393	0.066
Mof_C 	C 	0.61028	0.7632	0.65385	-0.019
Mof_H 	H 	0.6195	0.7299	0.6758	0.045
Mof_C 	C 	0.53837	0.7404	0.57247	-0.045
Mof_C 	C 	0.50789	0.7169	0.59801	0.066
Mof_C 	C 	0.4927	0.7787	0.6228	-0.106
Mof_H 	H 	0.5014	0.8359	0.6232	0.069
Mof_C 	C 	0.46513	0.7581	0.6468	-0.001
Mof_H 	H 	0.4555	0.8019	0.6631	0.03
Mof_C 	C 	0.45109	0.6752	0.64773	-0.039
Mof_C 	C 	0.46811	0.6129	0.6255	-0.001
Mof_H 	H 	0.4617	0.5542	0.6282	0.029
Mof_C 	C 	0.49437	0.6339	0.5994	-0.104
Mof_H 	H 	0.5032	0.5906	0.5822	0.067
Mof_C 	C 	0.42061	0.6525	0.67355	0.084
Mof_C 	C 	0.39978	0.7157	0.6904	-0.132
Mof_H 	H 	0.4045	0.7747	0.6852	0.078
Mof_C 	C 	0.37173	0.6941	0.7152	0.049
Mof_H 	H 	0.3583	0.7386	0.7264	0.031
Mof_C 	C 	0.36393	0.6083	0.72304	-0.105
Mof_C 	C 	0.3847	0.5438	0.7068	0.047
Mof_H 	H 	0.3804	0.4849	0.7129	0.034
Mof_C 	C 	0.4122	0.566	0.6811	-0.13
Mof_H 	H 	0.425	0.5215	0.6688	0.077
Mof_C 	C 	0.33388	0.5847	0.7494	0.349
Mof_C 	C 	0.53859	0.7285	0.53111	-0.037
Mof_C 	C 	0.56946	0.7486	0.50554	0.049
Mof_C 	C 	0.56648	0.8132	0.47492	-0.086
Mof_H 	H 	0.5452	0.8414	0.47	0.062
Mof_C 	C 	0.59513	0.8359	0.45171	-0.024
Mof_H 	H 	0.593	0.8817	0.4327	0.038
Mof_C 	C 	0.62663	0.7925	0.45603	-0.019
Mof_C 	C 	0.62922	0.7258	0.48595	-0.024
Mof_H 	H 	0.65	0.6947	0.4892	0.042
Mof_C 	C 	0.60124	0.7048	0.51106	-0.084
Mof_H 	H 	0.6038	0.6617	0.5314	0.064
Mof_C 	C 	0.65695	0.8178	0.4309	0.068
Mof_C 	C 	0.66277	0.9046	0.4214	-0.116
Mof_H 	H 	0.6476	0.9468	0.4315	0.072
Mof_C 	C 	0.69036	0.9324	0.3975	0.032
Mof_H 	H 	0.6942	0.9919	0.3927	0.04
Mof_C 	C 	0.71203	0.8682	0.3809	-0.088
Mof_C 	C 	0.70709	0.7818	0.39022	0.033
Mof_H 	H 	0.722	0.7396	0.3796	0.038
Mof_C 	C 	0.67974	0.7551	0.41565	-0.115
Mof_H 	H 	0.6769	0.6959	0.4222	0.074
Mof_C 	C 	0.74017	0.8965	0.35259	0.331
Mof_C 	C 	0.50745	0.6978	0.50655	0.05
Mof_C 	C 	0.47526	0.7395	0.50849	-0.088
Mof_H 	H 	0.4726	0.7869	0.5264	0.064
Mof_C 	C 	0.44731	0.7115	0.48406	-0.021
Mof_H 	H 	0.4264	0.7423	0.485	0.038
Mof_C 	C 	0.44946	0.6385	0.4581	-0.022
Mof_C 	C 	0.48184	0.5961	0.4563	-0.021
Mof_H 	H 	0.4844	0.5477	0.439	0.035
Mof_C 	C 	0.51004	0.6258	0.48002	-0.089
Mof_H 	H 	0.5313	0.5968	0.4782	0.064
Mof_C 	C 	0.41887	0.6055	0.43228	0.067
Mof_C 	C 	0.39504	0.6649	0.41548	-0.116
Mof_H 	H 	0.398	0.7248	0.4203	0.072
Mof_C 	C 	0.36678	0.6356	0.39147	0.031
Mof_H 	H 	0.3508	0.676	0.3804	0.04
Mof_C 	C 	0.36215	0.5485	0.38393	-0.08
Mof_C 	C 	0.38543	0.4865	0.40157	0.022
Mof_H 	H 	0.3819	0.4266	0.3974	0.038
Mof_C 	C 	0.41416	0.5168	0.42559	-0.114
Mof_H 	H 	0.4301	0.4767	0.437	0.069
Mof_C 	C 	0.33293	0.5162	0.35553	0.318
Mof_In	In	0.2859	0.54024	0.80123	2.533
Mof_O 	O 	0.2427	0.5611	0.75276	-0.503
Mof_O 	O 	0.25807	0.4257	0.768	-0.483
Mof_O 	O 	0.81493	0.1417	0.76391	-0.524
Mof_O 	O 	0.82898	0.0041	0.75737	-0.504
Mof_O 	O 	0.24468	0.4782	0.34705	-0.53
Mof_O 	O 	0.25883	0.3418	0.33424	-0.478
Mof_O 	O 	0.81291	0.0715	0.33846	-0.476
Mof_O 	O 	0.82925	0.9344	0.3484	-0.514
Mof_C 	C 	0.23882	0.4791	0.74819	0.32
Mof_C 	C 	0.2105	0.4439	0.71981	-0.076
Mof_C 	C 	0.18748	0.503	0.69961	0.02
Mof_H 	H 	0.1904	0.5634	0.7029	0.045
Mof_C 	C 	0.16009	0.4698	0.6745	-0.105
Mof_H 	H 	0.1448	0.5087	0.6611	0.07
Mof_C 	C 	0.15547	0.3801	0.6695	0.059
Mof_C 	C 	0.17923	0.322	0.68844	-0.095
Mof_H 	H 	0.177	0.2617	0.684	0.077
Mof_C 	C 	0.2063	0.3541	0.71403	0.028
Mof_H 	H 	0.2216	0.315	0.7273	0.051
Mof_C 	C 	0.12582	0.346	0.64419	-0.017
Mof_C 	C 	0.11164	0.3911	0.6107	-0.022
Mof_H 	H 	0.1211	0.4453	0.6037	0.039
Mof_C 	C 	0.08378	0.3587	0.58703	-0.087
Mof_H 	H 	0.075	0.3908	0.5645	0.064
Mof_C 	C 	0.0688	0.2775	0.59705	0.053
Mof_C 	C 	0.0821	0.2323	0.6314	-0.088
Mof_H 	H 	0.0716	0.1799	0.6393	0.066
Mof_C 	C 	0.11028	0.2632	0.65385	-0.018
Mof_H 	H 	0.1195	0.2299	0.6758	0.044
Mof_C 	C 	0.03837	0.2404	0.57247	-0.045
Mof_C 	C 	0.00789	0.2169	0.59801	0.066
Mof_C 	C 	0.9927	0.2787	0.6228	-0.106
Mof_H 	H 	0.0014	0.3359	0.6232	0.069
Mof_C 	C 	0.96513	0.2581	0.6468	-0.002
Mof_H 	H 	0.9555	0.3019	0.6631	0.03
Mof_C 	C 	0.95109	0.1752	0.64773	-0.039
Mof_C 	C 	0.96811	0.1129	0.6255	-0.001
Mof_H 	H 	0.9617	0.0542	0.6282	0.029
Mof_C 	C 	0.99437	0.1339	0.5994	-0.104
Mof_H 	H 	0.0032	0.0906	0.5822	0.067
Mof_C 	C 	0.92061	0.1525	0.67355	0.083
Mof_C 	C 	0.89978	0.2157	0.6904	-0.131
Mof_H 	H 	0.9045	0.2747	0.6852	0.078
Mof_C 	C 	0.87173	0.1941	0.7152	0.048
Mof_H 	H 	0.8583	0.2386	0.7264	0.032
Mof_C 	C 	0.86393	0.1083	0.72304	-0.105
Mof_C 	C 	0.8847	0.0438	0.7068	0.045
Mof_H 	H 	0.8804	0.9849	0.7129	0.035
Mof_C 	C 	0.9122	0.066	0.6811	-0.129
Mof_H 	H 	0.925	0.0215	0.6688	0.077
Mof_C 	C 	0.83388	0.0847	0.7494	0.348
Mof_C 	C 	0.03859	0.2285	0.53111	-0.037
Mof_C 	C 	0.06946	0.2486	0.50554	0.049
Mof_C 	C 	0.06648	0.3132	0.47492	-0.086
Mof_H 	H 	0.0452	0.3414	0.47	0.062
Mof_C 	C 	0.09513	0.3359	0.45171	-0.024
Mof_H 	H 	0.093	0.3817	0.4327	0.038
Mof_C 	C 	0.12663	0.2925	0.45603	-0.019
Mof_C 	C 	0.12922	0.2258	0.48595	-0.024
Mof_H 	H 	0.15	0.1947	0.4892	0.042
Mof_C 	C 	0.10124	0.2048	0.51106	-0.084
Mof_H 	H 	0.1038	0.1617	0.5314	0.064
Mof_C 	C 	0.15695	0.3178	0.4309	0.068
Mof_C 	C 	0.16277	0.4046	0.4214	-0.116
Mof_H 	H 	0.1476	0.4468	0.4315	0.072
Mof_C 	C 	0.19036	0.4324	0.3975	0.032
Mof_H 	H 	0.1942	0.4919	0.3927	0.04
Mof_C 	C 	0.21203	0.3682	0.3809	-0.088
Mof_C 	C 	0.20709	0.2818	0.39022	0.033
Mof_H 	H 	0.222	0.2396	0.3796	0.038
Mof_C 	C 	0.17974	0.2551	0.41565	-0.115
Mof_H 	H 	0.1769	0.1959	0.4222	0.074
Mof_C 	C 	0.24017	0.3965	0.35259	0.331
Mof_C 	C 	0.00745	0.1978	0.50655	0.05
Mof_C 	C 	0.97526	0.2395	0.50849	-0.087
Mof_H 	H 	0.9726	0.2869	0.5264	0.063
Mof_C 	C 	0.94731	0.2115	0.48406	-0.021
Mof_H 	H 	0.9264	0.2423	0.485	0.038
Mof_C 	C 	0.94946	0.1385	0.4581	-0.022
Mof_C 	C 	0.98184	0.0961	0.4563	-0.021
Mof_H 	H 	0.9844	0.0477	0.439	0.035
Mof_C 	C 	0.01004	0.1258	0.48002	-0.089
Mof_H 	H 	0.0313	0.0968	0.4782	0.064
Mof_C 	C 	0.91887	0.1055	0.43228	0.066
Mof_C 	C 	0.89504	0.1649	0.41548	-0.116
Mof_H 	H 	0.898	0.2248	0.4203	0.072
Mof_C 	C 	0.86678	0.1356	0.39147	0.03
Mof_H 	H 	0.8508	0.176	0.3804	0.04
Mof_C 	C 	0.86215	0.0485	0.38393	-0.079
Mof_C 	C 	0.88543	0.9865	0.40157	0.02
Mof_H 	H 	0.8819	0.9266	0.3974	0.039
Mof_C 	C 	0.91416	0.0168	0.42559	-0.112
Mof_H 	H 	0.9301	0.9767	0.437	0.068
Mof_C 	C 	0.83293	0.0162	0.35553	0.318
Mof_In	In	0.7859	0.95976	0.30123	2.532
Mof_O 	O 	0.7427	0.9389	0.25276	-0.503
Mof_O 	O 	0.75807	0.0743	0.268	-0.482
Mof_O 	O 	0.31493	0.3583	0.26391	-0.524
Mof_O 	O 	0.32898	0.4959	0.25737	-0.504
Mof_O 	O 	0.74468	0.0218	0.84705	-0.53
Mof_O 	O 	0.75883	0.1582	0.83424	-0.478
Mof_O 	O 	0.31291	0.4285	0.83846	-0.476
Mof_O 	O 	0.32925	0.5656	0.8484	-0.513
Mof_C 	C 	0.73882	0.0209	0.24819	0.32
Mof_C 	C 	0.7105	0.0561	0.21981	-0.074
Mof_C 	C 	0.68748	0.997	0.19961	0.017
Mof_H 	H 	0.6904	0.9366	0.2029	0.046
Mof_C 	C 	0.66009	0.0302	0.1745	-0.102
Mof_H 	H 	0.6448	0.9913	0.1611	0.068
Mof_C 	C 	0.65547	0.1199	0.1695	0.057
Mof_C 	C 	0.67923	0.178	0.18844	-0.094
Mof_H 	H 	0.677	0.2383	0.184	0.076
Mof_C 	C 	0.7063	0.1459	0.21403	0.026
Mof_H 	H 	0.7216	0.185	0.2273	0.051
Mof_C 	C 	0.62582	0.154	0.14419	-0.016
Mof_C 	C 	0.61164	0.1089	0.1107	-0.022
Mof_H 	H 	0.6211	0.0547	0.1037	0.039
Mof_C 	C 	0.58378	0.1413	0.08703	-0.086
Mof_H 	H 	0.575	0.1092	0.0645	0.064
Mof_C 	C 	0.5688	0.2225	0.09705	0.053
Mof_C 	C 	0.5821	0.2677	0.1314	-0.088
Mof_H 	H 	0.5716	0.3201	0.1393	0.066
Mof_C 	C 	0.61028	0.2368	0.15385	-0.019
Mof_H 	H 	0.6195	0.2701	0.1758	0.045
Mof_C 	C 	0.53837	0.2596	0.07247	-0.044
Mof_C 	C 	0.50789	0.2831	0.09801	0.066
Mof_C 	C 	0.4927	0.2213	0.1228	-0.106
Mof_H 	H 	0.5014	0.1641	0.1232	0.069
Mof_C 	C 	0.46513	0.2419	0.1468	-0.001
Mof_H 	H 	0.4555	0.1981	0.1631	0.03
Mof_C 	C 	0.45109	0.3248	0.14773	-0.039
Mof_C 	C 	0.46811	0.3871	0.1255	-0.001
Mof_H 	H 	0.4617	0.4458	0.1282	0.029
Mof_C 	C 	0.49437	0.3661	0.0994	-0.104
Mof_H 	H 	0.5032	0.4094	0.0822	0.067
Mof_C 	C 	0.42061	0.3475	0.17355	0.084
Mof_C 	C 	0.39978	0.2843	0.1904	-0.132
Mof_H 	H 	0.4045	0.2253	0.1852	0.078
Mof_C 	C 	0.37173	0.3059	0.2152	0.049
Mof_H 	H 	0.3583	0.2614	0.2264	0.031
Mof_C 	C 	0.36393	0.3917	0.22304	-0.105
Mof_C 	C 	0.3847	0.4562	0.2068	0.047
Mof_H 	H 	0.3804	0.5151	0.2129	0.035
Mof_C 	C 	0.4122	0.434	0.1811	-0.13
Mof_H 	H 	0.425	0.4785	0.1688	0.077
Mof_C 	C 	0.33388	0.4153	0.2494	0.349
Mof_C 	C 	0.53859	0.2715	0.03111	-0.037
Mof_C 	C 	0.56946	0.2514	0.00554	0.049
Mof_C 	C 	0.56648	0.1868	0.97492	-0.086
Mof_H 	H 	0.5452	0.1586	0.97	0.062
Mof_C 	C 	0.59513	0.1641	0.95171	-0.024
Mof_H 	H 	0.593	0.1183	0.9327	0.038
Mof_C 	C 	0.62663	0.2075	0.95603	-0.019
Mof_C 	C 	0.62922	0.2742	0.98595	-0.024
Mof_H 	H 	0.65	0.3053	0.9892	0.042
Mof_C 	C 	0.60124	0.2952	0.01106	-0.084
Mof_H 	H 	0.6038	0.3383	0.0314	0.064
Mof_C 	C 	0.65695	0.1822	0.9309	0.068
Mof_C 	C 	0.66277	0.0954	0.9214	-0.116
Mof_H 	H 	0.6476	0.0532	0.9315	0.072
Mof_C 	C 	0.69036	0.0676	0.8975	0.032
Mof_H 	H 	0.6942	0.0081	0.8927	0.04
Mof_C 	C 	0.71203	0.1318	0.8809	-0.088
Mof_C 	C 	0.70709	0.2182	0.89022	0.033
Mof_H 	H 	0.722	0.2604	0.8796	0.038
Mof_C 	C 	0.67974	0.2449	0.91565	-0.115
Mof_H 	H 	0.6769	0.3041	0.9222	0.074
Mof_C 	C 	0.74017	0.1035	0.85259	0.331
Mof_C 	C 	0.50745	0.3022	0.00655	0.05
Mof_C 	C 	0.47526	0.2605	0.00849	-0.088
Mof_H 	H 	0.4726	0.2131	0.0264	0.064
Mof_C 	C 	0.44731	0.2885	0.98406	-0.021
Mof_H 	H 	0.4264	0.2577	0.985	0.038
Mof_C 	C 	0.44946	0.3615	0.9581	-0.022
Mof_C 	C 	0.48184	0.4039	0.9563	-0.021
Mof_H 	H 	0.4844	0.4523	0.939	0.035
Mof_C 	C 	0.51004	0.3742	0.98002	-0.089
Mof_H 	H 	0.5313	0.4032	0.9782	0.064
Mof_C 	C 	0.41887	0.3945	0.93228	0.067
Mof_C 	C 	0.39504	0.3351	0.91548	-0.116
Mof_H 	H 	0.398	0.2752	0.9203	0.072
Mof_C 	C 	0.36678	0.3644	0.89147	0.031
Mof_H 	H 	0.3508	0.324	0.8804	0.04
Mof_C 	C 	0.36215	0.4515	0.88393	-0.08
Mof_C 	C 	0.38543	0.5135	0.90157	0.022
Mof_H 	H 	0.3819	0.5734	0.8974	0.038
Mof_C 	C 	0.41416	0.4832	0.92559	-0.114
Mof_H 	H 	0.4301	0.5233	0.937	0.069
Mof_C 	C 	0.33293	0.4838	0.85553	0.318
Mof_In	In	0.2859	0.45976	0.30123	2.533
Mof_O 	O 	0.2427	0.4389	0.25276	-0.503
Mof_O 	O 	0.25807	0.5743	0.268	-0.483
Mof_O 	O 	0.81493	0.8583	0.26391	-0.524
Mof_O 	O 	0.82898	0.9959	0.25737	-0.504
Mof_O 	O 	0.24468	0.5218	0.84705	-0.53
Mof_O 	O 	0.25883	0.6582	0.83424	-0.478
Mof_O 	O 	0.81291	0.9285	0.83846	-0.476
Mof_O 	O 	0.82925	0.0656	0.8484	-0.514
Mof_C 	C 	0.23882	0.5209	0.24819	0.32
Mof_C 	C 	0.2105	0.5561	0.21981	-0.076
Mof_C 	C 	0.18748	0.497	0.19961	0.02
Mof_H 	H 	0.1904	0.4366	0.2029	0.045
Mof_C 	C 	0.16009	0.5302	0.1745	-0.105
Mof_H 	H 	0.1448	0.4913	0.1611	0.07
Mof_C 	C 	0.15547	0.6199	0.1695	0.059
Mof_C 	C 	0.17923	0.678	0.18844	-0.095
Mof_H 	H 	0.177	0.7383	0.184	0.077
Mof_C 	C 	0.2063	0.6459	0.21403	0.028
Mof_H 	H 	0.2216	0.685	0.2273	0.051
Mof_C 	C 	0.12582	0.654	0.14419	-0.017
Mof_C 	C 	0.11164	0.6089	0.1107	-0.022
Mof_H 	H 	0.1211	0.5547	0.1037	0.039
Mof_C 	C 	0.08378	0.6413	0.08703	-0.087
Mof_H 	H 	0.075	0.6092	0.0645	0.064
Mof_C 	C 	0.0688	0.7225	0.09705	0.053
Mof_C 	C 	0.0821	0.7677	0.1314	-0.088
Mof_H 	H 	0.0716	0.8201	0.1393	0.066
Mof_C 	C 	0.11028	0.7368	0.15385	-0.018
Mof_H 	H 	0.1195	0.7701	0.1758	0.044
Mof_C 	C 	0.03837	0.7596	0.07247	-0.045
Mof_C 	C 	0.00789	0.7831	0.09801	0.066
Mof_C 	C 	0.9927	0.7213	0.1228	-0.106
Mof_H 	H 	0.0014	0.6641	0.1232	0.069
Mof_C 	C 	0.96513	0.7419	0.1468	-0.002
Mof_H 	H 	0.9555	0.6981	0.1631	0.03
Mof_C 	C 	0.95109	0.8248	0.14773	-0.039
Mof_C 	C 	0.96811	0.8871	0.1255	-0.002
Mof_H 	H 	0.9617	0.9458	0.1282	0.029
Mof_C 	C 	0.99437	0.8661	0.0994	-0.104
Mof_H 	H 	0.0032	0.9094	0.0822	0.067
Mof_C 	C 	0.92061	0.8475	0.17355	0.083
Mof_C 	C 	0.89978	0.7843	0.1904	-0.131
Mof_H 	H 	0.9045	0.7253	0.1852	0.078
Mof_C 	C 	0.87173	0.8059	0.2152	0.048
Mof_H 	H 	0.8583	0.7614	0.2264	0.032
Mof_C 	C 	0.86393	0.8917	0.22304	-0.104
Mof_C 	C 	0.8847	0.9562	0.2068	0.045
Mof_H 	H 	0.8804	0.0151	0.2129	0.036
Mof_C 	C 	0.9122	0.934	0.1811	-0.129
Mof_H 	H 	0.925	0.9785	0.1688	0.077
Mof_C 	C 	0.83388	0.9153	0.2494	0.348
Mof_C 	C 	0.03859	0.7715	0.03111	-0.036
Mof_C 	C 	0.06946	0.7514	0.00554	0.049
Mof_C 	C 	0.06648	0.6868	0.97492	-0.086
Mof_H 	H 	0.0452	0.6586	0.97	0.061
Mof_C 	C 	0.09513	0.6641	0.95171	-0.024
Mof_H 	H 	0.093	0.6183	0.9327	0.038
Mof_C 	C 	0.12663	0.7075	0.95603	-0.019
Mof_C 	C 	0.12922	0.7742	0.98595	-0.024
Mof_H 	H 	0.15	0.8053	0.9892	0.042
Mof_C 	C 	0.10124	0.7952	0.01106	-0.084
Mof_H 	H 	0.1038	0.8383	0.0314	0.064
Mof_C 	C 	0.15695	0.6822	0.9309	0.068
Mof_C 	C 	0.16277	0.5954	0.9214	-0.116
Mof_H 	H 	0.1476	0.5532	0.9315	0.072
Mof_C 	C 	0.19036	0.5676	0.8975	0.032
Mof_H 	H 	0.1942	0.5081	0.8927	0.04
Mof_C 	C 	0.21203	0.6318	0.8809	-0.088
Mof_C 	C 	0.20709	0.7182	0.89022	0.033
Mof_H 	H 	0.222	0.7604	0.8796	0.038
Mof_C 	C 	0.17974	0.7449	0.91565	-0.115
Mof_H 	H 	0.1769	0.8041	0.9222	0.075
Mof_C 	C 	0.24017	0.6035	0.85259	0.331
Mof_C 	C 	0.00745	0.8022	0.00655	0.049
Mof_C 	C 	0.97526	0.7605	0.00849	-0.087
Mof_H 	H 	0.9726	0.7131	0.0264	0.063
Mof_C 	C 	0.94731	0.7885	0.98406	-0.022
Mof_H 	H 	0.9264	0.7577	0.985	0.038
Mof_C 	C 	0.94946	0.8615	0.9581	-0.021
Mof_C 	C 	0.98184	0.9039	0.9563	-0.022
Mof_H 	H 	0.9844	0.9523	0.939	0.036
Mof_C 	C 	0.01004	0.8742	0.98002	-0.088
Mof_H 	H 	0.0313	0.9032	0.9782	0.063
Mof_C 	C 	0.91887	0.8945	0.93228	0.065
Mof_C 	C 	0.89504	0.8351	0.91548	-0.115
Mof_H 	H 	0.898	0.7752	0.9203	0.072
Mof_C 	C 	0.86678	0.8644	0.89147	0.029
Mof_H 	H 	0.8508	0.824	0.8804	0.04
Mof_C 	C 	0.86215	0.9515	0.88393	-0.078
Mof_C 	C 	0.88543	0.0135	0.90157	0.019
Mof_H 	H 	0.8819	0.0734	0.8974	0.039
Mof_C 	C 	0.91416	0.9832	0.92559	-0.111
Mof_H 	H 	0.9301	0.0233	0.937	0.067
Mof_C 	C 	0.83293	0.9838	0.85553	0.318
Mof_In	In	0.2141	0.04024	0.69877	2.532
Mof_O 	O 	0.2573	0.0611	0.74724	-0.503
Mof_O 	O 	0.24193	0.9257	0.732	-0.482
Mof_O 	O 	0.68507	0.6417	0.73609	-0.524
Mof_O 	O 	0.67102	0.5041	0.74263	-0.504
Mof_O 	O 	0.25532	0.9782	0.15295	-0.53
Mof_O 	O 	0.24117	0.8418	0.16576	-0.478
Mof_O 	O 	0.68709	0.5715	0.16154	-0.476
Mof_O 	O 	0.67075	0.4344	0.1516	-0.513
Mof_C 	C 	0.26118	0.9791	0.75181	0.32
Mof_C 	C 	0.2895	0.9439	0.78019	-0.074
Mof_C 	C 	0.31252	0.003	0.80039	0.017
Mof_H 	H 	0.3096	0.0634	0.7971	0.046
Mof_C 	C 	0.33991	0.9698	0.8255	-0.102
Mof_H 	H 	0.3552	0.0087	0.8389	0.068
Mof_C 	C 	0.34453	0.8801	0.8305	0.057
Mof_C 	C 	0.32077	0.822	0.81156	-0.094
Mof_H 	H 	0.323	0.7617	0.816	0.076
Mof_C 	C 	0.2937	0.8541	0.78597	0.026
Mof_H 	H 	0.2784	0.815	0.7727	0.051
Mof_C 	C 	0.37418	0.846	0.85581	-0.016
Mof_C 	C 	0.38836	0.8911	0.8893	-0.022
Mof_H 	H 	0.3789	0.9453	0.8963	0.039
Mof_C 	C 	0.41622	0.8587	0.91297	-0.086
Mof_H 	H 	0.425	0.8908	0.9355	0.064
Mof_C 	C 	0.4312	0.7775	0.90295	0.053
Mof_C 	C 	0.4179	0.7323	0.8686	-0.088
Mof_H 	H 	0.4284	0.6799	0.8607	0.066
Mof_C 	C 	0.38972	0.7632	0.84615	-0.019
Mof_H 	H 	0.3805	0.7299	0.8242	0.045
Mof_C 	C 	0.46163	0.7404	0.92753	-0.044
Mof_C 	C 	0.49211	0.7169	0.90199	0.066
Mof_C 	C 	0.5073	0.7787	0.8772	-0.106
Mof_H 	H 	0.4986	0.8359	0.8768	0.069
Mof_C 	C 	0.53487	0.7581	0.8532	-0.001
Mof_H 	H 	0.5445	0.8019	0.8369	0.03
Mof_C 	C 	0.54891	0.6752	0.85227	-0.039
Mof_C 	C 	0.53189	0.6129	0.8745	-0.001
Mof_H 	H 	0.5383	0.5542	0.8718	0.029
Mof_C 	C 	0.50563	0.6339	0.9006	-0.104
Mof_H 	H 	0.4968	0.5906	0.9178	0.067
Mof_C 	C 	0.57939	0.6525	0.82645	0.084
Mof_C 	C 	0.60022	0.7157	0.8096	-0.132
Mof_H 	H 	0.5955	0.7747	0.8148	0.078
Mof_C 	C 	0.62827	0.6941	0.7848	0.049
Mof_H 	H 	0.6417	0.7386	0.7736	0.031
Mof_C 	C 	0.63607	0.6083	0.77696	-0.105
Mof_C 	C 	0.6153	0.5438	0.7932	0.047
Mof_H 	H 	0.6196	0.4849	0.7871	0.035
Mof_C 	C 	0.5878	0.566	0.8189	-0.13
Mof_H 	H 	0.575	0.5215	0.8312	0.077
Mof_C 	C 	0.66612	0.5847	0.7506	0.349
Mof_C 	C 	0.46141	0.7285	0.96889	-0.037
Mof_C 	C 	0.43054	0.7486	0.99446	0.049
Mof_C 	C 	0.43352	0.8132	0.02508	-0.086
Mof_H 	H 	0.4548	0.8414	0.03	0.062
Mof_C 	C 	0.40487	0.8359	0.04829	-0.024
Mof_H 	H 	0.407	0.8817	0.0673	0.038
Mof_C 	C 	0.37337	0.7925	0.04397	-0.019
Mof_C 	C 	0.37078	0.7258	0.01405	-0.024
Mof_H 	H 	0.35	0.6947	0.0108	0.042
Mof_C 	C 	0.39876	0.7048	0.98894	-0.084
Mof_H 	H 	0.3962	0.6617	0.9686	0.064
Mof_C 	C 	0.34305	0.8178	0.0691	0.068
Mof_C 	C 	0.33723	0.9046	0.0786	-0.116
Mof_H 	H 	0.3524	0.9468	0.0685	0.072
Mof_C 	C 	0.30964	0.9324	0.1025	0.032
Mof_H 	H 	0.3058	0.9919	0.1073	0.04
Mof_C 	C 	0.28797	0.8682	0.1191	-0.088
Mof_C 	C 	0.29291	0.7818	0.10978	0.033
Mof_H 	H 	0.278	0.7396	0.1204	0.038
Mof_C 	C 	0.32026	0.7551	0.08435	-0.115
Mof_H 	H 	0.3231	0.6959	0.0778	0.074
Mof_C 	C 	0.25983	0.8965	0.14741	0.331
Mof_C 	C 	0.49255	0.6978	0.99345	0.05
Mof_C 	C 	0.52474	0.7395	0.99151	-0.088
Mof_H 	H 	0.5274	0.7869	0.9736	0.064
Mof_C 	C 	0.55269	0.7115	0.01594	-0.021
Mof_H 	H 	0.5736	0.7423	0.015	0.038
Mof_C 	C 	0.55054	0.6385	0.0419	-0.022
Mof_C 	C 	0.51816	0.5961	0.0437	-0.021
Mof_H 	H 	0.5156	0.5477	0.061	0.035
Mof_C 	C 	0.48996	0.6258	0.01998	-0.089
Mof_H 	H 	0.4687	0.5968	0.0218	0.064
Mof_C 	C 	0.58113	0.6055	0.06772	0.067
Mof_C 	C 	0.60496	0.6649	0.08452	-0.116
Mof_H 	H 	0.602	0.7248	0.0797	0.072
Mof_C 	C 	0.63322	0.6356	0.10853	0.031
Mof_H 	H 	0.6492	0.676	0.1196	0.04
Mof_C 	C 	0.63785	0.5485	0.11607	-0.08
Mof_C 	C 	0.61457	0.4865	0.09843	0.022
Mof_H 	H 	0.6181	0.4266	0.1026	0.038
Mof_C 	C 	0.58584	0.5168	0.07441	-0.114
Mof_H 	H 	0.5699	0.4767	0.063	0.069
Mof_C 	C 	0.66707	0.5162	0.14447	0.318
Mof_In	In	0.7141	0.54024	0.69877	2.533
Mof_O 	O 	0.7573	0.5611	0.74724	-0.503
Mof_O 	O 	0.74193	0.4257	0.732	-0.483
Mof_O 	O 	0.18507	0.1417	0.73609	-0.524
Mof_O 	O 	0.17102	0.0041	0.74263	-0.504
Mof_O 	O 	0.75532	0.4782	0.15295	-0.53
Mof_O 	O 	0.74117	0.3418	0.16576	-0.478
Mof_O 	O 	0.18709	0.0715	0.16154	-0.476
Mof_O 	O 	0.17075	0.9344	0.1516	-0.514
Mof_C 	C 	0.76118	0.4791	0.75181	0.32
Mof_C 	C 	0.7895	0.4439	0.78019	-0.076
Mof_C 	C 	0.81252	0.503	0.80039	0.02
Mof_H 	H 	0.8096	0.5634	0.7971	0.045
Mof_C 	C 	0.83991	0.4698	0.8255	-0.105
Mof_H 	H 	0.8552	0.5087	0.8389	0.07
Mof_C 	C 	0.84453	0.3801	0.8305	0.059
Mof_C 	C 	0.82077	0.322	0.81156	-0.095
Mof_H 	H 	0.823	0.2617	0.816	0.077
Mof_C 	C 	0.7937	0.3541	0.78597	0.028
Mof_H 	H 	0.7784	0.315	0.7727	0.051
Mof_C 	C 	0.87418	0.346	0.85581	-0.017
Mof_C 	C 	0.88836	0.3911	0.8893	-0.022
Mof_H 	H 	0.8789	0.4453	0.8963	0.039
Mof_C 	C 	0.91622	0.3587	0.91297	-0.087
Mof_H 	H 	0.925	0.3908	0.9355	0.064
Mof_C 	C 	0.9312	0.2775	0.90295	0.053
Mof_C 	C 	0.9179	0.2323	0.8686	-0.088
Mof_H 	H 	0.9284	0.1799	0.8607	0.066
Mof_C 	C 	0.88972	0.2632	0.84615	-0.018
Mof_H 	H 	0.8805	0.2299	0.8242	0.044
Mof_C 	C 	0.96163	0.2404	0.92753	-0.045
Mof_C 	C 	0.99211	0.2169	0.90199	0.066
Mof_C 	C 	0.0073	0.2787	0.8772	-0.106
Mof_H 	H 	0.9986	0.3359	0.8768	0.069
Mof_C 	C 	0.03487	0.2581	0.8532	-0.002
Mof_H 	H 	0.0445	0.3019	0.8369	0.03
Mof_C 	C 	0.04891	0.1752	0.85227	-0.039
Mof_C 	C 	0.03189	0.1129	0.8745	-0.002
Mof_H 	H 	0.0383	0.0542	0.8718	0.029
Mof_C 	C 	0.00563	0.1339	0.9006	-0.104
Mof_H 	H 	0.9968	0.0906	0.9178	0.067
Mof_C 	C 	0.07939	0.1525	0.82645	0.083
Mof_C 	C 	0.10022	0.2157	0.8096	-0.131
Mof_H 	H 	0.0955	0.2747	0.8148	0.078
Mof_C 	C 	0.12827	0.1941	0.7848	0.048
Mof_H 	H 	0.1417	0.2386	0.7736	0.032
Mof_C 	C 	0.13607	0.1083	0.77696	-0.104
Mof_C 	C 	0.1153	0.0438	0.7932	0.045
Mof_H 	H 	0.1196	0.9849	0.7871	0.036
Mof_C 	C 	0.0878	0.066	0.8189	-0.129
Mof_H 	H 	0.075	0.0215	0.8312	0.077
Mof_C 	C 	0.16612	0.0847	0.7506	0.348
Mof_C 	C 	0.96141	0.2285	0.96889	-0.036
Mof_C 	C 	0.93054	0.2486	0.99446	0.049
Mof_C 	C 	0.93352	0.3132	0.02508	-0.086
Mof_H 	H 	0.9548	0.3414	0.03	0.061
Mof_C 	C 	0.90487	0.3359	0.04829	-0.024
Mof_H 	H 	0.907	0.3817	0.0673	0.038
Mof_C 	C 	0.87337	0.2925	0.04397	-0.019
Mof_C 	C 	0.87078	0.2258	0.01405	-0.024
Mof_H 	H 	0.85	0.1947	0.0108	0.042
Mof_C 	C 	0.89876	0.2048	0.98894	-0.084
Mof_H 	H 	0.8962	0.1617	0.9686	0.064
Mof_C 	C 	0.84305	0.3178	0.0691	0.068
Mof_C 	C 	0.83723	0.4046	0.0786	-0.116
Mof_H 	H 	0.8524	0.4468	0.0685	0.072
Mof_C 	C 	0.80964	0.4324	0.1025	0.032
Mof_H 	H 	0.8058	0.4919	0.1073	0.04
Mof_C 	C 	0.78797	0.3682	0.1191	-0.088
Mof_C 	C 	0.79291	0.2818	0.10978	0.033
Mof_H 	H 	0.778	0.2396	0.1204	0.038
Mof_C 	C 	0.82026	0.2551	0.08435	-0.115
Mof_H 	H 	0.8231	0.1959	0.0778	0.075
Mof_C 	C 	0.75983	0.3965	0.14741	0.331
Mof_C 	C 	0.99255	0.1978	0.99345	0.049
Mof_C 	C 	0.02474	0.2395	0.99151	-0.087
Mof_H 	H 	0.0274	0.2869	0.9736	0.063
Mof_C 	C 	0.05269	0.2115	0.01594	-0.022
Mof_H 	H 	0.0736	0.2423	0.015	0.038
Mof_C 	C 	0.05054	0.1385	0.0419	-0.021
Mof_C 	C 	0.01816	0.0961	0.0437	-0.022
Mof_H 	H 	0.0156	0.0477	0.061	0.036
Mof_C 	C 	0.98996	0.1258	0.01998	-0.088
Mof_H 	H 	0.9687	0.0968	0.0218	0.063
Mof_C 	C 	0.08113	0.1055	0.06772	0.065
Mof_C 	C 	0.10496	0.1649	0.08452	-0.115
Mof_H 	H 	0.102	0.2248	0.0797	0.072
Mof_C 	C 	0.13322	0.1356	0.10853	0.029
Mof_H 	H 	0.1492	0.176	0.1196	0.04
Mof_C 	C 	0.13785	0.0485	0.11607	-0.078
Mof_C 	C 	0.11457	0.9865	0.09843	0.019
Mof_H 	H 	0.1181	0.9266	0.1026	0.039
Mof_C 	C 	0.08584	0.0168	0.07441	-0.111
Mof_H 	H 	0.0699	0.9767	0.063	0.067
Mof_C 	C 	0.16707	0.0162	0.14447	0.318
Mof_In	In	0.2141	0.95976	0.19877	2.532
Mof_O 	O 	0.2573	0.9389	0.24724	-0.503
Mof_O 	O 	0.24193	0.0743	0.232	-0.482
Mof_O 	O 	0.68507	0.3583	0.23609	-0.524
Mof_O 	O 	0.67102	0.4959	0.24263	-0.504
Mof_O 	O 	0.25532	0.0218	0.65295	-0.53
Mof_O 	O 	0.24117	0.1582	0.66576	-0.478
Mof_O 	O 	0.68709	0.4285	0.66154	-0.476
Mof_O 	O 	0.67075	0.5656	0.6516	-0.513
Mof_C 	C 	0.26118	0.0209	0.25181	0.32
Mof_C 	C 	0.2895	0.0561	0.28019	-0.074
Mof_C 	C 	0.31252	0.997	0.30039	0.017
Mof_H 	H 	0.3096	0.9366	0.2971	0.046
Mof_C 	C 	0.33991	0.0302	0.3255	-0.103
Mof_H 	H 	0.3552	0.9913	0.3389	0.068
Mof_C 	C 	0.34453	0.1199	0.3305	0.057
Mof_C 	C 	0.32077	0.178	0.31156	-0.094
Mof_H 	H 	0.323	0.2383	0.316	0.076
Mof_C 	C 	0.2937	0.1459	0.28597	0.027
Mof_H 	H 	0.2784	0.185	0.2727	0.051
Mof_C 	C 	0.37418	0.154	0.35581	-0.017
Mof_C 	C 	0.38836	0.1089	0.3893	-0.022
Mof_H 	H 	0.3789	0.0547	0.3963	0.039
Mof_C 	C 	0.41622	0.1413	0.41297	-0.086
Mof_H 	H 	0.425	0.1092	0.4355	0.064
Mof_C 	C 	0.4312	0.2225	0.40295	0.053
Mof_C 	C 	0.4179	0.2677	0.3686	-0.088
Mof_H 	H 	0.4284	0.3201	0.3607	0.066
Mof_C 	C 	0.38972	0.2368	0.34615	-0.019
Mof_H 	H 	0.3805	0.2701	0.3242	0.045
Mof_C 	C 	0.46163	0.2596	0.42753	-0.045
Mof_C 	C 	0.49211	0.2831	0.40199	0.066
Mof_C 	C 	0.5073	0.2213	0.3772	-0.106
Mof_H 	H 	0.4986	0.1641	0.3768	0.069
Mof_C 	C 	0.53487	0.2419	0.3532	-0.001
Mof_H 	H 	0.5445	0.1981	0.3369	0.03
Mof_C 	C 	0.54891	0.3248	0.35227	-0.039
Mof_C 	C 	0.53189	0.3871	0.3745	-0.001
Mof_H 	H 	0.5383	0.4458	0.3718	0.029
Mof_C 	C 	0.50563	0.3661	0.4006	-0.104
Mof_H 	H 	0.4968	0.4094	0.4178	0.067
Mof_C 	C 	0.57939	0.3475	0.32645	0.084
Mof_C 	C 	0.60022	0.2843	0.3096	-0.132
Mof_H 	H 	0.5955	0.2253	0.3148	0.078
Mof_C 	C 	0.62827	0.3059	0.2848	0.049
Mof_H 	H 	0.6417	0.2614	0.2736	0.031
Mof_C 	C 	0.63607	0.3917	0.27696	-0.105
Mof_C 	C 	0.6153	0.4562	0.2932	0.047
Mof_H 	H 	0.6196	0.5151	0.2871	0.034
Mof_C 	C 	0.5878	0.434	0.3189	-0.13
Mof_H 	H 	0.575	0.4785	0.3312	0.077
Mof_C 	C 	0.66612	0.4153	0.2506	0.349
Mof_C 	C 	0.46141	0.2715	0.46889	-0.037
Mof_C 	C 	0.43054	0.2514	0.49446	0.049
Mof_C 	C 	0.43352	0.1868	0.52508	-0.086
Mof_H 	H 	0.4548	0.1586	0.53	0.062
Mof_C 	C 	0.40487	0.1641	0.54829	-0.024
Mof_H 	H 	0.407	0.1183	0.5673	0.038
Mof_C 	C 	0.37337	0.2075	0.54397	-0.019
Mof_C 	C 	0.37078	0.2742	0.51405	-0.024
Mof_H 	H 	0.35	0.3053	0.5108	0.042
Mof_C 	C 	0.39876	0.2952	0.48894	-0.084
Mof_H 	H 	0.3962	0.3383	0.4686	0.064
Mof_C 	C 	0.34305	0.1822	0.5691	0.068
Mof_C 	C 	0.33723	0.0954	0.5786	-0.116
Mof_H 	H 	0.3524	0.0532	0.5685	0.072
Mof_C 	C 	0.30964	0.0676	0.6025	0.032
Mof_H 	H 	0.3058	0.0081	0.6073	0.04
Mof_C 	C 	0.28797	0.1318	0.6191	-0.088
Mof_C 	C 	0.29291	0.2182	0.60978	0.033
Mof_H 	H 	0.278	0.2604	0.6204	0.038
Mof_C 	C 	0.32026	0.2449	0.58435	-0.115
Mof_H 	H 	0.3231	0.3041	0.5778	0.074
Mof_C 	C 	0.25983	0.1035	0.64741	0.331
Mof_C 	C 	0.49255	0.3022	0.49345	0.05
Mof_C 	C 	0.52474	0.2605	0.49151	-0.088
Mof_H 	H 	0.5274	0.2131	0.4736	0.064
Mof_C 	C 	0.55269	0.2885	0.51594	-0.021
Mof_H 	H 	0.5736	0.2577	0.515	0.038
Mof_C 	C 	0.55054	0.3615	0.5419	-0.022
Mof_C 	C 	0.51816	0.4039	0.5437	-0.021
Mof_H 	H 	0.5156	0.4523	0.561	0.035
Mof_C 	C 	0.48996	0.3742	0.51998	-0.089
Mof_H 	H 	0.4687	0.4032	0.5218	0.064
Mof_C 	C 	0.58113	0.3945	0.56772	0.067
Mof_C 	C 	0.60496	0.3351	0.58452	-0.116
Mof_H 	H 	0.602	0.2752	0.5797	0.072
Mof_C 	C 	0.63322	0.3644	0.60853	0.031
Mof_H 	H 	0.6492	0.324	0.6196	0.04
Mof_C 	C 	0.63785	0.4515	0.61607	-0.08
Mof_C 	C 	0.61457	0.5135	0.59843	0.022
Mof_H 	H 	0.6181	0.5734	0.6026	0.038
Mof_C 	C 	0.58584	0.4832	0.57441	-0.114
Mof_H 	H 	0.5699	0.5233	0.563	0.069
Mof_C 	C 	0.66707	0.4838	0.64447	0.318
Mof_In	In	0.7141	0.45976	0.19877	2.533
Mof_O 	O 	0.7573	0.4389	0.24724	-0.503
Mof_O 	O 	0.74193	0.5743	0.232	-0.483
Mof_O 	O 	0.18507	0.8583	0.23609	-0.524
Mof_O 	O 	0.17102	0.9959	0.24263	-0.504
Mof_O 	O 	0.75532	0.5218	0.65295	-0.53
Mof_O 	O 	0.74117	0.6582	0.66576	-0.478
Mof_O 	O 	0.18709	0.9285	0.66154	-0.476
Mof_O 	O 	0.17075	0.0656	0.6516	-0.514
Mof_C 	C 	0.76118	0.5209	0.25181	0.32
Mof_C 	C 	0.7895	0.5561	0.28019	-0.076
Mof_C 	C 	0.81252	0.497	0.30039	0.02
Mof_H 	H 	0.8096	0.4366	0.2971	0.045
Mof_C 	C 	0.83991	0.5302	0.3255	-0.105
Mof_H 	H 	0.8552	0.4913	0.3389	0.07
Mof_C 	C 	0.84453	0.6199	0.3305	0.059
Mof_C 	C 	0.82077	0.678	0.31156	-0.095
Mof_H 	H 	0.823	0.7383	0.316	0.077
Mof_C 	C 	0.7937	0.6459	0.28597	0.028
Mof_H 	H 	0.7784	0.685	0.2727	0.051
Mof_C 	C 	0.87418	0.654	0.35581	-0.017
Mof_C 	C 	0.88836	0.6089	0.3893	-0.022
Mof_H 	H 	0.8789	0.5547	0.3963	0.039
Mof_C 	C 	0.91622	0.6413	0.41297	-0.087
Mof_H 	H 	0.925	0.6092	0.4355	0.064
Mof_C 	C 	0.9312	0.7225	0.40295	0.053
Mof_C 	C 	0.9179	0.7677	0.3686	-0.088
Mof_H 	H 	0.9284	0.8201	0.3607	0.066
Mof_C 	C 	0.88972	0.7368	0.34615	-0.018
Mof_H 	H 	0.8805	0.7701	0.3242	0.044
Mof_C 	C 	0.96163	0.7596	0.42753	-0.045
Mof_C 	C 	0.99211	0.7831	0.40199	0.066
Mof_C 	C 	0.0073	0.7213	0.3772	-0.106
Mof_H 	H 	0.9986	0.6641	0.3768	0.069
Mof_C 	C 	0.03487	0.7419	0.3532	-0.002
Mof_H 	H 	0.0445	0.6981	0.3369	0.03
Mof_C 	C 	0.04891	0.8248	0.35227	-0.039
Mof_C 	C 	0.03189	0.8871	0.3745	-0.001
Mof_H 	H 	0.0383	0.9458	0.3718	0.029
Mof_C 	C 	0.00563	0.8661	0.4006	-0.104
Mof_H 	H 	0.9968	0.9094	0.4178	0.067
Mof_C 	C 	0.07939	0.8475	0.32645	0.083
Mof_C 	C 	0.10022	0.7843	0.3096	-0.131
Mof_H 	H 	0.0955	0.7253	0.3148	0.078
Mof_C 	C 	0.12827	0.8059	0.2848	0.048
Mof_H 	H 	0.1417	0.7614	0.2736	0.032
Mof_C 	C 	0.13607	0.8917	0.27696	-0.105
Mof_C 	C 	0.1153	0.9562	0.2932	0.045
Mof_H 	H 	0.1196	0.0151	0.2871	0.035
Mof_C 	C 	0.0878	0.934	0.3189	-0.129
Mof_H 	H 	0.075	0.9785	0.3312	0.077
Mof_C 	C 	0.16612	0.9153	0.2506	0.348
Mof_C 	C 	0.96141	0.7715	0.46889	-0.037
Mof_C 	C 	0.93054	0.7514	0.49446	0.049
Mof_C 	C 	0.93352	0.6868	0.52508	-0.086
Mof_H 	H 	0.9548	0.6586	0.53	0.062
Mof_C 	C 	0.90487	0.6641	0.54829	-0.024
Mof_H 	H 	0.907	0.6183	0.5673	0.038
Mof_C 	C 	0.87337	0.7075	0.54397	-0.019
Mof_C 	C 	0.87078	0.7742	0.51405	-0.024
Mof_H 	H 	0.85	0.8053	0.5108	0.042
Mof_C 	C 	0.89876	0.7952	0.48894	-0.084
Mof_H 	H 	0.8962	0.8383	0.4686	0.064
Mof_C 	C 	0.84305	0.6822	0.5691	0.068
Mof_C 	C 	0.83723	0.5954	0.5786	-0.116
Mof_H 	H 	0.8524	0.5532	0.5685	0.072
Mof_C 	C 	0.80964	0.5676	0.6025	0.032
Mof_H 	H 	0.8058	0.5081	0.6073	0.04
Mof_C 	C 	0.78797	0.6318	0.6191	-0.088
Mof_C 	C 	0.79291	0.7182	0.60978	0.033
Mof_H 	H 	0.778	0.7604	0.6204	0.038
Mof_C 	C 	0.82026	0.7449	0.58435	-0.115
Mof_H 	H 	0.8231	0.8041	0.5778	0.074
Mof_C 	C 	0.75983	0.6035	0.64741	0.331
Mof_C 	C 	0.99255	0.8022	0.49345	0.05
Mof_C 	C 	0.02474	0.7605	0.49151	-0.087
Mof_H 	H 	0.0274	0.7131	0.4736	0.063
Mof_C 	C 	0.05269	0.7885	0.51594	-0.021
Mof_H 	H 	0.0736	0.7577	0.515	0.038
Mof_C 	C 	0.05054	0.8615	0.5419	-0.022
Mof_C 	C 	0.01816	0.9039	0.5437	-0.021
Mof_H 	H 	0.0156	0.9523	0.561	0.035
Mof_C 	C 	0.98996	0.8742	0.51998	-0.089
Mof_H 	H 	0.9687	0.9032	0.5218	0.064
Mof_C 	C 	0.08113	0.8945	0.56772	0.066
Mof_C 	C 	0.10496	0.8351	0.58452	-0.116
Mof_H 	H 	0.102	0.7752	0.5797	0.072
Mof_C 	C 	0.13322	0.8644	0.60853	0.03
Mof_H 	H 	0.1492	0.824	0.6196	0.04
Mof_C 	C 	0.13785	0.9515	0.61607	-0.079
Mof_C 	C 	0.11457	0.0135	0.59843	0.02
Mof_H 	H 	0.1181	0.0734	0.6026	0.039
Mof_C 	C 	0.08584	0.9832	0.57441	-0.112
Mof_H 	H 	0.0699	0.0233	0.563	0.068
Mof_C 	C 	0.16707	0.9838	0.64447	0.318
_end
