# CIF file generated by openbabel 3.1.0, see https://openbabel.org
data_I
_chemical_name_common 'image0'
_cell_length_a 8.642
_cell_length_b 8.719
_cell_length_c 12.049
_cell_angle_alpha 85.144
_cell_angle_beta 80.757
_cell_angle_gamma 80.71
_space_group_name_H-M_alt 'P 1'
_space_group_name_Hall 'P 1'
loop_
    _symmetry_equiv_pos_as_xyz
    x,y,z
loop_
    _atom_site_label
    _atom_site_type_symbol
    _atom_site_fract_x
    _atom_site_fract_y
    _atom_site_fract_z
    _atom_site_occupancy
    P1       P        0.16336    0.64443    0.74140    1.000
    P2       P        0.22471    0.05180    0.93730    1.000
    P3       P        0.04307    0.10871    0.63736    1.000
    P4       P        0.53495    0.15429    0.65681    1.000
    Be1      Be       0.97820    0.91980    0.84140    1.000
    Be2      Be       0.81090    0.17390    0.47260    1.000
    Be3      Be       0.22250    0.29790    0.75470    1.000
    O1       O        0.01490    0.74210    0.79900    1.000
    O2       O        0.15350    0.47700    0.77530    1.000
    O3       O        0.18830    0.67040    0.61470    1.000
    O4       O        0.31000    0.68610    0.78740    1.000
    H1       H        0.31840    0.77770    0.76990    1.000
    O5       O        0.22310    0.20910    0.87650    1.000
    O6       O        0.40200    0.96550    0.92460    1.000
    H2       H        0.40460    0.87910    0.95760    1.000
    O7       O        0.13990    0.94580    0.88390    1.000
    O8       O        0.17130    0.06320    0.06190    1.000
    O9       O        0.11180    0.23940    0.67730    1.000
    O10      O        0.93140    0.03890    0.73440    1.000
    O11      O        0.18010    0.98170    0.59460    1.000
    O12      O        0.95080    0.17790    0.54330    1.000
    O13      O        0.40330    0.28640    0.68560    1.000
    O14      O        0.46920    0.00380    0.64230    1.000
    H3       H        0.41140    0.98100    0.70020    1.000
    O15      O        0.62850    0.11190    0.75760    1.000
    H4       H        0.56830    0.08650    0.81350    1.000
    O16      O        0.64100    0.20090    0.55370    1.000
    P5       P        0.83664    0.35557    0.25860    1.000
    P6       P        0.77529    0.94820    0.06270    1.000
    P7       P        0.95693    0.89129    0.36264    1.000
    P8       P        0.46505    0.84571    0.34319    1.000
    Be4      Be       0.02180    0.08020    0.15860    1.000
    Be5      Be       0.18910    0.82610    0.52740    1.000
    Be6      Be       0.77750    0.70210    0.24530    1.000
    O17      O        0.98510    0.25790    0.20100    1.000
    O18      O        0.84650    0.52300    0.22470    1.000
    O19      O        0.81170    0.32960    0.38530    1.000
    O20      O        0.69000    0.31390    0.21260    1.000
    H5       H        0.68160    0.22230    0.23010    1.000
    O21      O        0.77690    0.79090    0.12350    1.000
    O22      O        0.59800    0.03450    0.07540    1.000
    H6       H        0.59540    0.12090    0.04240    1.000
    O23      O        0.86010    0.05420    0.11610    1.000
    O24      O        0.82870    0.93680    0.93810    1.000
    O25      O        0.88820    0.76060    0.32270    1.000
    O26      O        0.06860    0.96110    0.26560    1.000
    O27      O        0.81990    0.01830    0.40540    1.000
    O28      O        0.04920    0.82210    0.45670    1.000
    O29      O        0.59670    0.71360    0.31440    1.000
    O30      O        0.53080    0.99620    0.35770    1.000
    H7       H        0.58860    0.01900    0.29980    1.000
    O31      O        0.37150    0.88810    0.24240    1.000
    H8       H        0.43170    0.91350    0.18650    1.000
    O32      O        0.35900    0.79910    0.44630    1.000
