# CIF file generated by openbabel 3.1.0, see https://openbabel.org
data_I
_chemical_name_common 'image0'
_cell_length_a 10.7666
_cell_length_b 16.462
_cell_length_c 17.912
_cell_angle_alpha 90
_cell_angle_beta 91.098
_cell_angle_gamma 90
_space_group_name_H-M_alt 'P 1'
_space_group_name_Hall 'P 1'
loop_
    _symmetry_equiv_pos_as_xyz
    x,y,z
loop_
    _atom_site_label
    _atom_site_type_symbol
    _atom_site_fract_x
    _atom_site_fract_y
    _atom_site_fract_z
    _atom_site_occupancy
    Zn1      Zn       0.07851    0.55672    0.91113    1.000
    Zn2      Zn       0.61572    0.54334    0.91616    1.000
    P1       P        0.85449    0.43135    0.91450    1.000
    P2       P        0.15533    0.95375    0.59053    1.000
    O1       O        0.71430    0.44564    0.91528    1.000
    O2       O        0.92250    0.50580    0.88810    1.000
    O3       O        0.90310    0.39830    0.98881    1.000
    O4       O        0.85950    0.13910    0.64621    1.000
    O5       O        0.91430    0.06860    0.74530    1.000
    O6       O        0.95390    0.71020    0.86920    1.000
    O7       O        0.11890    0.64100    0.83677    1.000
    O8       O        0.06350    0.02364    0.59699    1.000
    O9       O        0.28800    0.97970    0.60300    1.000
    O10      O        0.13560    0.90749    0.51658    1.000
    C1       C        0.87390    0.34830    0.84980    1.000
    C2       C        0.96530    0.28940    0.86310    1.000
    H1       H        0.02320    0.29690    0.90160    1.000
    C3       C        0.97040    0.22040    0.81960    1.000
    H2       H        0.02910    0.18050    0.83040    1.000
    C4       C        0.88770    0.21060    0.75960    1.000
    C5       C        0.80050    0.27040    0.74390    1.000
    H3       H        0.74720    0.26550    0.70270    1.000
    C6       C        0.79340    0.33810    0.79050    1.000
    H4       H        0.73250    0.37710    0.78120    1.000
    C7       C        0.88890    0.13300    0.71560    1.000
    C8       C        0.12440    0.88000    0.66280    1.000
    C9       C        0.04310    0.89670    0.71980    1.000
    H5       H        0.00390    0.94700    0.72150    1.000
    C10      C        0.01950    0.83970    0.77390    1.000
    H6       H        0.96410    0.85180    0.81150    1.000
    C11      C        0.07740    0.76440    0.77310    1.000
    C12      C        0.16150    0.74880    0.71810    1.000
    H7       H        0.20460    0.69980    0.71850    1.000
    C13      C        0.18290    0.80490    0.66200    1.000
    H8       H        0.23670    0.79210    0.62370    1.000
    C14      C        0.04610    0.70180    0.83130    1.000
    Zn3      Zn       0.42149    0.05672    0.58887    1.000
    Zn4      Zn       0.88428    0.04334    0.58384    1.000
    P3       P        0.64551    0.93135    0.58550    1.000
    P4       P        0.34467    0.45375    0.90947    1.000
    O11      O        0.78570    0.94564    0.58472    1.000
    O12      O        0.57750    0.00580    0.61190    1.000
    O13      O        0.59690    0.89830    0.51119    1.000
    O14      O        0.64050    0.63910    0.85379    1.000
    O15      O        0.58570    0.56860    0.75470    1.000
    O16      O        0.54610    0.21020    0.63080    1.000
    O17      O        0.38110    0.14100    0.66323    1.000
    O18      O        0.43650    0.52364    0.90301    1.000
    O19      O        0.21200    0.47970    0.89700    1.000
    O20      O        0.36440    0.40749    0.98342    1.000
    C15      C        0.62610    0.84830    0.65020    1.000
    C16      C        0.53470    0.78940    0.63690    1.000
    H9       H        0.47680    0.79690    0.59840    1.000
    C17      C        0.52960    0.72040    0.68040    1.000
    H10      H        0.47090    0.68050    0.66960    1.000
    C18      C        0.61230    0.71060    0.74040    1.000
    C19      C        0.69950    0.77040    0.75610    1.000
    H11      H        0.75280    0.76550    0.79730    1.000
    C20      C        0.70660    0.83810    0.70950    1.000
    H12      H        0.76750    0.87710    0.71880    1.000
    C21      C        0.61110    0.63300    0.78440    1.000
    C22      C        0.37560    0.38000    0.83720    1.000
    C23      C        0.45690    0.39670    0.78020    1.000
    H13      H        0.49610    0.44700    0.77850    1.000
    C24      C        0.48050    0.33970    0.72610    1.000
    H14      H        0.53590    0.35180    0.68850    1.000
    C25      C        0.42260    0.26440    0.72690    1.000
    C26      C        0.33850    0.24880    0.78190    1.000
    H15      H        0.29540    0.19980    0.78150    1.000
    C27      C        0.31710    0.30490    0.83800    1.000
    H16      H        0.26330    0.29210    0.87630    1.000
    C28      C        0.45390    0.20180    0.66870    1.000
    Zn5      Zn       0.92149    0.44328    0.08887    1.000
    Zn6      Zn       0.38428    0.45666    0.08384    1.000
    P5       P        0.14551    0.56865    0.08550    1.000
    P6       P        0.84467    0.04625    0.40947    1.000
    O21      O        0.28570    0.55436    0.08472    1.000
    O22      O        0.07750    0.49420    0.11190    1.000
    O23      O        0.09690    0.60170    0.01119    1.000
    O24      O        0.14050    0.86090    0.35379    1.000
    O25      O        0.08570    0.93140    0.25470    1.000
    O26      O        0.04610    0.28980    0.13080    1.000
    O27      O        0.88110    0.35900    0.16323    1.000
    O28      O        0.93650    0.97636    0.40301    1.000
    O29      O        0.71200    0.02030    0.39700    1.000
    O30      O        0.86440    0.09251    0.48342    1.000
    C29      C        0.12610    0.65170    0.15020    1.000
    C30      C        0.03470    0.71060    0.13690    1.000
    H17      H        0.97680    0.70310    0.09840    1.000
    C31      C        0.02960    0.77960    0.18040    1.000
    H18      H        0.97090    0.81950    0.16960    1.000
    C32      C        0.11230    0.78940    0.24040    1.000
    C33      C        0.19950    0.72960    0.25610    1.000
    H19      H        0.25280    0.73450    0.29730    1.000
    C34      C        0.20660    0.66190    0.20950    1.000
    H20      H        0.26750    0.62290    0.21880    1.000
    C35      C        0.11110    0.86700    0.28440    1.000
    C36      C        0.87560    0.12000    0.33720    1.000
    C37      C        0.95690    0.10330    0.28020    1.000
    H21      H        0.99610    0.05300    0.27850    1.000
    C38      C        0.98050    0.16030    0.22610    1.000
    H22      H        0.03590    0.14820    0.18850    1.000
    C39      C        0.92260    0.23560    0.22690    1.000
    C40      C        0.83850    0.25120    0.28190    1.000
    H23      H        0.79540    0.30020    0.28150    1.000
    C41      C        0.81710    0.19510    0.33800    1.000
    H24      H        0.76330    0.20790    0.37630    1.000
    C42      C        0.95390    0.29820    0.16870    1.000
    Zn7      Zn       0.57851    0.94328    0.41113    1.000
    Zn8      Zn       0.11572    0.95666    0.41616    1.000
    P7       P        0.35449    0.06865    0.41450    1.000
    P8       P        0.65533    0.54625    0.09053    1.000
    O31      O        0.21430    0.05436    0.41528    1.000
    O32      O        0.42250    0.99420    0.38810    1.000
    O33      O        0.40310    0.10170    0.48881    1.000
    O34      O        0.35950    0.36090    0.14621    1.000
    O35      O        0.41430    0.43140    0.24530    1.000
    O36      O        0.45390    0.78980    0.36920    1.000
    O37      O        0.61890    0.85900    0.33677    1.000
    O38      O        0.56350    0.47636    0.09699    1.000
    O39      O        0.78800    0.52030    0.10300    1.000
    O40      O        0.63560    0.59251    0.01658    1.000
    C43      C        0.37390    0.15170    0.34980    1.000
    C44      C        0.46530    0.21060    0.36310    1.000
    H25      H        0.52320    0.20310    0.40160    1.000
    C45      C        0.47040    0.27960    0.31960    1.000
    H26      H        0.52910    0.31950    0.33040    1.000
    C46      C        0.38770    0.28940    0.25960    1.000
    C47      C        0.30050    0.22960    0.24390    1.000
    H27      H        0.24720    0.23450    0.20270    1.000
    C48      C        0.29340    0.16190    0.29050    1.000
    H28      H        0.23250    0.12290    0.28120    1.000
    C49      C        0.38890    0.36700    0.21560    1.000
    C50      C        0.62440    0.62000    0.16280    1.000
    C51      C        0.54310    0.60330    0.21980    1.000
    H29      H        0.50390    0.55300    0.22150    1.000
    C52      C        0.51950    0.66030    0.27390    1.000
    H30      H        0.46410    0.64820    0.31150    1.000
    C53      C        0.57740    0.73560    0.27310    1.000
    C54      C        0.66150    0.75120    0.21810    1.000
    H31      H        0.70460    0.80020    0.21850    1.000
    C55      C        0.68290    0.69510    0.16200    1.000
    H32      H        0.73670    0.70790    0.12370    1.000
    C56      C        0.54610    0.79820    0.33130    1.000
