# CIF file generated by openbabel 3.1.0, see https://openbabel.org
data_I
_chemical_name_common 'image0'
_cell_length_a 20.845
_cell_length_b 13.071
_cell_length_c 12.4964
_cell_angle_alpha 90
_cell_angle_beta 90
_cell_angle_gamma 90
_space_group_name_H-M_alt 'P 1'
_space_group_name_Hall 'P 1'
loop_
    _symmetry_equiv_pos_as_xyz
    x,y,z
loop_
    _atom_site_label
    _atom_site_type_symbol
    _atom_site_fract_x
    _atom_site_fract_y
    _atom_site_fract_z
    _atom_site_occupancy
    Zn1      Zn       0.02101    0.98747    0.06326    1.000
    O1       O        0.98170    0.82770    0.01580    1.000
    O2       O        0.98630    0.88820    0.17960    1.000
    O3       O        0.90710    0.81640    0.32100    1.000
    H1       H        0.92910    0.86000    0.29140    1.000
    O4       O        0.52440    0.57530    0.46110    1.000
    O5       O        0.60780    0.52970    0.56010    1.000
    O6       O        0.72080    0.57230    0.49750    1.000
    H2       H        0.69240    0.54620    0.53380    1.000
    N1       N        0.10350    0.94020    0.99070    1.000
    N2       N        0.43800    0.59890    0.65780    1.000
    C1       C        0.96760    0.82010    0.11340    1.000
    C2       C        0.84390    0.67400    0.27630    1.000
    C3       C        0.89260    0.74030    0.24970    1.000
    C4       C        0.92440    0.73640    0.14860    1.000
    C5       C        0.91100    0.65700    0.08290    1.000
    H3       H        0.93280    0.65230    0.01820    1.000
    C6       C        0.86610    0.58230    0.10750    1.000
    C7       C        0.83050    0.59070    0.20530    1.000
    C8       C        0.78280    0.51650    0.22720    1.000
    H4       H        0.75970    0.52000    0.29070    1.000
    C9       C        0.77030    0.43860    0.15500    1.000
    H5       H        0.73870    0.39060    0.17030    1.000
    C10      C        0.80480    0.43150    0.05930    1.000
    H6       H        0.79530    0.37980    0.01080    1.000
    C11      C        0.85170    0.49940    0.03700    1.000
    H7       H        0.87530    0.49200    0.97420    1.000
    C12      C        0.80730    0.68920    0.37920    1.000
    H8       H        0.82430    0.74950    0.41450    1.000
    H9       H        0.81600    0.63110    0.42540    1.000
    C13      C        0.58440    0.57980    0.48500    1.000
    C14      C        0.73510    0.70120    0.36980    1.000
    C15      C        0.69450    0.64240    0.42960    1.000
    C16      C        0.62630    0.64660    0.41880    1.000
    C17      C        0.60030    0.71570    0.34800    1.000
    H10      H        0.55610    0.71850    0.33860    1.000
    C18      C        0.63970    0.78120    0.29060    1.000
    C19      C        0.70750    0.77770    0.30250    1.000
    C20      C        0.74430    0.85040    0.24750    1.000
    H11      H        0.78870    0.84990    0.25510    1.000
    C21      C        0.71640    0.92170    0.18300    1.000
    H12      H        0.74210    0.97100    0.15050    1.000
    C22      C        0.64920    0.92310    0.16420    1.000
    H13      H        0.63100    0.96950    0.11660    1.000
    C23      C        0.61180    0.85370    0.21840    1.000
    H14      H        0.56760    0.85380    0.20790    1.000
    C24      C        0.10970    0.93970    0.88400    1.000
    H15      H        0.07910    0.97360    0.84300    1.000
    C25      C        0.15960    0.89110    0.83250    1.000
    H16      H        0.16180    0.89220    0.75820    1.000
    C26      C        0.20560    0.84180    0.88920    1.000
    C27      C        0.19850    0.83980    0.99720    1.000
    H17      H        0.22780    0.80370    0.03880    1.000
    C28      C        0.14730    0.89170    0.04690    1.000
    H18      H        0.14450    0.89170    0.12120    1.000
    C29      C        0.25080    0.77680    0.82500    1.000
    H19      H        0.24810    0.70680    0.85000    1.000
    H20      H        0.23700    0.77750    0.75060    1.000
    C30      C        0.31940    0.81110    0.83000    1.000
    H21      H        0.33350    0.81260    0.90400    1.000
    H22      H        0.32330    0.87960    0.80100    1.000
    C31      C        0.42400    0.58400    0.75980    1.000
    H23      H        0.43960    0.52600    0.79430    1.000
    C32      C        0.38590    0.65390    0.81750    1.000
    H24      H        0.37780    0.64290    0.88980    1.000
    C33      C        0.36050    0.73850    0.76710    1.000
    C34      C        0.37780    0.75370    0.66190    1.000
    H25      H        0.36350    0.81150    0.62570    1.000
    C35      C        0.41630    0.68330    0.60970    1.000
    H26      H        0.42750    0.69520    0.53880    1.000
    C36      C        0.27500    0.80000    0.88000    1.000
    C37      C        0.30200    0.80700    0.76700    1.000
    H27      H        0.30220    0.83730    0.92800    1.000
    H28      H        0.27480    0.72860    0.90200    1.000
    H29      H        0.27080    0.78320    0.71510    1.000
    H30      H        0.31360    0.87670    0.75050    1.000
    Zn2      Zn       0.47899    0.48747    0.56326    1.000
    O7       O        0.51830    0.32770    0.51580    1.000
    O8       O        0.51370    0.38820    0.67960    1.000
    O9       O        0.59290    0.31640    0.82100    1.000
    H31      H        0.57090    0.36000    0.79140    1.000
    O10      O        0.97560    0.07530    0.96110    1.000
    O11      O        0.89220    0.02970    0.06010    1.000
    O12      O        0.77920    0.07230    0.99750    1.000
    H32      H        0.80760    0.04620    0.03380    1.000
    N3       N        0.39650    0.44020    0.49070    1.000
    N4       N        0.06200    0.09890    0.15780    1.000
    C38      C        0.53240    0.32010    0.61340    1.000
    C39      C        0.65610    0.17400    0.77630    1.000
    C40      C        0.60740    0.24030    0.74970    1.000
    C41      C        0.57560    0.23640    0.64860    1.000
    C42      C        0.58900    0.15700    0.58290    1.000
    H33      H        0.56720    0.15230    0.51820    1.000
    C43      C        0.63390    0.08230    0.60750    1.000
    C44      C        0.66950    0.09070    0.70530    1.000
    C45      C        0.71720    0.01650    0.72720    1.000
    H34      H        0.74030    0.02000    0.79070    1.000
    C46      C        0.72970    0.93860    0.65500    1.000
    H35      H        0.76130    0.89060    0.67030    1.000
    C47      C        0.69520    0.93150    0.55930    1.000
    H36      H        0.70470    0.87980    0.51080    1.000
    C48      C        0.64830    0.99940    0.53700    1.000
    H37      H        0.62470    0.99200    0.47420    1.000
    C49      C        0.69270    0.18920    0.87920    1.000
    H38      H        0.67570    0.24950    0.91450    1.000
    H39      H        0.68400    0.13110    0.92540    1.000
    C50      C        0.91560    0.07980    0.98500    1.000
    C51      C        0.76490    0.20120    0.86980    1.000
    C52      C        0.80550    0.14240    0.92960    1.000
    C53      C        0.87370    0.14660    0.91880    1.000
    C54      C        0.89970    0.21570    0.84800    1.000
    H40      H        0.94390    0.21850    0.83860    1.000
    C55      C        0.86030    0.28120    0.79060    1.000
    C56      C        0.79250    0.27770    0.80250    1.000
    C57      C        0.75570    0.35040    0.74750    1.000
    H41      H        0.71130    0.34990    0.75510    1.000
    C58      C        0.78360    0.42170    0.68300    1.000
    H42      H        0.75790    0.47100    0.65050    1.000
    C59      C        0.85080    0.42310    0.66420    1.000
    H43      H        0.86900    0.46950    0.61660    1.000
    C60      C        0.88820    0.35370    0.71840    1.000
    H44      H        0.93240    0.35380    0.70790    1.000
    C61      C        0.39030    0.43970    0.38400    1.000
    H45      H        0.42090    0.47360    0.34300    1.000
    C62      C        0.34040    0.39110    0.33250    1.000
    H46      H        0.33820    0.39220    0.25820    1.000
    C63      C        0.29440    0.34180    0.38920    1.000
    C64      C        0.30150    0.33980    0.49720    1.000
    H47      H        0.27220    0.30370    0.53880    1.000
    C65      C        0.35270    0.39170    0.54690    1.000
    H48      H        0.35550    0.39170    0.62120    1.000
    C66      C        0.24920    0.27680    0.32500    1.000
    H49      H        0.25190    0.20680    0.35000    1.000
    H50      H        0.26300    0.27750    0.25060    1.000
    C67      C        0.18060    0.31110    0.33000    1.000
    H51      H        0.16650    0.31260    0.40400    1.000
    H52      H        0.17670    0.37960    0.30100    1.000
    C68      C        0.07600    0.08400    0.25980    1.000
    H53      H        0.06040    0.02600    0.29430    1.000
    C69      C        0.11410    0.15390    0.31750    1.000
    H54      H        0.12220    0.14290    0.38980    1.000
    C70      C        0.13950    0.23850    0.26710    1.000
    C71      C        0.12220    0.25370    0.16190    1.000
    H55      H        0.13650    0.31150    0.12570    1.000
    C72      C        0.08370    0.18330    0.10970    1.000
    H56      H        0.07250    0.19520    0.03880    1.000
    C73      C        0.22500    0.30000    0.38000    1.000
    C74      C        0.19800    0.30700    0.26700    1.000
    H57      H        0.19780    0.33730    0.42800    1.000
    H58      H        0.22520    0.22860    0.40200    1.000
    H59      H        0.22920    0.28320    0.21510    1.000
    H60      H        0.18640    0.37670    0.25050    1.000
    Zn3      Zn       0.97899    0.01253    0.56326    1.000
    O13      O        0.01830    0.17230    0.51580    1.000
    O14      O        0.01370    0.11180    0.67960    1.000
    O15      O        0.09290    0.18360    0.82100    1.000
    H61      H        0.07090    0.14000    0.79140    1.000
    O16      O        0.47560    0.42470    0.96110    1.000
    O17      O        0.39220    0.47030    0.06010    1.000
    O18      O        0.27920    0.42770    0.99750    1.000
    H62      H        0.30760    0.45380    0.03380    1.000
    N5       N        0.89650    0.05980    0.49070    1.000
    N6       N        0.56200    0.40110    0.15780    1.000
    C75      C        0.03240    0.17990    0.61340    1.000
    C76      C        0.15610    0.32600    0.77630    1.000
    C77      C        0.10740    0.25970    0.74970    1.000
    C78      C        0.07560    0.26360    0.64860    1.000
    C79      C        0.08900    0.34300    0.58290    1.000
    H63      H        0.06720    0.34770    0.51820    1.000
    C80      C        0.13390    0.41770    0.60750    1.000
    C81      C        0.16950    0.40930    0.70530    1.000
    C82      C        0.21720    0.48350    0.72720    1.000
    H64      H        0.24030    0.48000    0.79070    1.000
    C83      C        0.22970    0.56140    0.65500    1.000
    H65      H        0.26130    0.60940    0.67030    1.000
    C84      C        0.19520    0.56850    0.55930    1.000
    H66      H        0.20470    0.62020    0.51080    1.000
    C85      C        0.14830    0.50060    0.53700    1.000
    H67      H        0.12470    0.50800    0.47420    1.000
    C86      C        0.19270    0.31080    0.87920    1.000
    H68      H        0.17570    0.25050    0.91450    1.000
    H69      H        0.18400    0.36890    0.92540    1.000
    C87      C        0.41560    0.42020    0.98500    1.000
    C88      C        0.26490    0.29880    0.86980    1.000
    C89      C        0.30550    0.35760    0.92960    1.000
    C90      C        0.37370    0.35340    0.91880    1.000
    C91      C        0.39970    0.28430    0.84800    1.000
    H70      H        0.44390    0.28150    0.83860    1.000
    C92      C        0.36030    0.21880    0.79060    1.000
    C93      C        0.29250    0.22230    0.80250    1.000
    C94      C        0.25570    0.14960    0.74750    1.000
    H71      H        0.21130    0.15010    0.75510    1.000
    C95      C        0.28360    0.07830    0.68300    1.000
    H72      H        0.25790    0.02900    0.65050    1.000
    C96      C        0.35080    0.07690    0.66420    1.000
    H73      H        0.36900    0.03050    0.61660    1.000
    C97      C        0.38820    0.14630    0.71840    1.000
    H74      H        0.43240    0.14620    0.70790    1.000
    C98      C        0.89030    0.06030    0.38400    1.000
    H75      H        0.92090    0.02640    0.34300    1.000
    C99      C        0.84040    0.10890    0.33250    1.000
    H76      H        0.83820    0.10780    0.25820    1.000
    C100     C        0.79440    0.15820    0.38920    1.000
    C101     C        0.80150    0.16020    0.49720    1.000
    H77      H        0.77220    0.19630    0.53880    1.000
    C102     C        0.85270    0.10830    0.54690    1.000
    H78      H        0.85550    0.10830    0.62120    1.000
    C103     C        0.74920    0.22320    0.32500    1.000
    H79      H        0.75190    0.29320    0.35000    1.000
    H80      H        0.76300    0.22250    0.25060    1.000
    C104     C        0.68060    0.18890    0.33000    1.000
    H81      H        0.66650    0.18740    0.40400    1.000
    H82      H        0.67670    0.12040    0.30100    1.000
    C105     C        0.57600    0.41600    0.25980    1.000
    H83      H        0.56040    0.47400    0.29430    1.000
    C106     C        0.61410    0.34610    0.31750    1.000
    H84      H        0.62220    0.35710    0.38980    1.000
    C107     C        0.63950    0.26150    0.26710    1.000
    C108     C        0.62220    0.24630    0.16190    1.000
    H85      H        0.63650    0.18850    0.12570    1.000
    C109     C        0.58370    0.31670    0.10970    1.000
    H86      H        0.57250    0.30480    0.03880    1.000
    C110     C        0.72500    0.20000    0.38000    1.000
    C111     C        0.69800    0.19300    0.26700    1.000
    H87      H        0.69780    0.16270    0.42800    1.000
    H88      H        0.72520    0.27140    0.40200    1.000
    H89      H        0.72920    0.21680    0.21510    1.000
    H90      H        0.68640    0.12330    0.25050    1.000
    Zn4      Zn       0.52101    0.51253    0.06326    1.000
    O19      O        0.48170    0.67230    0.01580    1.000
    O20      O        0.48630    0.61180    0.17960    1.000
    O21      O        0.40710    0.68360    0.32100    1.000
    H91      H        0.42910    0.64000    0.29140    1.000
    O22      O        0.02440    0.92470    0.46110    1.000
    O23      O        0.10780    0.97030    0.56010    1.000
    O24      O        0.22080    0.92770    0.49750    1.000
    H92      H        0.19240    0.95380    0.53380    1.000
    N7       N        0.60350    0.55980    0.99070    1.000
    N8       N        0.93800    0.90110    0.65780    1.000
    C112     C        0.46760    0.67990    0.11340    1.000
    C113     C        0.34390    0.82600    0.27630    1.000
    C114     C        0.39260    0.75970    0.24970    1.000
    C115     C        0.42440    0.76360    0.14860    1.000
    C116     C        0.41100    0.84300    0.08290    1.000
    H93      H        0.43280    0.84770    0.01820    1.000
    C117     C        0.36610    0.91770    0.10750    1.000
    C118     C        0.33050    0.90930    0.20530    1.000
    C119     C        0.28280    0.98350    0.22720    1.000
    H94      H        0.25970    0.98000    0.29070    1.000
    C120     C        0.27030    0.06140    0.15500    1.000
    H95      H        0.23870    0.10940    0.17030    1.000
    C121     C        0.30480    0.06850    0.05930    1.000
    H96      H        0.29530    0.12020    0.01080    1.000
    C122     C        0.35170    0.00060    0.03700    1.000
    H97      H        0.37530    0.00800    0.97420    1.000
    C123     C        0.30730    0.81080    0.37920    1.000
    H98      H        0.32430    0.75050    0.41450    1.000
    H99      H        0.31600    0.86890    0.42540    1.000
    C124     C        0.08440    0.92020    0.48500    1.000
    C125     C        0.23510    0.79880    0.36980    1.000
    C126     C        0.19450    0.85760    0.42960    1.000
    C127     C        0.12630    0.85340    0.41880    1.000
    C128     C        0.10030    0.78430    0.34800    1.000
    H100     H        0.05610    0.78150    0.33860    1.000
    C129     C        0.13970    0.71880    0.29060    1.000
    C130     C        0.20750    0.72230    0.30250    1.000
    C131     C        0.24430    0.64960    0.24750    1.000
    H101     H        0.28870    0.65010    0.25510    1.000
    C132     C        0.21640    0.57830    0.18300    1.000
    H102     H        0.24210    0.52900    0.15050    1.000
    C133     C        0.14920    0.57690    0.16420    1.000
    H103     H        0.13100    0.53050    0.11660    1.000
    C134     C        0.11180    0.64630    0.21840    1.000
    H104     H        0.06760    0.64620    0.20790    1.000
    C135     C        0.60970    0.56030    0.88400    1.000
    H105     H        0.57910    0.52640    0.84300    1.000
    C136     C        0.65960    0.60890    0.83250    1.000
    H106     H        0.66180    0.60780    0.75820    1.000
    C137     C        0.70560    0.65820    0.88920    1.000
    C138     C        0.69850    0.66020    0.99720    1.000
    H107     H        0.72780    0.69630    0.03880    1.000
    C139     C        0.64730    0.60830    0.04690    1.000
    H108     H        0.64450    0.60830    0.12120    1.000
    C140     C        0.75080    0.72320    0.82500    1.000
    H109     H        0.74810    0.79320    0.85000    1.000
    H110     H        0.73700    0.72250    0.75060    1.000
    C141     C        0.81940    0.68890    0.83000    1.000
    H111     H        0.83350    0.68740    0.90400    1.000
    H112     H        0.82330    0.62040    0.80100    1.000
    C142     C        0.92400    0.91600    0.75980    1.000
    H113     H        0.93960    0.97400    0.79430    1.000
    C143     C        0.88590    0.84610    0.81750    1.000
    H114     H        0.87780    0.85710    0.88980    1.000
    C144     C        0.86050    0.76150    0.76710    1.000
    C145     C        0.87780    0.74630    0.66190    1.000
    H115     H        0.86350    0.68850    0.62570    1.000
    C146     C        0.91630    0.81670    0.60970    1.000
    H116     H        0.92750    0.80480    0.53880    1.000
    C147     C        0.77500    0.70000    0.88000    1.000
    C148     C        0.80200    0.69300    0.76700    1.000
    H117     H        0.80220    0.66270    0.92800    1.000
    H118     H        0.77480    0.77140    0.90200    1.000
    H119     H        0.77080    0.71680    0.71510    1.000
    H120     H        0.81360    0.62330    0.75050    1.000
