# CIF file generated by openbabel 3.1.0, see https://openbabel.org
data_I
_chemical_name_common 'image0'
_cell_length_a 20.0376
_cell_length_b 20.874
_cell_length_c 20.9807
_cell_angle_alpha 90
_cell_angle_beta 90
_cell_angle_gamma 90
_space_group_name_H-M_alt 'P 1'
_space_group_name_Hall 'P 1'
loop_
    _symmetry_equiv_pos_as_xyz
    x,y,z
loop_
    _atom_site_label
    _atom_site_type_symbol
    _atom_site_fract_x
    _atom_site_fract_y
    _atom_site_fract_z
    _atom_site_occupancy
    Sb1      Sb       0.78756    0.16031    0.87298    1.000
    Sb2      Sb       0.77997    0.04790    0.74613    1.000
    Sb3      Sb       0.70604    0.20170    0.72612    1.000
    Sb4      Sb       0.54934    0.97853    0.94914    1.000
    Sb5      Sb       0.47155    0.00330    0.79759    1.000
    Sb6      Sb       0.47125    0.12821    0.91304    1.000
    Fe1      Fe       0.62762    0.08609    0.83327    1.000
    Fe2      Fe       0.63066    0.19001    0.93837    1.000
    Fe3      Fe       0.69278    0.95361    0.85682    1.000
    Fe4      Fe       0.55902    0.11407    0.70359    1.000
    Mn1      Mn       0.70493    0.05319    0.97869    1.000
    Mn2      Mn       0.62383    0.96888    0.71398    1.000
    Mn3      Mn       0.55363    0.23522    0.80511    1.000
    O1       O        0.76860    0.14124    0.77587    1.000
    O2       O        0.48600    0.03135    0.89160    1.000
    O3       O        0.69430    0.13069    0.89094    1.000
    O4       O        0.69520    0.02627    0.79141    1.000
    O5       O        0.62910    0.15356    0.76229    1.000
    O6       O        0.62650    0.01412    0.89986    1.000
    O7       O        0.55680    0.04710    0.77569    1.000
    O8       O        0.56210    0.14383    0.88100    1.000
    O9       O        0.80560    0.11670    0.97340    1.000
    O10      O        0.89130    0.06210    0.01500    1.000
    O11      O        0.82640    0.07280    0.85790    1.000
    O12      O        0.75280    0.98320    0.92640    1.000
    O13      O        0.78010    0.92060    0.82420    1.000
    O14      O        0.89000    0.91410    0.84420    1.000
    O15      O        0.73550    0.96620    0.67720    1.000
    O16      O        0.74810    0.95510    0.57290    1.000
    O17      O        0.73750    0.09220    0.67050    1.000
    O18      O        0.60700    0.04680    0.65600    1.000
    O19      O        0.59170    0.16530    0.62870    1.000
    O20      O        0.65170    0.16210    0.53910    1.000
    O21      O        0.62630    0.28580    0.73410    1.000
    O22      O        0.64030    0.39050    0.75520    1.000
    O23      O        0.73140    0.25340    0.80440    1.000
    O24      O        0.61620    0.26280    0.87910    1.000
    O25      O        0.70620    0.24660    0.96380    1.000
    O26      O        0.75360    0.34270    0.94990    1.000
    O27      O        0.34200    0.37840    0.59250    1.000
    O28      O        0.40170    0.28960    0.59700    1.000
    O29      O        0.36070    0.40950    0.70890    1.000
    O30      O        0.48900    0.42485    0.65910    1.000
    O31      O        0.49100    0.43439    0.78530    1.000
    O32      O        0.50640    0.33040    0.79820    1.000
    O33      O        0.46950    0.08310    0.67200    1.000
    O34      O        0.36110    0.10630    0.67070    1.000
    O35      O        0.50240    0.18377    0.73660    1.000
    O36      O        0.42730    0.11690    0.82650    1.000
    O37      O        0.45620    0.23090    0.87090    1.000
    O38      O        0.37020    0.27610    0.82120    1.000
    O39      O        0.55760    0.21740    0.99890    1.000
    O40      O        0.51870    0.20490    0.09690    1.000
    O41      O        0.64590    0.12970    0.00990    1.000
    O42      O        0.52860    0.05840    0.00160    1.000
    O43      O        0.62950    0.98340    0.03000    1.000
    O44      O        0.61820    0.00250    0.13520    1.000
    C1       C        0.85350    0.07460    0.97080    1.000
    C2       C        0.85770    0.03810    0.90840    1.000
    H1       H        0.90480    0.03120    0.89760    1.000
    C3       C        0.82330    0.97370    0.91530    1.000
    H2       H        0.84230    0.95140    0.95220    1.000
    C4       C        0.83400    0.93260    0.85680    1.000
    C5       C        0.73720    0.98750    0.62000    1.000
    C6       C        0.72020    0.05910    0.61390    1.000
    H3       H        0.74490    0.07740    0.57790    1.000
    C7       C        0.64540    0.06700    0.60230    1.000
    H4       H        0.63300    0.04040    0.56560    1.000
    C8       C        0.62880    0.13570    0.58690    1.000
    C9       C        0.65250    0.33260    0.76390    1.000
    C10      C        0.70210    0.31390    0.81670    1.000
    H5       H        0.73720    0.34650    0.81930    1.000
    C11      C        0.66470    0.31140    0.87950    1.000
    H6       H        0.64190    0.35250    0.88550    1.000
    C12      C        0.71070    0.30130    0.93490    1.000
    C13      C        0.37950    0.33940    0.62110    1.000
    C14      C        0.39860    0.35610    0.69010    1.000
    H7       H        0.38720    0.31990    0.71770    1.000
    C15      C        0.47250    0.36820    0.69460    1.000
    H8       H        0.49640    0.33160    0.67640    1.000
    C16      C        0.49230    0.37590    0.76580    1.000
    C17      C        0.41700    0.11850    0.68760    1.000
    C18      C        0.43180    0.17570    0.72870    1.000
    H9       H        0.41370    0.21410    0.70790    1.000
    C19      C        0.39880    0.16820    0.79380    1.000
    H10      H        0.35110    0.15970    0.78770    1.000
    C20      C        0.40670    0.23120    0.83200    1.000
    C21      C        0.55400    0.18810    0.05200    1.000
    C22      C        0.59890    0.13120    0.05940    1.000
    H11      H        0.62280    0.13520    0.10000    1.000
    C23      C        0.55780    0.06950    0.06080    1.000
    H12      H        0.52270    0.07350    0.09310    1.000
    C24      C        0.60490    0.01290    0.07910    1.000
    Sb7      Sb       0.71244    0.83969    0.37298    1.000
    Sb8      Sb       0.72003    0.95210    0.24613    1.000
    Sb9      Sb       0.79396    0.79830    0.22612    1.000
    Sb10     Sb       0.95066    0.02147    0.44914    1.000
    Sb11     Sb       0.02845    0.99670    0.29759    1.000
    Sb12     Sb       0.02875    0.87179    0.41304    1.000
    Fe5      Fe       0.87238    0.91391    0.33327    1.000
    Fe6      Fe       0.86934    0.80999    0.43837    1.000
    Fe7      Fe       0.80722    0.04639    0.35682    1.000
    Fe8      Fe       0.94098    0.88593    0.20359    1.000
    Mn4      Mn       0.79507    0.94681    0.47869    1.000
    Mn5      Mn       0.87617    0.03112    0.21398    1.000
    Mn6      Mn       0.94637    0.76478    0.30511    1.000
    O45      O        0.73140    0.85876    0.27587    1.000
    O46      O        0.01400    0.96865    0.39160    1.000
    O47      O        0.80570    0.86931    0.39094    1.000
    O48      O        0.80480    0.97373    0.29141    1.000
    O49      O        0.87090    0.84644    0.26229    1.000
    O50      O        0.87350    0.98588    0.39986    1.000
    O51      O        0.94320    0.95290    0.27569    1.000
    O52      O        0.93790    0.85617    0.38100    1.000
    O53      O        0.69440    0.88330    0.47340    1.000
    O54      O        0.60870    0.93790    0.51500    1.000
    O55      O        0.67360    0.92720    0.35790    1.000
    O56      O        0.74720    0.01680    0.42640    1.000
    O57      O        0.71990    0.07940    0.32420    1.000
    O58      O        0.61000    0.08590    0.34420    1.000
    O59      O        0.76450    0.03380    0.17720    1.000
    O60      O        0.75190    0.04490    0.07290    1.000
    O61      O        0.76250    0.90780    0.17050    1.000
    O62      O        0.89300    0.95320    0.15600    1.000
    O63      O        0.90830    0.83470    0.12870    1.000
    O64      O        0.84830    0.83790    0.03910    1.000
    O65      O        0.87370    0.71420    0.23410    1.000
    O66      O        0.85970    0.60950    0.25520    1.000
    O67      O        0.76860    0.74660    0.30440    1.000
    O68      O        0.88380    0.73720    0.37910    1.000
    O69      O        0.79380    0.75340    0.46380    1.000
    O70      O        0.74640    0.65730    0.44990    1.000
    O71      O        0.15800    0.62160    0.09250    1.000
    O72      O        0.09830    0.71040    0.09700    1.000
    O73      O        0.13930    0.59050    0.20890    1.000
    O74      O        0.01100    0.57515    0.15910    1.000
    O75      O        0.00900    0.56561    0.28530    1.000
    O76      O        0.99360    0.66960    0.29820    1.000
    O77      O        0.03050    0.91690    0.17200    1.000
    O78      O        0.13890    0.89370    0.17070    1.000
    O79      O        0.99760    0.81623    0.23660    1.000
    O80      O        0.07270    0.88310    0.32650    1.000
    O81      O        0.04380    0.76910    0.37090    1.000
    O82      O        0.12980    0.72390    0.32120    1.000
    O83      O        0.94240    0.78260    0.49890    1.000
    O84      O        0.98130    0.79510    0.59690    1.000
    O85      O        0.85410    0.87030    0.50990    1.000
    O86      O        0.97140    0.94160    0.50160    1.000
    O87      O        0.87050    0.01660    0.53000    1.000
    O88      O        0.88180    0.99750    0.63520    1.000
    C25      C        0.64650    0.92540    0.47080    1.000
    C26      C        0.64230    0.96190    0.40840    1.000
    H13      H        0.59520    0.96880    0.39760    1.000
    C27      C        0.67670    0.02630    0.41530    1.000
    H14      H        0.65770    0.04860    0.45220    1.000
    C28      C        0.66600    0.06740    0.35680    1.000
    C29      C        0.76280    0.01250    0.12000    1.000
    C30      C        0.77980    0.94090    0.11390    1.000
    H15      H        0.75510    0.92260    0.07790    1.000
    C31      C        0.85460    0.93300    0.10230    1.000
    H16      H        0.86700    0.95960    0.06560    1.000
    C32      C        0.87120    0.86430    0.08690    1.000
    C33      C        0.84750    0.66740    0.26390    1.000
    C34      C        0.79790    0.68610    0.31670    1.000
    H17      H        0.76280    0.65350    0.31930    1.000
    C35      C        0.83530    0.68860    0.37950    1.000
    H18      H        0.85810    0.64750    0.38550    1.000
    C36      C        0.78930    0.69870    0.43490    1.000
    C37      C        0.12050    0.66060    0.12110    1.000
    C38      C        0.10140    0.64390    0.19010    1.000
    H19      H        0.11280    0.68010    0.21770    1.000
    C39      C        0.02750    0.63180    0.19460    1.000
    H20      H        0.00360    0.66840    0.17640    1.000
    C40      C        0.00770    0.62410    0.26580    1.000
    C41      C        0.08300    0.88150    0.18760    1.000
    C42      C        0.06820    0.82430    0.22870    1.000
    H21      H        0.08630    0.78590    0.20790    1.000
    C43      C        0.10120    0.83180    0.29380    1.000
    H22      H        0.14890    0.84030    0.28770    1.000
    C44      C        0.09330    0.76880    0.33200    1.000
    C45      C        0.94600    0.81190    0.55200    1.000
    C46      C        0.90110    0.86880    0.55940    1.000
    H23      H        0.87720    0.86480    0.60000    1.000
    C47      C        0.94220    0.93050    0.56080    1.000
    H24      H        0.97730    0.92650    0.59310    1.000
    C48      C        0.89510    0.98710    0.57910    1.000
    Sb13     Sb       0.21244    0.66031    0.62702    1.000
    Sb14     Sb       0.22003    0.54790    0.75387    1.000
    Sb15     Sb       0.29396    0.70170    0.77388    1.000
    Sb16     Sb       0.45066    0.47853    0.55086    1.000
    Sb17     Sb       0.52845    0.50330    0.70241    1.000
    Sb18     Sb       0.52875    0.62821    0.58696    1.000
    Fe9      Fe       0.37238    0.58609    0.66673    1.000
    Fe10     Fe       0.36934    0.69001    0.56163    1.000
    Fe11     Fe       0.30722    0.45361    0.64318    1.000
    Fe12     Fe       0.44098    0.61407    0.79641    1.000
    Mn7      Mn       0.29507    0.55319    0.52131    1.000
    Mn8      Mn       0.37617    0.46888    0.78602    1.000
    Mn9      Mn       0.44637    0.73522    0.69489    1.000
    O89      O        0.23140    0.64124    0.72413    1.000
    O90      O        0.51400    0.53135    0.60840    1.000
    O91      O        0.30570    0.63069    0.60906    1.000
    O92      O        0.30480    0.52627    0.70859    1.000
    O93      O        0.37090    0.65356    0.73771    1.000
    O94      O        0.37350    0.51412    0.60014    1.000
    O95      O        0.44320    0.54710    0.72431    1.000
    O96      O        0.43790    0.64383    0.61900    1.000
    O97      O        0.19440    0.61670    0.52660    1.000
    O98      O        0.10870    0.56210    0.48500    1.000
    O99      O        0.17360    0.57280    0.64210    1.000
    O100     O        0.24720    0.48320    0.57360    1.000
    O101     O        0.21990    0.42060    0.67580    1.000
    O102     O        0.11000    0.41410    0.65580    1.000
    O103     O        0.26450    0.46620    0.82280    1.000
    O104     O        0.25190    0.45510    0.92710    1.000
    O105     O        0.26250    0.59220    0.82950    1.000
    O106     O        0.39300    0.54680    0.84400    1.000
    O107     O        0.40830    0.66530    0.87130    1.000
    O108     O        0.34830    0.66210    0.96090    1.000
    O109     O        0.37370    0.78580    0.76590    1.000
    O110     O        0.35970    0.89050    0.74480    1.000
    O111     O        0.26860    0.75340    0.69560    1.000
    O112     O        0.38380    0.76280    0.62090    1.000
    O113     O        0.29380    0.74660    0.53620    1.000
    O114     O        0.24640    0.84270    0.55010    1.000
    O115     O        0.65800    0.87840    0.90750    1.000
    O116     O        0.59830    0.78960    0.90300    1.000
    O117     O        0.63930    0.90950    0.79110    1.000
    O118     O        0.51100    0.92485    0.84090    1.000
    O119     O        0.50900    0.93439    0.71470    1.000
    O120     O        0.49360    0.83040    0.70180    1.000
    O121     O        0.53050    0.58310    0.82800    1.000
    O122     O        0.63890    0.60630    0.82930    1.000
    O123     O        0.49760    0.68377    0.76340    1.000
    O124     O        0.57270    0.61690    0.67350    1.000
    O125     O        0.54380    0.73090    0.62910    1.000
    O126     O        0.62980    0.77610    0.67880    1.000
    O127     O        0.44240    0.71740    0.50110    1.000
    O128     O        0.48130    0.70490    0.40310    1.000
    O129     O        0.35410    0.62970    0.49010    1.000
    O130     O        0.47140    0.55840    0.49840    1.000
    O131     O        0.37050    0.48340    0.47000    1.000
    O132     O        0.38180    0.50250    0.36480    1.000
    C49      C        0.14650    0.57460    0.52920    1.000
    C50      C        0.14230    0.53810    0.59160    1.000
    H25      H        0.09520    0.53120    0.60240    1.000
    C51      C        0.17670    0.47370    0.58470    1.000
    H26      H        0.15770    0.45140    0.54780    1.000
    C52      C        0.16600    0.43260    0.64320    1.000
    C53      C        0.26280    0.48750    0.88000    1.000
    C54      C        0.27980    0.55910    0.88610    1.000
    H27      H        0.25510    0.57740    0.92210    1.000
    C55      C        0.35460    0.56700    0.89770    1.000
    H28      H        0.36700    0.54040    0.93440    1.000
    C56      C        0.37120    0.63570    0.91310    1.000
    C57      C        0.34750    0.83260    0.73610    1.000
    C58      C        0.29790    0.81390    0.68330    1.000
    H29      H        0.26280    0.84650    0.68070    1.000
    C59      C        0.33530    0.81140    0.62050    1.000
    H30      H        0.35810    0.85250    0.61450    1.000
    C60      C        0.28930    0.80130    0.56510    1.000
    C61      C        0.62050    0.83940    0.87890    1.000
    C62      C        0.60140    0.85610    0.80990    1.000
    H31      H        0.61280    0.81990    0.78230    1.000
    C63      C        0.52750    0.86820    0.80540    1.000
    H32      H        0.50360    0.83160    0.82360    1.000
    C64      C        0.50770    0.87590    0.73420    1.000
    C65      C        0.58300    0.61850    0.81240    1.000
    C66      C        0.56820    0.67570    0.77130    1.000
    H33      H        0.58630    0.71410    0.79210    1.000
    C67      C        0.60120    0.66820    0.70620    1.000
    H34      H        0.64890    0.65970    0.71230    1.000
    C68      C        0.59330    0.73120    0.66800    1.000
    C69      C        0.44600    0.68810    0.44800    1.000
    C70      C        0.40110    0.63120    0.44060    1.000
    H35      H        0.37720    0.63520    0.40000    1.000
    C71      C        0.44220    0.56950    0.43920    1.000
    H36      H        0.47730    0.57350    0.40690    1.000
    C72      C        0.39510    0.51290    0.42090    1.000
    Sb19     Sb       0.28756    0.33969    0.12702    1.000
    Sb20     Sb       0.27997    0.45210    0.25387    1.000
    Sb21     Sb       0.20604    0.29830    0.27388    1.000
    Sb22     Sb       0.04934    0.52147    0.05086    1.000
    Sb23     Sb       0.97155    0.49670    0.20241    1.000
    Sb24     Sb       0.97125    0.37179    0.08696    1.000
    Fe13     Fe       0.12762    0.41391    0.16673    1.000
    Fe14     Fe       0.13066    0.30999    0.06163    1.000
    Fe15     Fe       0.19278    0.54639    0.14318    1.000
    Fe16     Fe       0.05902    0.38593    0.29641    1.000
    Mn10     Mn       0.20493    0.44681    0.02131    1.000
    Mn11     Mn       0.12383    0.53112    0.28602    1.000
    Mn12     Mn       0.05363    0.26478    0.19489    1.000
    O133     O        0.26860    0.35876    0.22413    1.000
    O134     O        0.98600    0.46865    0.10840    1.000
    O135     O        0.19430    0.36931    0.10906    1.000
    O136     O        0.19520    0.47373    0.20859    1.000
    O137     O        0.12910    0.34644    0.23771    1.000
    O138     O        0.12650    0.48588    0.10014    1.000
    O139     O        0.05680    0.45290    0.22431    1.000
    O140     O        0.06210    0.35617    0.11900    1.000
    O141     O        0.30560    0.38330    0.02660    1.000
    O142     O        0.39130    0.43790    0.98500    1.000
    O143     O        0.32640    0.42720    0.14210    1.000
    O144     O        0.25280    0.51680    0.07360    1.000
    O145     O        0.28010    0.57940    0.17580    1.000
    O146     O        0.39000    0.58590    0.15580    1.000
    O147     O        0.23550    0.53380    0.32280    1.000
    O148     O        0.24810    0.54490    0.42710    1.000
    O149     O        0.23750    0.40780    0.32950    1.000
    O150     O        0.10700    0.45320    0.34400    1.000
    O151     O        0.09170    0.33470    0.37130    1.000
    O152     O        0.15170    0.33790    0.46090    1.000
    O153     O        0.12630    0.21420    0.26590    1.000
    O154     O        0.14030    0.10950    0.24480    1.000
    O155     O        0.23140    0.24660    0.19560    1.000
    O156     O        0.11620    0.23720    0.12090    1.000
    O157     O        0.20620    0.25340    0.03620    1.000
    O158     O        0.25360    0.15730    0.05010    1.000
    O159     O        0.84200    0.12160    0.40750    1.000
    O160     O        0.90170    0.21040    0.40300    1.000
    O161     O        0.86070    0.09050    0.29110    1.000
    O162     O        0.98900    0.07515    0.34090    1.000
    O163     O        0.99100    0.06561    0.21470    1.000
    O164     O        0.00640    0.16960    0.20180    1.000
    O165     O        0.96950    0.41690    0.32800    1.000
    O166     O        0.86110    0.39370    0.32930    1.000
    O167     O        0.00240    0.31623    0.26340    1.000
    O168     O        0.92730    0.38310    0.17350    1.000
    O169     O        0.95620    0.26910    0.12910    1.000
    O170     O        0.87020    0.22390    0.17880    1.000
    O171     O        0.05760    0.28260    0.00110    1.000
    O172     O        0.01870    0.29510    0.90310    1.000
    O173     O        0.14590    0.37030    0.99010    1.000
    O174     O        0.02860    0.44160    0.99840    1.000
    O175     O        0.12950    0.51660    0.97000    1.000
    O176     O        0.11820    0.49750    0.86480    1.000
    C73      C        0.35350    0.42540    0.02920    1.000
    C74      C        0.35770    0.46190    0.09160    1.000
    H37      H        0.40480    0.46880    0.10240    1.000
    C75      C        0.32330    0.52630    0.08470    1.000
    H38      H        0.34230    0.54860    0.04780    1.000
    C76      C        0.33400    0.56740    0.14320    1.000
    C77      C        0.23720    0.51250    0.38000    1.000
    C78      C        0.22020    0.44090    0.38610    1.000
    H39      H        0.24490    0.42260    0.42210    1.000
    C79      C        0.14540    0.43300    0.39770    1.000
    H40      H        0.13300    0.45960    0.43440    1.000
    C80      C        0.12880    0.36430    0.41310    1.000
    C81      C        0.15250    0.16740    0.23610    1.000
    C82      C        0.20210    0.18610    0.18330    1.000
    H41      H        0.23720    0.15350    0.18070    1.000
    C83      C        0.16470    0.18860    0.12050    1.000
    H42      H        0.14190    0.14750    0.11450    1.000
    C84      C        0.21070    0.19870    0.06510    1.000
    C85      C        0.87950    0.16060    0.37890    1.000
    C86      C        0.89860    0.14390    0.30990    1.000
    H43      H        0.88720    0.18010    0.28230    1.000
    C87      C        0.97250    0.13180    0.30540    1.000
    H44      H        0.99640    0.16840    0.32360    1.000
    C88      C        0.99230    0.12410    0.23420    1.000
    C89      C        0.91700    0.38150    0.31240    1.000
    C90      C        0.93180    0.32430    0.27130    1.000
    H45      H        0.91370    0.28590    0.29210    1.000
    C91      C        0.89880    0.33180    0.20620    1.000
    H46      H        0.85110    0.34030    0.21230    1.000
    C92      C        0.90670    0.26880    0.16800    1.000
    C93      C        0.05400    0.31190    0.94800    1.000
    C94      C        0.09890    0.36880    0.94060    1.000
    H47      H        0.12280    0.36480    0.90000    1.000
    C95      C        0.05780    0.43050    0.93920    1.000
    H48      H        0.02270    0.42650    0.90690    1.000
    C96      C        0.10490    0.48710    0.92090    1.000
