# CIF file generated by openbabel 3.1.0, see https://openbabel.org
data_I
_chemical_name_common 'image0'
_cell_length_a 11.862
_cell_length_b 12.013
_cell_length_c 13.685
_cell_angle_alpha 102.81
_cell_angle_beta 100.06
_cell_angle_gamma 98.87
_space_group_name_H-M_alt 'P 1'
_space_group_name_Hall 'P 1'
loop_
    _symmetry_equiv_pos_as_xyz
    x,y,z
loop_
    _atom_site_label
    _atom_site_type_symbol
    _atom_site_fract_x
    _atom_site_fract_y
    _atom_site_fract_z
    _atom_site_occupancy
    Co1      Co       0.25342    0.97299    0.10743    1.000
    Co2      Co       0.13028    0.27979    0.18220    1.000
    O1       O        0.38679    0.09596    0.08828    1.000
    O2       O        0.38818    0.08860    0.24694    1.000
    O3       O        0.38129    0.48739    0.25450    1.000
    O4       O        0.30757    0.29832    0.20359    1.000
    N1       N        0.14436    0.28661    0.34280    1.000
    N2       N        0.32615    0.82512    0.08310    1.000
    O5       O        0.94748    0.23491    0.13894    1.000
    O6       O        0.85099    0.06610    0.02981    1.000
    O7       O        0.12829    0.09808    0.15271    1.000
    O8       O        0.13646    0.93506    0.19704    1.000
    N3       N        0.12486    0.28565    0.02652    1.000
    S1       S        0.65748    0.07569    0.17563    1.000
    C1       C        0.42530    0.82190    0.04910    1.000
    H1       H        0.46680    0.89080    0.04190    1.000
    C2       C        0.46890    0.72230    0.02440    1.000
    H2       H        0.53830    0.72480    0.00140    1.000
    C3       C        0.40880    0.61760    0.03390    1.000
    C4       C        0.30430    0.62050    0.06600    1.000
    H3       H        0.25940    0.55230    0.07130    1.000
    C5       C        0.26710    0.72390    0.08990    1.000
    H4       H        0.19720    0.72360    0.11190    1.000
    C6       C        0.45040    0.50780    0.01230    1.000
    H5       H        0.40070    0.44190    0.01650    1.000
    C7       C        0.42660    0.13670    0.18378    1.000
    C8       C        0.64040    0.21940    0.22590    1.000
    C9       C        0.52740    0.24020    0.22051    1.000
    C10      C        0.51170    0.35520    0.24880    1.000
    C11      C        0.39130    0.38360    0.23570    1.000
    C12      C        0.60890    0.44490    0.28670    1.000
    H6       H        0.59900    0.52130    0.30660    1.000
    C13      C        0.72000    0.42230    0.29540    1.000
    H7       H        0.78440    0.48300    0.32330    1.000
    C14      C        0.73590    0.31040    0.26300    1.000
    H8       H        0.81100    0.29590    0.26600    1.000
    C15      C        0.79460    0.06530    0.24720    1.000
    C16      C        0.79740    0.03060    0.33770    1.000
    H9       H        0.73220    0.02820    0.36690    1.000
    C17      C        0.89640    0.99990    0.38430    1.000
    H10      H        0.90000    0.98190    0.44730    1.000
    C18      C        0.99040    0.99580    0.33730    1.000
    H11      H        0.05380    0.96740    0.36510    1.000
    C19      C        0.99030    0.03410    0.24878    1.000
    C20      C        0.89430    0.07470    0.20556    1.000
    C21      C        0.09078    0.02280    0.19680    1.000
    C22      C        0.89810    0.12980    0.11670    1.000
    C23      C        0.06670    0.32390    0.39560    1.000
    H12      H        0.00560    0.35100    0.36220    1.000
    C24      C        0.07270    0.32400    0.49760    1.000
    H13      H        0.01610    0.35010    0.53090    1.000
    C25      C        0.16400    0.28490    0.55002    1.000
    C26      C        0.24400    0.24720    0.49540    1.000
    H14      H        0.30670    0.22070    0.52720    1.000
    C27      C        0.23160    0.24840    0.39370    1.000
    H15      H        0.28640    0.22150    0.35850    1.000
    C28      C        0.17780    0.28010    0.65820    1.000
    H16      H        0.24040    0.25000    0.68530    1.000
    C29      C        0.10910    0.31470    0.71950    1.000
    H17      H        0.04870    0.34810    0.69330    1.000
    C30      C        0.11940    0.30530    0.82569    1.000
    C31      C        0.05010    0.35870    0.88480    1.000
    H18      H        0.00040    0.40270    0.85830    1.000
    C32      C        0.05480    0.34670    0.98320    1.000
    H19      H        0.00680    0.38280    0.02140    1.000
    C33      C        0.19240    0.23340    0.96974    1.000
    H20      H        0.24150    0.19030    0.99840    1.000
    C34      C        0.19220    0.24090    0.87040    1.000
    H21      H        0.24030    0.20330    0.83350    1.000
    Co3      Co       0.74658    0.02701    0.89257    1.000
    Co4      Co       0.86972    0.72021    0.81780    1.000
    O9       O        0.61321    0.90404    0.91172    1.000
    O10      O        0.61182    0.91140    0.75306    1.000
    O11      O        0.61871    0.51261    0.74550    1.000
    O12      O        0.69243    0.70168    0.79641    1.000
    N4       N        0.85564    0.71339    0.65720    1.000
    N5       N        0.67385    0.17488    0.91690    1.000
    O13      O        0.05252    0.76509    0.86106    1.000
    O14      O        0.14901    0.93390    0.97019    1.000
    O15      O        0.87171    0.90192    0.84729    1.000
    O16      O        0.86354    0.06494    0.80296    1.000
    N6       N        0.87514    0.71435    0.97348    1.000
    S2       S        0.34252    0.92431    0.82437    1.000
    C35      C        0.57470    0.17810    0.95090    1.000
    H22      H        0.53320    0.10920    0.95810    1.000
    C36      C        0.53110    0.27770    0.97560    1.000
    H23      H        0.46170    0.27520    0.99860    1.000
    C37      C        0.59120    0.38240    0.96610    1.000
    C38      C        0.69570    0.37950    0.93400    1.000
    H24      H        0.74060    0.44770    0.92870    1.000
    C39      C        0.73290    0.27610    0.91010    1.000
    H25      H        0.80280    0.27640    0.88810    1.000
    C40      C        0.54960    0.49220    0.98770    1.000
    H26      H        0.59930    0.55810    0.98350    1.000
    C41      C        0.57340    0.86330    0.81622    1.000
    C42      C        0.35960    0.78060    0.77410    1.000
    C43      C        0.47260    0.75980    0.77949    1.000
    C44      C        0.48830    0.64480    0.75120    1.000
    C45      C        0.60870    0.61640    0.76430    1.000
    C46      C        0.39110    0.55510    0.71330    1.000
    H27      H        0.40100    0.47870    0.69340    1.000
    C47      C        0.28000    0.57770    0.70460    1.000
    H28      H        0.21560    0.51700    0.67670    1.000
    C48      C        0.26410    0.68960    0.73700    1.000
    H29      H        0.18900    0.70410    0.73400    1.000
    C49      C        0.20540    0.93470    0.75280    1.000
    C50      C        0.20260    0.96940    0.66230    1.000
    H30      H        0.26780    0.97180    0.63310    1.000
    C51      C        0.10360    0.00010    0.61570    1.000
    H31      H        0.10000    0.01810    0.55270    1.000
    C52      C        0.00960    0.00420    0.66270    1.000
    H32      H        0.94620    0.03260    0.63490    1.000
    C53      C        0.00970    0.96590    0.75122    1.000
    C54      C        0.10570    0.92530    0.79444    1.000
    C55      C        0.90922    0.97720    0.80320    1.000
    C56      C        0.10190    0.87020    0.88330    1.000
    C57      C        0.93330    0.67610    0.60440    1.000
    H33      H        0.99440    0.64900    0.63780    1.000
    C58      C        0.92730    0.67600    0.50240    1.000
    H34      H        0.98390    0.64990    0.46910    1.000
    C59      C        0.83600    0.71510    0.44998    1.000
    C60      C        0.75600    0.75280    0.50460    1.000
    H35      H        0.69330    0.77930    0.47280    1.000
    C61      C        0.76840    0.75160    0.60630    1.000
    H36      H        0.71360    0.77850    0.64150    1.000
    C62      C        0.82220    0.71990    0.34180    1.000
    H37      H        0.75960    0.75000    0.31470    1.000
    C63      C        0.89090    0.68530    0.28050    1.000
    H38      H        0.95130    0.65190    0.30670    1.000
    C64      C        0.88060    0.69470    0.17431    1.000
    C65      C        0.94990    0.64130    0.11520    1.000
    H39      H        0.99960    0.59730    0.14170    1.000
    C66      C        0.94520    0.65330    0.01680    1.000
    H40      H        0.99320    0.61720    0.97860    1.000
    C67      C        0.80760    0.76660    0.03026    1.000
    H41      H        0.75850    0.80970    0.00160    1.000
    C68      C        0.80780    0.75910    0.12960    1.000
    H42      H        0.75970    0.79670    0.16650    1.000
