# CIF file generated by openbabel 3.1.0, see https://openbabel.org
data_I
_chemical_name_common 'image0'
_cell_length_a 14.2437
_cell_length_b 25.8296
_cell_length_c 27.8391
_cell_angle_alpha 90
_cell_angle_beta 97.592
_cell_angle_gamma 90
_space_group_name_H-M_alt 'P 1'
_space_group_name_Hall 'P 1'
loop_
    _symmetry_equiv_pos_as_xyz
    x,y,z
loop_
    _atom_site_label
    _atom_site_type_symbol
    _atom_site_fract_x
    _atom_site_fract_y
    _atom_site_fract_z
    _atom_site_occupancy
    Eu1      Eu       0.52224    0.58486    0.78094    1.000
    Ag1      Ag       0.07392    0.52020    0.92649    1.000
    Ag2      Ag       0.91786    0.61498    0.46745    1.000
    Ag3      Ag       0.01572    0.26053    0.81619    1.000
    N1       N        0.70940    0.58689    0.78529    1.000
    N2       N        0.61340    0.51418    0.82851    1.000
    N3       N        0.71710    0.45031    0.82428    1.000
    N4       N        0.01510    0.45040    0.89340    1.000
    N5       N        0.58940    0.57692    0.70225    1.000
    N6       N        0.68080    0.61705    0.65413    1.000
    N7       N        0.90560    0.60220    0.54798    1.000
    N8       N        0.60750    0.66295    0.81972    1.000
    N9       N        0.71080    0.68269    0.88448    1.000
    N10      N        0.92720    0.80710    0.92849    1.000
    N11      N        0.33400    0.58438    0.77409    1.000
    N12      N        0.43750    0.50088    0.75496    1.000
    N13      N        0.34950    0.44189    0.78670    1.000
    N14      N        0.08710    0.32300    0.78020    1.000
    N15      N        0.43400    0.64984    0.72481    1.000
    N16      N        0.33420    0.64916    0.65520    1.000
    N17      N        0.04980    0.71630    0.63130    1.000
    N18      N        0.44890    0.60177    0.85678    1.000
    N19      N        0.35460    0.65773    0.88900    1.000
    N20      N        0.11850    0.59820    0.94490    1.000
    N21      N        0.05760    0.56360    0.46460    1.000
    C1       C        0.74450    0.53370    0.78140    1.000
    H1       H        0.81330    0.53230    0.79290    1.000
    H2       H        0.73430    0.52220    0.74720    1.000
    C2       C        0.69240    0.49910    0.81154    1.000
    C3       C        0.58570    0.47130    0.85398    1.000
    C4       C        0.50810    0.46530    0.87920    1.000
    H3       H        0.46520    0.49290    0.88220    1.000
    C5       C        0.49640    0.41700    0.89970    1.000
    H4       H        0.44370    0.41120    0.91670    1.000
    C6       C        0.56160    0.37670    0.89580    1.000
    H5       H        0.55140    0.34410    0.91020    1.000
    C7       C        0.63850    0.38290    0.87210    1.000
    H6       H        0.68220    0.35550    0.86980    1.000
    C8       C        0.65040    0.43160    0.85124    1.000
    C9       C        0.79340    0.42020    0.80720    1.000
    H7       H        0.81220    0.43740    0.77810    1.000
    H8       H        0.76850    0.38550    0.79710    1.000
    C10      C        0.88150    0.41330    0.84430    1.000
    C11      C        0.90920    0.36570    0.86090    1.000
    H9       H        0.87290    0.33590    0.85050    1.000
    C12      C        0.99250    0.36100    0.89360    1.000
    H10      H        0.01310    0.32790    0.90560    1.000
    C13      C        0.04250    0.40310    0.90770    1.000
    H11      H        0.10020    0.39910    0.92870    1.000
    C14      C        0.93410    0.45360    0.86190    1.000
    H12      H        0.91310    0.48720    0.85150    1.000
    C15      C        0.73520    0.61810    0.74422    1.000
    H13      H        0.80120    0.61060    0.73890    1.000
    H14      H        0.73010    0.65550    0.75130    1.000
    C16      C        0.66820    0.60390    0.70020    1.000
    C17      C        0.54770    0.57190    0.65423    1.000
    C18      C        0.46440    0.54750    0.63470    1.000
    H15      H        0.42620    0.52940    0.65460    1.000
    C19      C        0.43910    0.55060    0.58470    1.000
    H16      H        0.38260    0.53430    0.57020    1.000
    C20      C        0.49610    0.57750    0.55540    1.000
    H17      H        0.47600    0.57960    0.52160    1.000
    C21      C        0.57940    0.60070    0.57400    1.000
    H18      H        0.61830    0.61820    0.55410    1.000
    C22      C        0.60380    0.59700    0.62404    1.000
    C23      C        0.75380    0.65140    0.63930    1.000
    H19      H        0.78350    0.67100    0.66790    1.000
    H20      H        0.72370    0.67660    0.61530    1.000
    C24      C        0.82970    0.62190    0.61750    1.000
    C25      C        0.89490    0.59080    0.64540    1.000
    H21      H        0.89270    0.58690    0.67910    1.000
    C26      C        0.96250    0.56600    0.62350    1.000
    H22      H        0.00610    0.54340    0.64180    1.000
    C27      C        0.96730    0.57360    0.57570    1.000
    H23      H        0.01720    0.55760    0.56160    1.000
    C28      C        0.83860    0.62640    0.56930    1.000
    H24      H        0.79470    0.64790    0.54980    1.000
    C29      C        0.75200    0.60980    0.83190    1.000
    H25      H        0.75810    0.58300    0.85760    1.000
    H26      H        0.81590    0.62330    0.82880    1.000
    C30      C        0.69040    0.65220    0.84485    1.000
    C31      C        0.57130    0.70420    0.84430    1.000
    C32      C        0.48760    0.73210    0.83320    1.000
    H27      H        0.44580    0.72590    0.80420    1.000
    C33      C        0.46790    0.76940    0.86620    1.000
    H28      H        0.41160    0.78940    0.85980    1.000
    C34      C        0.52920    0.77800    0.90870    1.000
    H29      H        0.51220    0.80290    0.93120    1.000
    C35      C        0.61390    0.75170    0.91930    1.000
    H30      H        0.65580    0.75810    0.94820    1.000
    C36      C        0.63410    0.71590    0.88580    1.000
    C37      C        0.79530    0.68030    0.92100    1.000
    H31      H        0.82440    0.64560    0.92020    1.000
    H32      H        0.77600    0.68520    0.95360    1.000
    C38      C        0.86780    0.72090    0.91280    1.000
    C39      C        0.93740    0.71150    0.88320    1.000
    H33      H        0.94130    0.67890    0.86770    1.000
    C40      C        0.00070    0.75080    0.87690    1.000
    H34      H        0.04880    0.74550    0.85680    1.000
    C41      C        0.99370    0.79720    0.89960    1.000
    H35      H        0.03780    0.82370    0.89480    1.000
    C42      C        0.86730    0.76870    0.93520    1.000
    H36      H        0.82170    0.77450    0.95670    1.000
    C43      C        0.30180    0.53440    0.79158    1.000
    H37      H        0.23540    0.52800    0.77740    1.000
    H38      H        0.30440    0.53540    0.82730    1.000
    C44      C        0.36350    0.49210    0.77756    1.000
    C45      C        0.47500    0.45200    0.74755    1.000
    C46      C        0.55380    0.43720    0.72520    1.000
    H39      H        0.59000    0.46190    0.71030    1.000
    C47      C        0.57600    0.38550    0.72590    1.000
    H40      H        0.62810    0.37420    0.71050    1.000
    C48      C        0.52460    0.34900    0.74830    1.000
    H41      H        0.54440    0.31390    0.74910    1.000
    C49      C        0.44570    0.36220    0.76960    1.000
    H42      H        0.40990    0.33710    0.78420    1.000
    C50      C        0.42160    0.41470    0.76830    1.000
    C51      C        0.28130    0.42000    0.81660    1.000
    H43      H        0.25680    0.44810    0.83570    1.000
    H44      H        0.31440    0.39480    0.83970    1.000
    C52      C        0.19780    0.39300    0.78630    1.000
    C53      C        0.15430    0.41230    0.74400    1.000
    H45      H        0.17590    0.44340    0.73100    1.000
    C54      C        0.07600    0.38530    0.71960    1.000
    H46      H        0.04600    0.39680    0.68900    1.000
    C55      C        0.04510    0.34280    0.74060    1.000
    H47      H        0.98910    0.32660    0.72550    1.000
    C56      C        0.16570    0.34740    0.80230    1.000
    H48      H        0.19980    0.33190    0.83030    1.000
    C57      C        0.29510    0.59180    0.72241    1.000
    H49      H        0.29600    0.55860    0.70470    1.000
    H50      H        0.22880    0.60410    0.71980    1.000
    C58      C        0.35420    0.63060    0.70110    1.000
    C59      C        0.46790    0.68350    0.69130    1.000
    C60      C        0.55070    0.71360    0.69570    1.000
    H51      H        0.59140    0.71600    0.72550    1.000
    C61      C        0.57020    0.73950    0.65500    1.000
    H52      H        0.62580    0.76010    0.65660    1.000
    C62      C        0.50900    0.73600    0.61100    1.000
    H53      H        0.52600    0.75350    0.58330    1.000
    C63      C        0.42510    0.70810    0.60630    1.000
    H54      H        0.38320    0.70680    0.57680    1.000
    C64      C        0.40670    0.68240    0.64750    1.000
    C65      C        0.26020    0.62980    0.61850    1.000
    H55      H        0.23760    0.59610    0.62960    1.000
    H56      H        0.28830    0.62330    0.58840    1.000
    C66      C        0.17580    0.66500    0.60650    1.000
    C67      C        0.14010    0.67310    0.55880    1.000
    H57      H        0.17050    0.65820    0.53370    1.000
    C68      C        0.06030    0.70290    0.54740    1.000
    H58      H        0.03610    0.70980    0.51460    1.000
    C69      C        0.01710    0.72230    0.58400    1.000
    H59      H        0.96000    0.74120    0.57580    1.000
    C70      C        0.12940    0.68690    0.64100    1.000
    H60      H        0.15420    0.68140    0.67400    1.000
    C71      C        0.30470    0.62710    0.80395    1.000
    H61      H        0.23880    0.62150    0.81060    1.000
    H62      H        0.30720    0.66040    0.78650    1.000
    C72      C        0.36970    0.62870    0.85012    1.000
    C73      C        0.49000    0.61430    0.90445    1.000
    C74      C        0.57460    0.59720    0.93079    1.000
    H63      H        0.61370    0.57250    0.91790    1.000
    C75      C        0.59870    0.61810    0.97670    1.000
    H64      H        0.65550    0.60730    0.99580    1.000
    C76      C        0.54040    0.65490    0.99539    1.000
    H65      H        0.56020    0.66930    0.02650    1.000
    C77      C        0.45540    0.67070    0.97002    1.000
    H66      H        0.41540    0.69490    0.98310    1.000
    C78      C        0.43200    0.64940    0.92451    1.000
    C79      C        0.27640    0.69320    0.89410    1.000
    H67      H        0.24060    0.70030    0.86180    1.000
    H68      H        0.30190    0.72640    0.90790    1.000
    C80      C        0.21060    0.67010    0.92670    1.000
    C81      C        0.18670    0.69610    0.96630    1.000
    H69      H        0.21110    0.72980    0.97400    1.000
    C82      C        0.12690    0.67280    0.99490    1.000
    H70      H        0.10810    0.69050    0.02200    1.000
    C83      C        0.09500    0.62390    0.98360    1.000
    H71      H        0.05490    0.60750    0.00370    1.000
    C84      C        0.17420    0.62220    0.91740    1.000
    H72      H        0.18940    0.60470    0.88940    1.000
    C85      C        0.12600    0.54140    0.46780    1.000
    C86      C        0.21560    0.51330    0.47020    1.000
    H73      H        0.21860    0.48690    0.49570    1.000
    H74      H        0.26850    0.53750    0.47760    1.000
    H75      H        0.21980    0.49650    0.43900    1.000
    Eu2      Eu       0.47776    0.08486    0.71906    1.000
    Ag4      Ag       0.92608    0.02020    0.57351    1.000
    Ag5      Ag       0.08214    0.11498    0.03255    1.000
    Ag6      Ag       0.98428    0.76053    0.68381    1.000
    N22      N        0.29060    0.08689    0.71471    1.000
    N23      N        0.38660    0.01418    0.67149    1.000
    N24      N        0.28290    0.95031    0.67572    1.000
    N25      N        0.98490    0.95040    0.60660    1.000
    N26      N        0.41060    0.07692    0.79775    1.000
    N27      N        0.31920    0.11705    0.84587    1.000
    N28      N        0.09440    0.10220    0.95202    1.000
    N29      N        0.39250    0.16295    0.68028    1.000
    N30      N        0.28920    0.18269    0.61552    1.000
    N31      N        0.07280    0.30710    0.57151    1.000
    N32      N        0.66600    0.08438    0.72591    1.000
    N33      N        0.56250    0.00088    0.74504    1.000
    N34      N        0.65050    0.94189    0.71330    1.000
    N35      N        0.91290    0.82300    0.71980    1.000
    N36      N        0.56600    0.14984    0.77519    1.000
    N37      N        0.66580    0.14916    0.84480    1.000
    N38      N        0.95020    0.21630    0.86870    1.000
    N39      N        0.55110    0.10177    0.64322    1.000
    N40      N        0.64540    0.15773    0.61100    1.000
    N41      N        0.88150    0.09820    0.55510    1.000
    N42      N        0.94240    0.06360    0.03540    1.000
    C87      C        0.25550    0.03370    0.71860    1.000
    H76      H        0.18670    0.03230    0.70710    1.000
    H77      H        0.26570    0.02220    0.75280    1.000
    C88      C        0.30760    0.99910    0.68846    1.000
    C89      C        0.41430    0.97130    0.64602    1.000
    C90      C        0.49190    0.96530    0.62080    1.000
    H78      H        0.53480    0.99290    0.61780    1.000
    C91      C        0.50360    0.91700    0.60030    1.000
    H79      H        0.55630    0.91120    0.58330    1.000
    C92      C        0.43840    0.87670    0.60420    1.000
    H80      H        0.44860    0.84410    0.58980    1.000
    C93      C        0.36150    0.88290    0.62790    1.000
    H81      H        0.31780    0.85550    0.63020    1.000
    C94      C        0.34960    0.93160    0.64876    1.000
    C95      C        0.20660    0.92020    0.69280    1.000
    H82      H        0.18780    0.93740    0.72190    1.000
    H83      H        0.23150    0.88550    0.70290    1.000
    C96      C        0.11850    0.91330    0.65570    1.000
    C97      C        0.09080    0.86570    0.63910    1.000
    H84      H        0.12710    0.83590    0.64950    1.000
    C98      C        0.00750    0.86100    0.60640    1.000
    H85      H        0.98690    0.82790    0.59440    1.000
    C99      C        0.95750    0.90310    0.59230    1.000
    H86      H        0.89980    0.89910    0.57130    1.000
    C100     C        0.06590    0.95360    0.63810    1.000
    H87      H        0.08690    0.98720    0.64850    1.000
    C101     C        0.26480    0.11810    0.75578    1.000
    H88      H        0.19880    0.11060    0.76110    1.000
    H89      H        0.26990    0.15550    0.74870    1.000
    C102     C        0.33180    0.10390    0.79980    1.000
    C103     C        0.45230    0.07190    0.84577    1.000
    C104     C        0.53560    0.04750    0.86530    1.000
    H90      H        0.57380    0.02940    0.84540    1.000
    C105     C        0.56090    0.05060    0.91530    1.000
    H91      H        0.61740    0.03430    0.92980    1.000
    C106     C        0.50390    0.07750    0.94460    1.000
    H92      H        0.52400    0.07960    0.97840    1.000
    C107     C        0.42060    0.10070    0.92600    1.000
    H93      H        0.38170    0.11820    0.94590    1.000
    C108     C        0.39620    0.09700    0.87596    1.000
    C109     C        0.24620    0.15140    0.86070    1.000
    H94      H        0.21650    0.17100    0.83210    1.000
    H95      H        0.27630    0.17660    0.88470    1.000
    C110     C        0.17030    0.12190    0.88250    1.000
    C111     C        0.10510    0.09080    0.85460    1.000
    H96      H        0.10730    0.08690    0.82090    1.000
    C112     C        0.03750    0.06600    0.87650    1.000
    H97      H        0.99390    0.04340    0.85820    1.000
    C113     C        0.03270    0.07360    0.92430    1.000
    H98      H        0.98280    0.05760    0.93840    1.000
    C114     C        0.16140    0.12640    0.93070    1.000
    H99      H        0.20530    0.14790    0.95020    1.000
    C115     C        0.24800    0.10980    0.66810    1.000
    H100     H        0.24190    0.08300    0.64240    1.000
    H101     H        0.18410    0.12330    0.67120    1.000
    C116     C        0.30960    0.15220    0.65515    1.000
    C117     C        0.42870    0.20420    0.65570    1.000
    C118     C        0.51240    0.23210    0.66680    1.000
    H102     H        0.55420    0.22590    0.69580    1.000
    C119     C        0.53210    0.26940    0.63380    1.000
    H103     H        0.58840    0.28940    0.64020    1.000
    C120     C        0.47080    0.27800    0.59130    1.000
    H104     H        0.48780    0.30290    0.56880    1.000
    C121     C        0.38610    0.25170    0.58070    1.000
    H105     H        0.34420    0.25810    0.55180    1.000
    C122     C        0.36590    0.21590    0.61420    1.000
    C123     C        0.20470    0.18030    0.57900    1.000
    H106     H        0.17560    0.14560    0.57980    1.000
    H107     H        0.22400    0.18520    0.54640    1.000
    C124     C        0.13220    0.22090    0.58720    1.000
    C125     C        0.06260    0.21150    0.61680    1.000
    H108     H        0.05870    0.17890    0.63230    1.000
    C126     C        0.99930    0.25080    0.62310    1.000
    H109     H        0.95120    0.24550    0.64320    1.000
    C127     C        0.00630    0.29720    0.60040    1.000
    H110     H        0.96220    0.32370    0.60520    1.000
    C128     C        0.13270    0.26870    0.56480    1.000
    H111     H        0.17830    0.27450    0.54330    1.000
    C129     C        0.69820    0.03440    0.70842    1.000
    H112     H        0.76460    0.02800    0.72260    1.000
    H113     H        0.69560    0.03540    0.67270    1.000
    C130     C        0.63650    0.99210    0.72244    1.000
    C131     C        0.52500    0.95200    0.75245    1.000
    C132     C        0.44620    0.93720    0.77480    1.000
    H114     H        0.41000    0.96190    0.78970    1.000
    C133     C        0.42400    0.88550    0.77410    1.000
    H115     H        0.37190    0.87420    0.78950    1.000
    C134     C        0.47540    0.84900    0.75170    1.000
    H116     H        0.45560    0.81390    0.75090    1.000
    C135     C        0.55430    0.86220    0.73040    1.000
    H117     H        0.59010    0.83710    0.71580    1.000
    C136     C        0.57840    0.91470    0.73170    1.000
    C137     C        0.71870    0.92000    0.68340    1.000
    H118     H        0.74320    0.94810    0.66430    1.000
    H119     H        0.68560    0.89480    0.66030    1.000
    C138     C        0.80220    0.89300    0.71370    1.000
    C139     C        0.84570    0.91230    0.75600    1.000
    H120     H        0.82410    0.94340    0.76900    1.000
    C140     C        0.92400    0.88530    0.78040    1.000
    H121     H        0.95400    0.89680    0.81100    1.000
    C141     C        0.95490    0.84280    0.75940    1.000
    H122     H        0.01090    0.82660    0.77450    1.000
    C142     C        0.83430    0.84740    0.69770    1.000
    H123     H        0.80020    0.83190    0.66970    1.000
    C143     C        0.70490    0.09180    0.77759    1.000
    H124     H        0.70400    0.05860    0.79530    1.000
    H125     H        0.77120    0.10410    0.78020    1.000
    C144     C        0.64580    0.13060    0.79890    1.000
    C145     C        0.53210    0.18350    0.80870    1.000
    C146     C        0.44930    0.21360    0.80430    1.000
    H126     H        0.40860    0.21600    0.77450    1.000
    C147     C        0.42980    0.23950    0.84500    1.000
    H127     H        0.37420    0.26010    0.84340    1.000
    C148     C        0.49100    0.23600    0.88900    1.000
    H128     H        0.47400    0.25350    0.91670    1.000
    C149     C        0.57490    0.20810    0.89370    1.000
    H129     H        0.61680    0.20680    0.92320    1.000
    C150     C        0.59330    0.18240    0.85250    1.000
    C151     C        0.73980    0.12980    0.88150    1.000
    H130     H        0.76240    0.09610    0.87040    1.000
    H131     H        0.71170    0.12330    0.91160    1.000
    C152     C        0.82420    0.16500    0.89350    1.000
    C153     C        0.85990    0.17310    0.94120    1.000
    H132     H        0.82950    0.15820    0.96630    1.000
    C154     C        0.93970    0.20290    0.95260    1.000
    H133     H        0.96390    0.20980    0.98540    1.000
    C155     C        0.98290    0.22230    0.91600    1.000
    H134     H        0.04000    0.24120    0.92420    1.000
    C156     C        0.87060    0.18690    0.85900    1.000
    H135     H        0.84580    0.18140    0.82600    1.000
    C157     C        0.69530    0.12710    0.69605    1.000
    H136     H        0.76120    0.12150    0.68940    1.000
    H137     H        0.69280    0.16040    0.71350    1.000
    C158     C        0.63030    0.12870    0.64988    1.000
    C159     C        0.51000    0.11430    0.59555    1.000
    C160     C        0.42540    0.09720    0.56921    1.000
    H138     H        0.38630    0.07250    0.58210    1.000
    C161     C        0.40130    0.11810    0.52330    1.000
    H139     H        0.34450    0.10730    0.50420    1.000
    C162     C        0.45960    0.15490    0.50461    1.000
    H140     H        0.43980    0.16930    0.47350    1.000
    C163     C        0.54460    0.17070    0.52998    1.000
    H141     H        0.58460    0.19490    0.51690    1.000
    C164     C        0.56800    0.14940    0.57549    1.000
    C165     C        0.72360    0.19320    0.60590    1.000
    H142     H        0.75940    0.20030    0.63820    1.000
    H143     H        0.69810    0.22640    0.59210    1.000
    C166     C        0.78940    0.17010    0.57330    1.000
    C167     C        0.81330    0.19610    0.53370    1.000
    H144     H        0.78890    0.22980    0.52600    1.000
    C168     C        0.87310    0.17280    0.50510    1.000
    H145     H        0.89190    0.19050    0.47800    1.000
    C169     C        0.90500    0.12390    0.51640    1.000
    H146     H        0.94510    0.10750    0.49630    1.000
    C170     C        0.82580    0.12220    0.58260    1.000
    H147     H        0.81060    0.10470    0.61060    1.000
    C171     C        0.87400    0.04140    0.03220    1.000
    C172     C        0.78440    0.01330    0.02980    1.000
    H148     H        0.78140    0.98690    0.00430    1.000
    H149     H        0.73150    0.03750    0.02240    1.000
    H150     H        0.78020    0.99650    0.06100    1.000
    Eu3      Eu       0.47776    0.41514    0.21906    1.000
    Ag7      Ag       0.92608    0.47980    0.07351    1.000
    Ag8      Ag       0.08214    0.38502    0.53255    1.000
    Ag9      Ag       0.98428    0.73947    0.18381    1.000
    N43      N        0.29060    0.41311    0.21471    1.000
    N44      N        0.38660    0.48582    0.17149    1.000
    N45      N        0.28290    0.54969    0.17572    1.000
    N46      N        0.98490    0.54960    0.10660    1.000
    N47      N        0.41060    0.42308    0.29775    1.000
    N48      N        0.31920    0.38295    0.34587    1.000
    N49      N        0.09440    0.39780    0.45202    1.000
    N50      N        0.39250    0.33705    0.18028    1.000
    N51      N        0.28920    0.31731    0.11552    1.000
    N52      N        0.07280    0.19290    0.07151    1.000
    N53      N        0.66600    0.41562    0.22591    1.000
    N54      N        0.56250    0.49912    0.24504    1.000
    N55      N        0.65050    0.55811    0.21330    1.000
    N56      N        0.91290    0.67700    0.21980    1.000
    N57      N        0.56600    0.35016    0.27519    1.000
    N58      N        0.66580    0.35084    0.34480    1.000
    N59      N        0.95020    0.28370    0.36870    1.000
    N60      N        0.55110    0.39823    0.14322    1.000
    N61      N        0.64540    0.34227    0.11100    1.000
    N62      N        0.88150    0.40180    0.05510    1.000
    N63      N        0.94240    0.43640    0.53540    1.000
    C173     C        0.25550    0.46630    0.21860    1.000
    H151     H        0.18670    0.46770    0.20710    1.000
    H152     H        0.26570    0.47780    0.25280    1.000
    C174     C        0.30760    0.50090    0.18846    1.000
    C175     C        0.41430    0.52870    0.14602    1.000
    C176     C        0.49190    0.53470    0.12080    1.000
    H153     H        0.53480    0.50710    0.11780    1.000
    C177     C        0.50360    0.58300    0.10030    1.000
    H154     H        0.55630    0.58880    0.08330    1.000
    C178     C        0.43840    0.62330    0.10420    1.000
    H155     H        0.44860    0.65590    0.08980    1.000
    C179     C        0.36150    0.61710    0.12790    1.000
    H156     H        0.31780    0.64450    0.13020    1.000
    C180     C        0.34960    0.56840    0.14876    1.000
    C181     C        0.20660    0.57980    0.19280    1.000
    H157     H        0.18780    0.56260    0.22190    1.000
    H158     H        0.23150    0.61450    0.20290    1.000
    C182     C        0.11850    0.58670    0.15570    1.000
    C183     C        0.09080    0.63430    0.13910    1.000
    H159     H        0.12710    0.66410    0.14950    1.000
    C184     C        0.00750    0.63900    0.10640    1.000
    H160     H        0.98690    0.67210    0.09440    1.000
    C185     C        0.95750    0.59690    0.09230    1.000
    H161     H        0.89980    0.60090    0.07130    1.000
    C186     C        0.06590    0.54640    0.13810    1.000
    H162     H        0.08690    0.51280    0.14850    1.000
    C187     C        0.26480    0.38190    0.25578    1.000
    H163     H        0.19880    0.38940    0.26110    1.000
    H164     H        0.26990    0.34450    0.24870    1.000
    C188     C        0.33180    0.39610    0.29980    1.000
    C189     C        0.45230    0.42810    0.34577    1.000
    C190     C        0.53560    0.45250    0.36530    1.000
    H165     H        0.57380    0.47060    0.34540    1.000
    C191     C        0.56090    0.44940    0.41530    1.000
    H166     H        0.61740    0.46570    0.42980    1.000
    C192     C        0.50390    0.42250    0.44460    1.000
    H167     H        0.52400    0.42040    0.47840    1.000
    C193     C        0.42060    0.39930    0.42600    1.000
    H168     H        0.38170    0.38180    0.44590    1.000
    C194     C        0.39620    0.40300    0.37596    1.000
    C195     C        0.24620    0.34860    0.36070    1.000
    H169     H        0.21650    0.32900    0.33210    1.000
    H170     H        0.27630    0.32340    0.38470    1.000
    C196     C        0.17030    0.37810    0.38250    1.000
    C197     C        0.10510    0.40920    0.35460    1.000
    H171     H        0.10730    0.41310    0.32090    1.000
    C198     C        0.03750    0.43400    0.37650    1.000
    H172     H        0.99390    0.45660    0.35820    1.000
    C199     C        0.03270    0.42640    0.42430    1.000
    H173     H        0.98280    0.44240    0.43840    1.000
    C200     C        0.16140    0.37360    0.43070    1.000
    H174     H        0.20530    0.35210    0.45020    1.000
    C201     C        0.24800    0.39020    0.16810    1.000
    H175     H        0.24190    0.41700    0.14240    1.000
    H176     H        0.18410    0.37670    0.17120    1.000
    C202     C        0.30960    0.34780    0.15515    1.000
    C203     C        0.42870    0.29580    0.15570    1.000
    C204     C        0.51240    0.26790    0.16680    1.000
    H177     H        0.55420    0.27410    0.19580    1.000
    C205     C        0.53210    0.23060    0.13380    1.000
    H178     H        0.58840    0.21060    0.14020    1.000
    C206     C        0.47080    0.22200    0.09130    1.000
    H179     H        0.48780    0.19710    0.06880    1.000
    C207     C        0.38610    0.24830    0.08070    1.000
    H180     H        0.34420    0.24190    0.05180    1.000
    C208     C        0.36590    0.28410    0.11420    1.000
    C209     C        0.20470    0.31970    0.07900    1.000
    H181     H        0.17560    0.35440    0.07980    1.000
    H182     H        0.22400    0.31480    0.04640    1.000
    C210     C        0.13220    0.27910    0.08720    1.000
    C211     C        0.06260    0.28850    0.11680    1.000
    H183     H        0.05870    0.32110    0.13230    1.000
    C212     C        0.99930    0.24920    0.12310    1.000
    H184     H        0.95120    0.25450    0.14320    1.000
    C213     C        0.00630    0.20280    0.10040    1.000
    H185     H        0.96220    0.17630    0.10520    1.000
    C214     C        0.13270    0.23130    0.06480    1.000
    H186     H        0.17830    0.22550    0.04330    1.000
    C215     C        0.69820    0.46560    0.20842    1.000
    H187     H        0.76460    0.47200    0.22260    1.000
    H188     H        0.69560    0.46460    0.17270    1.000
    C216     C        0.63650    0.50790    0.22244    1.000
    C217     C        0.52500    0.54800    0.25245    1.000
    C218     C        0.44620    0.56280    0.27480    1.000
    H189     H        0.41000    0.53810    0.28970    1.000
    C219     C        0.42400    0.61450    0.27410    1.000
    H190     H        0.37190    0.62580    0.28950    1.000
    C220     C        0.47540    0.65100    0.25170    1.000
    H191     H        0.45560    0.68610    0.25090    1.000
    C221     C        0.55430    0.63780    0.23040    1.000
    H192     H        0.59010    0.66290    0.21580    1.000
    C222     C        0.57840    0.58530    0.23170    1.000
    C223     C        0.71870    0.58000    0.18340    1.000
    H193     H        0.74320    0.55190    0.16430    1.000
    H194     H        0.68560    0.60520    0.16030    1.000
    C224     C        0.80220    0.60700    0.21370    1.000
    C225     C        0.84570    0.58770    0.25600    1.000
    H195     H        0.82410    0.55660    0.26900    1.000
    C226     C        0.92400    0.61470    0.28040    1.000
    H196     H        0.95400    0.60320    0.31100    1.000
    C227     C        0.95490    0.65720    0.25940    1.000
    H197     H        0.01090    0.67340    0.27450    1.000
    C228     C        0.83430    0.65260    0.19770    1.000
    H198     H        0.80020    0.66810    0.16970    1.000
    C229     C        0.70490    0.40820    0.27759    1.000
    H199     H        0.70400    0.44140    0.29530    1.000
    H200     H        0.77120    0.39590    0.28020    1.000
    C230     C        0.64580    0.36940    0.29890    1.000
    C231     C        0.53210    0.31650    0.30870    1.000
    C232     C        0.44930    0.28640    0.30430    1.000
    H201     H        0.40860    0.28400    0.27450    1.000
    C233     C        0.42980    0.26050    0.34500    1.000
    H202     H        0.37420    0.23990    0.34340    1.000
    C234     C        0.49100    0.26400    0.38900    1.000
    H203     H        0.47400    0.24650    0.41670    1.000
    C235     C        0.57490    0.29190    0.39370    1.000
    H204     H        0.61680    0.29320    0.42320    1.000
    C236     C        0.59330    0.31760    0.35250    1.000
    C237     C        0.73980    0.37020    0.38150    1.000
    H205     H        0.76240    0.40390    0.37040    1.000
    H206     H        0.71170    0.37670    0.41160    1.000
    C238     C        0.82420    0.33500    0.39350    1.000
    C239     C        0.85990    0.32690    0.44120    1.000
    H207     H        0.82950    0.34180    0.46630    1.000
    C240     C        0.93970    0.29710    0.45260    1.000
    H208     H        0.96390    0.29020    0.48540    1.000
    C241     C        0.98290    0.27770    0.41600    1.000
    H209     H        0.04000    0.25880    0.42420    1.000
    C242     C        0.87060    0.31310    0.35900    1.000
    H210     H        0.84580    0.31860    0.32600    1.000
    C243     C        0.69530    0.37290    0.19605    1.000
    H211     H        0.76120    0.37850    0.18940    1.000
    H212     H        0.69280    0.33960    0.21350    1.000
    C244     C        0.63030    0.37130    0.14988    1.000
    C245     C        0.51000    0.38570    0.09555    1.000
    C246     C        0.42540    0.40280    0.06921    1.000
    H213     H        0.38630    0.42750    0.08210    1.000
    C247     C        0.40130    0.38190    0.02330    1.000
    H214     H        0.34450    0.39270    0.00420    1.000
    C248     C        0.45960    0.34510    0.00461    1.000
    H215     H        0.43980    0.33070    0.97350    1.000
    C249     C        0.54460    0.32930    0.02998    1.000
    H216     H        0.58460    0.30510    0.01690    1.000
    C250     C        0.56800    0.35060    0.07549    1.000
    C251     C        0.72360    0.30680    0.10590    1.000
    H217     H        0.75940    0.29970    0.13820    1.000
    H218     H        0.69810    0.27360    0.09210    1.000
    C252     C        0.78940    0.32990    0.07330    1.000
    C253     C        0.81330    0.30390    0.03370    1.000
    H219     H        0.78890    0.27020    0.02600    1.000
    C254     C        0.87310    0.32720    0.00510    1.000
    H220     H        0.89190    0.30950    0.97800    1.000
    C255     C        0.90500    0.37610    0.01640    1.000
    H221     H        0.94510    0.39250    0.99630    1.000
    C256     C        0.82580    0.37780    0.08260    1.000
    H222     H        0.81060    0.39530    0.11060    1.000
    C257     C        0.87400    0.45860    0.53220    1.000
    C258     C        0.78440    0.48670    0.52980    1.000
    H223     H        0.78140    0.51310    0.50430    1.000
    H224     H        0.73150    0.46250    0.52240    1.000
    H225     H        0.78020    0.50350    0.56100    1.000
    Eu4      Eu       0.52224    0.91514    0.28094    1.000
    Ag10     Ag       0.07392    0.97980    0.42649    1.000
    Ag11     Ag       0.91786    0.88502    0.96745    1.000
    Ag12     Ag       0.01572    0.23947    0.31619    1.000
    N64      N        0.70940    0.91311    0.28529    1.000
    N65      N        0.61340    0.98582    0.32851    1.000
    N66      N        0.71710    0.04969    0.32428    1.000
    N67      N        0.01510    0.04960    0.39340    1.000
    N68      N        0.58940    0.92308    0.20225    1.000
    N69      N        0.68080    0.88295    0.15413    1.000
    N70      N        0.90560    0.89780    0.04798    1.000
    N71      N        0.60750    0.83705    0.31972    1.000
    N72      N        0.71080    0.81731    0.38448    1.000
    N73      N        0.92720    0.69290    0.42849    1.000
    N74      N        0.33400    0.91562    0.27409    1.000
    N75      N        0.43750    0.99912    0.25496    1.000
    N76      N        0.34950    0.05811    0.28670    1.000
    N77      N        0.08710    0.17700    0.28020    1.000
    N78      N        0.43400    0.85016    0.22481    1.000
    N79      N        0.33420    0.85084    0.15520    1.000
    N80      N        0.04980    0.78370    0.13130    1.000
    N81      N        0.44890    0.89823    0.35678    1.000
    N82      N        0.35460    0.84227    0.38900    1.000
    N83      N        0.11850    0.90180    0.44490    1.000
    N84      N        0.05760    0.93640    0.96460    1.000
    C259     C        0.74450    0.96630    0.28140    1.000
    H226     H        0.81330    0.96770    0.29290    1.000
    H227     H        0.73430    0.97780    0.24720    1.000
    C260     C        0.69240    0.00090    0.31154    1.000
    C261     C        0.58570    0.02870    0.35398    1.000
    C262     C        0.50810    0.03470    0.37920    1.000
    H228     H        0.46520    0.00710    0.38220    1.000
    C263     C        0.49640    0.08300    0.39970    1.000
    H229     H        0.44370    0.08880    0.41670    1.000
    C264     C        0.56160    0.12330    0.39580    1.000
    H230     H        0.55140    0.15590    0.41020    1.000
    C265     C        0.63850    0.11710    0.37210    1.000
    H231     H        0.68220    0.14450    0.36980    1.000
    C266     C        0.65040    0.06840    0.35124    1.000
    C267     C        0.79340    0.07980    0.30720    1.000
    H232     H        0.81220    0.06260    0.27810    1.000
    H233     H        0.76850    0.11450    0.29710    1.000
    C268     C        0.88150    0.08670    0.34430    1.000
    C269     C        0.90920    0.13430    0.36090    1.000
    H234     H        0.87290    0.16410    0.35050    1.000
    C270     C        0.99250    0.13900    0.39360    1.000
    H235     H        0.01310    0.17210    0.40560    1.000
    C271     C        0.04250    0.09690    0.40770    1.000
    H236     H        0.10020    0.10090    0.42870    1.000
    C272     C        0.93410    0.04640    0.36190    1.000
    H237     H        0.91310    0.01280    0.35150    1.000
    C273     C        0.73520    0.88190    0.24422    1.000
    H238     H        0.80120    0.88940    0.23890    1.000
    H239     H        0.73010    0.84450    0.25130    1.000
    C274     C        0.66820    0.89610    0.20020    1.000
    C275     C        0.54770    0.92810    0.15423    1.000
    C276     C        0.46440    0.95250    0.13470    1.000
    H240     H        0.42620    0.97060    0.15460    1.000
    C277     C        0.43910    0.94940    0.08470    1.000
    H241     H        0.38260    0.96570    0.07020    1.000
    C278     C        0.49610    0.92250    0.05540    1.000
    H242     H        0.47600    0.92040    0.02160    1.000
    C279     C        0.57940    0.89930    0.07400    1.000
    H243     H        0.61830    0.88180    0.05410    1.000
    C280     C        0.60380    0.90300    0.12404    1.000
    C281     C        0.75380    0.84860    0.13930    1.000
    H244     H        0.78350    0.82900    0.16790    1.000
    H245     H        0.72370    0.82340    0.11530    1.000
    C282     C        0.82970    0.87810    0.11750    1.000
    C283     C        0.89490    0.90920    0.14540    1.000
    H246     H        0.89270    0.91310    0.17910    1.000
    C284     C        0.96250    0.93400    0.12350    1.000
    H247     H        0.00610    0.95660    0.14180    1.000
    C285     C        0.96730    0.92640    0.07570    1.000
    H248     H        0.01720    0.94240    0.06160    1.000
    C286     C        0.83860    0.87360    0.06930    1.000
    H249     H        0.79470    0.85210    0.04980    1.000
    C287     C        0.75200    0.89020    0.33190    1.000
    H250     H        0.75810    0.91700    0.35760    1.000
    H251     H        0.81590    0.87670    0.32880    1.000
    C288     C        0.69040    0.84780    0.34485    1.000
    C289     C        0.57130    0.79580    0.34430    1.000
    C290     C        0.48760    0.76790    0.33320    1.000
    H252     H        0.44580    0.77410    0.30420    1.000
    C291     C        0.46790    0.73060    0.36620    1.000
    H253     H        0.41160    0.71060    0.35980    1.000
    C292     C        0.52920    0.72200    0.40870    1.000
    H254     H        0.51220    0.69710    0.43120    1.000
    C293     C        0.61390    0.74830    0.41930    1.000
    H255     H        0.65580    0.74190    0.44820    1.000
    C294     C        0.63410    0.78410    0.38580    1.000
    C295     C        0.79530    0.81970    0.42100    1.000
    H256     H        0.82440    0.85440    0.42020    1.000
    H257     H        0.77600    0.81480    0.45360    1.000
    C296     C        0.86780    0.77910    0.41280    1.000
    C297     C        0.93740    0.78850    0.38320    1.000
    H258     H        0.94130    0.82110    0.36770    1.000
    C298     C        0.00070    0.74920    0.37690    1.000
    H259     H        0.04880    0.75450    0.35680    1.000
    C299     C        0.99370    0.70280    0.39960    1.000
    H260     H        0.03780    0.67630    0.39480    1.000
    C300     C        0.86730    0.73130    0.43520    1.000
    H261     H        0.82170    0.72550    0.45670    1.000
    C301     C        0.30180    0.96560    0.29158    1.000
    H262     H        0.23540    0.97200    0.27740    1.000
    H263     H        0.30440    0.96460    0.32730    1.000
    C302     C        0.36350    0.00790    0.27756    1.000
    C303     C        0.47500    0.04800    0.24755    1.000
    C304     C        0.55380    0.06280    0.22520    1.000
    H264     H        0.59000    0.03810    0.21030    1.000
    C305     C        0.57600    0.11450    0.22590    1.000
    H265     H        0.62810    0.12580    0.21050    1.000
    C306     C        0.52460    0.15100    0.24830    1.000
    H266     H        0.54440    0.18610    0.24910    1.000
    C307     C        0.44570    0.13780    0.26960    1.000
    H267     H        0.40990    0.16290    0.28420    1.000
    C308     C        0.42160    0.08530    0.26830    1.000
    C309     C        0.28130    0.08000    0.31660    1.000
    H268     H        0.25680    0.05190    0.33570    1.000
    H269     H        0.31440    0.10520    0.33970    1.000
    C310     C        0.19780    0.10700    0.28630    1.000
    C311     C        0.15430    0.08770    0.24400    1.000
    H270     H        0.17590    0.05660    0.23100    1.000
    C312     C        0.07600    0.11470    0.21960    1.000
    H271     H        0.04600    0.10320    0.18900    1.000
    C313     C        0.04510    0.15720    0.24060    1.000
    H272     H        0.98910    0.17340    0.22550    1.000
    C314     C        0.16570    0.15260    0.30230    1.000
    H273     H        0.19980    0.16810    0.33030    1.000
    C315     C        0.29510    0.90820    0.22241    1.000
    H274     H        0.29600    0.94140    0.20470    1.000
    H275     H        0.22880    0.89590    0.21980    1.000
    C316     C        0.35420    0.86940    0.20110    1.000
    C317     C        0.46790    0.81650    0.19130    1.000
    C318     C        0.55070    0.78640    0.19570    1.000
    H276     H        0.59140    0.78400    0.22550    1.000
    C319     C        0.57020    0.76050    0.15500    1.000
    H277     H        0.62580    0.73990    0.15660    1.000
    C320     C        0.50900    0.76400    0.11100    1.000
    H278     H        0.52600    0.74650    0.08330    1.000
    C321     C        0.42510    0.79190    0.10630    1.000
    H279     H        0.38320    0.79320    0.07680    1.000
    C322     C        0.40670    0.81760    0.14750    1.000
    C323     C        0.26020    0.87020    0.11850    1.000
    H280     H        0.23760    0.90390    0.12960    1.000
    H281     H        0.28830    0.87670    0.08840    1.000
    C324     C        0.17580    0.83500    0.10650    1.000
    C325     C        0.14010    0.82690    0.05880    1.000
    H282     H        0.17050    0.84180    0.03370    1.000
    C326     C        0.06030    0.79710    0.04740    1.000
    H283     H        0.03610    0.79020    0.01460    1.000
    C327     C        0.01710    0.77770    0.08400    1.000
    H284     H        0.96000    0.75880    0.07580    1.000
    C328     C        0.12940    0.81310    0.14100    1.000
    H285     H        0.15420    0.81860    0.17400    1.000
    C329     C        0.30470    0.87290    0.30395    1.000
    H286     H        0.23880    0.87850    0.31060    1.000
    H287     H        0.30720    0.83960    0.28650    1.000
    C330     C        0.36970    0.87130    0.35012    1.000
    C331     C        0.49000    0.88570    0.40445    1.000
    C332     C        0.57460    0.90280    0.43079    1.000
    H288     H        0.61370    0.92750    0.41790    1.000
    C333     C        0.59870    0.88190    0.47670    1.000
    H289     H        0.65550    0.89270    0.49580    1.000
    C334     C        0.54040    0.84510    0.49539    1.000
    H290     H        0.56020    0.83070    0.52650    1.000
    C335     C        0.45540    0.82930    0.47002    1.000
    H291     H        0.41540    0.80510    0.48310    1.000
    C336     C        0.43200    0.85060    0.42451    1.000
    C337     C        0.27640    0.80680    0.39410    1.000
    H292     H        0.24060    0.79970    0.36180    1.000
    H293     H        0.30190    0.77360    0.40790    1.000
    C338     C        0.21060    0.82990    0.42670    1.000
    C339     C        0.18670    0.80390    0.46630    1.000
    H294     H        0.21110    0.77020    0.47400    1.000
    C340     C        0.12690    0.82720    0.49490    1.000
    H295     H        0.10810    0.80950    0.52200    1.000
    C341     C        0.09500    0.87610    0.48360    1.000
    H296     H        0.05490    0.89250    0.50370    1.000
    C342     C        0.17420    0.87780    0.41740    1.000
    H297     H        0.18940    0.89530    0.38940    1.000
    C343     C        0.12600    0.95860    0.96780    1.000
    C344     C        0.21560    0.98670    0.97020    1.000
    H298     H        0.21860    0.01310    0.99570    1.000
    H299     H        0.26850    0.96250    0.97760    1.000
    H300     H        0.21980    0.00350    0.93900    1.000
