# CIF file generated by openbabel 3.1.0, see https://openbabel.org
data_I
_chemical_name_common 'image0'
_cell_length_a 17.5632
_cell_length_b 17.5632
_cell_length_c 17.5632
_cell_angle_alpha 90
_cell_angle_beta 90
_cell_angle_gamma 90
_space_group_name_H-M_alt 'P 1'
_space_group_name_Hall 'P 1'
loop_
    _symmetry_equiv_pos_as_xyz
    x,y,z
loop_
    _atom_site_label
    _atom_site_type_symbol
    _atom_site_fract_x
    _atom_site_fract_y
    _atom_site_fract_z
    _atom_site_occupancy
    H1       H        0.47780    0.46300    0.73350    1.000
    H2       H        0.14410    0.45970    0.49100    1.000
    H3       H        0.18030    0.52690    0.45680    1.000
    H4       H        0.46290    0.59780    0.79220    1.000
    H5       H        0.43300    0.64480    0.67550    1.000
    H6       H        0.31860    0.58860    0.71280    1.000
    H7       H        0.32460    0.50150    0.69210    1.000
    H8       H        0.31980    0.63600    0.58160    1.000
    H9       H        0.25710    0.57560    0.59790    1.000
    H10      H        0.35960    0.50620    0.56360    1.000
    H11      H        0.32250    0.54840    0.49530    1.000
    H12      H        0.26870    0.43440    0.48940    1.000
    H13      H        0.23990    0.43740    0.57310    1.000
    H14      H        0.52220    0.53700    0.73350    1.000
    H15      H        0.85590    0.54030    0.49100    1.000
    H16      H        0.81970    0.47310    0.45680    1.000
    H17      H        0.53710    0.40220    0.79220    1.000
    H18      H        0.56700    0.35520    0.67550    1.000
    H19      H        0.68140    0.41140    0.71280    1.000
    H20      H        0.67540    0.49850    0.69210    1.000
    H21      H        0.68020    0.36400    0.58160    1.000
    H22      H        0.74290    0.42440    0.59790    1.000
    H23      H        0.64040    0.49380    0.56360    1.000
    H24      H        0.67750    0.45160    0.49530    1.000
    H25      H        0.73130    0.56560    0.48940    1.000
    H26      H        0.76010    0.56260    0.57310    1.000
    H27      H        0.52220    0.46300    0.26650    1.000
    H28      H        0.85590    0.45970    0.50900    1.000
    H29      H        0.81970    0.52690    0.54320    1.000
    H30      H        0.53710    0.59780    0.20780    1.000
    H31      H        0.56700    0.64480    0.32450    1.000
    H32      H        0.68140    0.58860    0.28720    1.000
    H33      H        0.67540    0.50150    0.30790    1.000
    H34      H        0.68020    0.63600    0.41840    1.000
    H35      H        0.74290    0.57560    0.40210    1.000
    H36      H        0.64040    0.50620    0.43640    1.000
    H37      H        0.67750    0.54840    0.50470    1.000
    H38      H        0.73130    0.43440    0.51060    1.000
    H39      H        0.76010    0.43740    0.42690    1.000
    H40      H        0.47780    0.53700    0.26650    1.000
    H41      H        0.14410    0.54030    0.50900    1.000
    H42      H        0.18030    0.47310    0.54320    1.000
    H43      H        0.46290    0.40220    0.20780    1.000
    H44      H        0.43300    0.35520    0.32450    1.000
    H45      H        0.31860    0.41140    0.28720    1.000
    H46      H        0.32460    0.49850    0.30790    1.000
    H47      H        0.31980    0.36400    0.41840    1.000
    H48      H        0.25710    0.42440    0.40210    1.000
    H49      H        0.35960    0.49380    0.43640    1.000
    H50      H        0.32250    0.45160    0.50470    1.000
    H51      H        0.26870    0.56560    0.51060    1.000
    H52      H        0.23990    0.56260    0.42690    1.000
    H53      H        0.73350    0.47780    0.46300    1.000
    H54      H        0.49100    0.14410    0.45970    1.000
    H55      H        0.45680    0.18030    0.52690    1.000
    H56      H        0.79220    0.46290    0.59780    1.000
    H57      H        0.67550    0.43300    0.64480    1.000
    H58      H        0.71280    0.31860    0.58860    1.000
    H59      H        0.69210    0.32460    0.50150    1.000
    H60      H        0.58160    0.31980    0.63600    1.000
    H61      H        0.59790    0.25710    0.57560    1.000
    H62      H        0.56360    0.35960    0.50620    1.000
    H63      H        0.49530    0.32250    0.54840    1.000
    H64      H        0.48940    0.26870    0.43440    1.000
    H65      H        0.57310    0.23990    0.43740    1.000
    H66      H        0.73350    0.52220    0.53700    1.000
    H67      H        0.49100    0.85590    0.54030    1.000
    H68      H        0.45680    0.81970    0.47310    1.000
    H69      H        0.79220    0.53710    0.40220    1.000
    H70      H        0.67550    0.56700    0.35520    1.000
    H71      H        0.71280    0.68140    0.41140    1.000
    H72      H        0.69210    0.67540    0.49850    1.000
    H73      H        0.58160    0.68020    0.36400    1.000
    H74      H        0.59790    0.74290    0.42440    1.000
    H75      H        0.56360    0.64040    0.49380    1.000
    H76      H        0.49530    0.67750    0.45160    1.000
    H77      H        0.48940    0.73130    0.56560    1.000
    H78      H        0.57310    0.76010    0.56260    1.000
    H79      H        0.26650    0.52220    0.46300    1.000
    H80      H        0.50900    0.85590    0.45970    1.000
    H81      H        0.54320    0.81970    0.52690    1.000
    H82      H        0.20780    0.53710    0.59780    1.000
    H83      H        0.32450    0.56700    0.64480    1.000
    H84      H        0.28720    0.68140    0.58860    1.000
    H85      H        0.30790    0.67540    0.50150    1.000
    H86      H        0.41840    0.68020    0.63600    1.000
    H87      H        0.40210    0.74290    0.57560    1.000
    H88      H        0.43640    0.64040    0.50620    1.000
    H89      H        0.50470    0.67750    0.54840    1.000
    H90      H        0.51060    0.73130    0.43440    1.000
    H91      H        0.42690    0.76010    0.43740    1.000
    H92      H        0.26650    0.47780    0.53700    1.000
    H93      H        0.50900    0.14410    0.54030    1.000
    H94      H        0.54320    0.18030    0.47310    1.000
    H95      H        0.20780    0.46290    0.40220    1.000
    H96      H        0.32450    0.43300    0.35520    1.000
    H97      H        0.28720    0.31860    0.41140    1.000
    H98      H        0.30790    0.32460    0.49850    1.000
    H99      H        0.41840    0.31980    0.36400    1.000
    H100     H        0.40210    0.25710    0.42440    1.000
    H101     H        0.43640    0.35960    0.49380    1.000
    H102     H        0.50470    0.32250    0.45160    1.000
    H103     H        0.51060    0.26870    0.56560    1.000
    H104     H        0.42690    0.23990    0.56260    1.000
    H105     H        0.46300    0.73350    0.47780    1.000
    H106     H        0.45970    0.49100    0.14410    1.000
    H107     H        0.52690    0.45680    0.18030    1.000
    H108     H        0.59780    0.79220    0.46290    1.000
    H109     H        0.64480    0.67550    0.43300    1.000
    H110     H        0.58860    0.71280    0.31860    1.000
    H111     H        0.50150    0.69210    0.32460    1.000
    H112     H        0.63600    0.58160    0.31980    1.000
    H113     H        0.57560    0.59790    0.25710    1.000
    H114     H        0.50620    0.56360    0.35960    1.000
    H115     H        0.54840    0.49530    0.32250    1.000
    H116     H        0.43440    0.48940    0.26870    1.000
    H117     H        0.43740    0.57310    0.23990    1.000
    H118     H        0.53700    0.73350    0.52220    1.000
    H119     H        0.54030    0.49100    0.85590    1.000
    H120     H        0.47310    0.45680    0.81970    1.000
    H121     H        0.40220    0.79220    0.53710    1.000
    H122     H        0.35520    0.67550    0.56700    1.000
    H123     H        0.41140    0.71280    0.68140    1.000
    H124     H        0.49850    0.69210    0.67540    1.000
    H125     H        0.36400    0.58160    0.68020    1.000
    H126     H        0.42440    0.59790    0.74290    1.000
    H127     H        0.49380    0.56360    0.64040    1.000
    H128     H        0.45160    0.49530    0.67750    1.000
    H129     H        0.56560    0.48940    0.73130    1.000
    H130     H        0.56260    0.57310    0.76010    1.000
    H131     H        0.46300    0.26650    0.52220    1.000
    H132     H        0.45970    0.50900    0.85590    1.000
    H133     H        0.52690    0.54320    0.81970    1.000
    H134     H        0.59780    0.20780    0.53710    1.000
    H135     H        0.64480    0.32450    0.56700    1.000
    H136     H        0.58860    0.28720    0.68140    1.000
    H137     H        0.50150    0.30790    0.67540    1.000
    H138     H        0.63600    0.41840    0.68020    1.000
    H139     H        0.57560    0.40210    0.74290    1.000
    H140     H        0.50620    0.43640    0.64040    1.000
    H141     H        0.54840    0.50470    0.67750    1.000
    H142     H        0.43440    0.51060    0.73130    1.000
    H143     H        0.43740    0.42690    0.76010    1.000
    H144     H        0.53700    0.26650    0.47780    1.000
    H145     H        0.54030    0.50900    0.14410    1.000
    H146     H        0.47310    0.54320    0.18030    1.000
    H147     H        0.40220    0.20780    0.46290    1.000
    H148     H        0.35520    0.32450    0.43300    1.000
    H149     H        0.41140    0.28720    0.31860    1.000
    H150     H        0.49850    0.30790    0.32460    1.000
    H151     H        0.36400    0.41840    0.31980    1.000
    H152     H        0.42440    0.40210    0.25710    1.000
    H153     H        0.49380    0.43640    0.35960    1.000
    H154     H        0.45160    0.50470    0.32250    1.000
    H155     H        0.56560    0.51060    0.26870    1.000
    H156     H        0.56260    0.42690    0.23990    1.000
    H157     H        0.46300    0.47780    0.73350    1.000
    H158     H        0.45970    0.14410    0.49100    1.000
    H159     H        0.52690    0.18030    0.45680    1.000
    H160     H        0.59780    0.46290    0.79220    1.000
    H161     H        0.64480    0.43300    0.67550    1.000
    H162     H        0.58860    0.31860    0.71280    1.000
    H163     H        0.50150    0.32460    0.69210    1.000
    H164     H        0.63600    0.31980    0.58160    1.000
    H165     H        0.57560    0.25710    0.59790    1.000
    H166     H        0.50620    0.35960    0.56360    1.000
    H167     H        0.54840    0.32250    0.49530    1.000
    H168     H        0.43440    0.26870    0.48940    1.000
    H169     H        0.43740    0.23990    0.57310    1.000
    H170     H        0.53700    0.52220    0.73350    1.000
    H171     H        0.54030    0.85590    0.49100    1.000
    H172     H        0.47310    0.81970    0.45680    1.000
    H173     H        0.40220    0.53710    0.79220    1.000
    H174     H        0.35520    0.56700    0.67550    1.000
    H175     H        0.41140    0.68140    0.71280    1.000
    H176     H        0.49850    0.67540    0.69210    1.000
    H177     H        0.36400    0.68020    0.58160    1.000
    H178     H        0.42440    0.74290    0.59790    1.000
    H179     H        0.49380    0.64040    0.56360    1.000
    H180     H        0.45160    0.67750    0.49530    1.000
    H181     H        0.56560    0.73130    0.48940    1.000
    H182     H        0.56260    0.76010    0.57310    1.000
    H183     H        0.46300    0.52220    0.26650    1.000
    H184     H        0.45970    0.85590    0.50900    1.000
    H185     H        0.52690    0.81970    0.54320    1.000
    H186     H        0.59780    0.53710    0.20780    1.000
    H187     H        0.64480    0.56700    0.32450    1.000
    H188     H        0.58860    0.68140    0.28720    1.000
    H189     H        0.50150    0.67540    0.30790    1.000
    H190     H        0.63600    0.68020    0.41840    1.000
    H191     H        0.57560    0.74290    0.40210    1.000
    H192     H        0.50620    0.64040    0.43640    1.000
    H193     H        0.54840    0.67750    0.50470    1.000
    H194     H        0.43440    0.73130    0.51060    1.000
    H195     H        0.43740    0.76010    0.42690    1.000
    H196     H        0.53700    0.47780    0.26650    1.000
    H197     H        0.54030    0.14410    0.50900    1.000
    H198     H        0.47310    0.18030    0.54320    1.000
    H199     H        0.40220    0.46290    0.20780    1.000
    H200     H        0.35520    0.43300    0.32450    1.000
    H201     H        0.41140    0.31860    0.28720    1.000
    H202     H        0.49850    0.32460    0.30790    1.000
    H203     H        0.36400    0.31980    0.41840    1.000
    H204     H        0.42440    0.25710    0.40210    1.000
    H205     H        0.49380    0.35960    0.43640    1.000
    H206     H        0.45160    0.32250    0.50470    1.000
    H207     H        0.56560    0.26870    0.51060    1.000
    H208     H        0.56260    0.23990    0.42690    1.000
    H209     H        0.47780    0.73350    0.46300    1.000
    H210     H        0.14410    0.49100    0.45970    1.000
    H211     H        0.18030    0.45680    0.52690    1.000
    H212     H        0.46290    0.79220    0.59780    1.000
    H213     H        0.43300    0.67550    0.64480    1.000
    H214     H        0.31860    0.71280    0.58860    1.000
    H215     H        0.32460    0.69210    0.50150    1.000
    H216     H        0.31980    0.58160    0.63600    1.000
    H217     H        0.25710    0.59790    0.57560    1.000
    H218     H        0.35960    0.56360    0.50620    1.000
    H219     H        0.32250    0.49530    0.54840    1.000
    H220     H        0.26870    0.48940    0.43440    1.000
    H221     H        0.23990    0.57310    0.43740    1.000
    H222     H        0.52220    0.73350    0.53700    1.000
    H223     H        0.85590    0.49100    0.54030    1.000
    H224     H        0.81970    0.45680    0.47310    1.000
    H225     H        0.53710    0.79220    0.40220    1.000
    H226     H        0.56700    0.67550    0.35520    1.000
    H227     H        0.68140    0.71280    0.41140    1.000
    H228     H        0.67540    0.69210    0.49850    1.000
    H229     H        0.68020    0.58160    0.36400    1.000
    H230     H        0.74290    0.59790    0.42440    1.000
    H231     H        0.64040    0.56360    0.49380    1.000
    H232     H        0.67750    0.49530    0.45160    1.000
    H233     H        0.73130    0.48940    0.56560    1.000
    H234     H        0.76010    0.57310    0.56260    1.000
    H235     H        0.52220    0.26650    0.46300    1.000
    H236     H        0.85590    0.50900    0.45970    1.000
    H237     H        0.81970    0.54320    0.52690    1.000
    H238     H        0.53710    0.20780    0.59780    1.000
    H239     H        0.56700    0.32450    0.64480    1.000
    H240     H        0.68140    0.28720    0.58860    1.000
    H241     H        0.67540    0.30790    0.50150    1.000
    H242     H        0.68020    0.41840    0.63600    1.000
    H243     H        0.74290    0.40210    0.57560    1.000
    H244     H        0.64040    0.43640    0.50620    1.000
    H245     H        0.67750    0.50470    0.54840    1.000
    H246     H        0.73130    0.51060    0.43440    1.000
    H247     H        0.76010    0.42690    0.43740    1.000
    H248     H        0.47780    0.26650    0.53700    1.000
    H249     H        0.14410    0.50900    0.54030    1.000
    H250     H        0.18030    0.54320    0.47310    1.000
    H251     H        0.46290    0.20780    0.40220    1.000
    H252     H        0.43300    0.32450    0.35520    1.000
    H253     H        0.31860    0.28720    0.41140    1.000
    H254     H        0.32460    0.30790    0.49850    1.000
    H255     H        0.31980    0.41840    0.36400    1.000
    H256     H        0.25710    0.40210    0.42440    1.000
    H257     H        0.35960    0.43640    0.49380    1.000
    H258     H        0.32250    0.50470    0.45160    1.000
    H259     H        0.26870    0.51060    0.56560    1.000
    H260     H        0.23990    0.42690    0.56260    1.000
    H261     H        0.73350    0.46300    0.47780    1.000
    H262     H        0.49100    0.45970    0.14410    1.000
    H263     H        0.45680    0.52690    0.18030    1.000
    H264     H        0.79220    0.59780    0.46290    1.000
    H265     H        0.67550    0.64480    0.43300    1.000
    H266     H        0.71280    0.58860    0.31860    1.000
    H267     H        0.69210    0.50150    0.32460    1.000
    H268     H        0.58160    0.63600    0.31980    1.000
    H269     H        0.59790    0.57560    0.25710    1.000
    H270     H        0.56360    0.50620    0.35960    1.000
    H271     H        0.49530    0.54840    0.32250    1.000
    H272     H        0.48940    0.43440    0.26870    1.000
    H273     H        0.57310    0.43740    0.23990    1.000
    H274     H        0.73350    0.53700    0.52220    1.000
    H275     H        0.49100    0.54030    0.85590    1.000
    H276     H        0.45680    0.47310    0.81970    1.000
    H277     H        0.79220    0.40220    0.53710    1.000
    H278     H        0.67550    0.35520    0.56700    1.000
    H279     H        0.71280    0.41140    0.68140    1.000
    H280     H        0.69210    0.49850    0.67540    1.000
    H281     H        0.58160    0.36400    0.68020    1.000
    H282     H        0.59790    0.42440    0.74290    1.000
    H283     H        0.56360    0.49380    0.64040    1.000
    H284     H        0.49530    0.45160    0.67750    1.000
    H285     H        0.48940    0.56560    0.73130    1.000
    H286     H        0.57310    0.56260    0.76010    1.000
    H287     H        0.26650    0.46300    0.52220    1.000
    H288     H        0.50900    0.45970    0.85590    1.000
    H289     H        0.54320    0.52690    0.81970    1.000
    H290     H        0.20780    0.59780    0.53710    1.000
    H291     H        0.32450    0.64480    0.56700    1.000
    H292     H        0.28720    0.58860    0.68140    1.000
    H293     H        0.30790    0.50150    0.67540    1.000
    H294     H        0.41840    0.63600    0.68020    1.000
    H295     H        0.40210    0.57560    0.74290    1.000
    H296     H        0.43640    0.50620    0.64040    1.000
    H297     H        0.50470    0.54840    0.67750    1.000
    H298     H        0.51060    0.43440    0.73130    1.000
    H299     H        0.42690    0.43740    0.76010    1.000
    H300     H        0.26650    0.53700    0.47780    1.000
    H301     H        0.50900    0.54030    0.14410    1.000
    H302     H        0.54320    0.47310    0.18030    1.000
    H303     H        0.20780    0.40220    0.46290    1.000
    H304     H        0.32450    0.35520    0.43300    1.000
    H305     H        0.28720    0.41140    0.31860    1.000
    H306     H        0.30790    0.49850    0.32460    1.000
    H307     H        0.41840    0.36400    0.31980    1.000
    H308     H        0.40210    0.42440    0.25710    1.000
    H309     H        0.43640    0.49380    0.35960    1.000
    H310     H        0.50470    0.45160    0.32250    1.000
    H311     H        0.51060    0.56560    0.26870    1.000
    H312     H        0.42690    0.56260    0.23990    1.000
    O1       O        0.37010    0.62990    0.62990    1.000
    O2       O        0.62990    0.37010    0.62990    1.000
    O3       O        0.62990    0.62990    0.37010    1.000
    O4       O        0.37010    0.37010    0.37010    1.000
    H313     H        0.52030    0.47970    0.80360    1.000
    C1       C        0.43970    0.56030    0.76240    1.000
    C2       C        0.41840    0.58160    0.68000    1.000
    H314     H        0.43780    0.56220    0.63650    1.000
    H315     H        0.47970    0.52030    0.80360    1.000
    C3       C        0.56030    0.43970    0.76240    1.000
    C4       C        0.58160    0.41840    0.68000    1.000
    H316     H        0.56220    0.43780    0.63650    1.000
    H317     H        0.47970    0.47970    0.19640    1.000
    C5       C        0.56030    0.56030    0.23760    1.000
    C6       C        0.58160    0.58160    0.32000    1.000
    H318     H        0.56220    0.56220    0.36350    1.000
    H319     H        0.52030    0.52030    0.19640    1.000
    C7       C        0.43970    0.43970    0.23760    1.000
    C8       C        0.41840    0.41840    0.32000    1.000
    H320     H        0.43780    0.43780    0.36350    1.000
    H321     H        0.80360    0.52030    0.47970    1.000
    C9       C        0.76240    0.43970    0.56030    1.000
    C10      C        0.68000    0.41840    0.58160    1.000
    H322     H        0.63650    0.43780    0.56220    1.000
    H323     H        0.80360    0.47970    0.52030    1.000
    C11      C        0.76240    0.56030    0.43970    1.000
    C12      C        0.68000    0.58160    0.41840    1.000
    H324     H        0.63650    0.56220    0.43780    1.000
    H325     H        0.19640    0.47970    0.47970    1.000
    C13      C        0.23760    0.56030    0.56030    1.000
    C14      C        0.32000    0.58160    0.58160    1.000
    H326     H        0.36350    0.56220    0.56220    1.000
    H327     H        0.19640    0.52030    0.52030    1.000
    C15      C        0.23760    0.43970    0.43970    1.000
    C16      C        0.32000    0.41840    0.41840    1.000
    H328     H        0.36350    0.43780    0.43780    1.000
    H329     H        0.47970    0.80360    0.52030    1.000
    C17      C        0.56030    0.76240    0.43970    1.000
    C18      C        0.58160    0.68000    0.41840    1.000
    H330     H        0.56220    0.63650    0.43780    1.000
    H331     H        0.52030    0.80360    0.47970    1.000
    C19      C        0.43970    0.76240    0.56030    1.000
    C20      C        0.41840    0.68000    0.58160    1.000
    H332     H        0.43780    0.63650    0.56220    1.000
    H333     H        0.47970    0.19640    0.47970    1.000
    C21      C        0.56030    0.23760    0.56030    1.000
    C22      C        0.58160    0.32000    0.58160    1.000
    H334     H        0.56220    0.36350    0.56220    1.000
    H335     H        0.52030    0.19640    0.52030    1.000
    C23      C        0.43970    0.23760    0.43970    1.000
    C24      C        0.41840    0.32000    0.41840    1.000
    H336     H        0.43780    0.36350    0.43780    1.000
    C25      C        0.33900    0.55100    0.66100    1.000
    C26      C        0.66100    0.44900    0.66100    1.000
    C27      C        0.66100    0.55100    0.33900    1.000
    C28      C        0.33900    0.44900    0.33900    1.000
    C29      C        0.66100    0.33900    0.55100    1.000
    C30      C        0.66100    0.66100    0.44900    1.000
    C31      C        0.33900    0.66100    0.55100    1.000
    C32      C        0.33900    0.33900    0.44900    1.000
    C33      C        0.55100    0.66100    0.33900    1.000
    C34      C        0.44900    0.66100    0.66100    1.000
    C35      C        0.55100    0.33900    0.66100    1.000
    C36      C        0.44900    0.33900    0.33900    1.000
    N1       N        0.50000    0.50000    0.76100    1.000
    O5       O        0.50000    0.50000    0.78280    1.000
    N2       N        0.50000    0.50000    0.23900    1.000
    O6       O        0.50000    0.50000    0.21720    1.000
    N3       N        0.76100    0.50000    0.50000    1.000
    O7       O        0.78280    0.50000    0.50000    1.000
    N4       N        0.23900    0.50000    0.50000    1.000
    O8       O        0.21720    0.50000    0.50000    1.000
    N5       N        0.50000    0.76100    0.50000    1.000
    O9       O        0.50000    0.78280    0.50000    1.000
    N6       N        0.50000    0.23900    0.50000    1.000
    O10      O        0.50000    0.21720    0.50000    1.000
    N7       N        0.17400    0.50000    0.50000    1.000
    N8       N        0.82600    0.50000    0.50000    1.000
    N9       N        0.50000    0.17400    0.50000    1.000
    N10      N        0.50000    0.82600    0.50000    1.000
    N11      N        0.50000    0.50000    0.17400    1.000
    N12      N        0.50000    0.50000    0.82600    1.000
    H337     H        0.15310    0.52970    0.52970    1.000
    C37      C        0.31100    0.58450    0.58450    1.000
    C38      C        0.31200    0.52280    0.52280    1.000
    H338     H        0.84690    0.47030    0.52970    1.000
    C39      C        0.68900    0.41550    0.58450    1.000
    C40      C        0.68800    0.47720    0.52280    1.000
    H339     H        0.84690    0.52970    0.47030    1.000
    C41      C        0.68900    0.58450    0.41550    1.000
    C42      C        0.68800    0.52280    0.47720    1.000
    H340     H        0.15310    0.47030    0.47030    1.000
    C43      C        0.31100    0.41550    0.41550    1.000
    C44      C        0.31200    0.47720    0.47720    1.000
    H341     H        0.52970    0.15310    0.52970    1.000
    C45      C        0.58450    0.31100    0.58450    1.000
    C46      C        0.52280    0.31200    0.52280    1.000
    H342     H        0.52970    0.84690    0.47030    1.000
    C47      C        0.58450    0.68900    0.41550    1.000
    C48      C        0.52280    0.68800    0.47720    1.000
    H343     H        0.47030    0.84690    0.52970    1.000
    C49      C        0.41550    0.68900    0.58450    1.000
    C50      C        0.47720    0.68800    0.52280    1.000
    H344     H        0.47030    0.15310    0.47030    1.000
    C51      C        0.41550    0.31100    0.41550    1.000
    C52      C        0.47720    0.31200    0.47720    1.000
    H345     H        0.52970    0.52970    0.15310    1.000
    C53      C        0.58450    0.58450    0.31100    1.000
    C54      C        0.52280    0.52280    0.31200    1.000
    H346     H        0.47030    0.52970    0.84690    1.000
    C55      C        0.41550    0.58450    0.68900    1.000
    C56      C        0.47720    0.52280    0.68800    1.000
    H347     H        0.52970    0.47030    0.84690    1.000
    C57      C        0.58450    0.41550    0.68900    1.000
    C58      C        0.52280    0.47720    0.68800    1.000
    H348     H        0.47030    0.47030    0.15310    1.000
    C59      C        0.41550    0.41550    0.31100    1.000
    C60      C        0.47720    0.47720    0.31200    1.000
    C61      C        0.24600    0.46650    0.53350    1.000
    C62      C        0.75400    0.53350    0.53350    1.000
    C63      C        0.75400    0.46650    0.46650    1.000
    C64      C        0.24600    0.53350    0.46650    1.000
    C65      C        0.53350    0.24600    0.46650    1.000
    C66      C        0.53350    0.75400    0.53350    1.000
    C67      C        0.46650    0.75400    0.46650    1.000
    C68      C        0.46650    0.24600    0.53350    1.000
    C69      C        0.46650    0.53350    0.24600    1.000
    C70      C        0.53350    0.53350    0.75400    1.000
    C71      C        0.46650    0.46650    0.75400    1.000
    C72      C        0.53350    0.46650    0.24600    1.000
    O11      O        0.45460    0.45460    0.72500    1.000
    O12      O        0.54540    0.54540    0.72500    1.000
    O13      O        0.54540    0.45460    0.27500    1.000
    O14      O        0.45460    0.54540    0.27500    1.000
    O15      O        0.72500    0.45460    0.45460    1.000
    O16      O        0.72500    0.54540    0.54540    1.000
    O17      O        0.27500    0.54540    0.45460    1.000
    O18      O        0.27500    0.45460    0.54540    1.000
    O19      O        0.45460    0.72500    0.45460    1.000
    O20      O        0.54540    0.72500    0.54540    1.000
    O21      O        0.45460    0.27500    0.54540    1.000
    O22      O        0.54540    0.27500    0.45460    1.000
    Al1      Al       0.31801    0.92304    0.56191    1.000
    O23      O        0.25388    0.95530    0.64490    1.000
    O24      O        0.48010    0.10760    0.62020    1.000
    O25      O        0.24810    0.84880    0.53710    1.000
    Al2      Al       0.68199    0.07696    0.56191    1.000
    O26      O        0.74612    0.04470    0.64490    1.000
    O27      O        0.51990    0.89240    0.62020    1.000
    O28      O        0.75190    0.15120    0.53710    1.000
    Al3      Al       0.68199    0.92304    0.43809    1.000
    O29      O        0.74612    0.95530    0.35510    1.000
    O30      O        0.51990    0.10760    0.37980    1.000
    O31      O        0.75190    0.84880    0.46290    1.000
    Al4      Al       0.31801    0.07696    0.43809    1.000
    O32      O        0.25388    0.04470    0.35510    1.000
    O33      O        0.48010    0.89240    0.37980    1.000
    O34      O        0.24810    0.15120    0.46290    1.000
    Al5      Al       0.56191    0.31801    0.92304    1.000
    O35      O        0.64490    0.25388    0.95530    1.000
    O36      O        0.62020    0.48010    0.10760    1.000
    O37      O        0.53710    0.24810    0.84880    1.000
    Al6      Al       0.56191    0.68199    0.07696    1.000
    O38      O        0.64490    0.74612    0.04470    1.000
    O39      O        0.62020    0.51990    0.89240    1.000
    O40      O        0.53710    0.75190    0.15120    1.000
    Al7      Al       0.43809    0.68199    0.92304    1.000
    O41      O        0.35510    0.74612    0.95530    1.000
    O42      O        0.37980    0.51990    0.10760    1.000
    O43      O        0.46290    0.75190    0.84880    1.000
    Al8      Al       0.43809    0.31801    0.07696    1.000
    O44      O        0.35510    0.25388    0.04470    1.000
    O45      O        0.37980    0.48010    0.89240    1.000
    O46      O        0.46290    0.24810    0.15120    1.000
    Al9      Al       0.92304    0.56191    0.31801    1.000
    O47      O        0.95530    0.64490    0.25388    1.000
    O48      O        0.10760    0.62020    0.48010    1.000
    O49      O        0.84880    0.53710    0.24810    1.000
    Al10     Al       0.07696    0.56191    0.68199    1.000
    O50      O        0.04470    0.64490    0.74612    1.000
    O51      O        0.89240    0.62020    0.51990    1.000
    O52      O        0.15120    0.53710    0.75190    1.000
    Al11     Al       0.92304    0.43809    0.68199    1.000
    O53      O        0.95530    0.35510    0.74612    1.000
    O54      O        0.10760    0.37980    0.51990    1.000
    O55      O        0.84880    0.46290    0.75190    1.000
    Al12     Al       0.07696    0.43809    0.31801    1.000
    O56      O        0.04470    0.35510    0.25388    1.000
    O57      O        0.89240    0.37980    0.48010    1.000
    O58      O        0.15120    0.46290    0.24810    1.000
    Al13     Al       0.92304    0.31801    0.56191    1.000
    O59      O        0.95530    0.25388    0.64490    1.000
    O60      O        0.10760    0.48010    0.62020    1.000
    O61      O        0.84880    0.24810    0.53710    1.000
    Al14     Al       0.07696    0.68199    0.56191    1.000
    O62      O        0.04470    0.74612    0.64490    1.000
    O63      O        0.89240    0.51990    0.62020    1.000
    O64      O        0.15120    0.75190    0.53710    1.000
    Al15     Al       0.92304    0.68199    0.43809    1.000
    O65      O        0.95530    0.74612    0.35510    1.000
    O66      O        0.10760    0.51990    0.37980    1.000
    O67      O        0.84880    0.75190    0.46290    1.000
    Al16     Al       0.07696    0.31801    0.43809    1.000
    O68      O        0.04470    0.25388    0.35510    1.000
    O69      O        0.89240    0.48010    0.37980    1.000
    O70      O        0.15120    0.24810    0.46290    1.000
    Al17     Al       0.31801    0.56191    0.92304    1.000
    O71      O        0.25388    0.64490    0.95530    1.000
    O72      O        0.48010    0.62020    0.10760    1.000
    O73      O        0.24810    0.53710    0.84880    1.000
    Al18     Al       0.68199    0.56191    0.07696    1.000
    O74      O        0.74612    0.64490    0.04470    1.000
    O75      O        0.51990    0.62020    0.89240    1.000
    O76      O        0.75190    0.53710    0.15120    1.000
    Al19     Al       0.68199    0.43809    0.92304    1.000
    O77      O        0.74612    0.35510    0.95530    1.000
    O78      O        0.51990    0.37980    0.10760    1.000
    O79      O        0.75190    0.46290    0.84880    1.000
    Al20     Al       0.31801    0.43809    0.07696    1.000
    O80      O        0.25388    0.35510    0.04470    1.000
    O81      O        0.48010    0.37980    0.89240    1.000
    O82      O        0.24810    0.46290    0.15120    1.000
    Al21     Al       0.56191    0.92304    0.31801    1.000
    O83      O        0.64490    0.95530    0.25388    1.000
    O84      O        0.62020    0.10760    0.48010    1.000
    O85      O        0.53710    0.84880    0.24810    1.000
    Al22     Al       0.56191    0.07696    0.68199    1.000
    O86      O        0.64490    0.04470    0.74612    1.000
    O87      O        0.62020    0.89240    0.51990    1.000
    O88      O        0.53710    0.15120    0.75190    1.000
    Al23     Al       0.43809    0.92304    0.68199    1.000
    O89      O        0.35510    0.95530    0.74612    1.000
    O90      O        0.37980    0.10760    0.51990    1.000
    O91      O        0.46290    0.84880    0.75190    1.000
    Al24     Al       0.43809    0.07696    0.31801    1.000
    O92      O        0.35510    0.04470    0.25388    1.000
    O93      O        0.37980    0.89240    0.48010    1.000
    O94      O        0.46290    0.15120    0.24810    1.000
    Al25     Al       0.23632    0.76368    0.76368    1.000
    Al26     Al       0.76368    0.23632    0.76368    1.000
    Al27     Al       0.76368    0.76368    0.23632    1.000
    Al28     Al       0.23632    0.23632    0.23632    1.000
    P1       P        0.19518    0.80482    0.58967    1.000
    H349     H        0.14810    0.85190    0.62130    1.000
    O95      O        0.23720    0.76280    0.65380    1.000
    P2       P        0.80482    0.19518    0.58967    1.000
    H350     H        0.85190    0.14810    0.62130    1.000
    O96      O        0.76280    0.23720    0.65380    1.000
    P3       P        0.80482    0.80482    0.41033    1.000
    H351     H        0.85190    0.85190    0.37870    1.000
    O97      O        0.76280    0.76280    0.34620    1.000
    P4       P        0.19518    0.19518    0.41033    1.000
    H352     H        0.14810    0.14810    0.37870    1.000
    O98      O        0.23720    0.23720    0.34620    1.000
    P5       P        0.58967    0.19518    0.80482    1.000
    H353     H        0.62130    0.14810    0.85190    1.000
    O99      O        0.65380    0.23720    0.76280    1.000
    P6       P        0.58967    0.80482    0.19518    1.000
    H354     H        0.62130    0.85190    0.14810    1.000
    O100     O        0.65380    0.76280    0.23720    1.000
    P7       P        0.41033    0.80482    0.80482    1.000
    H355     H        0.37870    0.85190    0.85190    1.000
    O101     O        0.34620    0.76280    0.76280    1.000
    P8       P        0.41033    0.19518    0.19518    1.000
    H356     H        0.37870    0.14810    0.14810    1.000
    O102     O        0.34620    0.23720    0.23720    1.000
    P9       P        0.80482    0.58967    0.19518    1.000
    H357     H        0.85190    0.62130    0.14810    1.000
    O103     O        0.76280    0.65380    0.23720    1.000
    P10      P        0.19518    0.58967    0.80482    1.000
    H358     H        0.14810    0.62130    0.85190    1.000
    O104     O        0.23720    0.65380    0.76280    1.000
    P11      P        0.80482    0.41033    0.80482    1.000
    H359     H        0.85190    0.37870    0.85190    1.000
    O105     O        0.76280    0.34620    0.76280    1.000
    P12      P        0.19518    0.41033    0.19518    1.000
    H360     H        0.14810    0.37870    0.14810    1.000
    O106     O        0.23720    0.34620    0.23720    1.000
    P13      P        0.26979    0.94465    0.73021    1.000
    H361     H        0.23540    0.00120    0.76460    1.000
    P14      P        0.40229    0.07897    0.59771    1.000
    H362     H        0.35310    0.10450    0.64690    1.000
    P15      P        0.43790    0.05930    0.56210    1.000
    H363     H        0.48600    0.03120    0.51400    1.000
    O107     O        0.39825    0.99090    0.60175    1.000
    O108     O        0.37390    0.85930    0.62610    1.000
    O109     O        0.23700    0.87150    0.76300    1.000
    P16      P        0.73021    0.05535    0.73021    1.000
    H364     H        0.76460    0.99880    0.76460    1.000
    P17      P        0.59771    0.92103    0.59771    1.000
    H365     H        0.64690    0.89550    0.64690    1.000
    P18      P        0.56210    0.94070    0.56210    1.000
    H366     H        0.51400    0.96880    0.51400    1.000
    O110     O        0.60175    0.00910    0.60175    1.000
    O111     O        0.62610    0.14070    0.62610    1.000
    O112     O        0.76300    0.12850    0.76300    1.000
    P19      P        0.73021    0.94465    0.26979    1.000
    H367     H        0.76460    0.00120    0.23540    1.000
    P20      P        0.59771    0.07897    0.40229    1.000
    H368     H        0.64690    0.10450    0.35310    1.000
    P21      P        0.56210    0.05930    0.43790    1.000
    H369     H        0.51400    0.03120    0.48600    1.000
    O113     O        0.60175    0.99090    0.39825    1.000
    O114     O        0.62610    0.85930    0.37390    1.000
    O115     O        0.76300    0.87150    0.23700    1.000
    P22      P        0.26979    0.05535    0.26979    1.000
    H370     H        0.23540    0.99880    0.23540    1.000
    P23      P        0.40229    0.92103    0.40229    1.000
    H371     H        0.35310    0.89550    0.35310    1.000
    P24      P        0.43790    0.94070    0.43790    1.000
    H372     H        0.48600    0.96880    0.48600    1.000
    O116     O        0.39825    0.00910    0.39825    1.000
    O117     O        0.37390    0.14070    0.37390    1.000
    O118     O        0.23700    0.12850    0.23700    1.000
    P25      P        0.73021    0.26979    0.94465    1.000
    H373     H        0.76460    0.23540    0.00120    1.000
    P26      P        0.59771    0.40229    0.07897    1.000
    H374     H        0.64690    0.35310    0.10450    1.000
    P27      P        0.56210    0.43790    0.05930    1.000
    H375     H        0.51400    0.48600    0.03120    1.000
    O119     O        0.60175    0.39825    0.99090    1.000
    O120     O        0.62610    0.37390    0.85930    1.000
    O121     O        0.76300    0.23700    0.87150    1.000
    P28      P        0.73021    0.73021    0.05535    1.000
    H376     H        0.76460    0.76460    0.99880    1.000
    P29      P        0.59771    0.59771    0.92103    1.000
    H377     H        0.64690    0.64690    0.89550    1.000
    P30      P        0.56210    0.56210    0.94070    1.000
    H378     H        0.51400    0.51400    0.96880    1.000
    O122     O        0.60175    0.60175    0.00910    1.000
    O123     O        0.62610    0.62610    0.14070    1.000
    O124     O        0.76300    0.76300    0.12850    1.000
    P31      P        0.26979    0.73021    0.94465    1.000
    H379     H        0.23540    0.76460    0.00120    1.000
    P32      P        0.40229    0.59771    0.07897    1.000
    H380     H        0.35310    0.64690    0.10450    1.000
    P33      P        0.43790    0.56210    0.05930    1.000
    H381     H        0.48600    0.51400    0.03120    1.000
    O125     O        0.39825    0.60175    0.99090    1.000
    O126     O        0.37390    0.62610    0.85930    1.000
    O127     O        0.23700    0.76300    0.87150    1.000
    P34      P        0.26979    0.26979    0.05535    1.000
    H382     H        0.23540    0.23540    0.99880    1.000
    P35      P        0.40229    0.40229    0.92103    1.000
    H383     H        0.35310    0.35310    0.89550    1.000
    P36      P        0.43790    0.43790    0.94070    1.000
    H384     H        0.48600    0.48600    0.96880    1.000
    O128     O        0.39825    0.39825    0.00910    1.000
    O129     O        0.37390    0.37390    0.14070    1.000
    O130     O        0.23700    0.23700    0.12850    1.000
    P37      P        0.94465    0.73021    0.26979    1.000
    H385     H        0.00120    0.76460    0.23540    1.000
    P38      P        0.07897    0.59771    0.40229    1.000
    H386     H        0.10450    0.64690    0.35310    1.000
    P39      P        0.05930    0.56210    0.43790    1.000
    H387     H        0.03120    0.51400    0.48600    1.000
    O131     O        0.99090    0.60175    0.39825    1.000
    O132     O        0.85930    0.62610    0.37390    1.000
    O133     O        0.87150    0.76300    0.23700    1.000
    P40      P        0.05535    0.73021    0.73021    1.000
    H388     H        0.99880    0.76460    0.76460    1.000
    P41      P        0.92103    0.59771    0.59771    1.000
    H389     H        0.89550    0.64690    0.64690    1.000
    P42      P        0.94070    0.56210    0.56210    1.000
    H390     H        0.96880    0.51400    0.51400    1.000
    O134     O        0.00910    0.60175    0.60175    1.000
    O135     O        0.14070    0.62610    0.62610    1.000
    O136     O        0.12850    0.76300    0.76300    1.000
    P43      P        0.94465    0.26979    0.73021    1.000
    H391     H        0.00120    0.23540    0.76460    1.000
    P44      P        0.07897    0.40229    0.59771    1.000
    H392     H        0.10450    0.35310    0.64690    1.000
    P45      P        0.05930    0.43790    0.56210    1.000
    H393     H        0.03120    0.48600    0.51400    1.000
    O137     O        0.99090    0.39825    0.60175    1.000
    O138     O        0.85930    0.37390    0.62610    1.000
    O139     O        0.87150    0.23700    0.76300    1.000
    P46      P        0.05535    0.26979    0.26979    1.000
    H394     H        0.99880    0.23540    0.23540    1.000
    P47      P        0.92103    0.40229    0.40229    1.000
    H395     H        0.89550    0.35310    0.35310    1.000
    P48      P        0.94070    0.43790    0.43790    1.000
    H396     H        0.96880    0.48600    0.48600    1.000
    O140     O        0.00910    0.39825    0.39825    1.000
    O141     O        0.14070    0.37390    0.37390    1.000
    O142     O        0.12850    0.23700    0.23700    1.000
    O143     O        0.27580    0.00000    0.50000    1.000
    O144     O        0.72420    0.00000    0.50000    1.000
    O145     O        0.50000    0.27580    0.00000    1.000
    O146     O        0.50000    0.72420    0.00000    1.000
    O147     O        0.00000    0.50000    0.27580    1.000
    O148     O        0.00000    0.50000    0.72420    1.000
    O149     O        0.00000    0.27580    0.50000    1.000
    O150     O        0.00000    0.72420    0.50000    1.000
    O151     O        0.27580    0.50000    0.00000    1.000
    O152     O        0.72420    0.50000    0.00000    1.000
    O153     O        0.50000    0.00000    0.27580    1.000
    O154     O        0.50000    0.00000    0.72420    1.000
