# CIF file generated by openbabel 3.1.0, see https://openbabel.org
data_I
_chemical_name_common 'image0'
_cell_length_a 21.2954
_cell_length_b 21.2954
_cell_length_c 16.9594
_cell_angle_alpha 90.0292
_cell_angle_beta 89.9814
_cell_angle_gamma 89.9549
_space_group_name_H-M_alt 'P 1'
_space_group_name_Hall 'P 1'
loop_
    _symmetry_equiv_pos_as_xyz
    x,y,z
loop_
    _atom_site_label
    _atom_site_type_symbol
    _atom_site_fract_x
    _atom_site_fract_y
    _atom_site_fract_z
    _atom_site_occupancy
    Zn1      Zn       0.96232    0.25037    0.55308    1.000
    Zn2      Zn       0.96223    0.35564    0.68527    1.000
    Zn3      Zn       0.85705    0.25042    0.68525    1.000
    Zn4      Zn       0.85701    0.35563    0.55313    1.000
    O1       O        0.90966    0.30302    0.61918    1.000
    O2       O        0.05040    0.26432    0.57060    1.000
    O3       O        0.94826    0.34171    0.79587    1.000
    O4       O        0.87107    0.16232    0.66769    1.000
    O5       O        0.05033    0.34166    0.66772    1.000
    O6       O        0.94841    0.16229    0.57059    1.000
    O7       O        0.87099    0.26440    0.79586    1.000
    O8       O        0.76896    0.26439    0.66773    1.000
    O9       O        0.87100    0.34165    0.44251    1.000
    O10      O        0.76893    0.34169    0.57067    1.000
    O11      O        0.94837    0.26431    0.44248    1.000
    O12      O        0.94822    0.44373    0.66776    1.000
    O13      O        0.87092    0.44372    0.57069    1.000
    C1       C        0.74610    0.30305    0.61920    1.000
    C2       C        0.67614    0.30307    0.61919    1.000
    C3       C        0.64332    0.26287    0.56855    1.000
    C4       C        0.57758    0.26285    0.56854    1.000
    C5       C        0.54465    0.30305    0.61918    1.000
    C6       C        0.57747    0.34326    0.66983    1.000
    C7       C        0.64321    0.34327    0.66984    1.000
    N1       N        0.44138    0.35813    0.62535    1.000
    N2       N        0.37893    0.35812    0.62534    1.000
    C8       C        0.34658    0.30302    0.61916    1.000
    N3       N        0.37904    0.24793    0.61298    1.000
    N4       N        0.44150    0.24795    0.61298    1.000
    C9       C        0.47337    0.30304    0.61918    1.000
    C10      C        0.24248    0.26279    0.56851    1.000
    C11      C        0.17674    0.26277    0.56851    1.000
    C12      C        0.17663    0.34319    0.66980    1.000
    C13      C        0.24237    0.34320    0.66980    1.000
    C14      C        0.27529    0.30300    0.61915    1.000
    C15      C        0.90957    0.46657    0.61922    1.000
    C16      C        0.90960    0.53653    0.61920    1.000
    C17      C        0.94988    0.56938    0.66970    1.000
    C18      C        0.94991    0.63513    0.66968    1.000
    C19      C        0.90964    0.66802    0.61917    1.000
    C20      C        0.86935    0.63516    0.56866    1.000
    C21      C        0.86933    0.56942    0.56868    1.000
    N5       N        0.85458    0.77130    0.61314    1.000
    N6       N        0.85460    0.83375    0.61313    1.000
    C22      C        0.90971    0.86609    0.61911    1.000
    N7       N        0.96480    0.83362    0.62512    1.000
    N8       N        0.96478    0.77117    0.62514    1.000
    C23      C        0.90967    0.73930    0.61914    1.000
    C24      C        0.95004    0.97023    0.66959    1.000
    C25      C        0.95007    0.03597    0.66956    1.000
    C26      C        0.86950    0.03600    0.56855    1.000
    C27      C        0.86948    0.97026    0.56857    1.000
    C28      C        0.90974    0.93738    0.61910    1.000
    C29      C        0.07385    0.30299    0.61916    1.000
    C30      C        0.14381    0.30297    0.61915    1.000
    C31      C        0.90969    0.30297    0.41301    1.000
    C32      C        0.90971    0.30296    0.32515    1.000
    C33      C        0.90976    0.13882    0.61911    1.000
    C34      C        0.90980    0.06886    0.61905    1.000
    C35      C        0.86943    0.34321    0.28390    1.000
    C36      C        0.94999    0.26268    0.28386    1.000
    C37      C        0.95000    0.26266    0.20131    1.000
    C38      C        0.90973    0.30291    0.16006    1.000
    C39      C        0.86944    0.34319    0.20134    1.000
    C40      C        0.99029    0.22237    0.16002    1.000
    C41      C        0.99030    0.22235    0.07747    1.000
    C42      C        0.95003    0.26261    0.03621    1.000
    C43      C        0.90974    0.30289    0.07750    1.000
    C44      C        0.86947    0.34315    0.03624    1.000
    C45      C        0.82918    0.38344    0.07754    1.000
    C46      C        0.82917    0.38345    0.16009    1.000
    C47      C        0.95004    0.26259    0.95366    1.000
    C48      C        0.86948    0.34313    0.95369    1.000
    C49      C        0.90966    0.30301    0.82455    1.000
    C50      C        0.90976    0.30285    0.91240    1.000
    H1       H        0.26929    0.23006    0.52727    1.000
    O14      O        0.99353    0.07140    0.72403    1.000
    H2       H        0.02556    0.10128    0.68861    1.000
    H3       H        0.98267    0.54261    0.71084    1.000
    O15      O        0.99348    0.21915    0.90912    1.000
    H4       H        0.02149    0.19117    0.95168    1.000
    O16      O        0.03375    0.17891    0.03293    1.000
    H5       H        0.08315    0.18970    0.04876    1.000
    O17      O        0.67883    0.21950    0.51394    1.000
    H6       H        0.64497    0.19154    0.47873    1.000
    H7       H        0.55066    0.37599    0.71106    1.000
    H8       H        0.15002    0.23003    0.52727    1.000
    H9       H        0.66993    0.37601    0.71108    1.000
    H10      H        0.14982    0.37592    0.71103    1.000
    H11      H        0.83667    0.94351    0.52746    1.000
    H12      H        0.26909    0.37594    0.71104    1.000
    H13      H        0.98278    0.22990    0.31745    1.000
    H14      H        0.98272    0.66188    0.71080    1.000
    O18      O        0.82606    0.07147    0.51407    1.000
    H15      H        0.83284    0.12270    0.52255    1.000
    O19      O        0.99348    0.93475    0.72405    1.000
    H16      H        0.96533    0.90485    0.76432    1.000
    H17      H        0.83657    0.66195    0.52754    1.000
    O20      O        0.82603    0.38655    0.90919    1.000
    H18      H        0.79802    0.41456    0.95178    1.000
    H19      H        0.79638    0.41621    0.04393    1.000
    O21      O        0.82586    0.53399    0.51423    1.000
    H20      H        0.83662    0.54656    0.45217    1.000
    O22      O        0.54218    0.21949    0.51391    1.000
    H21      H        0.57612    0.19154    0.47869    1.000
    H22      H        0.79637    0.41625    0.19371    1.000
    O23      O        0.82598    0.38666    0.32843    1.000
    H23      H        0.83273    0.37991    0.39276    1.000
    H24      H        0.02307    0.18960    0.19361    1.000
