# CIF file generated by openbabel 3.1.0, see https://openbabel.org
data_I
_chemical_name_common 'ISIKIF_clean'
_cell_length_a 13.2052
_cell_length_b 14.1208
_cell_length_c 14.5661
_cell_angle_alpha 90
_cell_angle_beta 114.031
_cell_angle_gamma 90
_space_group_name_H-M_alt 'P 1'
_space_group_name_Hall 'P 1'
loop_
    _symmetry_equiv_pos_as_xyz
    x,y,z
loop_
    _atom_site_label
    _atom_site_type_symbol
    _atom_site_fract_x
    _atom_site_fract_y
    _atom_site_fract_z
    _atom_site_occupancy
    Co1      Co       0.48220    0.60208    0.73893    1.000
    Co2      Co       0.66239    0.73307    0.92467    1.000
    Co3      Co       0.01780    0.10208    0.76107    1.000
    Co4      Co       0.83761    0.23307    0.57533    1.000
    H1       H        0.80530    0.45260    0.06000    1.000
    H2       H        0.97140    0.18580    0.15030    1.000
    H3       H        0.07430    0.25380    0.17780    1.000
    H4       H        0.24550    0.41970    0.45670    1.000
    H5       H        0.76120    0.39740    0.77630    1.000
    H6       H        0.04530    0.21570    0.47670    1.000
    H7       H        0.96290    0.23530    0.00190    1.000
    H8       H        0.06410    0.17280    0.32070    1.000
    H9       H        0.96110    0.23730    0.30490    1.000
    H10      H        0.24590    0.35530    0.72420    1.000
    H11      H        0.69470    0.95260    0.44000    1.000
    H12      H        0.52860    0.68580    0.34970    1.000
    H13      H        0.42570    0.75380    0.32220    1.000
    H14      H        0.25450    0.91970    0.04330    1.000
    H15      H        0.73880    0.89740    0.72370    1.000
    H16      H        0.45470    0.71570    0.02330    1.000
    H17      H        0.53710    0.73530    0.49810    1.000
    H18      H        0.43590    0.67280    0.17930    1.000
    H19      H        0.53890    0.73730    0.19510    1.000
    H20      H        0.25410    0.85530    0.77580    1.000
    C1       C        0.81960    0.41600    0.01360    1.000
    C2       C        0.00600    0.24300    0.18630    1.000
    C3       C        0.69570    0.52310    0.87630    1.000
    C4       C        0.21850    0.38380    0.49540    1.000
    C5       C        0.79440    0.38380    0.84470    1.000
    C6       C        0.09910    0.26160    0.50710    1.000
    C7       C        0.77090    0.44010    0.91200    1.000
    C8       C        0.86620    0.30840    0.87790    1.000
    C9       C        0.13870    0.31590    0.44980    1.000
    C10      C        0.88890    0.33840    0.04630    1.000
    C11      C        0.91390    0.28590    0.97940    1.000
    C12      C        0.02960    0.23350    0.29540    1.000
    C13      C        0.25930    0.39940    0.59820    1.000
    C14      C        0.14000    0.27580    0.60990    1.000
    C15      C        0.21950    0.34530    0.65530    1.000
    C16      C        0.34340    0.47360    0.64590    1.000
    C17      C        0.09700    0.21870    0.67110    1.000
    C18      C        0.89680    0.25210    0.80660    1.000
    C19      C        0.68040    0.91600    0.48640    1.000
    C20      C        0.49400    0.74300    0.31370    1.000
    C21      C        0.80430    0.02310    0.62370    1.000
    C22      C        0.28150    0.88380    0.00460    1.000
    C23      C        0.70560    0.88380    0.65530    1.000
    C24      C        0.40090    0.76160    0.99290    1.000
    C25      C        0.72910    0.94010    0.58800    1.000
    C26      C        0.63380    0.80840    0.62210    1.000
    C27      C        0.36130    0.81590    0.05020    1.000
    C28      C        0.61110    0.83840    0.45370    1.000
    C29      C        0.58610    0.78590    0.52060    1.000
    C30      C        0.47040    0.73350    0.20460    1.000
    C31      C        0.24070    0.89940    0.90180    1.000
    C32      C        0.36000    0.77580    0.89010    1.000
    C33      C        0.28050    0.84530    0.84470    1.000
    C34      C        0.15660    0.97360    0.85410    1.000
    C35      C        0.40300    0.71870    0.82890    1.000
    C36      C        0.60320    0.75210    0.69340    1.000
    O1       O        0.10250    0.30900    0.34820    1.000
    O2       O        0.71780    0.59470    0.93240    1.000
    O3       O        0.93230    0.32270    0.14890    1.000
    O4       O        0.61440    0.51660    0.79140    1.000
    O5       O        0.36380    0.50120    0.73180    1.000
    O6       O        0.39800    0.50850    0.60170    1.000
    O7       O        0.15170    0.20910    0.76430    1.000
    O8       O        0.00490    0.17460    0.63110    1.000
    O9       O        0.84580    0.26630    0.71560    1.000
    O10      O        0.97410    0.19230    0.84250    1.000
    O11      O        0.39750    0.80900    0.15180    1.000
    O12      O        0.78220    0.09470    0.56760    1.000
    O13      O        0.56770    0.82270    0.35110    1.000
    O14      O        0.88560    0.01660    0.70860    1.000
    O15      O        0.13620    0.00120    0.76820    1.000
    O16      O        0.10200    0.00850    0.89830    1.000
    O17      O        0.34830    0.70910    0.73570    1.000
    O18      O        0.49510    0.67460    0.86890    1.000
    O19      O        0.65420    0.76630    0.78440    1.000
    O20      O        0.52590    0.69230    0.65750    1.000
    Co5      Co       0.51780    0.39792    0.26107    1.000
    Co6      Co       0.33761    0.26693    0.07533    1.000
    Co7      Co       0.98220    0.89792    0.23893    1.000
    Co8      Co       0.16239    0.76693    0.42467    1.000
    H21      H        0.19470    0.54740    0.94000    1.000
    H22      H        0.02860    0.81420    0.84970    1.000
    H23      H        0.92570    0.74620    0.82220    1.000
    H24      H        0.75450    0.58030    0.54330    1.000
    H25      H        0.23880    0.60260    0.22370    1.000
    H26      H        0.95470    0.78430    0.52330    1.000
    H27      H        0.03710    0.76470    0.99810    1.000
    H28      H        0.93590    0.82720    0.67930    1.000
    H29      H        0.03890    0.76270    0.69510    1.000
    H30      H        0.75410    0.64470    0.27580    1.000
    H31      H        0.30530    0.04740    0.56000    1.000
    H32      H        0.47140    0.31420    0.65030    1.000
    H33      H        0.57430    0.24620    0.67780    1.000
    H34      H        0.74550    0.08030    0.95670    1.000
    H35      H        0.26120    0.10260    0.27630    1.000
    H36      H        0.54530    0.28430    0.97670    1.000
    H37      H        0.46290    0.26470    0.50190    1.000
    H38      H        0.56410    0.32720    0.82070    1.000
    H39      H        0.46110    0.26270    0.80490    1.000
    H40      H        0.74590    0.14470    0.22420    1.000
    C37      C        0.18040    0.58400    0.98640    1.000
    C38      C        0.99400    0.75700    0.81370    1.000
    C39      C        0.30430    0.47690    0.12370    1.000
    C40      C        0.78150    0.61620    0.50460    1.000
    C41      C        0.20560    0.61620    0.15530    1.000
    C42      C        0.90090    0.73840    0.49290    1.000
    C43      C        0.22910    0.55990    0.08800    1.000
    C44      C        0.13380    0.69160    0.12210    1.000
    C45      C        0.86130    0.68410    0.55020    1.000
    C46      C        0.11110    0.66160    0.95370    1.000
    C47      C        0.08610    0.71410    0.02060    1.000
    C48      C        0.97040    0.76650    0.70460    1.000
    C49      C        0.74070    0.60060    0.40180    1.000
    C50      C        0.86000    0.72420    0.39010    1.000
    C51      C        0.78050    0.65470    0.34470    1.000
    C52      C        0.65660    0.52640    0.35410    1.000
    C53      C        0.90300    0.78130    0.32890    1.000
    C54      C        0.10320    0.74790    0.19340    1.000
    C55      C        0.31960    0.08400    0.51360    1.000
    C56      C        0.50600    0.25700    0.68630    1.000
    C57      C        0.19570    0.97690    0.37630    1.000
    C58      C        0.71850    0.11620    0.99540    1.000
    C59      C        0.29440    0.11620    0.34470    1.000
    C60      C        0.59910    0.23840    0.00710    1.000
    C61      C        0.27090    0.05990    0.41200    1.000
    C62      C        0.36620    0.19160    0.37790    1.000
    C63      C        0.63870    0.18410    0.94980    1.000
    C64      C        0.38890    0.16160    0.54630    1.000
    C65      C        0.41390    0.21410    0.47940    1.000
    C66      C        0.52960    0.26650    0.79540    1.000
    C67      C        0.75930    0.10060    0.09820    1.000
    C68      C        0.64000    0.22420    0.10990    1.000
    C69      C        0.71950    0.15470    0.15530    1.000
    C70      C        0.84340    0.02640    0.14590    1.000
    C71      C        0.59700    0.28130    0.17110    1.000
    C72      C        0.39680    0.24790    0.30660    1.000
    O21      O        0.89750    0.69100    0.65180    1.000
    O22      O        0.28220    0.40530    0.06760    1.000
    O23      O        0.06770    0.67730    0.85110    1.000
    O24      O        0.38560    0.48340    0.20860    1.000
    O25      O        0.63620    0.49880    0.26820    1.000
    O26      O        0.60200    0.49150    0.39830    1.000
    O27      O        0.84830    0.79090    0.23570    1.000
    O28      O        0.99510    0.82540    0.36890    1.000
    O29      O        0.15420    0.73370    0.28440    1.000
    O30      O        0.02590    0.80770    0.15750    1.000
    O31      O        0.60250    0.19100    0.84820    1.000
    O32      O        0.21780    0.90530    0.43240    1.000
    O33      O        0.43230    0.17730    0.64890    1.000
    O34      O        0.11440    0.98340    0.29140    1.000
    O35      O        0.86380    0.99880    0.23180    1.000
    O36      O        0.89800    0.99150    0.10170    1.000
    O37      O        0.65170    0.29090    0.26430    1.000
    O38      O        0.50490    0.32540    0.13110    1.000
    O39      O        0.34580    0.23370    0.21560    1.000
    O40      O        0.47410    0.30770    0.34250    1.000
