# CIF file generated by openbabel 3.1.0, see https://openbabel.org
data_I
_chemical_name_common 'image0'
_cell_length_a 14.2885
_cell_length_b 23.823
_cell_length_c 30.749
_cell_angle_alpha 90
_cell_angle_beta 90
_cell_angle_gamma 90
_space_group_name_H-M_alt 'P 1'
_space_group_name_Hall 'P 1'
loop_
    _symmetry_equiv_pos_as_xyz
    x,y,z
loop_
    _atom_site_label
    _atom_site_type_symbol
    _atom_site_fract_x
    _atom_site_fract_y
    _atom_site_fract_z
    _atom_site_occupancy
    Ag1      Ag       0.35092    0.76665    0.71115    1.000
    N1       N        0.31060    0.81030    0.64430    1.000
    N2       N        0.25660    0.87320    0.57190    1.000
    C1       C        0.33420    0.79640    0.60490    1.000
    H1       H        0.37100    0.76370    0.60080    1.000
    C2       C        0.30840    0.82690    0.56880    1.000
    H2       H        0.32810    0.81450    0.54090    1.000
    C3       C        0.23130    0.88760    0.61210    1.000
    H3       H        0.19450    0.92050    0.61570    1.000
    C4       C        0.25540    0.85760    0.64850    1.000
    H4       H        0.23440    0.86920    0.67640    1.000
    Ag2      Ag       0.20101    0.93497    0.51922    1.000
    Ag3      Ag       0.41204    0.72252    0.78948    1.000
    Ag4      Ag       0.52144    0.55562    0.98551    1.000
    N3       N        0.45490    0.68360    0.85620    1.000
    N4       N        0.49500    0.62600    0.93240    1.000
    C5       C        0.41740    0.69890    0.89600    1.000
    H5       H        0.37560    0.72980    0.89770    1.000
    C6       C        0.43990    0.67010    0.93290    1.000
    H6       H        0.41480    0.68240    0.95980    1.000
    C7       C        0.53780    0.61260    0.89500    1.000
    H7       H        0.58580    0.58500    0.89460    1.000
    C8       C        0.51130    0.63970    0.85700    1.000
    H8       H        0.53500    0.62600    0.83020    1.000
    Ag5      Ag       0.49982    0.56029    0.47178    1.000
    Ag6      Ag       0.61053    0.73856    0.28382    1.000
    N5       N        0.56280    0.69290    0.34920    1.000
    N6       N        0.51650    0.62700    0.42030    1.000
    C9       C        0.51590    0.64730    0.34510    1.000
    H9       H        0.49630    0.63610    0.31690    1.000
    C10      C        0.49260    0.61370    0.38030    1.000
    H10      H        0.45830    0.58010    0.37540    1.000
    C11      C        0.56460    0.67410    0.42560    1.000
    H11      H        0.58110    0.68620    0.45400    1.000
    C12      C        0.59120    0.70610    0.38940    1.000
    H12      H        0.63030    0.73790    0.39360    1.000
    O1       O        0.27620    0.82660    0.75360    1.000
    O2       O        0.34060    0.79790    0.81600    1.000
    O3       O        0.28280    0.90950    0.94980    1.000
    O4       O        0.18550    0.98380    0.94550    1.000
    C13      C        0.29070    0.83010    0.79320    1.000
    C14      C        0.24160    0.87940    0.81670    1.000
    C15      C        0.18440    0.91410    0.79330    1.000
    H13      H        0.17670    0.90830    0.76300    1.000
    C16      C        0.13760    0.95790    0.81370    1.000
    H14      H        0.09720    0.98200    0.79770    1.000
    C17      C        0.15160    0.96580    0.85890    1.000
    H15      H        0.11960    0.99540    0.87340    1.000
    C18      C        0.21040    0.93170    0.88230    1.000
    C19      C        0.25710    0.88680    0.86080    1.000
    H16      H        0.29780    0.86250    0.87630    1.000
    C20      C        0.22680    0.94170    0.92990    1.000
    O5       O        0.42880    0.69530    0.68410    1.000
    O6       O        0.48000    0.65910    0.74630    1.000
    O7       O        0.57210    0.52850    0.54060    1.000
    O8       O        0.47590    0.60120    0.54520    1.000
    C21      C        0.47160    0.65920    0.70580    1.000
    C22      C        0.51350    0.61360    0.68030    1.000
    C23      C        0.57180    0.57110    0.70060    1.000
    H17      H        0.58070    0.57100    0.73120    1.000
    C24      C        0.61440    0.53100    0.67480    1.000
    H18      H        0.65230    0.50320    0.68840    1.000
    C25      C        0.60420    0.52960    0.63160    1.000
    H19      H        0.63580    0.50210    0.61480    1.000
    C26      C        0.54650    0.56920    0.61150    1.000
    C27      C        0.50510    0.61080    0.63540    1.000
    H20      H        0.46930    0.63860    0.62080    1.000
    C28      C        0.53190    0.56540    0.56390    1.000
    Ag7      Ag       0.65792    0.77684    0.20077    1.000
    N7       N        0.70150    0.81570    0.13300    1.000
    N8       N        0.74200    0.87700    0.05830    1.000
    C29      C        0.75710    0.86270    0.13500    1.000
    H21      H        0.78370    0.87460    0.16170    1.000
    C30      C        0.77310    0.89190    0.09720    1.000
    H22      H        0.80910    0.92540    0.09920    1.000
    C31      C        0.68760    0.83070    0.05690    1.000
    H23      H        0.66030    0.81910    0.03030    1.000
    C32      C        0.67210    0.80060    0.09390    1.000
    H24      H        0.63790    0.76650    0.09150    1.000
    Ag8      Ag       0.75148    0.95075    0.00700    1.000
    O9       O        0.58380    0.69990    0.18040    1.000
    O10      O        0.53370    0.67560    0.24710    1.000
    O11      O        0.51160    0.58420    0.05270    1.000
    O12      O        0.42420    0.50690    0.06220    1.000
    C33      C        0.54200    0.66930    0.20640    1.000
    C34      C        0.49290    0.61860    0.18700    1.000
    C35      C        0.44220    0.58090    0.21420    1.000
    H25      H        0.44120    0.58560    0.24490    1.000
    C36      C        0.39460    0.53730    0.19470    1.000
    H26      H        0.35750    0.51310    0.21210    1.000
    C37      C        0.39940    0.52820    0.15130    1.000
    H27      H        0.36650    0.49750    0.13880    1.000
    C38      C        0.45250    0.56350    0.12480    1.000
    C39      C        0.49740    0.60870    0.14300    1.000
    H28      H        0.53210    0.63340    0.12490    1.000
    C40      C        0.46120    0.55110    0.07670    1.000
    O13      O        0.72660    0.84320    0.24000    1.000
    O14      O        0.68530    0.81100    0.30610    1.000
    O15      O        0.75580    0.91980    0.43740    1.000
    O16      O        0.84620    0.99550    0.43210    1.000
    C41      C        0.72410    0.84560    0.28030    1.000
    C42      C        0.77350    0.89560    0.30290    1.000
    C43      C        0.82220    0.93190    0.27820    1.000
    H29      H        0.82510    0.92730    0.24750    1.000
    C44      C        0.86930    0.97710    0.29890    1.000
    H30      H        0.90600    0.00260    0.28240    1.000
    C45      C        0.86130    0.98340    0.34220    1.000
    H31      H        0.89210    0.01400    0.35590    1.000
    C46      C        0.80950    0.94660    0.36770    1.000
    C47      C        0.76420    0.90140    0.34670    1.000
    H32      H        0.72780    0.87550    0.36290    1.000
    C48      C        0.79980    0.95550    0.41550    1.000
    Ag9      Ag       0.14908    0.73335    0.71115    1.000
    N9       N        0.18940    0.68970    0.64430    1.000
    N10      N        0.24340    0.62680    0.57190    1.000
    C49      C        0.16580    0.70360    0.60490    1.000
    H33      H        0.12900    0.73630    0.60080    1.000
    C50      C        0.19160    0.67310    0.56880    1.000
    H34      H        0.17190    0.68550    0.54090    1.000
    C51      C        0.26870    0.61240    0.61210    1.000
    H35      H        0.30550    0.57950    0.61570    1.000
    C52      C        0.24460    0.64240    0.64850    1.000
    H36      H        0.26560    0.63080    0.67640    1.000
    Ag10     Ag       0.29899    0.56503    0.51922    1.000
    Ag11     Ag       0.08796    0.77748    0.78948    1.000
    Ag12     Ag       0.97856    0.94438    0.98551    1.000
    N11      N        0.04510    0.81640    0.85620    1.000
    N12      N        0.00500    0.87400    0.93240    1.000
    C53      C        0.08260    0.80110    0.89600    1.000
    H37      H        0.12440    0.77020    0.89770    1.000
    C54      C        0.06010    0.82990    0.93290    1.000
    H38      H        0.08520    0.81760    0.95980    1.000
    C55      C        0.96220    0.88740    0.89500    1.000
    H39      H        0.91420    0.91500    0.89460    1.000
    C56      C        0.98870    0.86030    0.85700    1.000
    H40      H        0.96500    0.87400    0.83020    1.000
    Ag13     Ag       0.00018    0.93971    0.47178    1.000
    Ag14     Ag       0.88947    0.76144    0.28382    1.000
    N13      N        0.93720    0.80710    0.34920    1.000
    N14      N        0.98350    0.87300    0.42030    1.000
    C57      C        0.98410    0.85270    0.34510    1.000
    H41      H        0.00370    0.86390    0.31690    1.000
    C58      C        0.00740    0.88630    0.38030    1.000
    H42      H        0.04170    0.91990    0.37540    1.000
    C59      C        0.93540    0.82590    0.42560    1.000
    H43      H        0.91890    0.81380    0.45400    1.000
    C60      C        0.90880    0.79390    0.38940    1.000
    H44      H        0.86970    0.76210    0.39360    1.000
    O17      O        0.22380    0.67340    0.75360    1.000
    O18      O        0.15940    0.70210    0.81600    1.000
    O19      O        0.21720    0.59050    0.94980    1.000
    O20      O        0.31450    0.51620    0.94550    1.000
    C61      C        0.20930    0.66990    0.79320    1.000
    C62      C        0.25840    0.62060    0.81670    1.000
    C63      C        0.31560    0.58590    0.79330    1.000
    H45      H        0.32330    0.59170    0.76300    1.000
    C64      C        0.36240    0.54210    0.81370    1.000
    H46      H        0.40280    0.51800    0.79770    1.000
    C65      C        0.34840    0.53420    0.85890    1.000
    H47      H        0.38040    0.50460    0.87340    1.000
    C66      C        0.28960    0.56830    0.88230    1.000
    C67      C        0.24290    0.61320    0.86080    1.000
    H48      H        0.20220    0.63750    0.87630    1.000
    C68      C        0.27320    0.55830    0.92990    1.000
    O21      O        0.07120    0.80470    0.68410    1.000
    O22      O        0.02000    0.84090    0.74630    1.000
    O23      O        0.92790    0.97150    0.54060    1.000
    O24      O        0.02410    0.89880    0.54520    1.000
    C69      C        0.02840    0.84080    0.70580    1.000
    C70      C        0.98650    0.88640    0.68030    1.000
    C71      C        0.92820    0.92890    0.70060    1.000
    H49      H        0.91930    0.92900    0.73120    1.000
    C72      C        0.88560    0.96900    0.67480    1.000
    H50      H        0.84770    0.99680    0.68840    1.000
    C73      C        0.89580    0.97040    0.63160    1.000
    H51      H        0.86420    0.99790    0.61480    1.000
    C74      C        0.95350    0.93080    0.61150    1.000
    C75      C        0.99490    0.88920    0.63540    1.000
    H52      H        0.03070    0.86140    0.62080    1.000
    C76      C        0.96810    0.93460    0.56390    1.000
    Ag15     Ag       0.84208    0.72316    0.20077    1.000
    N15      N        0.79850    0.68430    0.13300    1.000
    N16      N        0.75800    0.62300    0.05830    1.000
    C77      C        0.74290    0.63730    0.13500    1.000
    H53      H        0.71630    0.62540    0.16170    1.000
    C78      C        0.72690    0.60810    0.09720    1.000
    H54      H        0.69090    0.57460    0.09920    1.000
    C79      C        0.81240    0.66930    0.05690    1.000
    H55      H        0.83970    0.68090    0.03030    1.000
    C80      C        0.82790    0.69940    0.09390    1.000
    H56      H        0.86210    0.73350    0.09150    1.000
    Ag16     Ag       0.74852    0.54925    0.00700    1.000
    O25      O        0.91620    0.80010    0.18040    1.000
    O26      O        0.96630    0.82440    0.24710    1.000
    O27      O        0.98840    0.91580    0.05270    1.000
    O28      O        0.07580    0.99310    0.06220    1.000
    C81      C        0.95800    0.83070    0.20640    1.000
    C82      C        0.00710    0.88140    0.18700    1.000
    C83      C        0.05780    0.91910    0.21420    1.000
    H57      H        0.05880    0.91440    0.24490    1.000
    C84      C        0.10540    0.96270    0.19470    1.000
    H58      H        0.14250    0.98690    0.21210    1.000
    C85      C        0.10060    0.97180    0.15130    1.000
    H59      H        0.13350    0.00250    0.13880    1.000
    C86      C        0.04750    0.93650    0.12480    1.000
    C87      C        0.00260    0.89130    0.14300    1.000
    H60      H        0.96790    0.86660    0.12490    1.000
    C88      C        0.03880    0.94890    0.07670    1.000
    O29      O        0.77340    0.65680    0.24000    1.000
    O30      O        0.81470    0.68900    0.30610    1.000
    O31      O        0.74420    0.58020    0.43740    1.000
    O32      O        0.65380    0.50450    0.43210    1.000
    C89      C        0.77590    0.65440    0.28030    1.000
    C90      C        0.72650    0.60440    0.30290    1.000
    C91      C        0.67780    0.56810    0.27820    1.000
    H61      H        0.67490    0.57270    0.24750    1.000
    C92      C        0.63070    0.52290    0.29890    1.000
    H62      H        0.59400    0.49740    0.28240    1.000
    C93      C        0.63870    0.51660    0.34220    1.000
    H63      H        0.60790    0.48600    0.35590    1.000
    C94      C        0.69050    0.55340    0.36770    1.000
    C95      C        0.73580    0.59860    0.34670    1.000
    H64      H        0.77220    0.62450    0.36290    1.000
    C96      C        0.70020    0.54450    0.41550    1.000
    Ag17     Ag       0.64908    0.26665    0.78885    1.000
    N17      N        0.68940    0.31030    0.85570    1.000
    N18      N        0.74340    0.37320    0.92810    1.000
    C97      C        0.66580    0.29640    0.89510    1.000
    H65      H        0.62900    0.26370    0.89920    1.000
    C98      C        0.69160    0.32690    0.93120    1.000
    H66      H        0.67190    0.31450    0.95910    1.000
    C99      C        0.76870    0.38760    0.88790    1.000
    H67      H        0.80550    0.42050    0.88430    1.000
    C100     C        0.74460    0.35760    0.85150    1.000
    H68      H        0.76560    0.36920    0.82360    1.000
    Ag18     Ag       0.79899    0.43497    0.98078    1.000
    Ag19     Ag       0.58796    0.22252    0.71052    1.000
    Ag20     Ag       0.47856    0.05562    0.51449    1.000
    N19      N        0.54510    0.18360    0.64380    1.000
    N20      N        0.50500    0.12600    0.56760    1.000
    C101     C        0.58260    0.19890    0.60400    1.000
    H69      H        0.62440    0.22980    0.60230    1.000
    C102     C        0.56010    0.17010    0.56710    1.000
    H70      H        0.58520    0.18240    0.54020    1.000
    C103     C        0.46220    0.11260    0.60500    1.000
    H71      H        0.41420    0.08500    0.60540    1.000
    C104     C        0.48870    0.13970    0.64300    1.000
    H72      H        0.46500    0.12600    0.66980    1.000
    Ag21     Ag       0.50018    0.06029    0.02822    1.000
    Ag22     Ag       0.38947    0.23856    0.21618    1.000
    N21      N        0.43720    0.19290    0.15080    1.000
    N22      N        0.48350    0.12700    0.07970    1.000
    C105     C        0.48410    0.14730    0.15490    1.000
    H73      H        0.50370    0.13610    0.18310    1.000
    C106     C        0.50740    0.11370    0.11970    1.000
    H74      H        0.54170    0.08010    0.12460    1.000
    C107     C        0.43540    0.17410    0.07440    1.000
    H75      H        0.41890    0.18620    0.04600    1.000
    C108     C        0.40880    0.20610    0.11060    1.000
    H76      H        0.36970    0.23790    0.10640    1.000
    O33      O        0.72380    0.32660    0.74640    1.000
    O34      O        0.65940    0.29790    0.68400    1.000
    O35      O        0.71720    0.40950    0.55020    1.000
    O36      O        0.81450    0.48380    0.55450    1.000
    C109     C        0.70930    0.33010    0.70680    1.000
    C110     C        0.75840    0.37940    0.68330    1.000
    C111     C        0.81560    0.41410    0.70670    1.000
    H77      H        0.82330    0.40830    0.73700    1.000
    C112     C        0.86240    0.45790    0.68630    1.000
    H78      H        0.90280    0.48200    0.70230    1.000
    C113     C        0.84840    0.46580    0.64110    1.000
    H79      H        0.88040    0.49540    0.62660    1.000
    C114     C        0.78960    0.43170    0.61770    1.000
    C115     C        0.74290    0.38680    0.63920    1.000
    H80      H        0.70220    0.36250    0.62370    1.000
    C116     C        0.77320    0.44170    0.57010    1.000
    O37      O        0.57120    0.19530    0.81590    1.000
    O38      O        0.52000    0.15910    0.75370    1.000
    O39      O        0.42790    0.02850    0.95940    1.000
    O40      O        0.52410    0.10120    0.95480    1.000
    C117     C        0.52840    0.15920    0.79420    1.000
    C118     C        0.48650    0.11360    0.81970    1.000
    C119     C        0.42820    0.07110    0.79940    1.000
    H81      H        0.41930    0.07100    0.76880    1.000
    C120     C        0.38560    0.03100    0.82520    1.000
    H82      H        0.34770    0.00320    0.81160    1.000
    C121     C        0.39580    0.02960    0.86840    1.000
    H83      H        0.36420    0.00210    0.88520    1.000
    C122     C        0.45350    0.06920    0.88850    1.000
    C123     C        0.49490    0.11080    0.86460    1.000
    H84      H        0.53070    0.13860    0.87920    1.000
    C124     C        0.46810    0.06540    0.93610    1.000
    Ag23     Ag       0.34208    0.27684    0.29923    1.000
    N23      N        0.29850    0.31570    0.36700    1.000
    N24      N        0.25800    0.37700    0.44170    1.000
    C125     C        0.24290    0.36270    0.36500    1.000
    H85      H        0.21630    0.37460    0.33830    1.000
    C126     C        0.22690    0.39190    0.40280    1.000
    H86      H        0.19090    0.42540    0.40080    1.000
    C127     C        0.31240    0.33070    0.44310    1.000
    H87      H        0.33970    0.31910    0.46970    1.000
    C128     C        0.32790    0.30060    0.40610    1.000
    H88      H        0.36210    0.26650    0.40850    1.000
    Ag24     Ag       0.24852    0.45075    0.49300    1.000
    O41      O        0.41620    0.19990    0.31960    1.000
    O42      O        0.46630    0.17560    0.25290    1.000
    O43      O        0.48840    0.08420    0.44730    1.000
    O44      O        0.57580    0.00690    0.43780    1.000
    C129     C        0.45800    0.16930    0.29360    1.000
    C130     C        0.50710    0.11860    0.31300    1.000
    C131     C        0.55780    0.08090    0.28580    1.000
    H89      H        0.55880    0.08560    0.25510    1.000
    C132     C        0.60540    0.03730    0.30530    1.000
    H90      H        0.64250    0.01310    0.28790    1.000
    C133     C        0.60060    0.02820    0.34870    1.000
    H91      H        0.63350    0.99750    0.36120    1.000
    C134     C        0.54750    0.06350    0.37520    1.000
    C135     C        0.50260    0.10870    0.35700    1.000
    H92      H        0.46790    0.13340    0.37510    1.000
    C136     C        0.53880    0.05110    0.42330    1.000
    O45      O        0.27340    0.34320    0.26000    1.000
    O46      O        0.31470    0.31100    0.19390    1.000
    O47      O        0.24420    0.41980    0.06260    1.000
    O48      O        0.15380    0.49550    0.06790    1.000
    C137     C        0.27590    0.34560    0.21970    1.000
    C138     C        0.22650    0.39560    0.19710    1.000
    C139     C        0.17780    0.43190    0.22180    1.000
    H93      H        0.17490    0.42730    0.25250    1.000
    C140     C        0.13070    0.47710    0.20110    1.000
    H94      H        0.09400    0.50260    0.21760    1.000
    C141     C        0.13870    0.48340    0.15780    1.000
    H95      H        0.10790    0.51400    0.14410    1.000
    C142     C        0.19050    0.44660    0.13230    1.000
    C143     C        0.23580    0.40140    0.15330    1.000
    H96      H        0.27220    0.37550    0.13710    1.000
    C144     C        0.20020    0.45550    0.08450    1.000
    Ag25     Ag       0.85092    0.23335    0.78885    1.000
    N25      N        0.81060    0.18970    0.85570    1.000
    N26      N        0.75660    0.12680    0.92810    1.000
    C145     C        0.83420    0.20360    0.89510    1.000
    H97      H        0.87100    0.23630    0.89920    1.000
    C146     C        0.80840    0.17310    0.93120    1.000
    H98      H        0.82810    0.18550    0.95910    1.000
    C147     C        0.73130    0.11240    0.88790    1.000
    H99      H        0.69450    0.07950    0.88430    1.000
    C148     C        0.75540    0.14240    0.85150    1.000
    H100     H        0.73440    0.13080    0.82360    1.000
    Ag26     Ag       0.70101    0.06503    0.98078    1.000
    Ag27     Ag       0.91204    0.27748    0.71052    1.000
    Ag28     Ag       0.02144    0.44438    0.51449    1.000
    N27      N        0.95490    0.31640    0.64380    1.000
    N28      N        0.99500    0.37400    0.56760    1.000
    C149     C        0.91740    0.30110    0.60400    1.000
    H101     H        0.87560    0.27020    0.60230    1.000
    C150     C        0.93990    0.32990    0.56710    1.000
    H102     H        0.91480    0.31760    0.54020    1.000
    C151     C        0.03780    0.38740    0.60500    1.000
    H103     H        0.08580    0.41500    0.60540    1.000
    C152     C        0.01130    0.36030    0.64300    1.000
    H104     H        0.03500    0.37400    0.66980    1.000
    Ag29     Ag       0.99982    0.43971    0.02822    1.000
    Ag30     Ag       0.11053    0.26144    0.21618    1.000
    N29      N        0.06280    0.30710    0.15080    1.000
    N30      N        0.01650    0.37300    0.07970    1.000
    C153     C        0.01590    0.35270    0.15490    1.000
    H105     H        0.99630    0.36390    0.18310    1.000
    C154     C        0.99260    0.38630    0.11970    1.000
    H106     H        0.95830    0.41990    0.12460    1.000
    C155     C        0.06460    0.32590    0.07440    1.000
    H107     H        0.08110    0.31380    0.04600    1.000
    C156     C        0.09120    0.29390    0.11060    1.000
    H108     H        0.13030    0.26210    0.10640    1.000
    O49      O        0.77620    0.17340    0.74640    1.000
    O50      O        0.84060    0.20210    0.68400    1.000
    O51      O        0.78280    0.09050    0.55020    1.000
    O52      O        0.68550    0.01620    0.55450    1.000
    C157     C        0.79070    0.16990    0.70680    1.000
    C158     C        0.74160    0.12060    0.68330    1.000
    C159     C        0.68440    0.08590    0.70670    1.000
    H109     H        0.67670    0.09170    0.73700    1.000
    C160     C        0.63760    0.04210    0.68630    1.000
    H110     H        0.59720    0.01800    0.70230    1.000
    C161     C        0.65160    0.03420    0.64110    1.000
    H111     H        0.61960    0.00460    0.62660    1.000
    C162     C        0.71040    0.06830    0.61770    1.000
    C163     C        0.75710    0.11320    0.63920    1.000
    H112     H        0.79780    0.13750    0.62370    1.000
    C164     C        0.72680    0.05830    0.57010    1.000
    O53      O        0.92880    0.30470    0.81590    1.000
    O54      O        0.98000    0.34090    0.75370    1.000
    O55      O        0.07210    0.47150    0.95940    1.000
    O56      O        0.97590    0.39880    0.95480    1.000
    C165     C        0.97160    0.34080    0.79420    1.000
    C166     C        0.01350    0.38640    0.81970    1.000
    C167     C        0.07180    0.42890    0.79940    1.000
    H113     H        0.08070    0.42900    0.76880    1.000
    C168     C        0.11440    0.46900    0.82520    1.000
    H114     H        0.15230    0.49680    0.81160    1.000
    C169     C        0.10420    0.47040    0.86840    1.000
    H115     H        0.13580    0.49790    0.88520    1.000
    C170     C        0.04650    0.43080    0.88850    1.000
    C171     C        0.00510    0.38920    0.86460    1.000
    H116     H        0.96930    0.36140    0.87920    1.000
    C172     C        0.03190    0.43460    0.93610    1.000
    Ag31     Ag       0.15792    0.22316    0.29923    1.000
    N31      N        0.20150    0.18430    0.36700    1.000
    N32      N        0.24200    0.12300    0.44170    1.000
    C173     C        0.25710    0.13730    0.36500    1.000
    H117     H        0.28370    0.12540    0.33830    1.000
    C174     C        0.27310    0.10810    0.40280    1.000
    H118     H        0.30910    0.07460    0.40080    1.000
    C175     C        0.18760    0.16930    0.44310    1.000
    H119     H        0.16030    0.18090    0.46970    1.000
    C176     C        0.17210    0.19940    0.40610    1.000
    H120     H        0.13790    0.23350    0.40850    1.000
    Ag32     Ag       0.25148    0.04925    0.49300    1.000
    O57      O        0.08380    0.30010    0.31960    1.000
    O58      O        0.03370    0.32440    0.25290    1.000
    O59      O        0.01160    0.41580    0.44730    1.000
    O60      O        0.92420    0.49310    0.43780    1.000
    C177     C        0.04200    0.33070    0.29360    1.000
    C178     C        0.99290    0.38140    0.31300    1.000
    C179     C        0.94220    0.41910    0.28580    1.000
    H121     H        0.94120    0.41440    0.25510    1.000
    C180     C        0.89460    0.46270    0.30530    1.000
    H122     H        0.85750    0.48690    0.28790    1.000
    C181     C        0.89940    0.47180    0.34870    1.000
    H123     H        0.86650    0.50250    0.36120    1.000
    C182     C        0.95250    0.43650    0.37520    1.000
    C183     C        0.99740    0.39130    0.35700    1.000
    H124     H        0.03210    0.36660    0.37510    1.000
    C184     C        0.96120    0.44890    0.42330    1.000
    O61      O        0.22660    0.15680    0.26000    1.000
    O62      O        0.18530    0.18900    0.19390    1.000
    O63      O        0.25580    0.08020    0.06260    1.000
    O64      O        0.34620    0.00450    0.06790    1.000
    C185     C        0.22410    0.15440    0.21970    1.000
    C186     C        0.27350    0.10440    0.19710    1.000
    C187     C        0.32220    0.06810    0.22180    1.000
    H125     H        0.32510    0.07270    0.25250    1.000
    C188     C        0.36930    0.02290    0.20110    1.000
    H126     H        0.40600    0.99740    0.21760    1.000
    C189     C        0.36130    0.01660    0.15780    1.000
    H127     H        0.39210    0.98600    0.14410    1.000
    C190     C        0.30950    0.05340    0.13230    1.000
    C191     C        0.26420    0.09860    0.15330    1.000
    H128     H        0.22780    0.12450    0.13710    1.000
    C192     C        0.29980    0.04450    0.08450    1.000
    Ag33     Ag       0.64908    0.23335    0.28885    1.000
    N33      N        0.68940    0.18970    0.35570    1.000
    N34      N        0.74340    0.12680    0.42810    1.000
    C193     C        0.66580    0.20360    0.39510    1.000
    H129     H        0.62900    0.23630    0.39920    1.000
    C194     C        0.69160    0.17310    0.43120    1.000
    H130     H        0.67190    0.18550    0.45910    1.000
    C195     C        0.76870    0.11240    0.38790    1.000
    H131     H        0.80550    0.07950    0.38430    1.000
    C196     C        0.74460    0.14240    0.35150    1.000
    H132     H        0.76560    0.13080    0.32360    1.000
    Ag34     Ag       0.79899    0.06503    0.48078    1.000
    Ag35     Ag       0.58796    0.27748    0.21052    1.000
    Ag36     Ag       0.47856    0.44438    0.01449    1.000
    N35      N        0.54510    0.31640    0.14380    1.000
    N36      N        0.50500    0.37400    0.06760    1.000
    C197     C        0.58260    0.30110    0.10400    1.000
    H133     H        0.62440    0.27020    0.10230    1.000
    C198     C        0.56010    0.32990    0.06710    1.000
    H134     H        0.58520    0.31760    0.04020    1.000
    C199     C        0.46220    0.38740    0.10500    1.000
    H135     H        0.41420    0.41500    0.10540    1.000
    C200     C        0.48870    0.36030    0.14300    1.000
    H136     H        0.46500    0.37400    0.16980    1.000
    Ag37     Ag       0.50018    0.43971    0.52822    1.000
    Ag38     Ag       0.38947    0.26144    0.71618    1.000
    N37      N        0.43720    0.30710    0.65080    1.000
    N38      N        0.48350    0.37300    0.57970    1.000
    C201     C        0.48410    0.35270    0.65490    1.000
    H137     H        0.50370    0.36390    0.68310    1.000
    C202     C        0.50740    0.38630    0.61970    1.000
    H138     H        0.54170    0.41990    0.62460    1.000
    C203     C        0.43540    0.32590    0.57440    1.000
    H139     H        0.41890    0.31380    0.54600    1.000
    C204     C        0.40880    0.29390    0.61060    1.000
    H140     H        0.36970    0.26210    0.60640    1.000
    O65      O        0.72380    0.17340    0.24640    1.000
    O66      O        0.65940    0.20210    0.18400    1.000
    O67      O        0.71720    0.09050    0.05020    1.000
    O68      O        0.81450    0.01620    0.05450    1.000
    C205     C        0.70930    0.16990    0.20680    1.000
    C206     C        0.75840    0.12060    0.18330    1.000
    C207     C        0.81560    0.08590    0.20670    1.000
    H141     H        0.82330    0.09170    0.23700    1.000
    C208     C        0.86240    0.04210    0.18630    1.000
    H142     H        0.90280    0.01800    0.20230    1.000
    C209     C        0.84840    0.03420    0.14110    1.000
    H143     H        0.88040    0.00460    0.12660    1.000
    C210     C        0.78960    0.06830    0.11770    1.000
    C211     C        0.74290    0.11320    0.13920    1.000
    H144     H        0.70220    0.13750    0.12370    1.000
    C212     C        0.77320    0.05830    0.07010    1.000
    O69      O        0.57120    0.30470    0.31590    1.000
    O70      O        0.52000    0.34090    0.25370    1.000
    O71      O        0.42790    0.47150    0.45940    1.000
    O72      O        0.52410    0.39880    0.45480    1.000
    C213     C        0.52840    0.34080    0.29420    1.000
    C214     C        0.48650    0.38640    0.31970    1.000
    C215     C        0.42820    0.42890    0.29940    1.000
    H145     H        0.41930    0.42900    0.26880    1.000
    C216     C        0.38560    0.46900    0.32520    1.000
    H146     H        0.34770    0.49680    0.31160    1.000
    C217     C        0.39580    0.47040    0.36840    1.000
    H147     H        0.36420    0.49790    0.38520    1.000
    C218     C        0.45350    0.43080    0.38850    1.000
    C219     C        0.49490    0.38920    0.36460    1.000
    H148     H        0.53070    0.36140    0.37920    1.000
    C220     C        0.46810    0.43460    0.43610    1.000
    Ag39     Ag       0.34208    0.22316    0.79923    1.000
    N39      N        0.29850    0.18430    0.86700    1.000
    N40      N        0.25800    0.12300    0.94170    1.000
    C221     C        0.24290    0.13730    0.86500    1.000
    H149     H        0.21630    0.12540    0.83830    1.000
    C222     C        0.22690    0.10810    0.90280    1.000
    H150     H        0.19090    0.07460    0.90080    1.000
    C223     C        0.31240    0.16930    0.94310    1.000
    H151     H        0.33970    0.18090    0.96970    1.000
    C224     C        0.32790    0.19940    0.90610    1.000
    H152     H        0.36210    0.23350    0.90850    1.000
    Ag40     Ag       0.24852    0.04925    0.99300    1.000
    O73      O        0.41620    0.30010    0.81960    1.000
    O74      O        0.46630    0.32440    0.75290    1.000
    O75      O        0.48840    0.41580    0.94730    1.000
    O76      O        0.57580    0.49310    0.93780    1.000
    C225     C        0.45800    0.33070    0.79360    1.000
    C226     C        0.50710    0.38140    0.81300    1.000
    C227     C        0.55780    0.41910    0.78580    1.000
    H153     H        0.55880    0.41440    0.75510    1.000
    C228     C        0.60540    0.46270    0.80530    1.000
    H154     H        0.64250    0.48690    0.78790    1.000
    C229     C        0.60060    0.47180    0.84870    1.000
    H155     H        0.63350    0.50250    0.86120    1.000
    C230     C        0.54750    0.43650    0.87520    1.000
    C231     C        0.50260    0.39130    0.85700    1.000
    H156     H        0.46790    0.36660    0.87510    1.000
    C232     C        0.53880    0.44890    0.92330    1.000
    O77      O        0.27340    0.15680    0.76000    1.000
    O78      O        0.31470    0.18900    0.69390    1.000
    O79      O        0.24420    0.08020    0.56260    1.000
    O80      O        0.15380    0.00450    0.56790    1.000
    C233     C        0.27590    0.15440    0.71970    1.000
    C234     C        0.22650    0.10440    0.69710    1.000
    C235     C        0.17780    0.06810    0.72180    1.000
    H157     H        0.17490    0.07270    0.75250    1.000
    C236     C        0.13070    0.02290    0.70110    1.000
    H158     H        0.09400    0.99740    0.71760    1.000
    C237     C        0.13870    0.01660    0.65780    1.000
    H159     H        0.10790    0.98600    0.64410    1.000
    C238     C        0.19050    0.05340    0.63230    1.000
    C239     C        0.23580    0.09860    0.65330    1.000
    H160     H        0.27220    0.12450    0.63710    1.000
    C240     C        0.20020    0.04450    0.58450    1.000
    Ag41     Ag       0.85092    0.26665    0.28885    1.000
    N41      N        0.81060    0.31030    0.35570    1.000
    N42      N        0.75660    0.37320    0.42810    1.000
    C241     C        0.83420    0.29640    0.39510    1.000
    H161     H        0.87100    0.26370    0.39920    1.000
    C242     C        0.80840    0.32690    0.43120    1.000
    H162     H        0.82810    0.31450    0.45910    1.000
    C243     C        0.73130    0.38760    0.38790    1.000
    H163     H        0.69450    0.42050    0.38430    1.000
    C244     C        0.75540    0.35760    0.35150    1.000
    H164     H        0.73440    0.36920    0.32360    1.000
    Ag42     Ag       0.70101    0.43497    0.48078    1.000
    Ag43     Ag       0.91204    0.22252    0.21052    1.000
    Ag44     Ag       0.02144    0.05562    0.01449    1.000
    N43      N        0.95490    0.18360    0.14380    1.000
    N44      N        0.99500    0.12600    0.06760    1.000
    C245     C        0.91740    0.19890    0.10400    1.000
    H165     H        0.87560    0.22980    0.10230    1.000
    C246     C        0.93990    0.17010    0.06710    1.000
    H166     H        0.91480    0.18240    0.04020    1.000
    C247     C        0.03780    0.11260    0.10500    1.000
    H167     H        0.08580    0.08500    0.10540    1.000
    C248     C        0.01130    0.13970    0.14300    1.000
    H168     H        0.03500    0.12600    0.16980    1.000
    Ag45     Ag       0.99982    0.06029    0.52822    1.000
    Ag46     Ag       0.11053    0.23856    0.71618    1.000
    N45      N        0.06280    0.19290    0.65080    1.000
    N46      N        0.01650    0.12700    0.57970    1.000
    C249     C        0.01590    0.14730    0.65490    1.000
    H169     H        0.99630    0.13610    0.68310    1.000
    C250     C        0.99260    0.11370    0.61970    1.000
    H170     H        0.95830    0.08010    0.62460    1.000
    C251     C        0.06460    0.17410    0.57440    1.000
    H171     H        0.08110    0.18620    0.54600    1.000
    C252     C        0.09120    0.20610    0.61060    1.000
    H172     H        0.13030    0.23790    0.60640    1.000
    O81      O        0.77620    0.32660    0.24640    1.000
    O82      O        0.84060    0.29790    0.18400    1.000
    O83      O        0.78280    0.40950    0.05020    1.000
    O84      O        0.68550    0.48380    0.05450    1.000
    C253     C        0.79070    0.33010    0.20680    1.000
    C254     C        0.74160    0.37940    0.18330    1.000
    C255     C        0.68440    0.41410    0.20670    1.000
    H173     H        0.67670    0.40830    0.23700    1.000
    C256     C        0.63760    0.45790    0.18630    1.000
    H174     H        0.59720    0.48200    0.20230    1.000
    C257     C        0.65160    0.46580    0.14110    1.000
    H175     H        0.61960    0.49540    0.12660    1.000
    C258     C        0.71040    0.43170    0.11770    1.000
    C259     C        0.75710    0.38680    0.13920    1.000
    H176     H        0.79780    0.36250    0.12370    1.000
    C260     C        0.72680    0.44170    0.07010    1.000
    O85      O        0.92880    0.19530    0.31590    1.000
    O86      O        0.98000    0.15910    0.25370    1.000
    O87      O        0.07210    0.02850    0.45940    1.000
    O88      O        0.97590    0.10120    0.45480    1.000
    C261     C        0.97160    0.15920    0.29420    1.000
    C262     C        0.01350    0.11360    0.31970    1.000
    C263     C        0.07180    0.07110    0.29940    1.000
    H177     H        0.08070    0.07100    0.26880    1.000
    C264     C        0.11440    0.03100    0.32520    1.000
    H178     H        0.15230    0.00320    0.31160    1.000
    C265     C        0.10420    0.02960    0.36840    1.000
    H179     H        0.13580    0.00210    0.38520    1.000
    C266     C        0.04650    0.06920    0.38850    1.000
    C267     C        0.00510    0.11080    0.36460    1.000
    H180     H        0.96930    0.13860    0.37920    1.000
    C268     C        0.03190    0.06540    0.43610    1.000
    Ag47     Ag       0.15792    0.27684    0.79923    1.000
    N47      N        0.20150    0.31570    0.86700    1.000
    N48      N        0.24200    0.37700    0.94170    1.000
    C269     C        0.25710    0.36270    0.86500    1.000
    H181     H        0.28370    0.37460    0.83830    1.000
    C270     C        0.27310    0.39190    0.90280    1.000
    H182     H        0.30910    0.42540    0.90080    1.000
    C271     C        0.18760    0.33070    0.94310    1.000
    H183     H        0.16030    0.31910    0.96970    1.000
    C272     C        0.17210    0.30060    0.90610    1.000
    H184     H        0.13790    0.26650    0.90850    1.000
    Ag48     Ag       0.25148    0.45075    0.99300    1.000
    O89      O        0.08380    0.19990    0.81960    1.000
    O90      O        0.03370    0.17560    0.75290    1.000
    O91      O        0.01160    0.08420    0.94730    1.000
    O92      O        0.92420    0.00690    0.93780    1.000
    C273     C        0.04200    0.16930    0.79360    1.000
    C274     C        0.99290    0.11860    0.81300    1.000
    C275     C        0.94220    0.08090    0.78580    1.000
    H185     H        0.94120    0.08560    0.75510    1.000
    C276     C        0.89460    0.03730    0.80530    1.000
    H186     H        0.85750    0.01310    0.78790    1.000
    C277     C        0.89940    0.02820    0.84870    1.000
    H187     H        0.86650    0.99750    0.86120    1.000
    C278     C        0.95250    0.06350    0.87520    1.000
    C279     C        0.99740    0.10870    0.85700    1.000
    H188     H        0.03210    0.13340    0.87510    1.000
    C280     C        0.96120    0.05110    0.92330    1.000
    O93      O        0.22660    0.34320    0.76000    1.000
    O94      O        0.18530    0.31100    0.69390    1.000
    O95      O        0.25580    0.41980    0.56260    1.000
    O96      O        0.34620    0.49550    0.56790    1.000
    C281     C        0.22410    0.34560    0.71970    1.000
    C282     C        0.27350    0.39560    0.69710    1.000
    C283     C        0.32220    0.43190    0.72180    1.000
    H189     H        0.32510    0.42730    0.75250    1.000
    C284     C        0.36930    0.47710    0.70110    1.000
    H190     H        0.40600    0.50260    0.71760    1.000
    C285     C        0.36130    0.48340    0.65780    1.000
    H191     H        0.39210    0.51400    0.64410    1.000
    C286     C        0.30950    0.44660    0.63230    1.000
    C287     C        0.26420    0.40140    0.65330    1.000
    H192     H        0.22780    0.37550    0.63710    1.000
    C288     C        0.29980    0.45550    0.58450    1.000
    Ag49     Ag       0.35092    0.73335    0.21115    1.000
    N49      N        0.31060    0.68970    0.14430    1.000
    N50      N        0.25660    0.62680    0.07190    1.000
    C289     C        0.33420    0.70360    0.10490    1.000
    H193     H        0.37100    0.73630    0.10080    1.000
    C290     C        0.30840    0.67310    0.06880    1.000
    H194     H        0.32810    0.68550    0.04090    1.000
    C291     C        0.23130    0.61240    0.11210    1.000
    H195     H        0.19450    0.57950    0.11570    1.000
    C292     C        0.25540    0.64240    0.14850    1.000
    H196     H        0.23440    0.63080    0.17640    1.000
    Ag50     Ag       0.20101    0.56503    0.01922    1.000
    Ag51     Ag       0.41204    0.77748    0.28948    1.000
    Ag52     Ag       0.52144    0.94438    0.48551    1.000
    N51      N        0.45490    0.81640    0.35620    1.000
    N52      N        0.49500    0.87400    0.43240    1.000
    C293     C        0.41740    0.80110    0.39600    1.000
    H197     H        0.37560    0.77020    0.39770    1.000
    C294     C        0.43990    0.82990    0.43290    1.000
    H198     H        0.41480    0.81760    0.45980    1.000
    C295     C        0.53780    0.88740    0.39500    1.000
    H199     H        0.58580    0.91500    0.39460    1.000
    C296     C        0.51130    0.86030    0.35700    1.000
    H200     H        0.53500    0.87400    0.33020    1.000
    Ag53     Ag       0.49982    0.93971    0.97178    1.000
    Ag54     Ag       0.61053    0.76144    0.78382    1.000
    N53      N        0.56280    0.80710    0.84920    1.000
    N54      N        0.51650    0.87300    0.92030    1.000
    C297     C        0.51590    0.85270    0.84510    1.000
    H201     H        0.49630    0.86390    0.81690    1.000
    C298     C        0.49260    0.88630    0.88030    1.000
    H202     H        0.45830    0.91990    0.87540    1.000
    C299     C        0.56460    0.82590    0.92560    1.000
    H203     H        0.58110    0.81380    0.95400    1.000
    C300     C        0.59120    0.79390    0.88940    1.000
    H204     H        0.63030    0.76210    0.89360    1.000
    O97      O        0.27620    0.67340    0.25360    1.000
    O98      O        0.34060    0.70210    0.31600    1.000
    O99      O        0.28280    0.59050    0.44980    1.000
    O100     O        0.18550    0.51620    0.44550    1.000
    C301     C        0.29070    0.66990    0.29320    1.000
    C302     C        0.24160    0.62060    0.31670    1.000
    C303     C        0.18440    0.58590    0.29330    1.000
    H205     H        0.17670    0.59170    0.26300    1.000
    C304     C        0.13760    0.54210    0.31370    1.000
    H206     H        0.09720    0.51800    0.29770    1.000
    C305     C        0.15160    0.53420    0.35890    1.000
    H207     H        0.11960    0.50460    0.37340    1.000
    C306     C        0.21040    0.56830    0.38230    1.000
    C307     C        0.25710    0.61320    0.36080    1.000
    H208     H        0.29780    0.63750    0.37630    1.000
    C308     C        0.22680    0.55830    0.42990    1.000
    O101     O        0.42880    0.80470    0.18410    1.000
    O102     O        0.48000    0.84090    0.24630    1.000
    O103     O        0.57210    0.97150    0.04060    1.000
    O104     O        0.47590    0.89880    0.04520    1.000
    C309     C        0.47160    0.84080    0.20580    1.000
    C310     C        0.51350    0.88640    0.18030    1.000
    C311     C        0.57180    0.92890    0.20060    1.000
    H209     H        0.58070    0.92900    0.23120    1.000
    C312     C        0.61440    0.96900    0.17480    1.000
    H210     H        0.65230    0.99680    0.18840    1.000
    C313     C        0.60420    0.97040    0.13160    1.000
    H211     H        0.63580    0.99790    0.11480    1.000
    C314     C        0.54650    0.93080    0.11150    1.000
    C315     C        0.50510    0.88920    0.13540    1.000
    H212     H        0.46930    0.86140    0.12080    1.000
    C316     C        0.53190    0.93460    0.06390    1.000
    Ag55     Ag       0.65792    0.72316    0.70077    1.000
    N55      N        0.70150    0.68430    0.63300    1.000
    N56      N        0.74200    0.62300    0.55830    1.000
    C317     C        0.75710    0.63730    0.63500    1.000
    H213     H        0.78370    0.62540    0.66170    1.000
    C318     C        0.77310    0.60810    0.59720    1.000
    H214     H        0.80910    0.57460    0.59920    1.000
    C319     C        0.68760    0.66930    0.55690    1.000
    H215     H        0.66030    0.68090    0.53030    1.000
    C320     C        0.67210    0.69940    0.59390    1.000
    H216     H        0.63790    0.73350    0.59150    1.000
    Ag56     Ag       0.75148    0.54925    0.50700    1.000
    O105     O        0.58380    0.80010    0.68040    1.000
    O106     O        0.53370    0.82440    0.74710    1.000
    O107     O        0.51160    0.91580    0.55270    1.000
    O108     O        0.42420    0.99310    0.56220    1.000
    C321     C        0.54200    0.83070    0.70640    1.000
    C322     C        0.49290    0.88140    0.68700    1.000
    C323     C        0.44220    0.91910    0.71420    1.000
    H217     H        0.44120    0.91440    0.74490    1.000
    C324     C        0.39460    0.96270    0.69470    1.000
    H218     H        0.35750    0.98690    0.71210    1.000
    C325     C        0.39940    0.97180    0.65130    1.000
    H219     H        0.36650    0.00250    0.63880    1.000
    C326     C        0.45250    0.93650    0.62480    1.000
    C327     C        0.49740    0.89130    0.64300    1.000
    H220     H        0.53210    0.86660    0.62490    1.000
    C328     C        0.46120    0.94890    0.57670    1.000
    O109     O        0.72660    0.65680    0.74000    1.000
    O110     O        0.68530    0.68900    0.80610    1.000
    O111     O        0.75580    0.58020    0.93740    1.000
    O112     O        0.84620    0.50450    0.93210    1.000
    C329     C        0.72410    0.65440    0.78030    1.000
    C330     C        0.77350    0.60440    0.80290    1.000
    C331     C        0.82220    0.56810    0.77820    1.000
    H221     H        0.82510    0.57270    0.74750    1.000
    C332     C        0.86930    0.52290    0.79890    1.000
    H222     H        0.90600    0.49740    0.78240    1.000
    C333     C        0.86130    0.51660    0.84220    1.000
    H223     H        0.89210    0.48600    0.85590    1.000
    C334     C        0.80950    0.55340    0.86770    1.000
    C335     C        0.76420    0.59860    0.84670    1.000
    H224     H        0.72780    0.62450    0.86290    1.000
    C336     C        0.79980    0.54450    0.91550    1.000
    Ag57     Ag       0.14908    0.76665    0.21115    1.000
    N57      N        0.18940    0.81030    0.14430    1.000
    N58      N        0.24340    0.87320    0.07190    1.000
    C337     C        0.16580    0.79640    0.10490    1.000
    H225     H        0.12900    0.76370    0.10080    1.000
    C338     C        0.19160    0.82690    0.06880    1.000
    H226     H        0.17190    0.81450    0.04090    1.000
    C339     C        0.26870    0.88760    0.11210    1.000
    H227     H        0.30550    0.92050    0.11570    1.000
    C340     C        0.24460    0.85760    0.14850    1.000
    H228     H        0.26560    0.86920    0.17640    1.000
    Ag58     Ag       0.29899    0.93497    0.01922    1.000
    Ag59     Ag       0.08796    0.72252    0.28948    1.000
    Ag60     Ag       0.97856    0.55562    0.48551    1.000
    N59      N        0.04510    0.68360    0.35620    1.000
    N60      N        0.00500    0.62600    0.43240    1.000
    C341     C        0.08260    0.69890    0.39600    1.000
    H229     H        0.12440    0.72980    0.39770    1.000
    C342     C        0.06010    0.67010    0.43290    1.000
    H230     H        0.08520    0.68240    0.45980    1.000
    C343     C        0.96220    0.61260    0.39500    1.000
    H231     H        0.91420    0.58500    0.39460    1.000
    C344     C        0.98870    0.63970    0.35700    1.000
    H232     H        0.96500    0.62600    0.33020    1.000
    Ag61     Ag       0.00018    0.56029    0.97178    1.000
    Ag62     Ag       0.88947    0.73856    0.78382    1.000
    N61      N        0.93720    0.69290    0.84920    1.000
    N62      N        0.98350    0.62700    0.92030    1.000
    C345     C        0.98410    0.64730    0.84510    1.000
    H233     H        0.00370    0.63610    0.81690    1.000
    C346     C        0.00740    0.61370    0.88030    1.000
    H234     H        0.04170    0.58010    0.87540    1.000
    C347     C        0.93540    0.67410    0.92560    1.000
    H235     H        0.91890    0.68620    0.95400    1.000
    C348     C        0.90880    0.70610    0.88940    1.000
    H236     H        0.86970    0.73790    0.89360    1.000
    O113     O        0.22380    0.82660    0.25360    1.000
    O114     O        0.15940    0.79790    0.31600    1.000
    O115     O        0.21720    0.90950    0.44980    1.000
    O116     O        0.31450    0.98380    0.44550    1.000
    C349     C        0.20930    0.83010    0.29320    1.000
    C350     C        0.25840    0.87940    0.31670    1.000
    C351     C        0.31560    0.91410    0.29330    1.000
    H237     H        0.32330    0.90830    0.26300    1.000
    C352     C        0.36240    0.95790    0.31370    1.000
    H238     H        0.40280    0.98200    0.29770    1.000
    C353     C        0.34840    0.96580    0.35890    1.000
    H239     H        0.38040    0.99540    0.37340    1.000
    C354     C        0.28960    0.93170    0.38230    1.000
    C355     C        0.24290    0.88680    0.36080    1.000
    H240     H        0.20220    0.86250    0.37630    1.000
    C356     C        0.27320    0.94170    0.42990    1.000
    O117     O        0.07120    0.69530    0.18410    1.000
    O118     O        0.02000    0.65910    0.24630    1.000
    O119     O        0.92790    0.52850    0.04060    1.000
    O120     O        0.02410    0.60120    0.04520    1.000
    C357     C        0.02840    0.65920    0.20580    1.000
    C358     C        0.98650    0.61360    0.18030    1.000
    C359     C        0.92820    0.57110    0.20060    1.000
    H241     H        0.91930    0.57100    0.23120    1.000
    C360     C        0.88560    0.53100    0.17480    1.000
    H242     H        0.84770    0.50320    0.18840    1.000
    C361     C        0.89580    0.52960    0.13160    1.000
    H243     H        0.86420    0.50210    0.11480    1.000
    C362     C        0.95350    0.56920    0.11150    1.000
    C363     C        0.99490    0.61080    0.13540    1.000
    H244     H        0.03070    0.63860    0.12080    1.000
    C364     C        0.96810    0.56540    0.06390    1.000
    Ag63     Ag       0.84208    0.77684    0.70077    1.000
    N63      N        0.79850    0.81570    0.63300    1.000
    N64      N        0.75800    0.87700    0.55830    1.000
    C365     C        0.74290    0.86270    0.63500    1.000
    H245     H        0.71630    0.87460    0.66170    1.000
    C366     C        0.72690    0.89190    0.59720    1.000
    H246     H        0.69090    0.92540    0.59920    1.000
    C367     C        0.81240    0.83070    0.55690    1.000
    H247     H        0.83970    0.81910    0.53030    1.000
    C368     C        0.82790    0.80060    0.59390    1.000
    H248     H        0.86210    0.76650    0.59150    1.000
    Ag64     Ag       0.74852    0.95075    0.50700    1.000
    O121     O        0.91620    0.69990    0.68040    1.000
    O122     O        0.96630    0.67560    0.74710    1.000
    O123     O        0.98840    0.58420    0.55270    1.000
    O124     O        0.07580    0.50690    0.56220    1.000
    C369     C        0.95800    0.66930    0.70640    1.000
    C370     C        0.00710    0.61860    0.68700    1.000
    C371     C        0.05780    0.58090    0.71420    1.000
    H249     H        0.05880    0.58560    0.74490    1.000
    C372     C        0.10540    0.53730    0.69470    1.000
    H250     H        0.14250    0.51310    0.71210    1.000
    C373     C        0.10060    0.52820    0.65130    1.000
    H251     H        0.13350    0.49750    0.63880    1.000
    C374     C        0.04750    0.56350    0.62480    1.000
    C375     C        0.00260    0.60870    0.64300    1.000
    H252     H        0.96790    0.63340    0.62490    1.000
    C376     C        0.03880    0.55110    0.57670    1.000
    O125     O        0.77340    0.84320    0.74000    1.000
    O126     O        0.81470    0.81100    0.80610    1.000
    O127     O        0.74420    0.91980    0.93740    1.000
    O128     O        0.65380    0.99550    0.93210    1.000
    C377     C        0.77590    0.84560    0.78030    1.000
    C378     C        0.72650    0.89560    0.80290    1.000
    C379     C        0.67780    0.93190    0.77820    1.000
    H253     H        0.67490    0.92730    0.74750    1.000
    C380     C        0.63070    0.97710    0.79890    1.000
    H254     H        0.59400    0.00260    0.78240    1.000
    C381     C        0.63870    0.98340    0.84220    1.000
    H255     H        0.60790    0.01400    0.85590    1.000
    C382     C        0.69050    0.94660    0.86770    1.000
    C383     C        0.73580    0.90140    0.84670    1.000
    H256     H        0.77220    0.87550    0.86290    1.000
    C384     C        0.70020    0.95550    0.91550    1.000
