data_functionalizedCrystal
_audit_creation_method	'EQeq! by Chris Wilmer'
_symmetry_space_group_name_H-M	'P1'
_symmetry_Int_Tables_number	1
_symmetry_cell_setting	triclinic
loop_
_symmetry_equiv_pos_as_xyz
  x,y,z
_cell_length_a	10.899
_cell_length_b	19.785
_cell_length_c	20.334
_cell_angle_alpha	90
_cell_angle_beta	90
_cell_angle_gamma	99.48
loop_
_atom_site_label
_atom_site_type_symbol
_atom_site_fract_x
_atom_site_fract_y
_atom_site_fract_z
_atom_site_charge
Mof_Sm	Sm	0.54045	0.34613	0.12926	1.831
Mof_Sm	Sm	0.04045	0.84613	0.37074	1.823
Mof_Sm	Sm	0.8429	0.0819	0.12759	1.447
Mof_Sm	Sm	0.6571	0.4181	0.62759	1.451
Mof_Sm	Sm	0.45955	0.65387	0.87074	1.831
Mof_Sm	Sm	0.1571	0.9181	0.87241	1.447
Mof_Sm	Sm	0.95955	0.15387	0.62926	1.824
Mof_Sm	Sm	0.3429	0.5819	0.37241	1.452
Mof_Cu	Cu	0.70094	0.40976	0.82674	0.919
Mof_Cu	Cu	0.9178	0.16843	0.82669	0.88
Mof_Cu	Cu	0.79906	0.09024	0.32674	0.918
Mof_Cu	Cu	0.4178	0.66843	0.67331	0.881
Mof_Cu	Cu	0.29906	0.59024	0.17326	0.919
Mof_Cu	Cu	0.20094	0.90976	0.67326	0.918
Mof_Cu	Cu	0.5822	0.33157	0.32669	0.881
Mof_Cu	Cu	0.0822	0.83157	0.17331	0.88
Mof_H 	H 	0.3894	0.2525	0.6875	0.038
Mof_H 	H 	0.0825	0.4368	0.0786	0.058
Mof_H 	H 	0.2297	0.325	0.681	0.025
Mof_H 	H 	0.3717	0.9965	0.3052	0.041
Mof_H 	H 	0.0144	0.4272	0.3126	0.014
Mof_H 	H 	0.8894	0.7525	0.8125	0.037
Mof_H 	H 	0.1283	0.5035	0.8052	0.042
Mof_H 	H 	0.1106	0.2475	0.1875	0.037
Mof_H 	H 	0.5144	0.9272	0.1874	0.014
Mof_H 	H 	0.7703	0.675	0.319	0.025
Mof_H 	H 	0.8717	0.4965	0.1948	0.042
Mof_H 	H 	0.5825	0.9368	0.4214	0.058
Mof_H 	H 	0.9856	0.5728	0.6874	0.014
Mof_H 	H 	0.4856	0.0728	0.8126	0.014
Mof_H 	H 	0.6283	0.0035	0.6948	0.041
Mof_H 	H 	0.9175	0.5632	0.9214	0.058
Mof_H 	H 	0.6106	0.7475	0.3125	0.038
Mof_H 	H 	0.7297	0.825	0.819	0.025
Mof_H 	H 	0.4175	0.0632	0.5786	0.058
Mof_H 	H 	0.2703	0.175	0.181	0.025
Mof_C 	C 	0.1563	0.6776	0.6662	0.343
Mof_C 	C 	0.7936	0.5257	0.7598	0.422
Mof_C 	C 	0.6273	0.012	0.4868	-0.031
Mof_C 	C 	0.0493	0.4624	0.0468	0.008
Mof_C 	C 	0.0097	0.7276	0.7444	-0.078
Mof_C 	C 	0.7367	0.4762	0.9692	0.318
Mof_C 	C 	0.4076	0.2167	0.7134	-0.003
Mof_C 	C 	0.8628	0.5984	0.7534	-0.095
Mof_C 	C 	0.8437	0.3224	0.3338	0.343
Mof_C 	C 	0.215	0.0761	0.2037	-0.057
Mof_C 	C 	0.5342	0.8911	0.2123	0.013
Mof_C 	C 	0.3412	0.8965	0.424	0.385
Mof_C 	C 	0.9606	0.327	0.2918	-0.06
Mof_C 	C 	0.1493	0.4675	0.7807	-0.003
Mof_C 	C 	0.8906	0.6512	0.251	-0.117
Mof_C 	C 	0.4658	0.1089	0.7877	0.013
Mof_C 	C 	0.1094	0.3488	0.749	-0.117
Mof_C 	C 	0.8507	0.5325	0.2193	-0.003
Mof_C 	C 	0.4085	0.4294	0.6691	0.306
Mof_C 	C 	0.7107	0.6455	0.8272	0.324
Mof_C 	C 	0.3727	0.988	0.5132	-0.031
Mof_C 	C 	0.6588	0.1035	0.576	0.385
Mof_C 	C 	0.9903	0.2724	0.2556	-0.078
Mof_C 	C 	0.4226	0.0966	0.2851	-0.037
Mof_C 	C 	0.6563	0.1776	0.8338	0.343
Mof_C 	C 	0.7532	0.9788	0.7604	-0.089
Mof_C 	C 	0.785	0.9239	0.7963	-0.057
Mof_C 	C 	0.2107	0.1455	0.6728	0.323
Mof_C 	C 	0.7111	0.8605	0.7928	0.009
Mof_C 	C 	0.3437	0.8224	0.1662	0.343
Mof_C 	C 	0.7468	0.5212	0.2604	-0.092
Mof_C 	C 	0.2633	0.5238	0.0308	0.318
Mof_C 	C 	0.6372	0.9016	0.2534	-0.096
Mof_C 	C 	0.3325	0.1527	0.7097	-0.034
Mof_C 	C 	0.6675	0.8473	0.2903	-0.034
Mof_C 	C 	0.9627	0.3934	0.8285	0.322
Mof_C 	C 	0.5915	0.5706	0.3309	0.306
Mof_C 	C 	0.2064	0.4743	0.2402	0.422
Mof_C 	C 	0.8325	0.6527	0.7903	-0.035
Mof_C 	C 	0.9076	0.7167	0.7866	0
Mof_C 	C 	0.9204	0.2005	0.2647	0.383
Mof_C 	C 	0.4507	0.0376	0.5468	0.009
Mof_C 	C 	0.7064	0.9743	0.2598	0.426
Mof_C 	C 	0.4204	0.7005	0.2353	0.382
Mof_C 	C 	0.2936	0.0257	0.7402	0.426
Mof_C 	C 	0.0915	0.0706	0.1691	0.311
Mof_C 	C 	0.5771	0.0507	0.535	-0.063
Mof_C 	C 	0.0771	0.5507	0.965	-0.063
Mof_C 	C 	0.7893	0.8545	0.3272	0.323
Mof_C 	C 	0.3507	0.0325	0.2807	-0.002
Mof_C 	C 	0.1768	0.95	0.2332	0.421
Mof_C 	C 	0.2893	0.3545	0.1728	0.324
Mof_C 	C 	0.9507	0.5376	0.9532	0.008
Mof_C 	C 	0.9579	0.7229	0.2421	0.43
Mof_C 	C 	0.8412	0.3965	0.076	0.385
Mof_C 	C 	0.4606	0.827	0.2082	-0.059
Mof_C 	C 	0.8727	0.488	0.9868	-0.031
Mof_C 	C 	0.5924	0.7833	0.2866	-0.003
Mof_C 	C 	0.5373	0.1066	0.3285	0.323
Mof_C 	C 	0.5421	0.7771	0.7421	0.427
Mof_C 	C 	0.1273	0.512	0.0132	-0.031
Mof_C 	C 	0.7889	0.6395	0.2928	0.008
Mof_C 	C 	0.2367	0.9762	0.5308	0.314
Mof_C 	C 	0.0774	0.4034	0.7851	-0.035
Mof_C 	C 	0.1372	0.4016	0.2466	-0.095
Mof_C 	C 	0.8232	0.05	0.7668	0.421
Mof_C 	C 	0.1675	0.3473	0.2097	-0.035
Mof_C 	C 	0.5493	0.9624	0.4532	0.009
Mof_C 	C 	0.4627	0.8934	0.6715	0.323
Mof_C 	C 	0.7633	0.0238	0.4692	0.314
Mof_C 	C 	0.6094	0.8488	0.751	-0.116
Mof_C 	C 	0.0342	0.3911	0.2877	0.014
Mof_C 	C 	0.715	0.5761	0.2963	-0.056
Mof_C 	C 	0.2111	0.3605	0.7072	0.008
Mof_C 	C 	0.4229	0.9493	0.465	-0.063
Mof_C 	C 	0.9085	0.9294	0.8309	0.311
Mof_C 	C 	0.3628	0.0984	0.7466	-0.096
Mof_C 	C 	0.1588	0.6035	0.924	0.385
Mof_C 	C 	0.0924	0.2833	0.2134	0
Mof_C 	C 	0.285	0.4239	0.7037	-0.056
Mof_C 	C 	0.9229	0.4493	0.035	-0.063
Mof_C 	C 	0.6768	0.45	0.2668	0.423
Mof_C 	C 	0.2468	0.0212	0.2396	-0.089
Mof_C 	C 	0.5394	0.173	0.7918	-0.059
Mof_C 	C 	0.2889	0.1395	0.2072	0.009
Mof_C 	C 	0.9658	0.6089	0.7123	0.014
Mof_C 	C 	0.4903	0.7724	0.2444	-0.075
Mof_C 	C 	0.5774	0.9034	0.7149	-0.037
Mof_C 	C 	0.3232	0.55	0.7332	0.423
Mof_C 	C 	0.3906	0.1512	0.249	-0.116
Mof_C 	C 	0.0421	0.2771	0.7579	0.43
Mof_C 	C 	0.2532	0.4788	0.7396	-0.092
Mof_C 	C 	0.0796	0.7995	0.7353	0.383
Mof_C 	C 	0.4579	0.2229	0.2579	0.427
Mof_C 	C 	0.6493	0.9675	0.7193	-0.002
Mof_C 	C 	0.0394	0.673	0.7082	-0.06
Mof_C 	C 	0.5097	0.2276	0.7556	-0.075
Mof_C 	C 	0.5796	0.2995	0.7647	0.382
Mof_C 	C 	0.9226	0.5966	0.2149	-0.035
Mof_C 	C 	0.0373	0.6066	0.1715	0.322
Mof_O 	O 	0.6211	0.3146	0.8218	-0.408
Mof_O 	O 	0.2576	0.6958	0.6972	-0.39
Mof_O 	O 	0.0009	0.7374	0.1853	-0.438
Mof_O 	O 	0.1073	0.6447	0.8914	-0.316
Mof_O 	O 	0.9652	0.7638	0.2884	-0.556
Mof_O 	O 	0.1922	0.9238	0.564	-0.349
Mof_O 	O 	0.8825	0.8896	0.3004	-0.418
Mof_O 	O 	0.0014	0.9673	0.8055	-0.404
Mof_O 	O 	0.6175	0.6104	0.8004	-0.421
Mof_O 	O 	0.9991	0.2626	0.8147	-0.438
Mof_O 	O 	0.1393	0.6147	0.204	-0.379
Mof_O 	O 	0.8607	0.3853	0.796	-0.379
Mof_O 	O 	0.6073	0.1447	0.6086	-0.315
Mof_O 	O 	0.7743	0.5054	0.8173	-0.418
Mof_O 	O 	0.2007	0.1762	0.6198	-0.416
Mof_O 	O 	0.8078	0.0762	0.436	-0.349
Mof_O 	O 	0.9121	0.1601	0.2176	-0.491
Mof_O 	O 	0.2257	0.4946	0.1827	-0.418
Mof_O 	O 	0.5014	0.4673	0.6945	-0.4
Mof_O 	O 	0.9729	0.3968	0.8884	-0.257
Mof_O 	O 	0.3789	0.6854	0.1782	-0.408
Mof_O 	O 	0.7257	0.9946	0.3173	-0.417
Mof_O 	O 	0.8789	0.1854	0.3218	-0.409
Mof_O 	O 	0.7007	0.6762	0.8802	-0.418
Mof_O 	O 	0.4652	0.2638	0.2116	-0.558
Mof_O 	O 	0.6433	0.4158	0.2165	-0.515
Mof_O 	O 	0.8233	0.9785	0.4884	-0.273
Mof_O 	O 	0.1767	0.0215	0.5116	-0.273
Mof_O 	O 	0.5271	0.1032	0.3884	-0.257
Mof_O 	O 	0.2264	0.8964	0.4244	-0.51
Mof_O 	O 	0.5879	0.3399	0.7176	-0.49
Mof_O 	O 	0.1433	0.9158	0.2835	-0.515
Mof_O 	O 	0.0879	0.8399	0.7824	-0.491
Mof_O 	O 	0.0791	0.1065	0.1193	-0.432
Mof_O 	O 	0.5009	0.2374	0.3147	-0.435
Mof_O 	O 	0.9209	0.8935	0.8807	-0.432
Mof_O 	O 	0.7668	0.4913	0.7085	-0.519
Mof_O 	O 	0.2993	0.3238	0.1198	-0.418
Mof_O 	O 	0.6476	0.1587	0.8915	-0.332
Mof_O 	O 	0.8567	0.0842	0.7165	-0.515
Mof_O 	O 	0.1476	0.6587	0.6085	-0.333
Mof_O 	O 	0.3607	0.8853	0.704	-0.379
Mof_O 	O 	0.2736	0.6036	0.9244	-0.511
Mof_O 	O 	0.7424	0.3042	0.3028	-0.39
Mof_O 	O 	0.2332	0.5087	0.2915	-0.519
Mof_O 	O 	0.5791	0.6065	0.3807	-0.432
Mof_O 	O 	0.3927	0.8553	0.3914	-0.315
Mof_O 	O 	0.6609	0.4276	0.3252	-0.45
Mof_O 	O 	0.7576	0.1958	0.8028	-0.39
Mof_O 	O 	0.4986	0.5327	0.3055	-0.4
Mof_O 	O 	0.5348	0.7362	0.7884	-0.558
Mof_O 	O 	0.6922	0.4238	0.936	-0.349
Mof_O 	O 	0.1609	0.9276	0.1748	-0.45
Mof_O 	O 	0.7264	0.3964	0.0756	-0.511
Mof_O 	O 	0.0271	0.6032	0.1116	-0.257
Mof_O 	O 	0.3524	0.8413	0.1085	-0.332
Mof_O 	O 	0.2424	0.8042	0.1972	-0.39
Mof_O 	O 	0.3391	0.5724	0.6748	-0.45
Mof_O 	O 	0.2743	0.0054	0.6827	-0.417
Mof_O 	O 	0.4209	0.3935	0.6193	-0.432
Mof_O 	O 	0.8391	0.0724	0.8252	-0.45
Mof_O 	O 	0.0348	0.2362	0.7116	-0.556
Mof_O 	O 	0.7993	0.8238	0.3802	-0.416
Mof_O 	O 	0.6767	0.5215	0.9884	-0.277
Mof_O 	O 	0.3078	0.5762	0.064	-0.349
Mof_O 	O 	0.1175	0.1104	0.6996	-0.418
Mof_O 	O 	0.3567	0.5842	0.7835	-0.515
Mof_O 	O 	0.7332	0.0087	0.2085	-0.521
Mof_O 	O 	0.6393	0.1147	0.296	-0.379
Mof_O 	O 	0.1211	0.8146	0.6782	-0.409
Mof_O 	O 	0.7736	0.1036	0.5756	-0.51
Mof_O 	O 	0.4729	0.8968	0.6116	-0.257
Mof_O 	O 	0.9986	0.0327	0.1945	-0.404
Mof_O 	O 	0.3825	0.3896	0.1996	-0.421
Mof_O 	O 	0.4991	0.7626	0.6853	-0.435
Mof_O 	O 	0.3233	0.4785	0.0116	-0.277
Mof_O 	O 	0.2668	0.9913	0.7915	-0.521
Mof_O 	O 	0.8927	0.3553	0.1086	-0.316
Mof_O 	O 	0.4121	0.6601	0.2824	-0.49
Mof_O 	O 	0.8524	0.3413	0.3915	-0.333
_end
