data_functionalizedCrystal
_audit_creation_method	'EQeq! by Chris Wilmer'
_symmetry_space_group_name_H-M	'P1'
_symmetry_Int_Tables_number	1
_symmetry_cell_setting	triclinic
loop_
_symmetry_equiv_pos_as_xyz
  x,y,z
_cell_length_a	22.3175
_cell_length_b	22.3175
_cell_length_c	21.0429
_cell_angle_alpha	90
_cell_angle_beta	90
_cell_angle_gamma	90
loop_
_atom_site_label
_atom_site_type_symbol
_atom_site_fract_x
_atom_site_fract_y
_atom_site_fract_z
_atom_site_charge
Mof_N 	N 	0.97343	0.46622	0.0935	-0.249
Mof_N 	N 	0.9693	0.5047	0.1434	-0.217
Mof_H 	H 	0.9846	0.5388	0.1383	0.08
Mof_N 	N 	0.82342	0.31481	0.2478	-0.248
Mof_N 	N 	0.8713	0.3097	0.2872	-0.223
Mof_H 	H 	0.0357	0.3836	0.9358	0.095
Mof_C 	C 	0.9506	0.4144	0.1154	0.241
Mof_C 	C 	0.9312	0.4207	0.1784	-0.165
Mof_C 	C 	0.9445	0.4795	0.1952	0.257
Mof_C 	C 	0.9345	0.5129	0.2553	-0.729
Mof_H 	H 	0.9501	0.5527	0.2511	0.217
Mof_H 	H 	0.8922	0.5148	0.2633	0.219
Mof_H 	H 	0.954	0.493	0.29	0.22
Mof_C 	C 	0.9495	0.3582	0.0773	-0.716
Mof_H 	H 	0.9655	0.3655	0.0357	0.197
Mof_H 	H 	0.9729	0.3281	0.0982	0.225
Mof_H 	H 	0.9088	0.3448	0.0736	0.206
Mof_C 	C 	0.9173	0.3452	0.2696	0.198
Mof_C 	C 	0.8986	0.3757	0.2169	-0.122
Mof_C 	C 	0.1052	0.4099	0.0462	0.224
Mof_C 	C 	0.1252	0.4494	0.0989	-0.665
Mof_H 	H 	0.1044	0.4869	0.0958	0.16
Mof_H 	H 	0.1676	0.4563	0.0961	0.192
Mof_H 	H 	0.116	0.4307	0.1387	0.194
Mof_C 	C 	0.0957	0.2749	0.9447	-0.741
Mof_H 	H 	0.0678	0.2768	0.91	0.207
Mof_H 	H 	0.0852	0.2423	0.9722	0.223
Mof_H 	H 	0.1354	0.2688	0.9284	0.218
Mof_N 	N 	0.47343	0.96622	0.5935	-0.246
Mof_N 	N 	0.4693	0.0047	0.6434	-0.247
Mof_H 	H 	0.4846	0.0388	0.6383	0.077
Mof_N 	N 	0.32342	0.81481	0.7478	-0.25
Mof_N 	N 	0.3713	0.8097	0.7872	-0.233
Mof_H 	H 	0.5357	0.8836	0.4358	0.097
Mof_C 	C 	0.4506	0.9144	0.6154	0.244
Mof_C 	C 	0.4312	0.9207	0.6784	-0.187
Mof_C 	C 	0.4445	0.9795	0.6952	0.321
Mof_C 	C 	0.4345	0.0129	0.7553	-0.887
Mof_H 	H 	0.4501	0.0527	0.7511	0.255
Mof_H 	H 	0.3922	0.0148	0.7633	0.257
Mof_H 	H 	0.454	0.993	0.79	0.273
Mof_C 	C 	0.4495	0.8582	0.5773	-0.722
Mof_H 	H 	0.4655	0.8655	0.5357	0.2
Mof_H 	H 	0.4729	0.8281	0.5982	0.221
Mof_H 	H 	0.4088	0.8448	0.5736	0.212
Mof_C 	C 	0.4173	0.8452	0.7696	0.236
Mof_C 	C 	0.3986	0.8757	0.7169	-0.136
Mof_C 	C 	0.6052	0.9099	0.5462	0.226
Mof_C 	C 	0.6252	0.9494	0.5989	-0.683
Mof_H 	H 	0.6044	0.9869	0.5958	0.179
Mof_H 	H 	0.6676	0.9563	0.5961	0.206
Mof_H 	H 	0.616	0.9307	0.6387	0.205
Mof_C 	C 	0.5957	0.7749	0.4447	-0.691
Mof_H 	H 	0.5678	0.7768	0.41	0.199
Mof_H 	H 	0.5852	0.7423	0.4722	0.203
Mof_H 	H 	0.6354	0.7688	0.4284	0.202
Mof_N 	N 	0.52657	0.53378	0.5935	-0.254
Mof_N 	N 	0.5307	0.4953	0.6434	-0.216
Mof_H 	H 	0.5154	0.4612	0.6383	0.074
Mof_N 	N 	0.67658	0.68519	0.7478	-0.251
Mof_N 	N 	0.6287	0.6903	0.7872	-0.235
Mof_H 	H 	0.4643	0.6164	0.4358	0.094
Mof_C 	C 	0.5494	0.5856	0.6154	0.229
Mof_C 	C 	0.5688	0.5793	0.6784	-0.153
Mof_C 	C 	0.5555	0.5205	0.6952	0.243
Mof_C 	C 	0.5655	0.4871	0.7553	-0.711
Mof_H 	H 	0.5499	0.4473	0.7511	0.208
Mof_H 	H 	0.6078	0.4852	0.7633	0.214
Mof_H 	H 	0.546	0.507	0.79	0.21
Mof_C 	C 	0.5505	0.6418	0.5773	-0.704
Mof_H 	H 	0.5345	0.6345	0.5357	0.193
Mof_H 	H 	0.5271	0.6719	0.5982	0.216
Mof_H 	H 	0.5912	0.6552	0.5736	0.206
Mof_C 	C 	0.5827	0.6548	0.7696	0.244
Mof_C 	C 	0.6014	0.6243	0.7169	-0.151
Mof_C 	C 	0.3948	0.5901	0.5462	0.219
Mof_C 	C 	0.3748	0.5506	0.5989	-0.665
Mof_H 	H 	0.3956	0.5131	0.5958	0.169
Mof_H 	H 	0.3324	0.5437	0.5961	0.196
Mof_H 	H 	0.384	0.5693	0.6387	0.198
Mof_C 	C 	0.4043	0.7251	0.4447	-0.688
Mof_H 	H 	0.4322	0.7232	0.41	0.197
Mof_H 	H 	0.4148	0.7577	0.4722	0.203
Mof_H 	H 	0.3646	0.7312	0.4284	0.2
Mof_N 	N 	0.02657	0.03378	0.0935	-0.264
Mof_N 	N 	0.0307	0.9953	0.1434	-0.176
Mof_H 	H 	0.0154	0.9612	0.1383	0.061
Mof_N 	N 	0.17658	0.18519	0.2478	-0.253
Mof_N 	N 	0.1287	0.1903	0.2872	-0.246
Mof_H 	H 	0.9643	0.1164	0.9358	0.106
Mof_C 	C 	0.0494	0.0856	0.1154	0.183
Mof_C 	C 	0.0688	0.0793	0.1784	-0.096
Mof_C 	C 	0.0555	0.0205	0.1952	0.13
Mof_C 	C 	0.0655	0.9871	0.2553	-0.466
Mof_H 	H 	0.0499	0.9473	0.2511	0.136
Mof_H 	H 	0.1078	0.9852	0.2633	0.148
Mof_H 	H 	0.046	0.007	0.29	0.117
Mof_C 	C 	0.0505	0.1418	0.0773	-0.622
Mof_H 	H 	0.0345	0.1345	0.0357	0.151
Mof_H 	H 	0.0271	0.1719	0.0982	0.18
Mof_H 	H 	0.0912	0.1552	0.0736	0.174
Mof_C 	C 	0.0827	0.1548	0.2696	0.289
Mof_C 	C 	0.1014	0.1243	0.2169	-0.193
Mof_C 	C 	0.8948	0.0901	0.0462	0.238
Mof_C 	C 	0.8748	0.0506	0.0989	-0.686
Mof_H 	H 	0.8956	0.0131	0.0958	0.174
Mof_H 	H 	0.8324	0.0437	0.0961	0.198
Mof_H 	H 	0.884	0.0693	0.1387	0.207
Mof_C 	C 	0.9043	0.2251	0.9447	-0.774
Mof_H 	H 	0.9322	0.2232	0.91	0.228
Mof_H 	H 	0.9148	0.2577	0.9722	0.24
Mof_H 	H 	0.8646	0.2312	0.9284	0.23
Mof_N 	N 	0.28378	0.22343	0.3435	-0.254
Mof_N 	N 	0.2453	0.2193	0.3934	-0.214
Mof_H 	H 	0.2112	0.2346	0.3883	0.071
Mof_N 	N 	0.43519	0.07342	0.4978	-0.253
Mof_N 	N 	0.4403	0.1213	0.5372	-0.233
Mof_H 	H 	0.3664	0.2857	0.1858	0.092
Mof_C 	C 	0.3356	0.2006	0.3654	0.227
Mof_C 	C 	0.3293	0.1812	0.4284	-0.152
Mof_C 	C 	0.2705	0.1945	0.4452	0.233
Mof_C 	C 	0.2371	0.1845	0.5053	-0.685
Mof_H 	H 	0.1973	0.2001	0.5011	0.195
Mof_H 	H 	0.2352	0.1422	0.5133	0.2
Mof_H 	H 	0.257	0.204	0.54	0.198
Mof_C 	C 	0.3918	0.1995	0.3273	-0.702
Mof_H 	H 	0.3845	0.2155	0.2857	0.192
Mof_H 	H 	0.4219	0.2229	0.3482	0.215
Mof_H 	H 	0.4052	0.1588	0.3236	0.204
Mof_C 	C 	0.4048	0.1673	0.5196	0.236
Mof_C 	C 	0.3743	0.1486	0.4669	-0.147
Mof_C 	C 	0.3401	0.3552	0.2962	0.216
Mof_C 	C 	0.3006	0.3752	0.3489	-0.66
Mof_H 	H 	0.2631	0.3544	0.3458	0.166
Mof_H 	H 	0.2937	0.4176	0.3461	0.194
Mof_H 	H 	0.3193	0.366	0.3887	0.196
Mof_C 	C 	0.4751	0.3457	0.1947	-0.675
Mof_H 	H 	0.4732	0.3178	0.16	0.19
Mof_H 	H 	0.5077	0.3352	0.2222	0.198
Mof_H 	H 	0.4812	0.3854	0.1784	0.193
Mof_N 	N 	0.78378	0.72343	0.8435	-0.256
Mof_N 	N 	0.7453	0.7193	0.8934	-0.225
Mof_H 	H 	0.7112	0.7346	0.8883	0.081
Mof_N 	N 	0.93519	0.57342	0.9978	-0.229
Mof_N 	N 	0.9403	0.6213	0.0372	-0.236
Mof_H 	H 	0.8664	0.7857	0.6858	0.092
Mof_C 	C 	0.8356	0.7006	0.8654	0.247
Mof_C 	C 	0.8293	0.6812	0.9284	-0.181
Mof_C 	C 	0.7705	0.6945	0.9452	0.29
Mof_C 	C 	0.7371	0.6845	0.0053	-0.785
Mof_H 	H 	0.6973	0.7001	0.0011	0.22
Mof_H 	H 	0.7352	0.6422	0.0133	0.225
Mof_H 	H 	0.757	0.704	0.04	0.226
Mof_C 	C 	0.8918	0.6995	0.8273	-0.735
Mof_H 	H 	0.8845	0.7155	0.7857	0.204
Mof_H 	H 	0.9219	0.7229	0.8482	0.231
Mof_H 	H 	0.9052	0.6588	0.8236	0.218
Mof_C 	C 	0.9048	0.6673	0.0196	0.197
Mof_C 	C 	0.8743	0.6486	0.9669	-0.104
Mof_C 	C 	0.8401	0.8552	0.7962	0.21
Mof_C 	C 	0.8006	0.8752	0.8489	-0.667
Mof_H 	H 	0.7631	0.8544	0.8458	0.172
Mof_H 	H 	0.7937	0.9176	0.8461	0.203
Mof_H 	H 	0.8193	0.866	0.8887	0.203
Mof_C 	C 	0.9751	0.8457	0.6947	-0.549
Mof_H 	H 	0.9732	0.8178	0.66	0.164
Mof_H 	H 	0.0077	0.8352	0.7222	0.143
Mof_H 	H 	0.9812	0.8854	0.6784	0.166
Mof_N 	N 	0.21622	0.77657	0.8435	-0.255
Mof_N 	N 	0.2547	0.7807	0.8934	-0.226
Mof_H 	H 	0.2888	0.7654	0.8883	0.081
Mof_N 	N 	0.06481	0.92658	0.9978	-0.233
Mof_N 	N 	0.0597	0.8787	0.0372	-0.233
Mof_H 	H 	0.1336	0.7143	0.6858	0.096
Mof_C 	C 	0.1644	0.7994	0.8654	0.24
Mof_C 	C 	0.1707	0.8188	0.9284	-0.184
Mof_C 	C 	0.2295	0.8055	0.9452	0.295
Mof_C 	C 	0.2629	0.8155	0.0053	-0.794
Mof_H 	H 	0.3027	0.7999	0.0011	0.222
Mof_H 	H 	0.2648	0.8578	0.0133	0.23
Mof_H 	H 	0.243	0.796	0.04	0.228
Mof_C 	C 	0.1082	0.8005	0.8273	-0.709
Mof_H 	H 	0.1155	0.7845	0.7857	0.193
Mof_H 	H 	0.0781	0.7771	0.8482	0.214
Mof_H 	H 	0.0948	0.8412	0.8236	0.204
Mof_C 	C 	0.0952	0.8327	0.0196	0.172
Mof_C 	C 	0.1257	0.8514	0.9669	-0.092
Mof_C 	C 	0.1599	0.6448	0.7962	0.232
Mof_C 	C 	0.1994	0.6248	0.8489	-0.689
Mof_H 	H 	0.2369	0.6456	0.8458	0.177
Mof_H 	H 	0.2063	0.5824	0.8461	0.206
Mof_H 	H 	0.1807	0.634	0.8887	0.208
Mof_C 	C 	0.0249	0.6543	0.6947	-0.821
Mof_H 	H 	0.0268	0.6822	0.66	0.23
Mof_H 	H 	0.9923	0.6648	0.7222	0.262
Mof_H 	H 	0.0188	0.6146	0.6784	0.233
Mof_N 	N 	0.71622	0.27657	0.3435	-0.254
Mof_N 	N 	0.7547	0.2807	0.3934	-0.216
Mof_H 	H 	0.7888	0.2654	0.3883	0.075
Mof_N 	N 	0.56481	0.42658	0.4978	-0.251
Mof_N 	N 	0.5597	0.3787	0.5372	-0.234
Mof_H 	H 	0.6336	0.2143	0.1858	0.092
Mof_C 	C 	0.6644	0.2994	0.3654	0.229
Mof_C 	C 	0.6707	0.3188	0.4284	-0.154
Mof_C 	C 	0.7295	0.3055	0.4452	0.243
Mof_C 	C 	0.7629	0.3155	0.5053	-0.71
Mof_H 	H 	0.8027	0.2999	0.5011	0.208
Mof_H 	H 	0.7648	0.3578	0.5133	0.213
Mof_H 	H 	0.743	0.296	0.54	0.208
Mof_C 	C 	0.6082	0.3005	0.3273	-0.704
Mof_H 	H 	0.6155	0.2845	0.2857	0.193
Mof_H 	H 	0.5781	0.2771	0.3482	0.216
Mof_H 	H 	0.5948	0.3412	0.3236	0.205
Mof_C 	C 	0.5952	0.3327	0.5196	0.239
Mof_C 	C 	0.6257	0.3514	0.4669	-0.148
Mof_C 	C 	0.6599	0.1448	0.2962	0.223
Mof_C 	C 	0.6994	0.1248	0.3489	-0.669
Mof_H 	H 	0.7369	0.1456	0.3458	0.17
Mof_H 	H 	0.7063	0.0824	0.3461	0.196
Mof_H 	H 	0.6807	0.134	0.3887	0.198
Mof_C 	C 	0.5249	0.1543	0.1947	-0.684
Mof_H 	H 	0.5268	0.1822	0.16	0.192
Mof_H 	H 	0.4923	0.1648	0.2222	0.2
Mof_H 	H 	0.5188	0.1146	0.1784	0.196
Mof_N 	N 	0.02657	0.53378	0.9065	-0.252
Mof_N 	N 	0.0307	0.4953	0.8566	-0.213
Mof_H 	H 	0.0154	0.4612	0.8617	0.07
Mof_N 	N 	0.17658	0.68519	0.7522	-0.254
Mof_N 	N 	0.1287	0.6903	0.7128	-0.243
Mof_H 	H 	0.9643	0.6164	0.0642	0.097
Mof_C 	C 	0.0494	0.5856	0.8846	0.221
Mof_C 	C 	0.0688	0.5793	0.8216	-0.143
Mof_C 	C 	0.0555	0.5205	0.8048	0.226
Mof_C 	C 	0.0655	0.4871	0.7447	-0.677
Mof_H 	H 	0.0499	0.4473	0.7489	0.192
Mof_H 	H 	0.1078	0.4852	0.7367	0.201
Mof_H 	H 	0.046	0.507	0.71	0.192
Mof_C 	C 	0.0505	0.6418	0.9227	-0.698
Mof_H 	H 	0.0345	0.6345	0.9643	0.194
Mof_H 	H 	0.0271	0.6719	0.9018	0.209
Mof_H 	H 	0.0912	0.6552	0.9264	0.208
Mof_C 	C 	0.0827	0.6548	0.7304	0.276
Mof_C 	C 	0.1014	0.6243	0.7831	-0.173
Mof_C 	C 	0.8948	0.5901	0.9538	0.217
Mof_C 	C 	0.8748	0.5506	0.9011	-0.671
Mof_H 	H 	0.8956	0.5131	0.9042	0.18
Mof_H 	H 	0.8324	0.5437	0.9039	0.203
Mof_H 	H 	0.884	0.5693	0.8613	0.203
Mof_C 	C 	0.9043	0.7251	0.0553	-0.645
Mof_H 	H 	0.9322	0.7232	0.09	0.19
Mof_H 	H 	0.9148	0.7577	0.0278	0.187
Mof_H 	H 	0.8646	0.7312	0.0716	0.185
Mof_N 	N 	0.52657	0.03378	0.4065	-0.26
Mof_N 	N 	0.5307	0.9953	0.3566	-0.182
Mof_H 	H 	0.5154	0.9612	0.3617	0.07
Mof_N 	N 	0.67658	0.18519	0.2522	-0.253
Mof_N 	N 	0.6287	0.1903	0.2128	-0.234
Mof_H 	H 	0.4643	0.1164	0.5642	0.091
Mof_C 	C 	0.5494	0.0856	0.3846	0.213
Mof_C 	C 	0.5688	0.0793	0.3216	-0.118
Mof_C 	C 	0.5555	0.0205	0.3048	0.154
Mof_C 	C 	0.5655	0.9871	0.2447	-0.505
Mof_H 	H 	0.5499	0.9473	0.2489	0.15
Mof_H 	H 	0.6078	0.9852	0.2367	0.159
Mof_H 	H 	0.546	0.007	0.21	0.133
Mof_C 	C 	0.5505	0.1418	0.4227	-0.686
Mof_H 	H 	0.5345	0.1345	0.4643	0.187
Mof_H 	H 	0.5271	0.1719	0.4018	0.21
Mof_H 	H 	0.5912	0.1552	0.4264	0.199
Mof_C 	C 	0.5827	0.1548	0.2304	0.242
Mof_C 	C 	0.6014	0.1243	0.2831	-0.163
Mof_C 	C 	0.3948	0.0901	0.4538	0.212
Mof_C 	C 	0.3748	0.0506	0.4011	-0.649
Mof_H 	H 	0.3956	0.0131	0.4042	0.159
Mof_H 	H 	0.3324	0.0437	0.4039	0.188
Mof_H 	H 	0.384	0.0693	0.3613	0.191
Mof_C 	C 	0.4043	0.2251	0.5553	-0.682
Mof_H 	H 	0.4322	0.2232	0.59	0.195
Mof_H 	H 	0.4148	0.2577	0.5278	0.201
Mof_H 	H 	0.3646	0.2312	0.5716	0.197
Mof_N 	N 	0.47343	0.46622	0.4065	-0.254
Mof_N 	N 	0.4693	0.5047	0.3566	-0.215
Mof_H 	H 	0.4846	0.5388	0.3617	0.073
Mof_N 	N 	0.32342	0.31481	0.2522	-0.252
Mof_N 	N 	0.3713	0.3097	0.2128	-0.233
Mof_H 	H 	0.5357	0.3836	0.5642	0.094
Mof_C 	C 	0.4506	0.4144	0.3846	0.229
Mof_C 	C 	0.4312	0.4207	0.3216	-0.153
Mof_C 	C 	0.4445	0.4795	0.3048	0.237
Mof_C 	C 	0.4345	0.5129	0.2447	-0.693
Mof_H 	H 	0.4501	0.5527	0.2489	0.2
Mof_H 	H 	0.3922	0.5148	0.2367	0.205
Mof_H 	H 	0.454	0.493	0.21	0.201
Mof_C 	C 	0.4495	0.3582	0.4227	-0.704
Mof_H 	H 	0.4655	0.3655	0.4643	0.193
Mof_H 	H 	0.4729	0.3281	0.4018	0.216
Mof_H 	H 	0.4088	0.3448	0.4264	0.206
Mof_C 	C 	0.4173	0.3452	0.2304	0.234
Mof_C 	C 	0.3986	0.3757	0.2831	-0.147
Mof_C 	C 	0.6052	0.4099	0.4538	0.219
Mof_C 	C 	0.6252	0.4494	0.4011	-0.666
Mof_H 	H 	0.6044	0.4869	0.4042	0.169
Mof_H 	H 	0.6676	0.4563	0.4039	0.197
Mof_H 	H 	0.616	0.4307	0.3613	0.198
Mof_C 	C 	0.5957	0.2749	0.5553	-0.685
Mof_H 	H 	0.5678	0.2768	0.59	0.196
Mof_H 	H 	0.5852	0.2423	0.5278	0.201
Mof_H 	H 	0.6354	0.2688	0.5716	0.199
Mof_N 	N 	0.97343	0.96622	0.9065	-0.239
Mof_N 	N 	0.9693	0.0047	0.8566	-0.246
Mof_H 	H 	0.9846	0.0388	0.8617	0.086
Mof_N 	N 	0.82342	0.81481	0.7522	-0.25
Mof_N 	N 	0.8713	0.8097	0.7128	-0.224
Mof_H 	H 	0.0357	0.8836	0.0642	0.086
Mof_C 	C 	0.9506	0.9144	0.8846	0.269
Mof_C 	C 	0.9312	0.9207	0.8216	-0.2
Mof_C 	C 	0.9445	0.9795	0.8048	0.329
Mof_C 	C 	0.9345	0.0129	0.7447	-0.893
Mof_H 	H 	0.9501	0.0527	0.7489	0.26
Mof_H 	H 	0.8922	0.0148	0.7367	0.26
Mof_H 	H 	0.954	0.993	0.71	0.278
Mof_C 	C 	0.9495	0.8582	0.9227	-0.777
Mof_H 	H 	0.9655	0.8655	0.9643	0.233
Mof_H 	H 	0.9729	0.8281	0.9018	0.248
Mof_H 	H 	0.9088	0.8448	0.9264	0.234
Mof_C 	C 	0.9173	0.8452	0.7304	0.197
Mof_C 	C 	0.8986	0.8757	0.7831	-0.113
Mof_C 	C 	0.1052	0.9099	0.9538	0.203
Mof_C 	C 	0.1252	0.9494	0.9011	-0.651
Mof_H 	H 	0.1044	0.9869	0.9042	0.169
Mof_H 	H 	0.1676	0.9563	0.9039	0.199
Mof_H 	H 	0.116	0.9307	0.8613	0.192
Mof_C 	C 	0.0957	0.7749	0.0553	-0.6
Mof_H 	H 	0.0678	0.7768	0.09	0.166
Mof_H 	H 	0.0852	0.7423	0.0278	0.164
Mof_H 	H 	0.1354	0.7688	0.0716	0.169
Mof_N 	N 	0.71622	0.77657	0.6565	-0.254
Mof_N 	N 	0.7547	0.7807	0.6066	-0.217
Mof_H 	H 	0.7888	0.7654	0.6117	0.076
Mof_N 	N 	0.56481	0.92658	0.5022	-0.248
Mof_N 	N 	0.5597	0.8787	0.4628	-0.235
Mof_H 	H 	0.6336	0.7143	0.8142	0.096
Mof_C 	C 	0.6644	0.7994	0.6346	0.23
Mof_C 	C 	0.6707	0.8188	0.5716	-0.155
Mof_C 	C 	0.7295	0.8055	0.5548	0.247
Mof_C 	C 	0.7629	0.8155	0.4947	-0.719
Mof_H 	H 	0.8027	0.7999	0.4989	0.213
Mof_H 	H 	0.7648	0.8578	0.4867	0.219
Mof_H 	H 	0.743	0.796	0.46	0.213
Mof_C 	C 	0.6082	0.8005	0.6727	-0.706
Mof_H 	H 	0.6155	0.7845	0.7143	0.194
Mof_H 	H 	0.5781	0.7771	0.6518	0.216
Mof_H 	H 	0.5948	0.8412	0.6764	0.207
Mof_C 	C 	0.5952	0.8327	0.4804	0.242
Mof_C 	C 	0.6257	0.8514	0.5331	-0.151
Mof_C 	C 	0.6599	0.6448	0.7038	0.221
Mof_C 	C 	0.6994	0.6248	0.6511	-0.671
Mof_H 	H 	0.7369	0.6456	0.6542	0.171
Mof_H 	H 	0.7063	0.5824	0.6539	0.2
Mof_H 	H 	0.6807	0.634	0.6113	0.2
Mof_C 	C 	0.5249	0.6543	0.8053	-0.698
Mof_H 	H 	0.5268	0.6822	0.84	0.203
Mof_H 	H 	0.4923	0.6648	0.7778	0.206
Mof_H 	H 	0.5188	0.6146	0.8216	0.205
Mof_N 	N 	0.21622	0.27657	0.1565	-0.252
Mof_N 	N 	0.2547	0.2807	0.1066	-0.205
Mof_H 	H 	0.2888	0.2654	0.1117	0.065
Mof_N 	N 	0.06481	0.42658	0.0022	-0.27
Mof_N 	N 	0.0597	0.3787	0.9628	-0.232
Mof_H 	H 	0.1336	0.2143	0.3142	0.096
Mof_C 	C 	0.1644	0.2994	0.1346	0.208
Mof_C 	C 	0.1707	0.3188	0.0716	-0.122
Mof_C 	C 	0.2295	0.3055	0.0548	0.183
Mof_C 	C 	0.2629	0.3155	0.9947	-0.609
Mof_H 	H 	0.3027	0.2999	0.9989	0.186
Mof_H 	H 	0.2648	0.3578	0.9867	0.191
Mof_H 	H 	0.243	0.296	0.96	0.183
Mof_C 	C 	0.1082	0.3005	0.1727	-0.669
Mof_H 	H 	0.1155	0.2845	0.2143	0.181
Mof_H 	H 	0.0781	0.2771	0.1518	0.199
Mof_H 	H 	0.0948	0.3412	0.1764	0.191
Mof_C 	C 	0.0952	0.3327	0.9804	0.29
Mof_C 	C 	0.1257	0.3514	0.0331	-0.203
Mof_C 	C 	0.1599	0.1448	0.2038	0.23
Mof_C 	C 	0.1994	0.1248	0.1511	-0.667
Mof_H 	H 	0.2369	0.1456	0.1542	0.165
Mof_H 	H 	0.2063	0.0824	0.1539	0.192
Mof_H 	H 	0.1807	0.134	0.1113	0.194
Mof_C 	C 	0.0249	0.1543	0.3053	-0.846
Mof_H 	H 	0.0268	0.1822	0.34	0.235
Mof_H 	H 	0.9923	0.1648	0.2778	0.271
Mof_H 	H 	0.0188	0.1146	0.3216	0.239
Mof_N 	N 	0.78378	0.22343	0.1565	-0.253
Mof_N 	N 	0.7453	0.2193	0.1066	-0.205
Mof_H 	H 	0.7112	0.2346	0.1117	0.066
Mof_N 	N 	0.93519	0.07342	0.0022	-0.261
Mof_N 	N 	0.9403	0.1213	0.9628	-0.236
Mof_H 	H 	0.8664	0.2857	0.3142	0.092
Mof_C 	C 	0.8356	0.2006	0.1346	0.219
Mof_C 	C 	0.8293	0.1812	0.0716	-0.123
Mof_C 	C 	0.7705	0.1945	0.0548	0.185
Mof_C 	C 	0.7371	0.1845	0.9947	-0.611
Mof_H 	H 	0.6973	0.2001	0.9989	0.187
Mof_H 	H 	0.7352	0.1422	0.9867	0.19
Mof_H 	H 	0.757	0.204	0.96	0.183
Mof_C 	C 	0.8918	0.1995	0.1727	-0.703
Mof_H 	H 	0.8845	0.2155	0.2143	0.194
Mof_H 	H 	0.9219	0.2229	0.1518	0.22
Mof_H 	H 	0.9052	0.1588	0.1764	0.208
Mof_C 	C 	0.9048	0.1673	0.9804	0.307
Mof_C 	C 	0.8743	0.1486	0.0331	-0.206
Mof_C 	C 	0.8401	0.3552	0.2038	0.206
Mof_C 	C 	0.8006	0.3752	0.1511	-0.643
Mof_H 	H 	0.7631	0.3544	0.1542	0.16
Mof_H 	H 	0.7937	0.4176	0.1539	0.188
Mof_H 	H 	0.8193	0.366	0.1113	0.188
Mof_C 	C 	0.9751	0.3457	0.3053	-0.538
Mof_H 	H 	0.9732	0.3178	0.34	0.16
Mof_H 	H 	0.0077	0.3352	0.2778	0.137
Mof_H 	H 	0.9812	0.3854	0.3216	0.163
Mof_N 	N 	0.28378	0.72343	0.6565	-0.254
Mof_N 	N 	0.2453	0.7193	0.6066	-0.215
Mof_H 	H 	0.2112	0.7346	0.6117	0.072
Mof_N 	N 	0.43519	0.57342	0.5022	-0.252
Mof_N 	N 	0.4403	0.6213	0.4628	-0.234
Mof_H 	H 	0.3664	0.7857	0.8142	0.096
Mof_C 	C 	0.3356	0.7006	0.6346	0.228
Mof_C 	C 	0.3293	0.6812	0.5716	-0.152
Mof_C 	C 	0.2705	0.6945	0.5548	0.237
Mof_C 	C 	0.2371	0.6845	0.4947	-0.695
Mof_H 	H 	0.1973	0.7001	0.4989	0.2
Mof_H 	H 	0.2352	0.6422	0.4867	0.206
Mof_H 	H 	0.257	0.704	0.46	0.203
Mof_C 	C 	0.3918	0.6995	0.6727	-0.704
Mof_H 	H 	0.3845	0.7155	0.7143	0.194
Mof_H 	H 	0.4219	0.7229	0.6518	0.216
Mof_H 	H 	0.4052	0.6588	0.6764	0.206
Mof_C 	C 	0.4048	0.6673	0.4804	0.239
Mof_C 	C 	0.3743	0.6486	0.5331	-0.15
Mof_C 	C 	0.3401	0.8552	0.7038	0.215
Mof_C 	C 	0.3006	0.8752	0.6511	-0.664
Mof_H 	H 	0.2631	0.8544	0.6542	0.169
Mof_H 	H 	0.2937	0.9176	0.6539	0.199
Mof_H 	H 	0.3193	0.866	0.6113	0.199
Mof_C 	C 	0.4751	0.8457	0.8053	-0.689
Mof_H 	H 	0.4732	0.8178	0.84	0.201
Mof_H 	H 	0.5077	0.8352	0.7778	0.204
Mof_H 	H 	0.4812	0.8854	0.8216	0.203
Mof_Co	Co	-0	0.5	-0	1.028
Mof_Co	Co	0.5	-4.81708e-33	0.5	1.044
Mof_Co	Co	0.5	0.5	0.5	1.052
Mof_Co	Co	-0	0	-0	1.02
Mof_Co	Co	0.25	0.25	0.25	1.051
Mof_Co	Co	0.75	0.75	0.75	1.052
Mof_Co	Co	0.25	0.75	0.75	1.052
Mof_Co	Co	0.75	0.25	0.25	1.052
_end
