data_functionalizedCrystal
_audit_creation_method	'EQeq! by Chris Wilmer'
_symmetry_space_group_name_H-M	'P1'
_symmetry_Int_Tables_number	1
_symmetry_cell_setting	triclinic
loop_
_symmetry_equiv_pos_as_xyz
  x,y,z
_cell_length_a	7.3292
_cell_length_b	7.3292
_cell_length_c	8.3159
_cell_angle_alpha	90
_cell_angle_beta	90
_cell_angle_gamma	120
loop_
_atom_site_label
_atom_site_type_symbol
_atom_site_fract_x
_atom_site_fract_y
_atom_site_fract_z
_atom_site_charge
Mof_O 	O 	0.3059	0.8921	0.8956	-0.193
Mof_O 	O 	0.1079	0.4138	0.8956	-0.226
Mof_O 	O 	0.5862	0.6941	0.8956	-0.218
Mof_O 	O 	0.6941	0.1079	0.3956	-0.316
Mof_O 	O 	0.8921	0.5862	0.3956	-0.256
Mof_O 	O 	0.4138	0.3059	0.3956	-0.354
Mof_O 	O 	0.8921	0.3059	0.1044	-0.242
Mof_O 	O 	0.4138	0.1079	0.1044	-0.311
Mof_O 	O 	0.6941	0.5862	0.1044	-0.293
Mof_O 	O 	0.1079	0.6941	0.6044	-0.31
Mof_O 	O 	0.5862	0.8921	0.6044	-0.271
Mof_O 	O 	0.3059	0.4138	0.6044	-0.349
Mof_Fe	Fe	0.33333	0.66667	0.75	0.915
Mof_Fe	Fe	0.66667	0.33333	0.25	0.899
Mof_C 	C 	0.4352	0	-0	0.236
Mof_H 	H 	0.5621	0	-0	-0.052
Mof_C 	C 	-0	0.4352	-0	0.195
Mof_H 	H 	3.67339e-17	0.5621	-0	-0.047
Mof_C 	C 	0.5648	0.5648	-0	0.31
Mof_H 	H 	0.4379	0.4379	-0	-0.072
Mof_C 	C 	0.5648	0	0.5	0.381
Mof_H 	H 	0.4379	0	0.5	-0.08
Mof_C 	C 	3.99202e-18	0.5648	0.5	0.347
Mof_H 	H 	4.07259e-17	0.4379	0.5	-0.074
Mof_C 	C 	0.4352	0.4352	0.5	0.465
Mof_H 	H 	0.5621	0.5621	0.5	-0.084
_end
