# CIF file generated by openbabel 3.1.0, see https://openbabel.org
data_I
_chemical_name_common 'image0'
_cell_length_a 18.1667
_cell_length_b 12.5175
_cell_length_c 11.021
_cell_angle_alpha 90
_cell_angle_beta 102.672
_cell_angle_gamma 90
_space_group_name_H-M_alt 'P 1'
_space_group_name_Hall 'P 1'
loop_
    _symmetry_equiv_pos_as_xyz
    x,y,z
loop_
    _atom_site_label
    _atom_site_type_symbol
    _atom_site_fract_x
    _atom_site_fract_y
    _atom_site_fract_z
    _atom_site_occupancy
    Mg1      Mg       0.08427    0.03632    0.04019    1.000
    N1       N        0.18411    0.93187    0.11037    1.000
    O1       O        0.07527    0.98368    0.21889    1.000
    O2       O        0.13210    0.90995    0.39936    1.000
    O3       O        0.35482    0.66603    0.37018    1.000
    O4       O        0.41692    0.71139    0.22404    1.000
    O5       O        0.97919    0.08840    0.05421    1.000
    H1       H        0.96210    0.14900    0.02800    1.000
    C1       C        0.18875    0.89201    0.22610    1.000
    C2       C        0.24513    0.82450    0.28380    1.000
    H2       H        0.24610    0.80200    0.35500    1.000
    C3       C        0.30073    0.79547    0.22180    1.000
    C4       C        0.29761    0.83820    0.10460    1.000
    H3       H        0.33350    0.82100    0.06100    1.000
    C5       C        0.23857    0.90480    0.05240    1.000
    H4       H        0.23220    0.93200    0.97100    1.000
    C6       C        0.12693    0.93049    0.28760    1.000
    C7       C        0.36331    0.71765    0.27750    1.000
    Mg2      Mg       0.58427    0.53632    0.04019    1.000
    N2       N        0.68411    0.43187    0.11037    1.000
    O6       O        0.57527    0.48368    0.21889    1.000
    O7       O        0.63210    0.40995    0.39936    1.000
    O8       O        0.85482    0.16603    0.37018    1.000
    O9       O        0.91692    0.21139    0.22404    1.000
    O10      O        0.47919    0.58840    0.05421    1.000
    H5       H        0.46210    0.64900    0.02800    1.000
    C8       C        0.68875    0.39201    0.22610    1.000
    C9       C        0.74513    0.32450    0.28380    1.000
    H6       H        0.74610    0.30200    0.35500    1.000
    C10      C        0.80073    0.29547    0.22180    1.000
    C11      C        0.79761    0.33820    0.10460    1.000
    H7       H        0.83350    0.32100    0.06100    1.000
    C12      C        0.73857    0.40480    0.05240    1.000
    H8       H        0.73220    0.43200    0.97100    1.000
    C13      C        0.62693    0.43049    0.28760    1.000
    C14      C        0.86331    0.21765    0.27750    1.000
    Mg3      Mg       0.91573    0.03632    0.45981    1.000
    N3       N        0.81589    0.93187    0.38963    1.000
    O11      O        0.92473    0.98368    0.28111    1.000
    O12      O        0.86790    0.90995    0.10064    1.000
    O13      O        0.64518    0.66603    0.12982    1.000
    O14      O        0.58308    0.71139    0.27596    1.000
    O15      O        0.02081    0.08840    0.44579    1.000
    H9       H        0.03790    0.14900    0.47200    1.000
    C15      C        0.81125    0.89201    0.27390    1.000
    C16      C        0.75487    0.82450    0.21620    1.000
    H10      H        0.75390    0.80200    0.14500    1.000
    C17      C        0.69927    0.79547    0.27820    1.000
    C18      C        0.70239    0.83820    0.39540    1.000
    H11      H        0.66650    0.82100    0.43900    1.000
    C19      C        0.76143    0.90480    0.44760    1.000
    H12      H        0.76780    0.93200    0.52900    1.000
    C20      C        0.87307    0.93049    0.21240    1.000
    C21      C        0.63669    0.71765    0.22250    1.000
    Mg4      Mg       0.41573    0.53632    0.45981    1.000
    N4       N        0.31589    0.43187    0.38963    1.000
    O16      O        0.42473    0.48368    0.28111    1.000
    O17      O        0.36790    0.40995    0.10064    1.000
    O18      O        0.14518    0.16603    0.12982    1.000
    O19      O        0.08308    0.21139    0.27596    1.000
    O20      O        0.52081    0.58840    0.44579    1.000
    H13      H        0.53790    0.64900    0.47200    1.000
    C22      C        0.31125    0.39201    0.27390    1.000
    C23      C        0.25487    0.32450    0.21620    1.000
    H14      H        0.25390    0.30200    0.14500    1.000
    C24      C        0.19927    0.29547    0.27820    1.000
    C25      C        0.20239    0.33820    0.39540    1.000
    H15      H        0.16650    0.32100    0.43900    1.000
    C26      C        0.26143    0.40480    0.44760    1.000
    H16      H        0.26780    0.43200    0.52900    1.000
    C27      C        0.37307    0.43049    0.21240    1.000
    C28      C        0.13669    0.21765    0.22250    1.000
    Mg5      Mg       0.91573    0.96368    0.95981    1.000
    N5       N        0.81589    0.06813    0.88963    1.000
    O21      O        0.92473    0.01632    0.78111    1.000
    O22      O        0.86790    0.09005    0.60064    1.000
    O23      O        0.64518    0.33397    0.62982    1.000
    O24      O        0.58308    0.28861    0.77596    1.000
    O25      O        0.02081    0.91160    0.94579    1.000
    H17      H        0.03790    0.85100    0.97200    1.000
    C29      C        0.81125    0.10799    0.77390    1.000
    C30      C        0.75487    0.17550    0.71620    1.000
    H18      H        0.75390    0.19800    0.64500    1.000
    C31      C        0.69927    0.20453    0.77820    1.000
    C32      C        0.70239    0.16180    0.89540    1.000
    H19      H        0.66650    0.17900    0.93900    1.000
    C33      C        0.76143    0.09520    0.94760    1.000
    H20      H        0.76780    0.06800    0.02900    1.000
    C34      C        0.87307    0.06951    0.71240    1.000
    C35      C        0.63669    0.28235    0.72250    1.000
    Mg6      Mg       0.41573    0.46368    0.95981    1.000
    N6       N        0.31589    0.56813    0.88963    1.000
    O26      O        0.42473    0.51632    0.78111    1.000
    O27      O        0.36790    0.59005    0.60064    1.000
    O28      O        0.14518    0.83397    0.62982    1.000
    O29      O        0.08308    0.78861    0.77596    1.000
    O30      O        0.52081    0.41160    0.94579    1.000
    H21      H        0.53790    0.35100    0.97200    1.000
    C36      C        0.31125    0.60799    0.77390    1.000
    C37      C        0.25487    0.67550    0.71620    1.000
    H22      H        0.25390    0.69800    0.64500    1.000
    C38      C        0.19927    0.70453    0.77820    1.000
    C39      C        0.20239    0.66180    0.89540    1.000
    H23      H        0.16650    0.67900    0.93900    1.000
    C40      C        0.26143    0.59520    0.94760    1.000
    H24      H        0.26780    0.56800    0.02900    1.000
    C41      C        0.37307    0.56951    0.71240    1.000
    C42      C        0.13669    0.78235    0.72250    1.000
    Mg7      Mg       0.08427    0.96368    0.54019    1.000
    N7       N        0.18411    0.06813    0.61037    1.000
    O31      O        0.07527    0.01632    0.71889    1.000
    O32      O        0.13210    0.09005    0.89936    1.000
    O33      O        0.35482    0.33397    0.87018    1.000
    O34      O        0.41692    0.28861    0.72404    1.000
    O35      O        0.97919    0.91160    0.55421    1.000
    H25      H        0.96210    0.85100    0.52800    1.000
    C43      C        0.18875    0.10799    0.72610    1.000
    C44      C        0.24513    0.17550    0.78380    1.000
    H26      H        0.24610    0.19800    0.85500    1.000
    C45      C        0.30073    0.20453    0.72180    1.000
    C46      C        0.29761    0.16180    0.60460    1.000
    H27      H        0.33350    0.17900    0.56100    1.000
    C47      C        0.23857    0.09520    0.55240    1.000
    H28      H        0.23220    0.06800    0.47100    1.000
    C48      C        0.12693    0.06951    0.78760    1.000
    C49      C        0.36331    0.28235    0.77750    1.000
    Mg8      Mg       0.58427    0.46368    0.54019    1.000
    N8       N        0.68411    0.56813    0.61037    1.000
    O36      O        0.57527    0.51632    0.71889    1.000
    O37      O        0.63210    0.59005    0.89936    1.000
    O38      O        0.85482    0.83397    0.87018    1.000
    O39      O        0.91692    0.78861    0.72404    1.000
    O40      O        0.47919    0.41160    0.55421    1.000
    H29      H        0.46210    0.35100    0.52800    1.000
    C50      C        0.68875    0.60799    0.72610    1.000
    C51      C        0.74513    0.67550    0.78380    1.000
    H30      H        0.74610    0.69800    0.85500    1.000
    C52      C        0.80073    0.70453    0.72180    1.000
    C53      C        0.79761    0.66180    0.60460    1.000
    H31      H        0.83350    0.67900    0.56100    1.000
    C54      C        0.73857    0.59520    0.55240    1.000
    H32      H        0.73220    0.56800    0.47100    1.000
    C55      C        0.62693    0.56951    0.78760    1.000
    C56      C        0.86331    0.78235    0.77750    1.000
    Mg9      Mg       0.00000    0.09915    0.25000    1.000
    Mg10     Mg       0.50000    0.59915    0.25000    1.000
    Mg11     Mg       0.00000    0.90085    0.75000    1.000
    Mg12     Mg       0.50000    0.40085    0.75000    1.000
