data_functionalizedCrystal
_audit_creation_method	'EQeq! by Chris Wilmer'
_symmetry_space_group_name_H-M	'P1'
_symmetry_Int_Tables_number	1
_symmetry_cell_setting	triclinic
loop_
_symmetry_equiv_pos_as_xyz
  x,y,z
_cell_length_a	19.4561
_cell_length_b	12.511
_cell_length_c	21.4202
_cell_angle_alpha	90
_cell_angle_beta	90
_cell_angle_gamma	90
loop_
_atom_site_label
_atom_site_type_symbol
_atom_site_fract_x
_atom_site_fract_y
_atom_site_fract_z
_atom_site_charge
Mof_Cu	Cu	0.23873	0.33517	0.26001	0.844
Mof_Cu	Cu	0.43934	0.17062	0.38824	0.778
Mof_C 	C 	0.41939	0.24901	0.16899	-0.232
Mof_C 	C 	0.47938	0.25018	0.20519	-0.267
Mof_C 	C 	0.54367	0.25424	0.17639	-0.126
Mof_C 	C 	0.5484	0.25814	0.11115	-0.111
Mof_C 	C 	0.48868	0.25701	0.07488	-0.117
Mof_C 	C 	0.42403	0.2514	0.10377	-0.066
Mof_C 	C 	0.349	0.2451	0.19954	0.344
Mof_C 	C 	0.47582	0.24484	0.27561	0.426
Mof_C 	C 	0.60978	0.25512	0.21391	0.315
Mof_C 	C 	0.61925	0.26035	0.0816	0.397
Mof_C 	C 	0.49395	0.26088	0.00457	0.372
Mof_C 	C 	0.35985	0.23994	0.0644	0.248
Mof_O 	O 	0.31256	0.1649	0.19218	-0.707
Mof_O 	O 	0.33302	0.32963	0.23021	-0.518
Mof_O 	O 	0.43257	0.17749	0.29747	-0.768
Mof_O 	O 	0.51442	0.30073	0.30761	-0.75
Mof_O 	O 	0.62741	0.17709	0.24546	-0.468
Mof_O 	O 	0.64444	0.34134	0.20812	-0.705
Mof_O 	O 	0.65717	0.18022	0.09399	-0.464
Mof_O 	O 	0.63667	0.33959	0.04997	-0.667
Mof_O 	O 	0.53417	0.20122	0.97696	-0.499
Mof_O 	O 	0.45442	0.33025	0.97829	-0.529
Mof_O 	O 	0.36078	0.16475	0.02441	-0.676
Mof_O 	O 	0.31039	0.30153	0.07456	-0.605
Mof_O 	O 	0.20642	0.38505	0.17669	-1.691
Mof_H 	H 	0.1965	0.341	0.1521	0.61
Mof_H 	H 	0.2365	0.416	0.1628	0.665
Mof_O 	O 	0.13338	0.23938	0.11239	-1.648
Mof_H 	H 	0.115	0.223	0.1432	0.624
Mof_H 	H 	0.1044	0.254	0.0892	0.61
Mof_O 	O 	0.24926	0.92073	0.98381	-1.375
Mof_H 	H 	0.2373	0.8777	0.0082	0.433
Mof_H 	H 	0.278	0.89	0.9646	0.504
Mof_O 	O 	0.2	0.0341	0.15654	-1.573
Mof_H 	H 	0.17	0.016	0.18	0.588
Mof_H 	H 	0.212	0.09	0.172	0.445
Mof_O 	O 	0.09302	0.01354	0.03367	-1.178
Mof_H 	H 	0.093	0.0556	0.006	0.4
Mof_H 	H 	0.0815	0.96	0.017	0.495
Mof_K 	K 	0.2248	0.11322	0.0431	1.834
Mof_K 	K 	0.58295	0.49514	0.28884	3.116
Mof_O 	O 	0.1863	0.9837	0.1328	0.049
Mof_K 	K 	0.2296	0.1004	0.0599	1.666
Mof_Cu	Cu	0.26127	0.66483	0.76001	0.843
Mof_Cu	Cu	0.06066	0.82938	0.88824	0.78
Mof_C 	C 	0.08061	0.75099	0.66899	-0.233
Mof_C 	C 	0.02062	0.74982	0.70519	-0.266
Mof_C 	C 	0.95633	0.74576	0.67639	-0.13
Mof_C 	C 	0.9516	0.74186	0.61115	-0.115
Mof_C 	C 	0.01132	0.74299	0.57488	-0.114
Mof_C 	C 	0.07597	0.7486	0.60377	-0.068
Mof_C 	C 	0.151	0.7549	0.69954	0.343
Mof_C 	C 	0.02418	0.75516	0.77561	0.431
Mof_C 	C 	0.89022	0.74488	0.71391	0.314
Mof_C 	C 	0.88075	0.73965	0.5816	0.397
Mof_C 	C 	0.00605	0.73912	0.50457	0.361
Mof_C 	C 	0.14015	0.76006	0.5644	0.248
Mof_O 	O 	0.18744	0.8351	0.69218	-0.708
Mof_O 	O 	0.16698	0.67037	0.73021	-0.518
Mof_O 	O 	0.06743	0.82251	0.79747	-0.768
Mof_O 	O 	0.98558	0.69927	0.80761	-0.756
Mof_O 	O 	0.87259	0.82291	0.74546	-0.469
Mof_O 	O 	0.85556	0.65866	0.70812	-0.704
Mof_O 	O 	0.84283	0.81978	0.59399	-0.468
Mof_O 	O 	0.86333	0.66041	0.54997	-0.671
Mof_O 	O 	0.96583	0.79878	0.47696	-0.492
Mof_O 	O 	0.04558	0.66975	0.47829	-0.525
Mof_O 	O 	0.13922	0.83525	0.52441	-0.678
Mof_O 	O 	0.18961	0.69847	0.57456	-0.606
Mof_O 	O 	0.29358	0.61495	0.67669	-1.692
Mof_H 	H 	0.3035	0.659	0.6521	0.61
Mof_H 	H 	0.2635	0.584	0.6628	0.665
Mof_O 	O 	0.36662	0.76062	0.61239	-1.65
Mof_H 	H 	0.385	0.777	0.6432	0.625
Mof_H 	H 	0.3956	0.746	0.5892	0.612
Mof_O 	O 	0.25074	0.07927	0.48381	-1.406
Mof_H 	H 	0.2627	0.1223	0.5082	0.453
Mof_H 	H 	0.222	0.11	0.4646	0.512
Mof_O 	O 	0.3	0.9659	0.65654	-1.599
Mof_H 	H 	0.33	0.984	0.68	0.594
Mof_H 	H 	0.288	0.91	0.672	0.455
Mof_O 	O 	0.40698	0.98646	0.53367	-1.198
Mof_H 	H 	0.407	0.9444	0.506	0.408
Mof_H 	H 	0.4185	0.04	0.517	0.512
Mof_K 	K 	0.2752	0.88678	0.5431	1.834
Mof_K 	K 	0.91705	0.50486	0.78884	3.109
Mof_O 	O 	0.3137	0.0163	0.6328	0.065
Mof_K 	K 	0.2704	0.8996	0.5599	1.67
Mof_Cu	Cu	0.76127	0.83517	0.23999	0.842
Mof_Cu	Cu	0.56066	0.67062	0.11176	0.777
Mof_C 	C 	0.58061	0.74901	0.33101	-0.234
Mof_C 	C 	0.52062	0.75018	0.29481	-0.269
Mof_C 	C 	0.45633	0.75424	0.32361	-0.127
Mof_C 	C 	0.4516	0.75814	0.38885	-0.114
Mof_C 	C 	0.51132	0.75701	0.42512	-0.116
Mof_C 	C 	0.57597	0.7514	0.39623	-0.068
Mof_C 	C 	0.651	0.7451	0.30046	0.344
Mof_C 	C 	0.52418	0.74484	0.22439	0.425
Mof_C 	C 	0.39022	0.75512	0.28609	0.314
Mof_C 	C 	0.38075	0.76035	0.4184	0.397
Mof_C 	C 	0.50605	0.76088	0.49543	0.362
Mof_C 	C 	0.64015	0.73994	0.4356	0.248
Mof_O 	O 	0.68744	0.6649	0.30782	-0.71
Mof_O 	O 	0.66698	0.82963	0.26979	-0.519
Mof_O 	O 	0.56743	0.67749	0.20253	-0.77
Mof_O 	O 	0.48558	0.80073	0.19239	-0.75
Mof_O 	O 	0.37259	0.67709	0.25454	-0.47
Mof_O 	O 	0.35556	0.84134	0.29188	-0.704
Mof_O 	O 	0.34283	0.68022	0.40601	-0.468
Mof_O 	O 	0.36333	0.83959	0.45003	-0.671
Mof_O 	O 	0.46583	0.70122	0.52304	-0.492
Mof_O 	O 	0.54558	0.83025	0.52171	-0.524
Mof_O 	O 	0.63922	0.66475	0.47559	-0.678
Mof_O 	O 	0.68961	0.80153	0.42544	-0.605
Mof_O 	O 	0.79358	0.88505	0.32331	-1.692
Mof_H 	H 	0.8035	0.841	0.3479	0.61
Mof_H 	H 	0.7635	0.916	0.3372	0.665
Mof_O 	O 	0.86662	0.73938	0.38761	-1.649
Mof_H 	H 	0.885	0.723	0.3568	0.624
Mof_H 	H 	0.8956	0.754	0.4108	0.611
Mof_O 	O 	0.75074	0.42073	0.51619	-1.406
Mof_H 	H 	0.7627	0.3777	0.4918	0.453
Mof_H 	H 	0.722	0.39	0.5354	0.512
Mof_O 	O 	0.8	0.5341	0.34346	-1.616
Mof_H 	H 	0.83	0.516	0.32	0.596
Mof_H 	H 	0.788	0.59	0.328	0.461
Mof_O 	O 	0.90698	0.51354	0.46633	-1.201
Mof_H 	H 	0.907	0.5556	0.494	0.409
Mof_H 	H 	0.9185	0.46	0.483	0.513
Mof_K 	K 	0.7752	0.61322	0.4569	1.829
Mof_K 	K 	0.41705	0.99514	0.21116	3.105
Mof_O 	O 	0.8137	0.4837	0.3672	0.076
Mof_K 	K 	0.7704	0.6004	0.4401	1.668
Mof_Cu	Cu	0.73873	0.16483	0.73999	0.843
Mof_Cu	Cu	0.93934	0.32938	0.61176	0.776
Mof_C 	C 	0.91939	0.25099	0.83101	-0.232
Mof_C 	C 	0.97938	0.24982	0.79481	-0.274
Mof_C 	C 	0.04367	0.24576	0.82361	-0.123
Mof_C 	C 	0.0484	0.24186	0.88885	-0.11
Mof_C 	C 	0.98868	0.24299	0.92512	-0.118
Mof_C 	C 	0.92403	0.2486	0.89623	-0.07
Mof_C 	C 	0.849	0.2549	0.80046	0.343
Mof_C 	C 	0.97582	0.25516	0.72439	0.422
Mof_C 	C 	0.10978	0.24488	0.78609	0.313
Mof_C 	C 	0.11925	0.23965	0.9184	0.397
Mof_C 	C 	0.99395	0.23912	0.99543	0.34
Mof_C 	C 	0.85985	0.26006	0.9356	0.248
Mof_O 	O 	0.81256	0.3351	0.80782	-0.709
Mof_O 	O 	0.83302	0.17037	0.76979	-0.519
Mof_O 	O 	0.93257	0.32251	0.70253	-0.769
Mof_O 	O 	0.01442	0.19927	0.69239	-0.748
Mof_O 	O 	0.12741	0.32291	0.75454	-0.469
Mof_O 	O 	0.14444	0.15866	0.79188	-0.705
Mof_O 	O 	0.15717	0.31978	0.90601	-0.467
Mof_O 	O 	0.13667	0.16041	0.95003	-0.67
Mof_O 	O 	0.03417	0.29878	0.02304	-0.487
Mof_O 	O 	0.95442	0.16975	0.02171	-0.505
Mof_O 	O 	0.86078	0.33525	0.97559	-0.68
Mof_O 	O 	0.81039	0.19847	0.92544	-0.604
Mof_O 	O 	0.70642	0.11495	0.82331	-1.691
Mof_H 	H 	0.6965	0.159	0.8479	0.61
Mof_H 	H 	0.7365	0.084	0.8372	0.664
Mof_O 	O 	0.63338	0.26062	0.88761	-1.648
Mof_H 	H 	0.615	0.277	0.8568	0.624
Mof_H 	H 	0.6044	0.246	0.9108	0.61
Mof_O 	O 	0.74926	0.57927	0.01619	-1.397
Mof_H 	H 	0.7373	0.6223	0.9918	0.448
Mof_H 	H 	0.778	0.61	0.0354	0.51
Mof_O 	O 	0.7	0.4659	0.84346	-1.614
Mof_H 	H 	0.67	0.484	0.82	0.595
Mof_H 	H 	0.712	0.41	0.828	0.461
Mof_O 	O 	0.59302	0.48646	0.96633	-1.2
Mof_H 	H 	0.593	0.4444	0.994	0.407
Mof_H 	H 	0.5815	0.54	0.983	0.513
Mof_K 	K 	0.7248	0.38678	0.9569	1.826
Mof_K 	K 	0.08295	0.00486	0.71116	3.112
Mof_O 	O 	0.6863	0.5163	0.8672	0.076
Mof_K 	K 	0.7296	0.3996	0.9401	1.659
Mof_Cu	Cu	0.76127	0.66483	0.73999	0.843
Mof_Cu	Cu	0.56066	0.82938	0.61176	0.777
Mof_C 	C 	0.58061	0.75099	0.83101	-0.233
Mof_C 	C 	0.52062	0.74982	0.79481	-0.268
Mof_C 	C 	0.45633	0.74576	0.82361	-0.127
Mof_C 	C 	0.4516	0.74186	0.88885	-0.112
Mof_C 	C 	0.51132	0.74299	0.92512	-0.118
Mof_C 	C 	0.57597	0.7486	0.89623	-0.067
Mof_C 	C 	0.651	0.7549	0.80046	0.343
Mof_C 	C 	0.52418	0.75516	0.72439	0.425
Mof_C 	C 	0.39022	0.74488	0.78609	0.314
Mof_C 	C 	0.38075	0.73965	0.9184	0.396
Mof_C 	C 	0.50605	0.73912	0.99543	0.372
Mof_C 	C 	0.64015	0.76006	0.9356	0.248
Mof_O 	O 	0.68744	0.8351	0.80782	-0.707
Mof_O 	O 	0.66698	0.67037	0.76979	-0.518
Mof_O 	O 	0.56743	0.82251	0.70253	-0.768
Mof_O 	O 	0.48558	0.69927	0.69239	-0.75
Mof_O 	O 	0.37259	0.82291	0.75454	-0.468
Mof_O 	O 	0.35556	0.65866	0.79188	-0.705
Mof_O 	O 	0.34283	0.81978	0.90601	-0.464
Mof_O 	O 	0.36333	0.66041	0.95003	-0.667
Mof_O 	O 	0.46583	0.79878	0.02304	-0.499
Mof_O 	O 	0.54558	0.66975	0.02171	-0.529
Mof_O 	O 	0.63922	0.83525	0.97559	-0.676
Mof_O 	O 	0.68961	0.69847	0.92544	-0.605
Mof_O 	O 	0.79358	0.61495	0.82331	-1.691
Mof_H 	H 	0.8035	0.659	0.8479	0.61
Mof_H 	H 	0.7635	0.584	0.8372	0.665
Mof_O 	O 	0.86662	0.76062	0.88761	-1.648
Mof_H 	H 	0.885	0.777	0.8568	0.624
Mof_H 	H 	0.8956	0.746	0.9108	0.61
Mof_O 	O 	0.75074	0.07927	0.01619	-1.375
Mof_H 	H 	0.7627	0.1223	0.9918	0.433
Mof_H 	H 	0.722	0.11	0.0354	0.504
Mof_O 	O 	0.8	0.9659	0.84346	-1.573
Mof_H 	H 	0.83	0.984	0.82	0.588
Mof_H 	H 	0.788	0.91	0.828	0.445
Mof_O 	O 	0.90698	0.98646	0.96633	-1.178
Mof_H 	H 	0.907	0.9444	0.994	0.4
Mof_H 	H 	0.9185	0.04	0.983	0.495
Mof_K 	K 	0.7752	0.88678	0.9569	1.834
Mof_K 	K 	0.41705	0.50486	0.71116	3.116
Mof_O 	O 	0.8137	0.0163	0.8672	0.049
Mof_K 	K 	0.7704	0.8996	0.9401	1.666
Mof_Cu	Cu	0.73873	0.33517	0.23999	0.843
Mof_Cu	Cu	0.93934	0.17062	0.11176	0.78
Mof_C 	C 	0.91939	0.24901	0.33101	-0.233
Mof_C 	C 	0.97938	0.25018	0.29481	-0.266
Mof_C 	C 	0.04367	0.25424	0.32361	-0.13
Mof_C 	C 	0.0484	0.25814	0.38885	-0.115
Mof_C 	C 	0.98868	0.25701	0.42512	-0.114
Mof_C 	C 	0.92403	0.2514	0.39623	-0.068
Mof_C 	C 	0.849	0.2451	0.30046	0.343
Mof_C 	C 	0.97582	0.24484	0.22439	0.431
Mof_C 	C 	0.10978	0.25512	0.28609	0.314
Mof_C 	C 	0.11925	0.26035	0.4184	0.397
Mof_C 	C 	0.99395	0.26088	0.49543	0.361
Mof_C 	C 	0.85985	0.23994	0.4356	0.248
Mof_O 	O 	0.81256	0.1649	0.30782	-0.708
Mof_O 	O 	0.83302	0.32963	0.26979	-0.518
Mof_O 	O 	0.93257	0.17749	0.20253	-0.768
Mof_O 	O 	0.01442	0.30073	0.19239	-0.756
Mof_O 	O 	0.12741	0.17709	0.25454	-0.469
Mof_O 	O 	0.14444	0.34134	0.29188	-0.704
Mof_O 	O 	0.15717	0.18022	0.40601	-0.468
Mof_O 	O 	0.13667	0.33959	0.45003	-0.671
Mof_O 	O 	0.03417	0.20122	0.52304	-0.492
Mof_O 	O 	0.95442	0.33025	0.52171	-0.525
Mof_O 	O 	0.86078	0.16475	0.47559	-0.678
Mof_O 	O 	0.81039	0.30153	0.42544	-0.606
Mof_O 	O 	0.70642	0.38505	0.32331	-1.692
Mof_H 	H 	0.6965	0.341	0.3479	0.61
Mof_H 	H 	0.7365	0.416	0.3372	0.665
Mof_O 	O 	0.63338	0.23938	0.38761	-1.65
Mof_H 	H 	0.615	0.223	0.3568	0.625
Mof_H 	H 	0.6044	0.254	0.4108	0.612
Mof_O 	O 	0.74926	0.92073	0.51619	-1.406
Mof_H 	H 	0.7373	0.8777	0.4918	0.453
Mof_H 	H 	0.778	0.89	0.5354	0.512
Mof_O 	O 	0.7	0.0341	0.34346	-1.599
Mof_H 	H 	0.67	0.016	0.32	0.594
Mof_H 	H 	0.712	0.09	0.328	0.455
Mof_O 	O 	0.59302	0.01354	0.46633	-1.198
Mof_H 	H 	0.593	0.0556	0.494	0.408
Mof_H 	H 	0.5815	0.96	0.483	0.512
Mof_K 	K 	0.7248	0.11322	0.4569	1.834
Mof_K 	K 	0.08295	0.49514	0.21116	3.109
Mof_O 	O 	0.6863	0.9837	0.3672	0.065
Mof_K 	K 	0.7296	0.1004	0.4401	1.67
Mof_Cu	Cu	0.23873	0.16483	0.76001	0.842
Mof_Cu	Cu	0.43934	0.32938	0.88824	0.777
Mof_C 	C 	0.41939	0.25099	0.66899	-0.234
Mof_C 	C 	0.47938	0.24982	0.70519	-0.269
Mof_C 	C 	0.54367	0.24576	0.67639	-0.127
Mof_C 	C 	0.5484	0.24186	0.61115	-0.114
Mof_C 	C 	0.48868	0.24299	0.57488	-0.116
Mof_C 	C 	0.42403	0.2486	0.60377	-0.068
Mof_C 	C 	0.349	0.2549	0.69954	0.344
Mof_C 	C 	0.47582	0.25516	0.77561	0.425
Mof_C 	C 	0.60978	0.24488	0.71391	0.314
Mof_C 	C 	0.61925	0.23965	0.5816	0.397
Mof_C 	C 	0.49395	0.23912	0.50457	0.362
Mof_C 	C 	0.35985	0.26006	0.5644	0.248
Mof_O 	O 	0.31256	0.3351	0.69218	-0.71
Mof_O 	O 	0.33302	0.17037	0.73021	-0.519
Mof_O 	O 	0.43257	0.32251	0.79747	-0.77
Mof_O 	O 	0.51442	0.19927	0.80761	-0.75
Mof_O 	O 	0.62741	0.32291	0.74546	-0.47
Mof_O 	O 	0.64444	0.15866	0.70812	-0.704
Mof_O 	O 	0.65717	0.31978	0.59399	-0.468
Mof_O 	O 	0.63667	0.16041	0.54997	-0.671
Mof_O 	O 	0.53417	0.29878	0.47696	-0.492
Mof_O 	O 	0.45442	0.16975	0.47829	-0.524
Mof_O 	O 	0.36078	0.33525	0.52441	-0.678
Mof_O 	O 	0.31039	0.19847	0.57456	-0.605
Mof_O 	O 	0.20642	0.11495	0.67669	-1.692
Mof_H 	H 	0.1965	0.159	0.6521	0.61
Mof_H 	H 	0.2365	0.084	0.6628	0.665
Mof_O 	O 	0.13338	0.26062	0.61239	-1.649
Mof_H 	H 	0.115	0.277	0.6432	0.624
Mof_H 	H 	0.1044	0.246	0.5892	0.611
Mof_O 	O 	0.24926	0.57927	0.48381	-1.406
Mof_H 	H 	0.2373	0.6223	0.5082	0.453
Mof_H 	H 	0.278	0.61	0.4646	0.512
Mof_O 	O 	0.2	0.4659	0.65654	-1.616
Mof_H 	H 	0.17	0.484	0.68	0.596
Mof_H 	H 	0.212	0.41	0.672	0.461
Mof_O 	O 	0.09302	0.48646	0.53367	-1.201
Mof_H 	H 	0.093	0.4444	0.506	0.409
Mof_H 	H 	0.0815	0.54	0.517	0.513
Mof_K 	K 	0.2248	0.38678	0.5431	1.829
Mof_K 	K 	0.58295	0.00486	0.78884	3.105
Mof_O 	O 	0.1863	0.5163	0.6328	0.076
Mof_K 	K 	0.2296	0.3996	0.5599	1.668
Mof_Cu	Cu	0.26127	0.83517	0.26001	0.843
Mof_Cu	Cu	0.06066	0.67062	0.38824	0.776
Mof_C 	C 	0.08061	0.74901	0.16899	-0.232
Mof_C 	C 	0.02062	0.75018	0.20519	-0.274
Mof_C 	C 	0.95633	0.75424	0.17639	-0.123
Mof_C 	C 	0.9516	0.75814	0.11115	-0.11
Mof_C 	C 	0.01132	0.75701	0.07488	-0.118
Mof_C 	C 	0.07597	0.7514	0.10377	-0.07
Mof_C 	C 	0.151	0.7451	0.19954	0.343
Mof_C 	C 	0.02418	0.74484	0.27561	0.422
Mof_C 	C 	0.89022	0.75512	0.21391	0.313
Mof_C 	C 	0.88075	0.76035	0.0816	0.397
Mof_C 	C 	0.00605	0.76088	0.00457	0.34
Mof_C 	C 	0.14015	0.73994	0.0644	0.248
Mof_O 	O 	0.18744	0.6649	0.19218	-0.709
Mof_O 	O 	0.16698	0.82963	0.23021	-0.519
Mof_O 	O 	0.06743	0.67749	0.29747	-0.769
Mof_O 	O 	0.98558	0.80073	0.30761	-0.748
Mof_O 	O 	0.87259	0.67709	0.24546	-0.469
Mof_O 	O 	0.85556	0.84134	0.20812	-0.705
Mof_O 	O 	0.84283	0.68022	0.09399	-0.467
Mof_O 	O 	0.86333	0.83959	0.04997	-0.67
Mof_O 	O 	0.96583	0.70122	0.97696	-0.487
Mof_O 	O 	0.04558	0.83025	0.97829	-0.505
Mof_O 	O 	0.13922	0.66475	0.02441	-0.68
Mof_O 	O 	0.18961	0.80153	0.07456	-0.604
Mof_O 	O 	0.29358	0.88505	0.17669	-1.691
Mof_H 	H 	0.3035	0.841	0.1521	0.61
Mof_H 	H 	0.2635	0.916	0.1628	0.664
Mof_O 	O 	0.36662	0.73938	0.11239	-1.648
Mof_H 	H 	0.385	0.723	0.1432	0.624
Mof_H 	H 	0.3956	0.754	0.0892	0.61
Mof_O 	O 	0.25074	0.42073	0.98381	-1.397
Mof_H 	H 	0.2627	0.3777	0.0082	0.448
Mof_H 	H 	0.222	0.39	0.9646	0.51
Mof_O 	O 	0.3	0.5341	0.15654	-1.614
Mof_H 	H 	0.33	0.516	0.18	0.595
Mof_H 	H 	0.288	0.59	0.172	0.461
Mof_O 	O 	0.40698	0.51354	0.03367	-1.2
Mof_H 	H 	0.407	0.5556	0.006	0.407
Mof_H 	H 	0.4185	0.46	0.017	0.513
Mof_K 	K 	0.2752	0.61322	0.0431	1.826
Mof_K 	K 	0.91705	0.99514	0.28884	3.112
Mof_O 	O 	0.3137	0.4837	0.1328	0.076
Mof_K 	K 	0.2704	0.6004	0.0599	1.659
_end
