data_functionalizedCrystal
_audit_creation_method	'EQeq! by Chris Wilmer'
_symmetry_space_group_name_H-M	'P1'
_symmetry_Int_Tables_number	1
_symmetry_cell_setting	triclinic
loop_
_symmetry_equiv_pos_as_xyz
  x,y,z
_cell_length_a	18.6153
_cell_length_b	18.6153
_cell_length_c	38.375
_cell_angle_alpha	90
_cell_angle_beta	90
_cell_angle_gamma	120
loop_
_atom_site_label
_atom_site_type_symbol
_atom_site_fract_x
_atom_site_fract_y
_atom_site_fract_z
_atom_site_charge
Mof_C 	C 	0.36019	0.45241	0.47354	0.396
Mof_C 	C 	0.27935	0.4299	0.45642	-0.218
Mof_C 	C 	0.26413	0.3996	0.42277	0.178
Mof_H 	H 	0.3021	0.3888	0.4116	-0.052
Mof_C 	C 	0.1834	0.2883	0.35812	-1.245
Mof_C 	C 	0.1734	0.2674	0.32267	0.332
Mof_H 	H 	0.1804	0.2226	0.3144	-0.114
Mof_O 	O 	0.41087	0.44161	0.45604	-0.434
Mof_O 	O 	0.37108	0.48173	0.50392	-0.426
Mof_N 	N 	0.1933	0.2272	0.3839	-2.381
Mof_H 	H 	0.1883	0.1783	0.3777	0.689
Mof_H 	H 	0.1999	0.2424	0.4065	0.569
Mof_H 	H 	0.193	0.2543	0.3752	2.051
Mof_C 	C 	0.02686	0.78574	0.80687	0.397
Mof_C 	C 	0.94602	0.76323	0.78975	-0.222
Mof_C 	C 	0.9308	0.73293	0.7561	0.19
Mof_H 	H 	0.96877	0.72213	0.74493	-0.055
Mof_C 	C 	0.85007	0.62163	0.69145	-1.281
Mof_C 	C 	0.84007	0.60073	0.656	0.359
Mof_H 	H 	0.84707	0.55593	0.64773	-0.121
Mof_O 	O 	0.07754	0.77494	0.78937	-0.433
Mof_O 	O 	0.03775	0.81506	0.83725	-0.425
Mof_N 	N 	0.85997	0.56053	0.71723	-2.416
Mof_H 	H 	0.85497	0.51163	0.71103	0.699
Mof_H 	H 	0.86657	0.57573	0.73983	0.577
Mof_H 	H 	0.85967	0.58763	0.70853	2.088
Mof_C 	C 	0.69352	0.11908	0.14021	0.398
Mof_C 	C 	0.61268	0.09657	0.12309	-0.221
Mof_C 	C 	0.59746	0.06627	0.08944	0.185
Mof_H 	H 	0.63543	0.05547	0.07827	-0.054
Mof_C 	C 	0.51673	0.95497	0.02479	-1.25
Mof_C 	C 	0.50673	0.93407	0.98934	0.341
Mof_H 	H 	0.51373	0.88927	0.98107	-0.116
Mof_O 	O 	0.7442	0.10828	0.12271	-0.433
Mof_O 	O 	0.70441	0.1484	0.17059	-0.425
Mof_N 	N 	0.52663	0.89387	0.05057	-2.386
Mof_H 	H 	0.52163	0.84497	0.04437	0.691
Mof_H 	H 	0.53323	0.90907	0.07317	0.57
Mof_H 	H 	0.52633	0.92097	0.04187	2.057
Mof_C 	C 	0.54759	0.90778	0.47354	0.397
Mof_C 	C 	0.5701	0.84945	0.45642	-0.217
Mof_C 	C 	0.6004	0.86453	0.42277	0.179
Mof_H 	H 	0.6112	0.9133	0.4116	-0.051
Mof_C 	C 	0.7117	0.8951	0.35812	-1.225
Mof_C 	C 	0.7326	0.906	0.32267	0.327
Mof_H 	H 	0.7774	0.9578	0.3144	-0.11
Mof_O 	O 	0.55839	0.96926	0.45604	-0.432
Mof_O 	O 	0.51827	0.88935	0.50392	-0.425
Mof_N 	N 	0.7728	0.9661	0.3839	-2.356
Mof_H 	H 	0.8217	0.01	0.3777	0.681
Mof_H 	H 	0.7576	0.9575	0.4065	0.564
Mof_H 	H 	0.7457	0.9387	0.3752	2.029
Mof_C 	C 	0.21426	0.24111	0.80687	0.399
Mof_C 	C 	0.23677	0.18278	0.78975	-0.224
Mof_C 	C 	0.26707	0.19786	0.7561	0.191
Mof_H 	H 	0.27787	0.24663	0.74493	-0.056
Mof_C 	C 	0.37837	0.22843	0.69145	-1.255
Mof_C 	C 	0.39927	0.23933	0.656	0.348
Mof_H 	H 	0.44407	0.29113	0.64773	-0.118
Mof_O 	O 	0.22506	0.30259	0.78937	-0.433
Mof_O 	O 	0.18494	0.22268	0.83725	-0.425
Mof_N 	N 	0.43947	0.29943	0.71723	-2.389
Mof_H 	H 	0.48837	0.34333	0.71103	0.691
Mof_H 	H 	0.42427	0.29083	0.73983	0.571
Mof_H 	H 	0.41237	0.27203	0.70853	2.061
Mof_C 	C 	0.88092	0.57445	0.14021	0.398
Mof_C 	C 	0.90343	0.51612	0.12309	-0.221
Mof_C 	C 	0.93373	0.5312	0.08944	0.185
Mof_H 	H 	0.94453	0.57997	0.07827	-0.054
Mof_C 	C 	0.04503	0.56177	0.02479	-1.249
Mof_C 	C 	0.06593	0.57267	0.98934	0.341
Mof_H 	H 	0.11073	0.62447	0.98107	-0.115
Mof_O 	O 	0.89172	0.63593	0.12271	-0.433
Mof_O 	O 	0.8516	0.55602	0.17059	-0.425
Mof_N 	N 	0.10613	0.63277	0.05057	-2.385
Mof_H 	H 	0.15503	0.67667	0.04437	0.69
Mof_H 	H 	0.09093	0.62417	0.07317	0.57
Mof_H 	H 	0.07903	0.60537	0.04187	2.056
Mof_C 	C 	0.09222	0.63981	0.47354	0.395
Mof_C 	C 	0.15055	0.72065	0.45642	-0.213
Mof_C 	C 	0.13547	0.73587	0.42277	0.171
Mof_H 	H 	0.0867	0.6979	0.4116	-0.048
Mof_C 	C 	0.1049	0.8166	0.35812	-1.213
Mof_C 	C 	0.094	0.8266	0.32267	0.315
Mof_H 	H 	0.0422	0.8196	0.3144	-0.106
Mof_O 	O 	0.03074	0.58913	0.45604	-0.432
Mof_O 	O 	0.11065	0.62892	0.50392	-0.424
Mof_N 	N 	0.0339	0.8067	0.3839	-2.345
Mof_H 	H 	0.99	0.8117	0.3777	0.678
Mof_H 	H 	0.0425	0.8001	0.4065	0.561
Mof_H 	H 	0.0613	0.807	0.3752	2.017
Mof_C 	C 	0.75889	0.97314	0.80687	0.399
Mof_C 	C 	0.81722	0.05398	0.78975	-0.225
Mof_C 	C 	0.80214	0.0692	0.7561	0.198
Mof_H 	H 	0.75337	0.03123	0.74493	-0.058
Mof_C 	C 	0.77157	0.14993	0.69145	-1.289
Mof_C 	C 	0.76067	0.15993	0.656	0.369
Mof_H 	H 	0.70887	0.15293	0.64773	-0.124
Mof_O 	O 	0.69741	0.92246	0.78937	-0.434
Mof_O 	O 	0.77732	0.96225	0.83725	-0.425
Mof_N 	N 	0.70057	0.14003	0.71723	-2.423
Mof_H 	H 	0.65667	0.14503	0.71103	0.701
Mof_H 	H 	0.70917	0.13343	0.73983	0.578
Mof_H 	H 	0.72797	0.14033	0.70853	2.095
Mof_C 	C 	0.42555	0.30648	0.14021	0.398
Mof_C 	C 	0.48388	0.38732	0.12309	-0.221
Mof_C 	C 	0.4688	0.40254	0.08944	0.186
Mof_H 	H 	0.42003	0.36457	0.07827	-0.054
Mof_C 	C 	0.43823	0.48327	0.02479	-1.252
Mof_C 	C 	0.42733	0.49327	0.98934	0.342
Mof_H 	H 	0.37553	0.48627	0.98107	-0.116
Mof_O 	O 	0.36407	0.2558	0.12271	-0.433
Mof_O 	O 	0.44398	0.29559	0.17059	-0.425
Mof_N 	N 	0.36723	0.47337	0.05057	-2.387
Mof_H 	H 	0.32333	0.47837	0.04437	0.691
Mof_H 	H 	0.37583	0.46677	0.07317	0.57
Mof_H 	H 	0.39463	0.47367	0.04187	2.058
Mof_C 	C 	0.45241	0.36019	0.52646	0.397
Mof_C 	C 	0.4299	0.27935	0.54358	-0.217
Mof_C 	C 	0.3996	0.26413	0.57723	0.179
Mof_H 	H 	0.3888	0.3021	0.5884	-0.051
Mof_C 	C 	0.2883	0.1834	0.64188	-1.244
Mof_C 	C 	0.2674	0.1734	0.67733	0.333
Mof_H 	H 	0.2226	0.1804	0.6856	-0.113
Mof_O 	O 	0.44161	0.41087	0.54396	-0.433
Mof_O 	O 	0.48173	0.37108	0.49608	-0.425
Mof_N 	N 	0.2272	0.1933	0.6161	-2.38
Mof_H 	H 	0.1783	0.1883	0.6223	0.689
Mof_H 	H 	0.2424	0.1999	0.5935	0.569
Mof_H 	H 	0.2543	0.193	0.6248	2.051
Mof_C 	C 	0.11908	0.69352	0.85979	0.398
Mof_C 	C 	0.09657	0.61268	0.87691	-0.221
Mof_C 	C 	0.06627	0.59746	0.91056	0.185
Mof_H 	H 	0.05547	0.63543	0.92173	-0.054
Mof_C 	C 	0.95497	0.51673	0.97521	-1.25
Mof_C 	C 	0.93407	0.50673	0.01066	0.341
Mof_H 	H 	0.88927	0.51373	0.01893	-0.116
Mof_O 	O 	0.10828	0.7442	0.87729	-0.433
Mof_O 	O 	0.1484	0.70441	0.82941	-0.425
Mof_N 	N 	0.89387	0.52663	0.94943	-2.386
Mof_H 	H 	0.84497	0.52163	0.95563	0.691
Mof_H 	H 	0.90907	0.53323	0.92683	0.57
Mof_H 	H 	0.92097	0.52633	0.95813	2.057
Mof_C 	C 	0.78574	0.02686	0.19313	0.397
Mof_C 	C 	0.76323	0.94602	0.21025	-0.222
Mof_C 	C 	0.73293	0.9308	0.2439	0.19
Mof_H 	H 	0.72213	0.96877	0.25507	-0.055
Mof_C 	C 	0.62163	0.85007	0.30855	-1.281
Mof_C 	C 	0.60073	0.84007	0.344	0.359
Mof_H 	H 	0.55593	0.84707	0.35227	-0.121
Mof_O 	O 	0.77494	0.07754	0.21063	-0.433
Mof_O 	O 	0.81506	0.03775	0.16275	-0.425
Mof_N 	N 	0.56053	0.85997	0.28277	-2.416
Mof_H 	H 	0.51163	0.85497	0.28897	0.699
Mof_H 	H 	0.57573	0.86657	0.26017	0.577
Mof_H 	H 	0.58763	0.85967	0.29147	2.088
Mof_C 	C 	0.90778	0.54759	0.52646	0.397
Mof_C 	C 	0.84945	0.5701	0.54358	-0.217
Mof_C 	C 	0.86453	0.6004	0.57723	0.179
Mof_H 	H 	0.9133	0.6112	0.5884	-0.051
Mof_C 	C 	0.8951	0.7117	0.64188	-1.225
Mof_C 	C 	0.906	0.7326	0.67733	0.327
Mof_H 	H 	0.9578	0.7774	0.6856	-0.11
Mof_O 	O 	0.96926	0.55839	0.54396	-0.432
Mof_O 	O 	0.88935	0.51827	0.49608	-0.425
Mof_N 	N 	0.9661	0.7728	0.6161	-2.356
Mof_H 	H 	0.01	0.8217	0.6223	0.681
Mof_H 	H 	0.9575	0.7576	0.5935	0.564
Mof_H 	H 	0.9387	0.7457	0.6248	2.029
Mof_C 	C 	0.57445	0.88092	0.85979	0.398
Mof_C 	C 	0.51612	0.90343	0.87691	-0.221
Mof_C 	C 	0.5312	0.93373	0.91056	0.185
Mof_H 	H 	0.57997	0.94453	0.92173	-0.054
Mof_C 	C 	0.56177	0.04503	0.97521	-1.249
Mof_C 	C 	0.57267	0.06593	0.01066	0.341
Mof_H 	H 	0.62447	0.11073	0.01893	-0.115
Mof_O 	O 	0.63593	0.89172	0.87729	-0.433
Mof_O 	O 	0.55602	0.8516	0.82941	-0.425
Mof_N 	N 	0.63277	0.10613	0.94943	-2.385
Mof_H 	H 	0.67667	0.15503	0.95563	0.69
Mof_H 	H 	0.62417	0.09093	0.92683	0.57
Mof_H 	H 	0.60537	0.07903	0.95813	2.056
Mof_C 	C 	0.24111	0.21426	0.19313	0.399
Mof_C 	C 	0.18278	0.23677	0.21025	-0.224
Mof_C 	C 	0.19786	0.26707	0.2439	0.191
Mof_H 	H 	0.24663	0.27787	0.25507	-0.056
Mof_C 	C 	0.22843	0.37837	0.30855	-1.255
Mof_C 	C 	0.23933	0.39927	0.344	0.348
Mof_H 	H 	0.29113	0.44407	0.35227	-0.118
Mof_O 	O 	0.30259	0.22506	0.21063	-0.433
Mof_O 	O 	0.22268	0.18494	0.16275	-0.425
Mof_N 	N 	0.29943	0.43947	0.28277	-2.389
Mof_H 	H 	0.34333	0.48837	0.28897	0.691
Mof_H 	H 	0.29083	0.42427	0.26017	0.571
Mof_H 	H 	0.27203	0.41237	0.29147	2.061
Mof_C 	C 	0.63981	0.09222	0.52646	0.395
Mof_C 	C 	0.72065	0.15055	0.54358	-0.213
Mof_C 	C 	0.73587	0.13547	0.57723	0.171
Mof_H 	H 	0.6979	0.0867	0.5884	-0.048
Mof_C 	C 	0.8166	0.1049	0.64188	-1.213
Mof_C 	C 	0.8266	0.094	0.67733	0.315
Mof_H 	H 	0.8196	0.0422	0.6856	-0.106
Mof_O 	O 	0.58913	0.03074	0.54396	-0.432
Mof_O 	O 	0.62892	0.11065	0.49608	-0.424
Mof_N 	N 	0.8067	0.0339	0.6161	-2.345
Mof_H 	H 	0.8117	0.99	0.6223	0.678
Mof_H 	H 	0.8001	0.0425	0.5935	0.561
Mof_H 	H 	0.807	0.0613	0.6248	2.017
Mof_C 	C 	0.30648	0.42555	0.85979	0.398
Mof_C 	C 	0.38732	0.48388	0.87691	-0.221
Mof_C 	C 	0.40254	0.4688	0.91056	0.186
Mof_H 	H 	0.36457	0.42003	0.92173	-0.054
Mof_C 	C 	0.48327	0.43823	0.97521	-1.252
Mof_C 	C 	0.49327	0.42733	0.01066	0.342
Mof_H 	H 	0.48627	0.37553	0.01893	-0.116
Mof_O 	O 	0.2558	0.36407	0.87729	-0.433
Mof_O 	O 	0.29559	0.44398	0.82941	-0.425
Mof_N 	N 	0.47337	0.36723	0.94943	-2.387
Mof_H 	H 	0.47837	0.32333	0.95563	0.691
Mof_H 	H 	0.46677	0.37583	0.92683	0.57
Mof_H 	H 	0.47367	0.39463	0.95813	2.058
Mof_C 	C 	0.97314	0.75889	0.19313	0.399
Mof_C 	C 	0.05398	0.81722	0.21025	-0.225
Mof_C 	C 	0.0692	0.80214	0.2439	0.198
Mof_H 	H 	0.03123	0.75337	0.25507	-0.058
Mof_C 	C 	0.14993	0.77157	0.30855	-1.289
Mof_C 	C 	0.15993	0.76067	0.344	0.369
Mof_H 	H 	0.15293	0.70887	0.35227	-0.124
Mof_O 	O 	0.92246	0.69741	0.21063	-0.434
Mof_O 	O 	0.96225	0.77732	0.16275	-0.425
Mof_N 	N 	0.14003	0.70057	0.28277	-2.423
Mof_H 	H 	0.14503	0.65667	0.28897	0.701
Mof_H 	H 	0.13343	0.70917	0.26017	0.578
Mof_H 	H 	0.14033	0.72797	0.29147	2.095
Mof_C 	C 	0.63981	0.54759	0.52646	0.397
Mof_C 	C 	0.72065	0.5701	0.54358	-0.217
Mof_C 	C 	0.73587	0.6004	0.57723	0.179
Mof_H 	H 	0.6979	0.6112	0.5884	-0.051
Mof_C 	C 	0.8166	0.7117	0.64188	-1.244
Mof_C 	C 	0.8266	0.7326	0.67733	0.333
Mof_H 	H 	0.8196	0.7774	0.6856	-0.113
Mof_O 	O 	0.58913	0.55839	0.54396	-0.433
Mof_O 	O 	0.62892	0.51827	0.49608	-0.425
Mof_N 	N 	0.8067	0.7728	0.6161	-2.38
Mof_H 	H 	0.8117	0.8217	0.6223	0.689
Mof_H 	H 	0.8001	0.7576	0.5935	0.569
Mof_H 	H 	0.807	0.7457	0.6248	2.051
Mof_C 	C 	0.30648	0.88092	0.85979	0.398
Mof_C 	C 	0.38732	0.90343	0.87691	-0.221
Mof_C 	C 	0.40254	0.93373	0.91056	0.185
Mof_H 	H 	0.36457	0.94453	0.92173	-0.054
Mof_C 	C 	0.48327	0.04503	0.97521	-1.25
Mof_C 	C 	0.49327	0.06593	0.01066	0.341
Mof_H 	H 	0.48627	0.11073	0.01893	-0.116
Mof_O 	O 	0.2558	0.89172	0.87729	-0.433
Mof_O 	O 	0.29559	0.8516	0.82941	-0.425
Mof_N 	N 	0.47337	0.10613	0.94943	-2.386
Mof_H 	H 	0.47837	0.15503	0.95563	0.691
Mof_H 	H 	0.46677	0.09093	0.92683	0.57
Mof_H 	H 	0.47367	0.07903	0.95813	2.057
Mof_C 	C 	0.97314	0.21426	0.19313	0.397
Mof_C 	C 	0.05398	0.23677	0.21025	-0.222
Mof_C 	C 	0.0692	0.26707	0.2439	0.19
Mof_H 	H 	0.03123	0.27787	0.25507	-0.055
Mof_C 	C 	0.14993	0.37837	0.30855	-1.281
Mof_C 	C 	0.15993	0.39927	0.344	0.359
Mof_H 	H 	0.15293	0.44407	0.35227	-0.121
Mof_O 	O 	0.92246	0.22506	0.21063	-0.433
Mof_O 	O 	0.96225	0.18494	0.16275	-0.425
Mof_N 	N 	0.14003	0.43947	0.28277	-2.416
Mof_H 	H 	0.14503	0.48837	0.28897	0.699
Mof_H 	H 	0.13343	0.42427	0.26017	0.577
Mof_H 	H 	0.14033	0.41237	0.29147	2.088
Mof_C 	C 	0.45241	0.09222	0.52646	0.397
Mof_C 	C 	0.4299	0.15055	0.54358	-0.217
Mof_C 	C 	0.3996	0.13547	0.57723	0.179
Mof_H 	H 	0.3888	0.0867	0.5884	-0.051
Mof_C 	C 	0.2883	0.1049	0.64188	-1.225
Mof_C 	C 	0.2674	0.094	0.67733	0.327
Mof_H 	H 	0.2226	0.0422	0.6856	-0.11
Mof_O 	O 	0.44161	0.03074	0.54396	-0.432
Mof_O 	O 	0.48173	0.11065	0.49608	-0.425
Mof_N 	N 	0.2272	0.0339	0.6161	-2.356
Mof_H 	H 	0.1783	0.99	0.6223	0.681
Mof_H 	H 	0.2424	0.0425	0.5935	0.564
Mof_H 	H 	0.2543	0.0613	0.6248	2.029
Mof_C 	C 	0.11908	0.42555	0.85979	0.398
Mof_C 	C 	0.09657	0.48388	0.87691	-0.221
Mof_C 	C 	0.06627	0.4688	0.91056	0.185
Mof_H 	H 	0.05547	0.42003	0.92173	-0.054
Mof_C 	C 	0.95497	0.43823	0.97521	-1.249
Mof_C 	C 	0.93407	0.42733	0.01066	0.341
Mof_H 	H 	0.88927	0.37553	0.01893	-0.115
Mof_O 	O 	0.10828	0.36407	0.87729	-0.433
Mof_O 	O 	0.1484	0.44398	0.82941	-0.425
Mof_N 	N 	0.89387	0.36723	0.94943	-2.385
Mof_H 	H 	0.84497	0.32333	0.95563	0.69
Mof_H 	H 	0.90907	0.37583	0.92683	0.57
Mof_H 	H 	0.92097	0.39463	0.95813	2.056
Mof_C 	C 	0.78574	0.75889	0.19313	0.399
Mof_C 	C 	0.76323	0.81722	0.21025	-0.224
Mof_C 	C 	0.73293	0.80214	0.2439	0.191
Mof_H 	H 	0.72213	0.75337	0.25507	-0.056
Mof_C 	C 	0.62163	0.77157	0.30855	-1.255
Mof_C 	C 	0.60073	0.76067	0.344	0.348
Mof_H 	H 	0.55593	0.70887	0.35227	-0.118
Mof_O 	O 	0.77494	0.69741	0.21063	-0.433
Mof_O 	O 	0.81506	0.77732	0.16275	-0.425
Mof_N 	N 	0.56053	0.70057	0.28277	-2.389
Mof_H 	H 	0.51163	0.65667	0.28897	0.691
Mof_H 	H 	0.57573	0.70917	0.26017	0.571
Mof_H 	H 	0.58763	0.72797	0.29147	2.061
Mof_C 	C 	0.90778	0.36019	0.52646	0.395
Mof_C 	C 	0.84945	0.27935	0.54358	-0.213
Mof_C 	C 	0.86453	0.26413	0.57723	0.171
Mof_H 	H 	0.9133	0.3021	0.5884	-0.048
Mof_C 	C 	0.8951	0.1834	0.64188	-1.213
Mof_C 	C 	0.906	0.1734	0.67733	0.315
Mof_H 	H 	0.9578	0.1804	0.6856	-0.106
Mof_O 	O 	0.96926	0.41087	0.54396	-0.432
Mof_O 	O 	0.88935	0.37108	0.49608	-0.424
Mof_N 	N 	0.9661	0.1933	0.6161	-2.345
Mof_H 	H 	0.01	0.1883	0.6223	0.678
Mof_H 	H 	0.9575	0.1999	0.5935	0.561
Mof_H 	H 	0.9387	0.193	0.6248	2.017
Mof_C 	C 	0.57445	0.69352	0.85979	0.398
Mof_C 	C 	0.51612	0.61268	0.87691	-0.221
Mof_C 	C 	0.5312	0.59746	0.91056	0.186
Mof_H 	H 	0.57997	0.63543	0.92173	-0.054
Mof_C 	C 	0.56177	0.51673	0.97521	-1.252
Mof_C 	C 	0.57267	0.50673	0.01066	0.342
Mof_H 	H 	0.62447	0.51373	0.01893	-0.116
Mof_O 	O 	0.63593	0.7442	0.87729	-0.433
Mof_O 	O 	0.55602	0.70441	0.82941	-0.425
Mof_N 	N 	0.63277	0.52663	0.94943	-2.387
Mof_H 	H 	0.67667	0.52163	0.95563	0.691
Mof_H 	H 	0.62417	0.53323	0.92683	0.57
Mof_H 	H 	0.60537	0.52633	0.95813	2.058
Mof_C 	C 	0.24111	0.02686	0.19313	0.399
Mof_C 	C 	0.18278	0.94602	0.21025	-0.225
Mof_C 	C 	0.19786	0.9308	0.2439	0.198
Mof_H 	H 	0.24663	0.96877	0.25507	-0.058
Mof_C 	C 	0.22843	0.85007	0.30855	-1.289
Mof_C 	C 	0.23933	0.84007	0.344	0.369
Mof_H 	H 	0.29113	0.84707	0.35227	-0.124
Mof_O 	O 	0.30259	0.07754	0.21063	-0.434
Mof_O 	O 	0.22268	0.03775	0.16275	-0.425
Mof_N 	N 	0.29943	0.85997	0.28277	-2.423
Mof_H 	H 	0.34333	0.85497	0.28897	0.701
Mof_H 	H 	0.29083	0.86657	0.26017	0.578
Mof_H 	H 	0.27203	0.85967	0.29147	2.095
Mof_C 	C 	0.54759	0.63981	0.47354	0.397
Mof_C 	C 	0.5701	0.72065	0.45642	-0.217
Mof_C 	C 	0.6004	0.73587	0.42277	0.179
Mof_H 	H 	0.6112	0.6979	0.4116	-0.051
Mof_C 	C 	0.7117	0.8166	0.35812	-1.244
Mof_C 	C 	0.7326	0.8266	0.32267	0.333
Mof_H 	H 	0.7774	0.8196	0.3144	-0.113
Mof_O 	O 	0.55839	0.58913	0.45604	-0.433
Mof_O 	O 	0.51827	0.62892	0.50392	-0.425
Mof_N 	N 	0.7728	0.8067	0.3839	-2.38
Mof_H 	H 	0.8217	0.8117	0.3777	0.689
Mof_H 	H 	0.7576	0.8001	0.4065	0.569
Mof_H 	H 	0.7457	0.807	0.3752	2.051
Mof_C 	C 	0.21426	0.97314	0.80687	0.397
Mof_C 	C 	0.23677	0.05398	0.78975	-0.222
Mof_C 	C 	0.26707	0.0692	0.7561	0.19
Mof_H 	H 	0.27787	0.03123	0.74493	-0.055
Mof_C 	C 	0.37837	0.14993	0.69145	-1.281
Mof_C 	C 	0.39927	0.15993	0.656	0.359
Mof_H 	H 	0.44407	0.15293	0.64773	-0.121
Mof_O 	O 	0.22506	0.92246	0.78937	-0.433
Mof_O 	O 	0.18494	0.96225	0.83725	-0.425
Mof_N 	N 	0.43947	0.14003	0.71723	-2.416
Mof_H 	H 	0.48837	0.14503	0.71103	0.699
Mof_H 	H 	0.42427	0.13343	0.73983	0.577
Mof_H 	H 	0.41237	0.14033	0.70853	2.088
Mof_C 	C 	0.88092	0.30648	0.14021	0.398
Mof_C 	C 	0.90343	0.38732	0.12309	-0.221
Mof_C 	C 	0.93373	0.40254	0.08944	0.185
Mof_H 	H 	0.94453	0.36457	0.07827	-0.054
Mof_C 	C 	0.04503	0.48327	0.02479	-1.25
Mof_C 	C 	0.06593	0.49327	0.98934	0.341
Mof_H 	H 	0.11073	0.48627	0.98107	-0.116
Mof_O 	O 	0.89172	0.2558	0.12271	-0.433
Mof_O 	O 	0.8516	0.29559	0.17059	-0.425
Mof_N 	N 	0.10613	0.47337	0.05057	-2.386
Mof_H 	H 	0.15503	0.47837	0.04437	0.691
Mof_H 	H 	0.09093	0.46677	0.07317	0.57
Mof_H 	H 	0.07903	0.47367	0.04187	2.057
Mof_C 	C 	0.09222	0.45241	0.47354	0.397
Mof_C 	C 	0.15055	0.4299	0.45642	-0.217
Mof_C 	C 	0.13547	0.3996	0.42277	0.179
Mof_H 	H 	0.0867	0.3888	0.4116	-0.051
Mof_C 	C 	0.1049	0.2883	0.35812	-1.225
Mof_C 	C 	0.094	0.2674	0.32267	0.327
Mof_H 	H 	0.0422	0.2226	0.3144	-0.11
Mof_O 	O 	0.03074	0.44161	0.45604	-0.432
Mof_O 	O 	0.11065	0.48173	0.50392	-0.425
Mof_N 	N 	0.0339	0.2272	0.3839	-2.356
Mof_H 	H 	0.99	0.1783	0.3777	0.681
Mof_H 	H 	0.0425	0.2424	0.4065	0.564
Mof_H 	H 	0.0613	0.2543	0.3752	2.029
Mof_C 	C 	0.75889	0.78574	0.80687	0.399
Mof_C 	C 	0.81722	0.76323	0.78975	-0.224
Mof_C 	C 	0.80214	0.73293	0.7561	0.191
Mof_H 	H 	0.75337	0.72213	0.74493	-0.056
Mof_C 	C 	0.77157	0.62163	0.69145	-1.255
Mof_C 	C 	0.76067	0.60073	0.656	0.348
Mof_H 	H 	0.70887	0.55593	0.64773	-0.118
Mof_O 	O 	0.69741	0.77494	0.78937	-0.433
Mof_O 	O 	0.77732	0.81506	0.83725	-0.425
Mof_N 	N 	0.70057	0.56053	0.71723	-2.389
Mof_H 	H 	0.65667	0.51163	0.71103	0.691
Mof_H 	H 	0.70917	0.57573	0.73983	0.571
Mof_H 	H 	0.72797	0.58763	0.70853	2.061
Mof_C 	C 	0.42555	0.11908	0.14021	0.398
Mof_C 	C 	0.48388	0.09657	0.12309	-0.221
Mof_C 	C 	0.4688	0.06627	0.08944	0.185
Mof_H 	H 	0.42003	0.05547	0.07827	-0.054
Mof_C 	C 	0.43823	0.95497	0.02479	-1.249
Mof_C 	C 	0.42733	0.93407	0.98934	0.341
Mof_H 	H 	0.37553	0.88927	0.98107	-0.115
Mof_O 	O 	0.36407	0.10828	0.12271	-0.433
Mof_O 	O 	0.44398	0.1484	0.17059	-0.425
Mof_N 	N 	0.36723	0.89387	0.05057	-2.385
Mof_H 	H 	0.32333	0.84497	0.04437	0.69
Mof_H 	H 	0.37583	0.90907	0.07317	0.57
Mof_H 	H 	0.39463	0.92097	0.04187	2.056
Mof_C 	C 	0.36019	0.90778	0.47354	0.395
Mof_C 	C 	0.27935	0.84945	0.45642	-0.213
Mof_C 	C 	0.26413	0.86453	0.42277	0.171
Mof_H 	H 	0.3021	0.9133	0.4116	-0.048
Mof_C 	C 	0.1834	0.8951	0.35812	-1.213
Mof_C 	C 	0.1734	0.906	0.32267	0.315
Mof_H 	H 	0.1804	0.9578	0.3144	-0.106
Mof_O 	O 	0.41087	0.96926	0.45604	-0.432
Mof_O 	O 	0.37108	0.88935	0.50392	-0.424
Mof_N 	N 	0.1933	0.9661	0.3839	-2.345
Mof_H 	H 	0.1883	0.01	0.3777	0.678
Mof_H 	H 	0.1999	0.9575	0.4065	0.561
Mof_H 	H 	0.193	0.9387	0.3752	2.017
Mof_C 	C 	0.02686	0.24111	0.80687	0.399
Mof_C 	C 	0.94602	0.18278	0.78975	-0.225
Mof_C 	C 	0.9308	0.19786	0.7561	0.198
Mof_H 	H 	0.96877	0.24663	0.74493	-0.058
Mof_C 	C 	0.85007	0.22843	0.69145	-1.289
Mof_C 	C 	0.84007	0.23933	0.656	0.369
Mof_H 	H 	0.84707	0.29113	0.64773	-0.124
Mof_O 	O 	0.07754	0.30259	0.78937	-0.434
Mof_O 	O 	0.03775	0.22268	0.83725	-0.425
Mof_N 	N 	0.85997	0.29943	0.71723	-2.423
Mof_H 	H 	0.85497	0.34333	0.71103	0.701
Mof_H 	H 	0.86657	0.29083	0.73983	0.578
Mof_H 	H 	0.85967	0.27203	0.70853	2.095
Mof_C 	C 	0.69352	0.57445	0.14021	0.398
Mof_C 	C 	0.61268	0.51612	0.12309	-0.221
Mof_C 	C 	0.59746	0.5312	0.08944	0.186
Mof_H 	H 	0.63543	0.57997	0.07827	-0.054
Mof_C 	C 	0.51673	0.56177	0.02479	-1.252
Mof_C 	C 	0.50673	0.57267	0.98934	0.342
Mof_H 	H 	0.51373	0.62447	0.98107	-0.116
Mof_O 	O 	0.7442	0.63593	0.12271	-0.433
Mof_O 	O 	0.70441	0.55602	0.17059	-0.425
Mof_N 	N 	0.52663	0.63277	0.05057	-2.387
Mof_H 	H 	0.52163	0.67667	0.04437	0.691
Mof_H 	H 	0.53323	0.62417	0.07317	0.57
Mof_H 	H 	0.52633	0.60537	0.04187	2.058
Mof_C 	C 	0.2226	0.4452	0.4734	0.134
Mof_H 	H 	0.23275	0.4655	0.4961	0.008
Mof_C 	C 	0.1925	0.385	0.40543	-0.403
Mof_C 	C 	0.1779	0.3558	0.36822	0.629
Mof_C 	C 	0.88927	0.77853	0.80673	0.14
Mof_H 	H 	0.89942	0.79883	0.82943	0.006
Mof_C 	C 	0.85917	0.71833	0.73876	-0.424
Mof_C 	C 	0.84457	0.68913	0.70155	0.671
Mof_C 	C 	0.55593	0.11187	0.14007	0.138
Mof_H 	H 	0.56608	0.13217	0.16277	0.006
Mof_C 	C 	0.52583	0.05167	0.0721	-0.414
Mof_C 	C 	0.51123	0.02247	0.03489	0.649
Mof_C 	C 	0.5548	0.7774	0.4734	0.134
Mof_H 	H 	0.5345	0.76725	0.4961	0.008
Mof_C 	C 	0.615	0.8075	0.40543	-0.403
Mof_C 	C 	0.6442	0.8221	0.36822	0.629
Mof_C 	C 	0.22147	0.11073	0.80673	0.14
Mof_H 	H 	0.20117	0.10058	0.82943	0.006
Mof_C 	C 	0.28167	0.14083	0.73876	-0.424
Mof_C 	C 	0.31087	0.15543	0.70155	0.671
Mof_C 	C 	0.88813	0.44407	0.14007	0.138
Mof_H 	H 	0.86783	0.43392	0.16277	0.006
Mof_C 	C 	0.94833	0.47417	0.0721	-0.414
Mof_C 	C 	0.97753	0.48877	0.03489	0.649
Mof_C 	C 	0.2226	0.7774	0.4734	0.13
Mof_H 	H 	0.23275	0.76725	0.4961	0.009
Mof_C 	C 	0.1925	0.8075	0.40543	-0.39
Mof_C 	C 	0.1779	0.8221	0.36822	0.601
Mof_C 	C 	0.88927	0.11073	0.80673	0.142
Mof_H 	H 	0.89942	0.10058	0.82943	0.006
Mof_C 	C 	0.85917	0.14083	0.73876	-0.436
Mof_C 	C 	0.84457	0.15543	0.70155	0.697
Mof_C 	C 	0.55593	0.44407	0.14007	0.138
Mof_H 	H 	0.56608	0.43392	0.16277	0.007
Mof_C 	C 	0.52583	0.47417	0.0721	-0.414
Mof_C 	C 	0.51123	0.48877	0.03489	0.651
Mof_C 	C 	0.4452	0.2226	0.5266	0.134
Mof_H 	H 	0.4655	0.23275	0.5039	0.008
Mof_C 	C 	0.385	0.1925	0.59457	-0.403
Mof_C 	C 	0.3558	0.1779	0.63178	0.629
Mof_C 	C 	0.11187	0.55593	0.85993	0.138
Mof_H 	H 	0.13217	0.56608	0.83723	0.006
Mof_C 	C 	0.05167	0.52583	0.9279	-0.414
Mof_C 	C 	0.02247	0.51123	0.96511	0.649
Mof_C 	C 	0.77853	0.88927	0.19327	0.14
Mof_H 	H 	0.79883	0.89942	0.17057	0.006
Mof_C 	C 	0.71833	0.85917	0.26124	-0.424
Mof_C 	C 	0.68913	0.84457	0.29845	0.671
Mof_C 	C 	0.7774	0.5548	0.5266	0.134
Mof_H 	H 	0.76725	0.5345	0.5039	0.008
Mof_C 	C 	0.8075	0.615	0.59457	-0.403
Mof_C 	C 	0.8221	0.6442	0.63178	0.629
Mof_C 	C 	0.44407	0.88813	0.85993	0.138
Mof_H 	H 	0.43392	0.86783	0.83723	0.006
Mof_C 	C 	0.47417	0.94833	0.9279	-0.414
Mof_C 	C 	0.48877	0.97753	0.96511	0.649
Mof_C 	C 	0.11073	0.22147	0.19327	0.14
Mof_H 	H 	0.10058	0.20117	0.17057	0.006
Mof_C 	C 	0.14083	0.28167	0.26124	-0.424
Mof_C 	C 	0.15543	0.31087	0.29845	0.671
Mof_C 	C 	0.7774	0.2226	0.5266	0.13
Mof_H 	H 	0.76725	0.23275	0.5039	0.009
Mof_C 	C 	0.8075	0.1925	0.59457	-0.39
Mof_C 	C 	0.8221	0.1779	0.63178	0.601
Mof_C 	C 	0.44407	0.55593	0.85993	0.138
Mof_H 	H 	0.43392	0.56608	0.83723	0.007
Mof_C 	C 	0.47417	0.52583	0.9279	-0.414
Mof_C 	C 	0.48877	0.51123	0.96511	0.651
Mof_C 	C 	0.11073	0.88927	0.19327	0.142
Mof_H 	H 	0.10058	0.89942	0.17057	0.006
Mof_C 	C 	0.14083	0.85917	0.26124	-0.436
Mof_C 	C 	0.15543	0.84457	0.29845	0.697
Mof_Cu	Cu	0.52348	0.47652	0.47162	0.904
Mof_Cu	Cu	0.19015	0.80985	0.80495	0.904
Mof_Cu	Cu	0.85682	0.14318	0.13829	0.904
Mof_Cu	Cu	0.52348	0.04696	0.47162	0.904
Mof_Cu	Cu	0.19015	0.3803	0.80495	0.904
Mof_Cu	Cu	0.85682	0.71363	0.13829	0.904
Mof_Cu	Cu	0.95304	0.47652	0.47162	0.904
Mof_Cu	Cu	0.6197	0.80985	0.80495	0.904
Mof_Cu	Cu	0.28637	0.14318	0.13829	0.904
Mof_Cu	Cu	0.47652	0.52348	0.52838	0.904
Mof_Cu	Cu	0.14318	0.85682	0.86171	0.904
Mof_Cu	Cu	0.80985	0.19015	0.19505	0.904
Mof_Cu	Cu	0.04696	0.52348	0.52838	0.904
Mof_Cu	Cu	0.71363	0.85682	0.86171	0.904
Mof_Cu	Cu	0.3803	0.19015	0.19505	0.904
Mof_Cu	Cu	0.47652	0.95304	0.52838	0.904
Mof_Cu	Cu	0.14318	0.28637	0.86171	0.904
Mof_Cu	Cu	0.80985	0.6197	0.19505	0.904
_end
