# CIF file generated by openbabel 3.1.0, see https://openbabel.org
data_I
_chemical_name_common 'CDLGLU02_clean'
_cell_length_a 7.247
_cell_length_b 10.718
_cell_length_c 11.545
_cell_angle_alpha 90
_cell_angle_beta 90
_cell_angle_gamma 90
_space_group_name_H-M_alt 'P 1'
_space_group_name_Hall 'P 1'
loop_
    _symmetry_equiv_pos_as_xyz
    x,y,z
loop_
    _atom_site_label
    _atom_site_type_symbol
    _atom_site_fract_x
    _atom_site_fract_y
    _atom_site_fract_z
    _atom_site_occupancy
    Cd1      Cd       0.61120    0.43390    0.46010    1.000
    C2       C        0.97000    0.28600    0.39900    1.000
    C3       C        0.07100    0.21800    0.30500    1.000
    C4       C        0.93400    0.16800    0.21100    1.000
    C5       C        0.80000    0.06500    0.26800    1.000
    C6       C        0.66200    0.02400    0.17800    1.000
    N7       N        0.18800    0.12700    0.35700    1.000
    O8       O        0.96900    0.25100    0.50300    1.000
    O9       O        0.86600    0.38200    0.36300    1.000
    O10      O        0.52100    0.95800    0.21400    1.000
    O11      O        0.68100    0.03800    0.07400    1.000
    Cd12     Cd       0.88880    0.56610    0.96010    1.000
    C13      C        0.53000    0.71400    0.89900    1.000
    C14      C        0.42900    0.78200    0.80500    1.000
    C15      C        0.56600    0.83200    0.71100    1.000
    C16      C        0.70000    0.93500    0.76800    1.000
    C17      C        0.83800    0.97600    0.67800    1.000
    N18      N        0.31200    0.87300    0.85700    1.000
    O19      O        0.53100    0.74900    0.00300    1.000
    O20      O        0.63400    0.61800    0.86300    1.000
    O21      O        0.97900    0.04200    0.71400    1.000
    O22      O        0.81900    0.96200    0.57400    1.000
    Cd23     Cd       0.38880    0.93390    0.03990    1.000
    C24      C        0.03000    0.78600    0.10100    1.000
    C25      C        0.92900    0.71800    0.19500    1.000
    C26      C        0.06600    0.66800    0.28900    1.000
    C27      C        0.20000    0.56500    0.23200    1.000
    C28      C        0.33800    0.52400    0.32200    1.000
    N29      N        0.81200    0.62700    0.14300    1.000
    O30      O        0.03100    0.75100    0.99700    1.000
    O31      O        0.13400    0.88200    0.13700    1.000
    O32      O        0.47900    0.45800    0.28600    1.000
    O33      O        0.31900    0.53800    0.42600    1.000
    Cd34     Cd       0.11120    0.06610    0.53990    1.000
    C35      C        0.47000    0.21400    0.60100    1.000
    C36      C        0.57100    0.28200    0.69500    1.000
    C37      C        0.43400    0.33200    0.78900    1.000
    C38      C        0.30000    0.43500    0.73200    1.000
    C39      C        0.16200    0.47600    0.82200    1.000
    N40      N        0.68800    0.37300    0.64300    1.000
    O41      O        0.46900    0.24900    0.49700    1.000
    O42      O        0.36600    0.11800    0.63700    1.000
    O43      O        0.02100    0.54200    0.78600    1.000
    O44      O        0.18100    0.46200    0.92600    1.000
    H45      H        0.16445    0.28888    0.26050    1.000
    H46      H        0.84773    0.24861    0.17611    1.000
    H47      H        0.72441    0.10737    0.34515    1.000
    H48      H        0.33555    0.71112    0.76050    1.000
    H49      H        0.48468    0.87612    0.63706    1.000
    H50      H        0.65227    0.75139    0.67611    1.000
    H51      H        0.77559    0.89263    0.84515    1.000
    H52      H        0.83555    0.78888    0.23950    1.000
    H53      H        0.15227    0.74861    0.32389    1.000
    H54      H        0.27559    0.60737    0.15485    1.000
    H55      H        0.11460    0.48170    0.20205    1.000
    H56      H        0.66445    0.21112    0.73950    1.000
    H57      H        0.51532    0.37612    0.86294    1.000
    H58      H        0.34773    0.25139    0.82389    1.000
    H59      H        0.22441    0.39263    0.65485    1.000
    H60      H        0.38540    0.51830    0.70205    1.000
    H61      H        0.61460    0.01830    0.79795    1.000
    H62      H        0.01532    0.12388    0.13706    1.000
    H63      H        0.98468    0.62388    0.36294    1.000
    H64      H        0.88540    0.98170    0.29795    1.000
    H65      H        0.19398    0.03103    0.32106    1.000
    H66      H        0.27316    0.15209    0.43345    1.000
    H67      H        0.16088    0.87004    0.84160    1.000
    H68      H        0.37199    0.94685    0.91291    1.000
    H69      H        0.87199    0.55315    0.08709    1.000
    H70      H        0.66088    0.62996    0.15840    1.000
    H71      H        0.82151    0.34438    0.60409    1.000
    H72      H        0.64562    0.47251    0.64141    1.000
