# CIF file generated by openbabel 3.1.0, see https://openbabel.org
data_I
_chemical_name_common 'image0'
_cell_length_a 7.0661
_cell_length_b 9.6778
_cell_length_c 11.6217
_cell_angle_alpha 106.326
_cell_angle_beta 97.843
_cell_angle_gamma 107.707
_space_group_name_H-M_alt 'P 1'
_space_group_name_Hall 'P 1'
loop_
    _symmetry_equiv_pos_as_xyz
    x,y,z
loop_
    _atom_site_label
    _atom_site_type_symbol
    _atom_site_fract_x
    _atom_site_fract_y
    _atom_site_fract_z
    _atom_site_occupancy
    V1       V        0.17095    0.13046    0.27722    1.000
    P1       P        0.22447    0.32769    0.15194    1.000
    P2       P        0.08136    0.23030    0.79726    1.000
    O1       O        0.30480    0.30770    0.87110    1.000
    O2       O        0.42850    0.41700    0.13354    1.000
    O3       O        0.22750    0.35170    0.29090    1.000
    O4       O        0.06170    0.19690    0.65881    1.000
    O5       O        0.17090    0.15050    0.10570    1.000
    O6       O        0.04900    0.36780    0.09460    1.000
    O7       O        0.96190    0.33690    0.84143    1.000
    O8       O        0.04310    0.13570    0.38690    1.000
    O9       O        0.98500    0.07880    0.82362    1.000
    O10      O        0.28650    0.58280    0.00855    1.000
    V2       V        0.82905    0.86954    0.72278    1.000
    P3       P        0.77553    0.67231    0.84806    1.000
    P4       P        0.91864    0.76970    0.20274    1.000
    O11      O        0.69520    0.69230    0.12890    1.000
    O12      O        0.57150    0.58300    0.86646    1.000
    O13      O        0.77250    0.64830    0.70910    1.000
    O14      O        0.93830    0.80310    0.34119    1.000
    O15      O        0.82910    0.84950    0.89430    1.000
    O16      O        0.95100    0.63220    0.90540    1.000
    O17      O        0.03810    0.66310    0.15857    1.000
    O18      O        0.95690    0.86430    0.61310    1.000
    O19      O        0.01500    0.92120    0.17638    1.000
    O20      O        0.71350    0.41720    0.99145    1.000
    Co1      Co       0.00000    0.00000    0.50000    1.000
    V3       V        0.00000    0.50000    0.00000    1.000
    V4       V        0.50000    0.50000    0.00000    1.000
