data_functionalizedCrystal
_audit_creation_method	'EQeq! by Chris Wilmer'
_symmetry_space_group_name_H-M	'P1'
_symmetry_Int_Tables_number	1
_symmetry_cell_setting	triclinic
loop_
_symmetry_equiv_pos_as_xyz
  x,y,z
_cell_length_a	10.895
_cell_length_b	13.052
_cell_length_c	13.536
_cell_angle_alpha	90
_cell_angle_beta	95.74
_cell_angle_gamma	90
loop_
_atom_site_label
_atom_site_type_symbol
_atom_site_fract_x
_atom_site_fract_y
_atom_site_fract_z
_atom_site_charge
Mof_Zn	Zn	0.70101	0.11975	0.17266	1.208
Mof_Zn	Zn	0.20101	0.38025	0.67266	1.208
Mof_H 	H 	0.922	0.7971	0.1163	0.09
Mof_H 	H 	0.9234	0.1806	0.5118	0.104
Mof_H 	H 	0.7355	0.0144	0.3747	-0.009
Mof_H 	H 	0.0306	0.2685	0.3467	0.096
Mof_H 	H 	0.422	0.7029	0.6163	0.09
Mof_H 	H 	0.5306	0.2315	0.8467	0.097
Mof_H 	H 	0.4514	0.0267	0.1725	-0.017
Mof_H 	H 	0.9226	0.6579	0.0089	0.074
Mof_H 	H 	0.8182	0.672	0.9178	0.074
Mof_H 	H 	0.3406	0.9175	0.2631	0.092
Mof_H 	H 	0.7486	0.0805	0.9572	-0.01
Mof_H 	H 	0.0318	0.1246	0.4604	0.111
Mof_H 	H 	0.8406	0.5825	0.7631	0.091
Mof_H 	H 	0.3398	0.5417	0.3663	0.093
Mof_H 	H 	0.4234	0.3194	0.0118	0.106
Mof_H 	H 	0.8398	0.9583	0.8663	0.093
Mof_H 	H 	0.2355	0.4856	0.8747	-0.009
Mof_H 	H 	0.9514	0.4733	0.6725	-0.017
Mof_H 	H 	0.4101	0.1902	0.8924	0.098
Mof_H 	H 	0.5425	0.7136	0.4414	0.076
Mof_H 	H 	0.3286	0.5779	0.7014	-0.009
Mof_H 	H 	0.0425	0.7864	0.9414	0.079
Mof_H 	H 	0.9101	0.3098	0.3924	0.098
Mof_H 	H 	0.129	0.592	0.9716	0.104
Mof_H 	H 	0.938	0.8006	0.8509	0.076
Mof_H 	H 	0.3182	0.828	0.4178	0.074
Mof_H 	H 	0.5318	0.3754	0.9604	0.114
Mof_H 	H 	0.629	0.908	0.4716	0.104
Mof_H 	H 	0.438	0.6994	0.3509	0.075
Mof_H 	H 	0.8286	0.9221	0.2014	-0.008
Mof_H 	H 	0.2486	0.4195	0.4572	-0.01
Mof_H 	H 	0.4226	0.8421	0.5089	0.074
Mof_C 	C 	0.3308	0.57013	0.63185	0.103
Mof_C 	C 	0.9081	0.67586	0.9377	-0.16
Mof_C 	C 	0.9525	0.78358	0.92235	-0.165
Mof_C 	C 	0.7842	0.02183	0.99037	0.099
Mof_C 	C 	0.3864	0.64511	0.58163	-0.181
Mof_C 	C 	0.3908	0.63674	0.48053	0.142
Mof_C 	C 	0.3766	0.31755	0.8052	0.345
Mof_C 	C 	0.9735	0.60065	0.87807	0.145
Mof_C 	C 	0.8864	0.85489	0.08163	-0.18
Mof_C 	C 	0.489	0.00106	0.23393	0.102
Mof_C 	C 	0.5897	0.24413	0.03526	0.362
Mof_C 	C 	0.0897	0.25587	0.53526	0.36
Mof_C 	C 	0.4081	0.82414	0.4377	-0.162
Mof_C 	C 	0.8385	0.94909	0.93577	-0.185
Mof_C 	C 	0.8908	0.86326	0.98053	0.143
Mof_C 	C 	0.5908	0.9306	0.40928	-0.19
Mof_C 	C 	0.9221	0.56344	0.78777	-0.191
Mof_C 	C 	0.6538	0.99447	0.35139	0.103
Mof_C 	C 	0.989	0.49894	0.73393	0.1
Mof_C 	C 	0.3385	0.55091	0.43577	-0.184
Mof_C 	C 	0.4959	0.30787	0.97447	-0.229
Mof_C 	C 	0.0908	0.5694	0.90928	-0.189
Mof_C 	C 	0.4525	0.71642	0.42235	-0.161
Mof_C 	C 	0.8308	0.92987	0.13185	0.101
Mof_C 	C 	0.4561	0.25288	0.87773	-0.206
Mof_C 	C 	0.2842	0.47817	0.49037	0.099
Mof_C 	C 	0.4221	0.93656	0.28777	-0.192
Mof_C 	C 	0.9959	0.19213	0.47447	-0.224
Mof_C 	C 	0.4735	0.89935	0.37807	0.147
Mof_C 	C 	0.9561	0.24712	0.37773	-0.206
Mof_C 	C 	0.8766	0.18245	0.3052	0.346
Mof_C 	C 	0.1538	0.50553	0.85139	0.104
Mof_N 	N 	0.60439	0.02958	0.26353	-0.271
Mof_N 	N 	0.27946	0.48666	0.58858	-0.279
Mof_N 	N 	0.77946	0.01334	0.08858	-0.277
Mof_N 	N 	0.10439	0.47042	0.76353	-0.271
Mof_O 	O 	0.28733	0.27399	0.75484	-0.459
Mof_O 	O 	0.89965	0.08986	0.296	-0.345
Mof_O 	O 	0.69802	0.24314	0.01614	-0.347
Mof_O 	O 	0.39965	0.41014	0.796	-0.346
Mof_O 	O 	0.55348	0.18921	0.10485	-0.455
Mof_O 	O 	0.78733	0.22601	0.25484	-0.459
Mof_O 	O 	0.19802	0.25686	0.51614	-0.347
Mof_O 	O 	0.05348	0.31079	0.60485	-0.454
Mof_Zn	Zn	0.29899	0.88025	0.82734	1.209
Mof_Zn	Zn	0.79899	0.61975	0.32734	1.209
Mof_H 	H 	0.078	0.2029	0.8837	0.091
Mof_H 	H 	0.0774	0.3421	0.9911	0.074
Mof_H 	H 	0.7645	0.5144	0.1253	-0.009
Mof_H 	H 	0.9694	0.7315	0.6533	0.097
Mof_H 	H 	0.1714	0.0779	0.7986	-0.008
Mof_H 	H 	0.0486	0.5267	0.3275	-0.017
Mof_H 	H 	0.1602	0.0417	0.1337	0.093
Mof_H 	H 	0.5774	0.1579	0.4911	0.074
Mof_H 	H 	0.4682	0.6246	0.0396	0.114
Mof_H 	H 	0.5486	0.9733	0.8275	-0.017
Mof_H 	H 	0.9575	0.2136	0.0586	0.079
Mof_H 	H 	0.6594	0.0825	0.7369	0.092
Mof_H 	H 	0.1594	0.4175	0.2369	0.091
Mof_H 	H 	0.062	0.1994	0.1491	0.076
Mof_H 	H 	0.2514	0.9195	0.0428	-0.01
Mof_H 	H 	0.6818	0.172	0.5822	0.074
Mof_H 	H 	0.2645	0.9856	0.6253	-0.008
Mof_H 	H 	0.871	0.408	0.0284	0.104
Mof_H 	H 	0.9682	0.8754	0.5396	0.111
Mof_H 	H 	0.4575	0.2864	0.5586	0.076
Mof_H 	H 	0.5899	0.8098	0.1076	0.098
Mof_H 	H 	0.562	0.3006	0.6491	0.075
Mof_H 	H 	0.6714	0.4221	0.2986	-0.009
Mof_H 	H 	0.371	0.092	0.5284	0.104
Mof_H 	H 	0.6602	0.4583	0.6337	0.093
Mof_H 	H 	0.1818	0.328	0.0822	0.074
Mof_H 	H 	0.7514	0.5805	0.5428	-0.01
Mof_H 	H 	0.0899	0.6902	0.6076	0.098
Mof_H 	H 	0.5766	0.6806	0.9882	0.106
Mof_H 	H 	0.578	0.2971	0.3837	0.091
Mof_H 	H 	0.0766	0.8194	0.4882	0.105
Mof_H 	H 	0.4694	0.7685	0.1533	0.098
Mof_C 	C 	0.0475	0.21642	0.07765	-0.165
Mof_C 	C 	0.1136	0.14511	0.91837	-0.18
Mof_C 	C 	0.6234	0.68245	0.1948	0.345
Mof_C 	C 	0.1234	0.81755	0.6948	0.346
Mof_C 	C 	0.5475	0.28358	0.57765	-0.161
Mof_C 	C 	0.0041	0.80787	0.52553	-0.224
Mof_C 	C 	0.0919	0.32414	0.0623	-0.16
Mof_C 	C 	0.0779	0.43656	0.21223	-0.191
Mof_C 	C 	0.5265	0.10065	0.62193	0.147
Mof_C 	C 	0.2158	0.97817	0.00963	0.099
Mof_C 	C 	0.6692	0.42987	0.36815	0.103
Mof_C 	C 	0.3462	0.00553	0.64861	0.103
Mof_C 	C 	0.5041	0.69213	0.02553	-0.229
Mof_C 	C 	0.5439	0.74712	0.12227	-0.206
Mof_C 	C 	0.011	0.50106	0.26607	0.1
Mof_C 	C 	0.9092	0.4306	0.09072	-0.189
Mof_C 	C 	0.1092	0.13674	0.01947	0.143
Mof_C 	C 	0.1692	0.07013	0.86815	0.101
Mof_C 	C 	0.0265	0.39935	0.12193	0.145
Mof_C 	C 	0.8462	0.49447	0.14861	0.104
Mof_C 	C 	0.4092	0.0694	0.59072	-0.19
Mof_C 	C 	0.0439	0.75288	0.62227	-0.206
Mof_C 	C 	0.7158	0.52183	0.50963	0.099
Mof_C 	C 	0.6092	0.36326	0.51947	0.142
Mof_C 	C 	0.6136	0.35489	0.41837	-0.181
Mof_C 	C 	0.511	0.99894	0.76607	0.102
Mof_C 	C 	0.6615	0.44909	0.56423	-0.184
Mof_C 	C 	0.4103	0.75587	0.96474	0.362
Mof_C 	C 	0.5919	0.17586	0.5623	-0.162
Mof_C 	C 	0.9103	0.74413	0.46474	0.36
Mof_C 	C 	0.5779	0.06344	0.71223	-0.192
Mof_C 	C 	0.1615	0.05091	0.06423	-0.185
Mof_N 	N 	0.72054	0.51334	0.41142	-0.279
Mof_N 	N 	0.89561	0.52958	0.23647	-0.271
Mof_N 	N 	0.22054	0.98666	0.91142	-0.277
Mof_N 	N 	0.39561	0.97042	0.73647	-0.271
Mof_O 	O 	0.80198	0.74314	0.48386	-0.347
Mof_O 	O 	0.10035	0.91014	0.704	-0.345
Mof_O 	O 	0.21267	0.77399	0.74516	-0.459
Mof_O 	O 	0.44652	0.81079	0.89515	-0.455
Mof_O 	O 	0.71267	0.72601	0.24516	-0.459
Mof_O 	O 	0.94652	0.68921	0.39515	-0.454
Mof_O 	O 	0.60035	0.58986	0.204	-0.346
Mof_O 	O 	0.30198	0.75686	0.98386	-0.347
_end
