data_functionalizedCrystal
_audit_creation_method	'EQeq! by Chris Wilmer'
_symmetry_space_group_name_H-M	'P1'
_symmetry_Int_Tables_number	1
_symmetry_cell_setting	triclinic
loop_
_symmetry_equiv_pos_as_xyz
  x,y,z
_cell_length_a	25.0213
_cell_length_b	9.3011
_cell_length_c	15.9564
_cell_angle_alpha	90
_cell_angle_beta	109.683
_cell_angle_gamma	90
loop_
_atom_site_label
_atom_site_type_symbol
_atom_site_fract_x
_atom_site_fract_y
_atom_site_fract_z
_atom_site_charge
Mof_N 	N 	0.01104	0.4469	0.02302	-0.188
Mof_N 	N 	0.171	0.3307	0.01268	-0.513
Mof_N 	N 	0.0135	0.3365	0.2463	0.467
Mof_O 	O 	0.0608	0.4043	0.2584	0.988
Mof_O 	O 	0.0277	0.4018	0.2457	-0.939
Mof_O 	O 	0.0132	0.2119	0.2242	0.086
Mof_C 	C 	0.15506	0.299	0.0826	1.405
Mof_H 	H 	0.181	0.2489	0.1312	-0.32
Mof_C 	C 	0.10266	0.3355	0.0876	-2.55
Mof_H 	H 	0.0923	0.3088	0.1375	3.46
Mof_C 	C 	0.06574	0.4124	0.0173	1.233
Mof_C 	C 	0.08162	0.4489	0.9446	-0.776
Mof_H 	H 	0.0571	0.5026	0.8963	0.415
Mof_C 	C 	0.13396	0.4046	0.945	0.604
Mof_H 	H 	0.1448	0.4272	0.8949	-0.091
Mof_Cl	Cl	0.0905	0.2968	0.1796	-3.721
Mof_N 	N 	0.51104	0.9469	0.02302	-0.191
Mof_N 	N 	0.671	0.8307	0.01268	-0.514
Mof_N 	N 	0.5135	0.8365	0.2463	0.465
Mof_O 	O 	0.5608	0.9043	0.2584	0.989
Mof_O 	O 	0.5277	0.9018	0.2457	-0.942
Mof_O 	O 	0.5132	0.7119	0.2242	0.083
Mof_C 	C 	0.65506	0.799	0.0826	1.403
Mof_H 	H 	0.681	0.7489	0.1312	-0.32
Mof_C 	C 	0.60266	0.8355	0.0876	-2.548
Mof_H 	H 	0.5923	0.8088	0.1375	3.459
Mof_C 	C 	0.56574	0.9124	0.0173	1.227
Mof_C 	C 	0.58162	0.9489	0.9446	-0.767
Mof_H 	H 	0.5571	0.0026	0.8963	0.409
Mof_C 	C 	0.63396	0.9046	0.945	0.603
Mof_H 	H 	0.6448	0.9272	0.8949	-0.09
Mof_Cl	Cl	0.5905	0.7968	0.1796	-3.722
Mof_N 	N 	0.98896	0.4469	0.47698	-0.178
Mof_N 	N 	0.829	0.3307	0.48732	-0.502
Mof_N 	N 	0.9865	0.3365	0.2537	0.463
Mof_O 	O 	0.9392	0.4043	0.2416	0.995
Mof_O 	O 	0.9723	0.4018	0.2543	-0.945
Mof_O 	O 	0.9868	0.2119	0.2758	0.086
Mof_C 	C 	0.84494	0.299	0.4174	1.441
Mof_H 	H 	0.819	0.2489	0.3688	-0.331
Mof_C 	C 	0.89734	0.3355	0.4124	-2.601
Mof_H 	H 	0.9077	0.3088	0.3625	3.505
Mof_C 	C 	0.93426	0.4124	0.4827	1.31
Mof_C 	C 	0.91838	0.4489	0.5554	-0.851
Mof_H 	H 	0.9429	0.5026	0.6037	0.43
Mof_C 	C 	0.86604	0.4046	0.555	0.583
Mof_H 	H 	0.8552	0.4272	0.6051	-0.096
Mof_Cl	Cl	0.9095	0.2968	0.3204	-3.76
Mof_N 	N 	0.48896	0.9469	0.47698	-0.176
Mof_N 	N 	0.329	0.8307	0.48732	-0.502
Mof_N 	N 	0.4865	0.8365	0.2537	0.463
Mof_O 	O 	0.4392	0.9043	0.2416	0.992
Mof_O 	O 	0.4723	0.9018	0.2543	-0.941
Mof_O 	O 	0.4868	0.7119	0.2758	0.089
Mof_C 	C 	0.34494	0.799	0.4174	1.441
Mof_H 	H 	0.319	0.7489	0.3688	-0.331
Mof_C 	C 	0.39734	0.8355	0.4124	-2.601
Mof_H 	H 	0.4077	0.8088	0.3625	3.505
Mof_C 	C 	0.43426	0.9124	0.4827	1.31
Mof_C 	C 	0.41838	0.9489	0.5554	-0.85
Mof_H 	H 	0.4429	0.0026	0.6037	0.431
Mof_C 	C 	0.36604	0.9046	0.555	0.583
Mof_H 	H 	0.3552	0.9272	0.6051	-0.095
Mof_Cl	Cl	0.4095	0.7968	0.3204	-3.76
Mof_N 	N 	0.98896	0.5531	0.97698	-0.161
Mof_N 	N 	0.829	0.6693	0.98732	-0.463
Mof_N 	N 	0.9865	0.6635	0.7537	0.462
Mof_O 	O 	0.9392	0.5957	0.7416	0.996
Mof_O 	O 	0.9723	0.5982	0.7543	-0.941
Mof_O 	O 	0.9868	0.7881	0.7758	0.093
Mof_C 	C 	0.84494	0.701	0.9174	1.459
Mof_H 	H 	0.819	0.7511	0.8688	-0.325
Mof_C 	C 	0.89734	0.6645	0.9124	-2.613
Mof_H 	H 	0.9077	0.6912	0.8625	3.503
Mof_C 	C 	0.93426	0.5876	0.9827	1.374
Mof_C 	C 	0.91838	0.5511	0.0554	-0.913
Mof_H 	H 	0.9429	0.4974	0.1037	0.444
Mof_C 	C 	0.86604	0.5954	0.055	0.555
Mof_H 	H 	0.8552	0.5728	0.1051	-0.092
Mof_Cl	Cl	0.9095	0.7032	0.8204	-3.745
Mof_N 	N 	0.48896	0.0531	0.97698	-0.157
Mof_N 	N 	0.329	0.1693	0.98732	-0.464
Mof_N 	N 	0.4865	0.1635	0.7537	0.462
Mof_O 	O 	0.4392	0.0957	0.7416	0.992
Mof_O 	O 	0.4723	0.0982	0.7543	-0.936
Mof_O 	O 	0.4868	0.2881	0.7758	0.096
Mof_C 	C 	0.34494	0.201	0.9174	1.453
Mof_H 	H 	0.319	0.2511	0.8688	-0.323
Mof_C 	C 	0.39734	0.1645	0.9124	-2.602
Mof_H 	H 	0.4077	0.1912	0.8625	3.493
Mof_C 	C 	0.43426	0.0876	0.9827	1.365
Mof_C 	C 	0.41838	0.0511	0.0554	-0.898
Mof_H 	H 	0.4429	0.9974	0.1037	0.438
Mof_C 	C 	0.36604	0.0954	0.055	0.552
Mof_H 	H 	0.3552	0.0728	0.1051	-0.09
Mof_Cl	Cl	0.4095	0.2032	0.8204	-3.734
Mof_N 	N 	0.01104	0.5531	0.52302	-0.172
Mof_N 	N 	0.171	0.6693	0.51268	-0.498
Mof_N 	N 	0.0135	0.6635	0.7463	0.462
Mof_O 	O 	0.0608	0.5957	0.7584	0.989
Mof_O 	O 	0.0277	0.5982	0.7457	-0.931
Mof_O 	O 	0.0132	0.7881	0.7242	0.093
Mof_C 	C 	0.15506	0.701	0.5826	1.422
Mof_H 	H 	0.181	0.7511	0.6312	-0.321
Mof_C 	C 	0.10266	0.6645	0.5876	-2.562
Mof_H 	H 	0.0923	0.6912	0.6375	3.455
Mof_C 	C 	0.06574	0.5876	0.5173	1.295
Mof_C 	C 	0.08162	0.5511	0.4446	-0.842
Mof_H 	H 	0.0571	0.4974	0.3963	0.428
Mof_C 	C 	0.13396	0.5954	0.445	0.577
Mof_H 	H 	0.1448	0.5728	0.3949	-0.097
Mof_Cl	Cl	0.0905	0.7032	0.6796	-3.701
Mof_N 	N 	0.51104	0.0531	0.52302	-0.173
Mof_N 	N 	0.671	0.1693	0.51268	-0.498
Mof_N 	N 	0.5135	0.1635	0.7463	0.461
Mof_O 	O 	0.5608	0.0957	0.7584	0.99
Mof_O 	O 	0.5277	0.0982	0.7457	-0.934
Mof_O 	O 	0.5132	0.2881	0.7242	0.09
Mof_C 	C 	0.65506	0.201	0.5826	1.422
Mof_H 	H 	0.681	0.2511	0.6312	-0.321
Mof_C 	C 	0.60266	0.1645	0.5876	-2.563
Mof_H 	H 	0.5923	0.1912	0.6375	3.457
Mof_C 	C 	0.56574	0.0876	0.5173	1.294
Mof_C 	C 	0.58162	0.0511	0.4446	-0.839
Mof_H 	H 	0.5571	0.9974	0.3963	0.426
Mof_C 	C 	0.63396	0.0954	0.445	0.576
Mof_H 	H 	0.6448	0.0728	0.3949	-0.096
Mof_Cl	Cl	0.5905	0.2032	0.6796	-3.703
Mof_Ag	Ag	0.25	0.25	-0	0.799
Mof_Ag	Ag	0.75	0.25	0.5	0.865
Mof_Ag	Ag	0.75	0.75	-0	0.794
Mof_Ag	Ag	0.25	0.75	0.5	0.865
_end
