# CIF file generated by openbabel 3.1.0, see https://openbabel.org
data_I
_chemical_name_common 'IFEPUG_clean'
_cell_length_a 26.772
_cell_length_b 26.772
_cell_length_c 5.0662
_cell_angle_alpha 90
_cell_angle_beta 90
_cell_angle_gamma 90
_space_group_name_H-M_alt 'P 1'
_space_group_name_Hall 'P 1'
loop_
    _symmetry_equiv_pos_as_xyz
    x,y,z
loop_
    _atom_site_label
    _atom_site_type_symbol
    _atom_site_fract_x
    _atom_site_fract_y
    _atom_site_fract_z
    _atom_site_occupancy
    Zn1      Zn       0.21308    0.22922    0.70829    1.000
    H2       H        0.10660    0.20770    0.94190    1.000
    H3       H        0.18010    0.31260    0.29050    1.000
    H4       H        0.17240    0.37820    0.94370    1.000
    H5       H        0.12420    0.43590    0.71220    1.000
    H6       H        0.03930    0.44740    0.82430    1.000
    H7       H        0.00240    0.40040    0.14750    1.000
    H8       H        0.00670    0.33120    0.47910    1.000
    H9       H        0.03770    0.22250    0.21420    1.000
    H10      H        0.95950    0.20090    0.39430    1.000
    H11      H        0.89240    0.23750    0.70760    1.000
    H12      H        0.97040    0.25670    0.52380    1.000
    C13      C        0.10368    0.23377    0.81570    1.000
    C14      C        0.12192    0.28824    0.51460    1.000
    C15      C        0.14553    0.31670    0.32620    1.000
    C16      C        0.11667    0.35218    0.18760    1.000
    C17      C        0.13800    0.38204    0.98590    1.000
    C18      C        0.10957    0.41664    0.84940    1.000
    C19      C        0.05856    0.42310    0.91560    1.000
    C20      C        0.03663    0.39527    0.10700    1.000
    C21      C        0.06437    0.35820    0.24870    1.000
    C22      C        0.04126    0.32786    0.43940    1.000
    C23      C        0.07051    0.29310    0.56640    1.000
    C24      C        0.01195    0.24239    0.86060    1.000
    C25      C        0.91952    0.21381    0.05060    1.000
    C26      C        0.86981    0.19891    0.16440    1.000
    C27      C        0.00850    0.22530    0.10930    1.000
    C28      C        0.96220    0.21150    0.21590    1.000
    C29      C        0.92200    0.23280    0.80770    1.000
    C30      C        0.96810    0.24570    0.70170    1.000
    N31      N        0.14148    0.25085    0.67860    1.000
    N32      N        0.05991    0.25707    0.75920    1.000
    O33      O        0.25080    0.28115    0.88610    1.000
    O34      O        0.83166    0.21955    0.07390    1.000
    O35      O        0.86850    0.18330    0.41060    1.000
    H36      H        0.31850    0.75667    0.11390    1.000
    Zn37     Zn       0.71308    0.72922    0.20829    1.000
    H38      H        0.60660    0.70770    0.44190    1.000
    H39      H        0.68010    0.81260    0.79050    1.000
    H40      H        0.67240    0.87820    0.44370    1.000
    H41      H        0.62420    0.93590    0.21220    1.000
    H42      H        0.53930    0.94740    0.32430    1.000
    H43      H        0.50240    0.90040    0.64750    1.000
    H44      H        0.50670    0.83120    0.97910    1.000
    H45      H        0.53770    0.72250    0.71420    1.000
    H46      H        0.45950    0.70090    0.89430    1.000
    H47      H        0.39240    0.73750    0.20760    1.000
    H48      H        0.47040    0.75670    0.02380    1.000
    C49      C        0.60368    0.73377    0.31570    1.000
    C50      C        0.62192    0.78824    0.01460    1.000
    C51      C        0.64553    0.81670    0.82620    1.000
    C52      C        0.61667    0.85218    0.68760    1.000
    C53      C        0.63800    0.88204    0.48590    1.000
    C54      C        0.60957    0.91664    0.34940    1.000
    C55      C        0.55856    0.92310    0.41560    1.000
    C56      C        0.53663    0.89527    0.60700    1.000
    C57      C        0.56437    0.85820    0.74870    1.000
    C58      C        0.54126    0.82786    0.93940    1.000
    C59      C        0.57051    0.79310    0.06640    1.000
    C60      C        0.51195    0.74239    0.36060    1.000
    C61      C        0.41952    0.71381    0.55060    1.000
    C62      C        0.36981    0.69891    0.66440    1.000
    C63      C        0.50850    0.72530    0.60930    1.000
    C64      C        0.46220    0.71150    0.71590    1.000
    C65      C        0.42200    0.73280    0.30770    1.000
    C66      C        0.46810    0.74570    0.20170    1.000
    N67      N        0.64148    0.75085    0.17860    1.000
    N68      N        0.55991    0.75707    0.25920    1.000
    O69      O        0.75080    0.78115    0.38610    1.000
    O70      O        0.33166    0.71955    0.57390    1.000
    O71      O        0.36850    0.68330    0.91060    1.000
    H72      H        0.81850    0.25667    0.61390    1.000
    Zn73     Zn       0.78692    0.77078    0.70829    1.000
    H74      H        0.89340    0.79230    0.94190    1.000
    H75      H        0.81990    0.68740    0.29050    1.000
    H76      H        0.82760    0.62180    0.94370    1.000
    H77      H        0.87580    0.56410    0.71220    1.000
    H78      H        0.96070    0.55260    0.82430    1.000
    H79      H        0.99760    0.59960    0.14750    1.000
    H80      H        0.99330    0.66880    0.47910    1.000
    H81      H        0.96230    0.77750    0.21420    1.000
    H82      H        0.04050    0.79910    0.39430    1.000
    H83      H        0.10760    0.76250    0.70760    1.000
    H84      H        0.02960    0.74330    0.52380    1.000
    C85      C        0.89632    0.76623    0.81570    1.000
    C86      C        0.87808    0.71176    0.51460    1.000
    C87      C        0.85447    0.68330    0.32620    1.000
    C88      C        0.88333    0.64782    0.18760    1.000
    C89      C        0.86200    0.61796    0.98590    1.000
    C90      C        0.89043    0.58336    0.84940    1.000
    C91      C        0.94144    0.57690    0.91560    1.000
    C92      C        0.96337    0.60473    0.10700    1.000
    C93      C        0.93563    0.64180    0.24870    1.000
    C94      C        0.95874    0.67214    0.43940    1.000
    C95      C        0.92949    0.70690    0.56640    1.000
    C96      C        0.98805    0.75761    0.86060    1.000
    C97      C        0.08048    0.78619    0.05060    1.000
    C98      C        0.13019    0.80109    0.16440    1.000
    C99      C        0.99150    0.77470    0.10930    1.000
    C100     C        0.03780    0.78850    0.21590    1.000
    C101     C        0.07800    0.76720    0.80770    1.000
    C102     C        0.03190    0.75430    0.70170    1.000
    N103     N        0.85852    0.74915    0.67860    1.000
    N104     N        0.94009    0.74293    0.75920    1.000
    O105     O        0.74920    0.71885    0.88610    1.000
    O106     O        0.16834    0.78045    0.07390    1.000
    O107     O        0.13150    0.81670    0.41060    1.000
    H108     H        0.68150    0.24333    0.11390    1.000
    Zn109    Zn       0.28692    0.27078    0.20829    1.000
    H110     H        0.39340    0.29230    0.44190    1.000
    H111     H        0.31990    0.18740    0.79050    1.000
    H112     H        0.32760    0.12180    0.44370    1.000
    H113     H        0.37580    0.06410    0.21220    1.000
    H114     H        0.46070    0.05260    0.32430    1.000
    H115     H        0.49760    0.09960    0.64750    1.000
    H116     H        0.49330    0.16880    0.97910    1.000
    H117     H        0.46230    0.27750    0.71420    1.000
    H118     H        0.54050    0.29910    0.89430    1.000
    H119     H        0.60760    0.26250    0.20760    1.000
    H120     H        0.52960    0.24330    0.02380    1.000
    C121     C        0.39632    0.26623    0.31570    1.000
    C122     C        0.37808    0.21176    0.01460    1.000
    C123     C        0.35447    0.18330    0.82620    1.000
    C124     C        0.38333    0.14782    0.68760    1.000
    C125     C        0.36200    0.11796    0.48590    1.000
    C126     C        0.39043    0.08336    0.34940    1.000
    C127     C        0.44144    0.07690    0.41560    1.000
    C128     C        0.46337    0.10473    0.60700    1.000
    C129     C        0.43563    0.14180    0.74870    1.000
    C130     C        0.45874    0.17214    0.93940    1.000
    C131     C        0.42949    0.20690    0.06640    1.000
    C132     C        0.48805    0.25761    0.36060    1.000
    C133     C        0.58048    0.28619    0.55060    1.000
    C134     C        0.63019    0.30109    0.66440    1.000
    C135     C        0.49150    0.27470    0.60930    1.000
    C136     C        0.53780    0.28850    0.71590    1.000
    C137     C        0.57800    0.26720    0.30770    1.000
    C138     C        0.53190    0.25430    0.20170    1.000
    N139     N        0.35852    0.24915    0.17860    1.000
    N140     N        0.44009    0.24293    0.25920    1.000
    O141     O        0.24920    0.21885    0.38610    1.000
    O142     O        0.66834    0.28045    0.57390    1.000
    O143     O        0.63150    0.31670    0.91060    1.000
    H144     H        0.18150    0.74333    0.61390    1.000
    Zn145    Zn       0.22922    0.78692    0.29171    1.000
    H146     H        0.20770    0.89340    0.05810    1.000
    H147     H        0.31260    0.81990    0.70950    1.000
    H148     H        0.37820    0.82760    0.05630    1.000
    H149     H        0.43590    0.87580    0.28780    1.000
    H150     H        0.44740    0.96070    0.17570    1.000
    H151     H        0.40040    0.99760    0.85250    1.000
    H152     H        0.33120    0.99330    0.52090    1.000
    H153     H        0.22250    0.96230    0.78580    1.000
    H154     H        0.20090    0.04050    0.60570    1.000
    H155     H        0.23750    0.10760    0.29240    1.000
    H156     H        0.25670    0.02960    0.47620    1.000
    C157     C        0.23377    0.89632    0.18430    1.000
    C158     C        0.28824    0.87808    0.48540    1.000
    C159     C        0.31670    0.85447    0.67380    1.000
    C160     C        0.35218    0.88333    0.81240    1.000
    C161     C        0.38204    0.86200    0.01410    1.000
    C162     C        0.41664    0.89043    0.15060    1.000
    C163     C        0.42310    0.94144    0.08440    1.000
    C164     C        0.39527    0.96337    0.89300    1.000
    C165     C        0.35820    0.93563    0.75130    1.000
    C166     C        0.32786    0.95874    0.56060    1.000
    C167     C        0.29310    0.92949    0.43360    1.000
    C168     C        0.24239    0.98805    0.13940    1.000
    C169     C        0.21381    0.08048    0.94940    1.000
    C170     C        0.19891    0.13019    0.83560    1.000
    C171     C        0.22530    0.99150    0.89070    1.000
    C172     C        0.21150    0.03780    0.78410    1.000
    C173     C        0.23280    0.07800    0.19230    1.000
    C174     C        0.24570    0.03190    0.29830    1.000
    N175     N        0.25085    0.85852    0.32140    1.000
    N176     N        0.25707    0.94009    0.24080    1.000
    O177     O        0.28115    0.74920    0.11390    1.000
    O178     O        0.21955    0.16834    0.92610    1.000
    O179     O        0.18330    0.13150    0.58940    1.000
    H180     H        0.75667    0.68150    0.88610    1.000
    Zn181    Zn       0.72922    0.28692    0.79171    1.000
    H182     H        0.70770    0.39340    0.55810    1.000
    H183     H        0.81260    0.31990    0.20950    1.000
    H184     H        0.87820    0.32760    0.55630    1.000
    H185     H        0.93590    0.37580    0.78780    1.000
    H186     H        0.94740    0.46070    0.67570    1.000
    H187     H        0.90040    0.49760    0.35250    1.000
    H188     H        0.83120    0.49330    0.02090    1.000
    H189     H        0.72250    0.46230    0.28580    1.000
    H190     H        0.70090    0.54050    0.10570    1.000
    H191     H        0.73750    0.60760    0.79240    1.000
    H192     H        0.75670    0.52960    0.97620    1.000
    C193     C        0.73377    0.39632    0.68430    1.000
    C194     C        0.78824    0.37808    0.98540    1.000
    C195     C        0.81670    0.35447    0.17380    1.000
    C196     C        0.85218    0.38333    0.31240    1.000
    C197     C        0.88204    0.36200    0.51410    1.000
    C198     C        0.91664    0.39043    0.65060    1.000
    C199     C        0.92310    0.44144    0.58440    1.000
    C200     C        0.89527    0.46337    0.39300    1.000
    C201     C        0.85820    0.43563    0.25130    1.000
    C202     C        0.82786    0.45874    0.06060    1.000
    C203     C        0.79310    0.42949    0.93360    1.000
    C204     C        0.74239    0.48805    0.63940    1.000
    C205     C        0.71381    0.58048    0.44940    1.000
    C206     C        0.69891    0.63019    0.33560    1.000
    C207     C        0.72530    0.49150    0.39070    1.000
    C208     C        0.71150    0.53780    0.28410    1.000
    C209     C        0.73280    0.57800    0.69230    1.000
    C210     C        0.74570    0.53190    0.79830    1.000
    N211     N        0.75085    0.35852    0.82140    1.000
    N212     N        0.75707    0.44009    0.74080    1.000
    O213     O        0.78115    0.24920    0.61390    1.000
    O214     O        0.71955    0.66834    0.42610    1.000
    O215     O        0.68330    0.63150    0.08940    1.000
    H216     H        0.25667    0.18150    0.38610    1.000
    Zn217    Zn       0.77078    0.21308    0.29171    1.000
    H218     H        0.79230    0.10660    0.05810    1.000
    H219     H        0.68740    0.18010    0.70950    1.000
    H220     H        0.62180    0.17240    0.05630    1.000
    H221     H        0.56410    0.12420    0.28780    1.000
    H222     H        0.55260    0.03930    0.17570    1.000
    H223     H        0.59960    0.00240    0.85250    1.000
    H224     H        0.66880    0.00670    0.52090    1.000
    H225     H        0.77750    0.03770    0.78580    1.000
    H226     H        0.79910    0.95950    0.60570    1.000
    H227     H        0.76250    0.89240    0.29240    1.000
    H228     H        0.74330    0.97040    0.47620    1.000
    C229     C        0.76623    0.10368    0.18430    1.000
    C230     C        0.71176    0.12192    0.48540    1.000
    C231     C        0.68330    0.14553    0.67380    1.000
    C232     C        0.64782    0.11667    0.81240    1.000
    C233     C        0.61796    0.13800    0.01410    1.000
    C234     C        0.58336    0.10957    0.15060    1.000
    C235     C        0.57690    0.05856    0.08440    1.000
    C236     C        0.60473    0.03663    0.89300    1.000
    C237     C        0.64180    0.06437    0.75130    1.000
    C238     C        0.67214    0.04126    0.56060    1.000
    C239     C        0.70690    0.07051    0.43360    1.000
    C240     C        0.75761    0.01195    0.13940    1.000
    C241     C        0.78619    0.91952    0.94940    1.000
    C242     C        0.80109    0.86981    0.83560    1.000
    C243     C        0.77470    0.00850    0.89070    1.000
    C244     C        0.78850    0.96220    0.78410    1.000
    C245     C        0.76720    0.92200    0.19230    1.000
    C246     C        0.75430    0.96810    0.29830    1.000
    N247     N        0.74915    0.14148    0.32140    1.000
    N248     N        0.74293    0.05991    0.24080    1.000
    O249     O        0.71885    0.25080    0.11390    1.000
    O250     O        0.78045    0.83166    0.92610    1.000
    O251     O        0.81670    0.86850    0.58940    1.000
    H252     H        0.24333    0.31850    0.88610    1.000
    Zn253    Zn       0.27078    0.71308    0.79171    1.000
    H254     H        0.29230    0.60660    0.55810    1.000
    H255     H        0.18740    0.68010    0.20950    1.000
    H256     H        0.12180    0.67240    0.55630    1.000
    H257     H        0.06410    0.62420    0.78780    1.000
    H258     H        0.05260    0.53930    0.67570    1.000
    H259     H        0.09960    0.50240    0.35250    1.000
    H260     H        0.16880    0.50670    0.02090    1.000
    H261     H        0.27750    0.53770    0.28580    1.000
    H262     H        0.29910    0.45950    0.10570    1.000
    H263     H        0.26250    0.39240    0.79240    1.000
    H264     H        0.24330    0.47040    0.97620    1.000
    C265     C        0.26623    0.60368    0.68430    1.000
    C266     C        0.21176    0.62192    0.98540    1.000
    C267     C        0.18330    0.64553    0.17380    1.000
    C268     C        0.14782    0.61667    0.31240    1.000
    C269     C        0.11796    0.63800    0.51410    1.000
    C270     C        0.08336    0.60957    0.65060    1.000
    C271     C        0.07690    0.55856    0.58440    1.000
    C272     C        0.10473    0.53663    0.39300    1.000
    C273     C        0.14180    0.56437    0.25130    1.000
    C274     C        0.17214    0.54126    0.06060    1.000
    C275     C        0.20690    0.57051    0.93360    1.000
    C276     C        0.25761    0.51195    0.63940    1.000
    C277     C        0.28619    0.41952    0.44940    1.000
    C278     C        0.30109    0.36981    0.33560    1.000
    C279     C        0.27470    0.50850    0.39070    1.000
    C280     C        0.28850    0.46220    0.28410    1.000
    C281     C        0.26720    0.42200    0.69230    1.000
    C282     C        0.25430    0.46810    0.79830    1.000
    N283     N        0.24915    0.64148    0.82140    1.000
    N284     N        0.24293    0.55991    0.74080    1.000
    O285     O        0.21885    0.75080    0.61390    1.000
    O286     O        0.28045    0.33166    0.42610    1.000
    O287     O        0.31670    0.36850    0.08940    1.000
    H288     H        0.74333    0.81850    0.38610    1.000
