# CIF file generated by openbabel 3.1.0, see https://openbabel.org
data_I
_chemical_name_common 'image0'
_cell_length_a 38.03
_cell_length_b 10.0098
_cell_length_c 26.423
_cell_angle_alpha 90
_cell_angle_beta 125.589
_cell_angle_gamma 90
_space_group_name_H-M_alt 'P 1'
_space_group_name_Hall 'P 1'
loop_
    _symmetry_equiv_pos_as_xyz
    x,y,z
loop_
    _atom_site_label
    _atom_site_type_symbol
    _atom_site_fract_x
    _atom_site_fract_y
    _atom_site_fract_z
    _atom_site_occupancy
    Zn1      Zn       0.83734    0.66779    0.29160    1.000
    Zn2      Zn       0.88609    0.96437    0.41558    1.000
    C1       C        0.07079    0.72050    0.08420    1.000
    C2       C        0.02774    0.66110    0.06120    1.000
    C3       C        0.02565    0.53680    0.08250    1.000
    H1       H        0.05070    0.48850    0.10990    1.000
    C4       C        0.98530    0.48530    0.06210    1.000
    C5       C        0.94775    0.55840    0.02180    1.000
    H2       H        0.92100    0.52510    0.00920    1.000
    C6       C        0.95093    0.68330    0.00050    1.000
    C7       C        0.99084    0.73290    0.02030    1.000
    H3       H        0.99280    0.81530    0.00580    1.000
    C8       C        0.91170    0.76740    0.95980    1.000
    C9       C        0.01460    0.28590    0.12260    1.000
    H4       H        0.03180    0.33390    0.16180    1.000
    H5       H        0.03230    0.26870    0.10790    1.000
    C10      C        0.99850    0.15670    0.13120    1.000
    C11      C        0.97270    0.15510    0.15320    1.000
    H6       H        0.96540    0.23540    0.16250    1.000
    C12      C        0.95790    0.03730    0.16110    1.000
    C13      C        0.97100    0.92090    0.14980    1.000
    H7       H        0.96150    0.84030    0.15530    1.000
    C14      C        0.99700    0.91850    0.13100    1.000
    H8       H        0.00540    0.83690    0.12430    1.000
    C15      C        0.01200    0.03880    0.12130    1.000
    H9       H        0.03030    0.03780    0.10870    1.000
    C16      C        0.92950    0.02980    0.18250    1.000
    H10      H        0.90470    0.97400    0.15410    1.000
    H11      H        0.94530    0.98820    0.22330    1.000
    C17      C        0.89430    0.16170    0.21530    1.000
    C18      C        0.88550    0.28910    0.22590    1.000
    H12      H        0.89270    0.36340    0.21260    1.000
    C19      C        0.86610    0.30580    0.25640    1.000
    C20      C        0.85650    0.19340    0.27720    1.000
    H13      H        0.84410    0.20370    0.29870    1.000
    C21      C        0.86491    0.06930    0.26660    1.000
    C22      C        0.88400    0.05040    0.23440    1.000
    H14      H        0.88930    0.96510    0.22640    1.000
    C23      C        0.85520    0.44220    0.26820    1.000
    C24      C        0.85441    0.94650    0.28860    1.000
    C25      C        0.77337    0.79150    0.31200    1.000
    H15      H        0.77030    0.85480    0.28400    1.000
    C26      C        0.74973    0.80680    0.33540    1.000
    H16      H        0.73240    0.88200    0.32480    1.000
    C27      C        0.75120    0.71250    0.37430    1.000
    C28      C        0.77960    0.60260    0.39060    1.000
    H17      H        0.78210    0.53470    0.41650    1.000
    C29      C        0.80360    0.60120    0.36590    1.000
    H18      H        0.82320    0.53190    0.37770    1.000
    C30      C        0.72650    0.73190    0.40030    1.000
    C31      C        0.69080    0.70820    0.43970    1.000
    C32      C        0.67080    0.65370    0.46980    1.000
    C33      C        0.64190    0.73830    0.47130    1.000
    H19      H        0.63420    0.82090    0.45140    1.000
    C34      C        0.62530    0.69550    0.50290    1.000
    H20      H        0.60510    0.74920    0.50240    1.000
    C35      C        0.66290    0.50040    0.52980    1.000
    H21      H        0.66990    0.41730    0.54920    1.000
    C36      C        0.67970    0.53520    0.49790    1.000
    H22      H        0.69760    0.47570    0.49580    1.000
    N1       N        0.80031    0.69140    0.32720    1.000
    N2       N        0.71053    0.64040    0.41810    1.000
    N3       N        0.71765    0.84980    0.40990    1.000
    N4       N        0.69490    0.83510    0.43480    1.000
    N5       N        0.70900    0.49920    0.41100    1.000
    H23      H        0.71940    0.46270    0.39290    1.000
    H24      H        0.69760    0.45040    0.42470    1.000
    N6       N        0.63672    0.58050    0.53440    1.000
    O1       O        0.06962    0.83880    0.06550    1.000
    O2       O        0.10415    0.65330    0.11720    1.000
    O3       O        0.87655    0.73380    0.95070    1.000
    O4       O        0.91695    0.86910    0.93760    1.000
    O5       O        0.97780    0.36180    0.07830    1.000
    O6       O        0.91515    0.15610    0.18590    1.000
    O7       O        0.85680    0.83430    0.27070    1.000
    O8       O        0.84354    0.96560    0.32520    1.000
    O9       O        0.83454    0.45200    0.29060    1.000
    O10      O        0.86760    0.54230    0.25570    1.000
    Zn3      Zn       0.33734    0.16779    0.29160    1.000
    Zn4      Zn       0.38609    0.46437    0.41558    1.000
    C37      C        0.57079    0.22050    0.08420    1.000
    C38      C        0.52774    0.16110    0.06120    1.000
    C39      C        0.52565    0.03680    0.08250    1.000
    H25      H        0.55070    0.98850    0.10990    1.000
    C40      C        0.48530    0.98530    0.06210    1.000
    C41      C        0.44775    0.05840    0.02180    1.000
    H26      H        0.42100    0.02510    0.00920    1.000
    C42      C        0.45093    0.18330    0.00050    1.000
    C43      C        0.49084    0.23290    0.02030    1.000
    H27      H        0.49280    0.31530    0.00580    1.000
    C44      C        0.41170    0.26740    0.95980    1.000
    C45      C        0.51460    0.78590    0.12260    1.000
    H28      H        0.53180    0.83390    0.16180    1.000
    H29      H        0.53230    0.76870    0.10790    1.000
    C46      C        0.49850    0.65670    0.13120    1.000
    C47      C        0.47270    0.65510    0.15320    1.000
    H30      H        0.46540    0.73540    0.16250    1.000
    C48      C        0.45790    0.53730    0.16110    1.000
    C49      C        0.47100    0.42090    0.14980    1.000
    H31      H        0.46150    0.34030    0.15530    1.000
    C50      C        0.49700    0.41850    0.13100    1.000
    H32      H        0.50540    0.33690    0.12430    1.000
    C51      C        0.51200    0.53880    0.12130    1.000
    H33      H        0.53030    0.53780    0.10870    1.000
    C52      C        0.42950    0.52980    0.18250    1.000
    H34      H        0.40470    0.47400    0.15410    1.000
    H35      H        0.44530    0.48820    0.22330    1.000
    C53      C        0.39430    0.66170    0.21530    1.000
    C54      C        0.38550    0.78910    0.22590    1.000
    H36      H        0.39270    0.86340    0.21260    1.000
    C55      C        0.36610    0.80580    0.25640    1.000
    C56      C        0.35650    0.69340    0.27720    1.000
    H37      H        0.34410    0.70370    0.29870    1.000
    C57      C        0.36491    0.56930    0.26660    1.000
    C58      C        0.38400    0.55040    0.23440    1.000
    H38      H        0.38930    0.46510    0.22640    1.000
    C59      C        0.35520    0.94220    0.26820    1.000
    C60      C        0.35441    0.44650    0.28860    1.000
    C61      C        0.27337    0.29150    0.31200    1.000
    H39      H        0.27030    0.35480    0.28400    1.000
    C62      C        0.24973    0.30680    0.33540    1.000
    H40      H        0.23240    0.38200    0.32480    1.000
    C63      C        0.25120    0.21250    0.37430    1.000
    C64      C        0.27960    0.10260    0.39060    1.000
    H41      H        0.28210    0.03470    0.41650    1.000
    C65      C        0.30360    0.10120    0.36590    1.000
    H42      H        0.32320    0.03190    0.37770    1.000
    C66      C        0.22650    0.23190    0.40030    1.000
    C67      C        0.19080    0.20820    0.43970    1.000
    C68      C        0.17080    0.15370    0.46980    1.000
    C69      C        0.14190    0.23830    0.47130    1.000
    H43      H        0.13420    0.32090    0.45140    1.000
    C70      C        0.12530    0.19550    0.50290    1.000
    H44      H        0.10510    0.24920    0.50240    1.000
    C71      C        0.16290    0.00040    0.52980    1.000
    H45      H        0.16990    0.91730    0.54920    1.000
    C72      C        0.17970    0.03520    0.49790    1.000
    H46      H        0.19760    0.97570    0.49580    1.000
    N7       N        0.30031    0.19140    0.32720    1.000
    N8       N        0.21053    0.14040    0.41810    1.000
    N9       N        0.21765    0.34980    0.40990    1.000
    N10      N        0.19490    0.33510    0.43480    1.000
    N11      N        0.20900    0.99920    0.41100    1.000
    H47      H        0.21940    0.96270    0.39290    1.000
    H48      H        0.19760    0.95040    0.42470    1.000
    N12      N        0.13672    0.08050    0.53440    1.000
    O11      O        0.56962    0.33880    0.06550    1.000
    O12      O        0.60415    0.15330    0.11720    1.000
    O13      O        0.37655    0.23380    0.95070    1.000
    O14      O        0.41695    0.36910    0.93760    1.000
    O15      O        0.47780    0.86180    0.07830    1.000
    O16      O        0.41515    0.65610    0.18590    1.000
    O17      O        0.35680    0.33430    0.27070    1.000
    O18      O        0.34354    0.46560    0.32520    1.000
    O19      O        0.33454    0.95200    0.29060    1.000
    O20      O        0.36760    0.04230    0.25570    1.000
    Zn5      Zn       0.16266    0.66779    0.20840    1.000
    Zn6      Zn       0.11391    0.96437    0.08442    1.000
    C73      C        0.92921    0.72050    0.41580    1.000
    C74      C        0.97226    0.66110    0.43880    1.000
    C75      C        0.97435    0.53680    0.41750    1.000
    H49      H        0.94930    0.48850    0.39010    1.000
    C76      C        0.01470    0.48530    0.43790    1.000
    C77      C        0.05225    0.55840    0.47820    1.000
    H50      H        0.07900    0.52510    0.49080    1.000
    C78      C        0.04907    0.68330    0.49950    1.000
    C79      C        0.00916    0.73290    0.47970    1.000
    H51      H        0.00720    0.81530    0.49420    1.000
    C80      C        0.08830    0.76740    0.54020    1.000
    C81      C        0.98540    0.28590    0.37740    1.000
    H52      H        0.96820    0.33390    0.33820    1.000
    H53      H        0.96770    0.26870    0.39210    1.000
    C82      C        0.00150    0.15670    0.36880    1.000
    C83      C        0.02730    0.15510    0.34680    1.000
    H54      H        0.03460    0.23540    0.33750    1.000
    C84      C        0.04210    0.03730    0.33890    1.000
    C85      C        0.02900    0.92090    0.35020    1.000
    H55      H        0.03850    0.84030    0.34470    1.000
    C86      C        0.00300    0.91850    0.36900    1.000
    H56      H        0.99460    0.83690    0.37570    1.000
    C87      C        0.98800    0.03880    0.37870    1.000
    H57      H        0.96970    0.03780    0.39130    1.000
    C88      C        0.07050    0.02980    0.31750    1.000
    H58      H        0.09530    0.97400    0.34590    1.000
    H59      H        0.05470    0.98820    0.27670    1.000
    C89      C        0.10570    0.16170    0.28470    1.000
    C90      C        0.11450    0.28910    0.27410    1.000
    H60      H        0.10730    0.36340    0.28740    1.000
    C91      C        0.13390    0.30580    0.24360    1.000
    C92      C        0.14350    0.19340    0.22280    1.000
    H61      H        0.15590    0.20370    0.20130    1.000
    C93      C        0.13509    0.06930    0.23340    1.000
    C94      C        0.11600    0.05040    0.26560    1.000
    H62      H        0.11070    0.96510    0.27360    1.000
    C95      C        0.14480    0.44220    0.23180    1.000
    C96      C        0.14559    0.94650    0.21140    1.000
    C97      C        0.22663    0.79150    0.18800    1.000
    H63      H        0.22970    0.85480    0.21600    1.000
    C98      C        0.25027    0.80680    0.16460    1.000
    H64      H        0.26760    0.88200    0.17520    1.000
    C99      C        0.24880    0.71250    0.12570    1.000
    C100     C        0.22040    0.60260    0.10940    1.000
    H65      H        0.21790    0.53470    0.08350    1.000
    C101     C        0.19640    0.60120    0.13410    1.000
    H66      H        0.17680    0.53190    0.12230    1.000
    C102     C        0.27350    0.73190    0.09970    1.000
    C103     C        0.30920    0.70820    0.06030    1.000
    C104     C        0.32920    0.65370    0.03020    1.000
    C105     C        0.35810    0.73830    0.02870    1.000
    H67      H        0.36580    0.82090    0.04860    1.000
    C106     C        0.37470    0.69550    0.99710    1.000
    H68      H        0.39490    0.74920    0.99760    1.000
    C107     C        0.33710    0.50040    0.97020    1.000
    H69      H        0.33010    0.41730    0.95080    1.000
    C108     C        0.32030    0.53520    0.00210    1.000
    H70      H        0.30240    0.47570    0.00420    1.000
    N13      N        0.19969    0.69140    0.17280    1.000
    N14      N        0.28947    0.64040    0.08190    1.000
    N15      N        0.28235    0.84980    0.09010    1.000
    N16      N        0.30510    0.83510    0.06520    1.000
    N17      N        0.29100    0.49920    0.08900    1.000
    H71      H        0.28060    0.46270    0.10710    1.000
    H72      H        0.30240    0.45040    0.07530    1.000
    N18      N        0.36328    0.58050    0.96560    1.000
    O21      O        0.93038    0.83880    0.43450    1.000
    O22      O        0.89585    0.65330    0.38280    1.000
    O23      O        0.12345    0.73380    0.54930    1.000
    O24      O        0.08305    0.86910    0.56240    1.000
    O25      O        0.02220    0.36180    0.42170    1.000
    O26      O        0.08485    0.15610    0.31410    1.000
    O27      O        0.14320    0.83430    0.22930    1.000
    O28      O        0.15646    0.96560    0.17480    1.000
    O29      O        0.16546    0.45200    0.20940    1.000
    O30      O        0.13240    0.54230    0.24430    1.000
    Zn7      Zn       0.66266    0.16779    0.20840    1.000
    Zn8      Zn       0.61391    0.46437    0.08442    1.000
    C109     C        0.42921    0.22050    0.41580    1.000
    C110     C        0.47226    0.16110    0.43880    1.000
    C111     C        0.47435    0.03680    0.41750    1.000
    H73      H        0.44930    0.98850    0.39010    1.000
    C112     C        0.51470    0.98530    0.43790    1.000
    C113     C        0.55225    0.05840    0.47820    1.000
    H74      H        0.57900    0.02510    0.49080    1.000
    C114     C        0.54907    0.18330    0.49950    1.000
    C115     C        0.50916    0.23290    0.47970    1.000
    H75      H        0.50720    0.31530    0.49420    1.000
    C116     C        0.58830    0.26740    0.54020    1.000
    C117     C        0.48540    0.78590    0.37740    1.000
    H76      H        0.46820    0.83390    0.33820    1.000
    H77      H        0.46770    0.76870    0.39210    1.000
    C118     C        0.50150    0.65670    0.36880    1.000
    C119     C        0.52730    0.65510    0.34680    1.000
    H78      H        0.53460    0.73540    0.33750    1.000
    C120     C        0.54210    0.53730    0.33890    1.000
    C121     C        0.52900    0.42090    0.35020    1.000
    H79      H        0.53850    0.34030    0.34470    1.000
    C122     C        0.50300    0.41850    0.36900    1.000
    H80      H        0.49460    0.33690    0.37570    1.000
    C123     C        0.48800    0.53880    0.37870    1.000
    H81      H        0.46970    0.53780    0.39130    1.000
    C124     C        0.57050    0.52980    0.31750    1.000
    H82      H        0.59530    0.47400    0.34590    1.000
    H83      H        0.55470    0.48820    0.27670    1.000
    C125     C        0.60570    0.66170    0.28470    1.000
    C126     C        0.61450    0.78910    0.27410    1.000
    H84      H        0.60730    0.86340    0.28740    1.000
    C127     C        0.63390    0.80580    0.24360    1.000
    C128     C        0.64350    0.69340    0.22280    1.000
    H85      H        0.65590    0.70370    0.20130    1.000
    C129     C        0.63509    0.56930    0.23340    1.000
    C130     C        0.61600    0.55040    0.26560    1.000
    H86      H        0.61070    0.46510    0.27360    1.000
    C131     C        0.64480    0.94220    0.23180    1.000
    C132     C        0.64559    0.44650    0.21140    1.000
    C133     C        0.72663    0.29150    0.18800    1.000
    H87      H        0.72970    0.35480    0.21600    1.000
    C134     C        0.75027    0.30680    0.16460    1.000
    H88      H        0.76760    0.38200    0.17520    1.000
    C135     C        0.74880    0.21250    0.12570    1.000
    C136     C        0.72040    0.10260    0.10940    1.000
    H89      H        0.71790    0.03470    0.08350    1.000
    C137     C        0.69640    0.10120    0.13410    1.000
    H90      H        0.67680    0.03190    0.12230    1.000
    C138     C        0.77350    0.23190    0.09970    1.000
    C139     C        0.80920    0.20820    0.06030    1.000
    C140     C        0.82920    0.15370    0.03020    1.000
    C141     C        0.85810    0.23830    0.02870    1.000
    H91      H        0.86580    0.32090    0.04860    1.000
    C142     C        0.87470    0.19550    0.99710    1.000
    H92      H        0.89490    0.24920    0.99760    1.000
    C143     C        0.83710    0.00040    0.97020    1.000
    H93      H        0.83010    0.91730    0.95080    1.000
    C144     C        0.82030    0.03520    0.00210    1.000
    H94      H        0.80240    0.97570    0.00420    1.000
    N19      N        0.69969    0.19140    0.17280    1.000
    N20      N        0.78947    0.14040    0.08190    1.000
    N21      N        0.78235    0.34980    0.09010    1.000
    N22      N        0.80510    0.33510    0.06520    1.000
    N23      N        0.79100    0.99920    0.08900    1.000
    H95      H        0.78060    0.96270    0.10710    1.000
    H96      H        0.80240    0.95040    0.07530    1.000
    N24      N        0.86328    0.08050    0.96560    1.000
    O31      O        0.43038    0.33880    0.43450    1.000
    O32      O        0.39585    0.15330    0.38280    1.000
    O33      O        0.62345    0.23380    0.54930    1.000
    O34      O        0.58305    0.36910    0.56240    1.000
    O35      O        0.52220    0.86180    0.42170    1.000
    O36      O        0.58485    0.65610    0.31410    1.000
    O37      O        0.64320    0.33430    0.22930    1.000
    O38      O        0.65646    0.46560    0.17480    1.000
    O39      O        0.66546    0.95200    0.20940    1.000
    O40      O        0.63240    0.04230    0.24430    1.000
    Zn9      Zn       0.16266    0.33221    0.70840    1.000
    Zn10     Zn       0.11391    0.03563    0.58442    1.000
    C145     C        0.92921    0.27950    0.91580    1.000
    C146     C        0.97226    0.33890    0.93880    1.000
    C147     C        0.97435    0.46320    0.91750    1.000
    H97      H        0.94930    0.51150    0.89010    1.000
    C148     C        0.01470    0.51470    0.93790    1.000
    C149     C        0.05225    0.44160    0.97820    1.000
    H98      H        0.07900    0.47490    0.99080    1.000
    C150     C        0.04907    0.31670    0.99950    1.000
    C151     C        0.00916    0.26710    0.97970    1.000
    H99      H        0.00720    0.18470    0.99420    1.000
    C152     C        0.08830    0.23260    0.04020    1.000
    C153     C        0.98540    0.71410    0.87740    1.000
    H100     H        0.96820    0.66610    0.83820    1.000
    H101     H        0.96770    0.73130    0.89210    1.000
    C154     C        0.00150    0.84330    0.86880    1.000
    C155     C        0.02730    0.84490    0.84680    1.000
    H102     H        0.03460    0.76460    0.83750    1.000
    C156     C        0.04210    0.96270    0.83890    1.000
    C157     C        0.02900    0.07910    0.85020    1.000
    H103     H        0.03850    0.15970    0.84470    1.000
    C158     C        0.00300    0.08150    0.86900    1.000
    H104     H        0.99460    0.16310    0.87570    1.000
    C159     C        0.98800    0.96120    0.87870    1.000
    H105     H        0.96970    0.96220    0.89130    1.000
    C160     C        0.07050    0.97020    0.81750    1.000
    H106     H        0.09530    0.02600    0.84590    1.000
    H107     H        0.05470    0.01180    0.77670    1.000
    C161     C        0.10570    0.83830    0.78470    1.000
    C162     C        0.11450    0.71090    0.77410    1.000
    H108     H        0.10730    0.63660    0.78740    1.000
    C163     C        0.13390    0.69420    0.74360    1.000
    C164     C        0.14350    0.80660    0.72280    1.000
    H109     H        0.15590    0.79630    0.70130    1.000
    C165     C        0.13509    0.93070    0.73340    1.000
    C166     C        0.11600    0.94960    0.76560    1.000
    H110     H        0.11070    0.03490    0.77360    1.000
    C167     C        0.14480    0.55780    0.73180    1.000
    C168     C        0.14559    0.05350    0.71140    1.000
    C169     C        0.22663    0.20850    0.68800    1.000
    H111     H        0.22970    0.14520    0.71600    1.000
    C170     C        0.25027    0.19320    0.66460    1.000
    H112     H        0.26760    0.11800    0.67520    1.000
    C171     C        0.24880    0.28750    0.62570    1.000
    C172     C        0.22040    0.39740    0.60940    1.000
    H113     H        0.21790    0.46530    0.58350    1.000
    C173     C        0.19640    0.39880    0.63410    1.000
    H114     H        0.17680    0.46810    0.62230    1.000
    C174     C        0.27350    0.26810    0.59970    1.000
    C175     C        0.30920    0.29180    0.56030    1.000
    C176     C        0.32920    0.34630    0.53020    1.000
    C177     C        0.35810    0.26170    0.52870    1.000
    H115     H        0.36580    0.17910    0.54860    1.000
    C178     C        0.37470    0.30450    0.49710    1.000
    H116     H        0.39490    0.25080    0.49760    1.000
    C179     C        0.33710    0.49960    0.47020    1.000
    H117     H        0.33010    0.58270    0.45080    1.000
    C180     C        0.32030    0.46480    0.50210    1.000
    H118     H        0.30240    0.52430    0.50420    1.000
    N25      N        0.19969    0.30860    0.67280    1.000
    N26      N        0.28947    0.35960    0.58190    1.000
    N27      N        0.28235    0.15020    0.59010    1.000
    N28      N        0.30510    0.16490    0.56520    1.000
    N29      N        0.29100    0.50080    0.58900    1.000
    H119     H        0.28060    0.53730    0.60710    1.000
    H120     H        0.30240    0.54960    0.57530    1.000
    N30      N        0.36328    0.41950    0.46560    1.000
    O41      O        0.93038    0.16120    0.93450    1.000
    O42      O        0.89585    0.34670    0.88280    1.000
    O43      O        0.12345    0.26620    0.04930    1.000
    O44      O        0.08305    0.13090    0.06240    1.000
    O45      O        0.02220    0.63820    0.92170    1.000
    O46      O        0.08485    0.84390    0.81410    1.000
    O47      O        0.14320    0.16570    0.72930    1.000
    O48      O        0.15646    0.03440    0.67480    1.000
    O49      O        0.16546    0.54800    0.70940    1.000
    O50      O        0.13240    0.45770    0.74430    1.000
    Zn11     Zn       0.66266    0.83221    0.70840    1.000
    Zn12     Zn       0.61391    0.53563    0.58442    1.000
    C181     C        0.42921    0.77950    0.91580    1.000
    C182     C        0.47226    0.83890    0.93880    1.000
    C183     C        0.47435    0.96320    0.91750    1.000
    H121     H        0.44930    0.01150    0.89010    1.000
    C184     C        0.51470    0.01470    0.93790    1.000
    C185     C        0.55225    0.94160    0.97820    1.000
    H122     H        0.57900    0.97490    0.99080    1.000
    C186     C        0.54907    0.81670    0.99950    1.000
    C187     C        0.50916    0.76710    0.97970    1.000
    H123     H        0.50720    0.68470    0.99420    1.000
    C188     C        0.58830    0.73260    0.04020    1.000
    C189     C        0.48540    0.21410    0.87740    1.000
    H124     H        0.46820    0.16610    0.83820    1.000
    H125     H        0.46770    0.23130    0.89210    1.000
    C190     C        0.50150    0.34330    0.86880    1.000
    C191     C        0.52730    0.34490    0.84680    1.000
    H126     H        0.53460    0.26460    0.83750    1.000
    C192     C        0.54210    0.46270    0.83890    1.000
    C193     C        0.52900    0.57910    0.85020    1.000
    H127     H        0.53850    0.65970    0.84470    1.000
    C194     C        0.50300    0.58150    0.86900    1.000
    H128     H        0.49460    0.66310    0.87570    1.000
    C195     C        0.48800    0.46120    0.87870    1.000
    H129     H        0.46970    0.46220    0.89130    1.000
    C196     C        0.57050    0.47020    0.81750    1.000
    H130     H        0.59530    0.52600    0.84590    1.000
    H131     H        0.55470    0.51180    0.77670    1.000
    C197     C        0.60570    0.33830    0.78470    1.000
    C198     C        0.61450    0.21090    0.77410    1.000
    H132     H        0.60730    0.13660    0.78740    1.000
    C199     C        0.63390    0.19420    0.74360    1.000
    C200     C        0.64350    0.30660    0.72280    1.000
    H133     H        0.65590    0.29630    0.70130    1.000
    C201     C        0.63509    0.43070    0.73340    1.000
    C202     C        0.61600    0.44960    0.76560    1.000
    H134     H        0.61070    0.53490    0.77360    1.000
    C203     C        0.64480    0.05780    0.73180    1.000
    C204     C        0.64559    0.55350    0.71140    1.000
    C205     C        0.72663    0.70850    0.68800    1.000
    H135     H        0.72970    0.64520    0.71600    1.000
    C206     C        0.75027    0.69320    0.66460    1.000
    H136     H        0.76760    0.61800    0.67520    1.000
    C207     C        0.74880    0.78750    0.62570    1.000
    C208     C        0.72040    0.89740    0.60940    1.000
    H137     H        0.71790    0.96530    0.58350    1.000
    C209     C        0.69640    0.89880    0.63410    1.000
    H138     H        0.67680    0.96810    0.62230    1.000
    C210     C        0.77350    0.76810    0.59970    1.000
    C211     C        0.80920    0.79180    0.56030    1.000
    C212     C        0.82920    0.84630    0.53020    1.000
    C213     C        0.85810    0.76170    0.52870    1.000
    H139     H        0.86580    0.67910    0.54860    1.000
    C214     C        0.87470    0.80450    0.49710    1.000
    H140     H        0.89490    0.75080    0.49760    1.000
    C215     C        0.83710    0.99960    0.47020    1.000
    H141     H        0.83010    0.08270    0.45080    1.000
    C216     C        0.82030    0.96480    0.50210    1.000
    H142     H        0.80240    0.02430    0.50420    1.000
    N31      N        0.69969    0.80860    0.67280    1.000
    N32      N        0.78947    0.85960    0.58190    1.000
    N33      N        0.78235    0.65020    0.59010    1.000
    N34      N        0.80510    0.66490    0.56520    1.000
    N35      N        0.79100    0.00080    0.58900    1.000
    H143     H        0.78060    0.03730    0.60710    1.000
    H144     H        0.80240    0.04960    0.57530    1.000
    N36      N        0.86328    0.91950    0.46560    1.000
    O51      O        0.43038    0.66120    0.93450    1.000
    O52      O        0.39585    0.84670    0.88280    1.000
    O53      O        0.62345    0.76620    0.04930    1.000
    O54      O        0.58305    0.63090    0.06240    1.000
    O55      O        0.52220    0.13820    0.92170    1.000
    O56      O        0.58485    0.34390    0.81410    1.000
    O57      O        0.64320    0.66570    0.72930    1.000
    O58      O        0.65646    0.53440    0.67480    1.000
    O59      O        0.66546    0.04800    0.70940    1.000
    O60      O        0.63240    0.95770    0.74430    1.000
    Zn13     Zn       0.83734    0.33221    0.79160    1.000
    Zn14     Zn       0.88609    0.03563    0.91558    1.000
    C217     C        0.07079    0.27950    0.58420    1.000
    C218     C        0.02774    0.33890    0.56120    1.000
    C219     C        0.02565    0.46320    0.58250    1.000
    H145     H        0.05070    0.51150    0.60990    1.000
    C220     C        0.98530    0.51470    0.56210    1.000
    C221     C        0.94775    0.44160    0.52180    1.000
    H146     H        0.92100    0.47490    0.50920    1.000
    C222     C        0.95093    0.31670    0.50050    1.000
    C223     C        0.99084    0.26710    0.52030    1.000
    H147     H        0.99280    0.18470    0.50580    1.000
    C224     C        0.91170    0.23260    0.45980    1.000
    C225     C        0.01460    0.71410    0.62260    1.000
    H148     H        0.03180    0.66610    0.66180    1.000
    H149     H        0.03230    0.73130    0.60790    1.000
    C226     C        0.99850    0.84330    0.63120    1.000
    C227     C        0.97270    0.84490    0.65320    1.000
    H150     H        0.96540    0.76460    0.66250    1.000
    C228     C        0.95790    0.96270    0.66110    1.000
    C229     C        0.97100    0.07910    0.64980    1.000
    H151     H        0.96150    0.15970    0.65530    1.000
    C230     C        0.99700    0.08150    0.63100    1.000
    H152     H        0.00540    0.16310    0.62430    1.000
    C231     C        0.01200    0.96120    0.62130    1.000
    H153     H        0.03030    0.96220    0.60870    1.000
    C232     C        0.92950    0.97020    0.68250    1.000
    H154     H        0.90470    0.02600    0.65410    1.000
    H155     H        0.94530    0.01180    0.72330    1.000
    C233     C        0.89430    0.83830    0.71530    1.000
    C234     C        0.88550    0.71090    0.72590    1.000
    H156     H        0.89270    0.63660    0.71260    1.000
    C235     C        0.86610    0.69420    0.75640    1.000
    C236     C        0.85650    0.80660    0.77720    1.000
    H157     H        0.84410    0.79630    0.79870    1.000
    C237     C        0.86491    0.93070    0.76660    1.000
    C238     C        0.88400    0.94960    0.73440    1.000
    H158     H        0.88930    0.03490    0.72640    1.000
    C239     C        0.85520    0.55780    0.76820    1.000
    C240     C        0.85441    0.05350    0.78860    1.000
    C241     C        0.77337    0.20850    0.81200    1.000
    H159     H        0.77030    0.14520    0.78400    1.000
    C242     C        0.74973    0.19320    0.83540    1.000
    H160     H        0.73240    0.11800    0.82480    1.000
    C243     C        0.75120    0.28750    0.87430    1.000
    C244     C        0.77960    0.39740    0.89060    1.000
    H161     H        0.78210    0.46530    0.91650    1.000
    C245     C        0.80360    0.39880    0.86590    1.000
    H162     H        0.82320    0.46810    0.87770    1.000
    C246     C        0.72650    0.26810    0.90030    1.000
    C247     C        0.69080    0.29180    0.93970    1.000
    C248     C        0.67080    0.34630    0.96980    1.000
    C249     C        0.64190    0.26170    0.97130    1.000
    H163     H        0.63420    0.17910    0.95140    1.000
    C250     C        0.62530    0.30450    0.00290    1.000
    H164     H        0.60510    0.25080    0.00240    1.000
    C251     C        0.66290    0.49960    0.02980    1.000
    H165     H        0.66990    0.58270    0.04920    1.000
    C252     C        0.67970    0.46480    0.99790    1.000
    H166     H        0.69760    0.52430    0.99580    1.000
    N37      N        0.80031    0.30860    0.82720    1.000
    N38      N        0.71053    0.35960    0.91810    1.000
    N39      N        0.71765    0.15020    0.90990    1.000
    N40      N        0.69490    0.16490    0.93480    1.000
    N41      N        0.70900    0.50080    0.91100    1.000
    H167     H        0.71940    0.53730    0.89290    1.000
    H168     H        0.69760    0.54960    0.92470    1.000
    N42      N        0.63672    0.41950    0.03440    1.000
    O61      O        0.06962    0.16120    0.56550    1.000
    O62      O        0.10415    0.34670    0.61720    1.000
    O63      O        0.87655    0.26620    0.45070    1.000
    O64      O        0.91695    0.13090    0.43760    1.000
    O65      O        0.97780    0.63820    0.57830    1.000
    O66      O        0.91515    0.84390    0.68590    1.000
    O67      O        0.85680    0.16570    0.77070    1.000
    O68      O        0.84354    0.03440    0.82520    1.000
    O69      O        0.83454    0.54800    0.79060    1.000
    O70      O        0.86760    0.45770    0.75570    1.000
    Zn15     Zn       0.33734    0.83221    0.79160    1.000
    Zn16     Zn       0.38609    0.53563    0.91558    1.000
    C253     C        0.57079    0.77950    0.58420    1.000
    C254     C        0.52774    0.83890    0.56120    1.000
    C255     C        0.52565    0.96320    0.58250    1.000
    H169     H        0.55070    0.01150    0.60990    1.000
    C256     C        0.48530    0.01470    0.56210    1.000
    C257     C        0.44775    0.94160    0.52180    1.000
    H170     H        0.42100    0.97490    0.50920    1.000
    C258     C        0.45093    0.81670    0.50050    1.000
    C259     C        0.49084    0.76710    0.52030    1.000
    H171     H        0.49280    0.68470    0.50580    1.000
    C260     C        0.41170    0.73260    0.45980    1.000
    C261     C        0.51460    0.21410    0.62260    1.000
    H172     H        0.53180    0.16610    0.66180    1.000
    H173     H        0.53230    0.23130    0.60790    1.000
    C262     C        0.49850    0.34330    0.63120    1.000
    C263     C        0.47270    0.34490    0.65320    1.000
    H174     H        0.46540    0.26460    0.66250    1.000
    C264     C        0.45790    0.46270    0.66110    1.000
    C265     C        0.47100    0.57910    0.64980    1.000
    H175     H        0.46150    0.65970    0.65530    1.000
    C266     C        0.49700    0.58150    0.63100    1.000
    H176     H        0.50540    0.66310    0.62430    1.000
    C267     C        0.51200    0.46120    0.62130    1.000
    H177     H        0.53030    0.46220    0.60870    1.000
    C268     C        0.42950    0.47020    0.68250    1.000
    H178     H        0.40470    0.52600    0.65410    1.000
    H179     H        0.44530    0.51180    0.72330    1.000
    C269     C        0.39430    0.33830    0.71530    1.000
    C270     C        0.38550    0.21090    0.72590    1.000
    H180     H        0.39270    0.13660    0.71260    1.000
    C271     C        0.36610    0.19420    0.75640    1.000
    C272     C        0.35650    0.30660    0.77720    1.000
    H181     H        0.34410    0.29630    0.79870    1.000
    C273     C        0.36491    0.43070    0.76660    1.000
    C274     C        0.38400    0.44960    0.73440    1.000
    H182     H        0.38930    0.53490    0.72640    1.000
    C275     C        0.35520    0.05780    0.76820    1.000
    C276     C        0.35441    0.55350    0.78860    1.000
    C277     C        0.27337    0.70850    0.81200    1.000
    H183     H        0.27030    0.64520    0.78400    1.000
    C278     C        0.24973    0.69320    0.83540    1.000
    H184     H        0.23240    0.61800    0.82480    1.000
    C279     C        0.25120    0.78750    0.87430    1.000
    C280     C        0.27960    0.89740    0.89060    1.000
    H185     H        0.28210    0.96530    0.91650    1.000
    C281     C        0.30360    0.89880    0.86590    1.000
    H186     H        0.32320    0.96810    0.87770    1.000
    C282     C        0.22650    0.76810    0.90030    1.000
    C283     C        0.19080    0.79180    0.93970    1.000
    C284     C        0.17080    0.84630    0.96980    1.000
    C285     C        0.14190    0.76170    0.97130    1.000
    H187     H        0.13420    0.67910    0.95140    1.000
    C286     C        0.12530    0.80450    0.00290    1.000
    H188     H        0.10510    0.75080    0.00240    1.000
    C287     C        0.16290    0.99960    0.02980    1.000
    H189     H        0.16990    0.08270    0.04920    1.000
    C288     C        0.17970    0.96480    0.99790    1.000
    H190     H        0.19760    0.02430    0.99580    1.000
    N43      N        0.30031    0.80860    0.82720    1.000
    N44      N        0.21053    0.85960    0.91810    1.000
    N45      N        0.21765    0.65020    0.90990    1.000
    N46      N        0.19490    0.66490    0.93480    1.000
    N47      N        0.20900    0.00080    0.91100    1.000
    H191     H        0.21940    0.03730    0.89290    1.000
    H192     H        0.19760    0.04960    0.92470    1.000
    N48      N        0.13672    0.91950    0.03440    1.000
    O71      O        0.56962    0.66120    0.56550    1.000
    O72      O        0.60415    0.84670    0.61720    1.000
    O73      O        0.37655    0.76620    0.45070    1.000
    O74      O        0.41695    0.63090    0.43760    1.000
    O75      O        0.47780    0.13820    0.57830    1.000
    O76      O        0.41515    0.34390    0.68590    1.000
    O77      O        0.35680    0.66570    0.77070    1.000
    O78      O        0.34354    0.53440    0.82520    1.000
    O79      O        0.33454    0.04800    0.79060    1.000
    O80      O        0.36760    0.95770    0.75570    1.000
