data_functionalizedCrystal
_audit_creation_method	'EQeq! by Chris Wilmer'
_symmetry_space_group_name_H-M	'P1'
_symmetry_Int_Tables_number	1
_symmetry_cell_setting	triclinic
loop_
_symmetry_equiv_pos_as_xyz
  x,y,z
_cell_length_a	19.8976
_cell_length_b	23.4914
_cell_length_c	36.9624
_cell_angle_alpha	82.5095
_cell_angle_beta	74.3857
_cell_angle_gamma	64.9437
loop_
_atom_site_label
_atom_site_type_symbol
_atom_site_fract_x
_atom_site_fract_y
_atom_site_fract_z
_atom_site_charge
Mof_Zn	Zn	0.24706	0.76055	0.67023	1.139
Mof_Zn	Zn	0.17958	0.91373	0.62761	1.187
Mof_Zn	Zn	0.16452	0.67151	0.64321	1.191
Mof_Zn	Zn	0.44711	0.68652	0.64112	1.126
Mof_Zn	Zn	0.19224	0.77662	0.769	1.19
Mof_Zn	Zn	0.32216	0.26055	0.17023	1.138
Mof_Zn	Zn	0.27908	0.41373	0.12761	1.185
Mof_Zn	Zn	0.52076	0.17151	0.14321	1.19
Mof_Zn	Zn	0.22525	0.18652	0.14112	1.125
Mof_Zn	Zn	0.26214	0.27662	0.269	1.19
Mof_H 	H 	0.0687	0.7215	0.8131	0.019
Mof_H 	H 	0.982	0.6784	0.8244	0.081
Mof_H 	H 	0.0313	0.6387	0.7127	0.131
Mof_H 	H 	0.9129	0.6236	0.8032	0.219
Mof_H 	H 	0.9008	0.6454	0.7626	0.225
Mof_H 	H 	0.9649	0.58	0.769	0.228
Mof_H 	H 	0.0518	0.9404	0.5748	-0.011
Mof_H 	H 	0.9842	0.9182	0.5426	0.141
Mof_H 	H 	0.049	0.7402	0.5854	0.168
Mof_H 	H 	0.9244	0.8562	0.5326	0.289
Mof_H 	H 	0.9818	0.7856	0.5272	0.309
Mof_H 	H 	0.916	0.806	0.5638	0.294
Mof_H 	H 	0.0663	0.9184	0.8036	0.145
Mof_H 	H 	0.9846	0.0795	0.7463	0.12
Mof_H 	H 	0.0578	0.0321	0.6867	0.009
Mof_H 	H 	0.9441	0.082	0.8104	0.279
Mof_H 	H 	0.9312	0.0205	0.8243	0.28
Mof_H 	H 	0.996	0.0317	0.8347	0.3
Mof_H 	H 	0.517	0.544	0.5932	0.105
Mof_H 	H 	0.3923	0.4642	0.5682	0.099
Mof_H 	H 	0.2811	0.5448	0.5982	0.021
Mof_H 	H 	0.506	0.4303	0.5373	0.254
Mof_H 	H 	0.5283	0.4873	0.5233	0.253
Mof_H 	H 	0.5717	0.4359	0.5503	0.264
Mof_H 	H 	0.3286	0.7204	0.8138	-0.044
Mof_H 	H 	0.4473	0.6724	0.8222	0.184
Mof_H 	H 	0.5464	0.6487	0.7121	0.143
Mof_H 	H 	0.6215	0.6176	0.7604	0.383
Mof_H 	H 	0.5828	0.6631	0.7945	0.375
Mof_H 	H 	0.5822	0.5961	0.7991	0.382
Mof_H 	H 	0.0607	0.5382	0.6574	0.062
Mof_H 	H 	0.1064	0.485	0.536	0.104
Mof_H 	H 	0.1498	0.5577	0.5489	0.037
Mof_H 	H 	0.9665	0.4465	0.7027	0.104
Mof_H 	H 	0.0391	0.4609	0.6957	0.104
Mof_H 	H 	0.9612	0.5145	0.6909	0.107
Mof_H 	H 	0.0155	0.4551	0.5307	0.061
Mof_H 	H 	0.0914	0.3945	0.5305	0.06
Mof_H 	H 	0.9108	0.4172	0.59	0.045
Mof_H 	H 	0.8872	0.3858	0.5632	0.054
Mof_H 	H 	0.984	0.403	0.4918	0.059
Mof_H 	H 	0.9737	0.34	0.5052	0.061
Mof_H 	H 	0.027	0.3243	0.5921	0.052
Mof_H 	H 	0.0885	0.2956	0.555	0.058
Mof_H 	H 	0.8462	0.5513	0.5943	0.117
Mof_H 	H 	0.7141	0.608	0.628	-0.02
Mof_H 	H 	0.6455	0.5557	0.5593	0.002
Mof_H 	H 	0.7207	0.4572	0.4898	0.118
Mof_H 	H 	0.6596	0.4959	0.5243	0.098
Mof_H 	H 	0.7008	0.529	0.4922	0.112
Mof_H 	H 	0.0061	0.3561	0.4367	0.092
Mof_H 	H 	0.0564	0.3467	0.3723	0.027
Mof_H 	H 	0.2654	0.2671	0.3899	0.057
Mof_H 	H 	0.3213	0.2455	0.4719	0.076
Mof_H 	H 	0.3182	0.2199	0.4355	0.072
Mof_H 	H 	0.3124	0.2885	0.4357	0.075
Mof_H 	H 	0.1115	0.2226	0.593	0.093
Mof_H 	H 	0.1641	0.1147	0.6129	0.019
Mof_H 	H 	0.007	0.0902	0.5808	0.058
Mof_H 	H 	0.8701	0.2025	0.5423	-0.031
Mof_H 	H 	0.9412	0.1391	0.5435	-0.04
Mof_H 	H 	0.8837	0.17	0.581	-0.035
Mof_H 	H 	0.3133	0.9575	0.5805	0.158
Mof_H 	H 	0.5445	0.8634	0.5564	0.115
Mof_H 	H 	0.5319	0.7737	0.5881	-0.042
Mof_H 	H 	0.3971	0.0088	0.5412	0.258
Mof_H 	H 	0.4725	0.9866	0.555	0.255
Mof_H 	H 	0.4745	0.9618	0.5172	0.251
Mof_H 	H 	0.3967	0.2215	0.3131	0.019
Mof_H 	H 	0.5152	0.1784	0.3244	0.082
Mof_H 	H 	0.6173	0.1387	0.2127	0.132
Mof_H 	H 	0.6603	0.1236	0.3032	0.219
Mof_H 	H 	0.6912	0.1454	0.2626	0.226
Mof_H 	H 	0.6861	0.08	0.269	0.228
Mof_H 	H 	0.433	0.4404	0.0748	-0.012
Mof_H 	H 	0.555	0.4182	0.0426	0.142
Mof_H 	H 	0.6254	0.2402	0.0854	0.168
Mof_H 	H 	0.6868	0.3562	0.0326	0.289
Mof_H 	H 	0.7054	0.2856	0.0272	0.31
Mof_H 	H 	0.7142	0.306	0.0638	0.295
Mof_H 	H 	0.2117	0.4184	0.3036	0.146
Mof_H 	H 	0.1896	0.5795	0.2463	0.12
Mof_H 	H 	0.2234	0.5321	0.1867	0.008
Mof_H 	H 	0.1635	0.582	0.3104	0.28
Mof_H 	H 	0.224	0.5205	0.3243	0.28
Mof_H 	H 	0.1376	0.5317	0.3347	0.3
Mof_H 	H 	0.3458	0.044	0.0932	0.105
Mof_H 	H 	0.5753	0.9642	0.0682	0.099
Mof_H 	H 	0.5759	0.0448	0.0982	0.021
Mof_H 	H 	0.5264	0.9303	0.0373	0.255
Mof_H 	H 	0.4611	0.9873	0.0233	0.253
Mof_H 	H 	0.4421	0.9359	0.0503	0.264
Mof_H 	H 	0.1372	0.2204	0.3138	-0.044
Mof_H 	H 	0.0581	0.1724	0.3222	0.185
Mof_H 	H 	0.0928	0.1487	0.2121	0.143
Mof_H 	H 	0.0005	0.1176	0.2604	0.384
Mof_H 	H 	0.9596	0.1631	0.2945	0.377
Mof_H 	H 	0.0226	0.0961	0.2991	0.383
Mof_H 	H 	0.7437	0.0382	0.1574	0.061
Mof_H 	H 	0.8726	0.985	0.036	0.105
Mof_H 	H 	0.7436	0.0577	0.0489	0.036
Mof_H 	H 	0.8843	0.9465	0.2027	0.105
Mof_H 	H 	0.8043	0.9609	0.1957	0.105
Mof_H 	H 	0.8334	0.0145	0.1909	0.109
Mof_H 	H 	0.9987	0.9551	0.0307	0.058
Mof_H 	H 	0.9836	0.8945	0.0305	0.057
Mof_H 	H 	0.082	0.9172	0.09	0.045
Mof_H 	H 	0.1638	0.8858	0.0632	0.054
Mof_H 	H 	0.1212	0.903	0.9918	0.058
Mof_H 	H 	0.1811	0.84	0.0052	0.059
Mof_H 	H 	0.0566	0.8243	0.0921	0.051
Mof_H 	H 	0.0609	0.7956	0.055	0.057
Mof_H 	H 	0.0082	0.0513	0.0943	0.116
Mof_H 	H 	0.0499	0.108	0.128	-0.021
Mof_H 	H 	0.2395	0.0557	0.0593	0.002
Mof_H 	H 	0.3323	0.9572	0.9898	0.117
Mof_H 	H 	0.3202	0.9959	0.0243	0.098
Mof_H 	H 	0.278	0.029	0.9922	0.111
Mof_H 	H 	0.2011	0.8561	0.9367	0.093
Mof_H 	H 	0.2246	0.8467	0.8723	0.027
Mof_H 	H 	0.0776	0.7671	0.8899	0.057
Mof_H 	H 	0.9613	0.7455	0.9719	0.077
Mof_H 	H 	0.0264	0.7199	0.9355	0.073
Mof_H 	H 	0.9634	0.7885	0.9357	0.076
Mof_H 	H 	0.0729	0.7226	0.093	0.093
Mof_H 	H 	0.1083	0.6147	0.1129	0.02
Mof_H 	H 	0.322	0.5902	0.0808	0.058
Mof_H 	H 	0.3851	0.7025	0.0423	-0.033
Mof_H 	H 	0.3762	0.6391	0.0435	-0.041
Mof_H 	H 	0.3653	0.67	0.081	-0.037
Mof_H 	H 	0.1487	0.4575	0.0805	0.158
Mof_H 	H 	0.0357	0.3634	0.0564	0.115
Mof_H 	H 	0.1063	0.2737	0.0881	-0.043
Mof_H 	H 	0.0529	0.5088	0.0412	0.258
Mof_H 	H 	0.9859	0.4866	0.055	0.255
Mof_H 	H 	0.0465	0.4618	0.0172	0.251
Mof_C 	C 	0.0876	0.6841	0.7289	0.139
Mof_C 	C 	0.1008	0.7046	0.7564	-0.008
Mof_C 	C 	0.0606	0.7049	0.7939	0.002
Mof_C 	C 	0.0102	0.6798	0.8	-0.212
Mof_C 	C 	0.9975	0.6549	0.7707	0.246
Mof_C 	C 	0.0376	0.6553	0.7325	-0.279
Mof_C 	C 	0.938	0.6228	0.777	-0.685
Mof_C 	C 	0.0921	0.7949	0.6013	0.215
Mof_C 	C 	0.0943	0.8527	0.5977	-0.081
Mof_C 	C 	0.0513	0.9007	0.5765	0.112
Mof_C 	C 	0.0101	0.8884	0.5588	-0.346
Mof_C 	C 	0.0057	0.83	0.5648	0.399
Mof_C 	C 	0.049	0.7801	0.5841	-0.415
Mof_C 	C 	0.9518	0.8182	0.5452	-0.893
Mof_C 	C 	0.1087	0.946	0.713	-0.041
Mof_C 	C 	0.1112	0.9165	0.7453	0.141
Mof_C 	C 	0.0667	0.942	0.7814	-0.378
Mof_C 	C 	0.0255	0.0044	0.7796	0.373
Mof_C 	C 	0.0186	0.0375	0.7455	-0.291
Mof_C 	C 	0.0611	0.0103	0.7095	0.037
Mof_C 	C 	0.9689	0.0377	0.8157	-0.879
Mof_C 	C 	0.3325	0.5925	0.6137	0.01
Mof_C 	C 	0.40311	0.59238	0.6122	0.118
Mof_C 	C 	0.4697	0.5442	0.5942	-0.337
Mof_C 	C 	0.46566	0.49618	0.5777	0.332
Mof_C 	C 	0.395	0.4964	0.5792	-0.247
Mof_C 	C 	0.3284	0.5446	0.5972	0.005
Mof_C 	C 	0.5235	0.4589	0.5441	-0.827
Mof_C 	C 	0.4241	0.6901	0.7293	0.186
Mof_C 	C 	0.3618	0.7114	0.7558	-0.079
Mof_C 	C 	0.3704	0.7056	0.7934	0.177
Mof_C 	C 	0.4423	0.6776	0.7976	-0.486
Mof_C 	C 	0.509	0.6558	0.7708	0.588
Mof_C 	C 	0.5044	0.6614	0.7324	-0.452
Mof_C 	C 	0.5797	0.6311	0.7821	-1.235
Mof_C 	C 	0.1303	0.605	0.612	0.323
Mof_C 	C 	0.1068	0.5519	0.6051	-0.069
Mof_C 	C 	0.0714	0.5273	0.6325	-0.046
Mof_C 	C 	0.0503	0.4835	0.6221	0.047
Mof_C 	C 	0.0603	0.4682	0.5868	0.157
Mof_C 	C 	0.09701	0.49528	0.5609	-0.17
Mof_C 	C 	0.1236	0.5394	0.5678	0.026
Mof_C 	C 	0.9933	0.4704	0.6878	-0.249
Mof_C 	C 	0.03845	0.41567	0.54383	-0.025
Mof_C 	C 	0.99775	0.37604	0.54486	0.049
Mof_C 	C 	0.91567	0.41036	0.5639	-0.009
Mof_C 	C 	0.00325	0.3637	0.5056	-0.035
Mof_C 	C 	0.03409	0.3155	0.56612	-0.022
Mof_C 	C 	0.8167	0.5059	0.5627	0.213
Mof_C 	C 	0.8058	0.5473	0.5885	-0.217
Mof_C 	C 	0.7238	0.5858	0.6068	0.082
Mof_C 	C 	0.6699	0.5899	0.5963	-0.146
Mof_C 	C 	0.6843	0.5558	0.5688	0.018
Mof_C 	C 	0.7611	0.5192	0.5534	-0.038
Mof_C 	C 	0.7068	0.4908	0.5064	-0.277
Mof_C 	C 	0.1268	0.0245	0.6095	0.403
Mof_C 	C 	0.1042	0.3209	0.4525	0.139
Mof_C 	C 	0.05888	0.33874	0.4275	-0.17
Mof_C 	C 	0.0884	0.3322	0.3888	0.04
Mof_C 	C 	0.1632	0.3046	0.3764	-0.087
Mof_C 	C 	0.2127	0.2855	0.3993	-0.055
Mof_C 	C 	0.1797	0.2957	0.4371	0.058
Mof_C 	C 	0.2991	0.2563	0.4505	-0.164
Mof_C 	C 	0.194	0.2987	0.3343	0.311
Mof_C 	C 	0.0293	0.2171	0.5767	0.148
Mof_C 	C 	0.0895	0.1958	0.5906	-0.176
Mof_C 	C 	0.1219	0.1303	0.6025	0.046
Mof_C 	C 	0.0884	0.0924	0.5978	-0.114
Mof_C 	C 	0.0299	0.1158	0.5842	-0.046
Mof_C 	C 	0.0002	0.1785	0.5745	0.081
Mof_C 	C 	0.9082	0.1782	0.556	0.226
Mof_C 	C 	0.4162	0.8165	0.6019	-0.082
Mof_C 	C 	0.3542	0.8682	0.601	0.218
Mof_C 	C 	0.3571	0.9214	0.5816	-0.393
Mof_C 	C 	0.4296	0.9181	0.5637	0.349
Mof_C 	C 	0.4964	0.8635	0.5671	-0.288
Mof_C 	C 	0.4896	0.8107	0.5861	0.066
Mof_C 	C 	0.4449	0.9742	0.5422	-0.82
Mof_C 	C 	0.4994	0.1841	0.2289	0.14
Mof_C 	C 	0.4382	0.2046	0.2564	-0.009
Mof_C 	C 	0.4406	0.2049	0.2939	0.003
Mof_C 	C 	0.51	0.1798	0.3	-0.214
Mof_C 	C 	0.5769	0.1549	0.2707	0.247
Mof_C 	C 	0.5746	0.1553	0.2325	-0.28
Mof_C 	C 	0.6622	0.1228	0.277	-0.687
Mof_C 	C 	0.5117	0.2949	0.1013	0.216
Mof_C 	C 	0.4553	0.3527	0.0977	-0.081
Mof_C 	C 	0.4715	0.4007	0.0765	0.113
Mof_C 	C 	0.5427	0.3884	0.0588	-0.349
Mof_C 	C 	0.5995	0.33	0.0648	0.4
Mof_C 	C 	0.5868	0.2801	0.0841	-0.416
Mof_C 	C 	0.6848	0.3182	0.0452	-0.894
Mof_C 	C 	0.2323	0.446	0.213	-0.043
Mof_C 	C 	0.227	0.4165	0.2453	0.142
Mof_C 	C 	0.2099	0.442	0.2814	-0.381
Mof_C 	C 	0.1905	0.5044	0.2796	0.376
Mof_C 	C 	0.1984	0.5375	0.2455	-0.291
Mof_C 	C 	0.2191	0.5103	0.2095	0.039
Mof_C 	C 	0.1777	0.5377	0.3157	-0.883
Mof_C 	C 	0.4613	0.0925	0.1137	0.01
Mof_C 	C 	0.39231	0.09238	0.1122	0.119
Mof_C 	C 	0.3919	0.0442	0.0942	-0.337
Mof_C 	C 	0.46046	0.99618	0.0777	0.332
Mof_C 	C 	0.5294	0.9964	0.0792	-0.247
Mof_C 	C 	0.5298	0.0446	0.0972	0.005
Mof_C 	C 	0.4735	0.9589	0.0441	-0.827
Mof_C 	C 	0.1565	0.1901	0.2293	0.186
Mof_C 	C 	0.171	0.2114	0.2558	-0.08
Mof_C 	C 	0.1306	0.2056	0.2934	0.178
Mof_C 	C 	0.0825	0.1776	0.2976	-0.488
Mof_C 	C 	0.0644	0.1558	0.2708	0.589
Mof_C 	C 	0.1018	0.1614	0.2324	-0.453
Mof_C 	C 	0.0071	0.1311	0.2821	-1.24
Mof_C 	C 	0.6527	0.105	0.112	0.324
Mof_C 	C 	0.7362	0.0519	0.1051	-0.071
Mof_C 	C 	0.7688	0.0273	0.1325	-0.043
Mof_C 	C 	0.8441	0.9835	0.1221	0.044
Mof_C 	C 	0.8847	0.9682	0.0868	0.16
Mof_C 	C 	0.84681	0.99528	0.0609	-0.174
Mof_C 	C 	0.7692	0.0394	0.0678	0.029
Mof_C 	C 	0.8485	0.9704	0.1878	-0.253
Mof_C 	C 	0.00205	0.91567	0.04383	-0.017
Mof_C 	C 	0.08135	0.87604	0.04486	0.044
Mof_C 	C 	0.11007	0.91036	0.0639	-0.007
Mof_C 	C 	0.12745	0.8637	0.0056	-0.03
Mof_C 	C 	0.08429	0.8155	0.06612	-0.019
Mof_C 	C 	0.1147	0.0059	0.0627	0.212
Mof_C 	C 	0.0584	0.0473	0.0885	-0.216
Mof_C 	C 	0.0836	0.0858	0.1068	0.081
Mof_C 	C 	0.1439	0.0899	0.0963	-0.146
Mof_C 	C 	0.1911	0.0558	0.0688	0.018
Mof_C 	C 	0.1663	0.0192	0.0534	-0.038
Mof_C 	C 	0.296	0.9908	0.0064	-0.275
Mof_C 	C 	0.2392	0.5245	0.1095	0.403
Mof_C 	C 	0.1224	0.8209	0.9525	0.14
Mof_C 	C 	0.17488	0.83874	0.9275	-0.171
Mof_C 	C 	0.1906	0.8322	0.8888	0.041
Mof_C 	C 	0.1558	0.8046	0.8764	-0.087
Mof_C 	C 	0.1025	0.7855	0.8993	-0.055
Mof_C 	C 	0.0875	0.7957	0.9371	0.057
Mof_C 	C 	0.9941	0.7563	0.9505	-0.167
Mof_C 	C 	0.173	0.7987	0.8343	0.312
Mof_C 	C 	0.1769	0.7171	0.0767	0.149
Mof_C 	C 	0.1241	0.6958	0.0906	-0.176
Mof_C 	C 	0.1453	0.6303	0.1025	0.046
Mof_C 	C 	0.2214	0.5924	0.0978	-0.114
Mof_C 	C 	0.2701	0.6158	0.0842	-0.046
Mof_C 	C 	0.2468	0.6785	0.0745	0.082
Mof_C 	C 	0.3576	0.6782	0.056	0.23
Mof_C 	C 	0.1654	0.3165	0.1019	-0.082
Mof_C 	C 	0.1766	0.3682	0.101	0.218
Mof_C 	C 	0.1399	0.4214	0.0816	-0.393
Mof_C 	C 	0.0886	0.4181	0.0637	0.349
Mof_C 	C 	0.073	0.3635	0.0671	-0.288
Mof_C 	C 	0.1136	0.3107	0.0861	0.066
Mof_C 	C 	0.0387	0.4742	0.0422	-0.821
Mof_N 	N 	0.1517	0.7303	0.7453	-0.237
Mof_N 	N 	0.17331	0.72218	0.7094	-0.212
Mof_N 	N 	0.13711	0.69272	0.69846	-0.258
Mof_N 	N 	0.13877	0.75697	0.62289	-0.285
Mof_N 	N 	0.16957	0.79166	0.6326	-0.215
Mof_N 	N 	0.1435	0.84965	0.61715	-0.223
Mof_N 	N 	0.1554	0.90458	0.68462	-0.223
Mof_N 	N 	0.18388	0.84834	0.7001	-0.213
Mof_N 	N 	0.1618	0.8528	0.7368	-0.265
Mof_N 	N 	0.3823	0.64575	0.63085	-0.279
Mof_N 	N 	0.30701	0.6728	0.64098	-0.209
Mof_N 	N 	0.2771	0.63995	0.63145	-0.239
Mof_N 	N 	0.39825	0.70164	0.69766	-0.28
Mof_N 	N 	0.3225	0.7279	0.7087	-0.205
Mof_N 	N 	0.2979	0.7349	0.7449	-0.24
Mof_N 	N 	0.3938	0.77525	0.62275	-0.246
Mof_N 	N 	0.31798	0.80232	0.63212	-0.214
Mof_N 	N 	0.29119	0.86107	0.61875	-0.284
Mof_N 	N 	0.3727	0.2303	0.2453	-0.236
Mof_N 	N 	0.39511	0.22218	0.2094	-0.212
Mof_N 	N 	0.47171	0.19272	0.19846	-0.258
Mof_N 	N 	0.48137	0.25697	0.12289	-0.285
Mof_N 	N 	0.40617	0.29166	0.1326	-0.215
Mof_N 	N 	0.3897	0.34965	0.11715	-0.223
Mof_N 	N 	0.2554	0.40458	0.18462	-0.223
Mof_N 	N 	0.26768	0.34834	0.2001	-0.213
Mof_N 	N 	0.2486	0.3528	0.2368	-0.265
Mof_N 	N 	0.3411	0.14575	0.13085	-0.279
Mof_N 	N 	0.37921	0.1728	0.14098	-0.209
Mof_N 	N 	0.4515	0.13995	0.13145	-0.239
Mof_N 	N 	0.20245	0.20164	0.19766	-0.28
Mof_N 	N 	0.2409	0.2279	0.2087	-0.205
Mof_N 	N 	0.2223	0.2349	0.2449	-0.239
Mof_N 	N 	0.2082	0.27525	0.12275	-0.246
Mof_N 	N 	0.24758	0.30232	0.13212	-0.214
Mof_N 	N 	0.22899	0.36107	0.11875	-0.284
Mof_O 	O 	0.1618	0.6296	0.5874	-0.389
Mof_O 	O 	0.1192	0.6116	0.6466	-0.476
Mof_O 	O 	0.0879	0.9942	0.6114	-0.448
Mof_O 	O 	0.1828	0.0025	0.6191	-0.491
Mof_O 	O 	0.1504	0.3221	0.3131	-0.396
Mof_O 	O 	0.2643	0.26767	0.32293	-0.465
Mof_O 	O 	0.03447	0.42747	0.58079	-0.209
Mof_O 	O 	0.772	0.4737	0.5281	-0.129
Mof_O 	O 	0.9432	0.2053	0.5573	-0.28
Mof_O 	O 	0.22114	0.27822	0.4625	-0.156
Mof_O 	O 	0.08288	0.32804	0.4892	-0.199
Mof_O 	O 	0.99881	0.27546	0.56412	-0.199
Mof_O 	O 	0.88676	0.46811	0.54517	-0.224
Mof_O 	O 	0.01302	0.45476	0.6482	-0.15
Mof_O 	O 	0.6212	0.1296	0.0874	-0.389
Mof_O 	O 	0.6226	0.1116	0.1466	-0.476
Mof_O 	O 	0.3065	0.4942	0.1114	-0.448
Mof_O 	O 	0.1956	0.5025	0.1191	-0.491
Mof_O 	O 	0.2144	0.8221	0.8131	-0.396
Mof_O 	O 	0.1451	0.76767	0.82293	-0.465
Mof_O 	O 	0.95727	0.92747	0.08079	-0.212
Mof_O 	O 	0.2262	0.9737	0.0281	-0.128
Mof_O 	O 	0.2942	0.7053	0.0573	-0.282
Mof_O 	O 	0.03814	0.77822	0.9625	-0.155
Mof_O 	O 	0.09988	0.82804	0.9892	-0.2
Mof_O 	O 	0.16161	0.77546	0.06412	-0.199
Mof_O 	O 	0.09996	0.96811	0.04517	-0.223
Mof_O 	O 	0.88402	0.95476	0.1482	-0.149
Mof_Zn	Zn	0.67784	0.73945	0.82977	1.138
Mof_Zn	Zn	0.72092	0.58627	0.87239	1.185
Mof_Zn	Zn	0.47924	0.82849	0.85679	1.19
Mof_Zn	Zn	0.77475	0.81348	0.85888	1.125
Mof_Zn	Zn	0.73786	0.72338	0.731	1.19
Mof_Zn	Zn	0.75294	0.23945	0.32977	1.138
Mof_Zn	Zn	0.82042	0.08627	0.37239	1.186
Mof_Zn	Zn	0.83548	0.32849	0.35679	1.19
Mof_Zn	Zn	0.55289	0.31348	0.35888	1.125
Mof_Zn	Zn	0.80776	0.22338	0.231	1.19
Mof_H 	H 	0.6033	0.7785	0.6869	0.019
Mof_H 	H 	0.4848	0.8216	0.6756	0.082
Mof_H 	H 	0.3827	0.8613	0.7873	0.132
Mof_H 	H 	0.3397	0.8764	0.6968	0.219
Mof_H 	H 	0.3088	0.8546	0.7374	0.226
Mof_H 	H 	0.3139	0.92	0.731	0.228
Mof_H 	H 	0.567	0.5596	0.9252	-0.012
Mof_H 	H 	0.445	0.5818	0.9574	0.142
Mof_H 	H 	0.3746	0.7598	0.9146	0.168
Mof_H 	H 	0.3132	0.6438	0.9674	0.289
Mof_H 	H 	0.2946	0.7144	0.9728	0.31
Mof_H 	H 	0.2858	0.694	0.9362	0.295
Mof_H 	H 	0.7883	0.5816	0.6964	0.146
Mof_H 	H 	0.8104	0.4205	0.7537	0.12
Mof_H 	H 	0.7766	0.4679	0.8133	0.008
Mof_H 	H 	0.8365	0.418	0.6896	0.28
Mof_H 	H 	0.776	0.4795	0.6757	0.28
Mof_H 	H 	0.8624	0.4683	0.6653	0.3
Mof_H 	H 	0.6542	0.956	0.9068	0.105
Mof_H 	H 	0.4247	0.0358	0.9318	0.099
Mof_H 	H 	0.4241	0.9552	0.9018	0.021
Mof_H 	H 	0.4736	0.0697	0.9627	0.255
Mof_H 	H 	0.5389	0.0127	0.9767	0.253
Mof_H 	H 	0.5579	0.0641	0.9497	0.264
Mof_H 	H 	0.8628	0.7796	0.6862	-0.044
Mof_H 	H 	0.9419	0.8276	0.6778	0.185
Mof_H 	H 	0.9072	0.8513	0.7879	0.143
Mof_H 	H 	0.9995	0.8824	0.7396	0.384
Mof_H 	H 	0.0404	0.8369	0.7055	0.377
Mof_H 	H 	0.9774	0.9039	0.7009	0.383
Mof_H 	H 	0.2563	0.9618	0.8426	0.061
Mof_H 	H 	0.1274	0.015	0.964	0.105
Mof_H 	H 	0.2564	0.9423	0.9511	0.036
Mof_H 	H 	0.1157	0.0535	0.7973	0.105
Mof_H 	H 	0.1957	0.0391	0.8043	0.105
Mof_H 	H 	0.1666	0.9855	0.8091	0.109
Mof_H 	H 	0.0013	0.0449	0.9693	0.058
Mof_H 	H 	0.0164	0.1055	0.9695	0.057
Mof_H 	H 	0.918	0.0828	0.91	0.045
Mof_H 	H 	0.8362	0.1142	0.9368	0.054
Mof_H 	H 	0.8788	0.097	0.0082	0.058
Mof_H 	H 	0.8189	0.16	0.9948	0.059
Mof_H 	H 	0.9434	0.1757	0.9079	0.051
Mof_H 	H 	0.9391	0.2044	0.945	0.057
Mof_H 	H 	0.9918	0.9487	0.9057	0.116
Mof_H 	H 	0.9501	0.892	0.872	-0.021
Mof_H 	H 	0.7605	0.9443	0.9407	0.002
Mof_H 	H 	0.6677	0.0428	0.0102	0.117
Mof_H 	H 	0.6798	0.0041	0.9757	0.098
Mof_H 	H 	0.722	0.971	0.0078	0.111
Mof_H 	H 	0.7989	0.1439	0.0633	0.093
Mof_H 	H 	0.7754	0.1533	0.1277	0.027
Mof_H 	H 	0.9224	0.2329	0.1101	0.057
Mof_H 	H 	0.0387	0.2545	0.0281	0.077
Mof_H 	H 	0.9736	0.2801	0.0645	0.073
Mof_H 	H 	0.0366	0.2115	0.0643	0.076
Mof_H 	H 	0.9271	0.2774	0.907	0.093
Mof_H 	H 	0.8917	0.3853	0.8871	0.02
Mof_H 	H 	0.678	0.4098	0.9192	0.058
Mof_H 	H 	0.6149	0.2975	0.9577	-0.033
Mof_H 	H 	0.6238	0.3609	0.9565	-0.041
Mof_H 	H 	0.6347	0.33	0.919	-0.037
Mof_H 	H 	0.8513	0.5425	0.9195	0.158
Mof_H 	H 	0.9643	0.6366	0.9436	0.115
Mof_H 	H 	0.8937	0.7263	0.9119	-0.043
Mof_H 	H 	0.9471	0.4912	0.9588	0.258
Mof_H 	H 	0.0141	0.5134	0.945	0.255
Mof_H 	H 	0.9535	0.5382	0.9828	0.251
Mof_H 	H 	0.9313	0.2785	0.1869	0.019
Mof_H 	H 	0.018	0.3216	0.1756	0.081
Mof_H 	H 	0.9687	0.3613	0.2873	0.131
Mof_H 	H 	0.0871	0.3764	0.1968	0.219
Mof_H 	H 	0.0992	0.3546	0.2374	0.225
Mof_H 	H 	0.0351	0.42	0.231	0.228
Mof_H 	H 	0.9482	0.0596	0.4252	-0.011
Mof_H 	H 	0.0158	0.0818	0.4574	0.141
Mof_H 	H 	0.951	0.2598	0.4146	0.168
Mof_H 	H 	0.0756	0.1438	0.4674	0.289
Mof_H 	H 	0.0182	0.2144	0.4728	0.309
Mof_H 	H 	0.084	0.194	0.4362	0.294
Mof_H 	H 	0.9337	0.0816	0.1964	0.145
Mof_H 	H 	0.0154	0.9205	0.2537	0.12
Mof_H 	H 	0.9422	0.9679	0.3133	0.009
Mof_H 	H 	0.0559	0.918	0.1896	0.279
Mof_H 	H 	0.0688	0.9795	0.1757	0.28
Mof_H 	H 	0.004	0.9683	0.1653	0.3
Mof_H 	H 	0.483	0.456	0.4068	0.105
Mof_H 	H 	0.6077	0.5358	0.4318	0.099
Mof_H 	H 	0.7189	0.4552	0.4018	0.021
Mof_H 	H 	0.494	0.5697	0.4627	0.254
Mof_H 	H 	0.4717	0.5127	0.4767	0.253
Mof_H 	H 	0.4283	0.5641	0.4497	0.264
Mof_H 	H 	0.6714	0.2796	0.1862	-0.044
Mof_H 	H 	0.5527	0.3276	0.1778	0.184
Mof_H 	H 	0.4536	0.3513	0.2879	0.143
Mof_H 	H 	0.3785	0.3824	0.2396	0.383
Mof_H 	H 	0.4172	0.3369	0.2055	0.375
Mof_H 	H 	0.4178	0.4039	0.2009	0.382
Mof_H 	H 	0.9393	0.4618	0.3426	0.062
Mof_H 	H 	0.8936	0.515	0.464	0.104
Mof_H 	H 	0.8502	0.4423	0.4511	0.037
Mof_H 	H 	0.0335	0.5535	0.2973	0.104
Mof_H 	H 	0.9609	0.5391	0.3043	0.104
Mof_H 	H 	0.0388	0.4855	0.3091	0.107
Mof_H 	H 	0.9845	0.5449	0.4693	0.061
Mof_H 	H 	0.9086	0.6055	0.4695	0.06
Mof_H 	H 	0.0892	0.5828	0.41	0.045
Mof_H 	H 	0.1128	0.6142	0.4368	0.054
Mof_H 	H 	0.016	0.597	0.5082	0.059
Mof_H 	H 	0.0263	0.66	0.4948	0.061
Mof_H 	H 	0.973	0.6757	0.4079	0.052
Mof_H 	H 	0.9115	0.7044	0.445	0.058
Mof_H 	H 	0.1538	0.4487	0.4057	0.117
Mof_H 	H 	0.2859	0.392	0.372	-0.02
Mof_H 	H 	0.3545	0.4443	0.4407	0.002
Mof_H 	H 	0.2793	0.5428	0.5102	0.118
Mof_H 	H 	0.3404	0.5041	0.4757	0.098
Mof_H 	H 	0.2992	0.471	0.5078	0.112
Mof_H 	H 	0.9939	0.6439	0.5633	0.092
Mof_H 	H 	0.9436	0.6533	0.6277	0.027
Mof_H 	H 	0.7346	0.7329	0.6101	0.057
Mof_H 	H 	0.6787	0.7545	0.5281	0.076
Mof_H 	H 	0.6818	0.7801	0.5645	0.072
Mof_H 	H 	0.6876	0.7115	0.5643	0.075
Mof_H 	H 	0.8885	0.7774	0.407	0.093
Mof_H 	H 	0.8359	0.8853	0.3871	0.019
Mof_H 	H 	0.993	0.9098	0.4192	0.058
Mof_H 	H 	0.1299	0.7975	0.4577	-0.031
Mof_H 	H 	0.0588	0.8609	0.4565	-0.04
Mof_H 	H 	0.1163	0.83	0.419	-0.035
Mof_H 	H 	0.6867	0.0425	0.4195	0.158
Mof_H 	H 	0.4555	0.1366	0.4436	0.115
Mof_H 	H 	0.4681	0.2263	0.4119	-0.042
Mof_H 	H 	0.6029	0.9912	0.4588	0.258
Mof_H 	H 	0.5275	0.0134	0.445	0.255
Mof_H 	H 	0.5255	0.0382	0.4828	0.251
Mof_C 	C 	0.5006	0.8159	0.7711	0.14
Mof_C 	C 	0.5618	0.7954	0.7436	-0.009
Mof_C 	C 	0.5594	0.7951	0.7061	0.003
Mof_C 	C 	0.49	0.8202	0.7	-0.214
Mof_C 	C 	0.4231	0.8451	0.7293	0.247
Mof_C 	C 	0.4254	0.8447	0.7675	-0.28
Mof_C 	C 	0.3378	0.8772	0.723	-0.687
Mof_C 	C 	0.4883	0.7051	0.8987	0.216
Mof_C 	C 	0.5447	0.6473	0.9023	-0.081
Mof_C 	C 	0.5285	0.5993	0.9235	0.113
Mof_C 	C 	0.4573	0.6116	0.9412	-0.349
Mof_C 	C 	0.4005	0.67	0.9352	0.4
Mof_C 	C 	0.4132	0.7199	0.9159	-0.416
Mof_C 	C 	0.3152	0.6818	0.9548	-0.894
Mof_C 	C 	0.7677	0.554	0.787	-0.043
Mof_C 	C 	0.773	0.5835	0.7547	0.142
Mof_C 	C 	0.7901	0.558	0.7186	-0.381
Mof_C 	C 	0.8095	0.4956	0.7204	0.376
Mof_C 	C 	0.8016	0.4625	0.7545	-0.291
Mof_C 	C 	0.7809	0.4897	0.7905	0.039
Mof_C 	C 	0.8223	0.4623	0.6843	-0.883
Mof_C 	C 	0.5387	0.9075	0.8863	0.01
Mof_C 	C 	0.60769	0.90762	0.8878	0.119
Mof_C 	C 	0.6081	0.9558	0.9058	-0.337
Mof_C 	C 	0.53954	0.00382	0.9223	0.332
Mof_C 	C 	0.4706	0.0036	0.9208	-0.247
Mof_C 	C 	0.4702	0.9554	0.9028	0.005
Mof_C 	C 	0.5265	0.0411	0.9559	-0.827
Mof_C 	C 	0.8435	0.8099	0.7707	0.186
Mof_C 	C 	0.829	0.7886	0.7442	-0.08
Mof_C 	C 	0.8694	0.7944	0.7066	0.178
Mof_C 	C 	0.9175	0.8224	0.7024	-0.488
Mof_C 	C 	0.9356	0.8442	0.7292	0.589
Mof_C 	C 	0.8982	0.8386	0.7676	-0.453
Mof_C 	C 	0.9929	0.8689	0.7179	-1.24
Mof_C 	C 	0.3473	0.895	0.888	0.324
Mof_C 	C 	0.2638	0.9481	0.8949	-0.071
Mof_C 	C 	0.2312	0.9727	0.8675	-0.043
Mof_C 	C 	0.1559	0.0165	0.8779	0.044
Mof_C 	C 	0.1153	0.0318	0.9132	0.16
Mof_C 	C 	0.15319	0.00472	0.9391	-0.174
Mof_C 	C 	0.2308	0.9606	0.9322	0.029
Mof_C 	C 	0.1515	0.0296	0.8122	-0.253
Mof_C 	C 	0.99795	0.08433	0.95617	-0.017
Mof_C 	C 	0.91865	0.12396	0.95514	0.044
Mof_C 	C 	0.88993	0.08964	0.9361	-0.007
Mof_C 	C 	0.87255	0.1363	0.9944	-0.03
Mof_C 	C 	0.91571	0.1845	0.93388	-0.019
Mof_C 	C 	0.8853	0.9941	0.9373	0.212
Mof_C 	C 	0.9416	0.9527	0.9115	-0.216
Mof_C 	C 	0.9164	0.9142	0.8932	0.081
Mof_C 	C 	0.8561	0.9101	0.9037	-0.146
Mof_C 	C 	0.8089	0.9442	0.9312	0.018
Mof_C 	C 	0.8337	0.9808	0.9466	-0.038
Mof_C 	C 	0.704	0.0092	0.9936	-0.275
Mof_C 	C 	0.7608	0.4755	0.8905	0.403
Mof_C 	C 	0.8776	0.1791	0.0475	0.14
Mof_C 	C 	0.82512	0.16126	0.0725	-0.171
Mof_C 	C 	0.8094	0.1678	0.1112	0.041
Mof_C 	C 	0.8442	0.1954	0.1236	-0.087
Mof_C 	C 	0.8975	0.2145	0.1007	-0.055
Mof_C 	C 	0.9125	0.2043	0.0629	0.057
Mof_C 	C 	0.0059	0.2437	0.0495	-0.167
Mof_C 	C 	0.827	0.2013	0.1657	0.312
Mof_C 	C 	0.8231	0.2829	0.9233	0.149
Mof_C 	C 	0.8759	0.3042	0.9094	-0.176
Mof_C 	C 	0.8547	0.3697	0.8975	0.046
Mof_C 	C 	0.7786	0.4076	0.9022	-0.114
Mof_C 	C 	0.7299	0.3842	0.9158	-0.046
Mof_C 	C 	0.7532	0.3215	0.9255	0.082
Mof_C 	C 	0.6424	0.3218	0.944	0.23
Mof_C 	C 	0.8346	0.6835	0.8981	-0.082
Mof_C 	C 	0.8234	0.6318	0.899	0.218
Mof_C 	C 	0.8601	0.5786	0.9184	-0.393
Mof_C 	C 	0.9114	0.5819	0.9363	0.349
Mof_C 	C 	0.927	0.6365	0.9329	-0.288
Mof_C 	C 	0.8864	0.6893	0.9139	0.066
Mof_C 	C 	0.9613	0.5258	0.9578	-0.821
Mof_C 	C 	0.9124	0.3159	0.2711	0.139
Mof_C 	C 	0.8992	0.2954	0.2436	-0.008
Mof_C 	C 	0.9394	0.2951	0.2061	0.002
Mof_C 	C 	0.9898	0.3202	0.2	-0.212
Mof_C 	C 	0.0025	0.3451	0.2293	0.246
Mof_C 	C 	0.9624	0.3447	0.2675	-0.279
Mof_C 	C 	0.062	0.3772	0.223	-0.685
Mof_C 	C 	0.9079	0.2051	0.3987	0.215
Mof_C 	C 	0.9057	0.1473	0.4023	-0.081
Mof_C 	C 	0.9487	0.0993	0.4235	0.112
Mof_C 	C 	0.9899	0.1116	0.4412	-0.346
Mof_C 	C 	0.9943	0.17	0.4352	0.399
Mof_C 	C 	0.951	0.2199	0.4159	-0.415
Mof_C 	C 	0.0482	0.1818	0.4548	-0.893
Mof_C 	C 	0.8913	0.054	0.287	-0.041
Mof_C 	C 	0.8888	0.0835	0.2547	0.141
Mof_C 	C 	0.9333	0.058	0.2186	-0.378
Mof_C 	C 	0.9745	0.9956	0.2204	0.373
Mof_C 	C 	0.9814	0.9625	0.2545	-0.291
Mof_C 	C 	0.9389	0.9897	0.2905	0.037
Mof_C 	C 	0.0311	0.9623	0.1843	-0.879
Mof_C 	C 	0.6675	0.4075	0.3863	0.01
Mof_C 	C 	0.59689	0.40762	0.3878	0.118
Mof_C 	C 	0.5303	0.4558	0.4058	-0.337
Mof_C 	C 	0.53434	0.50382	0.4223	0.332
Mof_C 	C 	0.605	0.5036	0.4208	-0.247
Mof_C 	C 	0.6716	0.4554	0.4028	0.005
Mof_C 	C 	0.4765	0.5411	0.4559	-0.827
Mof_C 	C 	0.5759	0.3099	0.2707	0.186
Mof_C 	C 	0.6382	0.2886	0.2442	-0.079
Mof_C 	C 	0.6296	0.2944	0.2066	0.177
Mof_C 	C 	0.5577	0.3224	0.2024	-0.486
Mof_C 	C 	0.491	0.3442	0.2292	0.588
Mof_C 	C 	0.4956	0.3386	0.2676	-0.452
Mof_C 	C 	0.4203	0.3689	0.2179	-1.235
Mof_C 	C 	0.8697	0.395	0.388	0.323
Mof_C 	C 	0.8932	0.4481	0.3949	-0.069
Mof_C 	C 	0.9286	0.4727	0.3675	-0.046
Mof_C 	C 	0.9497	0.5165	0.3779	0.047
Mof_C 	C 	0.9397	0.5318	0.4132	0.157
Mof_C 	C 	0.90299	0.50472	0.4391	-0.17
Mof_C 	C 	0.8764	0.4606	0.4322	0.026
Mof_C 	C 	0.0067	0.5296	0.3122	-0.249
Mof_C 	C 	0.96155	0.58433	0.45617	-0.025
Mof_C 	C 	0.00225	0.62396	0.45514	0.049
Mof_C 	C 	0.08433	0.58964	0.4361	-0.009
Mof_C 	C 	0.99675	0.6363	0.4944	-0.035
Mof_C 	C 	0.96591	0.6845	0.43388	-0.022
Mof_C 	C 	0.1833	0.4941	0.4373	0.213
Mof_C 	C 	0.1942	0.4527	0.4115	-0.217
Mof_C 	C 	0.2762	0.4142	0.3932	0.082
Mof_C 	C 	0.3301	0.4101	0.4037	-0.146
Mof_C 	C 	0.3157	0.4442	0.4312	0.018
Mof_C 	C 	0.2389	0.4808	0.4466	-0.038
Mof_C 	C 	0.2932	0.5092	0.4936	-0.277
Mof_C 	C 	0.8732	0.9755	0.3905	0.403
Mof_C 	C 	0.8958	0.6791	0.5475	0.139
Mof_C 	C 	0.94112	0.66126	0.5725	-0.17
Mof_C 	C 	0.9116	0.6678	0.6112	0.04
Mof_C 	C 	0.8368	0.6954	0.6236	-0.087
Mof_C 	C 	0.7873	0.7145	0.6007	-0.055
Mof_C 	C 	0.8203	0.7043	0.5629	0.058
Mof_C 	C 	0.7009	0.7437	0.5495	-0.164
Mof_C 	C 	0.806	0.7013	0.6657	0.311
Mof_C 	C 	0.9707	0.7829	0.4233	0.148
Mof_C 	C 	0.9105	0.8042	0.4094	-0.176
Mof_C 	C 	0.8781	0.8697	0.3975	0.046
Mof_C 	C 	0.9116	0.9076	0.4022	-0.114
Mof_C 	C 	0.9701	0.8842	0.4158	-0.046
Mof_C 	C 	0.9998	0.8215	0.4255	0.081
Mof_C 	C 	0.0918	0.8218	0.444	0.226
Mof_C 	C 	0.5838	0.1835	0.3981	-0.082
Mof_C 	C 	0.6458	0.1318	0.399	0.218
Mof_C 	C 	0.6429	0.0786	0.4184	-0.393
Mof_C 	C 	0.5704	0.0819	0.4363	0.349
Mof_C 	C 	0.5036	0.1365	0.4329	-0.288
Mof_C 	C 	0.5104	0.1893	0.4139	0.066
Mof_C 	C 	0.5551	0.0258	0.4578	-0.82
Mof_N 	N 	0.6273	0.7697	0.7547	-0.236
Mof_N 	N 	0.60489	0.77782	0.7906	-0.212
Mof_N 	N 	0.52829	0.80728	0.80154	-0.258
Mof_N 	N 	0.51863	0.74303	0.87711	-0.285
Mof_N 	N 	0.59383	0.70834	0.8674	-0.215
Mof_N 	N 	0.6103	0.65035	0.88285	-0.223
Mof_N 	N 	0.7446	0.59542	0.81538	-0.223
Mof_N 	N 	0.73232	0.65166	0.7999	-0.213
Mof_N 	N 	0.7514	0.6472	0.7632	-0.265
Mof_N 	N 	0.6589	0.85425	0.86915	-0.279
Mof_N 	N 	0.62079	0.8272	0.85902	-0.209
Mof_N 	N 	0.5485	0.86005	0.86855	-0.239
Mof_N 	N 	0.79755	0.79836	0.80234	-0.28
Mof_N 	N 	0.7591	0.7721	0.7913	-0.205
Mof_N 	N 	0.7777	0.7651	0.7551	-0.239
Mof_N 	N 	0.7918	0.72475	0.87725	-0.246
Mof_N 	N 	0.75242	0.69768	0.86788	-0.214
Mof_N 	N 	0.77101	0.63893	0.88125	-0.284
Mof_N 	N 	0.8483	0.2697	0.2547	-0.237
Mof_N 	N 	0.82669	0.27782	0.2906	-0.212
Mof_N 	N 	0.86289	0.30728	0.30154	-0.258
Mof_N 	N 	0.86123	0.24303	0.37711	-0.285
Mof_N 	N 	0.83043	0.20834	0.3674	-0.215
Mof_N 	N 	0.8565	0.15035	0.38285	-0.223
Mof_N 	N 	0.8446	0.09542	0.31538	-0.223
Mof_N 	N 	0.81612	0.15166	0.2999	-0.213
Mof_N 	N 	0.8382	0.1472	0.2632	-0.265
Mof_N 	N 	0.6177	0.35425	0.36915	-0.279
Mof_N 	N 	0.69299	0.3272	0.35902	-0.209
Mof_N 	N 	0.7229	0.36005	0.36855	-0.239
Mof_N 	N 	0.60175	0.29836	0.30234	-0.28
Mof_N 	N 	0.6775	0.2721	0.2913	-0.205
Mof_N 	N 	0.7021	0.2651	0.2551	-0.24
Mof_N 	N 	0.6062	0.22475	0.37725	-0.246
Mof_N 	N 	0.68202	0.19768	0.36788	-0.214
Mof_N 	N 	0.70881	0.13893	0.38125	-0.284
Mof_O 	O 	0.3788	0.8704	0.9126	-0.389
Mof_O 	O 	0.3774	0.8884	0.8534	-0.476
Mof_O 	O 	0.6935	0.5058	0.8886	-0.448
Mof_O 	O 	0.8044	0.4975	0.8809	-0.491
Mof_O 	O 	0.7856	0.1779	0.1869	-0.396
Mof_O 	O 	0.8549	0.23233	0.17707	-0.465
Mof_O 	O 	0.04273	0.07253	0.91921	-0.212
Mof_O 	O 	0.7738	0.0263	0.9719	-0.128
Mof_O 	O 	0.7058	0.2947	0.9427	-0.282
Mof_O 	O 	0.96186	0.22178	0.0375	-0.155
Mof_O 	O 	0.90012	0.17196	0.0108	-0.2
Mof_O 	O 	0.83839	0.22454	0.93588	-0.199
Mof_O 	O 	0.90004	0.03189	0.95483	-0.223
Mof_O 	O 	0.11598	0.04524	0.8518	-0.149
Mof_O 	O 	0.8382	0.3704	0.4126	-0.389
Mof_O 	O 	0.8808	0.3884	0.3534	-0.476
Mof_O 	O 	0.9121	0.0058	0.3886	-0.448
Mof_O 	O 	0.8172	0.9975	0.3809	-0.491
Mof_O 	O 	0.8496	0.6779	0.6869	-0.396
Mof_O 	O 	0.7357	0.73233	0.67707	-0.465
Mof_O 	O 	0.96553	0.57253	0.41921	-0.209
Mof_O 	O 	0.228	0.5263	0.4719	-0.129
Mof_O 	O 	0.0568	0.7947	0.4427	-0.28
Mof_O 	O 	0.77886	0.72178	0.5375	-0.156
Mof_O 	O 	0.91712	0.67196	0.5108	-0.199
Mof_O 	O 	0.00119	0.72454	0.43588	-0.199
Mof_O 	O 	0.11324	0.53189	0.45483	-0.224
Mof_O 	O 	0.98698	0.54524	0.3518	-0.15
_end
