data_functionalizedCrystal
_audit_creation_method	'EQeq! by Chris Wilmer'
_symmetry_space_group_name_H-M	'P1'
_symmetry_Int_Tables_number	1
_symmetry_cell_setting	triclinic
loop_
_symmetry_equiv_pos_as_xyz
  x,y,z
_cell_length_a	17.1017
_cell_length_b	13.7034
_cell_length_c	10.0254
_cell_angle_alpha	90
_cell_angle_beta	105.429
_cell_angle_gamma	90
loop_
_atom_site_label
_atom_site_type_symbol
_atom_site_fract_x
_atom_site_fract_y
_atom_site_fract_z
_atom_site_charge
Mof_Zn	Zn	0.02874	0.11544	0.60296	1.24
Mof_Zn	Zn	0.5228	0.39908	0.7568	0.866
Mof_O 	O 	0.6009	0.4973	0.553	-0.509
Mof_O 	O 	0.64	0.4121	0.75	-0.422
Mof_O 	O 	0.7676	0.339	0.6745	-0.147
Mof_O 	O 	0.8797	0.1991	0.7823	-0.418
Mof_O 	O 	0.936	0.2192	0.6039	-0.455
Mof_O 	O 	0.0278	0.1691	0.4203	-0.563
Mof_C 	C 	0.6489	0.441	0.6361	0.333
Mof_C 	C 	0.7195	0.4078	0.593	0.018
Mof_C 	C 	0.746	0.4264	0.4788	-0.042
Mof_H 	H 	0.7235	0.4696	0.4074	0.071
Mof_C 	C 	0.8156	0.3655	0.4914	-0.029
Mof_H 	H 	0.8479	0.3621	0.4301	0.059
Mof_C 	C 	0.8254	0.3139	0.6095	0.024
Mof_C 	C 	0.8859	0.2375	0.6713	0.348
Mof_Zn	Zn	0.52874	0.61544	0.60296	1.228
Mof_Zn	Zn	0.0228	0.89908	0.7568	0.894
Mof_O 	O 	0.1009	0.9973	0.553	-0.498
Mof_O 	O 	0.14	0.9121	0.75	-0.415
Mof_O 	O 	0.2676	0.839	0.6745	-0.145
Mof_O 	O 	0.3797	0.6991	0.7823	-0.403
Mof_O 	O 	0.436	0.7192	0.6039	-0.42
Mof_O 	O 	0.5278	0.6691	0.4203	-0.598
Mof_C 	C 	0.1489	0.941	0.6361	0.334
Mof_C 	C 	0.2195	0.9078	0.593	0.02
Mof_C 	C 	0.246	0.9264	0.4788	-0.038
Mof_H 	H 	0.2235	0.9696	0.4074	0.071
Mof_C 	C 	0.3156	0.8655	0.4914	-0.031
Mof_H 	H 	0.3479	0.8621	0.4301	0.069
Mof_C 	C 	0.3254	0.8139	0.6095	0.033
Mof_C 	C 	0.3859	0.7375	0.6713	0.346
Mof_Zn	Zn	0.97126	0.11544	0.89704	1.208
Mof_Zn	Zn	0.4772	0.39908	0.7432	0.865
Mof_O 	O 	0.3991	0.4973	0.947	-0.508
Mof_O 	O 	0.36	0.4121	0.75	-0.421
Mof_O 	O 	0.2324	0.339	0.8255	-0.147
Mof_O 	O 	0.1203	0.1991	0.7177	-0.394
Mof_O 	O 	0.064	0.2192	0.8961	-0.387
Mof_O 	O 	0.9722	0.1691	0.0797	-0.631
Mof_C 	C 	0.3511	0.441	0.8639	0.333
Mof_C 	C 	0.2805	0.4078	0.907	0.023
Mof_C 	C 	0.254	0.4264	0.0212	-0.036
Mof_H 	H 	0.2765	0.4696	0.0926	0.072
Mof_C 	C 	0.1844	0.3655	0.0086	-0.039
Mof_H 	H 	0.1521	0.3621	0.0699	0.08
Mof_C 	C 	0.1746	0.3139	0.8905	0.048
Mof_C 	C 	0.1141	0.2375	0.8287	0.341
Mof_Zn	Zn	0.47126	0.61544	0.89704	1.228
Mof_Zn	Zn	0.9772	0.89908	0.7432	0.83
Mof_O 	O 	0.8991	0.9973	0.947	-0.529
Mof_O 	O 	0.86	0.9121	0.75	-0.434
Mof_O 	O 	0.7324	0.839	0.8255	-0.148
Mof_O 	O 	0.6203	0.6991	0.7177	-0.405
Mof_O 	O 	0.564	0.7192	0.8961	-0.419
Mof_O 	O 	0.4722	0.6691	0.0797	-0.598
Mof_C 	C 	0.8511	0.941	0.8639	0.333
Mof_C 	C 	0.7805	0.9078	0.907	0.018
Mof_C 	C 	0.754	0.9264	0.0212	-0.038
Mof_H 	H 	0.7765	0.9696	0.0926	0.069
Mof_C 	C 	0.6844	0.8655	0.0086	-0.034
Mof_H 	H 	0.6521	0.8621	0.0699	0.069
Mof_C 	C 	0.6746	0.8139	0.8905	0.036
Mof_C 	C 	0.6141	0.7375	0.8287	0.345
Mof_Zn	Zn	0.97126	0.88456	0.39704	1.209
Mof_Zn	Zn	0.4772	0.60092	0.2432	0.865
Mof_O 	O 	0.3991	0.5027	0.447	-0.509
Mof_O 	O 	0.36	0.5879	0.25	-0.422
Mof_O 	O 	0.2324	0.661	0.3255	-0.146
Mof_O 	O 	0.1203	0.8009	0.2177	-0.396
Mof_O 	O 	0.064	0.7808	0.3961	-0.389
Mof_O 	O 	0.9722	0.8309	0.5797	-0.635
Mof_C 	C 	0.3511	0.559	0.3639	0.334
Mof_C 	C 	0.2805	0.5922	0.407	0.019
Mof_C 	C 	0.254	0.5736	0.5212	-0.032
Mof_H 	H 	0.2765	0.5304	0.5926	0.072
Mof_C 	C 	0.1844	0.6345	0.5086	-0.034
Mof_H 	H 	0.1521	0.6379	0.5699	0.08
Mof_C 	C 	0.1746	0.6861	0.3905	0.042
Mof_C 	C 	0.1141	0.7625	0.3287	0.343
Mof_Zn	Zn	0.47126	0.38456	0.39704	1.228
Mof_Zn	Zn	0.9772	0.10092	0.2432	0.833
Mof_O 	O 	0.8991	0.0027	0.447	-0.53
Mof_O 	O 	0.86	0.0879	0.25	-0.433
Mof_O 	O 	0.7324	0.161	0.3255	-0.147
Mof_O 	O 	0.6203	0.3009	0.2177	-0.405
Mof_O 	O 	0.564	0.2808	0.3961	-0.42
Mof_O 	O 	0.4722	0.3309	0.5797	-0.597
Mof_C 	C 	0.8511	0.059	0.3639	0.334
Mof_C 	C 	0.7805	0.0922	0.407	0.016
Mof_C 	C 	0.754	0.0736	0.5212	-0.037
Mof_H 	H 	0.7765	0.0304	0.5926	0.069
Mof_C 	C 	0.6844	0.1345	0.5086	-0.032
Mof_H 	H 	0.6521	0.1379	0.5699	0.069
Mof_C 	C 	0.6746	0.1861	0.3905	0.033
Mof_C 	C 	0.6141	0.2625	0.3287	0.346
Mof_Zn	Zn	0.02874	0.88456	0.10296	1.238
Mof_Zn	Zn	0.5228	0.60092	0.2568	0.865
Mof_O 	O 	0.6009	0.5027	0.053	-0.51
Mof_O 	O 	0.64	0.5879	0.25	-0.423
Mof_O 	O 	0.7676	0.661	0.1745	-0.148
Mof_O 	O 	0.8797	0.8009	0.2823	-0.418
Mof_O 	O 	0.936	0.7808	0.1039	-0.454
Mof_O 	O 	0.0278	0.8309	0.9203	-0.558
Mof_C 	C 	0.6489	0.559	0.1361	0.333
Mof_C 	C 	0.7195	0.5922	0.093	0.018
Mof_C 	C 	0.746	0.5736	0.9788	-0.042
Mof_H 	H 	0.7235	0.5304	0.9074	0.071
Mof_C 	C 	0.8156	0.6345	0.9914	-0.029
Mof_H 	H 	0.8479	0.6379	0.9301	0.059
Mof_C 	C 	0.8254	0.6861	0.1095	0.024
Mof_C 	C 	0.8859	0.7625	0.1713	0.348
Mof_Zn	Zn	0.52874	0.38456	0.10296	1.228
Mof_Zn	Zn	0.0228	0.10092	0.2568	0.892
Mof_O 	O 	0.1009	0.0027	0.053	-0.501
Mof_O 	O 	0.14	0.0879	0.25	-0.417
Mof_O 	O 	0.2676	0.161	0.1745	-0.145
Mof_O 	O 	0.3797	0.3009	0.2823	-0.404
Mof_O 	O 	0.436	0.2808	0.1039	-0.42
Mof_O 	O 	0.5278	0.3309	0.9203	-0.597
Mof_C 	C 	0.1489	0.059	0.1361	0.335
Mof_C 	C 	0.2195	0.0922	0.093	0.017
Mof_C 	C 	0.246	0.0736	0.9788	-0.035
Mof_H 	H 	0.2235	0.0304	0.9074	0.07
Mof_C 	C 	0.3156	0.1345	0.9914	-0.03
Mof_H 	H 	0.3479	0.1379	0.9301	0.068
Mof_C 	C 	0.3254	0.1861	0.1095	0.031
Mof_C 	C 	0.3859	0.2625	0.1713	0.346
Mof_O 	O 	2.50987e-17	0.0361	0.75	-0.75
Mof_O 	O 	0.5	0.5361	0.75	-0.794
Mof_O 	O 	6.95686e-34	0.9639	0.25	-0.753
Mof_O 	O 	0.5	0.4639	0.25	-0.794
_end
