# CIF file generated by openbabel 3.1.0, see https://openbabel.org
data_I
_chemical_name_common 'image0'
_cell_length_a 10.0627
_cell_length_b 23.0608
_cell_length_c 26.8432
_cell_angle_alpha 90
_cell_angle_beta 95.116
_cell_angle_gamma 90
_space_group_name_H-M_alt 'P 1'
_space_group_name_Hall 'P 1'
loop_
    _symmetry_equiv_pos_as_xyz
    x,y,z
loop_
    _atom_site_label
    _atom_site_type_symbol
    _atom_site_fract_x
    _atom_site_fract_y
    _atom_site_fract_z
    _atom_site_occupancy
    Zn1      Zn       0.34896    0.19271    0.27196    1.000
    Zn2      Zn       0.03815    0.24475    0.18301    1.000
    Zn3      Zn       0.35673    0.50827    0.00810    1.000
    N1       N        0.52360    0.93000    0.83070    1.000
    N2       N        0.61940    0.88050    0.77280    1.000
    N3       N        0.14840    0.96420    0.09940    1.000
    N4       N        0.06080    0.16960    0.14240    1.000
    N5       N        0.17270    0.76770    0.18090    1.000
    O1       O        0.30450    0.23870    0.20730    1.000
    O2       O        0.17910    0.29690    0.15880    1.000
    O3       O        0.39440    0.44000    0.05490    1.000
    O4       O        0.61210    0.42810    0.04350    1.000
    O5       O        0.88890    0.29430    0.15770    1.000
    O6       O        0.78340    0.21560    0.17790    1.000
    O7       O        0.17330    0.16220    0.29140    1.000
    O8       O        0.03220    0.22790    0.25300    1.000
    O9       O        0.55720    0.20600    0.27840    1.000
    O10      O        0.48850    0.14880    0.33760    1.000
    O11      O        0.04490    0.05930    0.43920    1.000
    O12      O        0.83290    0.04900    0.45070    1.000
    C1       C        0.29210    0.27970    0.17570    1.000
    C2       C        0.50830    0.41680    0.06300    1.000
    C3       C        0.78130    0.26670    0.16180    1.000
    C4       C        0.41130    0.30350    0.15510    1.000
    C5       C        0.40360    0.34680    0.12110    1.000
    H1       H        0.32150    0.36380    0.11140    1.000
    C6       C        0.51820    0.36620    0.10030    1.000
    C7       C        0.64360    0.34340    0.11260    1.000
    H2       H        0.71870    0.35730    0.09870    1.000
    C8       C        0.65110    0.29760    0.14770    1.000
    C9       C        0.53670    0.27860    0.16850    1.000
    H3       H        0.54370    0.24880    0.19190    1.000
    C10      C        0.05930    0.18570    0.28290    1.000
    C11      C        0.57900    0.17190    0.31590    1.000
    C12      C        0.92580    0.06620    0.42870    1.000
    C13      C        0.95420    0.16390    0.31550    1.000
    C14      C        0.82180    0.17870    0.30130    1.000
    H4       H        0.79920    0.20230    0.27370    1.000
    C15      C        0.72390    0.15650    0.33040    1.000
    C16      C        0.75750    0.12390    0.37180    1.000
    H5       H        0.69150    0.11330    0.39220    1.000
    C17      C        0.88650    0.10630    0.38420    1.000
    C18      C        0.99130    0.12600    0.35670    1.000
    H6       H        0.07940    0.11490    0.36490    1.000
    C19      C        0.53420    0.87860    0.80790    1.000
    H7       H        0.48740    0.84560    0.81570    1.000
    C20      C        0.66470    0.93540    0.77280    1.000
    H8       H        0.72540    0.94970    0.75170    1.000
    C21      C        0.60620    0.96760    0.80950    1.000
    H9       H        0.62080    0.00650    0.81760    1.000
    C22      C        0.44320    0.93800    0.87250    1.000
    C23      C        0.35590    0.89450    0.88360    1.000
    H10      H        0.34000    0.86170    0.86390    1.000
    C24      C        0.29210    0.90520    0.92840    1.000
    H11      H        0.23410    0.87710    0.93870    1.000
    C25      C        0.31130    0.95420    0.95700    1.000
    C26      C        0.39500    0.99700    0.94260    1.000
    H12      H        0.40590    0.03060    0.96180    1.000
    C27      C        0.46490    0.99130    0.89940    1.000
    H13      H        0.52100    0.02010    0.88910    1.000
    C28      C        0.16020    0.01250    0.07250    1.000
    C29      C        0.20260    0.01240    0.02310    1.000
    H14      H        0.20320    0.04580    0.00380    1.000
    C30      C        0.24350    0.95790    0.00550    1.000
    C31      C        0.23320    0.90580    0.03320    1.000
    H15      H        0.25500    0.87010    0.02010    1.000
    C32      C        0.18700    0.91080    0.08300    1.000
    C33      C        0.13400    0.16960    0.10420    1.000
    H16      H        0.16740    0.20450    0.09330    1.000
    C34      C        0.16390    0.11680    0.07900    1.000
    H17      H        0.21340    0.11800    0.05140    1.000
    C35      C        0.12130    0.06680    0.09480    1.000
    C36      C        0.05140    0.06560    0.13440    1.000
    H18      H        0.01950    0.03060    0.14590    1.000
    C37      C        0.02580    0.11840    0.15910    1.000
    H19      H        0.98250    0.11690    0.18820    1.000
    C38      C        0.15170    0.82350    0.19490    1.000
    H20      H        0.13160    0.83040    0.22750    1.000
    C39      C        0.15880    0.87130    0.16270    1.000
    H21      H        0.14910    0.90890    0.17440    1.000
    C40      C        0.17980    0.86140    0.11460    1.000
    C41      C        0.20160    0.80720    0.09860    1.000
    H22      H        0.22010    0.80000    0.06590    1.000
    C42      C        0.19530    0.76240    0.13320    1.000
    H23      H        0.20820    0.72490    0.12160    1.000
    Zn4      Zn       0.15104    0.69271    0.22804    1.000
    Zn5      Zn       0.46185    0.74475    0.31699    1.000
    Zn6      Zn       0.14327    0.00827    0.49190    1.000
    N6       N        0.97640    0.43000    0.66930    1.000
    N7       N        0.88060    0.38050    0.72720    1.000
    N8       N        0.35160    0.46420    0.40060    1.000
    N9       N        0.43920    0.66960    0.35760    1.000
    N10      N        0.32730    0.26770    0.31910    1.000
    O13      O        0.19550    0.73870    0.29270    1.000
    O14      O        0.32090    0.79690    0.34120    1.000
    O15      O        0.10560    0.94000    0.44510    1.000
    O16      O        0.88790    0.92810    0.45650    1.000
    O17      O        0.61110    0.79430    0.34230    1.000
    O18      O        0.71660    0.71560    0.32210    1.000
    O19      O        0.32670    0.66220    0.20860    1.000
    O20      O        0.46780    0.72790    0.24700    1.000
    O21      O        0.94280    0.70600    0.22160    1.000
    O22      O        0.01150    0.64880    0.16240    1.000
    O23      O        0.45510    0.55930    0.06080    1.000
    O24      O        0.66710    0.54900    0.04930    1.000
    C43      C        0.20790    0.77970    0.32430    1.000
    C44      C        0.99170    0.91680    0.43700    1.000
    C45      C        0.71870    0.76670    0.33820    1.000
    C46      C        0.08870    0.80350    0.34490    1.000
    C47      C        0.09640    0.84680    0.37890    1.000
    H24      H        0.17850    0.86380    0.38860    1.000
    C48      C        0.98180    0.86620    0.39970    1.000
    C49      C        0.85640    0.84340    0.38740    1.000
    H25      H        0.78130    0.85730    0.40130    1.000
    C50      C        0.84890    0.79760    0.35230    1.000
    C51      C        0.96330    0.77860    0.33150    1.000
    H26      H        0.95630    0.74880    0.30810    1.000
    C52      C        0.44070    0.68570    0.21710    1.000
    C53      C        0.92100    0.67190    0.18410    1.000
    C54      C        0.57420    0.56620    0.07130    1.000
    C55      C        0.54580    0.66390    0.18450    1.000
    C56      C        0.67820    0.67870    0.19870    1.000
    H27      H        0.70080    0.70230    0.22630    1.000
    C57      C        0.77610    0.65650    0.16960    1.000
    C58      C        0.74250    0.62390    0.12820    1.000
    H28      H        0.80850    0.61330    0.10780    1.000
    C59      C        0.61350    0.60630    0.11580    1.000
    C60      C        0.50870    0.62600    0.14330    1.000
    H29      H        0.42060    0.61490    0.13510    1.000
    C61      C        0.96580    0.37860    0.69210    1.000
    H30      H        0.01260    0.34560    0.68430    1.000
    C62      C        0.83530    0.43540    0.72720    1.000
    H31      H        0.77460    0.44970    0.74830    1.000
    C63      C        0.89380    0.46760    0.69050    1.000
    H32      H        0.87920    0.50650    0.68240    1.000
    C64      C        0.05680    0.43800    0.62750    1.000
    C65      C        0.14410    0.39450    0.61640    1.000
    H33      H        0.16000    0.36170    0.63610    1.000
    C66      C        0.20790    0.40520    0.57160    1.000
    H34      H        0.26590    0.37710    0.56130    1.000
    C67      C        0.18870    0.45420    0.54300    1.000
    C68      C        0.10500    0.49700    0.55740    1.000
    H35      H        0.09410    0.53060    0.53820    1.000
    C69      C        0.03510    0.49130    0.60060    1.000
    H36      H        0.97900    0.52010    0.61090    1.000
    C70      C        0.33980    0.51250    0.42750    1.000
    C71      C        0.29740    0.51240    0.47690    1.000
    H37      H        0.29680    0.54580    0.49620    1.000
    C72      C        0.25650    0.45790    0.49450    1.000
    C73      C        0.26680    0.40580    0.46680    1.000
    H38      H        0.24500    0.37010    0.47990    1.000
    C74      C        0.31300    0.41080    0.41700    1.000
    C75      C        0.36600    0.66960    0.39580    1.000
    H39      H        0.33260    0.70450    0.40670    1.000
    C76      C        0.33610    0.61680    0.42100    1.000
    H40      H        0.28660    0.61800    0.44860    1.000
    C77      C        0.37870    0.56680    0.40520    1.000
    C78      C        0.44860    0.56560    0.36560    1.000
    H41      H        0.48050    0.53060    0.35410    1.000
    C79      C        0.47420    0.61840    0.34090    1.000
    H42      H        0.51750    0.61690    0.31180    1.000
    C80      C        0.34830    0.32350    0.30510    1.000
    H43      H        0.36840    0.33040    0.27250    1.000
    C81      C        0.34120    0.37130    0.33730    1.000
    H44      H        0.35090    0.40890    0.32560    1.000
    C82      C        0.32020    0.36140    0.38540    1.000
    C83      C        0.29840    0.30720    0.40140    1.000
    H45      H        0.27990    0.30000    0.43410    1.000
    C84      C        0.30470    0.26240    0.36680    1.000
    H46      H        0.29180    0.22490    0.37840    1.000
    Zn7      Zn       0.65104    0.80729    0.72804    1.000
    Zn8      Zn       0.96185    0.75525    0.81699    1.000
    Zn9      Zn       0.64327    0.49173    0.99190    1.000
    N11      N        0.47640    0.07000    0.16930    1.000
    N12      N        0.38060    0.11950    0.22720    1.000
    N13      N        0.85160    0.03580    0.90060    1.000
    N14      N        0.93920    0.83040    0.85760    1.000
    N15      N        0.82730    0.23230    0.81910    1.000
    O25      O        0.69550    0.76130    0.79270    1.000
    O26      O        0.82090    0.70310    0.84120    1.000
    O27      O        0.60560    0.56000    0.94510    1.000
    O28      O        0.38790    0.57190    0.95650    1.000
    O29      O        0.11110    0.70570    0.84230    1.000
    O30      O        0.21660    0.78440    0.82210    1.000
    O31      O        0.82670    0.83780    0.70860    1.000
    O32      O        0.96780    0.77210    0.74700    1.000
    O33      O        0.44280    0.79400    0.72160    1.000
    O34      O        0.51150    0.85120    0.66240    1.000
    O35      O        0.95510    0.94070    0.56080    1.000
    O36      O        0.16710    0.95100    0.54930    1.000
    C85      C        0.70790    0.72030    0.82430    1.000
    C86      C        0.49170    0.58320    0.93700    1.000
    C87      C        0.21870    0.73330    0.83820    1.000
    C88      C        0.58870    0.69650    0.84490    1.000
    C89      C        0.59640    0.65320    0.87890    1.000
    H47      H        0.67850    0.63620    0.88860    1.000
    C90      C        0.48180    0.63380    0.89970    1.000
    C91      C        0.35640    0.65660    0.88740    1.000
    H48      H        0.28130    0.64270    0.90130    1.000
    C92      C        0.34890    0.70240    0.85230    1.000
    C93      C        0.46330    0.72140    0.83150    1.000
    H49      H        0.45630    0.75120    0.80810    1.000
    C94      C        0.94070    0.81430    0.71710    1.000
    C95      C        0.42100    0.82810    0.68410    1.000
    C96      C        0.07420    0.93380    0.57130    1.000
    C97      C        0.04580    0.83610    0.68450    1.000
    C98      C        0.17820    0.82130    0.69870    1.000
    H50      H        0.20080    0.79770    0.72630    1.000
    C99      C        0.27610    0.84350    0.66960    1.000
    C100     C        0.24250    0.87610    0.62820    1.000
    H51      H        0.30850    0.88670    0.60780    1.000
    C101     C        0.11350    0.89370    0.61580    1.000
    C102     C        0.00870    0.87400    0.64330    1.000
    H52      H        0.92060    0.88510    0.63510    1.000
    C103     C        0.46580    0.12140    0.19210    1.000
    H53      H        0.51260    0.15440    0.18430    1.000
    C104     C        0.33530    0.06460    0.22720    1.000
    H54      H        0.27460    0.05030    0.24830    1.000
    C105     C        0.39380    0.03240    0.19050    1.000
    H55      H        0.37920    0.99350    0.18240    1.000
    C106     C        0.55680    0.06200    0.12750    1.000
    C107     C        0.64410    0.10550    0.11640    1.000
    H56      H        0.66000    0.13830    0.13610    1.000
    C108     C        0.70790    0.09480    0.07160    1.000
    H57      H        0.76590    0.12290    0.06130    1.000
    C109     C        0.68870    0.04580    0.04300    1.000
    C110     C        0.60500    0.00300    0.05740    1.000
    H58      H        0.59410    0.96940    0.03820    1.000
    C111     C        0.53510    0.00870    0.10060    1.000
    H59      H        0.47900    0.97990    0.11090    1.000
    C112     C        0.83980    0.98750    0.92750    1.000
    C113     C        0.79740    0.98760    0.97690    1.000
    H60      H        0.79680    0.95420    0.99620    1.000
    C114     C        0.75650    0.04210    0.99450    1.000
    C115     C        0.76680    0.09420    0.96680    1.000
    H61      H        0.74500    0.12990    0.97990    1.000
    C116     C        0.81300    0.08920    0.91700    1.000
    C117     C        0.86600    0.83040    0.89580    1.000
    H62      H        0.83260    0.79550    0.90670    1.000
    C118     C        0.83610    0.88320    0.92100    1.000
    H63      H        0.78660    0.88200    0.94860    1.000
    C119     C        0.87870    0.93320    0.90520    1.000
    C120     C        0.94860    0.93440    0.86560    1.000
    H64      H        0.98050    0.96940    0.85410    1.000
    C121     C        0.97420    0.88160    0.84090    1.000
    H65      H        0.01750    0.88310    0.81180    1.000
    C122     C        0.84830    0.17650    0.80510    1.000
    H66      H        0.86840    0.16960    0.77250    1.000
    C123     C        0.84120    0.12870    0.83730    1.000
    H67      H        0.85090    0.09110    0.82560    1.000
    C124     C        0.82020    0.13860    0.88540    1.000
    C125     C        0.79840    0.19280    0.90140    1.000
    H68      H        0.77990    0.20000    0.93410    1.000
    C126     C        0.80470    0.23760    0.86680    1.000
    H69      H        0.79180    0.27510    0.87840    1.000
    Zn10     Zn       0.84896    0.30729    0.77196    1.000
    Zn11     Zn       0.53815    0.25525    0.68301    1.000
    Zn12     Zn       0.85673    0.99173    0.50810    1.000
    N16      N        0.02360    0.57000    0.33070    1.000
    N17      N        0.11940    0.61950    0.27280    1.000
    N18      N        0.64840    0.53580    0.59940    1.000
    N19      N        0.56080    0.33040    0.64240    1.000
    N20      N        0.67270    0.73230    0.68090    1.000
    O37      O        0.80450    0.26130    0.70730    1.000
    O38      O        0.67910    0.20310    0.65880    1.000
    O39      O        0.89440    0.06000    0.55490    1.000
    O40      O        0.11210    0.07190    0.54350    1.000
    O41      O        0.38890    0.20570    0.65770    1.000
    O42      O        0.28340    0.28440    0.67790    1.000
    O43      O        0.67330    0.33780    0.79140    1.000
    O44      O        0.53220    0.27210    0.75300    1.000
    O45      O        0.05720    0.29400    0.77840    1.000
    O46      O        0.98850    0.35120    0.83760    1.000
    O47      O        0.54490    0.44070    0.93920    1.000
    O48      O        0.33290    0.45100    0.95070    1.000
    C127     C        0.79210    0.22030    0.67570    1.000
    C128     C        0.00830    0.08320    0.56300    1.000
    C129     C        0.28130    0.23330    0.66180    1.000
    C130     C        0.91130    0.19650    0.65510    1.000
    C131     C        0.90360    0.15320    0.62110    1.000
    H70      H        0.82150    0.13620    0.61140    1.000
    C132     C        0.01820    0.13380    0.60030    1.000
    C133     C        0.14360    0.15660    0.61260    1.000
    H71      H        0.21870    0.14270    0.59870    1.000
    C134     C        0.15110    0.20240    0.64770    1.000
    C135     C        0.03670    0.22140    0.66850    1.000
    H72      H        0.04370    0.25120    0.69190    1.000
    C136     C        0.55930    0.31430    0.78290    1.000
    C137     C        0.07900    0.32810    0.81590    1.000
    C138     C        0.42580    0.43380    0.92870    1.000
    C139     C        0.45420    0.33610    0.81550    1.000
    C140     C        0.32180    0.32130    0.80130    1.000
    H73      H        0.29920    0.29770    0.77370    1.000
    C141     C        0.22390    0.34350    0.83040    1.000
    C142     C        0.25750    0.37610    0.87180    1.000
    H74      H        0.19150    0.38670    0.89220    1.000
    C143     C        0.38650    0.39370    0.88420    1.000
    C144     C        0.49130    0.37400    0.85670    1.000
    H75      H        0.57940    0.38510    0.86490    1.000
    C145     C        0.03420    0.62140    0.30790    1.000
    H76      H        0.98740    0.65440    0.31570    1.000
    C146     C        0.16470    0.56460    0.27280    1.000
    H77      H        0.22540    0.55030    0.25170    1.000
    C147     C        0.10620    0.53240    0.30950    1.000
    H78      H        0.12080    0.49350    0.31760    1.000
    C148     C        0.94320    0.56200    0.37250    1.000
    C149     C        0.85590    0.60550    0.38360    1.000
    H79      H        0.84000    0.63830    0.36390    1.000
    C150     C        0.79210    0.59480    0.42840    1.000
    H80      H        0.73410    0.62290    0.43870    1.000
    C151     C        0.81130    0.54580    0.45700    1.000
    C152     C        0.89500    0.50300    0.44260    1.000
    H81      H        0.90590    0.46940    0.46180    1.000
    C153     C        0.96490    0.50870    0.39940    1.000
    H82      H        0.02100    0.47990    0.38910    1.000
    C154     C        0.66020    0.48750    0.57250    1.000
    C155     C        0.70260    0.48760    0.52310    1.000
    H83      H        0.70320    0.45420    0.50380    1.000
    C156     C        0.74350    0.54210    0.50550    1.000
    C157     C        0.73320    0.59420    0.53320    1.000
    H84      H        0.75500    0.62990    0.52010    1.000
    C158     C        0.68700    0.58920    0.58300    1.000
    C159     C        0.63400    0.33040    0.60420    1.000
    H85      H        0.66740    0.29550    0.59330    1.000
    C160     C        0.66390    0.38320    0.57900    1.000
    H86      H        0.71340    0.38200    0.55140    1.000
    C161     C        0.62130    0.43320    0.59480    1.000
    C162     C        0.55140    0.43440    0.63440    1.000
    H87      H        0.51950    0.46940    0.64590    1.000
    C163     C        0.52580    0.38160    0.65910    1.000
    H88      H        0.48250    0.38310    0.68820    1.000
    C164     C        0.65170    0.67650    0.69490    1.000
    H89      H        0.63160    0.66960    0.72750    1.000
    C165     C        0.65880    0.62870    0.66270    1.000
    H90      H        0.64910    0.59110    0.67440    1.000
    C166     C        0.67980    0.63860    0.61460    1.000
    C167     C        0.70160    0.69280    0.59860    1.000
    H91      H        0.72010    0.70000    0.56590    1.000
    C168     C        0.69530    0.73760    0.63320    1.000
    H92      H        0.70820    0.77510    0.62160    1.000
