data_functionalizedCrystal
_audit_creation_method	'EQeq! by Chris Wilmer'
_symmetry_space_group_name_H-M	'P1'
_symmetry_Int_Tables_number	1
_symmetry_cell_setting	triclinic
loop_
_symmetry_equiv_pos_as_xyz
  x,y,z
_cell_length_a	13.172
_cell_length_b	19.849
_cell_length_c	20.912
_cell_angle_alpha	90
_cell_angle_beta	102.06
_cell_angle_gamma	90
loop_
_atom_site_label
_atom_site_type_symbol
_atom_site_fract_x
_atom_site_fract_y
_atom_site_fract_z
_atom_site_charge
Mof_Cu	Cu	0.0683	0.4234	0.6209	0.726
Mof_Cu	Cu	0.1191	0.3693	0.7381	0.741
Mof_Cu	Cu	0.9994	0.2685	0.678	0.733
Mof_Cu	Cu	0.9034	0.3429	0.5775	0.748
Mof_Cu	Cu	0.5747	0.2228	0.8001	0.856
Mof_O 	O 	0.234	0.342	0.707	-0.522
Mof_O 	O 	0.972	0.287	0.534	-0.564
Mof_O 	O 	0.961	0.48	0.634	-0.519
Mof_O 	O 	0.923	0.296	0.738	-0.518
Mof_N 	N 	0.465	0.244	0.734	-0.297
Mof_N 	N 	0.19	0.38	0.602	-0.416
Mof_N 	N 	0.56	0.252	0.893	-0.3
Mof_N 	N 	0.067	0.226	0.615	-0.393
Mof_N 	N 	0.611	0.129	0.804	-0.296
Mof_N 	N 	0.83	0.399	0.619	-0.429
Mof_N 	N 	0.695	0.284	0.791	-0.281
Mof_N 	N 	0.006	0.397	0.771	-0.415
Mof_C 	C 	0.25	0.346	0.647	0.268
Mof_C 	C 	0.337	0.312	0.632	-0.215
Mof_C 	C 	0.356	0.308	0.572	0.194
Mof_C 	C 	0.286	0.347	0.528	-0.386
Mof_C 	C 	0.206	0.381	0.544	0.385
Mof_C 	C 	0.408	0.272	0.689	0.095
Mof_C 	C 	0.126	0.413	0.488	-0.995
Mof_C 	C 	0.042	0.243	0.552	0.31
Mof_C 	C 	0.092	0.209	0.508	-0.283
Mof_C 	C 	0.175	0.165	0.538	0.238
Mof_C 	C 	0.194	0.148	0.599	-0.412
Mof_C 	C 	0.147	0.183	0.637	0.34
Mof_C 	C 	0.573	0.269	0.943	0.192
Mof_C 	C 	0.178	0.163	0.71	-0.82
Mof_C 	C 	0.871	0.458	0.638	0.229
Mof_C 	C 	0.817	0.512	0.669	-0.175
Mof_C 	C 	0.709	0.492	0.674	0.104
Mof_C 	C 	0.672	0.425	0.653	-0.341
Mof_C 	C 	0.737	0.382	0.628	0.423
Mof_C 	C 	0.644	0.076	0.816	0.122
Mof_C 	C 	0.686	0.318	0.61	-1.122
Mof_C 	C 	0.932	0.354	0.768	0.258
Mof_C 	C 	0.849	0.364	0.797	-0.191
Mof_C 	C 	0.844	0.422	0.833	0.076
Mof_C 	C 	0.924	0.479	0.832	-0.255
Mof_C 	C 	0.006	0.453	0.801	0.33
Mof_C 	C 	0.764	0.318	0.795	0.142
Mof_C 	C 	0.088	0.505	0.8	-0.936
Mof_H 	H 	0.2187	0.148	0.5108	-0.067
Mof_H 	H 	0.2395	0.1113	0.6145	0.137
Mof_H 	H 	0.4108	0.2829	0.5607	-0.067
Mof_H 	H 	0.2947	0.3491	0.4846	0.135
Mof_H 	H 	0.6661	0.522	0.6917	-0.031
Mof_H 	H 	0.6042	0.4116	0.6551	0.126
Mof_H 	H 	0.7914	0.4273	0.8578	-0.014
Mof_H 	H 	0.9213	0.5231	0.8491	0.091
Mof_H 	H 	0.1175	0.4588	0.4979	0.256
Mof_H 	H 	0.1495	0.4089	0.4485	0.321
Mof_H 	H 	0.0618	0.3898	0.4845	0.264
Mof_H 	H 	0.1594	0.117	0.7146	0.231
Mof_H 	H 	0.2503	0.1683	0.7251	0.249
Mof_H 	H 	0.1417	0.1906	0.7349	0.183
Mof_H 	H 	0.6677	0.2983	0.6466	0.358
Mof_H 	H 	0.6258	0.3257	0.5766	0.334
Mof_H 	H 	0.7325	0.2895	0.5931	0.276
Mof_H 	H 	0.1543	0.4862	0.8185	0.24
Mof_H 	H 	0.0864	0.5177	0.7561	0.255
Mof_H 	H 	0.0759	0.5429	0.8246	0.294
Mof_Cu	Cu	0.4317	0.9234	0.8791	0.726
Mof_Cu	Cu	0.3809	0.8693	0.7619	0.742
Mof_Cu	Cu	0.5006	0.7685	0.822	0.734
Mof_Cu	Cu	0.5966	0.8429	0.9225	0.748
Mof_Cu	Cu	0.9253	0.7228	0.6999	0.857
Mof_O 	O 	0.266	0.842	0.793	-0.521
Mof_O 	O 	0.528	0.787	0.966	-0.564
Mof_O 	O 	0.539	0.98	0.866	-0.519
Mof_O 	O 	0.577	0.796	0.762	-0.518
Mof_N 	N 	0.035	0.744	0.766	-0.297
Mof_N 	N 	0.31	0.88	0.898	-0.416
Mof_N 	N 	0.94	0.752	0.607	-0.3
Mof_N 	N 	0.433	0.726	0.885	-0.393
Mof_N 	N 	0.889	0.629	0.696	-0.296
Mof_N 	N 	0.67	0.899	0.881	-0.429
Mof_N 	N 	0.805	0.784	0.709	-0.281
Mof_N 	N 	0.494	0.897	0.729	-0.414
Mof_C 	C 	0.25	0.846	0.853	0.268
Mof_C 	C 	0.163	0.812	0.868	-0.215
Mof_C 	C 	0.144	0.808	0.928	0.194
Mof_C 	C 	0.214	0.847	0.972	-0.386
Mof_C 	C 	0.294	0.881	0.956	0.385
Mof_C 	C 	0.092	0.772	0.811	0.095
Mof_C 	C 	0.374	0.913	0.012	-0.994
Mof_C 	C 	0.458	0.743	0.948	0.31
Mof_C 	C 	0.408	0.709	0.992	-0.284
Mof_C 	C 	0.325	0.665	0.962	0.238
Mof_C 	C 	0.306	0.648	0.901	-0.413
Mof_C 	C 	0.353	0.683	0.863	0.339
Mof_C 	C 	0.927	0.769	0.557	0.191
Mof_C 	C 	0.322	0.663	0.79	-0.82
Mof_C 	C 	0.629	0.958	0.862	0.228
Mof_C 	C 	0.683	0.012	0.831	-0.173
Mof_C 	C 	0.791	0.992	0.826	0.101
Mof_C 	C 	0.828	0.925	0.847	-0.339
Mof_C 	C 	0.763	0.882	0.872	0.421
Mof_C 	C 	0.856	0.576	0.684	0.123
Mof_C 	C 	0.814	0.818	0.89	-1.12
Mof_C 	C 	0.568	0.854	0.732	0.258
Mof_C 	C 	0.651	0.864	0.703	-0.191
Mof_C 	C 	0.656	0.922	0.667	0.076
Mof_C 	C 	0.576	0.979	0.668	-0.254
Mof_C 	C 	0.494	0.953	0.699	0.327
Mof_C 	C 	0.736	0.818	0.705	0.142
Mof_C 	C 	0.412	0.005	0.7	-0.931
Mof_H 	H 	0.2813	0.648	0.9892	-0.068
Mof_H 	H 	0.2605	0.6113	0.8855	0.137
Mof_H 	H 	0.0892	0.7829	0.9393	-0.067
Mof_H 	H 	0.2053	0.8491	0.0154	0.136
Mof_H 	H 	0.8339	0.022	0.8083	-0.03
Mof_H 	H 	0.8958	0.9116	0.8449	0.125
Mof_H 	H 	0.7086	0.9273	0.6422	-0.014
Mof_H 	H 	0.5787	0.0231	0.6509	0.091
Mof_H 	H 	0.3825	0.9588	0.0021	0.256
Mof_H 	H 	0.3505	0.9089	0.0515	0.32
Mof_H 	H 	0.4382	0.8898	0.0155	0.264
Mof_H 	H 	0.3406	0.617	0.7854	0.23
Mof_H 	H 	0.2497	0.6683	0.7749	0.249
Mof_H 	H 	0.3583	0.6906	0.7651	0.183
Mof_H 	H 	0.8323	0.7983	0.8534	0.357
Mof_H 	H 	0.8742	0.8257	0.9234	0.333
Mof_H 	H 	0.7675	0.7895	0.9069	0.275
Mof_H 	H 	0.3457	0.9862	0.6815	0.239
Mof_H 	H 	0.4136	0.0177	0.7439	0.253
Mof_H 	H 	0.4241	0.0429	0.6754	0.293
Mof_Cu	Cu	0.9317	0.5766	0.3791	0.727
Mof_Cu	Cu	0.8809	0.6307	0.2619	0.742
Mof_Cu	Cu	0.0006	0.7315	0.322	0.734
Mof_Cu	Cu	0.0966	0.6571	0.4225	0.749
Mof_Cu	Cu	0.4253	0.7772	0.1999	0.857
Mof_O 	O 	0.766	0.658	0.293	-0.521
Mof_O 	O 	0.028	0.713	0.466	-0.564
Mof_O 	O 	0.039	0.52	0.366	-0.519
Mof_O 	O 	0.077	0.704	0.262	-0.518
Mof_N 	N 	0.535	0.756	0.266	-0.297
Mof_N 	N 	0.81	0.62	0.398	-0.416
Mof_N 	N 	0.44	0.748	0.107	-0.3
Mof_N 	N 	0.933	0.774	0.385	-0.393
Mof_N 	N 	0.389	0.871	0.196	-0.296
Mof_N 	N 	0.17	0.601	0.381	-0.429
Mof_N 	N 	0.305	0.716	0.209	-0.281
Mof_N 	N 	0.994	0.603	0.229	-0.415
Mof_C 	C 	0.75	0.654	0.353	0.268
Mof_C 	C 	0.663	0.688	0.368	-0.215
Mof_C 	C 	0.644	0.692	0.428	0.194
Mof_C 	C 	0.714	0.653	0.472	-0.386
Mof_C 	C 	0.794	0.619	0.456	0.385
Mof_C 	C 	0.592	0.728	0.311	0.095
Mof_C 	C 	0.874	0.587	0.512	-0.995
Mof_C 	C 	0.958	0.757	0.448	0.31
Mof_C 	C 	0.908	0.791	0.492	-0.283
Mof_C 	C 	0.825	0.835	0.462	0.238
Mof_C 	C 	0.806	0.852	0.401	-0.412
Mof_C 	C 	0.853	0.817	0.363	0.34
Mof_C 	C 	0.427	0.731	0.057	0.192
Mof_C 	C 	0.822	0.837	0.29	-0.82
Mof_C 	C 	0.129	0.542	0.362	0.229
Mof_C 	C 	0.183	0.488	0.331	-0.175
Mof_C 	C 	0.291	0.508	0.326	0.104
Mof_C 	C 	0.328	0.575	0.347	-0.341
Mof_C 	C 	0.263	0.618	0.372	0.423
Mof_C 	C 	0.356	0.924	0.184	0.122
Mof_C 	C 	0.314	0.682	0.39	-1.122
Mof_C 	C 	0.068	0.646	0.232	0.258
Mof_C 	C 	0.151	0.636	0.203	-0.191
Mof_C 	C 	0.156	0.578	0.167	0.076
Mof_C 	C 	0.076	0.521	0.168	-0.255
Mof_C 	C 	0.994	0.547	0.199	0.33
Mof_C 	C 	0.236	0.682	0.205	0.142
Mof_C 	C 	0.912	0.495	0.2	-0.936
Mof_H 	H 	0.7813	0.852	0.4892	-0.067
Mof_H 	H 	0.7605	0.8887	0.3855	0.137
Mof_H 	H 	0.5892	0.7171	0.4393	-0.067
Mof_H 	H 	0.7053	0.6509	0.5154	0.135
Mof_H 	H 	0.3339	0.478	0.3083	-0.031
Mof_H 	H 	0.3958	0.5884	0.3449	0.126
Mof_H 	H 	0.2086	0.5727	0.1422	-0.014
Mof_H 	H 	0.0787	0.4769	0.1509	0.091
Mof_H 	H 	0.8825	0.5412	0.5021	0.256
Mof_H 	H 	0.8505	0.5911	0.5515	0.321
Mof_H 	H 	0.9382	0.6102	0.5155	0.264
Mof_H 	H 	0.8406	0.883	0.2854	0.231
Mof_H 	H 	0.7497	0.8317	0.2749	0.249
Mof_H 	H 	0.8583	0.8094	0.2651	0.183
Mof_H 	H 	0.3323	0.7017	0.3534	0.358
Mof_H 	H 	0.3742	0.6743	0.4234	0.334
Mof_H 	H 	0.2675	0.7105	0.4069	0.276
Mof_H 	H 	0.8457	0.5138	0.1815	0.24
Mof_H 	H 	0.9136	0.4823	0.2439	0.255
Mof_H 	H 	0.9241	0.4571	0.1754	0.294
Mof_Cu	Cu	0.5683	0.0766	0.1209	0.726
Mof_Cu	Cu	0.6191	0.1307	0.2381	0.742
Mof_Cu	Cu	0.4994	0.2315	0.178	0.734
Mof_Cu	Cu	0.4034	0.1571	0.0775	0.748
Mof_Cu	Cu	0.0747	0.2772	0.3001	0.857
Mof_O 	O 	0.734	0.158	0.207	-0.521
Mof_O 	O 	0.472	0.213	0.034	-0.564
Mof_O 	O 	0.461	0.02	0.134	-0.519
Mof_O 	O 	0.423	0.204	0.238	-0.518
Mof_N 	N 	0.965	0.256	0.234	-0.297
Mof_N 	N 	0.69	0.12	0.102	-0.416
Mof_N 	N 	0.06	0.248	0.393	-0.3
Mof_N 	N 	0.567	0.274	0.115	-0.393
Mof_N 	N 	0.111	0.371	0.304	-0.296
Mof_N 	N 	0.33	0.101	0.119	-0.429
Mof_N 	N 	0.195	0.216	0.291	-0.281
Mof_N 	N 	0.506	0.103	0.271	-0.414
Mof_C 	C 	0.75	0.154	0.147	0.268
Mof_C 	C 	0.837	0.188	0.132	-0.215
Mof_C 	C 	0.856	0.192	0.072	0.194
Mof_C 	C 	0.786	0.153	0.028	-0.386
Mof_C 	C 	0.706	0.119	0.044	0.385
Mof_C 	C 	0.908	0.228	0.189	0.095
Mof_C 	C 	0.626	0.087	0.988	-0.994
Mof_C 	C 	0.542	0.257	0.052	0.31
Mof_C 	C 	0.592	0.291	0.008	-0.284
Mof_C 	C 	0.675	0.335	0.038	0.238
Mof_C 	C 	0.694	0.352	0.099	-0.413
Mof_C 	C 	0.647	0.317	0.137	0.339
Mof_C 	C 	0.073	0.231	0.443	0.191
Mof_C 	C 	0.678	0.337	0.21	-0.82
Mof_C 	C 	0.371	0.042	0.138	0.228
Mof_C 	C 	0.317	0.988	0.169	-0.173
Mof_C 	C 	0.209	0.008	0.174	0.101
Mof_C 	C 	0.172	0.075	0.153	-0.339
Mof_C 	C 	0.237	0.118	0.128	0.421
Mof_C 	C 	0.144	0.424	0.316	0.123
Mof_C 	C 	0.186	0.182	0.11	-1.12
Mof_C 	C 	0.432	0.146	0.268	0.258
Mof_C 	C 	0.349	0.136	0.297	-0.191
Mof_C 	C 	0.344	0.078	0.333	0.076
Mof_C 	C 	0.424	0.021	0.332	-0.254
Mof_C 	C 	0.506	0.047	0.301	0.327
Mof_C 	C 	0.264	0.182	0.295	0.142
Mof_C 	C 	0.588	0.995	0.3	-0.931
Mof_H 	H 	0.7187	0.352	0.0108	-0.068
Mof_H 	H 	0.7395	0.3887	0.1145	0.137
Mof_H 	H 	0.9108	0.2171	0.0607	-0.067
Mof_H 	H 	0.7947	0.1509	0.9846	0.136
Mof_H 	H 	0.1661	0.978	0.1917	-0.03
Mof_H 	H 	0.1042	0.0884	0.1551	0.125
Mof_H 	H 	0.2914	0.0727	0.3578	-0.014
Mof_H 	H 	0.4213	0.9769	0.3491	0.091
Mof_H 	H 	0.6175	0.0412	0.9979	0.256
Mof_H 	H 	0.6495	0.0911	0.9485	0.32
Mof_H 	H 	0.5618	0.1102	0.9845	0.264
Mof_H 	H 	0.6594	0.383	0.2146	0.23
Mof_H 	H 	0.7503	0.3317	0.2251	0.249
Mof_H 	H 	0.6417	0.3094	0.2349	0.183
Mof_H 	H 	0.1677	0.2017	0.1466	0.357
Mof_H 	H 	0.1258	0.1743	0.0766	0.333
Mof_H 	H 	0.2325	0.2105	0.0931	0.275
Mof_H 	H 	0.6543	0.0138	0.3185	0.239
Mof_H 	H 	0.5864	0.9823	0.2561	0.253
Mof_H 	H 	0.5759	0.9571	0.3246	0.293
_end
