data_functionalizedCrystal
_audit_creation_method	'EQeq! by Chris Wilmer'
_symmetry_space_group_name_H-M	'P1'
_symmetry_Int_Tables_number	1
_symmetry_cell_setting	triclinic
loop_
_symmetry_equiv_pos_as_xyz
  x,y,z
_cell_length_a	8.3587
_cell_length_b	15.2253
_cell_length_c	15.2253
_cell_angle_alpha	90
_cell_angle_beta	90
_cell_angle_gamma	90
loop_
_atom_site_label
_atom_site_type_symbol
_atom_site_fract_x
_atom_site_fract_y
_atom_site_fract_z
_atom_site_charge
Mof_Mg	Mg	0.37003	0.11057	0.99945	1.471
Mof_Mg	Mg	0.87003	0.88943	0.00055	1.474
Mof_Mg	Mg	0.62003	0.50055	0.61057	1.472
Mof_Mg	Mg	0.12003	0.49945	0.38943	1.467
Mof_Mg	Mg	0.87997	0.38943	0.49945	1.476
Mof_Mg	Mg	0.37997	0.61057	0.50055	1.471
Mof_Mg	Mg	0.62997	0.99945	0.11057	1.47
Mof_Mg	Mg	0.12997	0.00055	0.88943	1.468
Mof_Mg	Mg	3.93252e-33	0.09891	0.09891	1.468
Mof_Mg	Mg	-1.56685e-33	0.24748	0.24748	1.441
Mof_Mg	Mg	0.5	0.90109	0.90109	1.476
Mof_Mg	Mg	0.5	0.75252	0.75252	1.449
Mof_Mg	Mg	0.25	0.40109	0.59891	1.476
Mof_Mg	Mg	0.25	0.25252	0.74748	1.448
Mof_Mg	Mg	0.75	0.59891	0.40109	1.476
Mof_Mg	Mg	0.75	0.74748	0.25252	1.45
Mof_H 	H 	0.9227	0.963	0.1327	0.392
Mof_H 	H 	0.5416	0.3695	0.1871	-0.005
Mof_H 	H 	0.4227	0.037	0.8673	0.371
Mof_H 	H 	0.0416	0.6305	0.8129	-0.128
Mof_H 	H 	0.1727	0.3673	0.463	0.374
Mof_H 	H 	0.7916	0.3129	0.8695	0.007
Mof_H 	H 	0.6727	0.6327	0.537	0.373
Mof_H 	H 	0.2916	0.6871	0.1305	-0.024
Mof_H 	H 	0.3273	0.537	0.6327	0.369
Mof_H 	H 	0.7084	0.1305	0.6871	0.004
Mof_H 	H 	0.8273	0.463	0.3673	0.369
Mof_H 	H 	0.2084	0.8695	0.3129	-0.027
Mof_H 	H 	0.0773	0.1327	0.963	0.349
Mof_H 	H 	0.4584	0.1871	0.3695	-0.015
Mof_H 	H 	0.5773	0.8673	0.037	0.371
Mof_H 	H 	0.9584	0.8129	0.6305	0.106
Mof_C 	C 	0.27454	0.24422	0.13532	0.421
Mof_C 	C 	0.45947	0.49625	0.33333	0.43
Mof_C 	C 	0.38467	0.42523	0.28131	-0.118
Mof_C 	C 	0.30642	0.31677	0.19755	-0.14
Mof_C 	C 	0.43658	0.37168	0.21291	0.071
Mof_C 	C 	0.77454	0.75578	0.86468	0.446
Mof_C 	C 	0.95947	0.50375	0.66667	0.572
Mof_C 	C 	0.88467	0.57477	0.71869	-0.192
Mof_C 	C 	0.80642	0.68323	0.80245	-0.186
Mof_C 	C 	0.93658	0.62832	0.78709	0.273
Mof_C 	C 	0.52454	0.36468	0.74422	0.416
Mof_C 	C 	0.70947	0.16667	0.99625	0.395
Mof_C 	C 	0.63467	0.21869	0.92523	-0.101
Mof_C 	C 	0.55642	0.30245	0.81677	-0.129
Mof_C 	C 	0.68658	0.28709	0.87168	0.063
Mof_C 	C 	0.02454	0.63532	0.25578	0.334
Mof_C 	C 	0.20947	0.83333	0.00375	0.416
Mof_C 	C 	0.13467	0.78131	0.07477	-0.196
Mof_C 	C 	0.05642	0.69755	0.18323	-0.196
Mof_C 	C 	0.18658	0.71291	0.12832	0.106
Mof_C 	C 	0.97546	0.25578	0.63532	0.503
Mof_C 	C 	0.79053	0.00375	0.83333	0.397
Mof_C 	C 	0.86533	0.07477	0.78131	-0.029
Mof_C 	C 	0.94358	0.18323	0.69755	-0.069
Mof_C 	C 	0.81342	0.12832	0.71291	0.03
Mof_C 	C 	0.47546	0.74422	0.36468	0.421
Mof_C 	C 	0.29053	0.99625	0.16667	0.406
Mof_C 	C 	0.36533	0.92523	0.21869	-0.122
Mof_C 	C 	0.44358	0.81677	0.30245	-0.136
Mof_C 	C 	0.31342	0.87168	0.28709	0.072
Mof_C 	C 	0.72546	0.13532	0.24422	0.415
Mof_C 	C 	0.54053	0.33333	0.49625	0.433
Mof_C 	C 	0.61533	0.28131	0.42523	-0.119
Mof_C 	C 	0.69358	0.19755	0.31677	-0.125
Mof_C 	C 	0.56342	0.21291	0.37168	0.073
Mof_C 	C 	0.22546	0.86468	0.75578	0.391
Mof_C 	C 	0.04053	0.66667	0.50375	0.291
Mof_C 	C 	0.11533	0.71869	0.57477	-0.045
Mof_C 	C 	0.19358	0.80245	0.68323	-0.081
Mof_C 	C 	0.06342	0.78709	0.62832	-0.127
Mof_N 	N 	0.23254	0.40392	0.30426	-0.22
Mof_N 	N 	0.18527	0.33763	0.25339	-0.276
Mof_N 	N 	0.73254	0.59608	0.69574	-0.197
Mof_N 	N 	0.68527	0.66237	0.74661	-0.252
Mof_N 	N 	0.48254	0.19574	0.90392	-0.216
Mof_N 	N 	0.43527	0.24661	0.83763	-0.265
Mof_N 	N 	0.98254	0.80426	0.09608	-0.159
Mof_N 	N 	0.93527	0.75339	0.16237	-0.216
Mof_N 	N 	0.01746	0.09608	0.80426	-0.267
Mof_N 	N 	0.06473	0.16237	0.75339	-0.307
Mof_N 	N 	0.51746	0.90392	0.19574	-0.211
Mof_N 	N 	0.56473	0.83763	0.24661	-0.258
Mof_N 	N 	0.76746	0.30426	0.40392	-0.2
Mof_N 	N 	0.81473	0.25339	0.33763	-0.244
Mof_N 	N 	0.26746	0.69574	0.59608	-0.223
Mof_N 	N 	0.31473	0.74661	0.66237	-0.27
Mof_O 	O 	0.37182	0.22542	0.07648	-0.501
Mof_O 	O 	0.87034	0.9866	0.09693	-1.083
Mof_O 	O 	0.14083	0.2048	0.14647	-0.746
Mof_O 	O 	0.37243	0.52576	0.39601	-0.674
Mof_O 	O 	0.59776	0.52217	0.31709	-0.517
Mof_O 	O 	0.87182	0.77458	0.92352	-0.473
Mof_O 	O 	0.37034	0.0134	0.90307	-1.095
Mof_O 	O 	0.64083	0.7952	0.85353	-0.718
Mof_O 	O 	0.87243	0.47424	0.60399	-0.681
Mof_O 	O 	0.09776	0.47783	0.68291	-0.615
Mof_O 	O 	0.62182	0.42352	0.72542	-0.495
Mof_O 	O 	0.12034	0.40307	0.4866	-1.126
Mof_O 	O 	0.39083	0.35353	0.7048	-0.717
Mof_O 	O 	0.62243	0.10399	0.02576	-0.647
Mof_O 	O 	0.84776	0.18291	0.02217	-0.467
Mof_O 	O 	0.12182	0.57648	0.27458	-0.498
Mof_O 	O 	0.62034	0.59693	0.5134	-1.086
Mof_O 	O 	0.89083	0.64647	0.2952	-0.64
Mof_O 	O 	0.12243	0.89601	0.97424	-0.688
Mof_O 	O 	0.34776	0.81709	0.97783	-0.51
Mof_O 	O 	0.87818	0.27458	0.57648	-0.5
Mof_O 	O 	0.37966	0.5134	0.59693	-1.087
Mof_O 	O 	0.10917	0.2952	0.64647	-0.791
Mof_O 	O 	0.87757	0.97424	0.89601	-0.623
Mof_O 	O 	0.65224	0.97783	0.81709	-0.508
Mof_O 	O 	0.37818	0.72542	0.42352	-0.503
Mof_O 	O 	0.87966	0.4866	0.40307	-1.046
Mof_O 	O 	0.60917	0.7048	0.35353	-0.714
Mof_O 	O 	0.37757	0.02576	0.10399	-0.656
Mof_O 	O 	0.15224	0.02217	0.18291	-0.541
Mof_O 	O 	0.62818	0.07648	0.22542	-0.489
Mof_O 	O 	0.12966	0.09693	0.9866	-1.104
Mof_O 	O 	0.85917	0.14647	0.2048	-0.675
Mof_O 	O 	0.62757	0.39601	0.52576	-0.666
Mof_O 	O 	0.40224	0.31709	0.52217	-0.528
Mof_O 	O 	0.12818	0.92352	0.77458	-0.519
Mof_O 	O 	0.62966	0.90307	0.0134	-1.094
Mof_O 	O 	0.35917	0.85353	0.7952	-0.71
Mof_O 	O 	0.12757	0.60399	0.47424	-0.66
Mof_O 	O 	0.90224	0.68291	0.47783	-0.431
_end
