data_functionalizedCrystal
_audit_creation_method	'EQeq! by Chris Wilmer'
_symmetry_space_group_name_H-M	'P1'
_symmetry_Int_Tables_number	1
_symmetry_cell_setting	triclinic
loop_
_symmetry_equiv_pos_as_xyz
  x,y,z
_cell_length_a	18.5
_cell_length_b	24.7069
_cell_length_c	24.7069
_cell_angle_alpha	67.6316
_cell_angle_beta	68.0134
_cell_angle_gamma	68.0134
loop_
_atom_site_label
_atom_site_type_symbol
_atom_site_fract_x
_atom_site_fract_y
_atom_site_fract_z
_atom_site_charge
Mof_Cu	Cu	0.14548	0.52073	0.94439	0.91
Mof_Cu	Cu	0.02873	0.50039	0.04767	0.927
Mof_Cu	Cu	0.6106	0.47927	0.05561	0.91
Mof_Cu	Cu	0.57679	0.49961	0.95233	0.927
Mof_Cu	Cu	0.6106	0.05561	0.47927	0.91
Mof_Cu	Cu	0.57679	0.95233	0.49961	0.927
Mof_Cu	Cu	0.14548	0.94439	0.52073	0.91
Mof_Cu	Cu	0.02873	0.04767	0.50039	0.927
Mof_Cu	Cu	0.27929	0.82943	0.82943	0.906
Mof_Cu	Cu	0.20929	0.90175	0.90175	0.915
Mof_Cu	Cu	0.93815	0.17057	0.17057	0.906
Mof_Cu	Cu	0.01279	0.09825	0.09825	0.915
Mof_H 	H 	0.4321	0.6895	0.9379	0.048
Mof_H 	H 	0.5384	0.6659	0.0629	0.046
Mof_H 	H 	0.3728	0.8197	0.0153	0.045
Mof_H 	H 	0.3426	0.82	0.11	0.078
Mof_H 	H 	0.568	0.7484	0.1816	0.04
Mof_H 	H 	0.5644	0.7201	0.1059	0.058
Mof_H 	H 	0.0027	0.8352	0.0038	0.048
Mof_H 	H 	0.9274	0.6838	0.0546	0.047
Mof_H 	H 	0.1421	0.6975	0.9273	0.047
Mof_H 	H 	0.7877	0.7737	0.0537	0.063
Mof_H 	H 	0.6692	0.8223	0.1119	0.039
Mof_H 	H 	0.9265	0.8371	0.0985	0.079
Mof_H 	H 	0.0066	0.5489	0.8247	0.054
Mof_H 	H 	0.7928	0.5357	0.8251	0.05
Mof_H 	H 	0.8448	0.5013	0.9817	0.053
Mof_H 	H 	0.933	0.6488	0.739	0.077
Mof_H 	H 	0.9145	0.5363	0.6275	0.042
Mof_H 	H 	0.9163	0.4973	0.7265	0.058
Mof_H 	H 	0.0595	0.3105	0.0621	0.049
Mof_H 	H 	0.2672	0.3341	0.9371	0.047
Mof_H 	H 	0.2078	0.1803	0.9847	0.045
Mof_H 	H 	0.2726	0.18	0.89	0.078
Mof_H 	H 	0.498	0.2516	0.8184	0.04
Mof_H 	H 	0.3904	0.2799	0.8941	0.058
Mof_H 	H 	0.8417	0.1648	0.9962	0.048
Mof_H 	H 	0.6658	0.3162	0.9454	0.047
Mof_H 	H 	0.7669	0.3025	0.0727	0.047
Mof_H 	H 	0.6151	0.2263	0.9463	0.063
Mof_H 	H 	0.6034	0.1777	0.8881	0.039
Mof_H 	H 	0.8621	0.1629	0.9015	0.079
Mof_H 	H 	0.3802	0.4511	0.1753	0.054
Mof_H 	H 	0.1536	0.4643	0.1749	0.05
Mof_H 	H 	0.3278	0.4987	0.0183	0.053
Mof_H 	H 	0.3208	0.3512	0.261	0.077
Mof_H 	H 	0.0783	0.4637	0.3725	0.042
Mof_H 	H 	0.1401	0.5027	0.2735	0.058
Mof_H 	H 	0.0595	0.0621	0.3105	0.049
Mof_H 	H 	0.2672	0.9371	0.3341	0.047
Mof_H 	H 	0.2078	0.9847	0.1803	0.045
Mof_H 	H 	0.2726	0.89	0.18	0.078
Mof_H 	H 	0.498	0.8184	0.2516	0.04
Mof_H 	H 	0.3904	0.8941	0.2799	0.058
Mof_H 	H 	0.8417	0.9962	0.1648	0.048
Mof_H 	H 	0.6658	0.9454	0.3162	0.047
Mof_H 	H 	0.7669	0.0727	0.3025	0.047
Mof_H 	H 	0.6151	0.9463	0.2263	0.063
Mof_H 	H 	0.6034	0.8881	0.1777	0.039
Mof_H 	H 	0.8621	0.9015	0.1629	0.079
Mof_H 	H 	0.3802	0.1753	0.4511	0.054
Mof_H 	H 	0.1536	0.1749	0.4643	0.05
Mof_H 	H 	0.3278	0.0183	0.4987	0.053
Mof_H 	H 	0.3208	0.261	0.3512	0.077
Mof_H 	H 	0.0783	0.3725	0.4637	0.042
Mof_H 	H 	0.1401	0.2735	0.5027	0.058
Mof_H 	H 	0.4321	0.9379	0.6895	0.049
Mof_H 	H 	0.5384	0.0629	0.6659	0.047
Mof_H 	H 	0.3728	0.0153	0.8197	0.045
Mof_H 	H 	0.3426	0.11	0.82	0.078
Mof_H 	H 	0.568	0.1816	0.7484	0.04
Mof_H 	H 	0.5644	0.1059	0.7201	0.058
Mof_H 	H 	0.0027	0.0038	0.8352	0.048
Mof_H 	H 	0.9274	0.0546	0.6838	0.047
Mof_H 	H 	0.1421	0.9273	0.6975	0.047
Mof_H 	H 	0.7877	0.0537	0.7737	0.063
Mof_H 	H 	0.6692	0.1119	0.8223	0.039
Mof_H 	H 	0.9265	0.0985	0.8371	0.079
Mof_H 	H 	0.0066	0.8247	0.5489	0.054
Mof_H 	H 	0.7928	0.8251	0.5357	0.05
Mof_H 	H 	0.8448	0.9817	0.5013	0.053
Mof_H 	H 	0.933	0.739	0.6488	0.077
Mof_H 	H 	0.9145	0.6275	0.5363	0.042
Mof_H 	H 	0.9163	0.7265	0.4973	0.058
Mof_H 	H 	0.2522	0.9656	0.9656	0.037
Mof_H 	H 	0.03	0.9694	0.9694	0.036
Mof_H 	H 	0.1834	0.0344	0.0344	0.037
Mof_H 	H 	0.9688	0.0306	0.0306	0.036
Mof_C 	C 	0.33785	0.79858	0.93102	0.364
Mof_C 	C 	0.39307	0.76042	0.9703	-0.098
Mof_C 	C 	0.43742	0.70326	0.96684	0.038
Mof_C 	C 	0.48971	0.66326	0.00192	-0.08
Mof_C 	C 	0.49856	0.68873	0.04115	-0.005
Mof_C 	C 	0.45106	0.74592	0.04916	-0.031
Mof_C 	C 	0.40258	0.7797	0.01234	0.007
Mof_C 	C 	0.53531	0.60093	0.00085	0.303
Mof_C 	C 	0.45157	0.7633	0.09856	0.061
Mof_C 	C 	0.3893	0.80546	0.12434	-0.125
Mof_C 	C 	0.52106	0.76502	0.16726	-0.029
Mof_C 	C 	0.5164	0.7473	0.1229	-0.078
Mof_C 	C 	0.14399	0.80347	0.92577	0.371
Mof_C 	C 	0.08113	0.76937	0.96205	-0.096
Mof_C 	C 	0.00953	0.79632	0.0007	-0.001
Mof_C 	C 	0.94949	0.76736	0.03386	-0.024
Mof_C 	C 	0.96511	0.70692	0.02966	0.001
Mof_C 	C 	0.03518	0.68256	0.98928	-0.107
Mof_C 	C 	0.09435	0.7141	0.9548	0.049
Mof_C 	C 	0.04685	0.61903	0.98947	0.421
Mof_C 	C 	0.86817	0.8001	0.06856	0.056
Mof_C 	C 	0.79088	0.79735	0.07489	-0.085
Mof_C 	C 	0.72006	0.82588	0.109	-0.022
Mof_C 	C 	0.87546	0.83472	0.10056	-0.127
Mof_C 	C 	0.99557	0.51981	0.94041	0.341
Mof_C 	C 	0.93599	0.52385	0.91137	-0.081
Mof_C 	C 	0.95579	0.54048	0.84714	-0.016
Mof_C 	C 	0.90292	0.54542	0.81394	-0.014
Mof_C 	C 	0.82869	0.53361	0.84541	-0.016
Mof_C 	C 	0.8091	0.51839	0.90881	-0.086
Mof_C 	C 	0.86152	0.51327	0.93849	0.037
Mof_C 	C 	0.72635	0.50696	0.93974	0.351
Mof_C 	C 	0.92316	0.56893	0.74585	0.05
Mof_C 	C 	0.92975	0.6259	0.7171	-0.118
Mof_C 	C 	0.91955	0.55994	0.64796	-0.035
Mof_C 	C 	0.91934	0.53815	0.70737	-0.071
Mof_C 	C 	0.06745	0.20142	0.06898	0.364
Mof_C 	C 	0.12379	0.23958	0.0297	-0.098
Mof_C 	C 	0.10752	0.29674	0.03316	0.038
Mof_C 	C 	0.15489	0.33674	0.99808	-0.08
Mof_C 	C 	0.22844	0.31127	0.95885	-0.005
Mof_C 	C 	0.24614	0.25408	0.95084	-0.031
Mof_C 	C 	0.19462	0.2203	0.98766	0.007
Mof_C 	C 	0.13709	0.39907	0.99915	0.303
Mof_C 	C 	0.31343	0.2367	0.90144	0.061
Mof_C 	C 	0.3191	0.19454	0.87566	-0.125
Mof_C 	C 	0.45334	0.23498	0.83274	-0.029
Mof_C 	C 	0.3866	0.2527	0.8771	-0.078
Mof_C 	C 	0.87323	0.19653	0.07423	0.371
Mof_C 	C 	0.81255	0.23063	0.03795	-0.096
Mof_C 	C 	0.80655	0.20368	0.9993	-0
Mof_C 	C 	0.75071	0.23264	0.96614	-0.024
Mof_C 	C 	0.70169	0.29308	0.97034	0.001
Mof_C 	C 	0.70702	0.31744	0.01072	-0.106
Mof_C 	C 	0.76325	0.2859	0.0452	0.049
Mof_C 	C 	0.65535	0.38097	0.01053	0.421
Mof_C 	C 	0.73683	0.1999	0.93144	0.056
Mof_C 	C 	0.66312	0.20265	0.92511	-0.085
Mof_C 	C 	0.65494	0.17412	0.891	-0.022
Mof_C 	C 	0.81074	0.16528	0.89944	-0.127
Mof_C 	C 	0.45579	0.48019	0.05959	0.341
Mof_C 	C 	0.37121	0.47615	0.08863	-0.081
Mof_C 	C 	0.34341	0.45952	0.15286	-0.016
Mof_C 	C 	0.26228	0.45458	0.18606	-0.014
Mof_C 	C 	0.20771	0.46639	0.15459	-0.016
Mof_C 	C 	0.2363	0.48161	0.09119	-0.086
Mof_C 	C 	0.31328	0.48673	0.06151	0.037
Mof_C 	C 	0.17305	0.49304	0.06026	0.351
Mof_C 	C 	0.23794	0.43107	0.25415	0.05
Mof_C 	C 	0.27275	0.3741	0.2829	-0.118
Mof_C 	C 	0.12745	0.44006	0.35204	-0.035
Mof_C 	C 	0.16486	0.46185	0.29263	-0.071
Mof_C 	C 	0.06745	0.06898	0.20142	0.364
Mof_C 	C 	0.12379	0.0297	0.23958	-0.098
Mof_C 	C 	0.10752	0.03316	0.29674	0.038
Mof_C 	C 	0.15489	0.99808	0.33674	-0.08
Mof_C 	C 	0.22844	0.95885	0.31127	-0.005
Mof_C 	C 	0.24614	0.95084	0.25408	-0.031
Mof_C 	C 	0.19462	0.98766	0.2203	0.007
Mof_C 	C 	0.13709	0.99915	0.39907	0.303
Mof_C 	C 	0.31343	0.90144	0.2367	0.061
Mof_C 	C 	0.3191	0.87566	0.19454	-0.125
Mof_C 	C 	0.45334	0.83274	0.23498	-0.029
Mof_C 	C 	0.3866	0.8771	0.2527	-0.078
Mof_C 	C 	0.87323	0.07423	0.19653	0.371
Mof_C 	C 	0.81255	0.03795	0.23063	-0.096
Mof_C 	C 	0.80655	0.9993	0.20368	-0
Mof_C 	C 	0.75071	0.96614	0.23264	-0.024
Mof_C 	C 	0.70169	0.97034	0.29308	0.001
Mof_C 	C 	0.70702	0.01072	0.31744	-0.106
Mof_C 	C 	0.76325	0.0452	0.2859	0.049
Mof_C 	C 	0.65535	0.01053	0.38097	0.421
Mof_C 	C 	0.73683	0.93144	0.1999	0.056
Mof_C 	C 	0.66312	0.92511	0.20265	-0.085
Mof_C 	C 	0.65494	0.891	0.17412	-0.022
Mof_C 	C 	0.81074	0.89944	0.16528	-0.127
Mof_C 	C 	0.45579	0.05959	0.48019	0.341
Mof_C 	C 	0.37121	0.08863	0.47615	-0.081
Mof_C 	C 	0.34341	0.15286	0.45952	-0.016
Mof_C 	C 	0.26228	0.18606	0.45458	-0.014
Mof_C 	C 	0.20771	0.15459	0.46639	-0.016
Mof_C 	C 	0.2363	0.09119	0.48161	-0.086
Mof_C 	C 	0.31328	0.06151	0.48673	0.037
Mof_C 	C 	0.17305	0.06026	0.49304	0.351
Mof_C 	C 	0.23794	0.25415	0.43107	0.05
Mof_C 	C 	0.27275	0.2829	0.3741	-0.118
Mof_C 	C 	0.12745	0.35204	0.44006	-0.035
Mof_C 	C 	0.16486	0.29263	0.46185	-0.071
Mof_C 	C 	0.33785	0.93102	0.79858	0.364
Mof_C 	C 	0.39307	0.9703	0.76042	-0.098
Mof_C 	C 	0.43742	0.96684	0.70326	0.038
Mof_C 	C 	0.48971	0.00192	0.66326	-0.08
Mof_C 	C 	0.49856	0.04115	0.68873	-0.005
Mof_C 	C 	0.45106	0.04916	0.74592	-0.031
Mof_C 	C 	0.40258	0.01234	0.7797	0.007
Mof_C 	C 	0.53531	0.00085	0.60093	0.303
Mof_C 	C 	0.45157	0.09856	0.7633	0.061
Mof_C 	C 	0.3893	0.12434	0.80546	-0.125
Mof_C 	C 	0.52106	0.16726	0.76502	-0.029
Mof_C 	C 	0.5164	0.1229	0.7473	-0.078
Mof_C 	C 	0.14399	0.92577	0.80347	0.371
Mof_C 	C 	0.08113	0.96205	0.76937	-0.096
Mof_C 	C 	0.00953	0.0007	0.79632	-0.001
Mof_C 	C 	0.94949	0.03386	0.76736	-0.024
Mof_C 	C 	0.96511	0.02966	0.70692	0.001
Mof_C 	C 	0.03518	0.98928	0.68256	-0.107
Mof_C 	C 	0.09435	0.9548	0.7141	0.049
Mof_C 	C 	0.04685	0.98947	0.61903	0.421
Mof_C 	C 	0.86817	0.06856	0.8001	0.056
Mof_C 	C 	0.79088	0.07489	0.79735	-0.085
Mof_C 	C 	0.72006	0.109	0.82588	-0.022
Mof_C 	C 	0.87546	0.10056	0.83472	-0.127
Mof_C 	C 	0.99557	0.94041	0.51981	0.341
Mof_C 	C 	0.93599	0.91137	0.52385	-0.081
Mof_C 	C 	0.95579	0.84714	0.54048	-0.016
Mof_C 	C 	0.90292	0.81394	0.54542	-0.014
Mof_C 	C 	0.82869	0.84541	0.53361	-0.016
Mof_C 	C 	0.8091	0.90881	0.51839	-0.086
Mof_C 	C 	0.86152	0.93849	0.51327	0.037
Mof_C 	C 	0.72635	0.93974	0.50696	0.351
Mof_C 	C 	0.92316	0.74585	0.56893	0.05
Mof_C 	C 	0.92975	0.7171	0.6259	-0.118
Mof_C 	C 	0.91955	0.64796	0.55994	-0.035
Mof_C 	C 	0.91934	0.70737	0.53815	-0.071
Mof_C 	C 	0.93211	0.65329	0.65329	0.064
Mof_C 	C 	0.92745	0.61855	0.61855	-0.002
Mof_C 	C 	0.1948	0.9791	0.9791	0.006
Mof_C 	C 	0.06245	0.98195	0.98195	0.007
Mof_C 	C 	0.23869	0.34671	0.34671	0.064
Mof_C 	C 	0.16455	0.38145	0.38145	-0.002
Mof_C 	C 	0.153	0.0209	0.0209	0.006
Mof_C 	C 	0.02635	0.01805	0.01805	0.006
Mof_C 	C 	0.3834	0.83102	0.16898	0.074
Mof_C 	C 	0.4539	0.8088	0.1912	-0.009
Mof_C 	C 	0.7266	0.8606	0.1394	-0.018
Mof_C 	C 	0.8027	0.8648	0.1352	0.081
Mof_C 	C 	0.3834	0.16898	0.83102	0.074
Mof_C 	C 	0.4539	0.1912	0.8088	-0.009
Mof_C 	C 	0.7266	0.1394	0.8606	-0.018
Mof_C 	C 	0.8027	0.1352	0.8648	0.081
Mof_N 	N 	0.14626	0.96171	0.96171	-0.157
Mof_N 	N 	0.06968	0.03829	0.03829	-0.156
Mof_O 	O 	0.56261	0.56535	0.04583	-0.39
Mof_O 	O 	0.53211	0.5843	0.9554	-0.362
Mof_O 	O 	0.28739	0.8463	0.94686	-0.395
Mof_O 	O 	0.34699	0.78574	0.88516	-0.416
Mof_O 	O 	0.13822	0.84565	0.94533	-0.399
Mof_O 	O 	0.19848	0.78446	0.88498	-0.414
Mof_O 	O 	0.00595	0.58731	0.03005	-0.44
Mof_O 	O 	0.10132	0.60624	0.94592	-0.427
Mof_O 	O 	0.06541	0.52852	0.9091	-0.405
Mof_O 	O 	0.96247	0.51391	0.99641	-0.397
Mof_O 	O 	0.67163	0.51205	0.91971	-0.462
Mof_O 	O 	0.71509	0.49204	6e-05	-0.381
Mof_O 	O 	0.17379	0.43465	0.95417	-0.39
Mof_O 	O 	0.07181	0.4157	0.0446	-0.362
Mof_O 	O 	0.08055	0.1537	0.05314	-0.395
Mof_O 	O 	0.01789	0.21426	0.11484	-0.416
Mof_O 	O 	0.9292	0.15435	0.05467	-0.398
Mof_O 	O 	0.86792	0.21554	0.11502	-0.414
Mof_O 	O 	0.62331	0.41269	0.96995	-0.44
Mof_O 	O 	0.65348	0.39376	0.05408	-0.426
Mof_O 	O 	0.50303	0.47148	0.0909	-0.404
Mof_O 	O 	0.47279	0.48609	0.00359	-0.397
Mof_O 	O 	0.10339	0.48795	0.08029	-0.462
Mof_O 	O 	0.20719	0.50796	0.99994	-0.381
Mof_O 	O 	0.17379	0.95417	0.43465	-0.39
Mof_O 	O 	0.07181	0.0446	0.4157	-0.362
Mof_O 	O 	0.08055	0.05314	0.1537	-0.395
Mof_O 	O 	0.01789	0.11484	0.21426	-0.416
Mof_O 	O 	0.9292	0.05467	0.15435	-0.398
Mof_O 	O 	0.86792	0.11502	0.21554	-0.414
Mof_O 	O 	0.62331	0.96995	0.41269	-0.44
Mof_O 	O 	0.65348	0.05408	0.39376	-0.426
Mof_O 	O 	0.50303	0.0909	0.47148	-0.404
Mof_O 	O 	0.47279	0.00359	0.48609	-0.397
Mof_O 	O 	0.10339	0.08029	0.48795	-0.462
Mof_O 	O 	0.20719	0.99994	0.50796	-0.381
Mof_O 	O 	0.56261	0.04583	0.56535	-0.39
Mof_O 	O 	0.53211	0.9554	0.5843	-0.362
Mof_O 	O 	0.28739	0.94686	0.8463	-0.395
Mof_O 	O 	0.34699	0.88516	0.78574	-0.416
Mof_O 	O 	0.13822	0.94533	0.84565	-0.399
Mof_O 	O 	0.19848	0.88498	0.78446	-0.414
Mof_O 	O 	0.00595	0.03005	0.58731	-0.44
Mof_O 	O 	0.10132	0.94592	0.60624	-0.427
Mof_O 	O 	0.06541	0.9091	0.52852	-0.405
Mof_O 	O 	0.96247	0.99641	0.51391	-0.397
Mof_O 	O 	0.67163	0.91971	0.51205	-0.462
Mof_O 	O 	0.71509	6e-05	0.49204	-0.381
_end
