# CIF file generated by openbabel 3.1.0, see https://openbabel.org
data_I
_chemical_name_common 'image0'
_cell_length_a 27.6571
_cell_length_b 27.6571
_cell_length_c 27.6571
_cell_angle_alpha 90
_cell_angle_beta 90
_cell_angle_gamma 90
_space_group_name_H-M_alt 'P 1'
_space_group_name_Hall 'P 1'
loop_
    _symmetry_equiv_pos_as_xyz
    x,y,z
loop_
    _atom_site_label
    _atom_site_type_symbol
    _atom_site_fract_x
    _atom_site_fract_y
    _atom_site_fract_z
    _atom_site_occupancy
    O1       O        0.05260    0.79009    0.55225    1.000
    O2       O        0.04982    0.70795    0.54853    1.000
    C1       C        0.06520    0.74209    0.56430    1.000
    C2       C        0.10373    0.74582    0.60859    1.000
    C3       C        0.12444    0.70439    0.62809    1.000
    H1       H        0.11450    0.67410    0.61750    1.000
    C4       C        0.15994    0.70829    0.66345    1.000
    H2       H        0.17380    0.68060    0.67650    1.000
    C5       C        0.17474    0.75360    0.67931    1.000
    C6       C        0.15404    0.79506    0.65980    1.000
    H3       H        0.16390    0.82540    0.67040    1.000
    C7       C        0.11853    0.79116    0.62445    1.000
    H4       H        0.10470    0.81890    0.61140    1.000
    C8       C        0.21875    0.74690    0.71200    1.000
    C9       C        0.21540    0.71410    0.74850    1.000
    H5       H        0.18870    0.69390    0.75140    1.000
    C10      C        0.03670    0.60420    0.52017    1.000
    H6       H        0.06210    0.62160    0.53370    1.000
    C11      C        0.03770    0.55280    0.52140    1.000
    N1       N        0.07560    0.52330    0.54160    1.000
    H7       H        0.07370    0.49230    0.53990    1.000
    H8       H        0.10010    0.53670    0.55540    1.000
    C12      C        0.98992    0.60240    0.54070    1.000
    H9       H        0.98320    0.61990    0.56860    1.000
    C13      C        0.98890    0.55110    0.54370    1.000
    N2       N        0.97700    0.53620    0.59250    1.000
    H10      H        0.97570    0.50600    0.59970    1.000
    H11      H        0.97140    0.55760    0.61440    1.000
    O3       O        0.94740    0.20991    0.55225    1.000
    O4       O        0.95018    0.29205    0.54853    1.000
    C14      C        0.93480    0.25791    0.56430    1.000
    C15      C        0.89627    0.25418    0.60859    1.000
    C16      C        0.87556    0.29561    0.62809    1.000
    H12      H        0.88550    0.32590    0.61750    1.000
    C17      C        0.84006    0.29171    0.66345    1.000
    H13      H        0.82620    0.31940    0.67650    1.000
    C18      C        0.82526    0.24640    0.67931    1.000
    C19      C        0.84596    0.20494    0.65980    1.000
    H14      H        0.83610    0.17460    0.67040    1.000
    C20      C        0.88147    0.20884    0.62445    1.000
    H15      H        0.89530    0.18110    0.61140    1.000
    C21      C        0.78125    0.25310    0.71200    1.000
    C22      C        0.78460    0.28590    0.74850    1.000
    H16      H        0.81130    0.30610    0.75140    1.000
    C23      C        0.96330    0.39580    0.52017    1.000
    H17      H        0.93790    0.37840    0.53370    1.000
    C24      C        0.96230    0.44720    0.52140    1.000
    N3       N        0.92440    0.47670    0.54160    1.000
    H18      H        0.92630    0.50770    0.53990    1.000
    H19      H        0.89990    0.46330    0.55540    1.000
    C25      C        0.01008    0.39760    0.54070    1.000
    H20      H        0.01680    0.38010    0.56860    1.000
    C26      C        0.01110    0.44890    0.54370    1.000
    N4       N        0.02300    0.46380    0.59250    1.000
    H21      H        0.02430    0.49400    0.59970    1.000
    H22      H        0.02860    0.44240    0.61440    1.000
    O5       O        0.94740    0.79009    0.44775    1.000
    O6       O        0.95018    0.70795    0.45147    1.000
    C27      C        0.93480    0.74209    0.43570    1.000
    C28      C        0.89627    0.74582    0.39141    1.000
    C29      C        0.87556    0.70439    0.37191    1.000
    H23      H        0.88550    0.67410    0.38250    1.000
    C30      C        0.84006    0.70829    0.33655    1.000
    H24      H        0.82620    0.68060    0.32350    1.000
    C31      C        0.82526    0.75360    0.32069    1.000
    C32      C        0.84596    0.79506    0.34020    1.000
    H25      H        0.83610    0.82540    0.32960    1.000
    C33      C        0.88147    0.79116    0.37555    1.000
    H26      H        0.89530    0.81890    0.38860    1.000
    C34      C        0.78125    0.74690    0.28800    1.000
    C35      C        0.78460    0.71410    0.25150    1.000
    H27      H        0.81130    0.69390    0.24860    1.000
    C36      C        0.96330    0.60420    0.47983    1.000
    H28      H        0.93790    0.62160    0.46630    1.000
    C37      C        0.96230    0.55280    0.47860    1.000
    N5       N        0.92440    0.52330    0.45840    1.000
    H29      H        0.92630    0.49230    0.46010    1.000
    H30      H        0.89990    0.53670    0.44460    1.000
    C38      C        0.01008    0.60240    0.45930    1.000
    H31      H        0.01680    0.61990    0.43140    1.000
    C39      C        0.01110    0.55110    0.45630    1.000
    N6       N        0.02300    0.53620    0.40750    1.000
    H32      H        0.02430    0.50600    0.40030    1.000
    H33      H        0.02860    0.55760    0.38560    1.000
    O7       O        0.05260    0.20991    0.44775    1.000
    O8       O        0.04982    0.29205    0.45147    1.000
    C40      C        0.06520    0.25791    0.43570    1.000
    C41      C        0.10373    0.25418    0.39141    1.000
    C42      C        0.12444    0.29561    0.37191    1.000
    H34      H        0.11450    0.32590    0.38250    1.000
    C43      C        0.15994    0.29171    0.33655    1.000
    H35      H        0.17380    0.31940    0.32350    1.000
    C44      C        0.17474    0.24640    0.32069    1.000
    C45      C        0.15404    0.20494    0.34020    1.000
    H36      H        0.16390    0.17460    0.32960    1.000
    C46      C        0.11853    0.20884    0.37555    1.000
    H37      H        0.10470    0.18110    0.38860    1.000
    C47      C        0.21875    0.25310    0.28800    1.000
    C48      C        0.21540    0.28590    0.25150    1.000
    H38      H        0.18870    0.30610    0.24860    1.000
    C49      C        0.03670    0.39580    0.47983    1.000
    H39      H        0.06210    0.37840    0.46630    1.000
    C50      C        0.03770    0.44720    0.47860    1.000
    N7       N        0.07560    0.47670    0.45840    1.000
    H40      H        0.07370    0.50770    0.46010    1.000
    H41      H        0.10010    0.46330    0.44460    1.000
    C51      C        0.98992    0.39760    0.45930    1.000
    H42      H        0.98320    0.38010    0.43140    1.000
    C52      C        0.98890    0.44890    0.45630    1.000
    N8       N        0.97700    0.46380    0.40750    1.000
    H43      H        0.97570    0.49400    0.40030    1.000
    H44      H        0.97140    0.44240    0.38560    1.000
    O9       O        0.55225    0.05260    0.79009    1.000
    O10      O        0.54853    0.04982    0.70795    1.000
    C53      C        0.56430    0.06520    0.74209    1.000
    C54      C        0.60859    0.10373    0.74582    1.000
    C55      C        0.62809    0.12444    0.70439    1.000
    H45      H        0.61750    0.11450    0.67410    1.000
    C56      C        0.66345    0.15994    0.70829    1.000
    H46      H        0.67650    0.17380    0.68060    1.000
    C57      C        0.67931    0.17474    0.75360    1.000
    C58      C        0.65980    0.15404    0.79506    1.000
    H47      H        0.67040    0.16390    0.82540    1.000
    C59      C        0.62445    0.11853    0.79116    1.000
    H48      H        0.61140    0.10470    0.81890    1.000
    C60      C        0.71200    0.21875    0.74690    1.000
    C61      C        0.74850    0.21540    0.71410    1.000
    H49      H        0.75140    0.18870    0.69390    1.000
    C62      C        0.52017    0.03670    0.60420    1.000
    H50      H        0.53370    0.06210    0.62160    1.000
    C63      C        0.52140    0.03770    0.55280    1.000
    N9       N        0.54160    0.07560    0.52330    1.000
    H51      H        0.53990    0.07370    0.49230    1.000
    H52      H        0.55540    0.10010    0.53670    1.000
    C64      C        0.54070    0.98992    0.60240    1.000
    H53      H        0.56860    0.98320    0.61990    1.000
    C65      C        0.54370    0.98890    0.55110    1.000
    N10      N        0.59250    0.97700    0.53620    1.000
    H54      H        0.59970    0.97570    0.50600    1.000
    H55      H        0.61440    0.97140    0.55760    1.000
    O11      O        0.55225    0.94740    0.20991    1.000
    O12      O        0.54853    0.95018    0.29205    1.000
    C66      C        0.56430    0.93480    0.25791    1.000
    C67      C        0.60859    0.89627    0.25418    1.000
    C68      C        0.62809    0.87556    0.29561    1.000
    H56      H        0.61750    0.88550    0.32590    1.000
    C69      C        0.66345    0.84006    0.29171    1.000
    H57      H        0.67650    0.82620    0.31940    1.000
    C70      C        0.67931    0.82526    0.24640    1.000
    C71      C        0.65980    0.84596    0.20494    1.000
    H58      H        0.67040    0.83610    0.17460    1.000
    C72      C        0.62445    0.88147    0.20884    1.000
    H59      H        0.61140    0.89530    0.18110    1.000
    C73      C        0.71200    0.78125    0.25310    1.000
    C74      C        0.74850    0.78460    0.28590    1.000
    H60      H        0.75140    0.81130    0.30610    1.000
    C75      C        0.52017    0.96330    0.39580    1.000
    H61      H        0.53370    0.93790    0.37840    1.000
    C76      C        0.52140    0.96230    0.44720    1.000
    N11      N        0.54160    0.92440    0.47670    1.000
    H62      H        0.53990    0.92630    0.50770    1.000
    H63      H        0.55540    0.89990    0.46330    1.000
    C77      C        0.54070    0.01008    0.39760    1.000
    H64      H        0.56860    0.01680    0.38010    1.000
    C78      C        0.54370    0.01110    0.44890    1.000
    N12      N        0.59250    0.02300    0.46380    1.000
    H65      H        0.59970    0.02430    0.49400    1.000
    H66      H        0.61440    0.02860    0.44240    1.000
    O13      O        0.44775    0.94740    0.79009    1.000
    O14      O        0.45147    0.95018    0.70795    1.000
    C79      C        0.43570    0.93480    0.74209    1.000
    C80      C        0.39141    0.89627    0.74582    1.000
    C81      C        0.37191    0.87556    0.70439    1.000
    H67      H        0.38250    0.88550    0.67410    1.000
    C82      C        0.33655    0.84006    0.70829    1.000
    H68      H        0.32350    0.82620    0.68060    1.000
    C83      C        0.32069    0.82526    0.75360    1.000
    C84      C        0.34020    0.84596    0.79506    1.000
    H69      H        0.32960    0.83610    0.82540    1.000
    C85      C        0.37555    0.88147    0.79116    1.000
    H70      H        0.38860    0.89530    0.81890    1.000
    C86      C        0.28800    0.78125    0.74690    1.000
    C87      C        0.25150    0.78460    0.71410    1.000
    H71      H        0.24860    0.81130    0.69390    1.000
    C88      C        0.47983    0.96330    0.60420    1.000
    H72      H        0.46630    0.93790    0.62160    1.000
    C89      C        0.47860    0.96230    0.55280    1.000
    N13      N        0.45840    0.92440    0.52330    1.000
    H73      H        0.46010    0.92630    0.49230    1.000
    H74      H        0.44460    0.89990    0.53670    1.000
    C90      C        0.45930    0.01008    0.60240    1.000
    H75      H        0.43140    0.01680    0.61990    1.000
    C91      C        0.45630    0.01110    0.55110    1.000
    N14      N        0.40750    0.02300    0.53620    1.000
    H76      H        0.40030    0.02430    0.50600    1.000
    H77      H        0.38560    0.02860    0.55760    1.000
    O15      O        0.44775    0.05260    0.20991    1.000
    O16      O        0.45147    0.04982    0.29205    1.000
    C92      C        0.43570    0.06520    0.25791    1.000
    C93      C        0.39141    0.10373    0.25418    1.000
    C94      C        0.37191    0.12444    0.29561    1.000
    H78      H        0.38250    0.11450    0.32590    1.000
    C95      C        0.33655    0.15994    0.29171    1.000
    H79      H        0.32350    0.17380    0.31940    1.000
    C96      C        0.32069    0.17474    0.24640    1.000
    C97      C        0.34020    0.15404    0.20494    1.000
    H80      H        0.32960    0.16390    0.17460    1.000
    C98      C        0.37555    0.11853    0.20884    1.000
    H81      H        0.38860    0.10470    0.18110    1.000
    C99      C        0.28800    0.21875    0.25310    1.000
    C100     C        0.25150    0.21540    0.28590    1.000
    H82      H        0.24860    0.18870    0.30610    1.000
    C101     C        0.47983    0.03670    0.39580    1.000
    H83      H        0.46630    0.06210    0.37840    1.000
    C102     C        0.47860    0.03770    0.44720    1.000
    N15      N        0.45840    0.07560    0.47670    1.000
    H84      H        0.46010    0.07370    0.50770    1.000
    H85      H        0.44460    0.10010    0.46330    1.000
    C103     C        0.45930    0.98992    0.39760    1.000
    H86      H        0.43140    0.98320    0.38010    1.000
    C104     C        0.45630    0.98890    0.44890    1.000
    N16      N        0.40750    0.97700    0.46380    1.000
    H87      H        0.40030    0.97570    0.49400    1.000
    H88      H        0.38560    0.97140    0.44240    1.000
    O17      O        0.79009    0.55225    0.05260    1.000
    O18      O        0.70795    0.54853    0.04982    1.000
    C105     C        0.74209    0.56430    0.06520    1.000
    C106     C        0.74582    0.60859    0.10373    1.000
    C107     C        0.70439    0.62809    0.12444    1.000
    H89      H        0.67410    0.61750    0.11450    1.000
    C108     C        0.70829    0.66345    0.15994    1.000
    H90      H        0.68060    0.67650    0.17380    1.000
    C109     C        0.75360    0.67931    0.17474    1.000
    C110     C        0.79506    0.65980    0.15404    1.000
    H91      H        0.82540    0.67040    0.16390    1.000
    C111     C        0.79116    0.62445    0.11853    1.000
    H92      H        0.81890    0.61140    0.10470    1.000
    C112     C        0.74690    0.71200    0.21875    1.000
    C113     C        0.71410    0.74850    0.21540    1.000
    H93      H        0.69390    0.75140    0.18870    1.000
    C114     C        0.60420    0.52017    0.03670    1.000
    H94      H        0.62160    0.53370    0.06210    1.000
    C115     C        0.55280    0.52140    0.03770    1.000
    N17      N        0.52330    0.54160    0.07560    1.000
    H95      H        0.49230    0.53990    0.07370    1.000
    H96      H        0.53670    0.55540    0.10010    1.000
    C116     C        0.60240    0.54070    0.98992    1.000
    H97      H        0.61990    0.56860    0.98320    1.000
    C117     C        0.55110    0.54370    0.98890    1.000
    N18      N        0.53620    0.59250    0.97700    1.000
    H98      H        0.50600    0.59970    0.97570    1.000
    H99      H        0.55760    0.61440    0.97140    1.000
    O19      O        0.20991    0.55225    0.94740    1.000
    O20      O        0.29205    0.54853    0.95018    1.000
    C118     C        0.25791    0.56430    0.93480    1.000
    C119     C        0.25418    0.60859    0.89627    1.000
    C120     C        0.29561    0.62809    0.87556    1.000
    H100     H        0.32590    0.61750    0.88550    1.000
    C121     C        0.29171    0.66345    0.84006    1.000
    H101     H        0.31940    0.67650    0.82620    1.000
    C122     C        0.24640    0.67931    0.82526    1.000
    C123     C        0.20494    0.65980    0.84596    1.000
    H102     H        0.17460    0.67040    0.83610    1.000
    C124     C        0.20884    0.62445    0.88147    1.000
    H103     H        0.18110    0.61140    0.89530    1.000
    C125     C        0.25310    0.71200    0.78125    1.000
    C126     C        0.28590    0.74850    0.78460    1.000
    H104     H        0.30610    0.75140    0.81130    1.000
    C127     C        0.39580    0.52017    0.96330    1.000
    H105     H        0.37840    0.53370    0.93790    1.000
    C128     C        0.44720    0.52140    0.96230    1.000
    N19      N        0.47670    0.54160    0.92440    1.000
    H106     H        0.50770    0.53990    0.92630    1.000
    H107     H        0.46330    0.55540    0.89990    1.000
    C129     C        0.39760    0.54070    0.01008    1.000
    H108     H        0.38010    0.56860    0.01680    1.000
    C130     C        0.44890    0.54370    0.01110    1.000
    N20      N        0.46380    0.59250    0.02300    1.000
    H109     H        0.49400    0.59970    0.02430    1.000
    H110     H        0.44240    0.61440    0.02860    1.000
    O21      O        0.79009    0.44775    0.94740    1.000
    O22      O        0.70795    0.45147    0.95018    1.000
    C131     C        0.74209    0.43570    0.93480    1.000
    C132     C        0.74582    0.39141    0.89627    1.000
    C133     C        0.70439    0.37191    0.87556    1.000
    H111     H        0.67410    0.38250    0.88550    1.000
    C134     C        0.70829    0.33655    0.84006    1.000
    H112     H        0.68060    0.32350    0.82620    1.000
    C135     C        0.75360    0.32069    0.82526    1.000
    C136     C        0.79506    0.34020    0.84596    1.000
    H113     H        0.82540    0.32960    0.83610    1.000
    C137     C        0.79116    0.37555    0.88147    1.000
    H114     H        0.81890    0.38860    0.89530    1.000
    C138     C        0.74690    0.28800    0.78125    1.000
    C139     C        0.71410    0.25150    0.78460    1.000
    H115     H        0.69390    0.24860    0.81130    1.000
    C140     C        0.60420    0.47983    0.96330    1.000
    H116     H        0.62160    0.46630    0.93790    1.000
    C141     C        0.55280    0.47860    0.96230    1.000
    N21      N        0.52330    0.45840    0.92440    1.000
    H117     H        0.49230    0.46010    0.92630    1.000
    H118     H        0.53670    0.44460    0.89990    1.000
    C142     C        0.60240    0.45930    0.01008    1.000
    H119     H        0.61990    0.43140    0.01680    1.000
    C143     C        0.55110    0.45630    0.01110    1.000
    N22      N        0.53620    0.40750    0.02300    1.000
    H120     H        0.50600    0.40030    0.02430    1.000
    H121     H        0.55760    0.38560    0.02860    1.000
    O23      O        0.20991    0.44775    0.05260    1.000
    O24      O        0.29205    0.45147    0.04982    1.000
    C144     C        0.25791    0.43570    0.06520    1.000
    C145     C        0.25418    0.39141    0.10373    1.000
    C146     C        0.29561    0.37191    0.12444    1.000
    H122     H        0.32590    0.38250    0.11450    1.000
    C147     C        0.29171    0.33655    0.15994    1.000
    H123     H        0.31940    0.32350    0.17380    1.000
    C148     C        0.24640    0.32069    0.17474    1.000
    C149     C        0.20494    0.34020    0.15404    1.000
    H124     H        0.17460    0.32960    0.16390    1.000
    C150     C        0.20884    0.37555    0.11853    1.000
    H125     H        0.18110    0.38860    0.10470    1.000
    C151     C        0.25310    0.28800    0.21875    1.000
    C152     C        0.28590    0.25150    0.21540    1.000
    H126     H        0.30610    0.24860    0.18870    1.000
    C153     C        0.39580    0.47983    0.03670    1.000
    H127     H        0.37840    0.46630    0.06210    1.000
    C154     C        0.44720    0.47860    0.03770    1.000
    N23      N        0.47670    0.45840    0.07560    1.000
    H128     H        0.50770    0.46010    0.07370    1.000
    H129     H        0.46330    0.44460    0.10010    1.000
    C155     C        0.39760    0.45930    0.98992    1.000
    H130     H        0.38010    0.43140    0.98320    1.000
    C156     C        0.44890    0.45630    0.98890    1.000
    N24      N        0.46380    0.40750    0.97700    1.000
    H131     H        0.49400    0.40030    0.97570    1.000
    H132     H        0.44240    0.38560    0.97140    1.000
    O25      O        0.29009    0.55260    0.05225    1.000
    O26      O        0.20795    0.54982    0.04853    1.000
    C157     C        0.24209    0.56520    0.06430    1.000
    C158     C        0.24582    0.60373    0.10859    1.000
    C159     C        0.20439    0.62444    0.12809    1.000
    H133     H        0.17410    0.61450    0.11750    1.000
    C160     C        0.20829    0.65994    0.16345    1.000
    H134     H        0.18060    0.67380    0.17650    1.000
    C161     C        0.25360    0.67474    0.17931    1.000
    C162     C        0.29506    0.65404    0.15980    1.000
    H135     H        0.32540    0.66390    0.17040    1.000
    C163     C        0.29116    0.61853    0.12445    1.000
    H136     H        0.31890    0.60470    0.11140    1.000
    C164     C        0.24690    0.71875    0.21200    1.000
    C165     C        0.21410    0.71540    0.24850    1.000
    H137     H        0.19390    0.68870    0.25140    1.000
    C166     C        0.10420    0.53670    0.02017    1.000
    H138     H        0.12160    0.56210    0.03370    1.000
    C167     C        0.05280    0.53770    0.02140    1.000
    N25      N        0.02330    0.57560    0.04160    1.000
    H139     H        0.99230    0.57370    0.03990    1.000
    H140     H        0.03670    0.60010    0.05540    1.000
    C168     C        0.10240    0.48992    0.04070    1.000
    H141     H        0.11990    0.48320    0.06860    1.000
    C169     C        0.05110    0.48890    0.04370    1.000
    N26      N        0.03620    0.47700    0.09250    1.000
    H142     H        0.00600    0.47570    0.09970    1.000
    H143     H        0.05760    0.47140    0.11440    1.000
    O27      O        0.70991    0.44740    0.05225    1.000
    O28      O        0.79205    0.45018    0.04853    1.000
    C170     C        0.75791    0.43480    0.06430    1.000
    C171     C        0.75418    0.39627    0.10859    1.000
    C172     C        0.79561    0.37556    0.12809    1.000
    H144     H        0.82590    0.38550    0.11750    1.000
    C173     C        0.79171    0.34006    0.16345    1.000
    H145     H        0.81940    0.32620    0.17650    1.000
    C174     C        0.74640    0.32526    0.17931    1.000
    C175     C        0.70494    0.34596    0.15980    1.000
    H146     H        0.67460    0.33610    0.17040    1.000
    C176     C        0.70884    0.38147    0.12445    1.000
    H147     H        0.68110    0.39530    0.11140    1.000
    C177     C        0.75310    0.28125    0.21200    1.000
    C178     C        0.78590    0.28460    0.24850    1.000
    H148     H        0.80610    0.31130    0.25140    1.000
    C179     C        0.89580    0.46330    0.02017    1.000
    H149     H        0.87840    0.43790    0.03370    1.000
    C180     C        0.94720    0.46230    0.02140    1.000
    N27      N        0.97670    0.42440    0.04160    1.000
    H150     H        0.00770    0.42630    0.03990    1.000
    H151     H        0.96330    0.39990    0.05540    1.000
    C181     C        0.89760    0.51008    0.04070    1.000
    H152     H        0.88010    0.51680    0.06860    1.000
    C182     C        0.94890    0.51110    0.04370    1.000
    N28      N        0.96380    0.52300    0.09250    1.000
    H153     H        0.99400    0.52430    0.09970    1.000
    H154     H        0.94240    0.52860    0.11440    1.000
    O29      O        0.29009    0.44740    0.94775    1.000
    O30      O        0.20795    0.45018    0.95147    1.000
    C183     C        0.24209    0.43480    0.93570    1.000
    C184     C        0.24582    0.39627    0.89141    1.000
    C185     C        0.20439    0.37556    0.87191    1.000
    H155     H        0.17410    0.38550    0.88250    1.000
    C186     C        0.20829    0.34006    0.83655    1.000
    H156     H        0.18060    0.32620    0.82350    1.000
    C187     C        0.25360    0.32526    0.82069    1.000
    C188     C        0.29506    0.34596    0.84020    1.000
    H157     H        0.32540    0.33610    0.82960    1.000
    C189     C        0.29116    0.38147    0.87555    1.000
    H158     H        0.31890    0.39530    0.88860    1.000
    C190     C        0.24690    0.28125    0.78800    1.000
    C191     C        0.21410    0.28460    0.75150    1.000
    H159     H        0.19390    0.31130    0.74860    1.000
    C192     C        0.10420    0.46330    0.97983    1.000
    H160     H        0.12160    0.43790    0.96630    1.000
    C193     C        0.05280    0.46230    0.97860    1.000
    N29      N        0.02330    0.42440    0.95840    1.000
    H161     H        0.99230    0.42630    0.96010    1.000
    H162     H        0.03670    0.39990    0.94460    1.000
    C194     C        0.10240    0.51008    0.95930    1.000
    H163     H        0.11990    0.51680    0.93140    1.000
    C195     C        0.05110    0.51110    0.95630    1.000
    N30      N        0.03620    0.52300    0.90750    1.000
    H164     H        0.00600    0.52430    0.90030    1.000
    H165     H        0.05760    0.52860    0.88560    1.000
    O31      O        0.70991    0.55260    0.94775    1.000
    O32      O        0.79205    0.54982    0.95147    1.000
    C196     C        0.75791    0.56520    0.93570    1.000
    C197     C        0.75418    0.60373    0.89141    1.000
    C198     C        0.79561    0.62444    0.87191    1.000
    H166     H        0.82590    0.61450    0.88250    1.000
    C199     C        0.79171    0.65994    0.83655    1.000
    H167     H        0.81940    0.67380    0.82350    1.000
    C200     C        0.74640    0.67474    0.82069    1.000
    C201     C        0.70494    0.65404    0.84020    1.000
    H168     H        0.67460    0.66390    0.82960    1.000
    C202     C        0.70884    0.61853    0.87555    1.000
    H169     H        0.68110    0.60470    0.88860    1.000
    C203     C        0.75310    0.71875    0.78800    1.000
    C204     C        0.78590    0.71540    0.75150    1.000
    H170     H        0.80610    0.68870    0.74860    1.000
    C205     C        0.89580    0.53670    0.97983    1.000
    H171     H        0.87840    0.56210    0.96630    1.000
    C206     C        0.94720    0.53770    0.97860    1.000
    N31      N        0.97670    0.57560    0.95840    1.000
    H172     H        0.00770    0.57370    0.96010    1.000
    H173     H        0.96330    0.60010    0.94460    1.000
    C207     C        0.89760    0.48992    0.95930    1.000
    H174     H        0.88010    0.48320    0.93140    1.000
    C208     C        0.94890    0.48890    0.95630    1.000
    N32      N        0.96380    0.47700    0.90750    1.000
    H175     H        0.99400    0.47570    0.90030    1.000
    H176     H        0.94240    0.47140    0.88560    1.000
    O33      O        0.55260    0.05225    0.29009    1.000
    O34      O        0.54982    0.04853    0.20795    1.000
    C209     C        0.56520    0.06430    0.24209    1.000
    C210     C        0.60373    0.10859    0.24582    1.000
    C211     C        0.62444    0.12809    0.20439    1.000
    H177     H        0.61450    0.11750    0.17410    1.000
    C212     C        0.65994    0.16345    0.20829    1.000
    H178     H        0.67380    0.17650    0.18060    1.000
    C213     C        0.67474    0.17931    0.25360    1.000
    C214     C        0.65404    0.15980    0.29506    1.000
    H179     H        0.66390    0.17040    0.32540    1.000
    C215     C        0.61853    0.12445    0.29116    1.000
    H180     H        0.60470    0.11140    0.31890    1.000
    C216     C        0.71875    0.21200    0.24690    1.000
    C217     C        0.71540    0.24850    0.21410    1.000
    H181     H        0.68870    0.25140    0.19390    1.000
    C218     C        0.53670    0.02017    0.10420    1.000
    H182     H        0.56210    0.03370    0.12160    1.000
    C219     C        0.53770    0.02140    0.05280    1.000
    N33      N        0.57560    0.04160    0.02330    1.000
    H183     H        0.57370    0.03990    0.99230    1.000
    H184     H        0.60010    0.05540    0.03670    1.000
    C220     C        0.48992    0.04070    0.10240    1.000
    H185     H        0.48320    0.06860    0.11990    1.000
    C221     C        0.48890    0.04370    0.05110    1.000
    N34      N        0.47700    0.09250    0.03620    1.000
    H186     H        0.47570    0.09970    0.00600    1.000
    H187     H        0.47140    0.11440    0.05760    1.000
    O35      O        0.44740    0.05225    0.70991    1.000
    O36      O        0.45018    0.04853    0.79205    1.000
    C222     C        0.43480    0.06430    0.75791    1.000
    C223     C        0.39627    0.10859    0.75418    1.000
    C224     C        0.37556    0.12809    0.79561    1.000
    H188     H        0.38550    0.11750    0.82590    1.000
    C225     C        0.34006    0.16345    0.79171    1.000
    H189     H        0.32620    0.17650    0.81940    1.000
    C226     C        0.32526    0.17931    0.74640    1.000
    C227     C        0.34596    0.15980    0.70494    1.000
    H190     H        0.33610    0.17040    0.67460    1.000
    C228     C        0.38147    0.12445    0.70884    1.000
    H191     H        0.39530    0.11140    0.68110    1.000
    C229     C        0.28125    0.21200    0.75310    1.000
    C230     C        0.28460    0.24850    0.78590    1.000
    H192     H        0.31130    0.25140    0.80610    1.000
    C231     C        0.46330    0.02017    0.89580    1.000
    H193     H        0.43790    0.03370    0.87840    1.000
    C232     C        0.46230    0.02140    0.94720    1.000
    N35      N        0.42440    0.04160    0.97670    1.000
    H194     H        0.42630    0.03990    0.00770    1.000
    H195     H        0.39990    0.05540    0.96330    1.000
    C233     C        0.51008    0.04070    0.89760    1.000
    H196     H        0.51680    0.06860    0.88010    1.000
    C234     C        0.51110    0.04370    0.94890    1.000
    N36      N        0.52300    0.09250    0.96380    1.000
    H197     H        0.52430    0.09970    0.99400    1.000
    H198     H        0.52860    0.11440    0.94240    1.000
    O37      O        0.44740    0.94775    0.29009    1.000
    O38      O        0.45018    0.95147    0.20795    1.000
    C235     C        0.43480    0.93570    0.24209    1.000
    C236     C        0.39627    0.89141    0.24582    1.000
    C237     C        0.37556    0.87191    0.20439    1.000
    H199     H        0.38550    0.88250    0.17410    1.000
    C238     C        0.34006    0.83655    0.20829    1.000
    H200     H        0.32620    0.82350    0.18060    1.000
    C239     C        0.32526    0.82069    0.25360    1.000
    C240     C        0.34596    0.84020    0.29506    1.000
    H201     H        0.33610    0.82960    0.32540    1.000
    C241     C        0.38147    0.87555    0.29116    1.000
    H202     H        0.39530    0.88860    0.31890    1.000
    C242     C        0.28125    0.78800    0.24690    1.000
    C243     C        0.28460    0.75150    0.21410    1.000
    H203     H        0.31130    0.74860    0.19390    1.000
    C244     C        0.46330    0.97983    0.10420    1.000
    H204     H        0.43790    0.96630    0.12160    1.000
    C245     C        0.46230    0.97860    0.05280    1.000
    N37      N        0.42440    0.95840    0.02330    1.000
    H205     H        0.42630    0.96010    0.99230    1.000
    H206     H        0.39990    0.94460    0.03670    1.000
    C246     C        0.51008    0.95930    0.10240    1.000
    H207     H        0.51680    0.93140    0.11990    1.000
    C247     C        0.51110    0.95630    0.05110    1.000
    N38      N        0.52300    0.90750    0.03620    1.000
    H208     H        0.52430    0.90030    0.00600    1.000
    H209     H        0.52860    0.88560    0.05760    1.000
    O39      O        0.55260    0.94775    0.70991    1.000
    O40      O        0.54982    0.95147    0.79205    1.000
    C248     C        0.56520    0.93570    0.75791    1.000
    C249     C        0.60373    0.89141    0.75418    1.000
    C250     C        0.62444    0.87191    0.79561    1.000
    H210     H        0.61450    0.88250    0.82590    1.000
    C251     C        0.65994    0.83655    0.79171    1.000
    H211     H        0.67380    0.82350    0.81940    1.000
    C252     C        0.67474    0.82069    0.74640    1.000
    C253     C        0.65404    0.84020    0.70494    1.000
    H212     H        0.66390    0.82960    0.67460    1.000
    C254     C        0.61853    0.87555    0.70884    1.000
    H213     H        0.60470    0.88860    0.68110    1.000
    C255     C        0.71875    0.78800    0.75310    1.000
    C256     C        0.71540    0.75150    0.78590    1.000
    H214     H        0.68870    0.74860    0.80610    1.000
    C257     C        0.53670    0.97983    0.89580    1.000
    H215     H        0.56210    0.96630    0.87840    1.000
    C258     C        0.53770    0.97860    0.94720    1.000
    N39      N        0.57560    0.95840    0.97670    1.000
    H216     H        0.57370    0.96010    0.00770    1.000
    H217     H        0.60010    0.94460    0.96330    1.000
    C259     C        0.48992    0.95930    0.89760    1.000
    H218     H        0.48320    0.93140    0.88010    1.000
    C260     C        0.48890    0.95630    0.94890    1.000
    N40      N        0.47700    0.90750    0.96380    1.000
    H219     H        0.47570    0.90030    0.99400    1.000
    H220     H        0.47140    0.88560    0.94240    1.000
    O41      O        0.05225    0.29009    0.55260    1.000
    O42      O        0.04853    0.20795    0.54982    1.000
    C261     C        0.06430    0.24209    0.56520    1.000
    C262     C        0.10859    0.24582    0.60373    1.000
    C263     C        0.12809    0.20439    0.62444    1.000
    H221     H        0.11750    0.17410    0.61450    1.000
    C264     C        0.16345    0.20829    0.65994    1.000
    H222     H        0.17650    0.18060    0.67380    1.000
    C265     C        0.17931    0.25360    0.67474    1.000
    C266     C        0.15980    0.29506    0.65404    1.000
    H223     H        0.17040    0.32540    0.66390    1.000
    C267     C        0.12445    0.29116    0.61853    1.000
    H224     H        0.11140    0.31890    0.60470    1.000
    C268     C        0.21200    0.24690    0.71875    1.000
    C269     C        0.24850    0.21410    0.71540    1.000
    H225     H        0.25140    0.19390    0.68870    1.000
    C270     C        0.02017    0.10420    0.53670    1.000
    H226     H        0.03370    0.12160    0.56210    1.000
    C271     C        0.02140    0.05280    0.53770    1.000
    N41      N        0.04160    0.02330    0.57560    1.000
    H227     H        0.03990    0.99230    0.57370    1.000
    H228     H        0.05540    0.03670    0.60010    1.000
    C272     C        0.04070    0.10240    0.48992    1.000
    H229     H        0.06860    0.11990    0.48320    1.000
    C273     C        0.04370    0.05110    0.48890    1.000
    N42      N        0.09250    0.03620    0.47700    1.000
    H230     H        0.09970    0.00600    0.47570    1.000
    H231     H        0.11440    0.05760    0.47140    1.000
    O43      O        0.05225    0.70991    0.44740    1.000
    O44      O        0.04853    0.79205    0.45018    1.000
    C274     C        0.06430    0.75791    0.43480    1.000
    C275     C        0.10859    0.75418    0.39627    1.000
    C276     C        0.12809    0.79561    0.37556    1.000
    H232     H        0.11750    0.82590    0.38550    1.000
    C277     C        0.16345    0.79171    0.34006    1.000
    H233     H        0.17650    0.81940    0.32620    1.000
    C278     C        0.17931    0.74640    0.32526    1.000
    C279     C        0.15980    0.70494    0.34596    1.000
    H234     H        0.17040    0.67460    0.33610    1.000
    C280     C        0.12445    0.70884    0.38147    1.000
    H235     H        0.11140    0.68110    0.39530    1.000
    C281     C        0.21200    0.75310    0.28125    1.000
    C282     C        0.24850    0.78590    0.28460    1.000
    H236     H        0.25140    0.80610    0.31130    1.000
    C283     C        0.02017    0.89580    0.46330    1.000
    H237     H        0.03370    0.87840    0.43790    1.000
    C284     C        0.02140    0.94720    0.46230    1.000
    N43      N        0.04160    0.97670    0.42440    1.000
    H238     H        0.03990    0.00770    0.42630    1.000
    H239     H        0.05540    0.96330    0.39990    1.000
    C285     C        0.04070    0.89760    0.51008    1.000
    H240     H        0.06860    0.88010    0.51680    1.000
    C286     C        0.04370    0.94890    0.51110    1.000
    N44      N        0.09250    0.96380    0.52300    1.000
    H241     H        0.09970    0.99400    0.52430    1.000
    H242     H        0.11440    0.94240    0.52860    1.000
    O45      O        0.94775    0.29009    0.44740    1.000
    O46      O        0.95147    0.20795    0.45018    1.000
    C287     C        0.93570    0.24209    0.43480    1.000
    C288     C        0.89141    0.24582    0.39627    1.000
    C289     C        0.87191    0.20439    0.37556    1.000
    H243     H        0.88250    0.17410    0.38550    1.000
    C290     C        0.83655    0.20829    0.34006    1.000
    H244     H        0.82350    0.18060    0.32620    1.000
    C291     C        0.82069    0.25360    0.32526    1.000
    C292     C        0.84020    0.29506    0.34596    1.000
    H245     H        0.82960    0.32540    0.33610    1.000
    C293     C        0.87555    0.29116    0.38147    1.000
    H246     H        0.88860    0.31890    0.39530    1.000
    C294     C        0.78800    0.24690    0.28125    1.000
    C295     C        0.75150    0.21410    0.28460    1.000
    H247     H        0.74860    0.19390    0.31130    1.000
    C296     C        0.97983    0.10420    0.46330    1.000
    H248     H        0.96630    0.12160    0.43790    1.000
    C297     C        0.97860    0.05280    0.46230    1.000
    N45      N        0.95840    0.02330    0.42440    1.000
    H249     H        0.96010    0.99230    0.42630    1.000
    H250     H        0.94460    0.03670    0.39990    1.000
    C298     C        0.95930    0.10240    0.51008    1.000
    H251     H        0.93140    0.11990    0.51680    1.000
    C299     C        0.95630    0.05110    0.51110    1.000
    N46      N        0.90750    0.03620    0.52300    1.000
    H252     H        0.90030    0.00600    0.52430    1.000
    H253     H        0.88560    0.05760    0.52860    1.000
    O47      O        0.94775    0.70991    0.55260    1.000
    O48      O        0.95147    0.79205    0.54982    1.000
    C300     C        0.93570    0.75791    0.56520    1.000
    C301     C        0.89141    0.75418    0.60373    1.000
    C302     C        0.87191    0.79561    0.62444    1.000
    H254     H        0.88250    0.82590    0.61450    1.000
    C303     C        0.83655    0.79171    0.65994    1.000
    H255     H        0.82350    0.81940    0.67380    1.000
    C304     C        0.82069    0.74640    0.67474    1.000
    C305     C        0.84020    0.70494    0.65404    1.000
    H256     H        0.82960    0.67460    0.66390    1.000
    C306     C        0.87555    0.70884    0.61853    1.000
    H257     H        0.88860    0.68110    0.60470    1.000
    C307     C        0.78800    0.75310    0.71875    1.000
    C308     C        0.75150    0.78590    0.71540    1.000
    H258     H        0.74860    0.80610    0.68870    1.000
    C309     C        0.97983    0.89580    0.53670    1.000
    H259     H        0.96630    0.87840    0.56210    1.000
    C310     C        0.97860    0.94720    0.53770    1.000
    N47      N        0.95840    0.97670    0.57560    1.000
    H260     H        0.96010    0.00770    0.57370    1.000
    H261     H        0.94460    0.96330    0.60010    1.000
    C311     C        0.95930    0.89760    0.48992    1.000
    H262     H        0.93140    0.88010    0.48320    1.000
    C312     C        0.95630    0.94890    0.48890    1.000
    N48      N        0.90750    0.96380    0.47700    1.000
    H263     H        0.90030    0.99400    0.47570    1.000
    H264     H        0.88560    0.94240    0.47140    1.000
    Zn1      Zn       0.00000    0.69817    0.50000    1.000
    N49      N        0.00000    0.62740    0.50000    1.000
    C313     C        0.00000    0.52672    0.50000    1.000
    Zn2      Zn       0.00000    0.30183    0.50000    1.000
    N50      N        0.00000    0.37260    0.50000    1.000
    C314     C        0.00000    0.47328    0.50000    1.000
    Zn3      Zn       0.50000    0.00000    0.69817    1.000
    N51      N        0.50000    0.00000    0.62740    1.000
    C315     C        0.50000    0.00000    0.52672    1.000
    Zn4      Zn       0.50000    0.00000    0.30183    1.000
    N52      N        0.50000    0.00000    0.37260    1.000
    C316     C        0.50000    0.00000    0.47328    1.000
    Zn5      Zn       0.69817    0.50000    0.00000    1.000
    N53      N        0.62740    0.50000    0.00000    1.000
    C317     C        0.52672    0.50000    0.00000    1.000
    Zn6      Zn       0.30183    0.50000    0.00000    1.000
    N54      N        0.37260    0.50000    0.00000    1.000
    C318     C        0.47328    0.50000    0.00000    1.000
    Zn7      Zn       0.19817    0.50000    0.00000    1.000
    N55      N        0.12740    0.50000    0.00000    1.000
    C319     C        0.02672    0.50000    0.00000    1.000
    Zn8      Zn       0.80183    0.50000    0.00000    1.000
    N56      N        0.87260    0.50000    0.00000    1.000
    C320     C        0.97328    0.50000    0.00000    1.000
    Zn9      Zn       0.50000    0.00000    0.19817    1.000
    N57      N        0.50000    0.00000    0.12740    1.000
    C321     C        0.50000    0.00000    0.02672    1.000
    Zn10     Zn       0.50000    0.00000    0.80183    1.000
    N58      N        0.50000    0.00000    0.87260    1.000
    C322     C        0.50000    0.00000    0.97328    1.000
    Zn11     Zn       0.00000    0.19817    0.50000    1.000
    N59      N        0.00000    0.12740    0.50000    1.000
    C323     C        0.00000    0.02672    0.50000    1.000
    Zn12     Zn       0.00000    0.80183    0.50000    1.000
    N60      N        0.00000    0.87260    0.50000    1.000
    C324     C        0.00000    0.97328    0.50000    1.000
