data_functionalizedCrystal
_audit_creation_method	'EQeq! by Chris Wilmer'
_symmetry_space_group_name_H-M	'P1'
_symmetry_Int_Tables_number	1
_symmetry_cell_setting	triclinic
loop_
_symmetry_equiv_pos_as_xyz
  x,y,z
_cell_length_a	12.6774
_cell_length_b	12.6774
_cell_length_c	18.0381
_cell_angle_alpha	69.4266
_cell_angle_beta	69.4266
_cell_angle_gamma	89.9999
loop_
_atom_site_label
_atom_site_type_symbol
_atom_site_fract_x
_atom_site_fract_y
_atom_site_fract_z
_atom_site_charge
Mof_Cd	Cd	0.57783	0.82005	0.8601	0.412
Mof_Cd	Cd	0.56207	0.31985	0.8601	0.422
Mof_Cd	Cd	0.57005	0.81207	0.3601	0.417
Mof_Cd	Cd	0.06985	0.82783	0.3601	0.399
Mof_Cd	Cd	0.18793	0.42995	0.6399	0.417
Mof_Cd	Cd	0.17217	0.93015	0.6399	0.399
Mof_Cd	Cd	0.68015	0.43793	0.1399	0.422
Mof_Cd	Cd	0.17995	0.42217	0.1399	0.412
Mof_H 	H 	0.9338	0.8161	0.6556	0.178
Mof_H 	H 	0.9112	0.9697	0.5816	0.177
Mof_H 	H 	0.768	0.7016	0.6348	0.08
Mof_H 	H 	0.7461	0.8727	0.5494	0.063
Mof_H 	H 	0.628	0.0674	0.87	0.05
Mof_H 	H 	0.566	0.9952	0.6932	0.025
Mof_H 	H 	0.465	0.0172	0.767	0.032
Mof_H 	H 	0.7763	0.0285	0.7666	0.056
Mof_H 	H 	0.7535	0.0031	0.6924	0.072
Mof_H 	H 	0.7039	0.1385	0.5986	0.063
Mof_H 	H 	0.3896	0.6371	0.0362	0.047
Mof_H 	H 	0.6348	0.5709	0.8568	0.058
Mof_H 	H 	0.6748	0.6112	0.964	0.057
Mof_H 	H 	0.4106	0.5283	0.6556	0.174
Mof_H 	H 	0.5072	0.4487	0.5816	0.176
Mof_H 	H 	0.5972	0.6636	0.6348	0.078
Mof_H 	H 	0.7045	0.5779	0.5494	0.069
Mof_H 	H 	0.502	0.0626	0.87	0.05
Mof_H 	H 	0.7408	0.3116	0.6932	0.051
Mof_H 	H 	0.768	0.2158	0.767	0.038
Mof_H 	H 	0.4571	0.2049	0.7666	0.05
Mof_H 	H 	0.5541	0.3045	0.6924	0.063
Mof_H 	H 	0.6975	0.2629	0.5986	0.06
Mof_H 	H 	0.5742	0.3267	0.0362	0.05
Mof_H 	H 	0.5084	0.5723	0.8568	0.058
Mof_H 	H 	0.3612	0.4248	0.964	0.057
Mof_H 	H 	0.5661	0.6606	0.1556	0.173
Mof_H 	H 	0.7197	0.7572	0.0816	0.177
Mof_H 	H 	0.4516	0.8472	0.1348	0.076
Mof_H 	H 	0.6227	0.9545	0.0494	0.062
Mof_H 	H 	0.8174	0.752	0.37	0.046
Mof_H 	H 	0.7452	0.9908	0.1932	0.059
Mof_H 	H 	0.7672	0.018	0.267	0.064
Mof_H 	H 	0.7785	0.7071	0.2666	0.051
Mof_H 	H 	0.7531	0.8041	0.1924	0.064
Mof_H 	H 	0.8885	0.9475	0.0986	0.051
Mof_H 	H 	0.3871	0.8242	0.5362	0.046
Mof_H 	H 	0.3209	0.7584	0.3568	0.057
Mof_H 	H 	0.3612	0.6112	0.464	0.057
Mof_H 	H 	0.2783	0.1838	0.1556	0.174
Mof_H 	H 	0.1987	0.1612	0.0816	0.175
Mof_H 	H 	0.4136	0.018	0.1348	0.085
Mof_H 	H 	0.3279	0.9961	0.0494	0.044
Mof_H 	H 	0.8126	0.878	0.37	0.042
Mof_H 	H 	0.0616	0.816	0.1932	0.025
Mof_H 	H 	0.9658	0.715	0.267	0.031
Mof_H 	H 	0.9549	0.0263	0.2666	0.078
Mof_H 	H 	0.0545	0.0035	0.1924	0.081
Mof_H 	H 	0.0129	0.9539	0.0986	0.03
Mof_H 	H 	0.0767	0.6396	0.5362	0.043
Mof_H 	H 	0.3223	0.8848	0.3568	0.054
Mof_H 	H 	0.1748	0.9248	0.464	0.048
Mof_H 	H 	0.3394	0.4339	0.8444	0.173
Mof_H 	H 	0.2428	0.2803	0.9184	0.176
Mof_H 	H 	0.1528	0.5484	0.8652	0.076
Mof_H 	H 	0.0455	0.3773	0.9506	0.062
Mof_H 	H 	0.248	0.1826	0.63	0.046
Mof_H 	H 	0.0092	0.2548	0.8068	0.059
Mof_H 	H 	0.982	0.2328	0.733	0.063
Mof_H 	H 	0.2929	0.2215	0.7334	0.051
Mof_H 	H 	0.1959	0.2469	0.8076	0.064
Mof_H 	H 	0.0525	0.1115	0.9014	0.051
Mof_H 	H 	0.1758	0.6129	0.4638	0.046
Mof_H 	H 	0.2416	0.6791	0.6432	0.057
Mof_H 	H 	0.3888	0.6388	0.536	0.057
Mof_H 	H 	0.8162	0.7217	0.8444	0.174
Mof_H 	H 	0.8388	0.8013	0.9184	0.175
Mof_H 	H 	0.982	0.5864	0.8652	0.085
Mof_H 	H 	0.0039	0.6721	0.9506	0.044
Mof_H 	H 	0.122	0.1874	0.63	0.042
Mof_H 	H 	0.184	0.9384	0.8068	0.025
Mof_H 	H 	0.285	0.0342	0.733	0.031
Mof_H 	H 	0.9737	0.0451	0.7334	0.078
Mof_H 	H 	0.9965	0.9455	0.8076	0.081
Mof_H 	H 	0.0461	0.9871	0.9014	0.03
Mof_H 	H 	0.3604	0.9233	0.4638	0.043
Mof_H 	H 	0.1152	0.6777	0.6432	0.054
Mof_H 	H 	0.0752	0.8252	0.536	0.048
Mof_H 	H 	0.4717	0.5894	0.3444	0.174
Mof_H 	H 	0.5513	0.4928	0.4184	0.176
Mof_H 	H 	0.3364	0.4028	0.3652	0.078
Mof_H 	H 	0.4221	0.2955	0.4506	0.069
Mof_H 	H 	0.9374	0.498	0.13	0.05
Mof_H 	H 	0.6884	0.2592	0.3068	0.051
Mof_H 	H 	0.7842	0.232	0.233	0.038
Mof_H 	H 	0.7951	0.5429	0.2334	0.05
Mof_H 	H 	0.6955	0.4459	0.3076	0.063
Mof_H 	H 	0.7371	0.3025	0.4014	0.06
Mof_H 	H 	0.6733	0.4258	0.9638	0.05
Mof_H 	H 	0.4277	0.4916	0.1432	0.058
Mof_H 	H 	0.5752	0.6388	0.036	0.058
Mof_H 	H 	0.1839	0.0662	0.3444	0.178
Mof_H 	H 	0.0303	0.0888	0.4184	0.177
Mof_H 	H 	0.2984	0.232	0.3652	0.08
Mof_H 	H 	0.1273	0.2539	0.4506	0.063
Mof_H 	H 	0.9326	0.372	0.13	0.05
Mof_H 	H 	0.0048	0.434	0.3068	0.025
Mof_H 	H 	0.9828	0.535	0.233	0.032
Mof_H 	H 	0.9715	0.2237	0.2334	0.056
Mof_H 	H 	0.9969	0.2465	0.3076	0.072
Mof_H 	H 	0.8615	0.2961	0.4014	0.063
Mof_H 	H 	0.3629	0.6104	0.9638	0.047
Mof_H 	H 	0.4291	0.3652	0.1432	0.058
Mof_H 	H 	0.3888	0.3252	0.036	0.057
Mof_C 	C 	0.7125	0.787	0.7148	0.362
Mof_C 	C 	0.7987	0.7697	0.6406	-0.04
Mof_C 	C 	0.8183	0.8698	0.5604	-0.015
Mof_C 	C 	0.906	0.8534	0.489	0.315
Mof_C 	C 	0.5465	0.0411	0.7294	0.039
Mof_C 	C 	0.7314	0.0481	0.7292	-0.007
Mof_C 	C 	0.5727	0.4982	0.7148	0.36
Mof_C 	C 	0.5607	0.5897	0.6406	-0.035
Mof_C 	C 	0.6213	0.5698	0.5604	-0.021
Mof_C 	C 	0.605	0.6576	0.489	0.319
Mof_C 	C 	0.7241	0.2295	0.7294	0.004
Mof_C 	C 	0.5394	0.2227	0.7292	-0.004
Mof_C 	C 	0.537	0.8227	0.2148	0.362
Mof_C 	C 	0.5197	0.8107	0.1406	-0.037
Mof_C 	C 	0.6198	0.8713	0.0604	-0.018
Mof_C 	C 	0.6034	0.855	0.989	0.315
Mof_C 	C 	0.7911	0.9741	0.2294	-0.047
Mof_C 	C 	0.7981	0.7894	0.2292	-0.006
Mof_C 	C 	0.2482	0.9625	0.2148	0.344
Mof_C 	C 	0.3397	0.0487	0.1406	-0.028
Mof_C 	C 	0.3198	0.0683	0.0604	0.01
Mof_C 	C 	0.4076	0.156	0.989	0.308
Mof_C 	C 	0.9795	0.7965	0.2294	0.042
Mof_C 	C 	0.9727	0.9814	0.2292	-0.051
Mof_C 	C 	0.1773	0.463	0.7852	0.362
Mof_C 	C 	0.1893	0.4803	0.8594	-0.037
Mof_C 	C 	0.1287	0.3802	0.9396	-0.019
Mof_C 	C 	0.145	0.3966	0.011	0.316
Mof_C 	C 	0.0259	0.2089	0.7706	-0.046
Mof_C 	C 	0.2106	0.2019	0.7708	-0.006
Mof_C 	C 	0.0375	0.7518	0.7852	0.344
Mof_C 	C 	0.9513	0.6603	0.8594	-0.028
Mof_C 	C 	0.9317	0.6802	0.9396	0.01
Mof_C 	C 	0.844	0.5924	0.011	0.309
Mof_C 	C 	0.2035	0.0205	0.7706	0.042
Mof_C 	C 	0.0186	0.0273	0.7708	-0.051
Mof_C 	C 	0.5018	0.4273	0.2852	0.36
Mof_C 	C 	0.4103	0.4393	0.3594	-0.035
Mof_C 	C 	0.4302	0.3787	0.4396	-0.021
Mof_C 	C 	0.3424	0.395	0.511	0.319
Mof_C 	C 	0.7705	0.2759	0.2706	0.004
Mof_C 	C 	0.7773	0.4606	0.2708	-0.004
Mof_C 	C 	0.213	0.2875	0.2852	0.362
Mof_C 	C 	0.2303	0.2013	0.3594	-0.04
Mof_C 	C 	0.1302	0.1817	0.4396	-0.015
Mof_C 	C 	0.1466	0.094	0.511	0.315
Mof_C 	C 	0.9589	0.4535	0.2706	0.039
Mof_C 	C 	0.9519	0.2686	0.2708	-0.007
Mof_C 	C 	0.5836	0.0836	0.8328	0.006
Mof_C 	C 	0.6816	0.1816	0.6368	-0
Mof_C 	C 	0.8336	0.8336	0.3328	0.007
Mof_C 	C 	0.9316	0.9316	0.1368	0.029
Mof_C 	C 	0.1664	0.1664	0.6672	0.007
Mof_C 	C 	0.0684	0.0684	0.8632	0.03
Mof_C 	C 	0.9164	0.4164	0.1672	0.006
Mof_C 	C 	0.8184	0.3184	0.3632	-0
Mof_C 	C 	0.4087	0.5913	-0	-0.002
Mof_C 	C 	0.5913	0.4087	-0	-0.004
Mof_C 	C 	0.3413	0.8413	0.5	-0.001
Mof_C 	C 	0.1587	0.6587	0.5	-0.001
Mof_C 	C 	0.553	0.553	0.894	-0.007
Mof_C 	C 	0.303	0.803	0.394	-0.005
Mof_C 	C 	0.197	0.697	0.606	-0.005
Mof_C 	C 	0.447	0.447	0.106	-0.007
Mof_C 	C 	0.5925	0.5925	-0	-0.001
Mof_C 	C 	0.4075	0.4075	-0	-0.001
Mof_C 	C 	0.3425	0.6575	0.5	-0.001
Mof_C 	C 	0.1575	0.8425	0.5	0.005
Mof_N 	N 	0.6125	0.0148	0.7822	-0.122
Mof_N 	N 	0.561	0.1569	0.6758	-0.106
Mof_N 	N 	0.528	0.6208	0.946	-0.117
Mof_N 	N 	0.6053	0.203	0.7822	-0.124
Mof_N 	N 	0.7632	0.1673	0.6758	-0.1
Mof_N 	N 	0.526	0.4332	0.946	-0.117
Mof_N 	N 	0.7648	0.8553	0.2822	-0.119
Mof_N 	N 	0.9069	0.0132	0.1758	-0.076
Mof_N 	N 	0.3708	0.776	0.446	-0.118
Mof_N 	N 	0.953	0.8625	0.2822	-0.118
Mof_N 	N 	0.9173	0.811	0.1758	-0.107
Mof_N 	N 	0.1832	0.778	0.446	-0.119
Mof_N 	N 	0.1447	0.2352	0.7178	-0.119
Mof_N 	N 	0.9868	0.0931	0.8242	-0.076
Mof_N 	N 	0.224	0.6292	0.554	-0.118
Mof_N 	N 	0.1375	0.047	0.7178	-0.118
Mof_N 	N 	0.189	0.0827	0.8242	-0.107
Mof_N 	N 	0.222	0.8168	0.554	-0.119
Mof_N 	N 	0.797	0.3947	0.2178	-0.124
Mof_N 	N 	0.8327	0.2368	0.3242	-0.1
Mof_N 	N 	0.5668	0.474	0.054	-0.116
Mof_N 	N 	0.9852	0.3875	0.2178	-0.122
Mof_N 	N 	0.8431	0.439	0.3242	-0.106
Mof_N 	N 	0.3792	0.472	0.054	-0.116
Mof_O 	O 	0.7381	0.7939	0.771	-0.31
Mof_O 	O 	0.6163	0.7905	0.7186	-0.295
Mof_O 	O 	0.9013	0.7498	0.6508	-0.224
Mof_O 	O 	0.8394	0.9687	0.5726	-0.255
Mof_O 	O 	0.9772	0.9375	0.4374	-0.282
Mof_O 	O 	0.9088	0.7603	0.4836	-0.281
Mof_O 	O 	0.4909	0.4351	0.771	-0.307
Mof_O 	O 	0.6651	0.4909	0.7186	-0.291
Mof_O 	O 	0.4479	0.5994	0.6508	-0.232
Mof_O 	O 	0.588	0.4587	0.5726	-0.246
Mof_O 	O 	0.5854	0.6251	0.4374	-0.288
Mof_O 	O 	0.6076	0.7561	0.4836	-0.293
Mof_O 	O 	0.5439	0.7409	0.271	-0.308
Mof_O 	O 	0.5405	0.9151	0.2186	-0.299
Mof_O 	O 	0.4998	0.6979	0.1508	-0.231
Mof_O 	O 	0.7187	0.838	0.0726	-0.248
Mof_O 	O 	0.6875	0.8354	0.9374	-0.29
Mof_O 	O 	0.5103	0.8576	0.9836	-0.295
Mof_O 	O 	0.1851	0.9881	0.271	-0.318
Mof_O 	O 	0.2409	0.8663	0.2186	-0.292
Mof_O 	O 	0.3494	0.1513	0.1508	-0.229
Mof_O 	O 	0.2087	0.0894	0.0726	-0.248
Mof_O 	O 	0.3751	0.2272	0.9374	-0.285
Mof_O 	O 	0.5061	0.1588	0.9836	-0.284
Mof_O 	O 	0.2591	0.4561	0.729	-0.308
Mof_O 	O 	0.0849	0.4595	0.7814	-0.299
Mof_O 	O 	0.3021	0.5002	0.8492	-0.231
Mof_O 	O 	0.162	0.2813	0.9274	-0.248
Mof_O 	O 	0.1646	0.3125	0.0626	-0.291
Mof_O 	O 	0.1424	0.4897	0.0164	-0.295
Mof_O 	O 	0.0119	0.8149	0.729	-0.318
Mof_O 	O 	0.1337	0.7591	0.7814	-0.292
Mof_O 	O 	0.8487	0.6506	0.8492	-0.23
Mof_O 	O 	0.9106	0.7913	0.9274	-0.248
Mof_O 	O 	0.7728	0.6249	0.0626	-0.285
Mof_O 	O 	0.8412	0.4939	0.0164	-0.284
Mof_O 	O 	0.5649	0.5091	0.229	-0.307
Mof_O 	O 	0.5091	0.3349	0.2814	-0.291
Mof_O 	O 	0.4006	0.5521	0.3492	-0.232
Mof_O 	O 	0.5413	0.412	0.4274	-0.246
Mof_O 	O 	0.3749	0.4146	0.5626	-0.288
Mof_O 	O 	0.2439	0.3924	0.5164	-0.293
Mof_O 	O 	0.2061	0.2619	0.229	-0.31
Mof_O 	O 	0.2095	0.3837	0.2814	-0.295
Mof_O 	O 	0.2502	0.0987	0.3492	-0.224
Mof_O 	O 	0.0313	0.1606	0.4274	-0.255
Mof_O 	O 	0.0625	0.0228	0.5626	-0.282
Mof_O 	O 	0.2397	0.0912	0.5164	-0.281
_end
