data_functionalizedCrystal
_audit_creation_method	'EQeq! by Chris Wilmer'
_symmetry_space_group_name_H-M	'P1'
_symmetry_Int_Tables_number	1
_symmetry_cell_setting	triclinic
loop_
_symmetry_equiv_pos_as_xyz
  x,y,z
_cell_length_a	13.895
_cell_length_b	26.9
_cell_length_c	7.613
_cell_angle_alpha	90
_cell_angle_beta	90
_cell_angle_gamma	91.06
loop_
_atom_site_label
_atom_site_type_symbol
_atom_site_fract_x
_atom_site_fract_y
_atom_site_fract_z
_atom_site_charge
Mof_Cd	Cd	0.26681	0.36989	0.38287	0.373
Mof_Cd	Cd	0.1906	0.63635	0.37897	0.37
Mof_Ni	Ni	0.19723	0.49967	0.8728	1.059
Mof_Ni	Ni	0.99598	0.2363	0.2664	1.064
Mof_N 	N 	0.2265	0.4221	0.149	-0.073
Mof_N 	N 	0.2106	0.4227	0.5868	-0.077
Mof_N 	N 	0.1302	0.3194	0.38	-0.071
Mof_N 	N 	0.3346	0.3162	0.612	-0.064
Mof_N 	N 	0.3246	0.3117	0.17	-0.114
Mof_N 	N 	0.4307	0.3907	0.347	-0.124
Mof_N 	N 	0.2034	0.5752	0.162	-0.073
Mof_N 	N 	0.1865	0.5816	0.605	-0.078
Mof_N 	N 	0.8537	0.1584	0.14	-0.073
Mof_N 	N 	0.8337	0.2938	0.427	-0.068
Mof_N 	N 	0.1693	0.6929	0.14	-0.113
Mof_N 	N 	0.0225	0.6343	0.3226	-0.123
Mof_C 	C 	0.2137	0.4509	0.043	-0.233
Mof_C 	C 	0.201	0.452	0.696	-0.234
Mof_C 	C 	0.0795	0.2878	0.338	-0.211
Mof_C 	C 	0.4004	0.2972	0.671	-0.222
Mof_C 	C 	0.1996	0.547	0.052	-0.234
Mof_C 	C 	0.1878	0.5507	0.705	-0.228
Mof_C 	C 	0.909	0.1873	0.188	-0.22
Mof_C 	C 	0.8933	0.2714	0.362	-0.217
Mof_C 	C 	0.4294	0.3166	0.164	-0.018
Mof_C 	C 	0.4703	0.3627	0.2	0.034
Mof_C 	C 	0.5814	0.3659	0.188	-0.033
Mof_C 	C 	0.068	0.6961	0.106	-0.015
Mof_C 	C 	0.9998	0.6693	0.186	0.035
Mof_C 	C 	0.8957	0.6749	0.14	-0.023
Mof_Cd	Cd	0.23319	0.13011	0.88287	0.372
Mof_Cd	Cd	0.3094	0.86365	0.87897	0.37
Mof_Ni	Ni	0.30277	0.00033	0.3728	1.061
Mof_Ni	Ni	0.50402	0.2637	0.7664	1.065
Mof_N 	N 	0.2735	0.0779	0.649	-0.073
Mof_N 	N 	0.2894	0.0773	0.0868	-0.076
Mof_N 	N 	0.3698	0.1806	0.88	-0.072
Mof_N 	N 	0.1654	0.1838	0.112	-0.064
Mof_N 	N 	0.1754	0.1883	0.67	-0.114
Mof_N 	N 	0.0693	0.1093	0.847	-0.125
Mof_N 	N 	0.2966	0.9248	0.662	-0.073
Mof_N 	N 	0.3135	0.9184	0.105	-0.078
Mof_N 	N 	0.6463	0.3416	0.64	-0.073
Mof_N 	N 	0.6663	0.2062	0.927	-0.067
Mof_N 	N 	0.3307	0.8071	0.64	-0.113
Mof_N 	N 	0.4775	0.8657	0.8226	-0.124
Mof_C 	C 	0.2863	0.0491	0.543	-0.235
Mof_C 	C 	0.299	0.048	0.196	-0.233
Mof_C 	C 	0.4205	0.2122	0.838	-0.213
Mof_C 	C 	0.0996	0.2028	0.171	-0.22
Mof_C 	C 	0.3004	0.953	0.552	-0.235
Mof_C 	C 	0.3122	0.9493	0.205	-0.226
Mof_C 	C 	0.591	0.3127	0.688	-0.218
Mof_C 	C 	0.6067	0.2286	0.862	-0.216
Mof_C 	C 	0.0706	0.1834	0.664	-0.018
Mof_C 	C 	0.0297	0.1373	0.7	0.034
Mof_C 	C 	0.9186	0.1341	0.688	-0.031
Mof_C 	C 	0.432	0.8039	0.606	-0.019
Mof_C 	C 	0.5002	0.8307	0.686	0.039
Mof_C 	C 	0.6043	0.8251	0.64	-0.022
Mof_Cd	Cd	0.73319	0.63011	0.61713	0.374
Mof_Cd	Cd	0.8094	0.36365	0.62103	0.371
Mof_Ni	Ni	0.80277	0.50033	0.1272	1.059
Mof_Ni	Ni	0.00402	0.7637	0.7336	1.064
Mof_N 	N 	0.7735	0.5779	0.851	-0.073
Mof_N 	N 	0.7894	0.5773	0.4132	-0.077
Mof_N 	N 	0.8698	0.6806	0.62	-0.071
Mof_N 	N 	0.6654	0.6838	0.388	-0.064
Mof_N 	N 	0.6754	0.6883	0.83	-0.114
Mof_N 	N 	0.5693	0.6093	0.653	-0.124
Mof_N 	N 	0.7966	0.4248	0.838	-0.073
Mof_N 	N 	0.8135	0.4184	0.395	-0.078
Mof_N 	N 	0.1463	0.8416	0.86	-0.073
Mof_N 	N 	0.1663	0.7062	0.573	-0.068
Mof_N 	N 	0.8307	0.3071	0.86	-0.113
Mof_N 	N 	0.9775	0.3657	0.6774	-0.123
Mof_C 	C 	0.7863	0.5491	0.957	-0.233
Mof_C 	C 	0.799	0.548	0.304	-0.234
Mof_C 	C 	0.9205	0.7122	0.662	-0.211
Mof_C 	C 	0.5996	0.7028	0.329	-0.222
Mof_C 	C 	0.8004	0.453	0.948	-0.234
Mof_C 	C 	0.8122	0.4493	0.295	-0.228
Mof_C 	C 	0.091	0.8127	0.812	-0.22
Mof_C 	C 	0.1067	0.7286	0.638	-0.217
Mof_C 	C 	0.5706	0.6834	0.836	-0.018
Mof_C 	C 	0.5297	0.6373	0.8	0.034
Mof_C 	C 	0.4186	0.6341	0.812	-0.033
Mof_C 	C 	0.932	0.3039	0.894	-0.015
Mof_C 	C 	0.0002	0.3307	0.814	0.035
Mof_C 	C 	0.1043	0.3251	0.86	-0.023
Mof_Cd	Cd	0.76681	0.86989	0.11713	0.372
Mof_Cd	Cd	0.6906	0.13635	0.12103	0.37
Mof_Ni	Ni	0.69723	0.99967	0.6272	1.061
Mof_Ni	Ni	0.49598	0.7363	0.2336	1.065
Mof_N 	N 	0.7265	0.9221	0.351	-0.073
Mof_N 	N 	0.7106	0.9227	0.9132	-0.076
Mof_N 	N 	0.6302	0.8194	0.12	-0.072
Mof_N 	N 	0.8346	0.8162	0.888	-0.064
Mof_N 	N 	0.8246	0.8117	0.33	-0.114
Mof_N 	N 	0.9307	0.8907	0.153	-0.125
Mof_N 	N 	0.7034	0.0752	0.338	-0.073
Mof_N 	N 	0.6865	0.0816	0.895	-0.078
Mof_N 	N 	0.3537	0.6584	0.36	-0.073
Mof_N 	N 	0.3337	0.7938	0.073	-0.067
Mof_N 	N 	0.6693	0.1929	0.36	-0.113
Mof_N 	N 	0.5225	0.1343	0.1774	-0.124
Mof_C 	C 	0.7137	0.9509	0.457	-0.235
Mof_C 	C 	0.701	0.952	0.804	-0.233
Mof_C 	C 	0.5795	0.7878	0.162	-0.213
Mof_C 	C 	0.9004	0.7972	0.829	-0.22
Mof_C 	C 	0.6996	0.047	0.448	-0.235
Mof_C 	C 	0.6878	0.0507	0.795	-0.226
Mof_C 	C 	0.409	0.6873	0.312	-0.218
Mof_C 	C 	0.3933	0.7714	0.138	-0.216
Mof_C 	C 	0.9294	0.8166	0.336	-0.018
Mof_C 	C 	0.9703	0.8627	0.3	0.034
Mof_C 	C 	0.0814	0.8659	0.312	-0.031
Mof_C 	C 	0.568	0.1961	0.394	-0.019
Mof_C 	C 	0.4998	0.1693	0.314	0.039
Mof_C 	C 	0.3957	0.1749	0.36	-0.022
_end
