data_functionalizedCrystal
_audit_creation_method	'EQeq! by Chris Wilmer'
_symmetry_space_group_name_H-M	'P1'
_symmetry_Int_Tables_number	1
_symmetry_cell_setting	triclinic
loop_
_symmetry_equiv_pos_as_xyz
  x,y,z
_cell_length_a	28.52
_cell_length_b	9.9297
_cell_length_c	30.044
_cell_angle_alpha	90
_cell_angle_beta	116.466
_cell_angle_gamma	90
loop_
_atom_site_label
_atom_site_type_symbol
_atom_site_fract_x
_atom_site_fract_y
_atom_site_fract_z
_atom_site_charge
Mof_C 	C 	0.28334	0.4628	0.40617	0.329
Mof_C 	C 	0.25889	0.4819	0.35141	-0.171
Mof_C 	C 	0.28932	0.5103	0.32739	0.111
Mof_H 	H 	0.3256	0.5125	0.3456	0.004
Mof_C 	C 	0.26711	0.5353	0.27714	-0.225
Mof_H 	H 	0.2884	0.5545	0.2618	0.109
Mof_C 	C 	0.21359	0.5321	0.24944	0.189
Mof_C 	C 	0.18297	0.5001	0.27299	-0.225
Mof_H 	H 	0.1468	0.4952	0.2547	0.11
Mof_C 	C 	0.20576	0.4758	0.3231	0.118
Mof_H 	H 	0.1846	0.4546	0.3383	0.004
Mof_C 	C 	0.28665	0.4363	0.07315	0.371
Mof_C 	C 	0.26388	0.4711	0.10787	-0.188
Mof_C 	C 	0.24531	0.5978	0.109	0.142
Mof_H 	H 	0.2485	0.6648	0.0889	-0.001
Mof_C 	C 	0.22222	0.6276	0.13892	-0.241
Mof_H 	H 	0.2099	0.7143	0.1389	0.125
Mof_C 	C 	0.21702	0.5308	0.169	0.199
Mof_C 	C 	0.23678	0.4031	0.16928	-0.237
Mof_H 	H 	0.2345	0.3371	0.1902	0.117
Mof_C 	C 	0.25956	0.3739	0.13913	0.132
Mof_H 	H 	0.2724	0.2876	0.1394	-0.006
Mof_C 	C 	0.92141	0.9506	0.09156	0.135
Mof_H 	H 	0.9036	0.9861	0.1084	-0.026
Mof_C 	C 	0.96854	0.8894	0.11945	-0.222
Mof_H 	H 	0.981	0.882	0.1537	0.109
Mof_C 	C 	0.99707	0.8395	0.09704	0.161
Mof_C 	C 	0.97512	0.8544	0.0465	-0.209
Mof_H 	H 	0.9925	0.8221	0.0289	0.103
Mof_C 	C 	0.9272	0.9174	0.02155	0.112
Mof_H 	H 	0.9138	0.9279	0.9873	-0.017
Mof_C 	C 	0.04752	0.7686	0.1249	-0.113
Mof_C 	C 	0.06122	0.665	0.10218	0.066
Mof_H 	H 	0.0386	0.6418	0.0696	0.002
Mof_C 	C 	0.10787	0.5951	0.1269	-0.188
Mof_H 	H 	0.1159	0.5242	0.1112	0.099
Mof_C 	C 	0.14249	0.631	0.17495	0.171
Mof_C 	C 	0.12938	0.7335	0.19777	-0.196
Mof_H 	H 	0.1521	0.7581	0.2302	0.1
Mof_C 	C 	0.08236	0.8001	0.17252	0.074
Mof_H 	H 	0.0741	0.8694	0.1886	0.002
Mof_C 	C 	0.33487	0.1782	0.5384	0.082
Mof_H 	H 	0.3136	0.1946	0.554	0.013
Mof_C 	C 	0.37631	0.2012	0.49519	0.008
Mof_H 	H 	0.3895	0.2383	0.4746	0.024
Mof_C 	C 	0.38649	0.0766	0.51421	-0.015
Mof_H 	H 	0.4076	0.0126	0.5094	0.035
Mof_C 	C 	0.36255	0.9496	0.57323	-0.192
Mof_H 	H 	0.3667	0.8687	0.5572	0.094
Mof_H 	H 	0.3288	0.9431	0.5737	0.11
Mof_C 	C 	0.40295	0.9472	0.62487	0.152
Mof_C 	C 	0.4007	0.8683	0.65807	-0.164
Mof_H 	H 	0.3723	0.8103	0.6486	0.097
Mof_C 	C 	0.4387	0.8662	0.70712	0.003
Mof_H 	H 	0.4344	0.8076	0.7292	0.028
Mof_C 	C 	0.48024	0.9427	0.72364	-0.003
Mof_C 	C 	0.4917	0.9882	0.6866	-0.104
Mof_H 	H 	0.5257	0.0143	0.6941	0.063
Mof_C 	C 	0.4534	0.9955	0.6386	-0.001
Mof_H 	H 	0.4613	0.0338	0.6145	0.035
Mof_Co	Co	0.32232	0.46816	0.49798	1.142
Mof_N 	N 	0.3436	0.2661	0.51052	-0.23
Mof_N 	N 	0.35999	0.062	0.54189	-0.095
Mof_N 	N 	0.8994	0.9631	0.04316	-0.268
Mof_N 	N 	0.19058	0.5618	0.19829	-0.201
Mof_O 	O 	0.33198	0.4684	0.43055	-0.4
Mof_O 	O 	0.25431	0.445	0.42734	-0.396
Mof_O 	O 	0.29513	0.315	0.06827	-0.312
Mof_O 	O 	0.29621	0.5335	0.05103	-0.438
Mof_C 	C 	0.4662	0.0709	0.6945	0.065
Mof_H 	H 	0.485	0.1493	0.7081	0.003
Mof_C 	C 	0.4251	0.0716	0.6473	-0.164
Mof_H 	H 	0.4122	0.1523	0.6305	0.093
Mof_C 	C 	0.78334	0.9628	0.40617	0.329
Mof_C 	C 	0.75889	0.9819	0.35141	-0.169
Mof_C 	C 	0.78932	0.0103	0.32739	0.112
Mof_H 	H 	0.8256	0.0125	0.3456	0.005
Mof_C 	C 	0.76711	0.0353	0.27714	-0.222
Mof_H 	H 	0.7884	0.0545	0.2618	0.11
Mof_C 	C 	0.71359	0.0321	0.24944	0.189
Mof_C 	C 	0.68297	0.0001	0.27299	-0.219
Mof_H 	H 	0.6468	0.9952	0.2547	0.108
Mof_C 	C 	0.70576	0.9758	0.3231	0.115
Mof_H 	H 	0.6846	0.9546	0.3383	0.005
Mof_C 	C 	0.78665	0.9363	0.07315	0.371
Mof_C 	C 	0.76388	0.9711	0.10787	-0.189
Mof_C 	C 	0.74531	0.0978	0.109	0.143
Mof_H 	H 	0.7485	0.1648	0.0889	-0.002
Mof_C 	C 	0.72222	0.1276	0.13892	-0.242
Mof_H 	H 	0.7099	0.2143	0.1389	0.126
Mof_C 	C 	0.71702	0.0308	0.169	0.2
Mof_C 	C 	0.73678	0.9031	0.16928	-0.239
Mof_H 	H 	0.7345	0.8371	0.1902	0.117
Mof_C 	C 	0.75956	0.8739	0.13913	0.133
Mof_H 	H 	0.7724	0.7876	0.1394	-0.006
Mof_C 	C 	0.42141	0.4506	0.09156	0.135
Mof_H 	H 	0.4036	0.4861	0.1084	-0.026
Mof_C 	C 	0.46854	0.3894	0.11945	-0.221
Mof_H 	H 	0.481	0.382	0.1537	0.108
Mof_C 	C 	0.49707	0.3395	0.09704	0.16
Mof_C 	C 	0.47512	0.3544	0.0465	-0.208
Mof_H 	H 	0.4925	0.3221	0.0289	0.103
Mof_C 	C 	0.4272	0.4174	0.02155	0.111
Mof_H 	H 	0.4138	0.4279	0.9873	-0.017
Mof_C 	C 	0.54752	0.2686	0.1249	-0.111
Mof_C 	C 	0.56122	0.165	0.10218	0.066
Mof_H 	H 	0.5386	0.1418	0.0696	0.003
Mof_C 	C 	0.60787	0.0951	0.1269	-0.187
Mof_H 	H 	0.6159	0.0242	0.1112	0.099
Mof_C 	C 	0.64249	0.131	0.17495	0.17
Mof_C 	C 	0.62938	0.2335	0.19777	-0.195
Mof_H 	H 	0.6521	0.2581	0.2302	0.1
Mof_C 	C 	0.58236	0.3001	0.17252	0.073
Mof_H 	H 	0.5741	0.3694	0.1886	0.002
Mof_C 	C 	0.83487	0.6782	0.5384	0.082
Mof_H 	H 	0.8136	0.6946	0.554	0.013
Mof_C 	C 	0.87631	0.7012	0.49519	0.008
Mof_H 	H 	0.8895	0.7383	0.4746	0.024
Mof_C 	C 	0.88649	0.5766	0.51421	-0.016
Mof_H 	H 	0.9076	0.5126	0.5094	0.035
Mof_C 	C 	0.86255	0.4496	0.57323	-0.2
Mof_H 	H 	0.8667	0.3687	0.5572	0.097
Mof_H 	H 	0.8288	0.4431	0.5737	0.112
Mof_C 	C 	0.90295	0.4472	0.62487	0.163
Mof_C 	C 	0.9007	0.3683	0.65807	-0.179
Mof_H 	H 	0.8723	0.3103	0.6486	0.102
Mof_C 	C 	0.9387	0.3662	0.70712	0.02
Mof_H 	H 	0.9344	0.3076	0.7292	0.022
Mof_C 	C 	0.98024	0.4427	0.72364	-0.023
Mof_C 	C 	0.9917	0.4882	0.6866	-0.07
Mof_H 	H 	0.0257	0.5143	0.6941	0.052
Mof_C 	C 	0.9534	0.4955	0.6386	-0.037
Mof_H 	H 	0.9613	0.5338	0.6145	0.047
Mof_Co	Co	0.82232	0.96816	0.49798	1.142
Mof_N 	N 	0.8436	0.7661	0.51052	-0.23
Mof_N 	N 	0.85999	0.562	0.54189	-0.094
Mof_N 	N 	0.3994	0.4631	0.04316	-0.268
Mof_N 	N 	0.69058	0.0618	0.19829	-0.2
Mof_O 	O 	0.83198	0.9684	0.43055	-0.4
Mof_O 	O 	0.75431	0.945	0.42734	-0.396
Mof_O 	O 	0.79513	0.815	0.06827	-0.312
Mof_O 	O 	0.79621	0.0335	0.05103	-0.437
Mof_C 	C 	0.9662	0.5709	0.6945	0.046
Mof_H 	H 	0.985	0.6493	0.7081	0.009
Mof_C 	C 	0.9251	0.5716	0.6473	-0.139
Mof_H 	H 	0.9122	0.6523	0.6305	0.084
Mof_C 	C 	0.71666	0.4628	0.09383	0.33
Mof_C 	C 	0.74111	0.4819	0.14859	-0.17
Mof_C 	C 	0.71068	0.5103	0.17261	0.112
Mof_H 	H 	0.6744	0.5125	0.1544	0.005
Mof_C 	C 	0.73289	0.5353	0.22286	-0.223
Mof_H 	H 	0.7116	0.5545	0.2382	0.11
Mof_C 	C 	0.78641	0.5321	0.25056	0.19
Mof_C 	C 	0.81703	0.5001	0.22701	-0.224
Mof_H 	H 	0.8532	0.4952	0.2453	0.111
Mof_C 	C 	0.79424	0.4758	0.1769	0.118
Mof_H 	H 	0.8154	0.4546	0.1617	0.004
Mof_C 	C 	0.71335	0.4363	0.42685	0.371
Mof_C 	C 	0.73612	0.4711	0.39213	-0.188
Mof_C 	C 	0.75469	0.5978	0.391	0.142
Mof_H 	H 	0.7515	0.6648	0.4111	-0.001
Mof_C 	C 	0.77778	0.6276	0.36108	-0.241
Mof_H 	H 	0.7901	0.7143	0.3611	0.125
Mof_C 	C 	0.78298	0.5308	0.331	0.199
Mof_C 	C 	0.76322	0.4031	0.33072	-0.237
Mof_H 	H 	0.7655	0.3371	0.3098	0.117
Mof_C 	C 	0.74044	0.3739	0.36087	0.132
Mof_H 	H 	0.7276	0.2876	0.3606	-0.006
Mof_C 	C 	0.07859	0.9506	0.40844	0.134
Mof_H 	H 	0.0964	0.9861	0.3916	-0.025
Mof_C 	C 	0.03146	0.8894	0.38055	-0.221
Mof_H 	H 	0.019	0.882	0.3463	0.108
Mof_C 	C 	0.00293	0.8395	0.40296	0.159
Mof_C 	C 	0.02488	0.8544	0.4535	-0.208
Mof_H 	H 	0.0075	0.8221	0.4711	0.102
Mof_C 	C 	0.0728	0.9174	0.47845	0.111
Mof_H 	H 	0.0862	0.9279	0.5127	-0.016
Mof_C 	C 	0.95248	0.7686	0.3751	-0.111
Mof_C 	C 	0.93878	0.665	0.39782	0.065
Mof_H 	H 	0.9614	0.6418	0.4304	0.003
Mof_C 	C 	0.89213	0.5951	0.3731	-0.187
Mof_H 	H 	0.8841	0.5242	0.3888	0.098
Mof_C 	C 	0.85751	0.631	0.32505	0.17
Mof_C 	C 	0.87062	0.7335	0.30223	-0.195
Mof_H 	H 	0.8479	0.7581	0.2698	0.1
Mof_C 	C 	0.91764	0.8001	0.32748	0.072
Mof_H 	H 	0.9259	0.8694	0.3114	0.002
Mof_C 	C 	0.66513	0.1782	0.9616	0.082
Mof_H 	H 	0.6864	0.1946	0.946	0.013
Mof_C 	C 	0.62369	0.2012	0.00481	0.011
Mof_H 	H 	0.6105	0.2383	0.0254	0.023
Mof_C 	C 	0.61351	0.0766	0.98579	-0.017
Mof_H 	H 	0.5924	0.0126	0.9906	0.035
Mof_C 	C 	0.63745	0.9496	0.92677	-0.196
Mof_H 	H 	0.6333	0.8687	0.9428	0.096
Mof_H 	H 	0.6712	0.9431	0.9263	0.111
Mof_C 	C 	0.59705	0.9472	0.87513	0.159
Mof_C 	C 	0.5993	0.8683	0.84193	-0.173
Mof_H 	H 	0.6277	0.8103	0.8514	0.1
Mof_C 	C 	0.5613	0.8662	0.79288	0.014
Mof_H 	H 	0.5656	0.8076	0.7708	0.025
Mof_C 	C 	0.51976	0.9427	0.77636	-0.015
Mof_C 	C 	0.5083	0.9882	0.8134	-0.077
Mof_H 	H 	0.4743	0.0143	0.8059	0.054
Mof_C 	C 	0.5466	0.9955	0.8614	-0.023
Mof_H 	H 	0.5387	0.0338	0.8855	0.042
Mof_Co	Co	0.67768	0.46816	0.00202	1.142
Mof_N 	N 	0.6564	0.2661	0.98948	-0.23
Mof_N 	N 	0.64001	0.062	0.95811	-0.095
Mof_N 	N 	0.1006	0.9631	0.45684	-0.268
Mof_N 	N 	0.80942	0.5618	0.30171	-0.201
Mof_O 	O 	0.66802	0.4684	0.06945	-0.4
Mof_O 	O 	0.74569	0.445	0.07266	-0.396
Mof_O 	O 	0.70487	0.315	0.43173	-0.312
Mof_O 	O 	0.70379	0.5335	0.44897	-0.438
Mof_C 	C 	0.5338	0.0709	0.8055	0.049
Mof_H 	H 	0.515	0.1493	0.7919	0.008
Mof_C 	C 	0.5749	0.0716	0.8527	-0.148
Mof_H 	H 	0.5878	0.1523	0.8695	0.087
Mof_C 	C 	0.21666	0.9628	0.09383	0.33
Mof_C 	C 	0.24111	0.9819	0.14859	-0.169
Mof_C 	C 	0.21068	0.0103	0.17261	0.112
Mof_H 	H 	0.1744	0.0125	0.1544	0.005
Mof_C 	C 	0.23289	0.0353	0.22286	-0.222
Mof_H 	H 	0.2116	0.0545	0.2382	0.11
Mof_C 	C 	0.28641	0.0321	0.25056	0.189
Mof_C 	C 	0.31703	0.0001	0.22701	-0.219
Mof_H 	H 	0.3532	0.9952	0.2453	0.108
Mof_C 	C 	0.29424	0.9758	0.1769	0.115
Mof_H 	H 	0.3154	0.9546	0.1617	0.005
Mof_C 	C 	0.21335	0.9363	0.42685	0.371
Mof_C 	C 	0.23612	0.9711	0.39213	-0.188
Mof_C 	C 	0.25469	0.0978	0.391	0.141
Mof_H 	H 	0.2515	0.1648	0.4111	-0.001
Mof_C 	C 	0.27778	0.1276	0.36108	-0.241
Mof_H 	H 	0.2901	0.2143	0.3611	0.125
Mof_C 	C 	0.28298	0.0308	0.331	0.199
Mof_C 	C 	0.26322	0.9031	0.33072	-0.238
Mof_H 	H 	0.2655	0.8371	0.3098	0.117
Mof_C 	C 	0.24044	0.8739	0.36087	0.132
Mof_H 	H 	0.2276	0.7876	0.3606	-0.006
Mof_C 	C 	0.57859	0.4506	0.40844	0.135
Mof_H 	H 	0.5964	0.4861	0.3916	-0.026
Mof_C 	C 	0.53146	0.3894	0.38055	-0.221
Mof_H 	H 	0.519	0.382	0.3463	0.108
Mof_C 	C 	0.50293	0.3395	0.40296	0.16
Mof_C 	C 	0.52488	0.3544	0.4535	-0.208
Mof_H 	H 	0.5075	0.3221	0.4711	0.103
Mof_C 	C 	0.5728	0.4174	0.47845	0.111
Mof_H 	H 	0.5862	0.4279	0.5127	-0.017
Mof_C 	C 	0.45248	0.2686	0.3751	-0.111
Mof_C 	C 	0.43878	0.165	0.39782	0.066
Mof_H 	H 	0.4614	0.1418	0.4304	0.003
Mof_C 	C 	0.39213	0.0951	0.3731	-0.187
Mof_H 	H 	0.3841	0.0242	0.3888	0.098
Mof_C 	C 	0.35751	0.131	0.32505	0.17
Mof_C 	C 	0.37062	0.2335	0.30223	-0.195
Mof_H 	H 	0.3479	0.2581	0.2698	0.1
Mof_C 	C 	0.41764	0.3001	0.32748	0.073
Mof_H 	H 	0.4259	0.3694	0.3114	0.002
Mof_C 	C 	0.16513	0.6782	0.9616	0.082
Mof_H 	H 	0.1864	0.6946	0.946	0.013
Mof_C 	C 	0.12369	0.7012	0.00481	0.005
Mof_H 	H 	0.1105	0.7383	0.0254	0.025
Mof_C 	C 	0.11351	0.5766	0.98579	-0.013
Mof_H 	H 	0.0924	0.5126	0.9906	0.035
Mof_C 	C 	0.13745	0.4496	0.92677	-0.19
Mof_H 	H 	0.1333	0.3687	0.9428	0.094
Mof_H 	H 	0.1712	0.4431	0.9263	0.11
Mof_C 	C 	0.09705	0.4472	0.87513	0.148
Mof_C 	C 	0.0993	0.3683	0.84193	-0.158
Mof_H 	H 	0.1277	0.3103	0.8514	0.095
Mof_C 	C 	0.0613	0.3662	0.79288	-0.004
Mof_H 	H 	0.0656	0.3076	0.7708	0.031
Mof_C 	C 	0.01976	0.4427	0.77636	0.005
Mof_C 	C 	0.0083	0.4882	0.8134	-0.126
Mof_H 	H 	0.9743	0.5143	0.8059	0.071
Mof_C 	C 	0.0466	0.4955	0.8614	0.014
Mof_H 	H 	0.0387	0.5338	0.8855	0.03
Mof_Co	Co	0.17768	0.96816	0.00202	1.141
Mof_N 	N 	0.1564	0.7661	0.98948	-0.229
Mof_N 	N 	0.14001	0.562	0.95811	-0.096
Mof_N 	N 	0.6006	0.4631	0.45684	-0.268
Mof_N 	N 	0.30942	0.0618	0.30171	-0.2
Mof_O 	O 	0.16802	0.9684	0.06945	-0.401
Mof_O 	O 	0.24569	0.945	0.07266	-0.397
Mof_O 	O 	0.20487	0.815	0.43173	-0.312
Mof_O 	O 	0.20379	0.0335	0.44897	-0.438
Mof_C 	C 	0.0338	0.5709	0.8055	0.081
Mof_H 	H 	0.015	0.6493	0.7919	-0.002
Mof_C 	C 	0.0749	0.5716	0.8527	-0.176
Mof_H 	H 	0.0878	0.6523	0.8695	0.097
Mof_C 	C 	0.71666	0.5372	0.59383	0.33
Mof_C 	C 	0.74111	0.5181	0.64859	-0.17
Mof_C 	C 	0.71068	0.4897	0.67261	0.112
Mof_H 	H 	0.6744	0.4875	0.6544	0.005
Mof_C 	C 	0.73289	0.4647	0.72286	-0.224
Mof_H 	H 	0.7116	0.4455	0.7382	0.11
Mof_C 	C 	0.78641	0.4679	0.75056	0.19
Mof_C 	C 	0.81703	0.4999	0.72701	-0.224
Mof_H 	H 	0.8532	0.5048	0.7453	0.111
Mof_C 	C 	0.79424	0.5242	0.6769	0.119
Mof_H 	H 	0.8154	0.5454	0.6617	0.004
Mof_C 	C 	0.71335	0.5637	0.92685	0.371
Mof_C 	C 	0.73612	0.5289	0.89213	-0.188
Mof_C 	C 	0.75469	0.4022	0.891	0.142
Mof_H 	H 	0.7515	0.3352	0.9111	-0.001
Mof_C 	C 	0.77778	0.3724	0.86108	-0.241
Mof_H 	H 	0.7901	0.2857	0.8611	0.125
Mof_C 	C 	0.78298	0.4692	0.831	0.199
Mof_C 	C 	0.76322	0.5969	0.83072	-0.237
Mof_H 	H 	0.7655	0.6629	0.8098	0.117
Mof_C 	C 	0.74044	0.6261	0.86087	0.132
Mof_H 	H 	0.7276	0.7124	0.8606	-0.006
Mof_C 	C 	0.07859	0.0494	0.90844	0.135
Mof_H 	H 	0.0964	0.0139	0.8916	-0.026
Mof_C 	C 	0.03146	0.1106	0.88055	-0.222
Mof_H 	H 	0.019	0.118	0.8463	0.109
Mof_C 	C 	0.00293	0.1605	0.90296	0.161
Mof_C 	C 	0.02488	0.1456	0.9535	-0.209
Mof_H 	H 	0.0075	0.1779	0.9711	0.103
Mof_C 	C 	0.0728	0.0826	0.97845	0.112
Mof_H 	H 	0.0862	0.0721	0.0127	-0.017
Mof_C 	C 	0.95248	0.2314	0.8751	-0.113
Mof_C 	C 	0.93878	0.335	0.89782	0.066
Mof_H 	H 	0.9614	0.3582	0.9304	0.002
Mof_C 	C 	0.89213	0.4049	0.8731	-0.188
Mof_H 	H 	0.8841	0.4758	0.8888	0.099
Mof_C 	C 	0.85751	0.369	0.82505	0.171
Mof_C 	C 	0.87062	0.2665	0.80223	-0.196
Mof_H 	H 	0.8479	0.2419	0.7698	0.1
Mof_C 	C 	0.91764	0.1999	0.82748	0.074
Mof_H 	H 	0.9259	0.1306	0.8114	0.002
Mof_C 	C 	0.66513	0.8218	0.4616	0.082
Mof_H 	H 	0.6864	0.8054	0.446	0.013
Mof_C 	C 	0.62369	0.7988	0.50481	0.008
Mof_H 	H 	0.6105	0.7617	0.5254	0.024
Mof_C 	C 	0.61351	0.9234	0.48579	-0.015
Mof_H 	H 	0.5924	0.9874	0.4906	0.035
Mof_C 	C 	0.63745	0.0504	0.42677	-0.192
Mof_H 	H 	0.6333	0.1313	0.4428	0.094
Mof_H 	H 	0.6712	0.0569	0.4263	0.11
Mof_C 	C 	0.59705	0.0528	0.37513	0.152
Mof_C 	C 	0.5993	0.1317	0.34193	-0.164
Mof_H 	H 	0.6277	0.1897	0.3514	0.097
Mof_C 	C 	0.5613	0.1338	0.29288	0.003
Mof_H 	H 	0.5656	0.1924	0.2708	0.028
Mof_C 	C 	0.51976	0.0573	0.27636	-0.003
Mof_C 	C 	0.5083	0.0118	0.3134	-0.104
Mof_H 	H 	0.4743	0.9857	0.3059	0.063
Mof_C 	C 	0.5466	0.0045	0.3614	-0.001
Mof_H 	H 	0.5387	0.9662	0.3855	0.035
Mof_Co	Co	0.67768	0.53184	0.50202	1.142
Mof_N 	N 	0.6564	0.7339	0.48948	-0.23
Mof_N 	N 	0.64001	0.938	0.45811	-0.095
Mof_N 	N 	0.1006	0.0369	0.95684	-0.268
Mof_N 	N 	0.80942	0.4382	0.80171	-0.201
Mof_O 	O 	0.66802	0.5316	0.56945	-0.4
Mof_O 	O 	0.74569	0.555	0.57266	-0.396
Mof_O 	O 	0.70487	0.685	0.93173	-0.312
Mof_O 	O 	0.70379	0.4665	0.94897	-0.438
Mof_C 	C 	0.5338	0.9291	0.3055	0.065
Mof_H 	H 	0.515	0.8507	0.2919	0.003
Mof_C 	C 	0.5749	0.9284	0.3527	-0.164
Mof_H 	H 	0.5878	0.8477	0.3695	0.093
Mof_C 	C 	0.21666	0.0372	0.59383	0.329
Mof_C 	C 	0.24111	0.0181	0.64859	-0.169
Mof_C 	C 	0.21068	0.9897	0.67261	0.112
Mof_H 	H 	0.1744	0.9875	0.6544	0.005
Mof_C 	C 	0.23289	0.9647	0.72286	-0.222
Mof_H 	H 	0.2116	0.9455	0.7382	0.11
Mof_C 	C 	0.28641	0.9679	0.75056	0.189
Mof_C 	C 	0.31703	0.9999	0.72701	-0.219
Mof_H 	H 	0.3532	0.0048	0.7453	0.108
Mof_C 	C 	0.29424	0.0242	0.6769	0.115
Mof_H 	H 	0.3154	0.0454	0.6617	0.005
Mof_C 	C 	0.21335	0.0637	0.92685	0.371
Mof_C 	C 	0.23612	0.0289	0.89213	-0.189
Mof_C 	C 	0.25469	0.9022	0.891	0.143
Mof_H 	H 	0.2515	0.8352	0.9111	-0.002
Mof_C 	C 	0.27778	0.8724	0.86108	-0.242
Mof_H 	H 	0.2901	0.7857	0.8611	0.126
Mof_C 	C 	0.28298	0.9692	0.831	0.2
Mof_C 	C 	0.26322	0.0969	0.83072	-0.239
Mof_H 	H 	0.2655	0.1629	0.8098	0.117
Mof_C 	C 	0.24044	0.1261	0.86087	0.133
Mof_H 	H 	0.2276	0.2124	0.8606	-0.006
Mof_C 	C 	0.57859	0.5494	0.90844	0.135
Mof_H 	H 	0.5964	0.5139	0.8916	-0.026
Mof_C 	C 	0.53146	0.6106	0.88055	-0.221
Mof_H 	H 	0.519	0.618	0.8463	0.108
Mof_C 	C 	0.50293	0.6605	0.90296	0.16
Mof_C 	C 	0.52488	0.6456	0.9535	-0.208
Mof_H 	H 	0.5075	0.6779	0.9711	0.103
Mof_C 	C 	0.5728	0.5826	0.97845	0.111
Mof_H 	H 	0.5862	0.5721	0.0127	-0.017
Mof_C 	C 	0.45248	0.7314	0.8751	-0.111
Mof_C 	C 	0.43878	0.835	0.89782	0.066
Mof_H 	H 	0.4614	0.8582	0.9304	0.003
Mof_C 	C 	0.39213	0.9049	0.8731	-0.187
Mof_H 	H 	0.3841	0.9758	0.8888	0.099
Mof_C 	C 	0.35751	0.869	0.82505	0.17
Mof_C 	C 	0.37062	0.7665	0.80223	-0.195
Mof_H 	H 	0.3479	0.7419	0.7698	0.1
Mof_C 	C 	0.41764	0.6999	0.82748	0.073
Mof_H 	H 	0.4259	0.6306	0.8114	0.002
Mof_C 	C 	0.16513	0.3218	0.4616	0.082
Mof_H 	H 	0.1864	0.3054	0.446	0.013
Mof_C 	C 	0.12369	0.2988	0.50481	0.008
Mof_H 	H 	0.1105	0.2617	0.5254	0.024
Mof_C 	C 	0.11351	0.4234	0.48579	-0.016
Mof_H 	H 	0.0924	0.4874	0.4906	0.035
Mof_C 	C 	0.13745	0.5504	0.42677	-0.2
Mof_H 	H 	0.1333	0.6313	0.4428	0.097
Mof_H 	H 	0.1712	0.5569	0.4263	0.112
Mof_C 	C 	0.09705	0.5528	0.37513	0.163
Mof_C 	C 	0.0993	0.6317	0.34193	-0.179
Mof_H 	H 	0.1277	0.6897	0.3514	0.102
Mof_C 	C 	0.0613	0.6338	0.29288	0.02
Mof_H 	H 	0.0656	0.6924	0.2708	0.022
Mof_C 	C 	0.01976	0.5573	0.27636	-0.023
Mof_C 	C 	0.0083	0.5118	0.3134	-0.07
Mof_H 	H 	0.9743	0.4857	0.3059	0.052
Mof_C 	C 	0.0466	0.5045	0.3614	-0.037
Mof_H 	H 	0.0387	0.4662	0.3855	0.047
Mof_Co	Co	0.17768	0.03184	0.50202	1.142
Mof_N 	N 	0.1564	0.2339	0.48948	-0.23
Mof_N 	N 	0.14001	0.438	0.45811	-0.094
Mof_N 	N 	0.6006	0.5369	0.95684	-0.268
Mof_N 	N 	0.30942	0.9382	0.80171	-0.2
Mof_O 	O 	0.16802	0.0316	0.56945	-0.4
Mof_O 	O 	0.24569	0.055	0.57266	-0.396
Mof_O 	O 	0.20487	0.185	0.93173	-0.312
Mof_O 	O 	0.20379	0.9665	0.94897	-0.437
Mof_C 	C 	0.0338	0.4291	0.3055	0.046
Mof_H 	H 	0.015	0.3507	0.2919	0.009
Mof_C 	C 	0.0749	0.4284	0.3527	-0.139
Mof_H 	H 	0.0878	0.3477	0.3695	0.084
Mof_C 	C 	0.28334	0.5372	0.90617	0.33
Mof_C 	C 	0.25889	0.5181	0.85141	-0.17
Mof_C 	C 	0.28932	0.4897	0.82739	0.112
Mof_H 	H 	0.3256	0.4875	0.8456	0.005
Mof_C 	C 	0.26711	0.4647	0.77714	-0.223
Mof_H 	H 	0.2884	0.4455	0.7618	0.11
Mof_C 	C 	0.21359	0.4679	0.74944	0.19
Mof_C 	C 	0.18297	0.4999	0.77299	-0.224
Mof_H 	H 	0.1468	0.5048	0.7547	0.111
Mof_C 	C 	0.20576	0.5242	0.8231	0.118
Mof_H 	H 	0.1846	0.5454	0.8383	0.004
Mof_C 	C 	0.28665	0.5637	0.57315	0.371
Mof_C 	C 	0.26388	0.5289	0.60787	-0.188
Mof_C 	C 	0.24531	0.4022	0.609	0.142
Mof_H 	H 	0.2485	0.3352	0.5889	-0.001
Mof_C 	C 	0.22222	0.3724	0.63892	-0.241
Mof_H 	H 	0.2099	0.2857	0.6389	0.125
Mof_C 	C 	0.21702	0.4692	0.669	0.199
Mof_C 	C 	0.23678	0.5969	0.66928	-0.237
Mof_H 	H 	0.2345	0.6629	0.6902	0.117
Mof_C 	C 	0.25956	0.6261	0.63913	0.132
Mof_H 	H 	0.2724	0.7124	0.6394	-0.006
Mof_C 	C 	0.92141	0.0494	0.59156	0.134
Mof_H 	H 	0.9036	0.0139	0.6084	-0.025
Mof_C 	C 	0.96854	0.1106	0.61945	-0.221
Mof_H 	H 	0.981	0.118	0.6537	0.108
Mof_C 	C 	0.99707	0.1605	0.59704	0.159
Mof_C 	C 	0.97512	0.1456	0.5465	-0.208
Mof_H 	H 	0.9925	0.1779	0.5289	0.102
Mof_C 	C 	0.9272	0.0826	0.52155	0.111
Mof_H 	H 	0.9138	0.0721	0.4873	-0.016
Mof_C 	C 	0.04752	0.2314	0.6249	-0.111
Mof_C 	C 	0.06122	0.335	0.60218	0.065
Mof_H 	H 	0.0386	0.3582	0.5696	0.003
Mof_C 	C 	0.10787	0.4049	0.6269	-0.187
Mof_H 	H 	0.1159	0.4758	0.6112	0.098
Mof_C 	C 	0.14249	0.369	0.67495	0.17
Mof_C 	C 	0.12938	0.2665	0.69777	-0.195
Mof_H 	H 	0.1521	0.2419	0.7302	0.1
Mof_C 	C 	0.08236	0.1999	0.67252	0.072
Mof_H 	H 	0.0741	0.1306	0.6886	0.002
Mof_C 	C 	0.33487	0.8218	0.0384	0.082
Mof_H 	H 	0.3136	0.8054	0.054	0.013
Mof_C 	C 	0.37631	0.7988	0.99519	0.011
Mof_H 	H 	0.3895	0.7617	0.9746	0.023
Mof_C 	C 	0.38649	0.9234	0.01421	-0.017
Mof_H 	H 	0.4076	0.9874	0.0094	0.035
Mof_C 	C 	0.36255	0.0504	0.07323	-0.196
Mof_H 	H 	0.3667	0.1313	0.0572	0.096
Mof_H 	H 	0.3288	0.0569	0.0737	0.111
Mof_C 	C 	0.40295	0.0528	0.12487	0.159
Mof_C 	C 	0.4007	0.1317	0.15807	-0.173
Mof_H 	H 	0.3723	0.1897	0.1486	0.1
Mof_C 	C 	0.4387	0.1338	0.20712	0.014
Mof_H 	H 	0.4344	0.1924	0.2292	0.025
Mof_C 	C 	0.48024	0.0573	0.22364	-0.015
Mof_C 	C 	0.4917	0.0118	0.1866	-0.077
Mof_H 	H 	0.5257	0.9857	0.1941	0.054
Mof_C 	C 	0.4534	0.0045	0.1386	-0.023
Mof_H 	H 	0.4613	0.9662	0.1145	0.042
Mof_Co	Co	0.32232	0.53184	0.99798	1.142
Mof_N 	N 	0.3436	0.7339	0.01052	-0.23
Mof_N 	N 	0.35999	0.938	0.04189	-0.095
Mof_N 	N 	0.8994	0.0369	0.54316	-0.268
Mof_N 	N 	0.19058	0.4382	0.69829	-0.201
Mof_O 	O 	0.33198	0.5316	0.93055	-0.4
Mof_O 	O 	0.25431	0.555	0.92734	-0.396
Mof_O 	O 	0.29513	0.685	0.56827	-0.312
Mof_O 	O 	0.29621	0.4665	0.55103	-0.438
Mof_C 	C 	0.4662	0.9291	0.1945	0.049
Mof_H 	H 	0.485	0.8507	0.2081	0.008
Mof_C 	C 	0.4251	0.9284	0.1473	-0.148
Mof_H 	H 	0.4122	0.8477	0.1305	0.087
Mof_C 	C 	0.78334	0.0372	0.90617	0.33
Mof_C 	C 	0.75889	0.0181	0.85141	-0.169
Mof_C 	C 	0.78932	0.9897	0.82739	0.112
Mof_H 	H 	0.8256	0.9875	0.8456	0.005
Mof_C 	C 	0.76711	0.9647	0.77714	-0.222
Mof_H 	H 	0.7884	0.9455	0.7618	0.11
Mof_C 	C 	0.71359	0.9679	0.74944	0.189
Mof_C 	C 	0.68297	0.9999	0.77299	-0.219
Mof_H 	H 	0.6468	0.0048	0.7547	0.108
Mof_C 	C 	0.70576	0.0242	0.8231	0.115
Mof_H 	H 	0.6846	0.0454	0.8383	0.005
Mof_C 	C 	0.78665	0.0637	0.57315	0.371
Mof_C 	C 	0.76388	0.0289	0.60787	-0.188
Mof_C 	C 	0.74531	0.9022	0.609	0.141
Mof_H 	H 	0.7485	0.8352	0.5889	-0.001
Mof_C 	C 	0.72222	0.8724	0.63892	-0.241
Mof_H 	H 	0.7099	0.7857	0.6389	0.125
Mof_C 	C 	0.71702	0.9692	0.669	0.199
Mof_C 	C 	0.73678	0.0969	0.66928	-0.238
Mof_H 	H 	0.7345	0.1629	0.6902	0.117
Mof_C 	C 	0.75956	0.1261	0.63913	0.132
Mof_H 	H 	0.7724	0.2124	0.6394	-0.006
Mof_C 	C 	0.42141	0.5494	0.59156	0.135
Mof_H 	H 	0.4036	0.5139	0.6084	-0.026
Mof_C 	C 	0.46854	0.6106	0.61945	-0.221
Mof_H 	H 	0.481	0.618	0.6537	0.108
Mof_C 	C 	0.49707	0.6605	0.59704	0.16
Mof_C 	C 	0.47512	0.6456	0.5465	-0.208
Mof_H 	H 	0.4925	0.6779	0.5289	0.103
Mof_C 	C 	0.4272	0.5826	0.52155	0.111
Mof_H 	H 	0.4138	0.5721	0.4873	-0.017
Mof_C 	C 	0.54752	0.7314	0.6249	-0.111
Mof_C 	C 	0.56122	0.835	0.60218	0.066
Mof_H 	H 	0.5386	0.8582	0.5696	0.003
Mof_C 	C 	0.60787	0.9049	0.6269	-0.187
Mof_H 	H 	0.6159	0.9758	0.6112	0.098
Mof_C 	C 	0.64249	0.869	0.67495	0.17
Mof_C 	C 	0.62938	0.7665	0.69777	-0.195
Mof_H 	H 	0.6521	0.7419	0.7302	0.1
Mof_C 	C 	0.58236	0.6999	0.67252	0.073
Mof_H 	H 	0.5741	0.6306	0.6886	0.002
Mof_C 	C 	0.83487	0.3218	0.0384	0.082
Mof_H 	H 	0.8136	0.3054	0.054	0.013
Mof_C 	C 	0.87631	0.2988	0.99519	0.005
Mof_H 	H 	0.8895	0.2617	0.9746	0.025
Mof_C 	C 	0.88649	0.4234	0.01421	-0.013
Mof_H 	H 	0.9076	0.4874	0.0094	0.035
Mof_C 	C 	0.86255	0.5504	0.07323	-0.19
Mof_H 	H 	0.8667	0.6313	0.0572	0.094
Mof_H 	H 	0.8288	0.5569	0.0737	0.11
Mof_C 	C 	0.90295	0.5528	0.12487	0.148
Mof_C 	C 	0.9007	0.6317	0.15807	-0.158
Mof_H 	H 	0.8723	0.6897	0.1486	0.095
Mof_C 	C 	0.9387	0.6338	0.20712	-0.004
Mof_H 	H 	0.9344	0.6924	0.2292	0.031
Mof_C 	C 	0.98024	0.5573	0.22364	0.005
Mof_C 	C 	0.9917	0.5118	0.1866	-0.126
Mof_H 	H 	0.0257	0.4857	0.1941	0.071
Mof_C 	C 	0.9534	0.5045	0.1386	0.014
Mof_H 	H 	0.9613	0.4662	0.1145	0.03
Mof_Co	Co	0.82232	0.03184	0.99798	1.141
Mof_N 	N 	0.8436	0.2339	0.01052	-0.229
Mof_N 	N 	0.85999	0.438	0.04189	-0.096
Mof_N 	N 	0.3994	0.5369	0.54316	-0.268
Mof_N 	N 	0.69058	0.9382	0.69829	-0.2
Mof_O 	O 	0.83198	0.0316	0.93055	-0.401
Mof_O 	O 	0.75431	0.055	0.92734	-0.397
Mof_O 	O 	0.79513	0.185	0.56827	-0.312
Mof_O 	O 	0.79621	0.9665	0.55103	-0.438
Mof_C 	C 	0.9662	0.4291	0.1945	0.081
Mof_H 	H 	0.985	0.3507	0.2081	-0.002
Mof_C 	C 	0.9251	0.4284	0.1473	-0.176
Mof_H 	H 	0.9122	0.3477	0.1305	0.097
_end
