# CIF file generated by openbabel 3.1.0, see https://openbabel.org
data_I
_chemical_name_common 'image0'
_cell_length_a 8.4136
_cell_length_b 9.2474
_cell_length_c 12.8074
_cell_angle_alpha 90
_cell_angle_beta 105.969
_cell_angle_gamma 90
_space_group_name_H-M_alt 'P 1'
_space_group_name_Hall 'P 1'
loop_
    _symmetry_equiv_pos_as_xyz
    x,y,z
loop_
    _atom_site_label
    _atom_site_type_symbol
    _atom_site_fract_x
    _atom_site_fract_y
    _atom_site_fract_z
    _atom_site_occupancy
    Mn1      Mn       0.25696    0.74836    0.01037    1.000
    N1       N        0.32612    0.79887    0.18829    1.000
    N2       N        0.26914    0.80173    0.26201    1.000
    N3       N        0.21230    0.80815    0.33564    1.000
    N4       N        0.04194    0.62059    0.01788    1.000
    N5       N        0.10713    0.94709    0.97102    1.000
    N6       N        0.48179    0.87458    0.00632    1.000
    N7       N        0.42867    0.55836    0.05509    1.000
    Mn2      Mn       0.74304    0.24836    0.48963    1.000
    N8       N        0.67388    0.29887    0.31171    1.000
    N9       N        0.73086    0.30173    0.23799    1.000
    N10      N        0.78770    0.30815    0.16436    1.000
    N11      N        0.95806    0.12059    0.48212    1.000
    N12      N        0.89287    0.44709    0.52898    1.000
    N13      N        0.51821    0.37458    0.49368    1.000
    N14      N        0.57133    0.05836    0.44491    1.000
    Mn3      Mn       0.74304    0.25164    0.98963    1.000
    N15      N        0.67388    0.20113    0.81171    1.000
    N16      N        0.73086    0.19827    0.73799    1.000
    N17      N        0.78770    0.19185    0.66436    1.000
    N18      N        0.95806    0.37941    0.98212    1.000
    N19      N        0.89287    0.05291    0.02898    1.000
    N20      N        0.51821    0.12542    0.99368    1.000
    N21      N        0.57133    0.44164    0.94491    1.000
    Mn4      Mn       0.25696    0.75164    0.51037    1.000
    N22      N        0.32612    0.70113    0.68829    1.000
    N23      N        0.26914    0.69827    0.76201    1.000
    N24      N        0.21230    0.69185    0.83564    1.000
    N25      N        0.04194    0.87941    0.51788    1.000
    N26      N        0.10713    0.55291    0.47102    1.000
    N27      N        0.48179    0.62542    0.50632    1.000
    N28      N        0.42867    0.94164    0.55509    1.000
    N29      N        0.00000    0.50000    0.00000    1.000
    N30      N        0.00000    0.00000    0.50000    1.000
    N31      N        0.00000    0.00000    0.00000    1.000
    N32      N        0.00000    0.50000    0.50000    1.000
    N33      N        0.50000    0.00000    0.00000    1.000
    N34      N        0.50000    0.50000    0.50000    1.000
    N35      N        0.50000    0.50000    0.00000    1.000
    N36      N        0.50000    0.00000    0.50000    1.000
