# CIF file generated by openbabel 3.1.0, see https://openbabel.org
data_I
_chemical_name_common 'DIBXAP_clean'
_cell_length_a 10.639
_cell_length_b 10.6982
_cell_length_c 11.9375
_cell_angle_alpha 70.078
_cell_angle_beta 77.61
_cell_angle_gamma 60.7997
_space_group_name_H-M_alt 'P 1'
_space_group_name_Hall 'P 1'
loop_
    _symmetry_equiv_pos_as_xyz
    x,y,z
loop_
    _atom_site_label
    _atom_site_type_symbol
    _atom_site_fract_x
    _atom_site_fract_y
    _atom_site_fract_z
    _atom_site_occupancy
    Ho1      Ho       0.54876    0.99808    0.16083    1.000
    Ho2      Ho       0.45124    0.00192    0.83917    1.000
    Cu1      Cu       0.00000    0.00000    0.00000    1.000
    Cu2      Cu       0.00000    0.00000    0.50000    1.000
    H1       H        0.00960    0.27300    0.51400    1.000
    H2       H        0.91220    0.52470    0.42830    1.000
    H3       H        0.68680    0.47990    0.23100    1.000
    H4       H        0.78340    0.23070    0.32780    1.000
    H5       H        0.99710    0.72130    0.17870    1.000
    H6       H        0.13180    0.46610    0.22070    1.000
    H7       H        0.39420    0.52970    0.93560    1.000
    H8       H        0.25340    0.77790    0.90020    1.000
    H9       H        0.99040    0.72700    0.48600    1.000
    H10      H        0.08780    0.47530    0.57170    1.000
    H11      H        0.31320    0.52010    0.76900    1.000
    H12      H        0.21660    0.76930    0.67220    1.000
    H13      H        0.00290    0.27870    0.82130    1.000
    H14      H        0.86820    0.53390    0.77930    1.000
    H15      H        0.60580    0.47030    0.06440    1.000
    H16      H        0.74660    0.22210    0.09980    1.000
    C1       C        0.17750    0.97800    0.28190    1.000
    C2       C        0.17170    0.98870    0.16430    1.000
    C3       C        0.28440    0.96480    0.35710    1.000
    C4       C        0.26490    0.00280    0.05390    1.000
    C5       C        0.94290    0.31540    0.45640    1.000
    C6       C        0.88610    0.46660    0.40470    1.000
    C7       C        0.78990    0.53060    0.31730    1.000
    C8       C        0.75230    0.44020    0.28900    1.000
    C9       C        0.81180    0.29020    0.34700    1.000
    C10      C        0.72080    0.69690    0.25580    1.000
    C11      C        0.07790    0.68150    0.12930    1.000
    C12      C        0.15830    0.52810    0.15520    1.000
    C13      C        0.27940    0.46820    0.08140    1.000
    C14      C        0.31330    0.56590    0.98610    1.000
    C15      C        0.22900    0.71440    0.96580    1.000
    C16      C        0.37080    0.30320    0.10710    1.000
    C17      C        0.82250    0.02200    0.71810    1.000
    C18      C        0.82830    0.01130    0.83570    1.000
    C19      C        0.71560    0.03520    0.64290    1.000
    C20      C        0.73510    0.99720    0.94610    1.000
    C21      C        0.05710    0.68460    0.54360    1.000
    C22      C        0.11390    0.53340    0.59530    1.000
    C23      C        0.21010    0.46940    0.68270    1.000
    C24      C        0.24770    0.55980    0.71100    1.000
    C25      C        0.18820    0.70980    0.65300    1.000
    C26      C        0.27920    0.30310    0.74420    1.000
    C27      C        0.92210    0.31850    0.87070    1.000
    C28      C        0.84170    0.47190    0.84480    1.000
    C29      C        0.72060    0.53180    0.91860    1.000
    C30      C        0.68670    0.43410    0.01390    1.000
    C31      C        0.77100    0.28560    0.03420    1.000
    C32      C        0.62920    0.69680    0.89290    1.000
    N1       N        0.05390    0.97650    0.33700    1.000
    N2       N        0.97550    0.98110    0.26190    1.000
    N3       N        0.04730    0.98970    0.15600    1.000
    N4       N        0.90790    0.22650    0.42890    1.000
    N5       N        0.11210    0.77470    0.03560    1.000
    N6       N        0.94610    0.02350    0.66300    1.000
    N7       N        0.02450    0.01890    0.73810    1.000
    N8       N        0.95270    0.01030    0.84400    1.000
    N9       N        0.09210    0.77350    0.57110    1.000
    N10      N        0.88790    0.22530    0.96440    1.000
    O1       O        0.23510    0.99210    0.45450    1.000
    O2       O        0.41370    0.92300    0.31730    1.000
    O3       O        0.38210    0.00480    0.05660    1.000
    O4       O        0.22340    0.01460    0.95820    1.000
    O5       O        0.73820    0.78320    0.29260    1.000
    O6       O        0.64940    0.74120    0.16810    1.000
    O7       O        0.48700    0.25340    0.04610    1.000
    O8       O        0.33310    0.21760    0.19160    1.000
    O9       O        0.76490    0.00790    0.54550    1.000
    O10      O        0.58630    0.07700    0.68270    1.000
    O11      O        0.61790    0.99520    0.94340    1.000
    O12      O        0.77660    0.98540    0.04180    1.000
    O13      O        0.26180    0.21680    0.70740    1.000
    O14      O        0.35060    0.25880    0.83190    1.000
    O15      O        0.51300    0.74660    0.95390    1.000
    O16      O        0.66690    0.78240    0.80840    1.000
