data_functionalizedCrystal
_audit_creation_method	'EQeq! by Chris Wilmer'
_symmetry_space_group_name_H-M	'P1'
_symmetry_Int_Tables_number	1
_symmetry_cell_setting	triclinic
loop_
_symmetry_equiv_pos_as_xyz
  x,y,z
_cell_length_a	10.8014
_cell_length_b	10.8014
_cell_length_c	13.6319
_cell_angle_alpha	90
_cell_angle_beta	90
_cell_angle_gamma	120
loop_
_atom_site_label
_atom_site_type_symbol
_atom_site_fract_x
_atom_site_fract_y
_atom_site_fract_z
_atom_site_charge
Mof_C 	C 	0.4704	0.4637	0.2889	-0.008
Mof_N 	N 	0.5023	0.3722	0.3387	-0.348
Mof_N 	N 	0.3764	0.4909	0.3397	-0.292
Mof_N 	N 	0.4139	0.3303	0.4065	-0.039
Mof_N 	N 	0.3434	0.3963	0.4062	-0.198
Mof_C 	C 	0.3129	0.435	0.45	0.295
Mof_H 	H 	0.2587	0.4658	0.4839	-0.202
Mof_C 	C 	0.3474	0.3367	0.4883	-0.081
Mof_H 	H 	0.3016	0.2884	0.5454	0.014
Mof_C 	C 	0.445	0.307	0.4465	-0.004
Mof_H 	H 	0.4775	0.2526	0.4788	0.068
Mof_C 	C 	0.5363	0.0067	0.2889	-0.009
Mof_N 	N 	0.6278	0.1301	0.3387	-0.349
Mof_N 	N 	0.5091	0.8855	0.3397	-0.292
Mof_N 	N 	0.6697	0.0836	0.4065	-0.038
Mof_N 	N 	0.6037	0.9471	0.4062	-0.198
Mof_C 	C 	0.565	0.8779	0.45	0.295
Mof_H 	H 	0.5342	0.7929	0.4839	-0.202
Mof_C 	C 	0.6633	0.0107	0.4883	-0.081
Mof_H 	H 	0.7116	0.0132	0.5454	0.014
Mof_C 	C 	0.693	0.138	0.4465	-0.004
Mof_H 	H 	0.7474	0.2249	0.4788	0.068
Mof_C 	C 	0.9933	0.5296	0.2889	-0.009
Mof_N 	N 	0.8699	0.4977	0.3387	-0.349
Mof_N 	N 	0.1145	0.6236	0.3397	-0.292
Mof_N 	N 	0.9164	0.5861	0.4065	-0.038
Mof_N 	N 	0.0529	0.6566	0.4062	-0.198
Mof_C 	C 	0.1221	0.6871	0.45	0.295
Mof_H 	H 	0.2071	0.7413	0.4839	-0.202
Mof_C 	C 	0.9893	0.6526	0.4883	-0.081
Mof_H 	H 	0.9868	0.6984	0.5454	0.014
Mof_C 	C 	0.862	0.555	0.4465	-0.004
Mof_H 	H 	0.7751	0.5225	0.4788	0.068
Mof_C 	C 	0.5363	0.5296	0.2111	-0.009
Mof_N 	N 	0.6278	0.4977	0.1613	-0.349
Mof_N 	N 	0.5091	0.6236	0.1603	-0.292
Mof_N 	N 	0.6697	0.5861	0.0935	-0.039
Mof_N 	N 	0.6037	0.6566	0.0938	-0.198
Mof_C 	C 	0.565	0.6871	0.05	0.296
Mof_H 	H 	0.5342	0.7413	0.0161	-0.202
Mof_C 	C 	0.6633	0.6526	0.0117	-0.081
Mof_H 	H 	0.7116	0.6984	0.9546	0.014
Mof_C 	C 	0.693	0.555	0.0535	-0.004
Mof_H 	H 	0.7474	0.5225	0.0212	0.068
Mof_C 	C 	0.9933	0.4637	0.2111	-0.009
Mof_N 	N 	0.8699	0.3722	0.1613	-0.349
Mof_N 	N 	0.1145	0.4909	0.1603	-0.292
Mof_N 	N 	0.9164	0.3303	0.0935	-0.038
Mof_N 	N 	0.0529	0.3963	0.0938	-0.198
Mof_C 	C 	0.1221	0.435	0.05	0.296
Mof_H 	H 	0.2071	0.4658	0.0161	-0.202
Mof_C 	C 	0.9893	0.3367	0.0117	-0.082
Mof_H 	H 	0.9868	0.2884	0.9546	0.015
Mof_C 	C 	0.862	0.307	0.0535	-0.005
Mof_H 	H 	0.7751	0.2526	0.0212	0.069
Mof_C 	C 	0.4704	0.0067	0.2111	-0.009
Mof_N 	N 	0.5023	0.1301	0.1613	-0.349
Mof_N 	N 	0.3764	0.8855	0.1603	-0.292
Mof_N 	N 	0.4139	0.0836	0.0935	-0.038
Mof_N 	N 	0.3434	0.9471	0.0938	-0.199
Mof_C 	C 	0.3129	0.8779	0.05	0.297
Mof_H 	H 	0.2587	0.7929	0.0161	-0.203
Mof_C 	C 	0.3474	0.0107	0.0117	-0.082
Mof_H 	H 	0.3016	0.0132	0.9546	0.015
Mof_C 	C 	0.445	0.138	0.0535	-0.005
Mof_H 	H 	0.4775	0.2249	0.0212	0.069
Mof_C 	C 	0.5296	0.5363	0.7111	-0.009
Mof_N 	N 	0.4977	0.6278	0.6613	-0.349
Mof_N 	N 	0.6236	0.5091	0.6603	-0.292
Mof_N 	N 	0.5861	0.6697	0.5935	-0.039
Mof_N 	N 	0.6566	0.6037	0.5938	-0.198
Mof_C 	C 	0.6871	0.565	0.55	0.295
Mof_H 	H 	0.7413	0.5342	0.5161	-0.202
Mof_C 	C 	0.6526	0.6633	0.5117	-0.081
Mof_H 	H 	0.6984	0.7116	0.4546	0.014
Mof_C 	C 	0.555	0.693	0.5535	-0.004
Mof_H 	H 	0.5225	0.7474	0.5212	0.068
Mof_C 	C 	0.4637	0.9933	0.7111	-0.009
Mof_N 	N 	0.3722	0.8699	0.6613	-0.349
Mof_N 	N 	0.4909	0.1145	0.6603	-0.292
Mof_N 	N 	0.3303	0.9164	0.5935	-0.038
Mof_N 	N 	0.3963	0.0529	0.5938	-0.198
Mof_C 	C 	0.435	0.1221	0.55	0.295
Mof_H 	H 	0.4658	0.2071	0.5161	-0.202
Mof_C 	C 	0.3367	0.9893	0.5117	-0.081
Mof_H 	H 	0.2884	0.9868	0.4546	0.014
Mof_C 	C 	0.307	0.862	0.5535	-0.004
Mof_H 	H 	0.2526	0.7751	0.5212	0.068
Mof_C 	C 	0.0067	0.4704	0.7111	-0.009
Mof_N 	N 	0.1301	0.5023	0.6613	-0.349
Mof_N 	N 	0.8855	0.3764	0.6603	-0.292
Mof_N 	N 	0.0836	0.4139	0.5935	-0.038
Mof_N 	N 	0.9471	0.3434	0.5938	-0.198
Mof_C 	C 	0.8779	0.3129	0.55	0.295
Mof_H 	H 	0.7929	0.2587	0.5161	-0.202
Mof_C 	C 	0.0107	0.3474	0.5117	-0.081
Mof_H 	H 	0.0132	0.3016	0.4546	0.014
Mof_C 	C 	0.138	0.445	0.5535	-0.004
Mof_H 	H 	0.2249	0.4775	0.5212	0.068
Mof_C 	C 	0.4637	0.4704	0.7889	-0.009
Mof_N 	N 	0.3722	0.5023	0.8387	-0.349
Mof_N 	N 	0.4909	0.3764	0.8397	-0.292
Mof_N 	N 	0.3303	0.4139	0.9065	-0.039
Mof_N 	N 	0.3963	0.3434	0.9062	-0.198
Mof_C 	C 	0.435	0.3129	0.95	0.296
Mof_H 	H 	0.4658	0.2587	0.9839	-0.202
Mof_C 	C 	0.3367	0.3474	0.9883	-0.081
Mof_H 	H 	0.2884	0.3016	0.0454	0.014
Mof_C 	C 	0.307	0.445	0.9465	-0.004
Mof_H 	H 	0.2526	0.4775	0.9788	0.068
Mof_C 	C 	0.0067	0.5363	0.7889	-0.009
Mof_N 	N 	0.1301	0.6278	0.8387	-0.349
Mof_N 	N 	0.8855	0.5091	0.8397	-0.292
Mof_N 	N 	0.0836	0.6697	0.9065	-0.038
Mof_N 	N 	0.9471	0.6037	0.9062	-0.198
Mof_C 	C 	0.8779	0.565	0.95	0.296
Mof_H 	H 	0.7929	0.5342	0.9839	-0.202
Mof_C 	C 	0.0107	0.6633	0.9883	-0.082
Mof_H 	H 	0.0132	0.7116	0.0454	0.015
Mof_C 	C 	0.138	0.693	0.9465	-0.005
Mof_H 	H 	0.2249	0.7474	0.9788	0.069
Mof_C 	C 	0.5296	0.9933	0.7889	-0.009
Mof_N 	N 	0.4977	0.8699	0.8387	-0.349
Mof_N 	N 	0.6236	0.1145	0.8397	-0.292
Mof_N 	N 	0.5861	0.9164	0.9065	-0.038
Mof_N 	N 	0.6566	0.0529	0.9062	-0.199
Mof_C 	C 	0.6871	0.1221	0.95	0.297
Mof_H 	H 	0.7413	0.2071	0.9839	-0.203
Mof_C 	C 	0.6526	0.9893	0.9883	-0.082
Mof_H 	H 	0.6984	0.9868	0.0454	0.015
Mof_C 	C 	0.555	0.862	0.9465	-0.005
Mof_H 	H 	0.5225	0.7751	0.9788	0.069
Mof_Na	Na	0.33333	0.66667	0.25	2.202
Mof_Na	Na	0.66667	0.33333	0.75	2.202
Mof_Na	Na	0.66667	0.33333	0.25	2.573
Mof_Na	Na	0.33333	0.66667	0.75	2.573
_end
