# CIF file generated by openbabel 3.1.0, see https://openbabel.org
data_I
_chemical_name_common 'image0'
_cell_length_a 16.417
_cell_length_b 16.417
_cell_length_c 6.598
_cell_angle_alpha 90
_cell_angle_beta 90
_cell_angle_gamma 90
_space_group_name_H-M_alt 'P 1'
_space_group_name_Hall 'P 1'
loop_
    _symmetry_equiv_pos_as_xyz
    x,y,z
loop_
    _atom_site_label
    _atom_site_type_symbol
    _atom_site_fract_x
    _atom_site_fract_y
    _atom_site_fract_z
    _atom_site_occupancy
    N1       N        0.17140    0.68652    0.31940    1.000
    C1       C        0.19755    0.62857    0.19480    1.000
    H1       H        0.25340    0.62050    0.18390    1.000
    C2       C        0.14710    0.57980    0.08070    1.000
    H2       H        0.16900    0.53930    0.99840    1.000
    C3       C        0.06430    0.59110    0.08910    1.000
    C4       C        0.03691    0.65070    0.21510    1.000
    H3       H        0.98130    0.66030    0.22680    1.000
    C5       C        0.09081    0.69683    0.32500    1.000
    H4       H        0.07000    0.73760    0.40810    1.000
    C6       C        0.99660    0.54320    0.97400    1.000
    H5       H        0.94230    0.56420    0.00750    1.000
    C7       C        0.01790    0.55830    0.74200    1.000
    H6       H        0.07180    0.53860    0.71470    1.000
    H7       H        0.01520    0.61560    0.71360    1.000
    H8       H        0.97940    0.52990    0.65860    1.000
    C8       C        0.02500    0.53100    0.93000    1.000
    H9       H        0.06930    0.50030    0.86530    1.000
    C9       C        0.97900    0.57000    0.77500    1.000
    H10      H        0.95480    0.53020    0.68830    1.000
    H11      H        0.01480    0.60440    0.69570    1.000
    H12      H        0.93740    0.60330    0.83500    1.000
    N2       N        0.32860    0.81348    0.31940    1.000
    C10      C        0.30245    0.87143    0.19480    1.000
    H13      H        0.24660    0.87950    0.18390    1.000
    C11      C        0.35290    0.92020    0.08070    1.000
    H14      H        0.33100    0.96070    0.99840    1.000
    C12      C        0.43570    0.90890    0.08910    1.000
    C13      C        0.46309    0.84930    0.21510    1.000
    H15      H        0.51870    0.83970    0.22680    1.000
    C14      C        0.40919    0.80317    0.32500    1.000
    H16      H        0.43000    0.76240    0.40810    1.000
    C15      C        0.50340    0.95680    0.97400    1.000
    H17      H        0.55770    0.93580    0.00750    1.000
    C16      C        0.48210    0.94170    0.74200    1.000
    H18      H        0.42820    0.96140    0.71470    1.000
    H19      H        0.48480    0.88440    0.71360    1.000
    H20      H        0.52060    0.97010    0.65860    1.000
    C17      C        0.47500    0.96900    0.93000    1.000
    H21      H        0.43070    0.99970    0.86530    1.000
    C18      C        0.52100    0.93000    0.77500    1.000
    H22      H        0.54520    0.96980    0.68830    1.000
    H23      H        0.48520    0.89560    0.69570    1.000
    H24      H        0.56260    0.89670    0.83500    1.000
    N3       N        0.81348    0.17140    0.31940    1.000
    C19      C        0.87143    0.19755    0.19480    1.000
    H25      H        0.87950    0.25340    0.18390    1.000
    C20      C        0.92020    0.14710    0.08070    1.000
    H26      H        0.96070    0.16900    0.99840    1.000
    C21      C        0.90890    0.06430    0.08910    1.000
    C22      C        0.84930    0.03691    0.21510    1.000
    H27      H        0.83970    0.98130    0.22680    1.000
    C23      C        0.80317    0.09081    0.32500    1.000
    H28      H        0.76240    0.07000    0.40810    1.000
    C24      C        0.95680    0.99660    0.97400    1.000
    H29      H        0.93580    0.94230    0.00750    1.000
    C25      C        0.94170    0.01790    0.74200    1.000
    H30      H        0.96140    0.07180    0.71470    1.000
    H31      H        0.88440    0.01520    0.71360    1.000
    H32      H        0.97010    0.97940    0.65860    1.000
    C26      C        0.96900    0.02500    0.93000    1.000
    H33      H        0.99970    0.06930    0.86530    1.000
    C27      C        0.93000    0.97900    0.77500    1.000
    H34      H        0.96980    0.95480    0.68830    1.000
    H35      H        0.89560    0.01480    0.69570    1.000
    H36      H        0.89670    0.93740    0.83500    1.000
    N4       N        0.68652    0.32860    0.31940    1.000
    C28      C        0.62857    0.30245    0.19480    1.000
    H37      H        0.62050    0.24660    0.18390    1.000
    C29      C        0.57980    0.35290    0.08070    1.000
    H38      H        0.53930    0.33100    0.99840    1.000
    C30      C        0.59110    0.43570    0.08910    1.000
    C31      C        0.65070    0.46309    0.21510    1.000
    H39      H        0.66030    0.51870    0.22680    1.000
    C32      C        0.69683    0.40919    0.32500    1.000
    H40      H        0.73760    0.43000    0.40810    1.000
    C33      C        0.54320    0.50340    0.97400    1.000
    H41      H        0.56420    0.55770    0.00750    1.000
    C34      C        0.55830    0.48210    0.74200    1.000
    H42      H        0.53860    0.42820    0.71470    1.000
    H43      H        0.61560    0.48480    0.71360    1.000
    H44      H        0.52990    0.52060    0.65860    1.000
    C35      C        0.53100    0.47500    0.93000    1.000
    H45      H        0.50030    0.43070    0.86530    1.000
    C36      C        0.57000    0.52100    0.77500    1.000
    H46      H        0.53020    0.54520    0.68830    1.000
    H47      H        0.60440    0.48520    0.69570    1.000
    H48      H        0.60330    0.56260    0.83500    1.000
    N5       N        0.82860    0.31348    0.68060    1.000
    C37      C        0.80245    0.37143    0.80520    1.000
    H49      H        0.74660    0.37950    0.81610    1.000
    C38      C        0.85290    0.42020    0.91930    1.000
    H50      H        0.83100    0.46070    0.00160    1.000
    C39      C        0.93570    0.40890    0.91090    1.000
    C40      C        0.96309    0.34930    0.78490    1.000
    H51      H        0.01870    0.33970    0.77320    1.000
    C41      C        0.90919    0.30317    0.67500    1.000
    H52      H        0.93000    0.26240    0.59190    1.000
    C42      C        0.00340    0.45680    0.02600    1.000
    H53      H        0.05770    0.43580    0.99250    1.000
    C43      C        0.98210    0.44170    0.25800    1.000
    H54      H        0.92820    0.46140    0.28530    1.000
    H55      H        0.98480    0.38440    0.28640    1.000
    H56      H        0.02060    0.47010    0.34140    1.000
    C44      C        0.97500    0.46900    0.07000    1.000
    H57      H        0.93070    0.49970    0.13470    1.000
    C45      C        0.02100    0.43000    0.22500    1.000
    H58      H        0.04520    0.46980    0.31170    1.000
    H59      H        0.98520    0.39560    0.30430    1.000
    H60      H        0.06260    0.39670    0.16500    1.000
    N6       N        0.67140    0.18652    0.68060    1.000
    C46      C        0.69755    0.12857    0.80520    1.000
    H61      H        0.75340    0.12050    0.81610    1.000
    C47      C        0.64710    0.07980    0.91930    1.000
    H62      H        0.66900    0.03930    0.00160    1.000
    C48      C        0.56430    0.09110    0.91090    1.000
    C49      C        0.53691    0.15070    0.78490    1.000
    H63      H        0.48130    0.16030    0.77320    1.000
    C50      C        0.59081    0.19683    0.67500    1.000
    H64      H        0.57000    0.23760    0.59190    1.000
    C51      C        0.49660    0.04320    0.02600    1.000
    H65      H        0.44230    0.06420    0.99250    1.000
    C52      C        0.51790    0.05830    0.25800    1.000
    H66      H        0.57180    0.03860    0.28530    1.000
    H67      H        0.51520    0.11560    0.28640    1.000
    H68      H        0.47940    0.02990    0.34140    1.000
    C53      C        0.52500    0.03100    0.07000    1.000
    H69      H        0.56930    0.00030    0.13470    1.000
    C54      C        0.47900    0.07000    0.22500    1.000
    H70      H        0.45480    0.03020    0.31170    1.000
    H71      H        0.51480    0.10440    0.30430    1.000
    H72      H        0.43740    0.10330    0.16500    1.000
    N7       N        0.18652    0.82860    0.68060    1.000
    C55      C        0.12857    0.80245    0.80520    1.000
    H73      H        0.12050    0.74660    0.81610    1.000
    C56      C        0.07980    0.85290    0.91930    1.000
    H74      H        0.03930    0.83100    0.00160    1.000
    C57      C        0.09110    0.93570    0.91090    1.000
    C58      C        0.15070    0.96309    0.78490    1.000
    H75      H        0.16030    0.01870    0.77320    1.000
    C59      C        0.19683    0.90919    0.67500    1.000
    H76      H        0.23760    0.93000    0.59190    1.000
    C60      C        0.04320    0.00340    0.02600    1.000
    H77      H        0.06420    0.05770    0.99250    1.000
    C61      C        0.05830    0.98210    0.25800    1.000
    H78      H        0.03860    0.92820    0.28530    1.000
    H79      H        0.11560    0.98480    0.28640    1.000
    H80      H        0.02990    0.02060    0.34140    1.000
    C62      C        0.03100    0.97500    0.07000    1.000
    H81      H        0.00030    0.93070    0.13470    1.000
    C63      C        0.07000    0.02100    0.22500    1.000
    H82      H        0.03020    0.04520    0.31170    1.000
    H83      H        0.10440    0.98520    0.30430    1.000
    H84      H        0.10330    0.06260    0.16500    1.000
    N8       N        0.31348    0.67140    0.68060    1.000
    C64      C        0.37143    0.69755    0.80520    1.000
    H85      H        0.37950    0.75340    0.81610    1.000
    C65      C        0.42020    0.64710    0.91930    1.000
    H86      H        0.46070    0.66900    0.00160    1.000
    C66      C        0.40890    0.56430    0.91090    1.000
    C67      C        0.34930    0.53691    0.78490    1.000
    H87      H        0.33970    0.48130    0.77320    1.000
    C68      C        0.30317    0.59081    0.67500    1.000
    H88      H        0.26240    0.57000    0.59190    1.000
    C69      C        0.45680    0.49660    0.02600    1.000
    H89      H        0.43580    0.44230    0.99250    1.000
    C70      C        0.44170    0.51790    0.25800    1.000
    H90      H        0.46140    0.57180    0.28530    1.000
    H91      H        0.38440    0.51520    0.28640    1.000
    H92      H        0.47010    0.47940    0.34140    1.000
    C71      C        0.46900    0.52500    0.07000    1.000
    H93      H        0.49970    0.56930    0.13470    1.000
    C72      C        0.43000    0.47900    0.22500    1.000
    H94      H        0.46980    0.45480    0.31170    1.000
    H95      H        0.39560    0.51480    0.30430    1.000
    H96      H        0.39670    0.43740    0.16500    1.000
    Cu1      Cu       0.25000    0.75000    0.50000    1.000
    Cu2      Cu       0.75000    0.25000    0.50000    1.000
