data_functionalizedCrystal
_audit_creation_method	'EQeq! by Chris Wilmer'
_symmetry_space_group_name_H-M	'P1'
_symmetry_Int_Tables_number	1
_symmetry_cell_setting	triclinic
loop_
_symmetry_equiv_pos_as_xyz
  x,y,z
_cell_length_a	8.7407
_cell_length_b	33.9886
_cell_length_c	8.6771
_cell_angle_alpha	90
_cell_angle_beta	107.725
_cell_angle_gamma	90
loop_
_atom_site_label
_atom_site_type_symbol
_atom_site_fract_x
_atom_site_fract_y
_atom_site_fract_z
_atom_site_charge
Mof_Cu	Cu	0.75056	0.20358	0.48505	0.949
Mof_Cu	Cu	0.7398	0.04573	0.49924	0.949
Mof_O 	O 	0.89473	0.15418	0.61385	-0.258
Mof_O 	O 	0.85291	0.09015	0.62873	-0.291
Mof_O 	O 	0.62214	0.15999	0.36275	-0.29
Mof_O 	O 	0.61336	0.09483	0.34455	-0.254
Mof_O 	O 	0.62455	0.20662	0.64769	-0.273
Mof_O 	O 	0.5939	0.24887	0.83124	-0.248
Mof_O 	O 	0.87701	0.24604	0.62147	-0.293
Mof_O 	O 	0.86306	0.2876	0.81487	-0.287
Mof_O 	O 	0.90824	0.04043	0.38239	-0.275
Mof_O 	O 	0.0903	0.99898	0.34643	-0.249
Mof_O 	O 	0.57119	0.04163	0.61623	-0.281
Mof_O 	O 	0.38003	0.99931	0.62748	-0.29
Mof_C 	C 	0.8198	0.12349	0.5647	0.229
Mof_C 	C 	0.6711	0.12601	0.4097	0.233
Mof_C 	C 	0.8147	0.25886	0.7245	0.24
Mof_C 	C 	0.6644	0.23658	0.7381	0.216
Mof_C 	C 	0.0009	0.01105	0.4216	0.231
Mof_C 	C 	0.4856	0.01185	0.5706	0.227
Mof_Cu	Cu	0.24944	0.70358	0.01495	0.943
Mof_Cu	Cu	0.2602	0.54573	0.00076	0.947
Mof_O 	O 	0.10527	0.65418	0.88615	-0.253
Mof_O 	O 	0.14709	0.59015	0.87127	-0.289
Mof_O 	O 	0.37786	0.65999	0.13725	-0.291
Mof_O 	O 	0.38664	0.59483	0.15545	-0.254
Mof_O 	O 	0.37545	0.70662	0.85231	-0.266
Mof_O 	O 	0.4061	0.74887	0.66876	-0.242
Mof_O 	O 	0.12299	0.74604	0.87853	-0.284
Mof_O 	O 	0.13694	0.7876	0.68513	-0.281
Mof_O 	O 	0.09176	0.54043	0.11761	-0.28
Mof_O 	O 	0.9097	0.49898	0.15357	-0.249
Mof_O 	O 	0.42881	0.54163	0.88377	-0.278
Mof_O 	O 	0.61997	0.49931	0.87252	-0.291
Mof_C 	C 	0.1802	0.62349	0.9353	0.241
Mof_C 	C 	0.3289	0.62601	0.0903	0.222
Mof_C 	C 	0.1853	0.75886	0.7755	0.241
Mof_C 	C 	0.3356	0.73658	0.7619	0.217
Mof_C 	C 	0.9991	0.51105	0.0784	0.235
Mof_C 	C 	0.5144	0.51185	0.9294	0.227
Mof_Cu	Cu	0.24944	0.79642	0.51495	0.949
Mof_Cu	Cu	0.2602	0.95427	0.50076	0.949
Mof_O 	O 	0.10527	0.84582	0.38615	-0.258
Mof_O 	O 	0.14709	0.90985	0.37127	-0.291
Mof_O 	O 	0.37786	0.84001	0.63725	-0.29
Mof_O 	O 	0.38664	0.90517	0.65545	-0.254
Mof_O 	O 	0.37545	0.79338	0.35231	-0.273
Mof_O 	O 	0.4061	0.75113	0.16876	-0.248
Mof_O 	O 	0.12299	0.75396	0.37853	-0.293
Mof_O 	O 	0.13694	0.7124	0.18513	-0.287
Mof_O 	O 	0.09176	0.95957	0.61761	-0.275
Mof_O 	O 	0.9097	0.00102	0.65357	-0.249
Mof_O 	O 	0.42881	0.95837	0.38377	-0.281
Mof_O 	O 	0.61997	0.00069	0.37252	-0.29
Mof_C 	C 	0.1802	0.87651	0.4353	0.229
Mof_C 	C 	0.3289	0.87399	0.5903	0.233
Mof_C 	C 	0.1853	0.74114	0.2755	0.24
Mof_C 	C 	0.3356	0.76342	0.2619	0.216
Mof_C 	C 	0.9991	0.98895	0.5784	0.231
Mof_C 	C 	0.5144	0.98815	0.4294	0.227
Mof_Cu	Cu	0.75056	0.29642	0.98505	0.943
Mof_Cu	Cu	0.7398	0.45427	0.99924	0.947
Mof_O 	O 	0.89473	0.34582	0.11385	-0.253
Mof_O 	O 	0.85291	0.40985	0.12873	-0.289
Mof_O 	O 	0.62214	0.34001	0.86275	-0.291
Mof_O 	O 	0.61336	0.40517	0.84455	-0.254
Mof_O 	O 	0.62455	0.29338	0.14769	-0.266
Mof_O 	O 	0.5939	0.25113	0.33124	-0.242
Mof_O 	O 	0.87701	0.25396	0.12147	-0.284
Mof_O 	O 	0.86306	0.2124	0.31487	-0.281
Mof_O 	O 	0.90824	0.45957	0.88239	-0.28
Mof_O 	O 	0.0903	0.50102	0.84643	-0.249
Mof_O 	O 	0.57119	0.45837	0.11623	-0.278
Mof_O 	O 	0.38003	0.50069	0.12748	-0.291
Mof_C 	C 	0.8198	0.37651	0.0647	0.241
Mof_C 	C 	0.6711	0.37399	0.9097	0.222
Mof_C 	C 	0.8147	0.24114	0.2245	0.241
Mof_C 	C 	0.6644	0.26342	0.2381	0.217
Mof_C 	C 	0.0009	0.48895	0.9216	0.235
Mof_C 	C 	0.4856	0.48815	0.0706	0.227
_end
