# CIF file generated by openbabel 3.1.0, see https://openbabel.org
data_I
_chemical_name_common 'image0'
_cell_length_a 15.6733
_cell_length_b 10.7028
_cell_length_c 23.2631
_cell_angle_alpha 90
_cell_angle_beta 90
_cell_angle_gamma 90
_space_group_name_H-M_alt 'P 1'
_space_group_name_Hall 'P 1'
loop_
    _symmetry_equiv_pos_as_xyz
    x,y,z
loop_
    _atom_site_label
    _atom_site_type_symbol
    _atom_site_fract_x
    _atom_site_fract_y
    _atom_site_fract_z
    _atom_site_occupancy
    Yb1      Yb       0.95189    0.03048    0.08434    1.000
    C1       C        0.09356    0.24980    0.20281    1.000
    C2       C        0.11692    0.20220    0.25598    1.000
    H1       H        0.09940    0.12060    0.26700    1.000
    C3       C        0.16623    0.27440    0.29340    1.000
    C4       C        0.19227    0.39370    0.27624    1.000
    H2       H        0.22810    0.44130    0.30080    1.000
    C5       C        0.16660    0.44400    0.22374    1.000
    C6       C        0.11707    0.37130    0.18740    1.000
    H3       H        0.09890    0.40440    0.15160    1.000
    C7       C        0.18960    0.57810    0.20925    1.000
    H4       H        0.14730    0.63380    0.22770    1.000
    H5       H        0.24590    0.59690    0.22660    1.000
    C8       C        0.19361    0.61000    0.14593    1.000
    C9       C        0.26393    0.57320    0.11280    1.000
    H6       H        0.30870    0.52690    0.13020    1.000
    C10      C        0.26902    0.60330    0.05481    1.000
    C11      C        0.20360    0.67130    0.02914    1.000
    H7       H        0.20600    0.68980    0.98920    1.000
    C12      C        0.13464    0.71240    0.06186    1.000
    C13      C        0.13053    0.68090    0.11979    1.000
    H8       H        0.08330    0.70860    0.14200    1.000
    C14      C        0.04249    0.17410    0.16149    1.000
    C15      C        0.19254    0.22170    0.35098    1.000
    C16      C        0.34528    0.56750    0.01936    1.000
    C17      C        0.06924    0.79630    0.03468    1.000
    O1       O        0.00803    0.22655    0.11944    1.000
    O2       O        0.03422    0.05608    0.16900    1.000
    O3       O        0.15772    0.12210    0.36745    1.000
    O4       O        0.24835    0.27710    0.37966    1.000
    O5       O        0.41612    0.55481    0.04336    1.000
    O6       O        0.33394    0.55204    0.96576    1.000
    O7       O        0.08014    0.82205    0.98244    1.000
    O8       O        0.00914    0.83522    0.06570    1.000
    Yb2      Yb       0.54811    0.46952    0.58434    1.000
    C18      C        0.40644    0.25020    0.70281    1.000
    C19      C        0.38308    0.29780    0.75598    1.000
    H9       H        0.40060    0.37940    0.76700    1.000
    C20      C        0.33377    0.22560    0.79340    1.000
    C21      C        0.30773    0.10630    0.77624    1.000
    H10      H        0.27190    0.05870    0.80080    1.000
    C22      C        0.33340    0.05600    0.72374    1.000
    C23      C        0.38293    0.12870    0.68740    1.000
    H11      H        0.40110    0.09560    0.65160    1.000
    C24      C        0.31040    0.92190    0.70925    1.000
    H12      H        0.35270    0.86620    0.72770    1.000
    H13      H        0.25410    0.90310    0.72660    1.000
    C25      C        0.30639    0.89000    0.64593    1.000
    C26      C        0.23607    0.92680    0.61280    1.000
    H14      H        0.19130    0.97310    0.63020    1.000
    C27      C        0.23098    0.89670    0.55481    1.000
    C28      C        0.29640    0.82870    0.52914    1.000
    H15      H        0.29400    0.81020    0.48920    1.000
    C29      C        0.36536    0.78760    0.56186    1.000
    C30      C        0.36947    0.81910    0.61979    1.000
    H16      H        0.41670    0.79140    0.64200    1.000
    C31      C        0.45751    0.32590    0.66149    1.000
    C32      C        0.30746    0.27830    0.85098    1.000
    C33      C        0.15472    0.93250    0.51936    1.000
    C34      C        0.43076    0.70370    0.53468    1.000
    O9       O        0.49197    0.27345    0.61944    1.000
    O10      O        0.46578    0.44392    0.66900    1.000
    O11      O        0.34228    0.37790    0.86745    1.000
    O12      O        0.25165    0.22290    0.87966    1.000
    O13      O        0.08388    0.94519    0.54336    1.000
    O14      O        0.16606    0.94796    0.46576    1.000
    O15      O        0.41986    0.67795    0.48244    1.000
    O16      O        0.49086    0.66478    0.56570    1.000
    Yb3      Yb       0.04811    0.03048    0.41566    1.000
    C35      C        0.90644    0.24980    0.29719    1.000
    C36      C        0.88308    0.20220    0.24402    1.000
    H17      H        0.90060    0.12060    0.23300    1.000
    C37      C        0.83377    0.27440    0.20660    1.000
    C38      C        0.80773    0.39370    0.22376    1.000
    H18      H        0.77190    0.44130    0.19920    1.000
    C39      C        0.83340    0.44400    0.27626    1.000
    C40      C        0.88293    0.37130    0.31260    1.000
    H19      H        0.90110    0.40440    0.34840    1.000
    C41      C        0.81040    0.57810    0.29075    1.000
    H20      H        0.85270    0.63380    0.27230    1.000
    H21      H        0.75410    0.59690    0.27340    1.000
    C42      C        0.80639    0.61000    0.35407    1.000
    C43      C        0.73607    0.57320    0.38720    1.000
    H22      H        0.69130    0.52690    0.36980    1.000
    C44      C        0.73098    0.60330    0.44519    1.000
    C45      C        0.79640    0.67130    0.47086    1.000
    H23      H        0.79400    0.68980    0.51080    1.000
    C46      C        0.86536    0.71240    0.43814    1.000
    C47      C        0.86947    0.68090    0.38021    1.000
    H24      H        0.91670    0.70860    0.35800    1.000
    C48      C        0.95751    0.17410    0.33851    1.000
    C49      C        0.80746    0.22170    0.14902    1.000
    C50      C        0.65472    0.56750    0.48064    1.000
    C51      C        0.93076    0.79630    0.46532    1.000
    O17      O        0.99197    0.22655    0.38056    1.000
    O18      O        0.96578    0.05608    0.33100    1.000
    O19      O        0.84228    0.12210    0.13255    1.000
    O20      O        0.75165    0.27710    0.12034    1.000
    O21      O        0.58388    0.55481    0.45664    1.000
    O22      O        0.66606    0.55204    0.53424    1.000
    O23      O        0.91986    0.82205    0.51756    1.000
    O24      O        0.99086    0.83522    0.43430    1.000
    Yb4      Yb       0.45189    0.46952    0.91566    1.000
    C52      C        0.59356    0.25020    0.79719    1.000
    C53      C        0.61692    0.29780    0.74402    1.000
    H25      H        0.59940    0.37940    0.73300    1.000
    C54      C        0.66623    0.22560    0.70660    1.000
    C55      C        0.69227    0.10630    0.72376    1.000
    H26      H        0.72810    0.05870    0.69920    1.000
    C56      C        0.66660    0.05600    0.77626    1.000
    C57      C        0.61707    0.12870    0.81260    1.000
    H27      H        0.59890    0.09560    0.84840    1.000
    C58      C        0.68960    0.92190    0.79075    1.000
    H28      H        0.64730    0.86620    0.77230    1.000
    H29      H        0.74590    0.90310    0.77340    1.000
    C59      C        0.69361    0.89000    0.85407    1.000
    C60      C        0.76393    0.92680    0.88720    1.000
    H30      H        0.80870    0.97310    0.86980    1.000
    C61      C        0.76902    0.89670    0.94519    1.000
    C62      C        0.70360    0.82870    0.97086    1.000
    H31      H        0.70600    0.81020    0.01080    1.000
    C63      C        0.63464    0.78760    0.93814    1.000
    C64      C        0.63053    0.81910    0.88021    1.000
    H32      H        0.58330    0.79140    0.85800    1.000
    C65      C        0.54249    0.32590    0.83851    1.000
    C66      C        0.69254    0.27830    0.64902    1.000
    C67      C        0.84528    0.93250    0.98064    1.000
    C68      C        0.56924    0.70370    0.96532    1.000
    O25      O        0.50803    0.27345    0.88056    1.000
    O26      O        0.53422    0.44392    0.83100    1.000
    O27      O        0.65772    0.37790    0.63255    1.000
    O28      O        0.74835    0.22290    0.62034    1.000
    O29      O        0.91612    0.94519    0.95664    1.000
    O30      O        0.83394    0.94796    0.03424    1.000
    O31      O        0.58014    0.67795    0.01756    1.000
    O32      O        0.50914    0.66478    0.93430    1.000
    Yb5      Yb       0.04811    0.96952    0.91566    1.000
    C69      C        0.90644    0.75020    0.79719    1.000
    C70      C        0.88308    0.79780    0.74402    1.000
    H33      H        0.90060    0.87940    0.73300    1.000
    C71      C        0.83377    0.72560    0.70660    1.000
    C72      C        0.80773    0.60630    0.72376    1.000
    H34      H        0.77190    0.55870    0.69920    1.000
    C73      C        0.83340    0.55600    0.77626    1.000
    C74      C        0.88293    0.62870    0.81260    1.000
    H35      H        0.90110    0.59560    0.84840    1.000
    C75      C        0.81040    0.42190    0.79075    1.000
    H36      H        0.85270    0.36620    0.77230    1.000
    H37      H        0.75410    0.40310    0.77340    1.000
    C76      C        0.80639    0.39000    0.85407    1.000
    C77      C        0.73607    0.42680    0.88720    1.000
    H38      H        0.69130    0.47310    0.86980    1.000
    C78      C        0.73098    0.39670    0.94519    1.000
    C79      C        0.79640    0.32870    0.97086    1.000
    H39      H        0.79400    0.31020    0.01080    1.000
    C80      C        0.86536    0.28760    0.93814    1.000
    C81      C        0.86947    0.31910    0.88021    1.000
    H40      H        0.91670    0.29140    0.85800    1.000
    C82      C        0.95751    0.82590    0.83851    1.000
    C83      C        0.80746    0.77830    0.64902    1.000
    C84      C        0.65472    0.43250    0.98064    1.000
    C85      C        0.93076    0.20370    0.96532    1.000
    O33      O        0.99197    0.77345    0.88056    1.000
    O34      O        0.96578    0.94392    0.83100    1.000
    O35      O        0.84228    0.87790    0.63255    1.000
    O36      O        0.75165    0.72290    0.62034    1.000
    O37      O        0.58388    0.44519    0.95664    1.000
    O38      O        0.66606    0.44796    0.03424    1.000
    O39      O        0.91986    0.17795    0.01756    1.000
    O40      O        0.99086    0.16478    0.93430    1.000
    Yb6      Yb       0.45189    0.53048    0.41566    1.000
    C86      C        0.59356    0.74980    0.29719    1.000
    C87      C        0.61692    0.70220    0.24402    1.000
    H41      H        0.59940    0.62060    0.23300    1.000
    C88      C        0.66623    0.77440    0.20660    1.000
    C89      C        0.69227    0.89370    0.22376    1.000
    H42      H        0.72810    0.94130    0.19920    1.000
    C90      C        0.66660    0.94400    0.27626    1.000
    C91      C        0.61707    0.87130    0.31260    1.000
    H43      H        0.59890    0.90440    0.34840    1.000
    C92      C        0.68960    0.07810    0.29075    1.000
    H44      H        0.64730    0.13380    0.27230    1.000
    H45      H        0.74590    0.09690    0.27340    1.000
    C93      C        0.69361    0.11000    0.35407    1.000
    C94      C        0.76393    0.07320    0.38720    1.000
    H46      H        0.80870    0.02690    0.36980    1.000
    C95      C        0.76902    0.10330    0.44519    1.000
    C96      C        0.70360    0.17130    0.47086    1.000
    H47      H        0.70600    0.18980    0.51080    1.000
    C97      C        0.63464    0.21240    0.43814    1.000
    C98      C        0.63053    0.18090    0.38021    1.000
    H48      H        0.58330    0.20860    0.35800    1.000
    C99      C        0.54249    0.67410    0.33851    1.000
    C100     C        0.69254    0.72170    0.14902    1.000
    C101     C        0.84528    0.06750    0.48064    1.000
    C102     C        0.56924    0.29630    0.46532    1.000
    O41      O        0.50803    0.72655    0.38056    1.000
    O42      O        0.53422    0.55608    0.33100    1.000
    O43      O        0.65772    0.62210    0.13255    1.000
    O44      O        0.74835    0.77710    0.12034    1.000
    O45      O        0.91612    0.05481    0.45664    1.000
    O46      O        0.83394    0.05204    0.53424    1.000
    O47      O        0.58014    0.32205    0.51756    1.000
    O48      O        0.50914    0.33522    0.43430    1.000
    Yb7      Yb       0.95189    0.96952    0.58434    1.000
    C103     C        0.09356    0.75020    0.70281    1.000
    C104     C        0.11692    0.79780    0.75598    1.000
    H49      H        0.09940    0.87940    0.76700    1.000
    C105     C        0.16623    0.72560    0.79340    1.000
    C106     C        0.19227    0.60630    0.77624    1.000
    H50      H        0.22810    0.55870    0.80080    1.000
    C107     C        0.16660    0.55600    0.72374    1.000
    C108     C        0.11707    0.62870    0.68740    1.000
    H51      H        0.09890    0.59560    0.65160    1.000
    C109     C        0.18960    0.42190    0.70925    1.000
    H52      H        0.14730    0.36620    0.72770    1.000
    H53      H        0.24590    0.40310    0.72660    1.000
    C110     C        0.19361    0.39000    0.64593    1.000
    C111     C        0.26393    0.42680    0.61280    1.000
    H54      H        0.30870    0.47310    0.63020    1.000
    C112     C        0.26902    0.39670    0.55481    1.000
    C113     C        0.20360    0.32870    0.52914    1.000
    H55      H        0.20600    0.31020    0.48920    1.000
    C114     C        0.13464    0.28760    0.56186    1.000
    C115     C        0.13053    0.31910    0.61979    1.000
    H56      H        0.08330    0.29140    0.64200    1.000
    C116     C        0.04249    0.82590    0.66149    1.000
    C117     C        0.19254    0.77830    0.85098    1.000
    C118     C        0.34528    0.43250    0.51936    1.000
    C119     C        0.06924    0.20370    0.53468    1.000
    O49      O        0.00803    0.77345    0.61944    1.000
    O50      O        0.03422    0.94392    0.66900    1.000
    O51      O        0.15772    0.87790    0.86745    1.000
    O52      O        0.24835    0.72290    0.87966    1.000
    O53      O        0.41612    0.44519    0.54336    1.000
    O54      O        0.33394    0.44796    0.46576    1.000
    O55      O        0.08014    0.17795    0.48244    1.000
    O56      O        0.00914    0.16478    0.56570    1.000
    Yb8      Yb       0.54811    0.53048    0.08434    1.000
    C120     C        0.40644    0.74980    0.20281    1.000
    C121     C        0.38308    0.70220    0.25598    1.000
    H57      H        0.40060    0.62060    0.26700    1.000
    C122     C        0.33377    0.77440    0.29340    1.000
    C123     C        0.30773    0.89370    0.27624    1.000
    H58      H        0.27190    0.94130    0.30080    1.000
    C124     C        0.33340    0.94400    0.22374    1.000
    C125     C        0.38293    0.87130    0.18740    1.000
    H59      H        0.40110    0.90440    0.15160    1.000
    C126     C        0.31040    0.07810    0.20925    1.000
    H60      H        0.35270    0.13380    0.22770    1.000
    H61      H        0.25410    0.09690    0.22660    1.000
    C127     C        0.30639    0.11000    0.14593    1.000
    C128     C        0.23607    0.07320    0.11280    1.000
    H62      H        0.19130    0.02690    0.13020    1.000
    C129     C        0.23098    0.10330    0.05481    1.000
    C130     C        0.29640    0.17130    0.02914    1.000
    H63      H        0.29400    0.18980    0.98920    1.000
    C131     C        0.36536    0.21240    0.06186    1.000
    C132     C        0.36947    0.18090    0.11979    1.000
    H64      H        0.41670    0.20860    0.14200    1.000
    C133     C        0.45751    0.67410    0.16149    1.000
    C134     C        0.30746    0.72170    0.35098    1.000
    C135     C        0.15472    0.06750    0.01936    1.000
    C136     C        0.43076    0.29630    0.03468    1.000
    O57      O        0.49197    0.72655    0.11944    1.000
    O58      O        0.46578    0.55608    0.16900    1.000
    O59      O        0.34228    0.62210    0.36745    1.000
    O60      O        0.25165    0.77710    0.37966    1.000
    O61      O        0.08388    0.05481    0.04336    1.000
    O62      O        0.16606    0.05204    0.96576    1.000
    O63      O        0.41986    0.32205    0.98244    1.000
    O64      O        0.49086    0.33522    0.06570    1.000
