# CIF file generated by openbabel 3.1.0, see https://openbabel.org
data_I
_chemical_name_common 'image0'
_cell_length_a 8.1241
_cell_length_b 30.3843
_cell_length_c 15.6616
_cell_angle_alpha 90
_cell_angle_beta 90
_cell_angle_gamma 90
_space_group_name_H-M_alt 'P 1'
_space_group_name_Hall 'P 1'
loop_
    _symmetry_equiv_pos_as_xyz
    x,y,z
loop_
    _atom_site_label
    _atom_site_type_symbol
    _atom_site_fract_x
    _atom_site_fract_y
    _atom_site_fract_z
    _atom_site_occupancy
    La1      La       0.93440    0.59121    0.70363    1.000
    O1       O        0.88970    0.46119    0.38950    1.000
    O2       O        0.74180    0.40625    0.33870    1.000
    O3       O        0.49410    0.52466    0.71020    1.000
    O4       O        0.73890    0.53863    0.65130    1.000
    O5       O        0.15540    0.63204    0.81600    1.000
    O6       O        0.98880    0.67043    0.73390    1.000
    C1       C        0.66080    0.43974    0.47190    1.000
    C2       C        0.52880    0.41202    0.48660    1.000
    H1       H        0.50690    0.38940    0.44630    1.000
    N1       N        0.43060    0.41547    0.55470    1.000
    C3       C        0.45950    0.44872    0.60880    1.000
    H2       H        0.38750    0.45230    0.65610    1.000
    C4       C        0.58920    0.47823    0.59950    1.000
    C5       C        0.69210    0.47300    0.53050    1.000
    H3       H        0.78390    0.49200    0.52300    1.000
    C6       C        0.76760    0.43579    0.39380    1.000
    C7       C        0.60890    0.51632    0.65860    1.000
    C8       C        0.14800    0.71064    0.83150    1.000
    C9       C        0.24560    0.71234    0.90440    1.000
    H4       H        0.28040    0.68540    0.92930    1.000
    C10      C        0.09640    0.66846    0.79200    1.000
    La2      La       0.56560    0.40879    0.20363    1.000
    O7       O        0.61030    0.53881    0.88950    1.000
    O8       O        0.75820    0.59375    0.83870    1.000
    O9       O        0.00590    0.47534    0.21020    1.000
    O10      O        0.76110    0.46137    0.15130    1.000
    O11      O        0.34460    0.36796    0.31600    1.000
    O12      O        0.51120    0.32957    0.23390    1.000
    C11      C        0.83920    0.56026    0.97190    1.000
    C12      C        0.97120    0.58798    0.98660    1.000
    H5       H        0.99310    0.61060    0.94630    1.000
    N2       N        0.06940    0.58453    0.05470    1.000
    C13      C        0.04050    0.55128    0.10880    1.000
    H6       H        0.11250    0.54770    0.15610    1.000
    C14      C        0.91080    0.52177    0.09950    1.000
    C15      C        0.80790    0.52700    0.03050    1.000
    H7       H        0.71610    0.50800    0.02300    1.000
    C16      C        0.73240    0.56421    0.89380    1.000
    C17      C        0.89110    0.48368    0.15860    1.000
    C18      C        0.35200    0.28936    0.33150    1.000
    C19      C        0.25440    0.28766    0.40440    1.000
    H8       H        0.21960    0.31460    0.42930    1.000
    C20      C        0.40360    0.33154    0.29200    1.000
    La3      La       0.06560    0.09121    0.29637    1.000
    O13      O        0.11030    0.96119    0.61050    1.000
    O14      O        0.25820    0.90625    0.66130    1.000
    O15      O        0.50590    0.02466    0.28980    1.000
    O16      O        0.26110    0.03863    0.34870    1.000
    O17      O        0.84460    0.13204    0.18400    1.000
    O18      O        0.01120    0.17043    0.26610    1.000
    C21      C        0.33920    0.93974    0.52810    1.000
    C22      C        0.47120    0.91202    0.51340    1.000
    H9       H        0.49310    0.88940    0.55370    1.000
    N3       N        0.56940    0.91547    0.44530    1.000
    C23      C        0.54050    0.94872    0.39120    1.000
    H10      H        0.61250    0.95230    0.34390    1.000
    C24      C        0.41080    0.97823    0.40050    1.000
    C25      C        0.30790    0.97300    0.46950    1.000
    H11      H        0.21610    0.99200    0.47700    1.000
    C26      C        0.23240    0.93579    0.60620    1.000
    C27      C        0.39110    0.01632    0.34140    1.000
    C28      C        0.85200    0.21064    0.16850    1.000
    C29      C        0.75440    0.21234    0.09560    1.000
    H12      H        0.71960    0.18540    0.07070    1.000
    C30      C        0.90360    0.16846    0.20800    1.000
    La4      La       0.43440    0.90879    0.79637    1.000
    O19      O        0.38970    0.03881    0.11050    1.000
    O20      O        0.24180    0.09375    0.16130    1.000
    O21      O        0.99410    0.97534    0.78980    1.000
    O22      O        0.23890    0.96137    0.84870    1.000
    O23      O        0.65540    0.86796    0.68400    1.000
    O24      O        0.48880    0.82957    0.76610    1.000
    C31      C        0.16080    0.06026    0.02810    1.000
    C32      C        0.02880    0.08798    0.01340    1.000
    H13      H        0.00690    0.11060    0.05370    1.000
    N4       N        0.93060    0.08453    0.94530    1.000
    C33      C        0.95950    0.05128    0.89120    1.000
    H14      H        0.88750    0.04770    0.84390    1.000
    C34      C        0.08920    0.02177    0.90050    1.000
    C35      C        0.19210    0.02700    0.96950    1.000
    H15      H        0.28390    0.00800    0.97700    1.000
    C36      C        0.26760    0.06421    0.10620    1.000
    C37      C        0.10890    0.98368    0.84140    1.000
    C38      C        0.64800    0.78936    0.66850    1.000
    C39      C        0.74560    0.78766    0.59560    1.000
    H16      H        0.78040    0.81460    0.57070    1.000
    C40      C        0.59640    0.83154    0.70800    1.000
    La5      La       0.06560    0.40879    0.29637    1.000
    O25      O        0.11030    0.53881    0.61050    1.000
    O26      O        0.25820    0.59375    0.66130    1.000
    O27      O        0.50590    0.47534    0.28980    1.000
    O28      O        0.26110    0.46137    0.34870    1.000
    O29      O        0.84460    0.36796    0.18400    1.000
    O30      O        0.01120    0.32957    0.26610    1.000
    C41      C        0.33920    0.56026    0.52810    1.000
    C42      C        0.47120    0.58798    0.51340    1.000
    H17      H        0.49310    0.61060    0.55370    1.000
    N5       N        0.56940    0.58453    0.44530    1.000
    C43      C        0.54050    0.55128    0.39120    1.000
    H18      H        0.61250    0.54770    0.34390    1.000
    C44      C        0.41080    0.52177    0.40050    1.000
    C45      C        0.30790    0.52700    0.46950    1.000
    H19      H        0.21610    0.50800    0.47700    1.000
    C46      C        0.23240    0.56421    0.60620    1.000
    C47      C        0.39110    0.48368    0.34140    1.000
    C48      C        0.85200    0.28936    0.16850    1.000
    C49      C        0.75440    0.28766    0.09560    1.000
    H20      H        0.71960    0.31460    0.07070    1.000
    C50      C        0.90360    0.33154    0.20800    1.000
    La6      La       0.43440    0.59121    0.79637    1.000
    O31      O        0.38970    0.46119    0.11050    1.000
    O32      O        0.24180    0.40625    0.16130    1.000
    O33      O        0.99410    0.52466    0.78980    1.000
    O34      O        0.23890    0.53863    0.84870    1.000
    O35      O        0.65540    0.63204    0.68400    1.000
    O36      O        0.48880    0.67043    0.76610    1.000
    C51      C        0.16080    0.43974    0.02810    1.000
    C52      C        0.02880    0.41202    0.01340    1.000
    H21      H        0.00690    0.38940    0.05370    1.000
    N6       N        0.93060    0.41547    0.94530    1.000
    C53      C        0.95950    0.44872    0.89120    1.000
    H22      H        0.88750    0.45230    0.84390    1.000
    C54      C        0.08920    0.47823    0.90050    1.000
    C55      C        0.19210    0.47300    0.96950    1.000
    H23      H        0.28390    0.49200    0.97700    1.000
    C56      C        0.26760    0.43579    0.10620    1.000
    C57      C        0.10890    0.51632    0.84140    1.000
    C58      C        0.64800    0.71064    0.66850    1.000
    C59      C        0.74560    0.71234    0.59560    1.000
    H24      H        0.78040    0.68540    0.57070    1.000
    C60      C        0.59640    0.66846    0.70800    1.000
    La7      La       0.93440    0.90879    0.70363    1.000
    O37      O        0.88970    0.03881    0.38950    1.000
    O38      O        0.74180    0.09375    0.33870    1.000
    O39      O        0.49410    0.97534    0.71020    1.000
    O40      O        0.73890    0.96137    0.65130    1.000
    O41      O        0.15540    0.86796    0.81600    1.000
    O42      O        0.98880    0.82957    0.73390    1.000
    C61      C        0.66080    0.06026    0.47190    1.000
    C62      C        0.52880    0.08798    0.48660    1.000
    H25      H        0.50690    0.11060    0.44630    1.000
    N7       N        0.43060    0.08453    0.55470    1.000
    C63      C        0.45950    0.05128    0.60880    1.000
    H26      H        0.38750    0.04770    0.65610    1.000
    C64      C        0.58920    0.02177    0.59950    1.000
    C65      C        0.69210    0.02700    0.53050    1.000
    H27      H        0.78390    0.00800    0.52300    1.000
    C66      C        0.76760    0.06421    0.39380    1.000
    C67      C        0.60890    0.98368    0.65860    1.000
    C68      C        0.14800    0.78936    0.83150    1.000
    C69      C        0.24560    0.78766    0.90440    1.000
    H28      H        0.28040    0.81460    0.92930    1.000
    C70      C        0.09640    0.83154    0.79200    1.000
    La8      La       0.56560    0.09121    0.20363    1.000
    O43      O        0.61030    0.96119    0.88950    1.000
    O44      O        0.75820    0.90625    0.83870    1.000
    O45      O        0.00590    0.02466    0.21020    1.000
    O46      O        0.76110    0.03863    0.15130    1.000
    O47      O        0.34460    0.13204    0.31600    1.000
    O48      O        0.51120    0.17043    0.23390    1.000
    C71      C        0.83920    0.93974    0.97190    1.000
    C72      C        0.97120    0.91202    0.98660    1.000
    H29      H        0.99310    0.88940    0.94630    1.000
    N8       N        0.06940    0.91547    0.05470    1.000
    C73      C        0.04050    0.94872    0.10880    1.000
    H30      H        0.11250    0.95230    0.15610    1.000
    C74      C        0.91080    0.97823    0.09950    1.000
    C75      C        0.80790    0.97300    0.03050    1.000
    H31      H        0.71610    0.99200    0.02300    1.000
    C76      C        0.73240    0.93579    0.89380    1.000
    C77      C        0.89110    0.01632    0.15860    1.000
    C78      C        0.35200    0.21064    0.33150    1.000
    C79      C        0.25440    0.21234    0.40440    1.000
    H32      H        0.21960    0.18540    0.42930    1.000
    C80      C        0.40360    0.16846    0.29200    1.000
    N9       N        0.29290    0.75000    0.94130    1.000
    C81      C        0.09770    0.75000    0.79530    1.000
    H33      H        0.02940    0.75000    0.74610    1.000
    N10      N        0.20710    0.25000    0.44130    1.000
    C82      C        0.40230    0.25000    0.29530    1.000
    H34      H        0.47060    0.25000    0.24610    1.000
    N11      N        0.70710    0.25000    0.05870    1.000
    C83      C        0.90230    0.25000    0.20470    1.000
    H35      H        0.97060    0.25000    0.25390    1.000
    N12      N        0.79290    0.75000    0.55870    1.000
    C84      C        0.59770    0.75000    0.70470    1.000
    H36      H        0.52940    0.75000    0.75390    1.000
