data_functionalizedCrystal
_audit_creation_method	'EQeq! by Chris Wilmer'
_symmetry_space_group_name_H-M	'P1'
_symmetry_Int_Tables_number	1
_symmetry_cell_setting	triclinic
loop_
_symmetry_equiv_pos_as_xyz
  x,y,z
_cell_length_a	16.804
_cell_length_b	16.228
_cell_length_c	26.461
_cell_angle_alpha	90
_cell_angle_beta	103.17
_cell_angle_gamma	90
loop_
_atom_site_label
_atom_site_type_symbol
_atom_site_fract_x
_atom_site_fract_y
_atom_site_fract_z
_atom_site_charge
Mof_Cd	Cd	0.52587	0.29612	0.2428	0.414
Mof_Cd	Cd	0.61475	0.55013	0.2457	0.503
Mof_Cd	Cd	0.87528	0.9554	0.24913	0.499
Mof_Cd	Cd	0.95813	0.20655	0.24826	0.415
Mof_O 	O 	0.7264	0.4938	0.29976	-0.269
Mof_O 	O 	0.679	0.6025	0.33287	-0.267
Mof_O 	O 	0.8726	0.14545	0.29645	-0.28
Mof_O 	O 	0.8857	0.0154	0.32549	-0.277
Mof_O 	O 	0.6149	0.3611	0.19765	-0.278
Mof_O 	O 	0.5878	0.4893	0.16807	-0.282
Mof_O 	O 	0.7644	0.0138	0.193	-0.243
Mof_O 	O 	0.8216	0.91	0.16147	-0.231
Mof_O 	O 	0.0501	0.2067	0.7258	-0.302
Mof_O 	O 	0.1685	0.15847	0.71729	-0.306
Mof_O 	O 	0.0046	0.5435	0.73621	-0.283
Mof_O 	O 	0.94913	0.42204	0.71638	-0.297
Mof_O 	O 	0.3257	0.34166	0.78784	-0.292
Mof_O 	O 	0.4378	0.2936	0.76853	-0.303
Mof_O 	O 	0.4872	0.9524	0.76167	-0.285
Mof_O 	O 	0.5398	0.0759	0.77502	-0.3
Mof_N 	N 	0.0053	0.4222	0.61155	-0.161
Mof_N 	N 	0.9676	0.3401	0.5347	-0.175
Mof_N 	N 	0.0496	0.2816	0.61231	-0.163
Mof_N 	N 	0.9313	0.4789	0.5375	-0.248
Mof_H 	H 	0.9362	0.5221	0.5568	0.158
Mof_N 	N 	0.0052	0.2013	0.54116	-0.256
Mof_H 	H 	0.026	0.1622	0.562	0.149
Mof_N 	N 	0.0866	0.3627	0.68531	-0.054
Mof_N 	N 	0.4694	0.2907	0.95657	-0.252
Mof_H 	H 	0.4389	0.3261	0.937	0.15
Mof_N 	N 	0.4361	0.2144	0.8829	-0.168
Mof_N 	N 	0.5263	0.1585	0.9589	-0.19
Mof_N 	N 	0.4896	0.0782	0.88114	-0.171
Mof_N 	N 	0.5715	0.0233	0.9534	-0.24
Mof_H 	H 	0.571	0.9797	0.9323	0.131
Mof_N 	N 	0.4057	0.1363	0.80881	-0.056
Mof_C 	C 	0.7267	0.5414	0.33774	0.313
Mof_C 	C 	0.7839	0.5252	0.38837	-0.14
Mof_C 	C 	0.8017	0.5864	0.4265	0.104
Mof_H 	H 	0.7799	0.6389	0.4195	0.006
Mof_C 	C 	0.8517	0.569	0.4745	-0.188
Mof_H 	H 	0.8635	0.6106	0.4992	0.108
Mof_C 	C 	0.8849	0.4905	0.4868	0.23
Mof_C 	C 	0.8698	0.4306	0.44824	-0.207
Mof_H 	H 	0.8924	0.3784	0.4549	0.122
Mof_C 	C 	0.8207	0.449	0.39973	0.111
Mof_H 	H 	0.8123	0.4088	0.3741	0.013
Mof_C 	C 	0.9697	0.4108	0.56137	0.214
Mof_C 	C 	0.0074	0.2781	0.5629	0.202
Mof_C 	C 	0.0453	0.3558	0.63435	0.169
Mof_C 	C 	0.9737	0.1782	0.48974	0.215
Mof_C 	C 	0.9725	0.2296	0.44795	-0.22
Mof_H 	H 	0.992	0.2833	0.4537	0.113
Mof_C 	C 	0.9426	0.2023	0.3976	0.114
Mof_H 	H 	0.9403	0.2385	0.3701	-0.001
Mof_C 	C 	0.9164	0.1225	0.38772	-0.153
Mof_C 	C 	0.9174	0.0701	0.42948	0.115
Mof_H 	H 	0.9001	0.0158	0.4235	0.006
Mof_C 	C 	0.9438	0.0981	0.47978	-0.224
Mof_H 	H 	0.9416	0.0633	0.5073	0.114
Mof_C 	C 	0.8897	0.0931	0.33227	0.329
Mof_C 	C 	0.0897	0.4441	0.70957	-0.289
Mof_H 	H 	0.1057	0.4846	0.6868	0.146
Mof_H 	H 	0.1312	0.4437	0.7417	0.137
Mof_C 	C 	0.0091	0.4701	0.72103	0.365
Mof_C 	C 	0.1494	0.3015	0.70535	-0.302
Mof_H 	H 	0.1837	0.3226	0.7372	0.143
Mof_H 	H 	0.1835	0.2954	0.6805	0.147
Mof_C 	C 	0.1191	0.217	0.71628	0.386
Mof_C 	C 	0.5897	0.413	0.16239	0.336
Mof_C 	C 	0.5593	0.3804	0.10775	-0.151
Mof_C 	C 	0.5808	0.3028	0.0949	0.11
Mof_H 	H 	0.6148	0.2707	0.1199	0.006
Mof_C 	C 	0.5528	0.2714	0.0456	-0.216
Mof_H 	H 	0.5687	0.219	0.0377	0.115
Mof_C 	C 	0.5014	0.3174	0.00761	0.207
Mof_C 	C 	0.4788	0.3958	0.02	-0.217
Mof_H 	H 	0.4436	0.4271	0.995	0.111
Mof_C 	C 	0.5085	0.4278	0.0694	0.104
Mof_H 	H 	0.4944	0.4811	0.0771	0.01
Mof_C 	C 	0.479	0.2175	0.93299	0.177
Mof_C 	C 	0.5273	0.0901	0.93112	0.164
Mof_C 	C 	0.4461	0.1432	0.85974	0.139
Mof_C 	C 	0.6181	0.0127	0.00444	0.222
Mof_C 	C 	0.6026	0.0563	0.0479	-0.522
Mof_H 	H 	0.5594	0.0934	0.0438	0.197
Mof_C 	C 	0.6531	0.0423	0.0962	-0.125
Mof_H 	H 	0.6455	0.0725	0.1245	0.07
Mof_C 	C 	0.7157	0.9834	0.10304	0.187
Mof_C 	C 	0.7228	0.9384	0.061	-2.274
Mof_H 	H 	0.7622	0.8972	0.0652	0.686
Mof_C 	C 	0.6735	0.9518	0.0122	-1.675
Mof_H 	H 	0.6788	0.9184	0.9846	0.553
Mof_C 	C 	0.7704	0.9685	0.15516	0.183
Mof_C 	C 	0.4022	0.0549	0.78499	-0.296
Mof_H 	H 	0.3607	0.0553	0.7528	0.136
Mof_H 	H 	0.3856	0.015	0.8079	0.136
Mof_C 	C 	0.4816	0.0276	0.77376	0.371
Mof_C 	C 	0.3415	0.1967	0.78986	-0.303
Mof_H 	H 	0.3064	0.1998	0.8143	0.143
Mof_H 	H 	0.3084	0.1775	0.757	0.143
Mof_C 	C 	0.3723	0.282	0.78228	0.378
Mof_C 	C 	0.6565	0.0764	0.0358	0.404
Mof_H 	H 	0.6529	0.1304	0.0238	-0.083
Mof_C 	C 	0.6996	0.0578	0.0847	0.054
Mof_H 	H 	0.7192	0.1016	0.1067	0.033
Mof_C 	C 	0.6909	0.9124	0.0686	2.062
Mof_H 	H 	0.7058	0.8587	0.0788	-0.68
Mof_C 	C 	0.6449	0.931	0.0211	1.64
Mof_H 	H 	0.6296	0.8877	0.9977	-0.526
Mof_Cd	Cd	0.47413	0.79612	0.2572	0.415
Mof_Cd	Cd	0.38525	0.05013	0.2543	0.503
Mof_Cd	Cd	0.12472	0.4554	0.25087	0.502
Mof_Cd	Cd	0.04187	0.70655	0.25174	0.416
Mof_O 	O 	0.2736	0.9938	0.20024	-0.266
Mof_O 	O 	0.321	0.1025	0.16713	-0.266
Mof_O 	O 	0.1274	0.64545	0.20355	-0.279
Mof_O 	O 	0.1143	0.5154	0.17451	-0.277
Mof_O 	O 	0.3851	0.8611	0.30235	-0.278
Mof_O 	O 	0.4122	0.9893	0.33193	-0.282
Mof_O 	O 	0.2356	0.5138	0.307	-0.244
Mof_O 	O 	0.1784	0.41	0.33853	-0.231
Mof_O 	O 	0.9499	0.7067	0.7742	-0.302
Mof_O 	O 	0.8315	0.65847	0.78271	-0.306
Mof_O 	O 	0.9954	0.0435	0.76379	-0.279
Mof_O 	O 	0.05087	0.92204	0.78362	-0.293
Mof_O 	O 	0.6743	0.84166	0.71216	-0.292
Mof_O 	O 	0.5622	0.7936	0.73147	-0.303
Mof_O 	O 	0.5128	0.4524	0.73833	-0.285
Mof_O 	O 	0.4602	0.5759	0.72498	-0.3
Mof_N 	N 	0.9947	0.9222	0.88845	-0.163
Mof_N 	N 	0.0324	0.8401	0.9653	-0.175
Mof_N 	N 	0.9504	0.7816	0.88769	-0.163
Mof_N 	N 	0.0687	0.9789	0.9625	-0.248
Mof_H 	H 	0.0638	0.0221	0.9432	0.156
Mof_N 	N 	0.9948	0.7013	0.95884	-0.255
Mof_H 	H 	0.974	0.6622	0.938	0.15
Mof_N 	N 	0.9134	0.8627	0.81469	-0.055
Mof_N 	N 	0.5306	0.7907	0.54343	-0.252
Mof_H 	H 	0.5611	0.8261	0.563	0.15
Mof_N 	N 	0.5639	0.7144	0.6171	-0.168
Mof_N 	N 	0.4737	0.6585	0.5411	-0.19
Mof_N 	N 	0.5104	0.5782	0.61886	-0.172
Mof_N 	N 	0.4285	0.5233	0.5466	-0.241
Mof_H 	H 	0.429	0.4797	0.5677	0.131
Mof_N 	N 	0.5943	0.6363	0.69119	-0.056
Mof_C 	C 	0.2733	0.0414	0.16226	0.313
Mof_C 	C 	0.2161	0.0252	0.11163	-0.145
Mof_C 	C 	0.1983	0.0864	0.0735	0.108
Mof_H 	H 	0.2201	0.1389	0.0805	0.004
Mof_C 	C 	0.1483	0.069	0.0255	-0.196
Mof_H 	H 	0.1365	0.1106	0.0008	0.11
Mof_C 	C 	0.1151	0.9905	0.0132	0.235
Mof_C 	C 	0.1302	0.9306	0.05176	-0.211
Mof_H 	H 	0.1076	0.8784	0.0451	0.123
Mof_C 	C 	0.1793	0.949	0.10027	0.117
Mof_H 	H 	0.1877	0.9088	0.1259	0.011
Mof_C 	C 	0.0303	0.9108	0.93863	0.216
Mof_C 	C 	0.9926	0.7781	0.9371	0.202
Mof_C 	C 	0.9547	0.8558	0.86565	0.169
Mof_C 	C 	0.0263	0.6782	0.01026	0.214
Mof_C 	C 	0.0275	0.7296	0.05205	-0.22
Mof_H 	H 	0.008	0.7833	0.0463	0.114
Mof_C 	C 	0.0574	0.7023	0.1024	0.114
Mof_H 	H 	0.0597	0.7385	0.1299	-0.001
Mof_C 	C 	0.0836	0.6225	0.11228	-0.154
Mof_C 	C 	0.0826	0.5701	0.07052	0.115
Mof_H 	H 	0.0999	0.5158	0.0765	0.005
Mof_C 	C 	0.0562	0.5981	0.02022	-0.225
Mof_H 	H 	0.0584	0.5633	0.9927	0.114
Mof_C 	C 	0.1103	0.5931	0.16773	0.329
Mof_C 	C 	0.9103	0.9441	0.79043	-0.286
Mof_H 	H 	0.8943	0.9846	0.8132	0.144
Mof_H 	H 	0.8688	0.9437	0.7583	0.135
Mof_C 	C 	0.9909	0.9701	0.77897	0.358
Mof_C 	C 	0.8506	0.8015	0.79465	-0.302
Mof_H 	H 	0.8163	0.8226	0.7628	0.143
Mof_H 	H 	0.8165	0.7954	0.8195	0.147
Mof_C 	C 	0.8809	0.717	0.78372	0.386
Mof_C 	C 	0.4103	0.913	0.33761	0.336
Mof_C 	C 	0.4407	0.8804	0.39225	-0.151
Mof_C 	C 	0.4192	0.8028	0.4051	0.11
Mof_H 	H 	0.3852	0.7707	0.3801	0.006
Mof_C 	C 	0.4472	0.7714	0.4544	-0.216
Mof_H 	H 	0.4313	0.719	0.4623	0.115
Mof_C 	C 	0.4986	0.8174	0.49239	0.206
Mof_C 	C 	0.5212	0.8958	0.48	-0.216
Mof_H 	H 	0.5564	0.9271	0.505	0.11
Mof_C 	C 	0.4915	0.9278	0.4306	0.104
Mof_H 	H 	0.5056	0.9811	0.4229	0.01
Mof_C 	C 	0.521	0.7175	0.56701	0.177
Mof_C 	C 	0.4727	0.5901	0.56888	0.164
Mof_C 	C 	0.5539	0.6432	0.64026	0.138
Mof_C 	C 	0.3819	0.5127	0.49556	0.224
Mof_C 	C 	0.3974	0.5563	0.4521	-0.532
Mof_H 	H 	0.4406	0.5934	0.4562	0.2
Mof_C 	C 	0.3469	0.5423	0.4038	-0.13
Mof_H 	H 	0.3545	0.5725	0.3755	0.072
Mof_C 	C 	0.2843	0.4834	0.39696	0.196
Mof_C 	C 	0.2772	0.4384	0.439	-2.336
Mof_H 	H 	0.2378	0.3972	0.4348	0.704
Mof_C 	C 	0.3265	0.4518	0.4878	-1.72
Mof_H 	H 	0.3212	0.4184	0.5154	0.567
Mof_C 	C 	0.2296	0.4685	0.34484	0.181
Mof_C 	C 	0.5978	0.5549	0.71501	-0.296
Mof_H 	H 	0.6393	0.5553	0.7472	0.136
Mof_H 	H 	0.6144	0.515	0.6921	0.136
Mof_C 	C 	0.5184	0.5276	0.72624	0.371
Mof_C 	C 	0.6585	0.6967	0.71014	-0.303
Mof_H 	H 	0.6936	0.6998	0.6857	0.143
Mof_H 	H 	0.6916	0.6775	0.743	0.143
Mof_C 	C 	0.6277	0.782	0.71772	0.378
Mof_C 	C 	0.3435	0.5764	0.4642	0.416
Mof_H 	H 	0.3471	0.6304	0.4762	-0.086
Mof_C 	C 	0.3004	0.5578	0.4153	0.055
Mof_H 	H 	0.2808	0.6016	0.3933	0.033
Mof_C 	C 	0.3091	0.4124	0.4314	2.118
Mof_H 	H 	0.2942	0.3587	0.4212	-0.699
Mof_C 	C 	0.3551	0.431	0.4789	1.688
Mof_H 	H 	0.3704	0.3877	0.5023	-0.541
Mof_Cd	Cd	0.47413	0.70388	0.7572	0.415
Mof_Cd	Cd	0.38525	0.44987	0.7543	0.504
Mof_Cd	Cd	0.12472	0.0446	0.75087	0.5
Mof_Cd	Cd	0.04187	0.79345	0.75174	0.416
Mof_O 	O 	0.2736	0.5062	0.70024	-0.268
Mof_O 	O 	0.321	0.3975	0.66713	-0.266
Mof_O 	O 	0.1274	0.85455	0.70355	-0.279
Mof_O 	O 	0.1143	0.9846	0.67451	-0.276
Mof_O 	O 	0.3851	0.6389	0.80235	-0.278
Mof_O 	O 	0.4122	0.5107	0.83193	-0.282
Mof_O 	O 	0.2356	0.9862	0.807	-0.243
Mof_O 	O 	0.1784	0.09	0.83853	-0.231
Mof_O 	O 	0.9499	0.7933	0.2742	-0.302
Mof_O 	O 	0.8315	0.84153	0.28271	-0.306
Mof_O 	O 	0.9954	0.4565	0.26379	-0.283
Mof_O 	O 	0.05087	0.57796	0.28362	-0.297
Mof_O 	O 	0.6743	0.65834	0.21216	-0.292
Mof_O 	O 	0.5622	0.7064	0.23147	-0.303
Mof_O 	O 	0.5128	0.0476	0.23833	-0.285
Mof_O 	O 	0.4602	0.9241	0.22498	-0.3
Mof_N 	N 	0.9947	0.5778	0.38845	-0.161
Mof_N 	N 	0.0324	0.6599	0.4653	-0.175
Mof_N 	N 	0.9504	0.7184	0.38769	-0.163
Mof_N 	N 	0.0687	0.5211	0.4625	-0.248
Mof_H 	H 	0.0638	0.4779	0.4432	0.158
Mof_N 	N 	0.9948	0.7987	0.45884	-0.256
Mof_H 	H 	0.974	0.8378	0.438	0.149
Mof_N 	N 	0.9134	0.6373	0.31469	-0.054
Mof_N 	N 	0.5306	0.7093	0.04343	-0.252
Mof_H 	H 	0.5611	0.6739	0.063	0.15
Mof_N 	N 	0.5639	0.7856	0.1171	-0.168
Mof_N 	N 	0.4737	0.8415	0.0411	-0.19
Mof_N 	N 	0.5104	0.9218	0.11886	-0.171
Mof_N 	N 	0.4285	0.9767	0.0466	-0.24
Mof_H 	H 	0.429	0.0203	0.0677	0.131
Mof_N 	N 	0.5943	0.8637	0.19119	-0.056
Mof_C 	C 	0.2733	0.4586	0.66226	0.313
Mof_C 	C 	0.2161	0.4748	0.61163	-0.14
Mof_C 	C 	0.1983	0.4136	0.5735	0.104
Mof_H 	H 	0.2201	0.3611	0.5805	0.006
Mof_C 	C 	0.1483	0.431	0.5255	-0.188
Mof_H 	H 	0.1365	0.3894	0.5008	0.108
Mof_C 	C 	0.1151	0.5095	0.5132	0.23
Mof_C 	C 	0.1302	0.5694	0.55176	-0.207
Mof_H 	H 	0.1076	0.6216	0.5451	0.122
Mof_C 	C 	0.1793	0.551	0.60027	0.111
Mof_H 	H 	0.1877	0.5912	0.6259	0.013
Mof_C 	C 	0.0303	0.5892	0.43863	0.214
Mof_C 	C 	0.9926	0.7219	0.4371	0.202
Mof_C 	C 	0.9547	0.6442	0.36565	0.169
Mof_C 	C 	0.0263	0.8218	0.51026	0.215
Mof_C 	C 	0.0275	0.7704	0.55205	-0.22
Mof_H 	H 	0.008	0.7167	0.5463	0.113
Mof_C 	C 	0.0574	0.7977	0.6024	0.114
Mof_H 	H 	0.0597	0.7615	0.6299	-0.001
Mof_C 	C 	0.0836	0.8775	0.61228	-0.153
Mof_C 	C 	0.0826	0.9299	0.57052	0.115
Mof_H 	H 	0.0999	0.9842	0.5765	0.006
Mof_C 	C 	0.0562	0.9019	0.52022	-0.224
Mof_H 	H 	0.0584	0.9367	0.4927	0.114
Mof_C 	C 	0.1103	0.9069	0.66773	0.329
Mof_C 	C 	0.9103	0.5559	0.29043	-0.289
Mof_H 	H 	0.8943	0.5154	0.3132	0.146
Mof_H 	H 	0.8688	0.5563	0.2583	0.137
Mof_C 	C 	0.9909	0.5299	0.27897	0.365
Mof_C 	C 	0.8506	0.6985	0.29465	-0.302
Mof_H 	H 	0.8163	0.6774	0.2628	0.143
Mof_H 	H 	0.8165	0.7046	0.3195	0.147
Mof_C 	C 	0.8809	0.783	0.28372	0.386
Mof_C 	C 	0.4103	0.587	0.83761	0.336
Mof_C 	C 	0.4407	0.6196	0.89225	-0.151
Mof_C 	C 	0.4192	0.6972	0.9051	0.11
Mof_H 	H 	0.3852	0.7293	0.8801	0.006
Mof_C 	C 	0.4472	0.7286	0.9544	-0.216
Mof_H 	H 	0.4313	0.781	0.9623	0.115
Mof_C 	C 	0.4986	0.6826	0.99239	0.207
Mof_C 	C 	0.5212	0.6042	0.98	-0.217
Mof_H 	H 	0.5564	0.5729	0.005	0.111
Mof_C 	C 	0.4915	0.5722	0.9306	0.104
Mof_H 	H 	0.5056	0.5189	0.9229	0.01
Mof_C 	C 	0.521	0.7825	0.06701	0.177
Mof_C 	C 	0.4727	0.9099	0.06888	0.164
Mof_C 	C 	0.5539	0.8568	0.14026	0.139
Mof_C 	C 	0.3819	0.9873	0.99556	0.222
Mof_C 	C 	0.3974	0.9437	0.9521	-0.522
Mof_H 	H 	0.4406	0.9066	0.9562	0.197
Mof_C 	C 	0.3469	0.9577	0.9038	-0.125
Mof_H 	H 	0.3545	0.9275	0.8755	0.07
Mof_C 	C 	0.2843	0.0166	0.89696	0.187
Mof_C 	C 	0.2772	0.0616	0.939	-2.274
Mof_H 	H 	0.2378	0.1028	0.9348	0.686
Mof_C 	C 	0.3265	0.0482	0.9878	-1.675
Mof_H 	H 	0.3212	0.0816	0.0154	0.553
Mof_C 	C 	0.2296	0.0315	0.84484	0.183
Mof_C 	C 	0.5978	0.9451	0.21501	-0.296
Mof_H 	H 	0.6393	0.9447	0.2472	0.136
Mof_H 	H 	0.6144	0.985	0.1921	0.136
Mof_C 	C 	0.5184	0.9724	0.22624	0.371
Mof_C 	C 	0.6585	0.8033	0.21014	-0.303
Mof_H 	H 	0.6936	0.8002	0.1857	0.143
Mof_H 	H 	0.6916	0.8225	0.243	0.143
Mof_C 	C 	0.6277	0.718	0.21772	0.378
Mof_C 	C 	0.3435	0.9236	0.9642	0.404
Mof_H 	H 	0.3471	0.8696	0.9762	-0.083
Mof_C 	C 	0.3004	0.9422	0.9153	0.054
Mof_H 	H 	0.2808	0.8984	0.8933	0.033
Mof_C 	C 	0.3091	0.0876	0.9314	2.062
Mof_H 	H 	0.2942	0.1413	0.9212	-0.68
Mof_C 	C 	0.3551	0.069	0.9789	1.64
Mof_H 	H 	0.3704	0.1123	0.0023	-0.526
Mof_Cd	Cd	0.52587	0.20388	0.7428	0.415
Mof_Cd	Cd	0.61475	0.94987	0.7457	0.503
Mof_Cd	Cd	0.87528	0.5446	0.74913	0.502
Mof_Cd	Cd	0.95813	0.29345	0.74826	0.416
Mof_O 	O 	0.7264	0.0062	0.79976	-0.266
Mof_O 	O 	0.679	0.8975	0.83287	-0.266
Mof_O 	O 	0.8726	0.35455	0.79645	-0.279
Mof_O 	O 	0.8857	0.4846	0.82549	-0.277
Mof_O 	O 	0.6149	0.1389	0.69765	-0.278
Mof_O 	O 	0.5878	0.0107	0.66807	-0.282
Mof_O 	O 	0.7644	0.4862	0.693	-0.244
Mof_O 	O 	0.8216	0.59	0.66147	-0.231
Mof_O 	O 	0.0501	0.2933	0.2258	-0.302
Mof_O 	O 	0.1685	0.34153	0.21729	-0.306
Mof_O 	O 	0.0046	0.9565	0.23621	-0.279
Mof_O 	O 	0.94913	0.07796	0.21638	-0.293
Mof_O 	O 	0.3257	0.15834	0.28784	-0.292
Mof_O 	O 	0.4378	0.2064	0.26853	-0.303
Mof_O 	O 	0.4872	0.5476	0.26167	-0.285
Mof_O 	O 	0.5398	0.4241	0.27502	-0.3
Mof_N 	N 	0.0053	0.0778	0.11155	-0.163
Mof_N 	N 	0.9676	0.1599	0.0347	-0.175
Mof_N 	N 	0.0496	0.2184	0.11231	-0.163
Mof_N 	N 	0.9313	0.0211	0.0375	-0.248
Mof_H 	H 	0.9362	0.9779	0.0568	0.156
Mof_N 	N 	0.0052	0.2987	0.04116	-0.255
Mof_H 	H 	0.026	0.3378	0.062	0.15
Mof_N 	N 	0.0866	0.1373	0.18531	-0.055
Mof_N 	N 	0.4694	0.2093	0.45657	-0.252
Mof_H 	H 	0.4389	0.1739	0.437	0.15
Mof_N 	N 	0.4361	0.2856	0.3829	-0.168
Mof_N 	N 	0.5263	0.3415	0.4589	-0.19
Mof_N 	N 	0.4896	0.4218	0.38114	-0.172
Mof_N 	N 	0.5715	0.4767	0.4534	-0.241
Mof_H 	H 	0.571	0.5203	0.4323	0.131
Mof_N 	N 	0.4057	0.3637	0.30881	-0.056
Mof_C 	C 	0.7267	0.9586	0.83774	0.313
Mof_C 	C 	0.7839	0.9748	0.88837	-0.145
Mof_C 	C 	0.8017	0.9136	0.9265	0.108
Mof_H 	H 	0.7799	0.8611	0.9195	0.004
Mof_C 	C 	0.8517	0.931	0.9745	-0.196
Mof_H 	H 	0.8635	0.8894	0.9992	0.11
Mof_C 	C 	0.8849	0.0095	0.9868	0.235
Mof_C 	C 	0.8698	0.0694	0.94824	-0.211
Mof_H 	H 	0.8924	0.1216	0.9549	0.123
Mof_C 	C 	0.8207	0.051	0.89973	0.117
Mof_H 	H 	0.8123	0.0912	0.8741	0.011
Mof_C 	C 	0.9697	0.0892	0.06137	0.216
Mof_C 	C 	0.0074	0.2219	0.0629	0.202
Mof_C 	C 	0.0453	0.1442	0.13435	0.169
Mof_C 	C 	0.9737	0.3218	0.98974	0.214
Mof_C 	C 	0.9725	0.2704	0.94795	-0.22
Mof_H 	H 	0.992	0.2167	0.9537	0.114
Mof_C 	C 	0.9426	0.2977	0.8976	0.114
Mof_H 	H 	0.9403	0.2615	0.8701	-0.001
Mof_C 	C 	0.9164	0.3775	0.88772	-0.154
Mof_C 	C 	0.9174	0.4299	0.92948	0.115
Mof_H 	H 	0.9001	0.4842	0.9235	0.005
Mof_C 	C 	0.9438	0.4019	0.97978	-0.225
Mof_H 	H 	0.9416	0.4367	0.0073	0.114
Mof_C 	C 	0.8897	0.4069	0.83227	0.329
Mof_C 	C 	0.0897	0.0559	0.20957	-0.286
Mof_H 	H 	0.1057	0.0154	0.1868	0.144
Mof_H 	H 	0.1312	0.0563	0.2417	0.135
Mof_C 	C 	0.0091	0.0299	0.22103	0.358
Mof_C 	C 	0.1494	0.1985	0.20535	-0.302
Mof_H 	H 	0.1837	0.1774	0.2372	0.143
Mof_H 	H 	0.1835	0.2046	0.1805	0.147
Mof_C 	C 	0.1191	0.283	0.21628	0.386
Mof_C 	C 	0.5897	0.087	0.66239	0.336
Mof_C 	C 	0.5593	0.1196	0.60775	-0.151
Mof_C 	C 	0.5808	0.1972	0.5949	0.11
Mof_H 	H 	0.6148	0.2293	0.6199	0.006
Mof_C 	C 	0.5528	0.2286	0.5456	-0.216
Mof_H 	H 	0.5687	0.281	0.5377	0.115
Mof_C 	C 	0.5014	0.1826	0.50761	0.206
Mof_C 	C 	0.4788	0.1042	0.52	-0.216
Mof_H 	H 	0.4436	0.0729	0.495	0.11
Mof_C 	C 	0.5085	0.0722	0.5694	0.104
Mof_H 	H 	0.4944	0.0189	0.5771	0.01
Mof_C 	C 	0.479	0.2825	0.43299	0.177
Mof_C 	C 	0.5273	0.4099	0.43112	0.164
Mof_C 	C 	0.4461	0.3568	0.35974	0.138
Mof_C 	C 	0.6181	0.4873	0.50444	0.224
Mof_C 	C 	0.6026	0.4437	0.5479	-0.532
Mof_H 	H 	0.5594	0.4066	0.5438	0.2
Mof_C 	C 	0.6531	0.4577	0.5962	-0.13
Mof_H 	H 	0.6455	0.4275	0.6245	0.072
Mof_C 	C 	0.7157	0.5166	0.60304	0.196
Mof_C 	C 	0.7228	0.5616	0.561	-2.336
Mof_H 	H 	0.7622	0.6028	0.5652	0.704
Mof_C 	C 	0.6735	0.5482	0.5122	-1.72
Mof_H 	H 	0.6788	0.5816	0.4846	0.567
Mof_C 	C 	0.7704	0.5315	0.65516	0.181
Mof_C 	C 	0.4022	0.4451	0.28499	-0.296
Mof_H 	H 	0.3607	0.4447	0.2528	0.136
Mof_H 	H 	0.3856	0.485	0.3079	0.136
Mof_C 	C 	0.4816	0.4724	0.27376	0.371
Mof_C 	C 	0.3415	0.3033	0.28986	-0.303
Mof_H 	H 	0.3064	0.3002	0.3143	0.143
Mof_H 	H 	0.3084	0.3225	0.257	0.143
Mof_C 	C 	0.3723	0.218	0.28228	0.378
Mof_C 	C 	0.6565	0.4236	0.5358	0.416
Mof_H 	H 	0.6529	0.3696	0.5238	-0.086
Mof_C 	C 	0.6996	0.4422	0.5847	0.055
Mof_H 	H 	0.7192	0.3984	0.6067	0.033
Mof_C 	C 	0.6909	0.5876	0.5686	2.118
Mof_H 	H 	0.7058	0.6413	0.5788	-0.699
Mof_C 	C 	0.6449	0.569	0.5211	1.688
Mof_H 	H 	0.6296	0.6123	0.4977	-0.541
_end
