# CIF file generated by openbabel 3.1.0, see https://openbabel.org
data_I
_chemical_name_common 'image0'
_cell_length_a 13.565
_cell_length_b 13.565
_cell_length_c 15.503
_cell_angle_alpha 90
_cell_angle_beta 90
_cell_angle_gamma 90
_space_group_name_H-M_alt 'P 1'
_space_group_name_Hall 'P 1'
loop_
    _symmetry_equiv_pos_as_xyz
    x,y,z
loop_
    _atom_site_label
    _atom_site_type_symbol
    _atom_site_fract_x
    _atom_site_fract_y
    _atom_site_fract_z
    _atom_site_occupancy
    S1       S        0.22329    0.28493    0.10762    1.000
    O1       O        0.30710    0.10630    0.29000    1.000
    O2       O        0.35200    0.11390    0.15560    1.000
    O3       O        0.02630    0.49780    0.12280    1.000
    O4       O        0.12090    0.45260    0.01530    1.000
    C1       C        0.23040    0.22550    0.20440    1.000
    C2       C        0.16680    0.26350    0.26250    1.000
    H1       H        0.15810    0.23840    0.31780    1.000
    C3       C        0.11470    0.34620    0.22950    1.000
    H2       H        0.07030    0.38340    0.26150    1.000
    C4       C        0.13710    0.36450    0.14660    1.000
    C5       C        0.29840    0.14390    0.21670    1.000
    C6       C        0.09320    0.44300    0.09030    1.000
    S2       S        0.77671    0.71507    0.60762    1.000
    O5       O        0.69290    0.89370    0.79000    1.000
    O6       O        0.64800    0.88610    0.65560    1.000
    O7       O        0.97370    0.50220    0.62280    1.000
    O8       O        0.87910    0.54740    0.51530    1.000
    C7       C        0.76960    0.77450    0.70440    1.000
    C8       C        0.83320    0.73650    0.76250    1.000
    H3       H        0.84190    0.76160    0.81780    1.000
    C9       C        0.88530    0.65380    0.72950    1.000
    H4       H        0.92970    0.61660    0.76150    1.000
    C10      C        0.86290    0.63550    0.64660    1.000
    C11      C        0.70160    0.85610    0.71670    1.000
    C12      C        0.90680    0.55700    0.59030    1.000
    S3       S        0.71507    0.22329    0.35762    1.000
    O9       O        0.89370    0.30710    0.54000    1.000
    O10      O        0.88610    0.35200    0.40560    1.000
    O11      O        0.50220    0.02630    0.37280    1.000
    O12      O        0.54740    0.12090    0.26530    1.000
    C13      C        0.77450    0.23040    0.45440    1.000
    C14      C        0.73650    0.16680    0.51250    1.000
    H5       H        0.76160    0.15810    0.56780    1.000
    C15      C        0.65380    0.11470    0.47950    1.000
    H6       H        0.61660    0.07030    0.51150    1.000
    C16      C        0.63550    0.13710    0.39660    1.000
    C17      C        0.85610    0.29840    0.46670    1.000
    C18      C        0.55700    0.09320    0.34030    1.000
    S4       S        0.28493    0.77671    0.85762    1.000
    O13      O        0.10630    0.69290    0.04000    1.000
    O14      O        0.11390    0.64800    0.90560    1.000
    O15      O        0.49780    0.97370    0.87280    1.000
    O16      O        0.45260    0.87910    0.76530    1.000
    C19      C        0.22550    0.76960    0.95440    1.000
    C20      C        0.26350    0.83320    0.01250    1.000
    H7       H        0.23840    0.84190    0.06780    1.000
    C21      C        0.34620    0.88530    0.97950    1.000
    H8       H        0.38340    0.92970    0.01150    1.000
    C22      C        0.36450    0.86290    0.89660    1.000
    C23      C        0.14390    0.70160    0.96670    1.000
    C24      C        0.44300    0.90680    0.84030    1.000
    S5       S        0.77671    0.28493    0.89238    1.000
    O17      O        0.69290    0.10630    0.71000    1.000
    O18      O        0.64800    0.11390    0.84440    1.000
    O19      O        0.97370    0.49780    0.87720    1.000
    O20      O        0.87910    0.45260    0.98470    1.000
    C25      C        0.76960    0.22550    0.79560    1.000
    C26      C        0.83320    0.26350    0.73750    1.000
    H9       H        0.84190    0.23840    0.68220    1.000
    C27      C        0.88530    0.34620    0.77050    1.000
    H10      H        0.92970    0.38340    0.73850    1.000
    C28      C        0.86290    0.36450    0.85340    1.000
    C29      C        0.70160    0.14390    0.78330    1.000
    C30      C        0.90680    0.44300    0.90970    1.000
    S6       S        0.22329    0.71507    0.39238    1.000
    O21      O        0.30710    0.89370    0.21000    1.000
    O22      O        0.35200    0.88610    0.34440    1.000
    O23      O        0.02630    0.50220    0.37720    1.000
    O24      O        0.12090    0.54740    0.48470    1.000
    C31      C        0.23040    0.77450    0.29560    1.000
    C32      C        0.16680    0.73650    0.23750    1.000
    H11      H        0.15810    0.76160    0.18220    1.000
    C33      C        0.11470    0.65380    0.27050    1.000
    H12      H        0.07030    0.61660    0.23850    1.000
    C34      C        0.13710    0.63550    0.35340    1.000
    C35      C        0.29840    0.85610    0.28330    1.000
    C36      C        0.09320    0.55700    0.40970    1.000
    S7       S        0.28493    0.22329    0.64238    1.000
    O25      O        0.10630    0.30710    0.46000    1.000
    O26      O        0.11390    0.35200    0.59440    1.000
    O27      O        0.49780    0.02630    0.62720    1.000
    O28      O        0.45260    0.12090    0.73470    1.000
    C37      C        0.22550    0.23040    0.54560    1.000
    C38      C        0.26350    0.16680    0.48750    1.000
    H13      H        0.23840    0.15810    0.43220    1.000
    C39      C        0.34620    0.11470    0.52050    1.000
    H14      H        0.38340    0.07030    0.48850    1.000
    C40      C        0.36450    0.13710    0.60340    1.000
    C41      C        0.14390    0.29840    0.53330    1.000
    C42      C        0.44300    0.09320    0.65970    1.000
    S8       S        0.71507    0.77671    0.14238    1.000
    O29      O        0.89370    0.69290    0.96000    1.000
    O30      O        0.88610    0.64800    0.09440    1.000
    O31      O        0.50220    0.97370    0.12720    1.000
    O32      O        0.54740    0.87910    0.23470    1.000
    C43      C        0.77450    0.76960    0.04560    1.000
    C44      C        0.73650    0.83320    0.98750    1.000
    H15      H        0.76160    0.84190    0.93220    1.000
    C45      C        0.65380    0.88530    0.02050    1.000
    H16      H        0.61660    0.92970    0.98850    1.000
    C46      C        0.63550    0.86290    0.10340    1.000
    C47      C        0.85610    0.70160    0.03330    1.000
    C48      C        0.55700    0.90680    0.15970    1.000
    In1      In       0.42366    0.00000    0.25000    1.000
    In2      In       0.57634    0.00000    0.75000    1.000
    In3      In       0.00000    0.42366    0.50000    1.000
    In4      In       0.00000    0.57634    0.00000    1.000
