data_functionalizedCrystal
_audit_creation_method	'EQeq! by Chris Wilmer'
_symmetry_space_group_name_H-M	'P1'
_symmetry_Int_Tables_number	1
_symmetry_cell_setting	triclinic
loop_
_symmetry_equiv_pos_as_xyz
  x,y,z
_cell_length_a	10.4369
_cell_length_b	11.2951
_cell_length_c	12.7861
_cell_angle_alpha	101.639
_cell_angle_beta	111.064
_cell_angle_gamma	98.473
loop_
_atom_site_label
_atom_site_type_symbol
_atom_site_fract_x
_atom_site_fract_y
_atom_site_fract_z
_atom_site_charge
Mof_C 	C 	0.6968	0.2267	0.6667	0.35
Mof_C 	C 	0.5926	0.1079	0.5808	-0.09
Mof_C 	C 	0.6062	0.062	0.48	-0.061
Mof_H 	H 	0.6789	0.1033	0.4652	0.074
Mof_C 	C 	0.4889	0.0482	0.6032	0.105
Mof_O 	O 	0.8006	0.2743	0.6512	-0.465
Mof_O 	O 	0.6749	0.2755	0.7539	-0.435
Mof_N 	N 	0.471	0.076	0.712	-0.096
Mof_C 	C 	0.1989	0.4798	0.9253	0.455
Mof_C 	C 	0.3568	0.4909	0.9629	-0.164
Mof_C 	C 	0.4087	0.4285	0.8902	0.117
Mof_C 	C 	0.4456	0.5603	0.0704	-0.009
Mof_H 	H 	0.4094	0.6018	0.1197	0.033
Mof_O 	O 	0.1188	0.4371	0.8202	-0.491
Mof_O 	O 	0.1525	0.5142	0.0018	-0.634
Mof_N 	N 	0.323	0.366	0.7682	-0.105
Mof_C 	C 	0.0092	0.7462	0.0002	0.516
Mof_C 	C 	0.0046	0.8769	-0	-0.158
Mof_C 	C 	0.9599	0.9103	0.8987	-0.022
Mof_H 	H 	0.9313	0.8491	0.8287	0.044
Mof_C 	C 	0.0448	0.9691	0.1046	0.12
Mof_O 	O 	0.9658	0.6673	0.9025	-0.585
Mof_O 	O 	0.05	0.7212	0.0965	-0.513
Mof_N 	N 	0.063	0.946	0.2159	-0.1
Mof_Eu	Eu	0.89226	0.44818	0.8289	2.132
Mof_C 	C 	0.3032	0.7733	0.3333	0.349
Mof_C 	C 	0.4074	0.8921	0.4192	-0.086
Mof_C 	C 	0.3938	0.938	0.52	-0.065
Mof_H 	H 	0.3211	0.8967	0.5348	0.075
Mof_C 	C 	0.5111	0.9518	0.3968	0.101
Mof_O 	O 	0.1994	0.7257	0.3488	-0.466
Mof_O 	O 	0.3251	0.7245	0.2461	-0.432
Mof_N 	N 	0.529	0.924	0.288	-0.094
Mof_C 	C 	0.8011	0.5202	0.0747	0.468
Mof_C 	C 	0.6432	0.5091	0.0371	-0.117
Mof_C 	C 	0.5913	0.5715	0.1098	0.089
Mof_C 	C 	0.5544	0.4397	0.9296	-0.069
Mof_H 	H 	0.5906	0.3982	0.8803	0.05
Mof_O 	O 	0.8812	0.5629	0.1798	-0.489
Mof_O 	O 	0.8475	0.4858	0.9982	-0.654
Mof_N 	N 	0.677	0.634	0.2318	-0.099
Mof_C 	C 	0.9908	0.2538	0.9998	0.469
Mof_C 	C 	0.9954	0.1231	-0	-0.103
Mof_C 	C 	0.0401	0.0897	0.1013	-0.057
Mof_H 	H 	0.0687	0.1509	0.1713	0.057
Mof_C 	C 	0.9552	0.0309	0.8954	0.082
Mof_O 	O 	0.0342	0.3327	0.0975	-0.565
Mof_O 	O 	0.95	0.2788	0.9035	-0.503
Mof_N 	N 	0.937	0.054	0.7841	-0.095
Mof_Eu	Eu	0.10774	0.55182	0.1711	2.136
_end
