data_functionalizedCrystal
_audit_creation_method	'EQeq! by Chris Wilmer'
_symmetry_space_group_name_H-M	'P1'
_symmetry_Int_Tables_number	1
_symmetry_cell_setting	triclinic
loop_
_symmetry_equiv_pos_as_xyz
  x,y,z
_cell_length_a	7.5721
_cell_length_b	15.595
_cell_length_c	16.7063
_cell_angle_alpha	90
_cell_angle_beta	94.433
_cell_angle_gamma	90
loop_
_atom_site_label
_atom_site_type_symbol
_atom_site_fract_x
_atom_site_fract_y
_atom_site_fract_z
_atom_site_charge
Mof_C 	C 	0.7416	0.1925	0.5494	0.444
Mof_C 	C 	0.5999	0.2352	0.5947	-0.088
Mof_C 	C 	0.6436	0.2902	0.6578	0.031
Mof_H 	H 	0.7602	0.3069	0.6711	0.033
Mof_C 	C 	0.5052	0.3198	0.7008	-0.09
Mof_C 	C 	0.5447	0.3672	0.779	0.562
Mof_C 	C 	0.3078	0.2542	0.6122	0.135
Mof_H 	H 	0.1905	0.2454	0.5932	-0.054
Mof_C 	C 	0.7996	0.0472	0.6803	0.41
Mof_C 	C 	0.9574	0.0882	0.7266	-0.088
Mof_C 	C 	0.9381	0.1523	0.7818	0.012
Mof_H 	H 	0.8271	0.1728	0.7926	0.035
Mof_C 	C 	0.0919	0.1849	0.8203	-0.064
Mof_C 	C 	0.0897	0.261	0.8769	0.522
Mof_C 	C 	0.2534	0.0921	0.7543	0.132
Mof_H 	H 	0.3641	0.0693	0.746	-0.04
Mof_N 	N 	0.4324	0.2154	0.5718	-0.278
Mof_N 	N 	0.3359	0.3034	0.6763	-0.11
Mof_N 	N 	0.1163	0.059	0.7101	-0.292
Mof_N 	N 	0.2504	0.1532	0.8085	-0.112
Mof_O 	O 	0.6869	0.1406	0.4935	-0.803
Mof_O 	O 	0.8976	0.2071	0.5712	-0.456
Mof_O 	O 	0.689	0.4043	0.789	-0.669
Mof_O 	O 	0.4284	0.3626	0.8282	-0.661
Mof_O 	O 	0.8352	0.9914	0.627	-0.737
Mof_O 	O 	0.6502	0.071	0.6937	-0.403
Mof_O 	O 	0.9578	0.3107	0.8667	-0.657
Mof_O 	O 	0.2168	0.2705	0.9273	-0.608
Mof_O 	O 	0.0924	0.0755	0.513	-2.92
Mof_O 	O 	0.42	0.009	0.5725	-1.661
Mof_Eu	Eu	0.37389	0.10226	0.45995	2.833
Mof_Eu	Eu	0.13348	0.94949	0.59434	3.061
Mof_H 	H 	0.072	0.106	0.531	1.878
Mof_H 	H 	0.458	0.033	0.605	0.793
Mof_O 	O 	0.28	0.2	0.98	-0.097
Mof_C 	C 	0.2584	0.6925	0.9506	0.445
Mof_C 	C 	0.4001	0.7352	0.9053	-0.087
Mof_C 	C 	0.3564	0.7902	0.8422	0.031
Mof_H 	H 	0.2398	0.8069	0.8289	0.032
Mof_C 	C 	0.4948	0.8198	0.7992	-0.089
Mof_C 	C 	0.4553	0.8672	0.721	0.561
Mof_C 	C 	0.6922	0.7542	0.8878	0.135
Mof_H 	H 	0.8095	0.7454	0.9068	-0.054
Mof_C 	C 	0.2004	0.5472	0.8197	0.416
Mof_C 	C 	0.0426	0.5882	0.7734	-0.086
Mof_C 	C 	0.0619	0.6523	0.7182	0.014
Mof_H 	H 	0.1729	0.6728	0.7074	0.034
Mof_C 	C 	0.9081	0.6849	0.6797	-0.066
Mof_C 	C 	0.9103	0.761	0.6231	0.525
Mof_C 	C 	0.7466	0.5921	0.7457	0.132
Mof_H 	H 	0.6359	0.5693	0.754	-0.041
Mof_N 	N 	0.5676	0.7154	0.9282	-0.278
Mof_N 	N 	0.6641	0.8034	0.8237	-0.11
Mof_N 	N 	0.8837	0.559	0.7899	-0.296
Mof_N 	N 	0.7496	0.6532	0.6915	-0.111
Mof_O 	O 	0.3131	0.6406	0.0065	-0.803
Mof_O 	O 	0.1024	0.7071	0.9288	-0.457
Mof_O 	O 	0.311	0.9043	0.711	-0.667
Mof_O 	O 	0.5716	0.8626	0.6718	-0.66
Mof_O 	O 	0.1648	0.4914	0.873	-0.746
Mof_O 	O 	0.3498	0.571	0.8063	-0.405
Mof_O 	O 	0.0422	0.8107	0.6333	-0.657
Mof_O 	O 	0.7832	0.7705	0.5727	-0.608
Mof_O 	O 	0.9076	0.5755	0.987	-2.934
Mof_O 	O 	0.58	0.509	0.9275	-1.665
Mof_Eu	Eu	0.62611	0.60226	0.04005	2.833
Mof_Eu	Eu	0.86652	0.44949	0.90566	3.085
Mof_H 	H 	0.928	0.606	0.969	1.885
Mof_H 	H 	0.542	0.533	0.895	0.795
Mof_O 	O 	0.72	0.7	0.52	-0.097
Mof_C 	C 	0.2584	0.8075	0.4506	0.445
Mof_C 	C 	0.4001	0.7648	0.4053	-0.087
Mof_C 	C 	0.3564	0.7098	0.3422	0.031
Mof_H 	H 	0.2398	0.6931	0.3289	0.033
Mof_C 	C 	0.4948	0.6802	0.2992	-0.09
Mof_C 	C 	0.4553	0.6328	0.221	0.562
Mof_C 	C 	0.6922	0.7458	0.3878	0.135
Mof_H 	H 	0.8095	0.7546	0.4068	-0.054
Mof_C 	C 	0.2004	0.9528	0.3197	0.41
Mof_C 	C 	0.0426	0.9118	0.2734	-0.088
Mof_C 	C 	0.0619	0.8477	0.2182	0.012
Mof_H 	H 	0.1729	0.8272	0.2074	0.035
Mof_C 	C 	0.9081	0.8151	0.1797	-0.064
Mof_C 	C 	0.9103	0.739	0.1231	0.522
Mof_C 	C 	0.7466	0.9079	0.2457	0.132
Mof_H 	H 	0.6359	0.9307	0.254	-0.04
Mof_N 	N 	0.5676	0.7846	0.4282	-0.278
Mof_N 	N 	0.6641	0.6966	0.3237	-0.11
Mof_N 	N 	0.8837	0.941	0.2899	-0.292
Mof_N 	N 	0.7496	0.8468	0.1915	-0.112
Mof_O 	O 	0.3131	0.8594	0.5065	-0.803
Mof_O 	O 	0.1024	0.7929	0.4288	-0.456
Mof_O 	O 	0.311	0.5957	0.211	-0.669
Mof_O 	O 	0.5716	0.6374	0.1718	-0.661
Mof_O 	O 	0.1648	0.0086	0.373	-0.737
Mof_O 	O 	0.3498	0.929	0.3063	-0.403
Mof_O 	O 	0.0422	0.6893	0.1333	-0.657
Mof_O 	O 	0.7832	0.7295	0.0727	-0.608
Mof_O 	O 	0.9076	0.9245	0.487	-2.92
Mof_O 	O 	0.58	0.991	0.4275	-1.661
Mof_Eu	Eu	0.62611	0.89774	0.54005	2.833
Mof_Eu	Eu	0.86652	0.05051	0.40566	3.061
Mof_H 	H 	0.928	0.894	0.469	1.878
Mof_H 	H 	0.542	0.967	0.395	0.793
Mof_O 	O 	0.72	0.8	0.02	-0.097
Mof_C 	C 	0.7416	0.3075	0.0494	0.445
Mof_C 	C 	0.5999	0.2648	0.0947	-0.087
Mof_C 	C 	0.6436	0.2098	0.1578	0.031
Mof_H 	H 	0.7602	0.1931	0.1711	0.032
Mof_C 	C 	0.5052	0.1802	0.2008	-0.089
Mof_C 	C 	0.5447	0.1328	0.279	0.561
Mof_C 	C 	0.3078	0.2458	0.1122	0.135
Mof_H 	H 	0.1905	0.2546	0.0932	-0.054
Mof_C 	C 	0.7996	0.4528	0.1803	0.416
Mof_C 	C 	0.9574	0.4118	0.2266	-0.086
Mof_C 	C 	0.9381	0.3477	0.2818	0.014
Mof_H 	H 	0.8271	0.3272	0.2926	0.034
Mof_C 	C 	0.0919	0.3151	0.3203	-0.066
Mof_C 	C 	0.0897	0.239	0.3769	0.525
Mof_C 	C 	0.2534	0.4079	0.2543	0.132
Mof_H 	H 	0.3641	0.4307	0.246	-0.041
Mof_N 	N 	0.4324	0.2846	0.0718	-0.278
Mof_N 	N 	0.3359	0.1966	0.1763	-0.11
Mof_N 	N 	0.1163	0.441	0.2101	-0.296
Mof_N 	N 	0.2504	0.3468	0.3085	-0.111
Mof_O 	O 	0.6869	0.3594	0.9935	-0.803
Mof_O 	O 	0.8976	0.2929	0.0712	-0.457
Mof_O 	O 	0.689	0.0957	0.289	-0.667
Mof_O 	O 	0.4284	0.1374	0.3282	-0.66
Mof_O 	O 	0.8352	0.5086	0.127	-0.746
Mof_O 	O 	0.6502	0.429	0.1937	-0.405
Mof_O 	O 	0.9578	0.1893	0.3667	-0.657
Mof_O 	O 	0.2168	0.2295	0.4273	-0.608
Mof_O 	O 	0.0924	0.4245	0.013	-2.934
Mof_O 	O 	0.42	0.491	0.0725	-1.665
Mof_Eu	Eu	0.37389	0.39774	0.95995	2.833
Mof_Eu	Eu	0.13348	0.55051	0.09434	3.085
Mof_H 	H 	0.072	0.394	0.031	1.885
Mof_H 	H 	0.458	0.467	0.105	0.795
Mof_O 	O 	0.28	0.3	0.48	-0.097
_end
