data_functionalizedCrystal
_audit_creation_method	'EQeq! by Chris Wilmer'
_symmetry_space_group_name_H-M	'P1'
_symmetry_Int_Tables_number	1
_symmetry_cell_setting	triclinic
loop_
_symmetry_equiv_pos_as_xyz
  x,y,z
_cell_length_a	9.6172
_cell_length_b	11.7826
_cell_length_c	12.2734
_cell_angle_alpha	90
_cell_angle_beta	99.295
_cell_angle_gamma	90
loop_
_atom_site_label
_atom_site_type_symbol
_atom_site_fract_x
_atom_site_fract_y
_atom_site_fract_z
_atom_site_charge
Mof_Cd	Cd	0.78663	0.01752	0.17059	0.496
Mof_Cd	Cd	0.71337	0.51752	0.32941	0.502
Mof_Cd	Cd	0.21337	0.98248	0.82941	0.496
Mof_Cd	Cd	0.28663	0.48248	0.67059	0.502
Mof_C 	C 	0.7997	0.7485	0.2176	0.248
Mof_C 	C 	0.7004	0.7913	0.2953	0.248
Mof_C 	C 	0.4942	0.0656	0.9988	0.238
Mof_C 	C 	0.0632	0.0007	0.0471	0.19
Mof_C 	C 	0.7003	0.2485	0.2824	0.247
Mof_C 	C 	0.7996	0.2913	0.2047	0.248
Mof_C 	C 	0.0058	0.5656	0.5012	0.238
Mof_C 	C 	0.4368	0.5007	0.4529	0.183
Mof_C 	C 	0.2003	0.2515	0.7824	0.248
Mof_C 	C 	0.2996	0.2087	0.7047	0.248
Mof_C 	C 	0.5058	0.9344	0.0012	0.238
Mof_C 	C 	0.9368	0.9993	0.9529	0.19
Mof_C 	C 	0.2997	0.7515	0.7176	0.247
Mof_C 	C 	0.2004	0.7087	0.7953	0.248
Mof_C 	C 	0.9942	0.4344	0.4988	0.238
Mof_C 	C 	0.5632	0.4993	0.5471	0.183
Mof_O 	O 	0.6869	0.8965	0.3034	-0.261
Mof_O 	O 	0.6389	0.7172	0.3436	-0.262
Mof_O 	O 	0.8057	0.6438	0.2031	-0.244
Mof_O 	O 	0.8681	0.821	0.1738	-0.264
Mof_O 	O 	0.0355	0.0159	0.1428	-0.212
Mof_O 	O 	0.1828	0.987	0.0231	-0.22
Mof_O 	O 	0.5813	0.1188	0.0673	-0.204
Mof_O 	O 	0.3998	0.1077	0.9312	-0.213
Mof_O 	O 	0.8131	0.3965	0.1966	-0.262
Mof_O 	O 	0.8611	0.2172	0.1564	-0.266
Mof_O 	O 	0.6943	0.1438	0.2969	-0.243
Mof_O 	O 	0.6319	0.321	0.3262	-0.262
Mof_O 	O 	0.4645	0.5159	0.3572	-0.216
Mof_O 	O 	0.3172	0.487	0.4769	-0.219
Mof_O 	O 	0.9187	0.6188	0.4327	-0.204
Mof_O 	O 	0.1002	0.6077	0.5688	-0.213
Mof_O 	O 	0.3131	0.1035	0.6966	-0.261
Mof_O 	O 	0.3611	0.2828	0.6564	-0.262
Mof_O 	O 	0.1943	0.3562	0.7969	-0.244
Mof_O 	O 	0.1319	0.179	0.8262	-0.264
Mof_O 	O 	0.9645	0.9841	0.8572	-0.212
Mof_O 	O 	0.8172	0.013	0.9769	-0.22
Mof_O 	O 	0.4187	0.8812	0.9327	-0.204
Mof_O 	O 	0.6002	0.8923	0.0688	-0.213
Mof_O 	O 	0.1869	0.6035	0.8034	-0.262
Mof_O 	O 	0.1389	0.7828	0.8436	-0.266
Mof_O 	O 	0.3057	0.8562	0.7031	-0.243
Mof_O 	O 	0.3681	0.679	0.6738	-0.262
Mof_O 	O 	0.5355	0.4841	0.6428	-0.216
Mof_O 	O 	0.6828	0.513	0.5231	-0.219
Mof_O 	O 	0.0813	0.3812	0.5673	-0.204
Mof_O 	O 	0.8998	0.3923	0.4312	-0.213
Mof_H 	H 	0.0056	0.3053	0.0059	0.523
Mof_H 	H 	0.1042	0.2366	0.9821	0.573
Mof_H 	H 	0.0734	0.2361	0.0805	0.591
Mof_O 	O 	0.0865	0.2809	0.0308	-1.467
Mof_H 	H 	0.6459	0.9646	0.4488	0.571
Mof_H 	H 	0.6143	0.9755	0.5491	0.547
Mof_H 	H 	0.6449	0.0619	0.4897	0.593
Mof_O 	O 	0.6701	0.9964	0.5086	-1.461
Mof_H 	H 	0.4944	0.8053	0.4941	0.525
Mof_H 	H 	0.3958	0.7366	0.5179	0.592
Mof_H 	H 	0.4266	0.7361	0.4195	0.597
Mof_O 	O 	0.4135	0.7809	0.4692	-1.498
Mof_H 	H 	0.8541	0.4646	0.0512	0.546
Mof_H 	H 	0.8857	0.4755	0.9509	0.533
Mof_H 	H 	0.8551	0.5619	0.0103	0.568
Mof_O 	O 	0.8299	0.4964	0.9914	-1.406
Mof_H 	H 	0.9944	0.6947	0.9941	0.523
Mof_H 	H 	0.8958	0.7634	0.0179	0.573
Mof_H 	H 	0.9266	0.7639	0.9195	0.591
Mof_O 	O 	0.9135	0.7191	0.9692	-1.467
Mof_H 	H 	0.3541	0.0354	0.5512	0.571
Mof_H 	H 	0.3857	0.0245	0.4509	0.547
Mof_H 	H 	0.3551	0.9381	0.5103	0.593
Mof_O 	O 	0.3299	0.0036	0.4914	-1.461
Mof_H 	H 	0.5056	0.1947	0.5059	0.525
Mof_H 	H 	0.6042	0.2634	0.4821	0.592
Mof_H 	H 	0.5734	0.2639	0.5805	0.597
Mof_O 	O 	0.5865	0.2191	0.5308	-1.498
Mof_H 	H 	0.1459	0.5354	0.9488	0.546
Mof_H 	H 	0.1143	0.5245	0.0491	0.533
Mof_H 	H 	0.1449	0.4381	0.9897	0.568
Mof_O 	O 	0.1701	0.5036	0.0086	-1.406
_end
