data_functionalizedCrystal
_audit_creation_method	'EQeq! by Chris Wilmer'
_symmetry_space_group_name_H-M	'P1'
_symmetry_Int_Tables_number	1
_symmetry_cell_setting	triclinic
loop_
_symmetry_equiv_pos_as_xyz
  x,y,z
_cell_length_a	8.6715
_cell_length_b	13.3403
_cell_length_c	27.4412
_cell_angle_alpha	93.8742
_cell_angle_beta	90
_cell_angle_gamma	108.966
loop_
_atom_site_label
_atom_site_type_symbol
_atom_site_fract_x
_atom_site_fract_y
_atom_site_fract_z
_atom_site_charge
Mof_Mn	Mn	0.8775	0.54192	0.20252	0.843
Mof_Mn	Mn	0.33558	0.45808	0.29748	0.844
Mof_Mn	Mn	0.1225	0.45808	0.79748	0.844
Mof_Mn	Mn	0.66442	0.54192	0.70252	0.845
Mof_H 	H 	0.4472	0.4898	0.114	0.155
Mof_H 	H 	0.3073	0.5988	0.138	0.124
Mof_H 	H 	0.1448	0.5056	0.126	0.124
Mof_H 	H 	0.9195	0.3334	0.0801	0.044
Mof_H 	H 	0.7588	0.3454	0.0146	0.073
Mof_H 	H 	0.8712	0.3808	0.939	0.035
Mof_H 	H 	0.3081	0.3914	0.9928	0.053
Mof_H 	H 	0.9203	0.3208	0.2293	-0.005
Mof_H 	H 	0.805	0.1406	0.2181	0.083
Mof_H 	H 	0.5001	0.1828	0.1193	0.098
Mof_H 	H 	0.6163	0.3628	0.1362	0.006
Mof_H 	H 	0.738	0.979	0.1907	0.074
Mof_H 	H 	0.6188	0.8012	0.1741	0.009
Mof_H 	H 	0.2582	0.8408	0.1019	0.021
Mof_H 	H 	0.3677	0.0228	0.1174	0.073
Mof_H 	H 	0.0253	0.7168	0.2886	0.014
Mof_H 	H 	0.1038	0.8948	0.3101	0.092
Mof_H 	H 	0.0322	0.9436	0.1737	0.086
Mof_H 	H 	0.9448	0.7636	0.1575	-0.002
Mof_H 	H 	0.9574	0.5102	0.386	0.154
Mof_H 	H 	0.7085	0.4012	0.362	0.124
Mof_H 	H 	0.6392	0.4944	0.374	0.124
Mof_H 	H 	0.5861	0.6666	0.4199	0.044
Mof_H 	H 	0.4134	0.6546	0.4854	0.073
Mof_H 	H 	0.4904	0.6192	0.561	0.036
Mof_H 	H 	0.9167	0.6086	0.5072	0.053
Mof_H 	H 	0.5995	0.6792	0.2707	-0.005
Mof_H 	H 	0.6644	0.8594	0.2819	0.083
Mof_H 	H 	0.3173	0.8172	0.3807	0.098
Mof_H 	H 	0.2535	0.6372	0.3638	0.007
Mof_H 	H 	0.759	0.021	0.3093	0.074
Mof_H 	H 	0.8176	0.1988	0.3259	0.009
Mof_H 	H 	0.4174	0.1592	0.3981	0.021
Mof_H 	H 	0.3449	0.9772	0.3826	0.073
Mof_H 	H 	0.3085	0.2832	0.2114	0.014
Mof_H 	H 	0.209	0.1052	0.1899	0.092
Mof_H 	H 	0.0886	0.0564	0.3263	0.087
Mof_H 	H 	0.1812	0.2364	0.3425	-0.003
Mof_H 	H 	0.5528	0.5102	0.886	0.155
Mof_H 	H 	0.6927	0.4012	0.862	0.124
Mof_H 	H 	0.8552	0.4944	0.874	0.124
Mof_H 	H 	0.0805	0.6666	0.9199	0.044
Mof_H 	H 	0.2412	0.6546	0.9854	0.073
Mof_H 	H 	0.1288	0.6192	0.061	0.035
Mof_H 	H 	0.6919	0.6086	0.0072	0.053
Mof_H 	H 	0.0797	0.6792	0.7707	-0.005
Mof_H 	H 	0.195	0.8594	0.7819	0.083
Mof_H 	H 	0.4999	0.8172	0.8807	0.098
Mof_H 	H 	0.3837	0.6372	0.8638	0.006
Mof_H 	H 	0.262	0.021	0.8093	0.074
Mof_H 	H 	0.3812	0.1988	0.8259	0.009
Mof_H 	H 	0.7418	0.1592	0.8981	0.021
Mof_H 	H 	0.6323	0.9772	0.8826	0.073
Mof_H 	H 	0.9747	0.2832	0.7114	0.014
Mof_H 	H 	0.8962	0.1052	0.6899	0.092
Mof_H 	H 	0.9678	0.0564	0.8263	0.086
Mof_H 	H 	0.0552	0.2364	0.8425	-0.002
Mof_H 	H 	0.0426	0.4898	0.614	0.154
Mof_H 	H 	0.2915	0.5988	0.638	0.124
Mof_H 	H 	0.3608	0.5056	0.626	0.124
Mof_H 	H 	0.4139	0.3334	0.5801	0.044
Mof_H 	H 	0.5866	0.3454	0.5146	0.073
Mof_H 	H 	0.5096	0.3808	0.439	0.036
Mof_H 	H 	0.0833	0.3914	0.4928	0.053
Mof_H 	H 	0.4005	0.3208	0.7293	-0.005
Mof_H 	H 	0.3356	0.1406	0.7181	0.083
Mof_H 	H 	0.6827	0.1828	0.6193	0.098
Mof_H 	H 	0.7465	0.3628	0.6362	0.007
Mof_H 	H 	0.241	0.979	0.6907	0.074
Mof_H 	H 	0.1824	0.8012	0.6741	0.009
Mof_H 	H 	0.5826	0.8408	0.6019	0.021
Mof_H 	H 	0.6551	0.0228	0.6174	0.073
Mof_H 	H 	0.6915	0.7168	0.7886	0.014
Mof_H 	H 	0.791	0.8948	0.8101	0.092
Mof_H 	H 	0.9114	0.9436	0.6737	0.087
Mof_H 	H 	0.8188	0.7636	0.6575	-0.003
Mof_C 	C 	0.22854	0.50728	0.19614	0.42
Mof_C 	C 	0.25154	0.52388	0.14165	-0.255
Mof_C 	C 	0.12716	0.35912	0.04224	-0.065
Mof_C 	C 	0.96429	0.34678	0.04944	0.008
Mof_C 	C 	0.86886	0.35452	0.01032	-0.081
Mof_C 	C 	0.93629	0.37578	0.965	0.023
Mof_C 	C 	0.10117	0.38974	0.95791	-0.093
Mof_C 	C 	0.19788	0.38176	0.9969	0.017
Mof_C 	C 	0.17639	0.41438	0.90895	0.335
Mof_C 	C 	0.8305	0.293	0.2081	0.108
Mof_C 	C 	0.7636	0.184	0.2006	-0.149
Mof_C 	C 	0.6365	0.1388	0.1677	0.076
Mof_C 	C 	0.5832	0.2086	0.1429	-0.149
Mof_C 	C 	0.65446	0.31752	0.1534	0.099
Mof_C 	C 	0.5664	0.0218	0.1577	0.048
Mof_C 	C 	0.6399	0.9534	0.173	-0.13
Mof_C 	C 	0.5679	0.8458	0.1619	0.085
Mof_C 	C 	0.3558	0.8694	0.1197	0.058
Mof_C 	C 	0.42	0.9784	0.1293	-0.113
Mof_C 	C 	0.0268	0.7628	0.2644	0.111
Mof_C 	C 	0.0774	0.871	0.2776	-0.155
Mof_C 	C 	0.08852	0.94204	0.24378	0.07
Mof_C 	C 	0.0345	0.8998	0.1984	-0.157
Mof_C 	C 	0.9824	0.7904	0.1891	0.101
Mof_C 	C 	0.72126	0.49272	0.30386	0.421
Mof_C 	C 	0.72766	0.47612	0.35835	-0.255
Mof_C 	C 	0.76804	0.64088	0.45776	-0.066
Mof_C 	C 	0.61751	0.65322	0.45056	0.009
Mof_C 	C 	0.51434	0.64548	0.48968	-0.081
Mof_C 	C 	0.56051	0.62422	0.535	0.022
Mof_C 	C 	0.71143	0.61026	0.54209	-0.092
Mof_C 	C 	0.81612	0.61824	0.5031	0.017
Mof_C 	C 	0.76201	0.58562	0.59105	0.335
Mof_C 	C 	0.5375	0.707	0.2919	0.108
Mof_C 	C 	0.5796	0.816	0.2994	-0.148
Mof_C 	C 	0.4977	0.8612	0.3323	0.075
Mof_C 	C 	0.3746	0.7914	0.3571	-0.148
Mof_C 	C 	0.33694	0.68248	0.3466	0.099
Mof_C 	C 	0.5446	0.9782	0.3423	0.049
Mof_C 	C 	0.6865	0.0466	0.327	-0.131
Mof_C 	C 	0.7221	0.1542	0.3381	0.085
Mof_C 	C 	0.4864	0.1306	0.3803	0.059
Mof_C 	C 	0.4416	0.0216	0.3707	-0.114
Mof_C 	C 	0.264	0.2372	0.2356	0.11
Mof_C 	C 	0.2064	0.129	0.2224	-0.156
Mof_C 	C 	0.14648	0.05796	0.25622	0.072
Mof_C 	C 	0.1347	0.1002	0.3016	-0.162
Mof_C 	C 	0.192	0.2096	0.3109	0.105
Mof_C 	C 	0.77146	0.49272	0.80386	0.42
Mof_C 	C 	0.74846	0.47612	0.85835	-0.255
Mof_C 	C 	0.87284	0.64088	0.95776	-0.065
Mof_C 	C 	0.03571	0.65322	0.95056	0.008
Mof_C 	C 	0.13114	0.64548	0.98968	-0.081
Mof_C 	C 	0.06371	0.62422	0.035	0.023
Mof_C 	C 	0.89883	0.61026	0.04209	-0.093
Mof_C 	C 	0.80212	0.61824	0.0031	0.017
Mof_C 	C 	0.82361	0.58562	0.09105	0.335
Mof_C 	C 	0.1695	0.707	0.7919	0.108
Mof_C 	C 	0.2364	0.816	0.7994	-0.149
Mof_C 	C 	0.3635	0.8612	0.8323	0.076
Mof_C 	C 	0.4168	0.7914	0.8571	-0.149
Mof_C 	C 	0.34554	0.68248	0.8466	0.099
Mof_C 	C 	0.4336	0.9782	0.8423	0.048
Mof_C 	C 	0.3601	0.0466	0.827	-0.13
Mof_C 	C 	0.4321	0.1542	0.8381	0.085
Mof_C 	C 	0.6442	0.1306	0.8803	0.058
Mof_C 	C 	0.58	0.0216	0.8707	-0.113
Mof_C 	C 	0.9732	0.2372	0.7356	0.111
Mof_C 	C 	0.9226	0.129	0.7224	-0.155
Mof_C 	C 	0.91148	0.05796	0.75622	0.07
Mof_C 	C 	0.9655	0.1002	0.8016	-0.157
Mof_C 	C 	0.0176	0.2096	0.8109	0.101
Mof_C 	C 	0.27874	0.50728	0.69614	0.421
Mof_C 	C 	0.27234	0.52388	0.64165	-0.255
Mof_C 	C 	0.23196	0.35912	0.54224	-0.066
Mof_C 	C 	0.38249	0.34678	0.54944	0.009
Mof_C 	C 	0.48566	0.35452	0.51032	-0.081
Mof_C 	C 	0.43949	0.37578	0.465	0.022
Mof_C 	C 	0.28857	0.38974	0.45791	-0.092
Mof_C 	C 	0.18388	0.38176	0.4969	0.017
Mof_C 	C 	0.23799	0.41438	0.40895	0.335
Mof_C 	C 	0.4625	0.293	0.7081	0.108
Mof_C 	C 	0.4204	0.184	0.7006	-0.148
Mof_C 	C 	0.5023	0.1388	0.6677	0.075
Mof_C 	C 	0.6254	0.2086	0.6429	-0.148
Mof_C 	C 	0.66306	0.31752	0.6534	0.099
Mof_C 	C 	0.4554	0.0218	0.6577	0.049
Mof_C 	C 	0.3135	0.9534	0.673	-0.131
Mof_C 	C 	0.2779	0.8458	0.6619	0.085
Mof_C 	C 	0.5136	0.8694	0.6197	0.059
Mof_C 	C 	0.5584	0.9784	0.6293	-0.114
Mof_C 	C 	0.736	0.7628	0.7644	0.11
Mof_C 	C 	0.7936	0.871	0.7776	-0.156
Mof_C 	C 	0.85352	0.94204	0.74378	0.072
Mof_C 	C 	0.8653	0.8998	0.6984	-0.162
Mof_C 	C 	0.808	0.7904	0.6891	0.105
Mof_S 	S 	0.25143	0.34582	0.09117	0.375
Mof_S 	S 	0.90561	0.65418	0.40883	0.374
Mof_S 	S 	0.74857	0.65418	0.90883	0.375
Mof_S 	S 	0.09439	0.34582	0.59117	0.374
Mof_N 	N 	0.34307	0.46274	0.11591	-0.186
Mof_N 	N 	0.77318	0.36056	0.18639	-0.193
Mof_N 	N 	0.435	0.8014	0.1362	-0.129
Mof_N 	N 	0.98191	0.72222	0.22084	-0.2
Mof_N 	N 	0.88033	0.53726	0.38409	-0.186
Mof_N 	N 	0.41262	0.63944	0.31361	-0.193
Mof_N 	N 	0.6336	0.1986	0.3638	-0.129
Mof_N 	N 	0.25969	0.27778	0.27916	-0.2
Mof_N 	N 	0.65693	0.53726	0.88409	-0.186
Mof_N 	N 	0.22682	0.63944	0.81361	-0.193
Mof_N 	N 	0.565	0.1986	0.8638	-0.129
Mof_N 	N 	0.01809	0.27778	0.77916	-0.2
Mof_N 	N 	0.11967	0.46274	0.61591	-0.186
Mof_N 	N 	0.58738	0.36056	0.68639	-0.193
Mof_N 	N 	0.3664	0.8014	0.6362	-0.129
Mof_N 	N 	0.74031	0.72222	0.72084	-0.2
Mof_O 	O 	0.11299	0.52958	0.21527	-0.396
Mof_O 	O 	0.33081	0.47822	0.21896	-0.366
Mof_O 	O 	0.14145	0.2875	0.12647	-0.237
Mof_O 	O 	0.37516	0.30692	0.07062	-0.242
Mof_O 	O 	0.32055	0.4147	0.90411	-0.276
Mof_O 	O 	0.09085	0.4325	0.87595	-0.363
Mof_O 	O 	0.58341	0.47042	0.28473	-0.397
Mof_O 	O 	0.85259	0.52178	0.28104	-0.367
Mof_O 	O 	0.85395	0.7125	0.37353	-0.238
Mof_O 	O 	0.06824	0.69308	0.42938	-0.241
Mof_O 	O 	0.90585	0.5853	0.59589	-0.276
Mof_O 	O 	0.65835	0.5675	0.62405	-0.362
Mof_O 	O 	0.88701	0.47042	0.78473	-0.396
Mof_O 	O 	0.66919	0.52178	0.78104	-0.366
Mof_O 	O 	0.85855	0.7125	0.87353	-0.237
Mof_O 	O 	0.62484	0.69308	0.92938	-0.242
Mof_O 	O 	0.67945	0.5853	0.09589	-0.276
Mof_O 	O 	0.90915	0.5675	0.12405	-0.363
Mof_O 	O 	0.41659	0.52958	0.71527	-0.397
Mof_O 	O 	0.14741	0.47822	0.71896	-0.367
Mof_O 	O 	0.14605	0.2875	0.62647	-0.238
Mof_O 	O 	0.93176	0.30692	0.57062	-0.241
Mof_O 	O 	0.09415	0.4147	0.40411	-0.276
Mof_O 	O 	0.34165	0.4325	0.37595	-0.362
_end
