# CIF file generated by openbabel 3.1.0, see https://openbabel.org
data_I
_chemical_name_common 'image0'
_cell_length_a 9.733
_cell_length_b 22.323
_cell_length_c 15.631
_cell_angle_alpha 90
_cell_angle_beta 93.89
_cell_angle_gamma 90
_space_group_name_H-M_alt 'P 1'
_space_group_name_Hall 'P 1'
loop_
    _symmetry_equiv_pos_as_xyz
    x,y,z
loop_
    _atom_site_label
    _atom_site_type_symbol
    _atom_site_fract_x
    _atom_site_fract_y
    _atom_site_fract_z
    _atom_site_occupancy
    Ag1      Ag       0.81176    0.25249    0.07738    1.000
    Ag2      Ag       0.61360    0.45604    0.33182    1.000
    N1       N        0.61700    0.27940    0.11320    1.000
    C1       C        0.56200    0.25230    0.18070    1.000
    H1       H        0.61270    0.22080    0.20910    1.000
    C2       C        0.43400    0.26900    0.21040    1.000
    H2       H        0.40050    0.24880    0.25820    1.000
    C3       C        0.35800    0.31400    0.17090    1.000
    C4       C        0.41600    0.34140    0.10000    1.000
    H3       H        0.36900    0.37320    0.07030    1.000
    C5       C        0.54100    0.32250    0.07380    1.000
    H4       H        0.57600    0.34100    0.02490    1.000
    C6       C        0.22800    0.33700    0.20230    1.000
    H5       H        0.17610    0.30330    0.22570    1.000
    H6       H        0.17110    0.35450    0.15370    1.000
    N2       N        0.25460    0.38450    0.27180    1.000
    C7       C        0.30900    0.44060    0.23640    1.000
    H7       H        0.40250    0.43330    0.21660    1.000
    H8       H        0.24890    0.45410    0.18670    1.000
    C8       C        0.31670    0.48750    0.30340    1.000
    H9       H        0.22330    0.49570    0.32190    1.000
    H10      H        0.35330    0.52500    0.28000    1.000
    N3       N        0.41310    0.46620    0.38250    1.000
    C9       C        0.35700    0.41180    0.41310    1.000
    H11      H        0.26420    0.42000    0.43310    1.000
    H12      H        0.41570    0.39720    0.46280    1.000
    C10      C        0.34500    0.36350    0.34600    1.000
    H13      H        0.43710    0.35370    0.32710    1.000
    H14      H        0.30550    0.32690    0.37030    1.000
    C11      C        0.41600    0.51580    0.44440    1.000
    H15      H        0.32480    0.51930    0.46820    1.000
    H16      H        0.43450    0.55370    0.41420    1.000
    C12      C        0.52600    0.50700    0.51770    1.000
    C13      C        0.65500    0.53240    0.50620    1.000
    H17      H        0.67140    0.55300    0.45470    1.000
    C14      C        0.75700    0.52680    0.57160    1.000
    H18      H        0.84590    0.54210    0.56300    1.000
    C15      C        0.73500    0.49990    0.64850    1.000
    C16      C        0.60800    0.47290    0.65640    1.000
    H19      H        0.59310    0.45170    0.70760    1.000
    C17      C        0.50400    0.47550    0.59350    1.000
    H20      H        0.41790    0.45640    0.60080    1.000
    C18      C        0.84500    0.50070    0.72080    1.000
    H21      H        0.93550    0.50760    0.69690    1.000
    H22      H        0.84860    0.46100    0.74910    1.000
    N4       N        0.82300    0.54830    0.78740    1.000
    C19      C        0.84200    0.60870    0.74880    1.000
    H23      H        0.93630    0.61160    0.72920    1.000
    H24      H        0.77630    0.61350    0.69810    1.000
    C20      C        0.82100    0.65720    0.80980    1.000
    H25      H        0.72450    0.65620    0.82670    1.000
    H26      H        0.83630    0.69630    0.78220    1.000
    N5       N        0.91600    0.65090    0.88630    1.000
    C21      C        0.89500    0.59060    0.92250    1.000
    H27      H        0.79990    0.58740    0.94080    1.000
    H28      H        0.95910    0.58510    0.97390    1.000
    C22      C        0.91900    0.54240    0.85950    1.000
    H29      H        0.01370    0.54540    0.84090    1.000
    H30      H        0.90800    0.50280    0.88660    1.000
    C23      C        0.91300    0.70030    0.94360    1.000
    H31      H        0.94180    0.73660    0.91320    1.000
    H32      H        0.98180    0.69320    0.99200    1.000
    C24      C        0.77500    0.71320    0.98020    1.000
    C25      C        0.69000    0.75530    0.94190    1.000
    H33      H        0.72190    0.77800    0.89570    1.000
    C26      C        0.55900    0.76620    0.96820    1.000
    H34      H        0.50130    0.79540    0.94000    1.000
    N6       N        0.51400    0.73330    0.03660    1.000
    C27      C        0.59700    0.69670    0.07570    1.000
    H35      H        0.56800    0.67690    0.12520    1.000
    C28      C        0.72900    0.68400    0.04940    1.000
    H36      H        0.78550    0.65520    0.07950    1.000
    Ag3      Ag       0.31176    0.75249    0.07738    1.000
    Ag4      Ag       0.11360    0.95604    0.33182    1.000
    N7       N        0.11700    0.77940    0.11320    1.000
    C29      C        0.06200    0.75230    0.18070    1.000
    H37      H        0.11270    0.72080    0.20910    1.000
    C30      C        0.93400    0.76900    0.21040    1.000
    H38      H        0.90050    0.74880    0.25820    1.000
    C31      C        0.85800    0.81400    0.17090    1.000
    C32      C        0.91600    0.84140    0.10000    1.000
    H39      H        0.86900    0.87320    0.07030    1.000
    C33      C        0.04100    0.82250    0.07380    1.000
    H40      H        0.07600    0.84100    0.02490    1.000
    C34      C        0.72800    0.83700    0.20230    1.000
    H41      H        0.67610    0.80330    0.22570    1.000
    H42      H        0.67110    0.85450    0.15370    1.000
    N8       N        0.75460    0.88450    0.27180    1.000
    C35      C        0.80900    0.94060    0.23640    1.000
    H43      H        0.90250    0.93330    0.21660    1.000
    H44      H        0.74890    0.95410    0.18670    1.000
    C36      C        0.81670    0.98750    0.30340    1.000
    H45      H        0.72330    0.99570    0.32190    1.000
    H46      H        0.85330    0.02500    0.28000    1.000
    N9       N        0.91310    0.96620    0.38250    1.000
    C37      C        0.85700    0.91180    0.41310    1.000
    H47      H        0.76420    0.92000    0.43310    1.000
    H48      H        0.91570    0.89720    0.46280    1.000
    C38      C        0.84500    0.86350    0.34600    1.000
    H49      H        0.93710    0.85370    0.32710    1.000
    H50      H        0.80550    0.82690    0.37030    1.000
    C39      C        0.91600    0.01580    0.44440    1.000
    H51      H        0.82480    0.01930    0.46820    1.000
    H52      H        0.93450    0.05370    0.41420    1.000
    C40      C        0.02600    0.00700    0.51770    1.000
    C41      C        0.15500    0.03240    0.50620    1.000
    H53      H        0.17140    0.05300    0.45470    1.000
    C42      C        0.25700    0.02680    0.57160    1.000
    H54      H        0.34590    0.04210    0.56300    1.000
    C43      C        0.23500    0.99990    0.64850    1.000
    C44      C        0.10800    0.97290    0.65640    1.000
    H55      H        0.09310    0.95170    0.70760    1.000
    C45      C        0.00400    0.97550    0.59350    1.000
    H56      H        0.91790    0.95640    0.60080    1.000
    C46      C        0.34500    0.00070    0.72080    1.000
    H57      H        0.43550    0.00760    0.69690    1.000
    H58      H        0.34860    0.96100    0.74910    1.000
    N10      N        0.32300    0.04830    0.78740    1.000
    C47      C        0.34200    0.10870    0.74880    1.000
    H59      H        0.43630    0.11160    0.72920    1.000
    H60      H        0.27630    0.11350    0.69810    1.000
    C48      C        0.32100    0.15720    0.80980    1.000
    H61      H        0.22450    0.15620    0.82670    1.000
    H62      H        0.33630    0.19630    0.78220    1.000
    N11      N        0.41600    0.15090    0.88630    1.000
    C49      C        0.39500    0.09060    0.92250    1.000
    H63      H        0.29990    0.08740    0.94080    1.000
    H64      H        0.45910    0.08510    0.97390    1.000
    C50      C        0.41900    0.04240    0.85950    1.000
    H65      H        0.51370    0.04540    0.84090    1.000
    H66      H        0.40800    0.00280    0.88660    1.000
    C51      C        0.41300    0.20030    0.94360    1.000
    H67      H        0.44180    0.23660    0.91320    1.000
    H68      H        0.48180    0.19320    0.99200    1.000
    C52      C        0.27500    0.21320    0.98020    1.000
    C53      C        0.19000    0.25530    0.94190    1.000
    H69      H        0.22190    0.27800    0.89570    1.000
    C54      C        0.05900    0.26620    0.96820    1.000
    H70      H        0.00130    0.29540    0.94000    1.000
    N12      N        0.01400    0.23330    0.03660    1.000
    C55      C        0.09700    0.19670    0.07570    1.000
    H71      H        0.06800    0.17690    0.12520    1.000
    C56      C        0.22900    0.18400    0.04940    1.000
    H72      H        0.28550    0.15520    0.07950    1.000
    Ag5      Ag       0.81176    0.74751    0.57738    1.000
    Ag6      Ag       0.61360    0.54396    0.83182    1.000
    N13      N        0.61700    0.72060    0.61320    1.000
    C57      C        0.56200    0.74770    0.68070    1.000
    H73      H        0.61270    0.77920    0.70910    1.000
    C58      C        0.43400    0.73100    0.71040    1.000
    H74      H        0.40050    0.75120    0.75820    1.000
    C59      C        0.35800    0.68600    0.67090    1.000
    C60      C        0.41600    0.65860    0.60000    1.000
    H75      H        0.36900    0.62680    0.57030    1.000
    C61      C        0.54100    0.67750    0.57380    1.000
    H76      H        0.57600    0.65900    0.52490    1.000
    C62      C        0.22800    0.66300    0.70230    1.000
    H77      H        0.17610    0.69670    0.72570    1.000
    H78      H        0.17110    0.64550    0.65370    1.000
    N14      N        0.25460    0.61550    0.77180    1.000
    C63      C        0.30900    0.55940    0.73640    1.000
    H79      H        0.40250    0.56670    0.71660    1.000
    H80      H        0.24890    0.54590    0.68670    1.000
    C64      C        0.31670    0.51250    0.80340    1.000
    H81      H        0.22330    0.50430    0.82190    1.000
    H82      H        0.35330    0.47500    0.78000    1.000
    N15      N        0.41310    0.53380    0.88250    1.000
    C65      C        0.35700    0.58820    0.91310    1.000
    H83      H        0.26420    0.58000    0.93310    1.000
    H84      H        0.41570    0.60280    0.96280    1.000
    C66      C        0.34500    0.63650    0.84600    1.000
    H85      H        0.43710    0.64630    0.82710    1.000
    H86      H        0.30550    0.67310    0.87030    1.000
    C67      C        0.41600    0.48420    0.94440    1.000
    H87      H        0.32480    0.48070    0.96820    1.000
    H88      H        0.43450    0.44630    0.91420    1.000
    C68      C        0.52600    0.49300    0.01770    1.000
    C69      C        0.65500    0.46760    0.00620    1.000
    H89      H        0.67140    0.44700    0.95470    1.000
    C70      C        0.75700    0.47320    0.07160    1.000
    H90      H        0.84590    0.45790    0.06300    1.000
    C71      C        0.73500    0.50010    0.14850    1.000
    C72      C        0.60800    0.52710    0.15640    1.000
    H91      H        0.59310    0.54830    0.20760    1.000
    C73      C        0.50400    0.52450    0.09350    1.000
    H92      H        0.41790    0.54360    0.10080    1.000
    C74      C        0.84500    0.49930    0.22080    1.000
    H93      H        0.93550    0.49240    0.19690    1.000
    H94      H        0.84860    0.53900    0.24910    1.000
    N16      N        0.82300    0.45170    0.28740    1.000
    C75      C        0.84200    0.39130    0.24880    1.000
    H95      H        0.93630    0.38840    0.22920    1.000
    H96      H        0.77630    0.38650    0.19810    1.000
    C76      C        0.82100    0.34280    0.30980    1.000
    H97      H        0.72450    0.34380    0.32670    1.000
    H98      H        0.83630    0.30370    0.28220    1.000
    N17      N        0.91600    0.34910    0.38630    1.000
    C77      C        0.89500    0.40940    0.42250    1.000
    H99      H        0.79990    0.41260    0.44080    1.000
    H100     H        0.95910    0.41490    0.47390    1.000
    C78      C        0.91900    0.45760    0.35950    1.000
    H101     H        0.01370    0.45460    0.34090    1.000
    H102     H        0.90800    0.49720    0.38660    1.000
    C79      C        0.91300    0.29970    0.44360    1.000
    H103     H        0.94180    0.26340    0.41320    1.000
    H104     H        0.98180    0.30680    0.49200    1.000
    C80      C        0.77500    0.28680    0.48020    1.000
    C81      C        0.69000    0.24470    0.44190    1.000
    H105     H        0.72190    0.22200    0.39570    1.000
    C82      C        0.55900    0.23380    0.46820    1.000
    H106     H        0.50130    0.20460    0.44000    1.000
    N18      N        0.51400    0.26670    0.53660    1.000
    C83      C        0.59700    0.30330    0.57570    1.000
    H107     H        0.56800    0.32310    0.62520    1.000
    C84      C        0.72900    0.31600    0.54940    1.000
    H108     H        0.78550    0.34480    0.57950    1.000
    Ag7      Ag       0.31176    0.24751    0.57738    1.000
    Ag8      Ag       0.11360    0.04396    0.83182    1.000
    N19      N        0.11700    0.22060    0.61320    1.000
    C85      C        0.06200    0.24770    0.68070    1.000
    H109     H        0.11270    0.27920    0.70910    1.000
    C86      C        0.93400    0.23100    0.71040    1.000
    H110     H        0.90050    0.25120    0.75820    1.000
    C87      C        0.85800    0.18600    0.67090    1.000
    C88      C        0.91600    0.15860    0.60000    1.000
    H111     H        0.86900    0.12680    0.57030    1.000
    C89      C        0.04100    0.17750    0.57380    1.000
    H112     H        0.07600    0.15900    0.52490    1.000
    C90      C        0.72800    0.16300    0.70230    1.000
    H113     H        0.67610    0.19670    0.72570    1.000
    H114     H        0.67110    0.14550    0.65370    1.000
    N20      N        0.75460    0.11550    0.77180    1.000
    C91      C        0.80900    0.05940    0.73640    1.000
    H115     H        0.90250    0.06670    0.71660    1.000
    H116     H        0.74890    0.04590    0.68670    1.000
    C92      C        0.81670    0.01250    0.80340    1.000
    H117     H        0.72330    0.00430    0.82190    1.000
    H118     H        0.85330    0.97500    0.78000    1.000
    N21      N        0.91310    0.03380    0.88250    1.000
    C93      C        0.85700    0.08820    0.91310    1.000
    H119     H        0.76420    0.08000    0.93310    1.000
    H120     H        0.91570    0.10280    0.96280    1.000
    C94      C        0.84500    0.13650    0.84600    1.000
    H121     H        0.93710    0.14630    0.82710    1.000
    H122     H        0.80550    0.17310    0.87030    1.000
    C95      C        0.91600    0.98420    0.94440    1.000
    H123     H        0.82480    0.98070    0.96820    1.000
    H124     H        0.93450    0.94630    0.91420    1.000
    C96      C        0.02600    0.99300    0.01770    1.000
    C97      C        0.15500    0.96760    0.00620    1.000
    H125     H        0.17140    0.94700    0.95470    1.000
    C98      C        0.25700    0.97320    0.07160    1.000
    H126     H        0.34590    0.95790    0.06300    1.000
    C99      C        0.23500    0.00010    0.14850    1.000
    C100     C        0.10800    0.02710    0.15640    1.000
    H127     H        0.09310    0.04830    0.20760    1.000
    C101     C        0.00400    0.02450    0.09350    1.000
    H128     H        0.91790    0.04360    0.10080    1.000
    C102     C        0.34500    0.99930    0.22080    1.000
    H129     H        0.43550    0.99240    0.19690    1.000
    H130     H        0.34860    0.03900    0.24910    1.000
    N22      N        0.32300    0.95170    0.28740    1.000
    C103     C        0.34200    0.89130    0.24880    1.000
    H131     H        0.43630    0.88840    0.22920    1.000
    H132     H        0.27630    0.88650    0.19810    1.000
    C104     C        0.32100    0.84280    0.30980    1.000
    H133     H        0.22450    0.84380    0.32670    1.000
    H134     H        0.33630    0.80370    0.28220    1.000
    N23      N        0.41600    0.84910    0.38630    1.000
    C105     C        0.39500    0.90940    0.42250    1.000
    H135     H        0.29990    0.91260    0.44080    1.000
    H136     H        0.45910    0.91490    0.47390    1.000
    C106     C        0.41900    0.95760    0.35950    1.000
    H137     H        0.51370    0.95460    0.34090    1.000
    H138     H        0.40800    0.99720    0.38660    1.000
    C107     C        0.41300    0.79970    0.44360    1.000
    H139     H        0.44180    0.76340    0.41320    1.000
    H140     H        0.48180    0.80680    0.49200    1.000
    C108     C        0.27500    0.78680    0.48020    1.000
    C109     C        0.19000    0.74470    0.44190    1.000
    H141     H        0.22190    0.72200    0.39570    1.000
    C110     C        0.05900    0.73380    0.46820    1.000
    H142     H        0.00130    0.70460    0.44000    1.000
    N24      N        0.01400    0.76670    0.53660    1.000
    C111     C        0.09700    0.80330    0.57570    1.000
    H143     H        0.06800    0.82310    0.62520    1.000
    C112     C        0.22900    0.81600    0.54940    1.000
    H144     H        0.28550    0.84480    0.57950    1.000
