# CIF file generated by openbabel 3.1.0, see https://openbabel.org
data_I
_chemical_name_common 'MIHLEV_clean'
_cell_length_a 7.4595
_cell_length_b 11.474
_cell_length_c 16.4767
_cell_angle_alpha 98.9511
_cell_angle_beta 90.9863
_cell_angle_gamma 91.3109
_space_group_name_H-M_alt 'P 1'
_space_group_name_Hall 'P 1'
loop_
    _symmetry_equiv_pos_as_xyz
    x,y,z
loop_
    _atom_site_label
    _atom_site_type_symbol
    _atom_site_fract_x
    _atom_site_fract_y
    _atom_site_fract_z
    _atom_site_occupancy
    Pr1      Pr       0.75915    0.57644    0.00495    1.000
    Pr2      Pr       0.24085    0.42356    0.99505    1.000
    H1       H        0.31280    0.39130    0.41070    1.000
    H2       H        0.08690    0.35880    0.51380    1.000
    H3       H        0.94690    0.00600    0.68450    1.000
    H4       H        0.10010    0.82310    0.70330    1.000
    H5       H        0.40930    0.08240    0.48510    1.000
    H6       H        0.79980    0.21580    0.53020    1.000
    H7       H        0.58540    0.33140    0.60490    1.000
    H8       H        0.63210    0.39780    0.74440    1.000
    H9       H        0.10720    0.23290    0.73740    1.000
    H10      H        0.80840    0.39840    0.41500    1.000
    H11      H        0.89040    0.54180    0.33590    1.000
    H12      H        0.75430    0.54310    0.20720    1.000
    H13      H        0.44570    0.25920    0.23890    1.000
    H14      H        0.19120    0.73700    0.94240    1.000
    H15      H        0.68720    0.60870    0.58930    1.000
    H16      H        0.91310    0.64120    0.48620    1.000
    H17      H        0.05310    0.99400    0.31550    1.000
    H18      H        0.89990    0.17690    0.29670    1.000
    H19      H        0.59070    0.91760    0.51490    1.000
    H20      H        0.20020    0.78420    0.46980    1.000
    H21      H        0.41460    0.66860    0.39510    1.000
    H22      H        0.36790    0.60220    0.25560    1.000
    H23      H        0.89280    0.76710    0.26260    1.000
    H24      H        0.19160    0.60160    0.58500    1.000
    H25      H        0.10960    0.45820    0.66410    1.000
    H26      H        0.24570    0.45690    0.79280    1.000
    H27      H        0.55430    0.74080    0.76110    1.000
    H28      H        0.80880    0.26300    0.05760    1.000
    C1       C        0.42320    0.22800    0.43060    1.000
    C2       C        0.30530    0.32560    0.43920    1.000
    C3       C        0.18090    0.30730    0.49540    1.000
    C4       C        0.21600    0.19670    0.52210    1.000
    C5       C        0.12300    0.14590    0.58100    1.000
    C6       C        0.16420    0.03710    0.60540    1.000
    C7       C        0.05600    0.97890    0.66030    1.000
    C8       C        0.13890    0.87950    0.67040    1.000
    C9       C        0.29860    0.87470    0.62170    1.000
    C10      C        0.57750    0.21660    0.38310    1.000
    C11      C        0.97750    0.21490    0.62620    1.000
    C12      C        0.81970    0.24330    0.58710    1.000
    C13      C        0.69180    0.31180    0.63170    1.000
    C14      C        0.71960    0.35110    0.71450    1.000
    C15      C        0.87480    0.32290    0.75440    1.000
    C16      C        0.00230    0.25370    0.71000    1.000
    C17      C        0.91090    0.37030    0.84400    1.000
    C18      C        0.62020    0.31280    0.33420    1.000
    C19      C        0.75190    0.39860    0.36290    1.000
    C20      C        0.80070    0.48380    0.31580    1.000
    C21      C        0.71970    0.48510    0.23970    1.000
    C22      C        0.58750    0.40090    0.21120    1.000
    C23      C        0.53750    0.31590    0.25850    1.000
    C24      C        0.49520    0.40030    0.12990    1.000
    C25      C        0.08250    0.70130    0.95680    1.000
    C26      C        0.57680    0.77200    0.56940    1.000
    C27      C        0.69470    0.67440    0.56080    1.000
    C28      C        0.81910    0.69270    0.50460    1.000
    C29      C        0.78400    0.80330    0.47790    1.000
    C30      C        0.87700    0.85410    0.41900    1.000
    C31      C        0.83580    0.96290    0.39460    1.000
    C32      C        0.94400    0.02110    0.33970    1.000
    C33      C        0.86110    0.12050    0.32960    1.000
    C34      C        0.70140    0.12530    0.37830    1.000
    C35      C        0.42250    0.78340    0.61690    1.000
    C36      C        0.02250    0.78510    0.37380    1.000
    C37      C        0.18030    0.75670    0.41290    1.000
    C38      C        0.30820    0.68820    0.36830    1.000
    C39      C        0.28040    0.64890    0.28550    1.000
    C40      C        0.12520    0.67710    0.24560    1.000
    C41      C        0.99770    0.74630    0.29000    1.000
    C42      C        0.08910    0.62970    0.15600    1.000
    C43      C        0.37980    0.68720    0.66580    1.000
    C44      C        0.24810    0.60140    0.63710    1.000
    C45      C        0.19930    0.51620    0.68420    1.000
    C46      C        0.28030    0.51490    0.76030    1.000
    C47      C        0.41250    0.59910    0.78880    1.000
    C48      C        0.46250    0.68410    0.74150    1.000
    C49      C        0.50480    0.59970    0.87010    1.000
    C50      C        0.91750    0.29870    0.04320    1.000
    N1       N        0.36190    0.15070    0.48057    1.000
    N2       N        0.31020    0.97100    0.58218    1.000
    N3       N        0.63810    0.84930    0.51943    1.000
    N4       N        0.68980    0.02900    0.41782    1.000
    O1       O        0.78870    0.42600    0.88302    1.000
    O2       O        0.06310    0.34890    0.87358    1.000
    O3       O        0.54960    0.46900    0.08066    1.000
    O4       O        0.36180    0.33290    0.11180    1.000
    O5       O        0.95660    0.76570    0.97840    1.000
    O6       O        0.07510    0.58980    0.95257    1.000
    O7       O        0.21130    0.57400    0.11698    1.000
    O8       O        0.93690    0.65110    0.12642    1.000
    O9       O        0.45040    0.53100    0.91934    1.000
    O10      O        0.63820    0.66710    0.88820    1.000
    O11      O        0.04340    0.23430    0.02160    1.000
    O12      O        0.92490    0.41020    0.04743    1.000
