# CIF file generated by openbabel 3.1.0, see https://openbabel.org
data_I
_chemical_name_common 'image0'
_cell_length_a 17.762
_cell_length_b 12.868
_cell_length_c 11.2322
_cell_angle_alpha 90
_cell_angle_beta 95.198
_cell_angle_gamma 90
_space_group_name_H-M_alt 'P 1'
_space_group_name_Hall 'P 1'
loop_
    _symmetry_equiv_pos_as_xyz
    x,y,z
loop_
    _atom_site_label
    _atom_site_type_symbol
    _atom_site_fract_x
    _atom_site_fract_y
    _atom_site_fract_z
    _atom_site_occupancy
    Co1      Co       0.57936    0.55808    0.00037    1.000
    N1       N        0.87330    0.93520    0.16220    1.000
    N2       N        0.90950    0.98360    0.25360    1.000
    N3       N        0.87630    0.97220    0.35560    1.000
    C1       C        0.81130    0.88890    0.20420    1.000
    C2       C        0.81530    0.91030    0.32810    1.000
    C3       C        0.76090    0.87450    0.39990    1.000
    H1       H        0.76200    0.89210    0.48030    1.000
    C4       C        0.70380    0.81020    0.34400    1.000
    H2       H        0.66940    0.77890    0.39020    1.000
    C5       C        0.69780    0.79210    0.21830    1.000
    C6       C        0.75200    0.82720    0.14860    1.000
    H3       H        0.75000    0.81100    0.06770    1.000
    C7       C        0.63540    0.72280    0.16930    1.000
    O1       O        0.63750    0.68660    0.06470    1.000
    O2       O        0.58230    0.70970    0.23530    1.000
    O3       O        0.48110    0.57730    0.06830    1.000
    H4       H        0.44690    0.61810    0.03680    1.000
    Co2      Co       0.07936    0.05808    0.00037    1.000
    N4       N        0.37330    0.43520    0.16220    1.000
    N5       N        0.40950    0.48360    0.25360    1.000
    N6       N        0.37630    0.47220    0.35560    1.000
    C8       C        0.31130    0.38890    0.20420    1.000
    C9       C        0.31530    0.41030    0.32810    1.000
    C10      C        0.26090    0.37450    0.39990    1.000
    H5       H        0.26200    0.39210    0.48030    1.000
    C11      C        0.20380    0.31020    0.34400    1.000
    H6       H        0.16940    0.27890    0.39020    1.000
    C12      C        0.19780    0.29210    0.21830    1.000
    C13      C        0.25200    0.32720    0.14860    1.000
    H7       H        0.25000    0.31100    0.06770    1.000
    C14      C        0.13540    0.22280    0.16930    1.000
    O4       O        0.13750    0.18660    0.06470    1.000
    O5       O        0.08230    0.20970    0.23530    1.000
    O6       O        0.98110    0.07730    0.06830    1.000
    H8       H        0.94690    0.11810    0.03680    1.000
    Co3      Co       0.42064    0.55808    0.49963    1.000
    N7       N        0.12670    0.93520    0.33780    1.000
    N8       N        0.09050    0.98360    0.24640    1.000
    N9       N        0.12370    0.97220    0.14440    1.000
    C15      C        0.18870    0.88890    0.29580    1.000
    C16      C        0.18470    0.91030    0.17190    1.000
    C17      C        0.23910    0.87450    0.10010    1.000
    H9       H        0.23800    0.89210    0.01970    1.000
    C18      C        0.29620    0.81020    0.15600    1.000
    H10      H        0.33060    0.77890    0.10980    1.000
    C19      C        0.30220    0.79210    0.28170    1.000
    C20      C        0.24800    0.82720    0.35140    1.000
    H11      H        0.25000    0.81100    0.43230    1.000
    C21      C        0.36460    0.72280    0.33070    1.000
    O7       O        0.36250    0.68660    0.43530    1.000
    O8       O        0.41770    0.70970    0.26470    1.000
    O9       O        0.51890    0.57730    0.43170    1.000
    H12      H        0.55310    0.61810    0.46320    1.000
    Co4      Co       0.92064    0.05808    0.49963    1.000
    N10      N        0.62670    0.43520    0.33780    1.000
    N11      N        0.59050    0.48360    0.24640    1.000
    N12      N        0.62370    0.47220    0.14440    1.000
    C22      C        0.68870    0.38890    0.29580    1.000
    C23      C        0.68470    0.41030    0.17190    1.000
    C24      C        0.73910    0.37450    0.10010    1.000
    H13      H        0.73800    0.39210    0.01970    1.000
    C25      C        0.79620    0.31020    0.15600    1.000
    H14      H        0.83060    0.27890    0.10980    1.000
    C26      C        0.80220    0.29210    0.28170    1.000
    C27      C        0.74800    0.32720    0.35140    1.000
    H15      H        0.75000    0.31100    0.43230    1.000
    C28      C        0.86460    0.22280    0.33070    1.000
    O10      O        0.86250    0.18660    0.43530    1.000
    O11      O        0.91770    0.20970    0.26470    1.000
    O12      O        0.01890    0.07730    0.43170    1.000
    H16      H        0.05310    0.11810    0.46320    1.000
    Co5      Co       0.42064    0.44192    0.99963    1.000
    N13      N        0.12670    0.06480    0.83780    1.000
    N14      N        0.09050    0.01640    0.74640    1.000
    N15      N        0.12370    0.02780    0.64440    1.000
    C29      C        0.18870    0.11110    0.79580    1.000
    C30      C        0.18470    0.08970    0.67190    1.000
    C31      C        0.23910    0.12550    0.60010    1.000
    H17      H        0.23800    0.10790    0.51970    1.000
    C32      C        0.29620    0.18980    0.65600    1.000
    H18      H        0.33060    0.22110    0.60980    1.000
    C33      C        0.30220    0.20790    0.78170    1.000
    C34      C        0.24800    0.17280    0.85140    1.000
    H19      H        0.25000    0.18900    0.93230    1.000
    C35      C        0.36460    0.27720    0.83070    1.000
    O13      O        0.36250    0.31340    0.93530    1.000
    O14      O        0.41770    0.29030    0.76470    1.000
    O15      O        0.51890    0.42270    0.93170    1.000
    H20      H        0.55310    0.38190    0.96320    1.000
    Co6      Co       0.92064    0.94192    0.99963    1.000
    N16      N        0.62670    0.56480    0.83780    1.000
    N17      N        0.59050    0.51640    0.74640    1.000
    N18      N        0.62370    0.52780    0.64440    1.000
    C36      C        0.68870    0.61110    0.79580    1.000
    C37      C        0.68470    0.58970    0.67190    1.000
    C38      C        0.73910    0.62550    0.60010    1.000
    H21      H        0.73800    0.60790    0.51970    1.000
    C39      C        0.79620    0.68980    0.65600    1.000
    H22      H        0.83060    0.72110    0.60980    1.000
    C40      C        0.80220    0.70790    0.78170    1.000
    C41      C        0.74800    0.67280    0.85140    1.000
    H23      H        0.75000    0.68900    0.93230    1.000
    C42      C        0.86460    0.77720    0.83070    1.000
    O16      O        0.86250    0.81340    0.93530    1.000
    O17      O        0.91770    0.79030    0.76470    1.000
    O18      O        0.01890    0.92270    0.93170    1.000
    H24      H        0.05310    0.88190    0.96320    1.000
    Co7      Co       0.57936    0.44192    0.50037    1.000
    N19      N        0.87330    0.06480    0.66220    1.000
    N20      N        0.90950    0.01640    0.75360    1.000
    N21      N        0.87630    0.02780    0.85560    1.000
    C43      C        0.81130    0.11110    0.70420    1.000
    C44      C        0.81530    0.08970    0.82810    1.000
    C45      C        0.76090    0.12550    0.89990    1.000
    H25      H        0.76200    0.10790    0.98030    1.000
    C46      C        0.70380    0.18980    0.84400    1.000
    H26      H        0.66940    0.22110    0.89020    1.000
    C47      C        0.69780    0.20790    0.71830    1.000
    C48      C        0.75200    0.17280    0.64860    1.000
    H27      H        0.75000    0.18900    0.56770    1.000
    C49      C        0.63540    0.27720    0.66930    1.000
    O19      O        0.63750    0.31340    0.56470    1.000
    O20      O        0.58230    0.29030    0.73530    1.000
    O21      O        0.48110    0.42270    0.56830    1.000
    H28      H        0.44690    0.38190    0.53680    1.000
    Co8      Co       0.07936    0.94192    0.50037    1.000
    N22      N        0.37330    0.56480    0.66220    1.000
    N23      N        0.40950    0.51640    0.75360    1.000
    N24      N        0.37630    0.52780    0.85560    1.000
    C50      C        0.31130    0.61110    0.70420    1.000
    C51      C        0.31530    0.58970    0.82810    1.000
    C52      C        0.26090    0.62550    0.89990    1.000
    H29      H        0.26200    0.60790    0.98030    1.000
    C53      C        0.20380    0.68980    0.84400    1.000
    H30      H        0.16940    0.72110    0.89020    1.000
    C54      C        0.19780    0.70790    0.71830    1.000
    C55      C        0.25200    0.67280    0.64860    1.000
    H31      H        0.25000    0.68900    0.56770    1.000
    C56      C        0.13540    0.77720    0.66930    1.000
    O22      O        0.13750    0.81340    0.56470    1.000
    O23      O        0.08230    0.79030    0.73530    1.000
    O24      O        0.98110    0.92270    0.56830    1.000
    H32      H        0.94690    0.88190    0.53680    1.000
    Co9      Co       0.50000    0.59410    0.25000    1.000
    Co10     Co       0.00000    0.09410    0.25000    1.000
    Co11     Co       0.50000    0.40590    0.75000    1.000
    Co12     Co       0.00000    0.90590    0.75000    1.000
