# CIF file generated by openbabel 3.1.0, see https://openbabel.org
data_I
_chemical_name_common 'image0'
_cell_length_a 6.6837
_cell_length_b 18.4684
_cell_length_c 8.4759
_cell_angle_alpha 90
_cell_angle_beta 90
_cell_angle_gamma 90
_space_group_name_H-M_alt 'P 1'
_space_group_name_Hall 'P 1'
loop_
    _symmetry_equiv_pos_as_xyz
    x,y,z
loop_
    _atom_site_label
    _atom_site_type_symbol
    _atom_site_fract_x
    _atom_site_fract_y
    _atom_site_fract_z
    _atom_site_occupancy
    O1       O        0.51210    0.95002    0.06930    1.000
    O2       O        0.83630    0.90585    0.27160    1.000
    O3       O        0.82020    0.74263    0.84710    1.000
    O4       O        0.67510    0.81686    0.01780    1.000
    C1       C        0.73560    0.75720    0.97490    1.000
    H1       H        0.71640    0.71890    0.04450    1.000
    O5       O        0.01210    0.45002    0.06930    1.000
    O6       O        0.33630    0.40585    0.27160    1.000
    O7       O        0.32020    0.24263    0.84710    1.000
    O8       O        0.17510    0.31686    0.01780    1.000
    C2       C        0.23560    0.25720    0.97490    1.000
    H2       H        0.21640    0.21890    0.04450    1.000
    O9       O        0.48790    0.04998    0.56930    1.000
    O10      O        0.16370    0.09415    0.77160    1.000
    O11      O        0.17980    0.25737    0.34710    1.000
    O12      O        0.32490    0.18314    0.51780    1.000
    C3       C        0.26440    0.24280    0.47490    1.000
    H3       H        0.28360    0.28110    0.54450    1.000
    O13      O        0.98790    0.54998    0.56930    1.000
    O14      O        0.66370    0.59415    0.77160    1.000
    O15      O        0.67980    0.75737    0.34710    1.000
    O16      O        0.82490    0.68314    0.51780    1.000
    C4       C        0.76440    0.74280    0.47490    1.000
    H4       H        0.78360    0.78110    0.54450    1.000
    O17      O        0.48790    0.95002    0.43070    1.000
    O18      O        0.16370    0.90585    0.22840    1.000
    O19      O        0.17980    0.74263    0.65290    1.000
    O20      O        0.32490    0.81686    0.48220    1.000
    C5       C        0.26440    0.75720    0.52510    1.000
    H5       H        0.28360    0.71890    0.45550    1.000
    O21      O        0.98790    0.45002    0.43070    1.000
    O22      O        0.66370    0.40585    0.22840    1.000
    O23      O        0.67980    0.24263    0.65290    1.000
    O24      O        0.82490    0.31686    0.48220    1.000
    C6       C        0.76440    0.25720    0.52510    1.000
    H6       H        0.78360    0.21890    0.45550    1.000
    O25      O        0.51210    0.04998    0.93070    1.000
    O26      O        0.83630    0.09415    0.72840    1.000
    O27      O        0.82020    0.25737    0.15290    1.000
    O28      O        0.67510    0.18314    0.98220    1.000
    C7       C        0.73560    0.24280    0.02510    1.000
    H7       H        0.71640    0.28110    0.95550    1.000
    O29      O        0.01210    0.54998    0.93070    1.000
    O30      O        0.33630    0.59415    0.72840    1.000
    O31      O        0.32020    0.75737    0.15290    1.000
    O32      O        0.17510    0.68314    0.98220    1.000
    C8       C        0.23560    0.74280    0.02510    1.000
    H8       H        0.21640    0.78110    0.95550    1.000
    Dy1      Dy       0.50000    0.85736    0.25000    1.000
    Dy2      Dy       0.00000    0.35736    0.25000    1.000
    Dy3      Dy       0.50000    0.14264    0.75000    1.000
    Dy4      Dy       0.00000    0.64264    0.75000    1.000
    C9       C        0.42600    0.00000    0.00000    1.000
    H9       H        0.28680    0.00000    0.00000    1.000
    C10      C        0.92600    0.50000    0.00000    1.000
    H10      H        0.78680    0.50000    0.00000    1.000
    C11      C        0.57400    0.00000    0.50000    1.000
    H11      H        0.71320    0.00000    0.50000    1.000
    C12      C        0.07400    0.50000    0.50000    1.000
    H12      H        0.21320    0.50000    0.50000    1.000
    C13      C        0.00000    0.87530    0.25000    1.000
    H13      H        0.00000    0.82490    0.25000    1.000
    C14      C        0.50000    0.37530    0.25000    1.000
    H14      H        0.50000    0.32490    0.25000    1.000
    C15      C        0.00000    0.12470    0.75000    1.000
    H15      H        0.00000    0.17510    0.75000    1.000
    C16      C        0.50000    0.62470    0.75000    1.000
    H16      H        0.50000    0.67510    0.75000    1.000
