data_functionalizedCrystal
_audit_creation_method	'EQeq! by Chris Wilmer'
_symmetry_space_group_name_H-M	'P1'
_symmetry_Int_Tables_number	1
_symmetry_cell_setting	triclinic
loop_
_symmetry_equiv_pos_as_xyz
  x,y,z
_cell_length_a	35.522
_cell_length_b	13.846
_cell_length_c	9.548
_cell_angle_alpha	90
_cell_angle_beta	103.2
_cell_angle_gamma	90
loop_
_atom_site_label
_atom_site_type_symbol
_atom_site_fract_x
_atom_site_fract_y
_atom_site_fract_z
_atom_site_charge
Mof_Co	Co	0.3645	0.20681	0.17226	1.114
Mof_O 	O 	0.14611	0.55841	0.0667	-0.334
Mof_N 	N 	0.33228	0.216	0.9551	-0.259
Mof_O 	O 	0.33546	0.32691	0.2192	-0.432
Mof_O 	O 	0.17877	0.62203	0.274	-0.436
Mof_O 	O 	0.36667	0.3632	0.4424	-0.314
Mof_N 	N 	0.40821	0.296	0.1158	-0.274
Mof_C 	C 	0.27383	0.2557	0.788	-0.218
Mof_H 	H 	0.2482	0.2754	0.7723	0.117
Mof_C 	C 	0.27655	0.4523	0.2441	0.022
Mof_H 	H 	0.2755	0.4191	0.1586	0.038
Mof_C 	C 	0.21047	0.511	0.1545	-0.242
Mof_H 	H 	0.2091	0.4745	0.0717	0.123
Mof_C 	C 	0.24287	0.5091	0.2533	0.035
Mof_H 	H 	0.2444	0.5468	0.3351	0.03
Mof_C 	C 	0.29576	0.2442	0.9255	0.13
Mof_H 	H 	0.2843	0.2569	0.0019	-0.014
Mof_C 	C 	0.2907	0.2373	0.6727	0.166
Mof_C 	C 	0.17605	0.5672	0.1662	0.38
Mof_C 	C 	0.33943	0.3734	0.3348	0.387
Mof_C 	C 	0.32857	0.2077	0.7037	-0.22
Mof_H 	H 	0.3408	0.1939	0.6296	0.117
Mof_C 	C 	0.34834	0.1986	0.844	0.131
Mof_H 	H 	0.3741	0.1794	0.8629	-0.039
Mof_C 	C 	0.30841	0.4434	0.3453	-0.231
Mof_H 	H 	0.3117	0.4824	0.4266	0.122
Mof_C 	C 	0.26873	0.2458	0.5196	-0.165
Mof_H 	H 	0.2794	0.3013	0.4799	0.085
Mof_H 	H 	0.2755	0.1896	0.47	0.083
Mof_C 	C 	0.4433	0.2644	0.116	0.124
Mof_H 	H 	0.4501	0.2021	0.1488	-0.056
Mof_C 	C 	0.39998	0.386	0.072	0.131
Mof_H 	H 	0.3759	0.411	0.0745	-0.016
Mof_C 	C 	0.42585	0.4439	0.0228	-0.228
Mof_H 	H 	0.4193	0.5074	0.9961	0.122
Mof_C 	C 	0.47032	0.3197	0.0698	-0.228
Mof_H 	H 	0.4952	0.296	0.0776	0.099
Mof_C 	C 	0.46092	0.4086	0.0132	0.167
Mof_C 	C 	0.4898	0.4676	0.9426	-0.174
Mof_H 	H 	0.5079	0.4248	0.9114	0.075
Mof_H 	H 	0.4759	0.5044	0.8605	0.08
Mof_Co	Co	0.8645	0.70681	0.17226	1.115
Mof_O 	O 	0.64611	0.05841	0.0667	-0.332
Mof_N 	N 	0.83228	0.716	0.9551	-0.26
Mof_O 	O 	0.83546	0.82691	0.2192	-0.432
Mof_O 	O 	0.67877	0.12203	0.274	-0.436
Mof_O 	O 	0.86667	0.8632	0.4424	-0.314
Mof_N 	N 	0.90821	0.796	0.1158	-0.274
Mof_C 	C 	0.77383	0.7557	0.788	-0.221
Mof_H 	H 	0.7482	0.7754	0.7723	0.118
Mof_C 	C 	0.77655	0.9523	0.2441	0.022
Mof_H 	H 	0.7755	0.9191	0.1586	0.038
Mof_C 	C 	0.71047	0.011	0.1545	-0.241
Mof_H 	H 	0.7091	0.9745	0.0717	0.122
Mof_C 	C 	0.74287	0.0091	0.2533	0.034
Mof_H 	H 	0.7444	0.0468	0.3351	0.03
Mof_C 	C 	0.79576	0.7442	0.9255	0.133
Mof_H 	H 	0.7843	0.7569	0.0019	-0.016
Mof_C 	C 	0.7907	0.7373	0.6727	0.169
Mof_C 	C 	0.67605	0.0672	0.1662	0.379
Mof_C 	C 	0.83943	0.8734	0.3348	0.387
Mof_C 	C 	0.82857	0.7077	0.7037	-0.222
Mof_H 	H 	0.8408	0.6939	0.6296	0.118
Mof_C 	C 	0.84834	0.6986	0.844	0.132
Mof_H 	H 	0.8741	0.6794	0.8629	-0.039
Mof_C 	C 	0.80841	0.9434	0.3453	-0.231
Mof_H 	H 	0.8117	0.9824	0.4266	0.122
Mof_C 	C 	0.76873	0.7458	0.5196	-0.17
Mof_H 	H 	0.7794	0.8013	0.4799	0.086
Mof_H 	H 	0.7755	0.6896	0.47	0.084
Mof_C 	C 	0.9433	0.7644	0.116	0.123
Mof_H 	H 	0.9501	0.7021	0.1488	-0.056
Mof_C 	C 	0.89998	0.886	0.072	0.131
Mof_H 	H 	0.8759	0.911	0.0745	-0.016
Mof_C 	C 	0.92585	0.9439	0.0228	-0.227
Mof_H 	H 	0.9193	0.0074	0.9961	0.122
Mof_C 	C 	0.97032	0.8197	0.0698	-0.227
Mof_H 	H 	0.9952	0.796	0.0776	0.098
Mof_C 	C 	0.96092	0.9086	0.0132	0.166
Mof_C 	C 	0.9898	0.9676	0.9426	-0.172
Mof_H 	H 	0.0079	0.9248	0.9114	0.075
Mof_H 	H 	0.9759	0.0044	0.8605	0.079
Mof_Co	Co	0.6355	0.20681	0.32774	1.115
Mof_O 	O 	0.85389	0.55841	0.4333	-0.333
Mof_N 	N 	0.66772	0.216	0.5449	-0.26
Mof_O 	O 	0.66454	0.32691	0.2808	-0.432
Mof_O 	O 	0.82123	0.62203	0.226	-0.436
Mof_O 	O 	0.63333	0.3632	0.0576	-0.314
Mof_N 	N 	0.59179	0.296	0.3842	-0.274
Mof_C 	C 	0.72617	0.2557	0.712	-0.223
Mof_H 	H 	0.7518	0.2754	0.7277	0.119
Mof_C 	C 	0.72345	0.4523	0.2559	0.022
Mof_H 	H 	0.7245	0.4191	0.3414	0.038
Mof_C 	C 	0.78953	0.511	0.3455	-0.242
Mof_H 	H 	0.7909	0.4745	0.4283	0.123
Mof_C 	C 	0.75713	0.5091	0.2467	0.035
Mof_H 	H 	0.7556	0.5468	0.1649	0.03
Mof_C 	C 	0.70424	0.2442	0.5745	0.134
Mof_H 	H 	0.7157	0.2569	0.4981	-0.016
Mof_C 	C 	0.7093	0.2373	0.8273	0.174
Mof_C 	C 	0.82395	0.5672	0.3338	0.38
Mof_C 	C 	0.66057	0.3734	0.1652	0.387
Mof_C 	C 	0.67143	0.2077	0.7963	-0.225
Mof_H 	H 	0.6592	0.1939	0.8704	0.118
Mof_C 	C 	0.65166	0.1986	0.656	0.134
Mof_H 	H 	0.6259	0.1794	0.6371	-0.04
Mof_C 	C 	0.69159	0.4434	0.1547	-0.231
Mof_H 	H 	0.6883	0.4824	0.0734	0.122
Mof_C 	C 	0.73127	0.2458	0.9804	-0.181
Mof_H 	H 	0.7206	0.3013	0.0201	0.09
Mof_H 	H 	0.7245	0.1896	0.03	0.088
Mof_C 	C 	0.5567	0.2644	0.384	0.124
Mof_H 	H 	0.5499	0.2021	0.3512	-0.056
Mof_C 	C 	0.60002	0.386	0.428	0.131
Mof_H 	H 	0.6241	0.411	0.4255	-0.016
Mof_C 	C 	0.57415	0.4439	0.4772	-0.228
Mof_H 	H 	0.5807	0.5074	0.5039	0.122
Mof_C 	C 	0.52968	0.3197	0.4302	-0.228
Mof_H 	H 	0.5048	0.296	0.4224	0.099
Mof_C 	C 	0.53908	0.4086	0.4868	0.167
Mof_C 	C 	0.5102	0.4676	0.5574	-0.174
Mof_H 	H 	0.4921	0.4248	0.5886	0.075
Mof_H 	H 	0.5241	0.5044	0.6395	0.08
Mof_Co	Co	0.1355	0.70681	0.32774	1.115
Mof_O 	O 	0.35389	0.05841	0.4333	-0.333
Mof_N 	N 	0.16772	0.716	0.5449	-0.259
Mof_O 	O 	0.16454	0.82691	0.2808	-0.432
Mof_O 	O 	0.32123	0.12203	0.226	-0.435
Mof_O 	O 	0.13333	0.8632	0.0576	-0.314
Mof_N 	N 	0.09179	0.796	0.3842	-0.274
Mof_C 	C 	0.22617	0.7557	0.712	-0.215
Mof_H 	H 	0.2518	0.7754	0.7277	0.116
Mof_C 	C 	0.22345	0.9523	0.2559	0.021
Mof_H 	H 	0.2245	0.9191	0.3414	0.038
Mof_C 	C 	0.28953	0.011	0.3455	-0.242
Mof_H 	H 	0.2909	0.9745	0.4283	0.123
Mof_C 	C 	0.25713	0.0091	0.2467	0.036
Mof_H 	H 	0.2556	0.0468	0.1649	0.03
Mof_C 	C 	0.20424	0.7442	0.5745	0.129
Mof_H 	H 	0.2157	0.7569	0.4981	-0.014
Mof_C 	C 	0.2093	0.7373	0.8273	0.162
Mof_C 	C 	0.32395	0.0672	0.3338	0.38
Mof_C 	C 	0.16057	0.8734	0.1652	0.387
Mof_C 	C 	0.17143	0.7077	0.7963	-0.217
Mof_H 	H 	0.1592	0.6939	0.8704	0.116
Mof_C 	C 	0.15166	0.6986	0.656	0.129
Mof_H 	H 	0.1259	0.6794	0.6371	-0.038
Mof_C 	C 	0.19159	0.9434	0.1547	-0.23
Mof_H 	H 	0.1883	0.9824	0.0734	0.122
Mof_C 	C 	0.23127	0.7458	0.9804	-0.154
Mof_H 	H 	0.2206	0.8013	0.0201	0.082
Mof_H 	H 	0.2245	0.6896	0.03	0.08
Mof_C 	C 	0.0567	0.7644	0.384	0.124
Mof_H 	H 	0.0499	0.7021	0.3512	-0.056
Mof_C 	C 	0.10002	0.886	0.428	0.131
Mof_H 	H 	0.1241	0.911	0.4255	-0.016
Mof_C 	C 	0.07415	0.9439	0.4772	-0.228
Mof_H 	H 	0.0807	0.0074	0.5039	0.122
Mof_C 	C 	0.02968	0.8197	0.4302	-0.228
Mof_H 	H 	0.0048	0.796	0.4224	0.099
Mof_C 	C 	0.03908	0.9086	0.4868	0.167
Mof_C 	C 	0.0102	0.9676	0.5574	-0.174
Mof_H 	H 	0.9921	0.9248	0.5886	0.076
Mof_H 	H 	0.0241	0.0044	0.6395	0.08
Mof_Co	Co	0.6355	0.79319	0.82774	1.115
Mof_O 	O 	0.85389	0.44159	0.9333	-0.333
Mof_N 	N 	0.66772	0.784	0.0449	-0.259
Mof_O 	O 	0.66454	0.67309	0.7808	-0.432
Mof_O 	O 	0.82123	0.37797	0.726	-0.436
Mof_O 	O 	0.63333	0.6368	0.5576	-0.314
Mof_N 	N 	0.59179	0.704	0.8842	-0.274
Mof_C 	C 	0.72617	0.7443	0.212	-0.218
Mof_H 	H 	0.7518	0.7246	0.2277	0.117
Mof_C 	C 	0.72345	0.5477	0.7559	0.022
Mof_H 	H 	0.7245	0.5809	0.8414	0.038
Mof_C 	C 	0.78953	0.489	0.8455	-0.242
Mof_H 	H 	0.7909	0.5255	0.9283	0.123
Mof_C 	C 	0.75713	0.4909	0.7467	0.035
Mof_H 	H 	0.7556	0.4532	0.6649	0.03
Mof_C 	C 	0.70424	0.7558	0.0745	0.13
Mof_H 	H 	0.7157	0.7431	0.9981	-0.014
Mof_C 	C 	0.7093	0.7627	0.3273	0.166
Mof_C 	C 	0.82395	0.4328	0.8338	0.38
Mof_C 	C 	0.66057	0.6266	0.6652	0.387
Mof_C 	C 	0.67143	0.7923	0.2963	-0.22
Mof_H 	H 	0.6592	0.8061	0.3704	0.117
Mof_C 	C 	0.65166	0.8014	0.156	0.131
Mof_H 	H 	0.6259	0.8206	0.1371	-0.039
Mof_C 	C 	0.69159	0.5566	0.6547	-0.231
Mof_H 	H 	0.6883	0.5176	0.5734	0.122
Mof_C 	C 	0.73127	0.7542	0.4804	-0.165
Mof_H 	H 	0.7206	0.6987	0.5201	0.085
Mof_H 	H 	0.7245	0.8104	0.53	0.083
Mof_C 	C 	0.5567	0.7356	0.884	0.124
Mof_H 	H 	0.5499	0.7979	0.8512	-0.056
Mof_C 	C 	0.60002	0.614	0.928	0.131
Mof_H 	H 	0.6241	0.589	0.9255	-0.016
Mof_C 	C 	0.57415	0.5561	0.9772	-0.228
Mof_H 	H 	0.5807	0.4926	0.0039	0.122
Mof_C 	C 	0.52968	0.6803	0.9302	-0.228
Mof_H 	H 	0.5048	0.704	0.9224	0.099
Mof_C 	C 	0.53908	0.5914	0.9868	0.167
Mof_C 	C 	0.5102	0.5324	0.0574	-0.174
Mof_H 	H 	0.4921	0.5752	0.0886	0.075
Mof_H 	H 	0.5241	0.4956	0.1395	0.08
Mof_Co	Co	0.1355	0.29319	0.82774	1.115
Mof_O 	O 	0.35389	0.94159	0.9333	-0.332
Mof_N 	N 	0.16772	0.284	0.0449	-0.26
Mof_O 	O 	0.16454	0.17309	0.7808	-0.432
Mof_O 	O 	0.32123	0.87797	0.726	-0.436
Mof_O 	O 	0.13333	0.1368	0.5576	-0.314
Mof_N 	N 	0.09179	0.204	0.8842	-0.274
Mof_C 	C 	0.22617	0.2443	0.212	-0.221
Mof_H 	H 	0.2518	0.2246	0.2277	0.118
Mof_C 	C 	0.22345	0.0477	0.7559	0.022
Mof_H 	H 	0.2245	0.0809	0.8414	0.038
Mof_C 	C 	0.28953	0.989	0.8455	-0.241
Mof_H 	H 	0.2909	0.0255	0.9283	0.122
Mof_C 	C 	0.25713	0.9909	0.7467	0.034
Mof_H 	H 	0.2556	0.9532	0.6649	0.03
Mof_C 	C 	0.20424	0.2558	0.0745	0.133
Mof_H 	H 	0.2157	0.2431	0.9981	-0.016
Mof_C 	C 	0.2093	0.2627	0.3273	0.169
Mof_C 	C 	0.32395	0.9328	0.8338	0.379
Mof_C 	C 	0.16057	0.1266	0.6652	0.387
Mof_C 	C 	0.17143	0.2923	0.2963	-0.222
Mof_H 	H 	0.1592	0.3061	0.3704	0.118
Mof_C 	C 	0.15166	0.3014	0.156	0.132
Mof_H 	H 	0.1259	0.3206	0.1371	-0.039
Mof_C 	C 	0.19159	0.0566	0.6547	-0.231
Mof_H 	H 	0.1883	0.0176	0.5734	0.122
Mof_C 	C 	0.23127	0.2542	0.4804	-0.17
Mof_H 	H 	0.2206	0.1987	0.5201	0.086
Mof_H 	H 	0.2245	0.3104	0.53	0.084
Mof_C 	C 	0.0567	0.2356	0.884	0.123
Mof_H 	H 	0.0499	0.2979	0.8512	-0.056
Mof_C 	C 	0.10002	0.114	0.928	0.131
Mof_H 	H 	0.1241	0.089	0.9255	-0.016
Mof_C 	C 	0.07415	0.0561	0.9772	-0.227
Mof_H 	H 	0.0807	0.9926	0.0039	0.122
Mof_C 	C 	0.02968	0.1803	0.9302	-0.227
Mof_H 	H 	0.0048	0.204	0.9224	0.098
Mof_C 	C 	0.03908	0.0914	0.9868	0.166
Mof_C 	C 	0.0102	0.0324	0.0574	-0.172
Mof_H 	H 	0.9921	0.0752	0.0886	0.075
Mof_H 	H 	0.0241	0.9956	0.1395	0.079
Mof_Co	Co	0.3645	0.79319	0.67226	1.115
Mof_O 	O 	0.14611	0.44159	0.5667	-0.333
Mof_N 	N 	0.33228	0.784	0.4551	-0.26
Mof_O 	O 	0.33546	0.67309	0.7192	-0.432
Mof_O 	O 	0.17877	0.37797	0.774	-0.436
Mof_O 	O 	0.36667	0.6368	0.9424	-0.314
Mof_N 	N 	0.40821	0.704	0.6158	-0.274
Mof_C 	C 	0.27383	0.7443	0.288	-0.223
Mof_H 	H 	0.2482	0.7246	0.2723	0.119
Mof_C 	C 	0.27655	0.5477	0.7441	0.022
Mof_H 	H 	0.2755	0.5809	0.6586	0.038
Mof_C 	C 	0.21047	0.489	0.6545	-0.242
Mof_H 	H 	0.2091	0.5255	0.5717	0.123
Mof_C 	C 	0.24287	0.4909	0.7533	0.035
Mof_H 	H 	0.2444	0.4532	0.8351	0.03
Mof_C 	C 	0.29576	0.7558	0.4255	0.134
Mof_H 	H 	0.2843	0.7431	0.5019	-0.016
Mof_C 	C 	0.2907	0.7627	0.1727	0.174
Mof_C 	C 	0.17605	0.4328	0.6662	0.38
Mof_C 	C 	0.33943	0.6266	0.8348	0.387
Mof_C 	C 	0.32857	0.7923	0.2037	-0.225
Mof_H 	H 	0.3408	0.8061	0.1296	0.118
Mof_C 	C 	0.34834	0.8014	0.344	0.134
Mof_H 	H 	0.3741	0.8206	0.3629	-0.04
Mof_C 	C 	0.30841	0.5566	0.8453	-0.231
Mof_H 	H 	0.3117	0.5176	0.9266	0.122
Mof_C 	C 	0.26873	0.7542	0.0196	-0.181
Mof_H 	H 	0.2794	0.6987	0.9799	0.09
Mof_H 	H 	0.2755	0.8104	0.97	0.088
Mof_C 	C 	0.4433	0.7356	0.616	0.124
Mof_H 	H 	0.4501	0.7979	0.6488	-0.056
Mof_C 	C 	0.39998	0.614	0.572	0.131
Mof_H 	H 	0.3759	0.589	0.5745	-0.016
Mof_C 	C 	0.42585	0.5561	0.5228	-0.228
Mof_H 	H 	0.4193	0.4926	0.4961	0.122
Mof_C 	C 	0.47032	0.6803	0.5698	-0.228
Mof_H 	H 	0.4952	0.704	0.5776	0.099
Mof_C 	C 	0.46092	0.5914	0.5132	0.167
Mof_C 	C 	0.4898	0.5324	0.4426	-0.174
Mof_H 	H 	0.5079	0.5752	0.4114	0.075
Mof_H 	H 	0.4759	0.4956	0.3605	0.08
Mof_Co	Co	0.8645	0.29319	0.67226	1.115
Mof_O 	O 	0.64611	0.94159	0.5667	-0.333
Mof_N 	N 	0.83228	0.284	0.4551	-0.259
Mof_O 	O 	0.83546	0.17309	0.7192	-0.432
Mof_O 	O 	0.67877	0.87797	0.774	-0.435
Mof_O 	O 	0.86667	0.1368	0.9424	-0.314
Mof_N 	N 	0.90821	0.204	0.6158	-0.274
Mof_C 	C 	0.77383	0.2443	0.288	-0.215
Mof_H 	H 	0.7482	0.2246	0.2723	0.116
Mof_C 	C 	0.77655	0.0477	0.7441	0.021
Mof_H 	H 	0.7755	0.0809	0.6586	0.038
Mof_C 	C 	0.71047	0.989	0.6545	-0.242
Mof_H 	H 	0.7091	0.0255	0.5717	0.123
Mof_C 	C 	0.74287	0.9909	0.7533	0.036
Mof_H 	H 	0.7444	0.9532	0.8351	0.03
Mof_C 	C 	0.79576	0.2558	0.4255	0.129
Mof_H 	H 	0.7843	0.2431	0.5019	-0.014
Mof_C 	C 	0.7907	0.2627	0.1727	0.162
Mof_C 	C 	0.67605	0.9328	0.6662	0.38
Mof_C 	C 	0.83943	0.1266	0.8348	0.387
Mof_C 	C 	0.82857	0.2923	0.2037	-0.217
Mof_H 	H 	0.8408	0.3061	0.1296	0.116
Mof_C 	C 	0.84834	0.3014	0.344	0.129
Mof_H 	H 	0.8741	0.3206	0.3629	-0.038
Mof_C 	C 	0.80841	0.0566	0.8453	-0.23
Mof_H 	H 	0.8117	0.0176	0.9266	0.122
Mof_C 	C 	0.76873	0.2542	0.0196	-0.154
Mof_H 	H 	0.7794	0.1987	0.9799	0.082
Mof_H 	H 	0.7755	0.3104	0.97	0.08
Mof_C 	C 	0.9433	0.2356	0.616	0.124
Mof_H 	H 	0.9501	0.2979	0.6488	-0.056
Mof_C 	C 	0.89998	0.114	0.572	0.131
Mof_H 	H 	0.8759	0.089	0.5745	-0.016
Mof_C 	C 	0.92585	0.0561	0.5228	-0.228
Mof_H 	H 	0.9193	0.9926	0.4961	0.122
Mof_C 	C 	0.97032	0.1803	0.5698	-0.228
Mof_H 	H 	0.9952	0.204	0.5776	0.099
Mof_C 	C 	0.96092	0.0914	0.5132	0.167
Mof_C 	C 	0.9898	0.0324	0.4426	-0.174
Mof_H 	H 	0.0079	0.0752	0.4114	0.076
Mof_H 	H 	0.9759	0.9956	0.3605	0.08
_end
