data_functionalizedCrystal
_audit_creation_method	'EQeq! by Chris Wilmer'
_symmetry_space_group_name_H-M	'P1'
_symmetry_Int_Tables_number	1
_symmetry_cell_setting	triclinic
loop_
_symmetry_equiv_pos_as_xyz
  x,y,z
_cell_length_a	18.2519
_cell_length_b	18.2519
_cell_length_c	18.252
_cell_angle_alpha	60.0037
_cell_angle_beta	60.0037
_cell_angle_gamma	60.0005
loop_
_atom_site_label
_atom_site_type_symbol
_atom_site_fract_x
_atom_site_fract_y
_atom_site_fract_z
_atom_site_charge
Mof_Zn	Zn	0.88127	0.70639	0.20624	1.206
Mof_Zn	Zn	0.29361	0.11873	0.79376	1.206
Mof_Zn	Zn	0.11873	0.29361	0.79376	1.206
Mof_Zn	Zn	0.70639	0.88127	0.20624	1.206
Mof_Zn	Zn	0.70606	0.70606	0.38133	1.204
Mof_Zn	Zn	0.70624	0.70624	0.20614	1.203
Mof_Zn	Zn	0.29394	0.29394	0.61867	1.204
Mof_Zn	Zn	0.29376	0.29376	0.79386	1.203
Mof_H 	H 	0.5463	0.0609	0.3498	0.057
Mof_H 	H 	0.5431	0.8461	0.5615	0.058
Mof_H 	H 	0.5472	0.0598	0.0461	0.052
Mof_H 	H 	0.5432	0.8486	0.0438	0.051
Mof_H 	H 	0.0626	0.8466	0.0486	0.057
Mof_H 	H 	0.9391	0.4537	0.6502	0.056
Mof_H 	H 	0.1539	0.4569	0.4385	0.057
Mof_H 	H 	0.9402	0.4528	0.9539	0.052
Mof_H 	H 	0.1514	0.4568	0.9562	0.051
Mof_H 	H 	0.1534	0.9374	0.9514	0.057
Mof_H 	H 	0.4537	0.9391	0.6502	0.056
Mof_H 	H 	0.4569	0.1539	0.4385	0.057
Mof_H 	H 	0.4528	0.9402	0.9539	0.052
Mof_H 	H 	0.4568	0.1514	0.9562	0.051
Mof_H 	H 	0.9374	0.1534	0.9514	0.057
Mof_H 	H 	0.0609	0.5463	0.3498	0.056
Mof_H 	H 	0.8461	0.5431	0.5615	0.057
Mof_H 	H 	0.0598	0.5472	0.0461	0.052
Mof_H 	H 	0.8486	0.5432	0.0438	0.051
Mof_H 	H 	0.8466	0.0626	0.0486	0.057
Mof_H 	H 	0.5444	0.5444	0.3477	0.048
Mof_H 	H 	0.5433	0.5433	0.5638	0.051
Mof_H 	H 	0.4556	0.4556	0.6523	0.048
Mof_H 	H 	0.4567	0.4567	0.4362	0.051
Mof_C 	C 	0.6122	0.8898	0.3862	0.308
Mof_C 	C 	0.5525	0.9479	0.4474	-0.047
Mof_C 	C 	0.5276	0.0352	0.412	-0.028
Mof_C 	C 	0.5264	0.9082	0.5355	-0.03
Mof_C 	C 	0.6134	0.8866	0.1091	0.348
Mof_C 	C 	0.5561	0.9451	0.0538	-0.081
Mof_C 	C 	0.5292	0.0336	0.0281	-0.016
Mof_C 	C 	0.5264	0.9106	0.0263	-0.018
Mof_C 	C 	0.0365	0.9087	0.0285	-0.031
Mof_C 	C 	0.1102	0.3878	0.6138	0.308
Mof_C 	C 	0.0521	0.4475	0.5526	-0.047
Mof_C 	C 	0.9648	0.4724	0.588	-0.028
Mof_C 	C 	0.0918	0.4736	0.4645	-0.03
Mof_C 	C 	0.1134	0.3866	0.8909	0.348
Mof_C 	C 	0.0549	0.4439	0.9462	-0.081
Mof_C 	C 	0.9664	0.4708	0.9719	-0.016
Mof_C 	C 	0.0894	0.4736	0.9737	-0.018
Mof_C 	C 	0.0913	0.9635	0.9715	-0.031
Mof_C 	C 	0.3878	0.1102	0.6138	0.308
Mof_C 	C 	0.4475	0.0521	0.5526	-0.047
Mof_C 	C 	0.4724	0.9648	0.588	-0.028
Mof_C 	C 	0.4736	0.0918	0.4645	-0.03
Mof_C 	C 	0.3866	0.1134	0.8909	0.348
Mof_C 	C 	0.4439	0.0549	0.9462	-0.081
Mof_C 	C 	0.4708	0.9664	0.9719	-0.016
Mof_C 	C 	0.4736	0.0894	0.9737	-0.018
Mof_C 	C 	0.9635	0.0913	0.9715	-0.031
Mof_C 	C 	0.8898	0.6122	0.3862	0.308
Mof_C 	C 	0.9479	0.5525	0.4474	-0.047
Mof_C 	C 	0.0352	0.5276	0.412	-0.028
Mof_C 	C 	0.9082	0.5264	0.5355	-0.03
Mof_C 	C 	0.8866	0.6134	0.1091	0.348
Mof_C 	C 	0.9451	0.5561	0.0538	-0.081
Mof_C 	C 	0.0336	0.5292	0.0281	-0.016
Mof_C 	C 	0.9106	0.5264	0.0263	-0.018
Mof_C 	C 	0.9087	0.0365	0.0285	-0.031
Mof_C 	C 	0.6114	0.6114	0.393	0.399
Mof_C 	C 	0.5542	0.5542	0.4452	-0.092
Mof_C 	C 	0.527	0.527	0.4097	-0.007
Mof_C 	C 	0.5258	0.5258	0.5367	-0.018
Mof_C 	C 	0.8848	0.8848	0.1171	0.335
Mof_C 	C 	0.9465	0.9465	0.0537	-0.042
Mof_C 	C 	0.3886	0.3886	0.607	0.399
Mof_C 	C 	0.4458	0.4458	0.5548	-0.092
Mof_C 	C 	0.473	0.473	0.5903	-0.007
Mof_C 	C 	0.4742	0.4742	0.4633	-0.018
Mof_C 	C 	0.1152	0.1152	0.8829	0.335
Mof_C 	C 	0.0535	0.0535	0.9463	-0.042
Mof_O 	O 	0.6316	0.8044	0.4321	-0.473
Mof_O 	O 	0.6337	0.9337	0.302	-0.479
Mof_O 	O 	0.6302	0.8034	0.1356	-0.501
Mof_O 	O 	0.6331	0.9307	0.1316	-0.483
Mof_O 	O 	0.9308	0.8024	0.1344	-0.498
Mof_O 	O 	0.1956	0.3684	0.5679	-0.473
Mof_O 	O 	0.0663	0.3663	0.698	-0.479
Mof_O 	O 	0.1966	0.3698	0.8644	-0.501
Mof_O 	O 	0.0693	0.3669	0.8684	-0.483
Mof_O 	O 	0.1976	0.0692	0.8656	-0.498
Mof_O 	O 	0.3684	0.1956	0.5679	-0.473
Mof_O 	O 	0.3663	0.0663	0.698	-0.479
Mof_O 	O 	0.3698	0.1966	0.8644	-0.501
Mof_O 	O 	0.3669	0.0693	0.8684	-0.483
Mof_O 	O 	0.0692	0.1976	0.8656	-0.498
Mof_O 	O 	0.8044	0.6316	0.4321	-0.473
Mof_O 	O 	0.9337	0.6337	0.302	-0.479
Mof_O 	O 	0.8034	0.6302	0.1356	-0.501
Mof_O 	O 	0.9307	0.6331	0.1316	-0.483
Mof_O 	O 	0.8024	0.9308	0.1344	-0.498
Mof_O 	O 	0.7502	0.7502	0.2503	-0.965
Mof_O 	O 	0.6326	0.6326	0.4314	-0.525
Mof_O 	O 	0.6303	0.6303	0.31	-0.492
Mof_O 	O 	0.2498	0.2498	0.7497	-0.965
Mof_O 	O 	0.3674	0.3674	0.5686	-0.525
Mof_O 	O 	0.3697	0.3697	0.69	-0.492
_end
