data_functionalizedCrystal
_audit_creation_method	'EQeq! by Chris Wilmer'
_symmetry_space_group_name_H-M	'P1'
_symmetry_Int_Tables_number	1
_symmetry_cell_setting	triclinic
loop_
_symmetry_equiv_pos_as_xyz
  x,y,z
_cell_length_a	8.3065
_cell_length_b	17.1238
_cell_length_c	17.1238
_cell_angle_alpha	62.5624
_cell_angle_beta	80.6947
_cell_angle_gamma	99.3053
loop_
_atom_site_label
_atom_site_type_symbol
_atom_site_fract_x
_atom_site_fract_y
_atom_site_fract_z
_atom_site_charge
Mof_Ni	Ni	0.97436	0.78266	0.06316	1.103
Mof_Ni	Ni	0.66057	0.21825	0.93705	1.106
Mof_Ni	Ni	0.03752	0.06316	0.15418	1.116
Mof_Ni	Ni	0.59762	0.93705	0.8447	1.107
Mof_Ni	Ni	0.1917	0.15418	0.78266	1.109
Mof_Ni	Ni	0.44232	0.8447	0.21825	1.108
Mof_H 	H 	0.7064	0.667	0.0162	0.129
Mof_H 	H 	0.8138	0.6942	0.9186	0.128
Mof_H 	H 	0.0778	0.7684	0.8689	0.128
Mof_H 	H 	0.1617	0.6932	0.9254	0.135
Mof_H 	H 	0.8297	0.5752	0.1143	0.025
Mof_H 	H 	0.0209	0.6038	0.1105	0.032
Mof_H 	H 	0.2882	0.4642	0.9853	0.208
Mof_H 	H 	0.6522	0.4958	0.0931	0.244
Mof_H 	H 	0.6021	0.4378	0.0474	0.249
Mof_H 	H 	0.6556	0.5448	0.9894	0.236
Mof_H 	H 	0.2387	0.5747	0.1075	0.296
Mof_H 	H 	0.3516	0.6288	0.0062	0.292
Mof_H 	H 	0.3628	0.5305	0.0729	0.281
Mof_H 	H 	0.2136	0.3562	0.9364	0.321
Mof_H 	H 	0.1568	0.4164	0.8499	0.324
Mof_H 	H 	0.0269	0.3282	0.9327	0.341
Mof_H 	H 	0.833	0.4007	0.8855	0.001
Mof_H 	H 	0.6963	0.435	0.9252	0.008
Mof_H 	H 	0.7938	0.2935	0.0957	0.143
Mof_H 	H 	0.6235	0.2162	0.1384	0.13
Mof_H 	H 	0.448	0.3334	0.9823	0.1
Mof_H 	H 	0.4647	0.3096	0.0806	0.114
Mof_H 	H 	0.7226	0.0162	0.3168	0.127
Mof_H 	H 	0.7324	0.9186	0.3872	0.13
Mof_H 	H 	0.9467	0.8689	0.3627	0.094
Mof_H 	H 	0.0871	0.9254	0.3814	0.122
Mof_H 	H 	0.944	0.1143	0.3105	0.001
Mof_H 	H 	0.1314	0.1105	0.2857	0.006
Mof_H 	H 	0.2735	0.9853	0.5505	0.189
Mof_H 	H 	0.7453	0.0931	0.4111	0.233
Mof_H 	H 	0.6495	0.0474	0.5148	0.238
Mof_H 	H 	0.645	0.9894	0.4658	0.226
Mof_H 	H 	0.3462	0.1075	0.3178	0.28
Mof_H 	H 	0.3578	0.0062	0.365	0.277
Mof_H 	H 	0.4357	0.0729	0.3966	0.266
Mof_H 	H 	0.15	0.9364	0.7074	0.277
Mof_H 	H 	0.0067	0.8499	0.7337	0.282
Mof_H 	H 	0.9596	0.9327	0.7391	0.272
Mof_H 	H 	0.7185	0.8855	0.7138	0.011
Mof_H 	H 	0.6215	0.9252	0.6398	0.016
Mof_H 	H 	0.8895	0.0957	0.6108	0.137
Mof_H 	H 	0.7619	0.1384	0.6454	0.124
Mof_H 	H 	0.4303	0.9823	0.6843	0.104
Mof_H 	H 	0.5453	0.0806	0.6098	0.116
Mof_H 	H 	0.0394	0.3168	0.667	0.117
Mof_H 	H 	0.1196	0.3872	0.6942	0.123
Mof_H 	H 	0.3094	0.3627	0.7684	0.125
Mof_H 	H 	0.4685	0.3814	0.6932	0.136
Mof_H 	H 	0.2545	0.3105	0.5752	0.023
Mof_H 	H 	0.4171	0.2857	0.6038	0.017
Mof_H 	H 	0.824	0.5505	0.4642	0.181
Mof_H 	H 	0.1564	0.4111	0.4958	0.247
Mof_H 	H 	0.1643	0.5148	0.4378	0.25
Mof_H 	H 	0.1108	0.4658	0.5448	0.245
Mof_H 	H 	0.664	0.3178	0.5747	0.272
Mof_H 	H 	0.7228	0.365	0.6288	0.267
Mof_H 	H 	0.8323	0.3966	0.5305	0.253
Mof_H 	H 	0.8574	0.7074	0.3562	0.288
Mof_H 	H 	0.7404	0.7337	0.4164	0.292
Mof_H 	H 	0.6987	0.7391	0.3282	0.304
Mof_H 	H 	0.4323	0.7138	0.4007	0.017
Mof_H 	H 	0.2613	0.6398	0.435	0.021
Mof_H 	H 	0.5003	0.6108	0.2935	0.144
Mof_H 	H 	0.4073	0.6454	0.2162	0.131
Mof_H 	H 	0.1146	0.6843	0.3334	0.113
Mof_H 	H 	0.1551	0.6098	0.3096	0.12
Mof_C 	C 	0.797	0.8117	0.9299	0.482
Mof_C 	C 	0.8074	0.7085	0.9674	-0.358
Mof_C 	C 	0.1119	0.7407	0.9252	-0.335
Mof_C 	C 	0.2499	0.8135	0.9218	0.416
Mof_C 	C 	0.9439	0.6016	0.0741	-0.016
Mof_C 	C 	0.9826	0.5395	0.0369	-0.293
Mof_C 	C 	0.1454	0.5271	0.0266	0.45
Mof_C 	C 	0.1814	0.4744	0.9895	-0.57
Mof_C 	C 	0.0696	0.4355	0.9578	0.497
Mof_C 	C 	0.9012	0.4391	0.9722	-0.335
Mof_C 	C 	0.8602	0.4919	0.0124	0.332
Mof_C 	C 	0.6752	0.4926	0.038	-0.774
Mof_C 	C 	0.2884	0.5693	0.0562	-0.914
Mof_C 	C 	0.1216	0.3788	0.9152	-1.008
Mof_C 	C 	0.7737	0.3969	0.9414	0.041
Mof_C 	C 	0.7224	0.2498	0.0862	-0.349
Mof_C 	C 	0.8148	0.1863	0.0818	0.354
Mof_C 	C 	0.3844	0.1938	0.0716	0.384
Mof_C 	C 	0.4839	0.2924	0.034	-0.319
Mof_C 	C 	0.7269	0.9299	0.2584	0.483
Mof_C 	C 	0.7748	0.9674	0.3241	-0.355
Mof_C 	C 	0.0371	0.9252	0.3341	-0.288
Mof_C 	C 	0.1717	0.9218	0.2647	0.404
Mof_C 	C 	0.018	0.0741	0.3243	0.044
Mof_C 	C 	0.0195	0.0369	0.4236	-0.25
Mof_C 	C 	0.172	0.0266	0.4463	0.399
Mof_C 	C 	0.1709	0.9895	0.5361	-0.511
Mof_C 	C 	0.0274	0.9578	0.6067	0.435
Mof_C 	C 	0.8734	0.9722	0.5887	-0.298
Mof_C 	C 	0.8726	0.0124	0.4957	0.294
Mof_C 	C 	0.7132	0.038	0.4694	-0.739
Mof_C 	C 	0.3446	0.0562	0.3745	-0.865
Mof_C 	C 	0.0368	0.9152	0.706	-0.854
Mof_C 	C 	0.7151	0.9414	0.6617	0.021
Mof_C 	C 	0.8086	0.0862	0.664	-0.335
Mof_C 	C 	0.8966	0.0818	0.7319	0.334
Mof_C 	C 	0.456	0.0716	0.7346	0.387
Mof_C 	C 	0.5179	0.034	0.6736	-0.323
Mof_C 	C 	0.9853	0.2584	0.8117	0.429
Mof_C 	C 	0.0989	0.3241	0.7085	-0.311
Mof_C 	C 	0.3712	0.3341	0.7407	-0.348
Mof_C 	C 	0.4364	0.2647	0.8135	0.419
Mof_C 	C 	0.3423	0.3243	0.6016	-0
Mof_C 	C 	0.4431	0.4236	0.5395	-0.253
Mof_C 	C 	0.6183	0.4463	0.5271	0.385
Mof_C 	C 	0.707	0.5361	0.4744	-0.504
Mof_C 	C 	0.6341	0.6067	0.4355	0.419
Mof_C 	C 	0.4621	0.5887	0.4391	-0.274
Mof_C 	C 	0.3683	0.4957	0.4919	0.302
Mof_C 	C 	0.1826	0.4694	0.4926	-0.772
Mof_C 	C 	0.7191	0.3745	0.5693	-0.844
Mof_C 	C 	0.7428	0.706	0.3788	-0.915
Mof_C 	C 	0.3768	0.6617	0.3969	0.012
Mof_C 	C 	0.4726	0.664	0.2498	-0.351
Mof_C 	C 	0.6285	0.7319	0.1863	0.357
Mof_C 	C 	0.1906	0.7346	0.1938	0.39
Mof_C 	C 	0.1915	0.6736	0.2924	-0.333
Mof_N 	N 	0.9587	0.6973	0.0018	-0.104
Mof_N 	N 	0.6678	0.2993	0.0043	-0.116
Mof_N 	N 	0.9605	0.0018	0.3009	-0.12
Mof_N 	N 	0.6721	0.0043	0.6964	-0.113
Mof_N 	N 	0.2614	0.3009	0.6973	-0.105
Mof_N 	N 	0.3685	0.6964	0.2993	-0.112
Mof_O 	O 	0.8618	0.8512	0.9604	-0.497
Mof_O 	O 	0.707	0.8307	0.8763	-0.475
Mof_O 	O 	0.2085	0.8435	0.9734	-0.442
Mof_O 	O 	0.3839	0.8454	0.8601	-0.442
Mof_O 	O 	0.8921	0.1514	0.1438	-0.417
Mof_O 	O 	0.7916	0.1536	0.0263	-0.416
Mof_O 	O 	0.24	0.17	0.1258	-0.42
Mof_O 	O 	0.4387	0.1492	0.0369	-0.429
Mof_O 	O 	0.8222	0.9604	0.1884	-0.497
Mof_O 	O 	0.5833	0.8763	0.293	-0.474
Mof_O 	O 	0.1819	0.9734	0.1831	-0.44
Mof_O 	O 	0.244	0.8601	0.2945	-0.435
Mof_O 	O 	0.0359	0.1438	0.7048	-0.394
Mof_O 	O 	0.8179	0.0263	0.8201	-0.412
Mof_O 	O 	0.3658	0.1258	0.7042	-0.423
Mof_O 	O 	0.4756	0.0369	0.8139	-0.43
Mof_O 	O 	0.0106	0.1884	0.8512	-0.457
Mof_O 	O 	0.8763	0.293	0.8307	-0.466
Mof_O 	O 	0.365	0.1831	0.8435	-0.447
Mof_O 	O 	0.5385	0.2945	0.8454	-0.444
Mof_O 	O 	0.7407	0.7048	0.1514	-0.415
Mof_O 	O 	0.638	0.8201	0.1536	-0.416
Mof_O 	O 	0.07	0.7042	0.17	-0.416
Mof_O 	O 	0.2895	0.8139	0.1492	-0.43
_end
