data_functionalizedCrystal
_audit_creation_method	'EQeq! by Chris Wilmer'
_symmetry_space_group_name_H-M	'P1'
_symmetry_Int_Tables_number	1
_symmetry_cell_setting	triclinic
loop_
_symmetry_equiv_pos_as_xyz
  x,y,z
_cell_length_a	11.3806
_cell_length_b	9.8451
_cell_length_c	18.3883
_cell_angle_alpha	90
_cell_angle_beta	126.909
_cell_angle_gamma	90
loop_
_atom_site_label
_atom_site_type_symbol
_atom_site_fract_x
_atom_site_fract_y
_atom_site_fract_z
_atom_site_charge
Mof_Fe	Fe	0.37754	0.08403	0.13308	0.885
Mof_Fe	Fe	0.42651	0.1038	0.68738	0.882
Mof_O 	O 	0.4354	0.2058	0.24569	-0.478
Mof_O 	O 	0.5505	0.0683	0.3669	-0.428
Mof_O 	O 	0.591	0.0015	0.21935	-0.552
Mof_O 	O 	0.6783	0.0016	0.13836	-0.452
Mof_O 	O 	0.4544	0.2618	0.10717	-0.473
Mof_O 	O 	0.4825	0.2103	0.00019	-0.411
Mof_O 	O 	0.3455	0.9201	0.19594	-0.45
Mof_O 	O 	0.1038	0.8968	0.1206	-0.398
Mof_O 	O 	0.3367	0.975	0.02309	-0.474
Mof_O 	O 	0.1149	0.8923	0.9672	-0.385
Mof_O 	O 	0.1594	0.1568	0.05986	-0.475
Mof_O 	O 	0.201	0.38	0.09198	-0.415
Mof_C 	C 	0.4956	0.1778	0.3291	0.504
Mof_H 	H 	0.4981	0.2482	0.3653	-0.112
Mof_C 	C 	0.6934	0.9901	0.2107	0.647
Mof_H 	H 	0.7893	0.9713	0.264	-0.124
Mof_C 	C 	0.474	0.2917	0.0479	0.496
Mof_H 	H 	0.483	0.3853	0.0396	-0.113
Mof_C 	C 	0.2323	0.8726	0.1849	0.499
Mof_H 	H 	0.248	0.8127	0.2305	-0.12
Mof_C 	C 	0.2242	0.8998	0.9693	0.569
Mof_H 	H 	0.2259	0.8451	0.9274	-0.116
Mof_C 	C 	0.1187	0.2822	0.051	0.474
Mof_H 	H 	0.0165	0.3007	0.0092	-0.136
Mof_Fe	Fe	0.62246	0.58403	0.36692	0.933
Mof_Fe	Fe	0.57349	0.6038	0.81262	0.94
Mof_O 	O 	0.5646	0.7058	0.25431	-0.478
Mof_O 	O 	0.4495	0.5683	0.1331	-0.415
Mof_O 	O 	0.409	0.5015	0.28065	-0.481
Mof_O 	O 	0.3217	0.5016	0.36164	-0.405
Mof_O 	O 	0.5456	0.7618	0.39283	-0.473
Mof_O 	O 	0.5175	0.7103	0.49981	-0.39
Mof_O 	O 	0.6545	0.4201	0.30406	-0.464
Mof_O 	O 	0.8962	0.3968	0.3794	-0.351
Mof_O 	O 	0.6633	0.475	0.47691	-0.464
Mof_O 	O 	0.8851	0.3923	0.5328	-0.359
Mof_O 	O 	0.8406	0.6568	0.44014	-0.423
Mof_O 	O 	0.799	0.88	0.40802	-0.36
Mof_C 	C 	0.5044	0.6778	0.1709	0.505
Mof_H 	H 	0.5019	0.7482	0.1347	-0.114
Mof_C 	C 	0.3066	0.4901	0.2893	0.504
Mof_H 	H 	0.2107	0.4713	0.236	-0.123
Mof_C 	C 	0.526	0.7917	0.4521	0.502
Mof_H 	H 	0.517	0.8853	0.4604	-0.086
Mof_C 	C 	0.7677	0.3726	0.3151	0.495
Mof_H 	H 	0.752	0.3127	0.2695	-0.106
Mof_C 	C 	0.7758	0.3998	0.5307	0.498
Mof_H 	H 	0.7741	0.3451	0.5726	-0.088
Mof_C 	C 	0.8813	0.7822	0.449	0.462
Mof_H 	H 	0.9835	0.8007	0.4908	-0.041
Mof_Fe	Fe	0.62246	0.91597	0.86692	0.974
Mof_Fe	Fe	0.57349	0.8962	0.31262	0.99
Mof_O 	O 	0.5646	0.7942	0.75431	-0.469
Mof_O 	O 	0.4495	0.9317	0.6331	-0.37
Mof_O 	O 	0.409	0.9985	0.78065	-0.384
Mof_O 	O 	0.3217	0.9984	0.86164	-0.278
Mof_O 	O 	0.5456	0.7382	0.89283	-0.46
Mof_O 	O 	0.5175	0.7897	0.99981	-0.328
Mof_O 	O 	0.6545	0.0799	0.80406	-0.473
Mof_O 	O 	0.8962	0.1032	0.8794	-0.317
Mof_O 	O 	0.6633	0.025	0.97691	-0.403
Mof_O 	O 	0.8851	0.1077	0.0328	-0.338
Mof_O 	O 	0.8406	0.8432	0.94014	-0.374
Mof_O 	O 	0.799	0.62	0.90802	-0.355
Mof_C 	C 	0.5044	0.8222	0.6709	0.495
Mof_H 	H 	0.5019	0.7518	0.6347	-0.102
Mof_C 	C 	0.3066	0.0099	0.7893	0.321
Mof_H 	H 	0.2107	0.0287	0.736	-0.074
Mof_C 	C 	0.526	0.7083	0.9521	0.483
Mof_H 	H 	0.517	0.6147	0.9604	-0.079
Mof_C 	C 	0.7677	0.1274	0.8151	0.483
Mof_H 	H 	0.752	0.1873	0.7695	-0.098
Mof_C 	C 	0.7758	0.1002	0.0307	0.389
Mof_H 	H 	0.7741	0.1549	0.0726	-0.058
Mof_C 	C 	0.8813	0.7178	0.949	0.447
Mof_H 	H 	0.9835	0.6993	0.9908	-0.022
Mof_Fe	Fe	0.37754	0.41597	0.63308	0.93
Mof_Fe	Fe	0.42651	0.3962	0.18738	0.932
Mof_O 	O 	0.4354	0.2942	0.74569	-0.468
Mof_O 	O 	0.5505	0.4317	0.8669	-0.382
Mof_O 	O 	0.591	0.4985	0.71935	-0.47
Mof_O 	O 	0.6783	0.4984	0.63836	-0.381
Mof_O 	O 	0.4544	0.2382	0.60717	-0.472
Mof_O 	O 	0.4825	0.2897	0.50019	-0.401
Mof_O 	O 	0.3455	0.5799	0.69594	-0.476
Mof_O 	O 	0.1038	0.6032	0.6206	-0.427
Mof_O 	O 	0.3367	0.525	0.52309	-0.478
Mof_O 	O 	0.1149	0.6077	0.4672	-0.435
Mof_O 	O 	0.1594	0.3432	0.55986	-0.472
Mof_O 	O 	0.201	0.12	0.59198	-0.418
Mof_C 	C 	0.4956	0.3222	0.8291	0.492
Mof_H 	H 	0.4981	0.2518	0.8653	-0.095
Mof_C 	C 	0.6934	0.5099	0.7107	0.494
Mof_H 	H 	0.7893	0.5287	0.764	-0.083
Mof_C 	C 	0.474	0.2083	0.5479	0.5
Mof_H 	H 	0.483	0.1147	0.5396	-0.113
Mof_C 	C 	0.2323	0.6274	0.6849	0.517
Mof_H 	H 	0.248	0.6873	0.7305	-0.121
Mof_C 	C 	0.2242	0.6002	0.4693	0.518
Mof_H 	H 	0.2259	0.6549	0.4274	-0.113
Mof_C 	C 	0.1187	0.2178	0.551	0.479
Mof_H 	H 	0.0165	0.1993	0.5092	-0.131
Mof_Fe	Fe	0.5	0	-0	0.818
Mof_Fe	Fe	0.5	0.5	0.5	0.969
Mof_Fe	Fe	-0	0	-0	0.732
Mof_Fe	Fe	4.84815e-33	0.5	0.5	0.893
_end
