# CIF file generated by openbabel 3.1.0, see https://openbabel.org
data_I
_chemical_name_common 'image0'
_cell_length_a 25.8297
_cell_length_b 8.756
_cell_length_c 17.7432
_cell_angle_alpha 90
_cell_angle_beta 99.951
_cell_angle_gamma 90
_space_group_name_H-M_alt 'P 1'
_space_group_name_Hall 'P 1'
loop_
    _symmetry_equiv_pos_as_xyz
    x,y,z
loop_
    _atom_site_label
    _atom_site_type_symbol
    _atom_site_fract_x
    _atom_site_fract_y
    _atom_site_fract_z
    _atom_site_occupancy
    U1       U        0.43326    0.59178    0.35847    1.000
    U2       U        0.25451    0.34909    0.40032    1.000
    C1       C        0.37456    0.51510    0.10950    1.000
    H1       H        0.36580    0.61440    0.13080    1.000
    H2       H        0.37830    0.53340    0.05560    1.000
    C2       C        0.31550    0.37310    0.18670    1.000
    H3       H        0.34620    0.32100    0.21710    1.000
    H4       H        0.28570    0.30010    0.18010    1.000
    C3       C        0.33065    0.26420    0.06500    1.000
    H5       H        0.30140    0.19720    0.07370    1.000
    H6       H        0.36390    0.21120    0.08570    1.000
    F1       F        0.23279    0.13210    0.46641    1.000
    N1       N        0.32812    0.41010    0.10900    1.000
    H7       H        0.30020    0.46600    0.08000    1.000
    O1       O        0.43693    0.45680    0.24630    1.000
    O2       O        0.47483    0.57970    0.13850    1.000
    O3       O        0.45060    0.30050    0.13150    1.000
    H8       H        0.43700    0.22830    0.16400    1.000
    O4       O        0.34733    0.59360    0.29260    1.000
    O5       O        0.25783    0.47160    0.28612    1.000
    O6       O        0.27386    0.65550    0.18543    1.000
    O7       O        0.28498    0.40470    0.93880    1.000
    O8       O        0.30686    0.13000    0.93120    1.000
    H9       H        0.33600    0.06200    0.93800    1.000
    O9       O        0.38037    0.32320    0.94560    1.000
    P1       P        0.43900    0.45588    0.16175    1.000
    P2       P        0.29844    0.53666    0.24144    1.000
    P3       P        0.32701    0.28900    0.96306    1.000
    H10      H        0.31600    0.08800    0.88600    1.000
    U3       U        0.93326    0.09178    0.35847    1.000
    U4       U        0.75451    0.84909    0.40032    1.000
    C4       C        0.87456    0.01510    0.10950    1.000
    H11      H        0.86580    0.11440    0.13080    1.000
    H12      H        0.87830    0.03340    0.05560    1.000
    C5       C        0.81550    0.87310    0.18670    1.000
    H13      H        0.84620    0.82100    0.21710    1.000
    H14      H        0.78570    0.80010    0.18010    1.000
    C6       C        0.83065    0.76420    0.06500    1.000
    H15      H        0.80140    0.69720    0.07370    1.000
    H16      H        0.86390    0.71120    0.08570    1.000
    F2       F        0.73279    0.63210    0.46641    1.000
    N2       N        0.82812    0.91010    0.10900    1.000
    H17      H        0.80020    0.96600    0.08000    1.000
    O10      O        0.93693    0.95680    0.24630    1.000
    O11      O        0.97483    0.07970    0.13850    1.000
    O12      O        0.95060    0.80050    0.13150    1.000
    H18      H        0.93700    0.72830    0.16400    1.000
    O13      O        0.84733    0.09360    0.29260    1.000
    O14      O        0.75783    0.97160    0.28612    1.000
    O15      O        0.77386    0.15550    0.18543    1.000
    O16      O        0.78498    0.90470    0.93880    1.000
    O17      O        0.80686    0.63000    0.93120    1.000
    H19      H        0.83600    0.56200    0.93800    1.000
    O18      O        0.88037    0.82320    0.94560    1.000
    P4       P        0.93900    0.95588    0.16175    1.000
    P5       P        0.79844    0.03666    0.24144    1.000
    P6       P        0.82701    0.78900    0.96306    1.000
    H20      H        0.81600    0.58800    0.88600    1.000
    U5       U        0.56674    0.59178    0.14153    1.000
    U6       U        0.74549    0.34909    0.09968    1.000
    C7       C        0.62544    0.51510    0.39050    1.000
    H21      H        0.63420    0.61440    0.36920    1.000
    H22      H        0.62170    0.53340    0.44440    1.000
    C8       C        0.68450    0.37310    0.31330    1.000
    H23      H        0.65380    0.32100    0.28290    1.000
    H24      H        0.71430    0.30010    0.31990    1.000
    C9       C        0.66935    0.26420    0.43500    1.000
    H25      H        0.69860    0.19720    0.42630    1.000
    H26      H        0.63610    0.21120    0.41430    1.000
    F3       F        0.76721    0.13210    0.03359    1.000
    N3       N        0.67188    0.41010    0.39100    1.000
    H27      H        0.69980    0.46600    0.42000    1.000
    O19      O        0.56307    0.45680    0.25370    1.000
    O20      O        0.52517    0.57970    0.36150    1.000
    O21      O        0.54940    0.30050    0.36850    1.000
    H28      H        0.56300    0.22830    0.33600    1.000
    O22      O        0.65267    0.59360    0.20740    1.000
    O23      O        0.74217    0.47160    0.21388    1.000
    O24      O        0.72614    0.65550    0.31457    1.000
    O25      O        0.71502    0.40470    0.56120    1.000
    O26      O        0.69314    0.13000    0.56880    1.000
    H29      H        0.66400    0.06200    0.56200    1.000
    O27      O        0.61963    0.32320    0.55440    1.000
    P7       P        0.56100    0.45588    0.33825    1.000
    P8       P        0.70156    0.53666    0.25856    1.000
    P9       P        0.67299    0.28900    0.53694    1.000
    H30      H        0.68400    0.08800    0.61400    1.000
    U7       U        0.06674    0.09178    0.14153    1.000
    U8       U        0.24549    0.84909    0.09968    1.000
    C10      C        0.12544    0.01510    0.39050    1.000
    H31      H        0.13420    0.11440    0.36920    1.000
    H32      H        0.12170    0.03340    0.44440    1.000
    C11      C        0.18450    0.87310    0.31330    1.000
    H33      H        0.15380    0.82100    0.28290    1.000
    H34      H        0.21430    0.80010    0.31990    1.000
    C12      C        0.16935    0.76420    0.43500    1.000
    H35      H        0.19860    0.69720    0.42630    1.000
    H36      H        0.13610    0.71120    0.41430    1.000
    F4       F        0.26721    0.63210    0.03359    1.000
    N4       N        0.17188    0.91010    0.39100    1.000
    H37      H        0.19980    0.96600    0.42000    1.000
    O28      O        0.06307    0.95680    0.25370    1.000
    O29      O        0.02517    0.07970    0.36150    1.000
    O30      O        0.04940    0.80050    0.36850    1.000
    H38      H        0.06300    0.72830    0.33600    1.000
    O31      O        0.15267    0.09360    0.20740    1.000
    O32      O        0.24217    0.97160    0.21388    1.000
    O33      O        0.22614    0.15550    0.31457    1.000
    O34      O        0.21502    0.90470    0.56120    1.000
    O35      O        0.19314    0.63000    0.56880    1.000
    H39      H        0.16400    0.56200    0.56200    1.000
    O36      O        0.11963    0.82320    0.55440    1.000
    P10      P        0.06100    0.95588    0.33825    1.000
    P11      P        0.20156    0.03666    0.25856    1.000
    P12      P        0.17299    0.78900    0.53694    1.000
    H40      H        0.18400    0.58800    0.61400    1.000
    U9       U        0.56674    0.40822    0.64153    1.000
    U10      U        0.74549    0.65091    0.59968    1.000
    C13      C        0.62544    0.48490    0.89050    1.000
    H41      H        0.63420    0.38560    0.86920    1.000
    H42      H        0.62170    0.46660    0.94440    1.000
    C14      C        0.68450    0.62690    0.81330    1.000
    H43      H        0.65380    0.67900    0.78290    1.000
    H44      H        0.71430    0.69990    0.81990    1.000
    C15      C        0.66935    0.73580    0.93500    1.000
    H45      H        0.69860    0.80280    0.92630    1.000
    H46      H        0.63610    0.78880    0.91430    1.000
    F5       F        0.76721    0.86790    0.53359    1.000
    N5       N        0.67188    0.58990    0.89100    1.000
    H47      H        0.69980    0.53400    0.92000    1.000
    O37      O        0.56307    0.54320    0.75370    1.000
    O38      O        0.52517    0.42030    0.86150    1.000
    O39      O        0.54940    0.69950    0.86850    1.000
    H48      H        0.56300    0.77170    0.83600    1.000
    O40      O        0.65267    0.40640    0.70740    1.000
    O41      O        0.74217    0.52840    0.71388    1.000
    O42      O        0.72614    0.34450    0.81457    1.000
    O43      O        0.71502    0.59530    0.06120    1.000
    O44      O        0.69314    0.87000    0.06880    1.000
    H49      H        0.66400    0.93800    0.06200    1.000
    O45      O        0.61963    0.67680    0.05440    1.000
    P13      P        0.56100    0.54412    0.83825    1.000
    P14      P        0.70156    0.46334    0.75856    1.000
    P15      P        0.67299    0.71100    0.03694    1.000
    H50      H        0.68400    0.91200    0.11400    1.000
    U11      U        0.06674    0.90822    0.64153    1.000
    U12      U        0.24549    0.15091    0.59968    1.000
    C16      C        0.12544    0.98490    0.89050    1.000
    H51      H        0.13420    0.88560    0.86920    1.000
    H52      H        0.12170    0.96660    0.94440    1.000
    C17      C        0.18450    0.12690    0.81330    1.000
    H53      H        0.15380    0.17900    0.78290    1.000
    H54      H        0.21430    0.19990    0.81990    1.000
    C18      C        0.16935    0.23580    0.93500    1.000
    H55      H        0.19860    0.30280    0.92630    1.000
    H56      H        0.13610    0.28880    0.91430    1.000
    F6       F        0.26721    0.36790    0.53359    1.000
    N6       N        0.17188    0.08990    0.89100    1.000
    H57      H        0.19980    0.03400    0.92000    1.000
    O46      O        0.06307    0.04320    0.75370    1.000
    O47      O        0.02517    0.92030    0.86150    1.000
    O48      O        0.04940    0.19950    0.86850    1.000
    H58      H        0.06300    0.27170    0.83600    1.000
    O49      O        0.15267    0.90640    0.70740    1.000
    O50      O        0.24217    0.02840    0.71388    1.000
    O51      O        0.22614    0.84450    0.81457    1.000
    O52      O        0.21502    0.09530    0.06120    1.000
    O53      O        0.19314    0.37000    0.06880    1.000
    H59      H        0.16400    0.43800    0.06200    1.000
    O54      O        0.11963    0.17680    0.05440    1.000
    P16      P        0.06100    0.04412    0.83825    1.000
    P17      P        0.20156    0.96334    0.75856    1.000
    P18      P        0.17299    0.21100    0.03694    1.000
    H60      H        0.18400    0.41200    0.11400    1.000
    U13      U        0.43326    0.40822    0.85847    1.000
    U14      U        0.25451    0.65091    0.90032    1.000
    C19      C        0.37456    0.48490    0.60950    1.000
    H61      H        0.36580    0.38560    0.63080    1.000
    H62      H        0.37830    0.46660    0.55560    1.000
    C20      C        0.31550    0.62690    0.68670    1.000
    H63      H        0.34620    0.67900    0.71710    1.000
    H64      H        0.28570    0.69990    0.68010    1.000
    C21      C        0.33065    0.73580    0.56500    1.000
    H65      H        0.30140    0.80280    0.57370    1.000
    H66      H        0.36390    0.78880    0.58570    1.000
    F7       F        0.23279    0.86790    0.96641    1.000
    N7       N        0.32812    0.58990    0.60900    1.000
    H67      H        0.30020    0.53400    0.58000    1.000
    O55      O        0.43693    0.54320    0.74630    1.000
    O56      O        0.47483    0.42030    0.63850    1.000
    O57      O        0.45060    0.69950    0.63150    1.000
    H68      H        0.43700    0.77170    0.66400    1.000
    O58      O        0.34733    0.40640    0.79260    1.000
    O59      O        0.25783    0.52840    0.78612    1.000
    O60      O        0.27386    0.34450    0.68543    1.000
    O61      O        0.28498    0.59530    0.43880    1.000
    O62      O        0.30686    0.87000    0.43120    1.000
    H69      H        0.33600    0.93800    0.43800    1.000
    O63      O        0.38037    0.67680    0.44560    1.000
    P19      P        0.43900    0.54412    0.66175    1.000
    P20      P        0.29844    0.46334    0.74144    1.000
    P21      P        0.32701    0.71100    0.46306    1.000
    H70      H        0.31600    0.91200    0.38600    1.000
    U15      U        0.93326    0.90822    0.85847    1.000
    U16      U        0.75451    0.15091    0.90032    1.000
    C22      C        0.87456    0.98490    0.60950    1.000
    H71      H        0.86580    0.88560    0.63080    1.000
    H72      H        0.87830    0.96660    0.55560    1.000
    C23      C        0.81550    0.12690    0.68670    1.000
    H73      H        0.84620    0.17900    0.71710    1.000
    H74      H        0.78570    0.19990    0.68010    1.000
    C24      C        0.83065    0.23580    0.56500    1.000
    H75      H        0.80140    0.30280    0.57370    1.000
    H76      H        0.86390    0.28880    0.58570    1.000
    F8       F        0.73279    0.36790    0.96641    1.000
    N8       N        0.82812    0.08990    0.60900    1.000
    H77      H        0.80020    0.03400    0.58000    1.000
    O64      O        0.93693    0.04320    0.74630    1.000
    O65      O        0.97483    0.92030    0.63850    1.000
    O66      O        0.95060    0.19950    0.63150    1.000
    H78      H        0.93700    0.27170    0.66400    1.000
    O67      O        0.84733    0.90640    0.79260    1.000
    O68      O        0.75783    0.02840    0.78612    1.000
    O69      O        0.77386    0.84450    0.68543    1.000
    O70      O        0.78498    0.09530    0.43880    1.000
    O71      O        0.80686    0.37000    0.43120    1.000
    H79      H        0.83600    0.43800    0.43800    1.000
    O72      O        0.88037    0.17680    0.44560    1.000
    P22      P        0.93900    0.04412    0.66175    1.000
    P23      P        0.79844    0.96334    0.74144    1.000
    P24      P        0.82701    0.21100    0.46306    1.000
    H80      H        0.81600    0.41200    0.38600    1.000
