data_functionalizedCrystal
_audit_creation_method	'EQeq! by Chris Wilmer'
_symmetry_space_group_name_H-M	'P1'
_symmetry_Int_Tables_number	1
_symmetry_cell_setting	triclinic
loop_
_symmetry_equiv_pos_as_xyz
  x,y,z
_cell_length_a	12.3845
_cell_length_b	12.4944
_cell_length_c	12.4944
_cell_angle_alpha	75.7813
_cell_angle_beta	60.2905
_cell_angle_gamma	60.2904
loop_
_atom_site_label
_atom_site_type_symbol
_atom_site_fract_x
_atom_site_fract_y
_atom_site_fract_z
_atom_site_charge
Mof_Sc	Sc	0.18722	1.48677e-22	0.62556	1.528
Mof_Sc	Sc	0.81278	7.43383e-23	0.37444	1.552
Mof_Sc	Sc	0.06278	0.87444	0.5	1.805
Mof_Sc	Sc	0.43722	0.12556	0.5	1.799
Mof_H 	H 	0.8888	0.3229	0.5573	0.013
Mof_H 	H 	0.769	0.6771	0.4427	0.031
Mof_H 	H 	0.6961	0.9427	0.8229	0.037
Mof_H 	H 	0.4617	0.0573	0.1771	0.007
Mof_H 	H 	0.481	0.0573	0.8229	0.014
Mof_H 	H 	0.3612	0.9427	0.1771	0.032
Mof_H 	H 	0.7883	0.3229	0.4427	0.016
Mof_H 	H 	0.5539	0.6771	0.5573	0.037
Mof_H 	H 	0.1136	0.5	0.5	0.033
Mof_H 	H 	0.8636	0	-0	0.053
Mof_H 	H 	0.1364	0	-0	0.049
Mof_H 	H 	0.3864	0.5	0.5	0.032
Mof_C 	C 	0.12334	0.27774	0.55598	0.473
Mof_C 	C 	0.90341	0.39476	0.53308	0.042
Mof_C 	C 	0.01821	0.39337	0.53113	-0.174
Mof_C 	C 	0.95706	0.72226	0.44402	0.474
Mof_C 	C 	0.83125	0.60524	0.46692	0.029
Mof_C 	C 	0.94271	0.60663	0.46887	-0.144
Mof_C 	C 	0.92932	0.94402	0.77774	0.451
Mof_C 	C 	0.68649	0.96692	0.89476	0.131
Mof_C 	C 	0.79934	0.96887	0.89337	-0.033
Mof_C 	C 	0.65108	0.05598	0.22226	0.448
Mof_C 	C 	0.54817	0.03308	0.10524	0.016
Mof_C 	C 	0.66158	0.03113	0.10663	-0.136
Mof_C 	C 	0.29294	0.05598	0.77774	0.45
Mof_C 	C 	0.41875	0.03308	0.89476	-0.003
Mof_C 	C 	0.30729	0.03113	0.89337	-0.15
Mof_C 	C 	0.12666	0.94402	0.22226	0.439
Mof_C 	C 	0.34659	0.96692	0.10524	0.145
Mof_C 	C 	0.23179	0.96887	0.10663	-0.022
Mof_C 	C 	0.59892	0.27774	0.44402	0.474
Mof_C 	C 	0.70183	0.39476	0.46692	0.028
Mof_C 	C 	0.58842	0.39337	0.46887	-0.161
Mof_C 	C 	0.32068	0.72226	0.55598	0.46
Mof_C 	C 	0.56351	0.60524	0.53308	0.022
Mof_C 	C 	0.45066	0.60663	0.53113	-0.147
Mof_C 	C 	0.811	0.5	0.5	-0.026
Mof_C 	C 	0.0369	0.5	0.5	0.085
Mof_C 	C 	0.561	0	-0	-0.116
Mof_C 	C 	0.7869	0	-0	-0.068
Mof_C 	C 	0.439	0	-0	-0.112
Mof_C 	C 	0.2131	0	-0	-0.065
Mof_C 	C 	0.689	0.5	0.5	-0.019
Mof_C 	C 	0.4631	0.5	0.5	0.092
Mof_O 	O 	0.08736	0.19402	0.61604	-0.518
Mof_O 	O 	0.243	0.27026	0.51588	-0.508
Mof_O 	O 	0.89742	0.80598	0.38396	-0.457
Mof_O 	O 	0.02914	0.72974	0.48412	-0.509
Mof_O 	O 	0.9534	0.88396	0.69402	-0.493
Mof_O 	O 	0.00888	0.98412	0.77026	-0.405
Mof_O 	O 	0.53138	0.11604	0.30598	-0.53
Mof_O 	O 	0.76326	0.01588	0.22974	-0.514
Mof_O 	O 	0.35258	0.11604	0.69402	-0.527
Mof_O 	O 	0.22086	0.01588	0.77026	-0.518
Mof_O 	O 	0.16264	0.88396	0.30598	-0.499
Mof_O 	O 	0.007	0.98412	0.22974	-0.402
Mof_O 	O 	0.71862	0.19402	0.38396	-0.513
Mof_O 	O 	0.48674	0.27026	0.48412	-0.504
Mof_O 	O 	0.2966	0.80598	0.61604	-0.448
Mof_O 	O 	0.24112	0.72974	0.51588	-0.499
Mof_O 	O 	0.37296	0.00204	0.50204	-0.737
Mof_O 	O 	0.87704	0.99796	0.49796	-0.553
Mof_O 	O 	0.125	0.99796	0.50204	-0.554
Mof_O 	O 	0.625	0.00204	0.49796	-0.839
Mof_H 	H 	0.125	0.08053	0.44174	0.055
Mof_H 	H 	0.87704	0.08053	0.47768	0.059
Mof_H 	H 	0.47672	0.91984	0.43124	0.188
Mof_H 	H 	0.625	0.91947	0.51824	0.304
_end
