data_functionalizedCrystal
_audit_creation_method	'EQeq! by Chris Wilmer'
_symmetry_space_group_name_H-M	'P1'
_symmetry_Int_Tables_number	1
_symmetry_cell_setting	triclinic
loop_
_symmetry_equiv_pos_as_xyz
  x,y,z
_cell_length_a	30.594
_cell_length_b	30.594
_cell_length_c	15.9646
_cell_angle_alpha	90
_cell_angle_beta	90
_cell_angle_gamma	120
loop_
_atom_site_label
_atom_site_type_symbol
_atom_site_fract_x
_atom_site_fract_y
_atom_site_fract_z
_atom_site_charge
Mof_N 	N 	0.5185	0.4541	0.5715	-0.236
Mof_C 	C 	0.5646	0.4612	0.5572	0.06
Mof_C 	C 	0.5826	0.4317	0.5958	-0.12
Mof_H 	H 	0.6149	0.4374	0.5848	0.078
Mof_C 	C 	0.5511	0.3945	0.6497	0.045
Mof_H 	H 	0.5605	0.373	0.6746	0.016
Mof_C 	C 	0.5039	0.39	0.6658	-0.132
Mof_H 	H 	0.4828	0.3668	0.7055	0.081
Mof_C 	C 	0.4879	0.4189	0.625	0.078
Mof_H 	H 	0.4557	0.4139	0.6347	-0.003
Mof_N 	N 	0.5699	0.5245	0.4569	-0.205
Mof_N 	N 	0.6049	0.55823	0.405	-0.096
Mof_N 	N 	0.6404	0.5166	0.4703	-0.12
Mof_C 	C 	0.6441	0.552	0.4131	0.075
Mof_C 	C 	0.5916	0.4992	0.4953	0.052
Mof_N 	N 	0.77514	0.6381	0.2593	-0.245
Mof_C 	C 	0.7327	0.6385	0.2476	0.099
Mof_H 	H 	0.7306	0.6563	0.2019	-0.008
Mof_C 	C 	0.6913	0.6142	0.2987	-0.166
Mof_H 	H 	0.6635	0.6184	0.2918	0.092
Mof_C 	C 	0.6921	0.5833	0.3605	0.094
Mof_C 	C 	0.7355	0.5847	0.3781	-0.177
Mof_H 	H 	0.7387	0.5678	0.4239	0.103
Mof_C 	C 	0.775	0.6124	0.3252	0.111
Mof_H 	H 	0.8051	0.6131	0.3372	-0.013
Mof_N 	N 	0.18517	0.78743	0.90483	-0.233
Mof_C 	C 	0.23127	0.79453	0.89053	0.068
Mof_C 	C 	0.24927	0.76503	0.92913	-0.134
Mof_H 	H 	0.28157	0.77073	0.91813	0.087
Mof_C 	C 	0.21777	0.72783	0.98303	0.079
Mof_H 	H 	0.22717	0.70633	0.00793	-0.012
Mof_C 	C 	0.17057	0.72333	0.99913	-0.105
Mof_H 	H 	0.14947	0.70013	0.03883	0.058
Mof_C 	C 	0.15457	0.75223	0.95833	0.069
Mof_H 	H 	0.12237	0.74723	0.96803	0.005
Mof_N 	N 	0.23657	0.85783	0.79023	-0.204
Mof_N 	N 	0.27157	0.89156	0.73833	-0.095
Mof_N 	N 	0.30707	0.84993	0.80363	-0.118
Mof_C 	C 	0.31077	0.88533	0.74643	0.077
Mof_C 	C 	0.25827	0.83253	0.82863	0.052
Mof_N 	N 	0.44181	0.97143	0.59263	-0.24
Mof_C 	C 	0.39937	0.97183	0.58093	0.099
Mof_H 	H 	0.39727	0.98963	0.53523	-0.001
Mof_C 	C 	0.35797	0.94753	0.63203	-0.163
Mof_H 	H 	0.33017	0.95173	0.62513	0.094
Mof_C 	C 	0.35877	0.91663	0.69383	0.094
Mof_C 	C 	0.40217	0.91803	0.71143	-0.174
Mof_H 	H 	0.40537	0.90113	0.75723	0.104
Mof_C 	C 	0.44167	0.94573	0.65853	0.113
Mof_H 	H 	0.47177	0.94643	0.67053	-0.01
Mof_N 	N 	0.85183	0.12077	0.23817	-0.235
Mof_C 	C 	0.89793	0.12787	0.22387	0.061
Mof_C 	C 	0.91593	0.09837	0.26247	-0.121
Mof_H 	H 	0.94823	0.10407	0.25147	0.08
Mof_C 	C 	0.88443	0.06117	0.31637	0.045
Mof_H 	H 	0.89383	0.03967	0.34127	0.012
Mof_C 	C 	0.83723	0.05667	0.33247	-0.133
Mof_H 	H 	0.81613	0.03347	0.37217	0.076
Mof_C 	C 	0.82123	0.08557	0.29167	0.076
Mof_H 	H 	0.78903	0.08057	0.30137	-0.005
Mof_N 	N 	0.90323	0.19117	0.12357	-0.206
Mof_N 	N 	0.93823	0.2249	0.07167	-0.1
Mof_N 	N 	0.97373	0.18327	0.13697	-0.117
Mof_C 	C 	0.97743	0.21867	0.07977	0.083
Mof_C 	C 	0.92493	0.16587	0.16197	0.051
Mof_N 	N 	0.10847	0.30477	0.92597	-0.262
Mof_C 	C 	0.06603	0.30517	0.91427	0.117
Mof_H 	H 	0.06393	0.32297	0.86857	-0.016
Mof_C 	C 	0.02463	0.28087	0.96537	-0.189
Mof_H 	H 	0.99683	0.28507	0.95847	0.117
Mof_C 	C 	0.02543	0.24997	0.02717	0.088
Mof_C 	C 	0.06883	0.25137	0.04477	-0.242
Mof_H 	H 	0.07203	0.23447	0.09057	0.12
Mof_C 	C 	0.10833	0.27907	0.99187	0.199
Mof_H 	H 	0.13843	0.27977	0.00387	-0.059
Mof_N 	N 	0.5459	0.0644	0.5715	-0.237
Mof_C 	C 	0.5388	0.1034	0.5572	0.06
Mof_C 	C 	0.5683	0.1509	0.5958	-0.119
Mof_H 	H 	0.5626	0.1775	0.5848	0.078
Mof_C 	C 	0.6055	0.1566	0.6497	0.046
Mof_H 	H 	0.627	0.1875	0.6746	0.016
Mof_C 	C 	0.61	0.1139	0.6658	-0.133
Mof_H 	H 	0.6332	0.116	0.7055	0.081
Mof_C 	C 	0.5811	0.069	0.625	0.078
Mof_H 	H 	0.5861	0.0418	0.6347	-0.008
Mof_N 	N 	0.4755	0.0454	0.4569	-0.208
Mof_N 	N 	0.44177	0.04667	0.405	-0.1
Mof_N 	N 	0.4834	0.1238	0.4703	-0.12
Mof_C 	C 	0.448	0.0921	0.4131	0.074
Mof_C 	C 	0.5008	0.0924	0.4953	0.051
Mof_N 	N 	0.3619	0.13704	0.2593	-0.245
Mof_C 	C 	0.3615	0.0942	0.2476	0.097
Mof_H 	H 	0.3437	0.0743	0.2019	-0.01
Mof_C 	C 	0.3858	0.0771	0.2987	-0.165
Mof_H 	H 	0.3816	0.0451	0.2918	0.087
Mof_C 	C 	0.4167	0.1088	0.3605	0.092
Mof_C 	C 	0.4153	0.1508	0.3781	-0.175
Mof_H 	H 	0.4322	0.1709	0.4239	0.103
Mof_C 	C 	0.3876	0.1626	0.3252	0.11
Mof_H 	H 	0.3869	0.192	0.3372	-0.012
Mof_N 	N 	0.21257	0.39773	0.90483	-0.233
Mof_C 	C 	0.20547	0.43673	0.89053	0.068
Mof_C 	C 	0.23497	0.48423	0.92913	-0.134
Mof_H 	H 	0.22927	0.51083	0.91813	0.087
Mof_C 	C 	0.27217	0.48993	0.98303	0.079
Mof_H 	H 	0.29367	0.52083	0.00793	-0.012
Mof_C 	C 	0.27667	0.44723	0.99913	-0.105
Mof_H 	H 	0.29987	0.44933	0.03883	0.058
Mof_C 	C 	0.24777	0.40233	0.95833	0.069
Mof_H 	H 	0.25277	0.37513	0.96803	0.006
Mof_N 	N 	0.14217	0.37873	0.79023	-0.204
Mof_N 	N 	0.10844	0.38	0.73833	-0.097
Mof_N 	N 	0.15007	0.45713	0.80363	-0.119
Mof_C 	C 	0.11467	0.42543	0.74643	0.074
Mof_C 	C 	0.16747	0.42573	0.82863	0.051
Mof_N 	N 	0.02857	0.47037	0.59263	-0.248
Mof_C 	C 	0.02817	0.42753	0.58093	0.098
Mof_H 	H 	0.01037	0.40763	0.53523	-0.013
Mof_C 	C 	0.05247	0.41043	0.63203	-0.168
Mof_H 	H 	0.04827	0.37843	0.62513	0.091
Mof_C 	C 	0.08337	0.44213	0.69383	0.093
Mof_C 	C 	0.08197	0.48413	0.71143	-0.178
Mof_H 	H 	0.09887	0.50423	0.75723	0.103
Mof_C 	C 	0.05427	0.49593	0.65853	0.11
Mof_H 	H 	0.05357	0.52533	0.67053	-0.015
Mof_N 	N 	0.87923	0.73107	0.23817	-0.235
Mof_C 	C 	0.87213	0.77007	0.22387	0.061
Mof_C 	C 	0.90163	0.81757	0.26247	-0.118
Mof_H 	H 	0.89593	0.84417	0.25147	0.079
Mof_C 	C 	0.93883	0.82327	0.31637	0.047
Mof_H 	H 	0.96033	0.85417	0.34127	0.02
Mof_C 	C 	0.94333	0.78057	0.33247	-0.131
Mof_H 	H 	0.96653	0.78267	0.37217	0.086
Mof_C 	C 	0.91443	0.73567	0.29167	0.08
Mof_H 	H 	0.91943	0.70847	0.30137	-0.002
Mof_N 	N 	0.80883	0.71207	0.12357	-0.206
Mof_N 	N 	0.7751	0.71334	0.07167	-0.1
Mof_N 	N 	0.81673	0.79047	0.13697	-0.119
Mof_C 	C 	0.78133	0.75877	0.07977	0.07
Mof_C 	C 	0.83413	0.75907	0.16197	0.051
Mof_N 	N 	0.69523	0.80371	0.92597	-0.257
Mof_C 	C 	0.69483	0.76087	0.91427	0.099
Mof_H 	H 	0.67703	0.74097	0.86857	-0.006
Mof_C 	C 	0.71913	0.74377	0.96537	-0.15
Mof_H 	H 	0.71493	0.71177	0.95847	0.092
Mof_C 	C 	0.75003	0.77547	0.02717	0.093
Mof_C 	C 	0.74863	0.81747	0.04477	-0.236
Mof_H 	H 	0.76553	0.83757	0.09057	0.123
Mof_C 	C 	0.72093	0.82927	0.99187	0.194
Mof_H 	H 	0.72023	0.85867	0.00387	-0.055
Mof_N 	N 	0.9356	0.4815	0.5715	-0.231
Mof_C 	C 	0.8966	0.4354	0.5572	0.061
Mof_C 	C 	0.8491	0.4174	0.5958	-0.118
Mof_H 	H 	0.8225	0.3851	0.5848	0.077
Mof_C 	C 	0.8434	0.4489	0.6497	0.044
Mof_H 	H 	0.8125	0.4395	0.6746	0.016
Mof_C 	C 	0.8861	0.4961	0.6658	-0.13
Mof_H 	H 	0.884	0.5172	0.7055	0.081
Mof_C 	C 	0.931	0.5121	0.625	0.078
Mof_H 	H 	0.9582	0.5443	0.6347	0.002
Mof_N 	N 	0.9546	0.4301	0.4569	-0.199
Mof_N 	N 	0.95333	0.3951	0.405	-0.091
Mof_N 	N 	0.8762	0.3596	0.4703	-0.12
Mof_C 	C 	0.9079	0.3559	0.4131	0.076
Mof_C 	C 	0.9076	0.4084	0.4953	0.054
Mof_N 	N 	0.86296	0.22486	0.2593	-0.245
Mof_C 	C 	0.9058	0.2673	0.2476	0.101
Mof_H 	H 	0.9257	0.2694	0.2019	-0.006
Mof_C 	C 	0.9229	0.3087	0.2987	-0.167
Mof_H 	H 	0.9549	0.3365	0.2918	0.097
Mof_C 	C 	0.8912	0.3079	0.3605	0.096
Mof_C 	C 	0.8492	0.2645	0.3781	-0.178
Mof_H 	H 	0.8291	0.2613	0.4239	0.104
Mof_C 	C 	0.8374	0.225	0.3252	0.113
Mof_H 	H 	0.808	0.1949	0.3372	-0.013
Mof_N 	N 	0.60227	0.81483	0.90483	-0.233
Mof_C 	C 	0.56327	0.76873	0.89053	0.068
Mof_C 	C 	0.51577	0.75073	0.92913	-0.134
Mof_H 	H 	0.48917	0.71843	0.91813	0.087
Mof_C 	C 	0.51007	0.78223	0.98303	0.079
Mof_H 	H 	0.47917	0.77283	0.00793	-0.011
Mof_C 	C 	0.55277	0.82943	0.99913	-0.106
Mof_H 	H 	0.55067	0.85053	0.03883	0.059
Mof_C 	C 	0.59767	0.84543	0.95833	0.07
Mof_H 	H 	0.62487	0.87763	0.96803	0.006
Mof_N 	N 	0.62127	0.76343	0.79023	-0.204
Mof_N 	N 	0.62	0.72843	0.73833	-0.096
Mof_N 	N 	0.54287	0.69293	0.80363	-0.118
Mof_C 	C 	0.57457	0.68923	0.74643	0.076
Mof_C 	C 	0.57427	0.74173	0.82863	0.051
Mof_N 	N 	0.52963	0.55819	0.59263	-0.245
Mof_C 	C 	0.57247	0.60063	0.58093	0.099
Mof_H 	H 	0.59237	0.60273	0.53523	-0.007
Mof_C 	C 	0.58957	0.64203	0.63203	-0.166
Mof_H 	H 	0.62157	0.66983	0.62513	0.092
Mof_C 	C 	0.55787	0.64123	0.69383	0.094
Mof_C 	C 	0.51587	0.59783	0.71143	-0.176
Mof_H 	H 	0.49577	0.59463	0.75723	0.104
Mof_C 	C 	0.50407	0.55833	0.65853	0.111
Mof_H 	H 	0.47467	0.52823	0.67053	-0.013
Mof_N 	N 	0.26893	0.14817	0.23817	-0.235
Mof_C 	C 	0.22993	0.10207	0.22387	0.058
Mof_C 	C 	0.18243	0.08407	0.26247	-0.119
Mof_H 	H 	0.15583	0.05177	0.25147	0.07
Mof_C 	C 	0.17673	0.11557	0.31637	0.043
Mof_H 	H 	0.14583	0.10617	0.34127	0.012
Mof_C 	C 	0.21943	0.16277	0.33247	-0.132
Mof_H 	H 	0.21733	0.18387	0.37217	0.08
Mof_C 	C 	0.26433	0.17877	0.29167	0.077
Mof_H 	H 	0.29153	0.21097	0.30137	-0.003
Mof_N 	N 	0.28793	0.09677	0.12357	-0.207
Mof_N 	N 	0.28666	0.06177	0.07167	-0.1
Mof_N 	N 	0.20953	0.02627	0.13697	-0.124
Mof_C 	C 	0.24123	0.02257	0.07977	0.056
Mof_C 	C 	0.24093	0.07507	0.16197	0.049
Mof_N 	N 	0.19629	0.89153	0.92597	-0.253
Mof_C 	C 	0.23913	0.93397	0.91427	0.081
Mof_H 	H 	0.25903	0.93607	0.86857	0.004
Mof_C 	C 	0.25623	0.97537	0.96537	-0.108
Mof_H 	H 	0.28823	0.00317	0.95847	0.066
Mof_C 	C 	0.22453	0.97457	0.02717	0.097
Mof_C 	C 	0.18253	0.93117	0.04477	-0.237
Mof_H 	H 	0.16243	0.92797	0.09057	0.126
Mof_C 	C 	0.17073	0.89167	0.99187	0.195
Mof_H 	H 	0.14133	0.86157	0.00387	-0.057
Mof_N 	N 	0.4815	0.5459	0.4285	-0.235
Mof_C 	C 	0.4354	0.5388	0.4428	0.061
Mof_C 	C 	0.4174	0.5683	0.4042	-0.119
Mof_H 	H 	0.3851	0.5626	0.4152	0.077
Mof_C 	C 	0.4489	0.6055	0.3503	0.045
Mof_H 	H 	0.4395	0.627	0.3254	0.014
Mof_C 	C 	0.4961	0.61	0.3342	-0.133
Mof_H 	H 	0.5172	0.6332	0.2945	0.08
Mof_C 	C 	0.5121	0.5811	0.375	0.078
Mof_H 	H 	0.5443	0.5861	0.3653	-0.004
Mof_N 	N 	0.4301	0.4755	0.5431	-0.205
Mof_N 	N 	0.3951	0.44177	0.595	-0.096
Mof_N 	N 	0.3596	0.4834	0.5297	-0.12
Mof_C 	C 	0.3559	0.448	0.5869	0.075
Mof_C 	C 	0.4084	0.5008	0.5047	0.052
Mof_N 	N 	0.22486	0.3619	0.7407	-0.245
Mof_C 	C 	0.2673	0.3615	0.7524	0.098
Mof_H 	H 	0.2694	0.3437	0.7981	-0.006
Mof_C 	C 	0.3087	0.3858	0.7013	-0.165
Mof_H 	H 	0.3365	0.3816	0.7082	0.092
Mof_C 	C 	0.3079	0.4167	0.6395	0.094
Mof_C 	C 	0.2645	0.4153	0.6219	-0.176
Mof_H 	H 	0.2613	0.4322	0.5761	0.103
Mof_C 	C 	0.225	0.3876	0.6748	0.111
Mof_H 	H 	0.1949	0.3869	0.6628	-0.013
Mof_N 	N 	0.14817	0.87923	0.76183	-0.234
Mof_C 	C 	0.10207	0.87213	0.77613	0.06
Mof_C 	C 	0.08407	0.90163	0.73753	-0.117
Mof_H 	H 	0.05177	0.89593	0.74853	0.075
Mof_C 	C 	0.11557	0.93883	0.68363	0.046
Mof_H 	H 	0.10617	0.96033	0.65873	0.018
Mof_C 	C 	0.16277	0.94333	0.66753	-0.131
Mof_H 	H 	0.18387	0.96653	0.62783	0.085
Mof_C 	C 	0.17877	0.91443	0.70833	0.08
Mof_H 	H 	0.21097	0.91943	0.69863	-0.002
Mof_N 	N 	0.09677	0.80883	0.87643	-0.203
Mof_N 	N 	0.06177	0.7751	0.92833	-0.092
Mof_N 	N 	0.02627	0.81673	0.86303	-0.122
Mof_C 	C 	0.02257	0.78133	0.92023	0.069
Mof_C 	C 	0.07507	0.83413	0.83803	0.053
Mof_N 	N 	0.89153	0.69523	0.07403	-0.228
Mof_C 	C 	0.93397	0.69483	0.08573	0.078
Mof_H 	H 	0.93607	0.67703	0.13143	0.002
Mof_C 	C 	0.97537	0.71913	0.03463	-0.136
Mof_H 	H 	0.00317	0.71493	0.04153	0.064
Mof_C 	C 	0.97457	0.75003	0.97283	0.096
Mof_C 	C 	0.93117	0.74863	0.95523	-0.113
Mof_H 	H 	0.92797	0.76553	0.90943	0.086
Mof_C 	C 	0.89167	0.72093	0.00813	0.028
Mof_H 	H 	0.86157	0.72023	0.99613	0.031
Mof_N 	N 	0.81483	0.21257	0.09517	-0.236
Mof_C 	C 	0.76873	0.20547	0.10947	0.053
Mof_C 	C 	0.75073	0.23497	0.07087	-0.104
Mof_H 	H 	0.71843	0.22927	0.08187	0.068
Mof_C 	C 	0.78223	0.27217	0.01697	0.011
Mof_H 	H 	0.77283	0.29367	0.99207	0.041
Mof_C 	C 	0.82943	0.27667	0.00087	-0.158
Mof_H 	H 	0.85053	0.29987	0.96117	0.102
Mof_C 	C 	0.84543	0.24777	0.04167	0.086
Mof_H 	H 	0.87763	0.25277	0.03197	-0.012
Mof_N 	N 	0.76343	0.14217	0.20977	-0.205
Mof_N 	N 	0.72843	0.10844	0.26167	-0.097
Mof_N 	N 	0.69293	0.15007	0.19637	-0.121
Mof_C 	C 	0.68923	0.11467	0.25357	0.073
Mof_C 	C 	0.74173	0.16747	0.17137	0.052
Mof_N 	N 	0.55819	0.02857	0.40737	-0.248
Mof_C 	C 	0.60063	0.02817	0.41907	0.097
Mof_H 	H 	0.60273	0.01037	0.46477	-0.013
Mof_C 	C 	0.64203	0.05247	0.36797	-0.168
Mof_H 	H 	0.66983	0.04827	0.37487	0.091
Mof_C 	C 	0.64123	0.08337	0.30617	0.093
Mof_C 	C 	0.59783	0.08197	0.28857	-0.179
Mof_H 	H 	0.59463	0.09887	0.24277	0.102
Mof_C 	C 	0.55833	0.05427	0.34147	0.11
Mof_H 	H 	0.52823	0.05357	0.32947	-0.015
Mof_N 	N 	0.4541	0.9356	0.4285	-0.231
Mof_C 	C 	0.4612	0.8966	0.4428	0.061
Mof_C 	C 	0.4317	0.8491	0.4042	-0.119
Mof_H 	H 	0.4374	0.8225	0.4152	0.077
Mof_C 	C 	0.3945	0.8434	0.3503	0.045
Mof_H 	H 	0.373	0.8125	0.3254	0.014
Mof_C 	C 	0.39	0.8861	0.3342	-0.131
Mof_H 	H 	0.3668	0.884	0.2945	0.081
Mof_C 	C 	0.4189	0.931	0.375	0.078
Mof_H 	H 	0.4139	0.9582	0.3653	0.002
Mof_N 	N 	0.5245	0.9546	0.5431	-0.199
Mof_N 	N 	0.55823	0.95333	0.595	-0.091
Mof_N 	N 	0.5166	0.8762	0.5297	-0.12
Mof_C 	C 	0.552	0.9079	0.5869	0.076
Mof_C 	C 	0.4992	0.9076	0.5047	0.054
Mof_N 	N 	0.6381	0.86296	0.7407	-0.245
Mof_C 	C 	0.6385	0.9058	0.7524	0.1
Mof_H 	H 	0.6563	0.9257	0.7981	-0.005
Mof_C 	C 	0.6142	0.9229	0.7013	-0.166
Mof_H 	H 	0.6184	0.9549	0.7082	0.098
Mof_C 	C 	0.5833	0.8912	0.6395	0.096
Mof_C 	C 	0.5847	0.8492	0.6219	-0.178
Mof_H 	H 	0.5678	0.8291	0.5761	0.104
Mof_C 	C 	0.6124	0.8374	0.6748	0.112
Mof_H 	H 	0.6131	0.808	0.6628	-0.013
Mof_N 	N 	0.12077	0.26893	0.76183	-0.235
Mof_C 	C 	0.12787	0.22993	0.77613	0.06
Mof_C 	C 	0.09837	0.18243	0.73753	-0.12
Mof_H 	H 	0.10407	0.15583	0.74853	0.076
Mof_C 	C 	0.06117	0.17673	0.68363	0.043
Mof_H 	H 	0.03967	0.14583	0.65873	0.01
Mof_C 	C 	0.05667	0.21943	0.66753	-0.133
Mof_H 	H 	0.03347	0.21733	0.62783	0.076
Mof_C 	C 	0.08557	0.26433	0.70833	0.076
Mof_H 	H 	0.08057	0.29153	0.69863	-0.005
Mof_N 	N 	0.19117	0.28793	0.87643	-0.203
Mof_N 	N 	0.2249	0.28666	0.92833	-0.092
Mof_N 	N 	0.18327	0.20953	0.86303	-0.12
Mof_C 	C 	0.21867	0.24123	0.92023	0.081
Mof_C 	C 	0.16587	0.24093	0.83803	0.053
Mof_N 	N 	0.30477	0.19629	0.07403	-0.232
Mof_C 	C 	0.30517	0.23913	0.08573	0.098
Mof_H 	H 	0.32297	0.25903	0.13143	-0.008
Mof_C 	C 	0.28087	0.25623	0.03463	-0.182
Mof_H 	H 	0.28507	0.28823	0.04153	0.092
Mof_C 	C 	0.24997	0.22453	0.97283	0.095
Mof_C 	C 	0.25137	0.18253	0.95523	-0.114
Mof_H 	H 	0.23447	0.16243	0.90943	0.083
Mof_C 	C 	0.27907	0.17073	0.00813	0.025
Mof_H 	H 	0.27977	0.14133	0.99613	0.032
Mof_N 	N 	0.78743	0.60227	0.09517	-0.236
Mof_C 	C 	0.79453	0.56327	0.10947	0.054
Mof_C 	C 	0.76503	0.51577	0.07087	-0.104
Mof_H 	H 	0.77073	0.48917	0.08187	0.068
Mof_C 	C 	0.72783	0.51007	0.01697	0.012
Mof_H 	H 	0.70633	0.47917	0.99207	0.041
Mof_C 	C 	0.72333	0.55277	0.00087	-0.159
Mof_H 	H 	0.70013	0.55067	0.96117	0.103
Mof_C 	C 	0.75223	0.59767	0.04167	0.087
Mof_H 	H 	0.74723	0.62487	0.03197	-0.013
Mof_N 	N 	0.85783	0.62127	0.20977	-0.205
Mof_N 	N 	0.89156	0.62	0.26167	-0.095
Mof_N 	N 	0.84993	0.54287	0.19637	-0.121
Mof_C 	C 	0.88533	0.57457	0.25357	0.076
Mof_C 	C 	0.83253	0.57427	0.17137	0.053
Mof_N 	N 	0.97143	0.52963	0.40737	-0.24
Mof_C 	C 	0.97183	0.57247	0.41907	0.099
Mof_H 	H 	0.98963	0.59237	0.46477	-0.002
Mof_C 	C 	0.94753	0.58957	0.36797	-0.163
Mof_H 	H 	0.95173	0.62157	0.37487	0.094
Mof_C 	C 	0.91663	0.55787	0.30617	0.094
Mof_C 	C 	0.91803	0.51587	0.28857	-0.174
Mof_H 	H 	0.90113	0.49577	0.24277	0.103
Mof_C 	C 	0.94573	0.50407	0.34147	0.113
Mof_H 	H 	0.94643	0.47467	0.32947	-0.01
Mof_N 	N 	0.0644	0.5185	0.4285	-0.237
Mof_C 	C 	0.1034	0.5646	0.4428	0.06
Mof_C 	C 	0.1509	0.5826	0.4042	-0.12
Mof_H 	H 	0.1775	0.6149	0.4152	0.077
Mof_C 	C 	0.1566	0.5511	0.3503	0.046
Mof_H 	H 	0.1875	0.5605	0.3254	0.014
Mof_C 	C 	0.1139	0.5039	0.3342	-0.134
Mof_H 	H 	0.116	0.4828	0.2945	0.08
Mof_C 	C 	0.069	0.4879	0.375	0.079
Mof_H 	H 	0.0418	0.4557	0.3653	-0.009
Mof_N 	N 	0.0454	0.5699	0.5431	-0.208
Mof_N 	N 	0.04667	0.6049	0.595	-0.1
Mof_N 	N 	0.1238	0.6404	0.5297	-0.12
Mof_C 	C 	0.0921	0.6441	0.5869	0.074
Mof_C 	C 	0.0924	0.5916	0.5047	0.051
Mof_N 	N 	0.13704	0.77514	0.7407	-0.245
Mof_C 	C 	0.0942	0.7327	0.7524	0.096
Mof_H 	H 	0.0743	0.7306	0.7981	-0.008
Mof_C 	C 	0.0771	0.6913	0.7013	-0.164
Mof_H 	H 	0.0451	0.6635	0.7082	0.087
Mof_C 	C 	0.1088	0.6921	0.6395	0.091
Mof_C 	C 	0.1508	0.7355	0.6219	-0.175
Mof_H 	H 	0.1709	0.7387	0.5761	0.103
Mof_C 	C 	0.1626	0.775	0.6748	0.11
Mof_H 	H 	0.192	0.8051	0.6628	-0.012
Mof_N 	N 	0.73107	0.85183	0.76183	-0.235
Mof_C 	C 	0.77007	0.89793	0.77613	0.063
Mof_C 	C 	0.81757	0.91593	0.73753	-0.119
Mof_H 	H 	0.84417	0.94823	0.74853	0.084
Mof_C 	C 	0.82327	0.88443	0.68363	0.047
Mof_H 	H 	0.85417	0.89383	0.65873	0.018
Mof_C 	C 	0.78057	0.83723	0.66753	-0.133
Mof_H 	H 	0.78267	0.81613	0.62783	0.081
Mof_C 	C 	0.73567	0.82123	0.70833	0.079
Mof_H 	H 	0.70847	0.78903	0.69863	-0.004
Mof_N 	N 	0.71207	0.90323	0.87643	-0.203
Mof_N 	N 	0.71334	0.93823	0.92833	-0.092
Mof_N 	N 	0.79047	0.97373	0.86303	-0.116
Mof_C 	C 	0.75877	0.97743	0.92023	0.093
Mof_C 	C 	0.75907	0.92493	0.83803	0.054
Mof_N 	N 	0.80371	0.10847	0.07403	-0.237
Mof_C 	C 	0.76087	0.06603	0.08573	0.118
Mof_H 	H 	0.74097	0.06393	0.13143	-0.019
Mof_C 	C 	0.74377	0.02463	0.03463	-0.226
Mof_H 	H 	0.71177	0.99683	0.04153	0.12
Mof_C 	C 	0.77547	0.02543	0.97283	0.093
Mof_C 	C 	0.81747	0.06883	0.95523	-0.119
Mof_H 	H 	0.83757	0.07203	0.90943	0.082
Mof_C 	C 	0.82927	0.10833	0.00813	0.03
Mof_H 	H 	0.85867	0.13843	0.99613	0.03
Mof_N 	N 	0.39773	0.18517	0.09517	-0.237
Mof_C 	C 	0.43673	0.23127	0.10947	0.053
Mof_C 	C 	0.48423	0.24927	0.07087	-0.104
Mof_H 	H 	0.51083	0.28157	0.08187	0.068
Mof_C 	C 	0.48993	0.21777	0.01697	0.012
Mof_H 	H 	0.52083	0.22717	0.99207	0.042
Mof_C 	C 	0.44723	0.17057	0.00087	-0.16
Mof_H 	H 	0.44933	0.14947	0.96117	0.103
Mof_C 	C 	0.40233	0.15457	0.04167	0.087
Mof_H 	H 	0.37513	0.12237	0.03197	-0.013
Mof_N 	N 	0.37873	0.23657	0.20977	-0.205
Mof_N 	N 	0.38	0.27157	0.26167	-0.096
Mof_N 	N 	0.45713	0.30707	0.19637	-0.121
Mof_C 	C 	0.42543	0.31077	0.25357	0.075
Mof_C 	C 	0.42573	0.25827	0.17137	0.053
Mof_N 	N 	0.47037	0.44181	0.40737	-0.245
Mof_C 	C 	0.42753	0.39937	0.41907	0.098
Mof_H 	H 	0.40763	0.39727	0.46477	-0.007
Mof_C 	C 	0.41043	0.35797	0.36797	-0.165
Mof_H 	H 	0.37843	0.33017	0.37487	0.092
Mof_C 	C 	0.44213	0.35877	0.30617	0.093
Mof_C 	C 	0.48413	0.40217	0.28857	-0.177
Mof_H 	H 	0.50423	0.40537	0.24277	0.103
Mof_C 	C 	0.49593	0.44167	0.34147	0.111
Mof_H 	H 	0.52533	0.47177	0.32947	-0.013
Mof_Ni	Ni	0.5	0.5	0.5	1.068
Mof_Ni	Ni	0.16667	0.83333	0.83333	1.069
Mof_Ni	Ni	0.83333	0.16667	0.16667	1.067
Mof_Ni	Ni	0.5	0	0.5	1.06
Mof_Ni	Ni	0.16667	0.33333	0.83333	1.069
Mof_Ni	Ni	0.83333	0.66667	0.16667	1.067
Mof_Ni	Ni	3.18825e-18	0.5	0.5	1.06
Mof_Ni	Ni	0.66667	0.83333	0.83333	1.069
Mof_Ni	Ni	0.33333	0.16667	0.16667	1.067
Mof_N 	N 	0.4541	0.5185	0.9285	-0.235
Mof_C 	C 	0.4612	0.5646	0.9428	0.088
Mof_C 	C 	0.4317	0.5826	0.9042	-0.133
Mof_H 	H 	0.4374	0.6149	0.9152	0.087
Mof_C 	C 	0.3945	0.5511	0.8503	0.057
Mof_H 	H 	0.373	0.5605	0.8254	0.012
Mof_C 	C 	0.39	0.5039	0.8342	-0.139
Mof_H 	H 	0.3668	0.4828	0.7945	0.083
Mof_C 	C 	0.4189	0.4879	0.875	0.085
Mof_H 	H 	0.4139	0.4557	0.8653	-0.003
Mof_N 	N 	0.5245	0.5699	0.0431	-0.205
Mof_N 	N 	0.55823	0.6049	0.095	-0.098
Mof_N 	N 	0.5166	0.6404	0.0297	-0.122
Mof_C 	C 	0.552	0.6441	0.0869	0.074
Mof_C 	C 	0.4992	0.5916	0.0047	0.027
Mof_N 	N 	0.6381	0.77514	0.2407	-0.245
Mof_C 	C 	0.6385	0.7327	0.2524	0.097
Mof_H 	H 	0.6563	0.7306	0.2981	-0.007
Mof_C 	C 	0.6142	0.6913	0.2013	-0.164
Mof_H 	H 	0.6184	0.6635	0.2082	0.091
Mof_C 	C 	0.5833	0.6921	0.1395	0.09
Mof_C 	C 	0.5847	0.7355	0.1219	-0.175
Mof_H 	H 	0.5678	0.7387	0.0761	0.096
Mof_C 	C 	0.6124	0.775	0.1748	0.108
Mof_H 	H 	0.6131	0.8051	0.1628	-0.014
Mof_N 	N 	0.12077	0.85183	0.26183	-0.235
Mof_C 	C 	0.12787	0.89793	0.27613	0.061
Mof_C 	C 	0.09837	0.91593	0.23753	-0.121
Mof_H 	H 	0.10407	0.94823	0.24853	0.08
Mof_C 	C 	0.06117	0.88443	0.18363	0.043
Mof_H 	H 	0.03967	0.89383	0.15873	0.01
Mof_C 	C 	0.05667	0.83723	0.16753	-0.134
Mof_H 	H 	0.03347	0.81613	0.12783	0.073
Mof_C 	C 	0.08557	0.82123	0.20833	0.076
Mof_H 	H 	0.08057	0.78903	0.19863	-0.006
Mof_N 	N 	0.19117	0.90323	0.37643	-0.205
Mof_N 	N 	0.2249	0.93823	0.42833	-0.096
Mof_N 	N 	0.18327	0.97373	0.36303	-0.117
Mof_C 	C 	0.21867	0.97743	0.42023	0.088
Mof_C 	C 	0.16587	0.92493	0.33803	0.052
Mof_N 	N 	0.30477	0.10847	0.57403	-0.249
Mof_C 	C 	0.30517	0.06603	0.58573	0.118
Mof_H 	H 	0.32297	0.06393	0.63143	-0.018
Mof_C 	C 	0.28087	0.02463	0.53463	-0.209
Mof_H 	H 	0.28507	0.99683	0.54153	0.12
Mof_C 	C 	0.24997	0.02543	0.47283	0.091
Mof_C 	C 	0.25137	0.06883	0.45523	-0.179
Mof_H 	H 	0.23447	0.07203	0.40943	0.101
Mof_C 	C 	0.27907	0.10833	0.50813	0.113
Mof_H 	H 	0.27977	0.13843	0.49613	-0.014
Mof_N 	N 	0.78743	0.18517	0.59517	-0.235
Mof_C 	C 	0.79453	0.23127	0.60947	0.061
Mof_C 	C 	0.76503	0.24927	0.57087	-0.119
Mof_H 	H 	0.77073	0.28157	0.58187	0.078
Mof_C 	C 	0.72783	0.21777	0.51697	0.046
Mof_H 	H 	0.70633	0.22717	0.49207	0.015
Mof_C 	C 	0.72333	0.17057	0.50087	-0.133
Mof_H 	H 	0.70013	0.14947	0.46117	0.081
Mof_C 	C 	0.75223	0.15457	0.54167	0.078
Mof_H 	H 	0.74723	0.12237	0.53197	-0.004
Mof_N 	N 	0.85783	0.23657	0.70977	-0.205
Mof_N 	N 	0.89156	0.27157	0.76167	-0.095
Mof_N 	N 	0.84993	0.30707	0.69637	-0.119
Mof_C 	C 	0.88533	0.31077	0.75357	0.077
Mof_C 	C 	0.83253	0.25827	0.67137	0.053
Mof_N 	N 	0.97143	0.44181	0.90737	-0.236
Mof_C 	C 	0.97183	0.39937	0.91907	0.1
Mof_H 	H 	0.98963	0.39727	0.96477	0.006
Mof_C 	C 	0.94753	0.35797	0.86797	-0.161
Mof_H 	H 	0.95173	0.33017	0.87487	0.095
Mof_C 	C 	0.91663	0.35877	0.80617	0.094
Mof_C 	C 	0.91803	0.40217	0.78857	-0.173
Mof_H 	H 	0.90113	0.40537	0.74277	0.104
Mof_C 	C 	0.94573	0.44167	0.84147	0.113
Mof_H 	H 	0.94643	0.47177	0.82947	-0.009
Mof_N 	N 	0.0644	0.5459	0.9285	-0.237
Mof_C 	C 	0.1034	0.5388	0.9428	0.088
Mof_C 	C 	0.1509	0.5683	0.9042	-0.134
Mof_H 	H 	0.1775	0.5626	0.9152	0.087
Mof_C 	C 	0.1566	0.6055	0.8503	0.058
Mof_H 	H 	0.1875	0.627	0.8254	0.012
Mof_C 	C 	0.1139	0.61	0.8342	-0.141
Mof_H 	H 	0.116	0.6332	0.7945	0.083
Mof_C 	C 	0.069	0.5811	0.875	0.085
Mof_H 	H 	0.0418	0.5861	0.8653	-0.008
Mof_N 	N 	0.0454	0.4755	0.0431	-0.209
Mof_N 	N 	0.04667	0.44177	0.095	-0.102
Mof_N 	N 	0.1238	0.4834	0.0297	-0.122
Mof_C 	C 	0.0921	0.448	0.0869	0.073
Mof_C 	C 	0.0924	0.5008	0.0047	0.025
Mof_N 	N 	0.13704	0.3619	0.2407	-0.244
Mof_C 	C 	0.0942	0.3615	0.2524	0.095
Mof_H 	H 	0.0743	0.3437	0.2981	-0.009
Mof_C 	C 	0.0771	0.3858	0.2013	-0.163
Mof_H 	H 	0.0451	0.3816	0.2082	0.086
Mof_C 	C 	0.1088	0.4167	0.1395	0.087
Mof_C 	C 	0.1508	0.4153	0.1219	-0.174
Mof_H 	H 	0.1709	0.4322	0.0761	0.096
Mof_C 	C 	0.1626	0.3876	0.1748	0.107
Mof_H 	H 	0.192	0.3869	0.1628	-0.014
Mof_N 	N 	0.73107	0.87923	0.26183	-0.235
Mof_C 	C 	0.77007	0.87213	0.27613	0.061
Mof_C 	C 	0.81757	0.90163	0.23753	-0.118
Mof_H 	H 	0.84417	0.89593	0.24853	0.079
Mof_C 	C 	0.82327	0.93883	0.18363	0.046
Mof_H 	H 	0.85417	0.96033	0.15873	0.018
Mof_C 	C 	0.78057	0.94333	0.16753	-0.132
Mof_H 	H 	0.78267	0.96653	0.12783	0.083
Mof_C 	C 	0.73567	0.91443	0.20833	0.079
Mof_H 	H 	0.70847	0.91943	0.19863	-0.003
Mof_N 	N 	0.71207	0.80883	0.37643	-0.205
Mof_N 	N 	0.71334	0.7751	0.42833	-0.096
Mof_N 	N 	0.79047	0.81673	0.36303	-0.119
Mof_C 	C 	0.75877	0.78133	0.42023	0.075
Mof_C 	C 	0.75907	0.83413	0.33803	0.052
Mof_N 	N 	0.80371	0.69523	0.57403	-0.245
Mof_C 	C 	0.76087	0.69483	0.58573	0.099
Mof_H 	H 	0.74097	0.67703	0.63143	-0.007
Mof_C 	C 	0.74377	0.71913	0.53463	-0.165
Mof_H 	H 	0.71177	0.71493	0.54153	0.092
Mof_C 	C 	0.77547	0.75003	0.47283	0.094
Mof_C 	C 	0.81747	0.74863	0.45523	-0.176
Mof_H 	H 	0.83757	0.76553	0.40943	0.104
Mof_C 	C 	0.82927	0.72093	0.50813	0.112
Mof_H 	H 	0.85867	0.72023	0.49613	-0.012
Mof_N 	N 	0.39773	0.21257	0.59517	-0.235
Mof_C 	C 	0.43673	0.20547	0.60947	0.061
Mof_C 	C 	0.48423	0.23497	0.57087	-0.119
Mof_H 	H 	0.51083	0.22927	0.58187	0.078
Mof_C 	C 	0.48993	0.27217	0.51697	0.045
Mof_H 	H 	0.52083	0.29367	0.49207	0.015
Mof_C 	C 	0.44723	0.27667	0.50087	-0.132
Mof_H 	H 	0.44933	0.29987	0.46117	0.081
Mof_C 	C 	0.40233	0.24777	0.54167	0.078
Mof_H 	H 	0.37513	0.25277	0.53197	-0.004
Mof_N 	N 	0.37873	0.14217	0.70977	-0.205
Mof_N 	N 	0.38	0.10844	0.76167	-0.096
Mof_N 	N 	0.45713	0.15007	0.69637	-0.12
Mof_C 	C 	0.42543	0.11467	0.75357	0.075
Mof_C 	C 	0.42573	0.16747	0.67137	0.052
Mof_N 	N 	0.47037	0.02857	0.90737	-0.243
Mof_C 	C 	0.42753	0.02817	0.91907	0.098
Mof_H 	H 	0.40763	0.01037	0.96477	-0.005
Mof_C 	C 	0.41043	0.05247	0.86797	-0.166
Mof_H 	H 	0.37843	0.04827	0.87487	0.092
Mof_C 	C 	0.44213	0.08337	0.80617	0.093
Mof_C 	C 	0.48413	0.08197	0.78857	-0.177
Mof_H 	H 	0.50423	0.09887	0.74277	0.103
Mof_C 	C 	0.49593	0.05427	0.84147	0.111
Mof_H 	H 	0.52533	0.05357	0.82947	-0.014
Mof_N 	N 	0.4815	0.9356	0.9285	-0.231
Mof_C 	C 	0.4354	0.8966	0.9428	0.088
Mof_C 	C 	0.4174	0.8491	0.9042	-0.132
Mof_H 	H 	0.3851	0.8225	0.9152	0.087
Mof_C 	C 	0.4489	0.8434	0.8503	0.056
Mof_H 	H 	0.4395	0.8125	0.8254	0.012
Mof_C 	C 	0.4961	0.8861	0.8342	-0.138
Mof_H 	H 	0.5172	0.884	0.7945	0.083
Mof_C 	C 	0.5121	0.931	0.875	0.084
Mof_H 	H 	0.5443	0.9582	0.8653	0.002
Mof_N 	N 	0.4301	0.9546	0.0431	-0.2
Mof_N 	N 	0.3951	0.95333	0.095	-0.093
Mof_N 	N 	0.3596	0.8762	0.0297	-0.121
Mof_C 	C 	0.3559	0.9079	0.0869	0.074
Mof_C 	C 	0.4084	0.9076	0.0047	0.029
Mof_N 	N 	0.22486	0.86296	0.2407	-0.245
Mof_C 	C 	0.2673	0.9058	0.2524	0.099
Mof_H 	H 	0.2694	0.9257	0.2981	-0.005
Mof_C 	C 	0.3087	0.9229	0.2013	-0.165
Mof_H 	H 	0.3365	0.9549	0.2082	0.096
Mof_C 	C 	0.3079	0.8912	0.1395	0.092
Mof_C 	C 	0.2645	0.8492	0.1219	-0.176
Mof_H 	H 	0.2613	0.8291	0.0761	0.097
Mof_C 	C 	0.225	0.8374	0.1748	0.109
Mof_H 	H 	0.1949	0.808	0.1628	-0.015
Mof_N 	N 	0.14817	0.26893	0.26183	-0.235
Mof_C 	C 	0.10207	0.22993	0.27613	0.058
Mof_C 	C 	0.08407	0.18243	0.23753	-0.119
Mof_H 	H 	0.05177	0.15583	0.24853	0.071
Mof_C 	C 	0.11557	0.17673	0.18363	0.042
Mof_H 	H 	0.10617	0.14583	0.15873	0.009
Mof_C 	C 	0.16277	0.21943	0.16753	-0.132
Mof_H 	H 	0.18387	0.21733	0.12783	0.077
Mof_C 	C 	0.17877	0.26433	0.20833	0.077
Mof_H 	H 	0.21097	0.29153	0.19863	-0.004
Mof_N 	N 	0.09677	0.28793	0.37643	-0.205
Mof_N 	N 	0.06177	0.28666	0.42833	-0.096
Mof_N 	N 	0.02627	0.20953	0.36303	-0.123
Mof_C 	C 	0.02257	0.24123	0.42023	0.062
Mof_C 	C 	0.07507	0.24093	0.33803	0.051
Mof_N 	N 	0.89153	0.19629	0.57403	-0.241
Mof_C 	C 	0.93397	0.23913	0.58573	0.08
Mof_H 	H 	0.93607	0.25903	0.63143	0.003
Mof_C 	C 	0.97537	0.25623	0.53463	-0.122
Mof_H 	H 	0.00317	0.28823	0.54153	0.066
Mof_C 	C 	0.97457	0.22453	0.47283	0.097
Mof_C 	C 	0.93117	0.18253	0.45523	-0.174
Mof_H 	H 	0.92797	0.16243	0.40943	0.106
Mof_C 	C 	0.89167	0.17073	0.50813	0.11
Mof_H 	H 	0.86157	0.14133	0.49613	-0.012
Mof_N 	N 	0.81483	0.60227	0.59517	-0.235
Mof_C 	C 	0.76873	0.56327	0.60947	0.061
Mof_C 	C 	0.75073	0.51577	0.57087	-0.119
Mof_H 	H 	0.71843	0.48917	0.58187	0.078
Mof_C 	C 	0.78223	0.51007	0.51697	0.045
Mof_H 	H 	0.77283	0.47917	0.49207	0.015
Mof_C 	C 	0.82943	0.55277	0.50087	-0.132
Mof_H 	H 	0.85053	0.55067	0.46117	0.08
Mof_C 	C 	0.84543	0.59767	0.54167	0.078
Mof_H 	H 	0.87763	0.62487	0.53197	-0.003
Mof_N 	N 	0.76343	0.62127	0.70977	-0.205
Mof_N 	N 	0.72843	0.62	0.76167	-0.095
Mof_N 	N 	0.69293	0.54287	0.69637	-0.119
Mof_C 	C 	0.68923	0.57457	0.75357	0.076
Mof_C 	C 	0.74173	0.57427	0.67137	0.052
Mof_N 	N 	0.55819	0.52963	0.90737	-0.24
Mof_C 	C 	0.60063	0.57247	0.91907	0.099
Mof_H 	H 	0.60273	0.59237	0.96477	-0
Mof_C 	C 	0.64203	0.58957	0.86797	-0.164
Mof_H 	H 	0.66983	0.62157	0.87487	0.094
Mof_C 	C 	0.64123	0.55787	0.80617	0.094
Mof_C 	C 	0.59783	0.51587	0.78857	-0.176
Mof_H 	H 	0.59463	0.49577	0.74277	0.103
Mof_C 	C 	0.55833	0.50407	0.84147	0.112
Mof_H 	H 	0.52823	0.47467	0.82947	-0.012
Mof_N 	N 	0.5459	0.4815	0.0715	-0.233
Mof_C 	C 	0.5388	0.4354	0.0572	0.034
Mof_C 	C 	0.5683	0.4174	0.0958	-0.105
Mof_H 	H 	0.5626	0.3851	0.0848	0.068
Mof_C 	C 	0.6055	0.4489	0.1497	0.033
Mof_H 	H 	0.627	0.4395	0.1746	0.018
Mof_C 	C 	0.61	0.4961	0.1658	-0.125
Mof_H 	H 	0.6332	0.5172	0.2055	0.078
Mof_C 	C 	0.5811	0.5121	0.125	0.071
Mof_H 	H 	0.5861	0.5443	0.1347	-0.003
Mof_N 	N 	0.4755	0.4301	0.9569	-0.202
Mof_N 	N 	0.44177	0.3951	0.905	-0.094
Mof_N 	N 	0.4834	0.3596	0.9703	-0.118
Mof_C 	C 	0.448	0.3559	0.9131	0.077
Mof_C 	C 	0.5008	0.4084	0.9953	0.078
Mof_N 	N 	0.3619	0.22486	0.7593	-0.245
Mof_C 	C 	0.3615	0.2673	0.7476	0.1
Mof_H 	H 	0.3437	0.2694	0.7019	-0.008
Mof_C 	C 	0.3858	0.3087	0.7987	-0.167
Mof_H 	H 	0.3816	0.3365	0.7918	0.094
Mof_C 	C 	0.4167	0.3079	0.8605	0.098
Mof_C 	C 	0.4153	0.2645	0.8781	-0.178
Mof_H 	H 	0.4322	0.2613	0.9239	0.11
Mof_C 	C 	0.3876	0.225	0.8252	0.115
Mof_H 	H 	0.3869	0.1949	0.8372	-0.011
Mof_N 	N 	0.21257	0.81483	0.40483	-0.235
Mof_C 	C 	0.20547	0.76873	0.39053	0.06
Mof_C 	C 	0.23497	0.75073	0.42913	-0.119
Mof_H 	H 	0.22927	0.71843	0.41813	0.077
Mof_C 	C 	0.27217	0.78223	0.48303	0.045
Mof_H 	H 	0.29367	0.77283	0.50793	0.015
Mof_C 	C 	0.27667	0.82943	0.49913	-0.132
Mof_H 	H 	0.29987	0.85053	0.53883	0.08
Mof_C 	C 	0.24777	0.84543	0.45833	0.078
Mof_H 	H 	0.25277	0.87763	0.46803	-0.003
Mof_N 	N 	0.14217	0.76343	0.29023	-0.205
Mof_N 	N 	0.10844	0.72843	0.23833	-0.097
Mof_N 	N 	0.15007	0.69293	0.30363	-0.12
Mof_C 	C 	0.11467	0.68923	0.24643	0.073
Mof_C 	C 	0.16747	0.74173	0.32863	0.051
Mof_N 	N 	0.02857	0.55819	0.09263	-0.251
Mof_C 	C 	0.02817	0.60063	0.08093	0.097
Mof_H 	H 	0.01037	0.60273	0.03523	-0.019
Mof_C 	C 	0.05247	0.64203	0.13203	-0.17
Mof_H 	H 	0.04827	0.66983	0.12513	0.089
Mof_C 	C 	0.08337	0.64123	0.19383	0.093
Mof_C 	C 	0.08197	0.59783	0.21143	-0.179
Mof_H 	H 	0.09887	0.59463	0.25723	0.103
Mof_C 	C 	0.05427	0.55833	0.15853	0.109
Mof_H 	H 	0.05357	0.52823	0.17053	-0.015
Mof_N 	N 	0.87923	0.14817	0.73817	-0.234
Mof_C 	C 	0.87213	0.10207	0.72387	0.06
Mof_C 	C 	0.90163	0.08407	0.76247	-0.117
Mof_H 	H 	0.89593	0.05177	0.75147	0.075
Mof_C 	C 	0.93883	0.11557	0.81637	0.047
Mof_H 	H 	0.96033	0.10617	0.84127	0.019
Mof_C 	C 	0.94333	0.16277	0.83247	-0.131
Mof_H 	H 	0.96653	0.18387	0.87217	0.088
Mof_C 	C 	0.91443	0.17877	0.79167	0.081
Mof_H 	H 	0.91943	0.21097	0.80137	-0.002
Mof_N 	N 	0.80883	0.09677	0.62357	-0.205
Mof_N 	N 	0.7751	0.06177	0.57167	-0.096
Mof_N 	N 	0.81673	0.02627	0.63697	-0.123
Mof_C 	C 	0.78133	0.02257	0.57977	0.062
Mof_C 	C 	0.83413	0.07507	0.66197	0.052
Mof_N 	N 	0.69523	0.89153	0.42597	-0.241
Mof_C 	C 	0.69483	0.93397	0.41427	0.079
Mof_H 	H 	0.67703	0.93607	0.36857	0.003
Mof_C 	C 	0.71913	0.97537	0.46537	-0.121
Mof_H 	H 	0.71493	0.00317	0.45847	0.065
Mof_C 	C 	0.75003	0.97457	0.52717	0.097
Mof_C 	C 	0.74863	0.93117	0.54477	-0.174
Mof_H 	H 	0.76553	0.92797	0.59057	0.106
Mof_C 	C 	0.72093	0.89167	0.49187	0.11
Mof_H 	H 	0.72023	0.86157	0.50387	-0.012
Mof_N 	N 	0.9356	0.4541	0.0715	-0.229
Mof_C 	C 	0.8966	0.4612	0.0572	0.035
Mof_C 	C 	0.8491	0.4317	0.0958	-0.105
Mof_H 	H 	0.8225	0.4374	0.0848	0.068
Mof_C 	C 	0.8434	0.3945	0.1497	0.033
Mof_H 	H 	0.8125	0.373	0.1746	0.018
Mof_C 	C 	0.8861	0.39	0.1658	-0.124
Mof_H 	H 	0.884	0.3668	0.2055	0.078
Mof_C 	C 	0.931	0.4189	0.125	0.071
Mof_H 	H 	0.9582	0.4139	0.1347	0.002
Mof_N 	N 	0.9546	0.5245	0.9569	-0.197
Mof_N 	N 	0.95333	0.55823	0.905	-0.09
Mof_N 	N 	0.8762	0.5166	0.9703	-0.118
Mof_C 	C 	0.9079	0.552	0.9131	0.077
Mof_C 	C 	0.9076	0.4992	0.9953	0.079
Mof_N 	N 	0.86296	0.6381	0.7593	-0.246
Mof_C 	C 	0.9058	0.6385	0.7476	0.102
Mof_H 	H 	0.9257	0.6563	0.7019	-0.006
Mof_C 	C 	0.9229	0.6142	0.7987	-0.168
Mof_H 	H 	0.9549	0.6184	0.7918	0.099
Mof_C 	C 	0.8912	0.5833	0.8605	0.1
Mof_C 	C 	0.8492	0.5847	0.8781	-0.179
Mof_H 	H 	0.8291	0.5678	0.9239	0.111
Mof_C 	C 	0.8374	0.6124	0.8252	0.115
Mof_H 	H 	0.808	0.6131	0.8372	-0.011
Mof_N 	N 	0.60227	0.78743	0.40483	-0.235
Mof_C 	C 	0.56327	0.79453	0.39053	0.061
Mof_C 	C 	0.51577	0.76503	0.42913	-0.119
Mof_H 	H 	0.48917	0.77073	0.41813	0.077
Mof_C 	C 	0.51007	0.72783	0.48303	0.045
Mof_H 	H 	0.47917	0.70633	0.50793	0.015
Mof_C 	C 	0.55277	0.72333	0.49913	-0.132
Mof_H 	H 	0.55067	0.70013	0.53883	0.081
Mof_C 	C 	0.59767	0.75223	0.45833	0.078
Mof_H 	H 	0.62487	0.74723	0.46803	-0.004
Mof_N 	N 	0.62127	0.85783	0.29023	-0.205
Mof_N 	N 	0.62	0.89156	0.23833	-0.096
Mof_N 	N 	0.54287	0.84993	0.30363	-0.12
Mof_C 	C 	0.57457	0.88533	0.24643	0.076
Mof_C 	C 	0.57427	0.83253	0.32863	0.052
Mof_N 	N 	0.52963	0.97143	0.09263	-0.243
Mof_C 	C 	0.57247	0.97183	0.08093	0.099
Mof_H 	H 	0.59237	0.98963	0.03523	-0.008
Mof_C 	C 	0.58957	0.94753	0.13203	-0.164
Mof_H 	H 	0.62157	0.95173	0.12513	0.092
Mof_C 	C 	0.55787	0.91663	0.19383	0.094
Mof_C 	C 	0.51587	0.91803	0.21143	-0.175
Mof_H 	H 	0.49577	0.90113	0.25723	0.104
Mof_C 	C 	0.50407	0.94573	0.15853	0.112
Mof_H 	H 	0.47467	0.94643	0.17053	-0.01
Mof_N 	N 	0.26893	0.12077	0.73817	-0.235
Mof_C 	C 	0.22993	0.12787	0.72387	0.06
Mof_C 	C 	0.18243	0.09837	0.76247	-0.12
Mof_H 	H 	0.15583	0.10407	0.75147	0.076
Mof_C 	C 	0.17673	0.06117	0.81637	0.044
Mof_H 	H 	0.14583	0.03967	0.84127	0.012
Mof_C 	C 	0.21943	0.05667	0.83247	-0.133
Mof_H 	H 	0.21733	0.03347	0.87217	0.078
Mof_C 	C 	0.26433	0.08557	0.79167	0.077
Mof_H 	H 	0.29153	0.08057	0.80137	-0.004
Mof_N 	N 	0.28793	0.19117	0.62357	-0.205
Mof_N 	N 	0.28666	0.2249	0.57167	-0.096
Mof_N 	N 	0.20953	0.18327	0.63697	-0.12
Mof_C 	C 	0.24123	0.21867	0.57977	0.075
Mof_C 	C 	0.24093	0.16587	0.66197	0.051
Mof_N 	N 	0.19629	0.30477	0.42597	-0.245
Mof_C 	C 	0.23913	0.30517	0.41427	0.098
Mof_H 	H 	0.25903	0.32297	0.36857	-0.007
Mof_C 	C 	0.25623	0.28087	0.46537	-0.165
Mof_H 	H 	0.28823	0.28507	0.45847	0.092
Mof_C 	C 	0.22453	0.24997	0.52717	0.093
Mof_C 	C 	0.18253	0.25137	0.54477	-0.177
Mof_H 	H 	0.16243	0.23447	0.59057	0.103
Mof_C 	C 	0.17073	0.27907	0.49187	0.111
Mof_H 	H 	0.14133	0.27977	0.50387	-0.013
Mof_N 	N 	0.5185	0.0644	0.0715	-0.236
Mof_C 	C 	0.5646	0.1034	0.0572	0.033
Mof_C 	C 	0.5826	0.1509	0.0958	-0.106
Mof_H 	H 	0.6149	0.1775	0.0848	0.068
Mof_C 	C 	0.5511	0.1566	0.1497	0.034
Mof_H 	H 	0.5605	0.1875	0.1746	0.018
Mof_C 	C 	0.5039	0.1139	0.1658	-0.127
Mof_H 	H 	0.4828	0.116	0.2055	0.078
Mof_C 	C 	0.4879	0.069	0.125	0.072
Mof_H 	H 	0.4557	0.0418	0.1347	-0.008
Mof_N 	N 	0.5699	0.0454	0.9569	-0.206
Mof_N 	N 	0.6049	0.04667	0.905	-0.098
Mof_N 	N 	0.6404	0.1238	0.9703	-0.118
Mof_C 	C 	0.6441	0.0921	0.9131	0.076
Mof_C 	C 	0.5916	0.0924	0.9953	0.077
Mof_N 	N 	0.77514	0.13704	0.7593	-0.245
Mof_C 	C 	0.7327	0.0942	0.7476	0.098
Mof_H 	H 	0.7306	0.0743	0.7019	-0.009
Mof_C 	C 	0.6913	0.0771	0.7987	-0.166
Mof_H 	H 	0.6635	0.0451	0.7918	0.088
Mof_C 	C 	0.6921	0.1088	0.8605	0.096
Mof_C 	C 	0.7355	0.1508	0.8781	-0.177
Mof_H 	H 	0.7387	0.1709	0.9239	0.11
Mof_C 	C 	0.775	0.1626	0.8252	0.113
Mof_H 	H 	0.8051	0.192	0.8372	-0.011
Mof_N 	N 	0.18517	0.39773	0.40483	-0.235
Mof_C 	C 	0.23127	0.43673	0.39053	0.061
Mof_C 	C 	0.24927	0.48423	0.42913	-0.119
Mof_H 	H 	0.28157	0.51083	0.41813	0.077
Mof_C 	C 	0.21777	0.48993	0.48303	0.045
Mof_H 	H 	0.22717	0.52083	0.50793	0.015
Mof_C 	C 	0.17057	0.44723	0.49913	-0.133
Mof_H 	H 	0.14947	0.44933	0.53883	0.081
Mof_C 	C 	0.15457	0.40233	0.45833	0.078
Mof_H 	H 	0.12237	0.37513	0.46803	-0.004
Mof_N 	N 	0.23657	0.37873	0.29023	-0.205
Mof_N 	N 	0.27157	0.38	0.23833	-0.097
Mof_N 	N 	0.30707	0.45713	0.30363	-0.12
Mof_C 	C 	0.31077	0.42543	0.24643	0.074
Mof_C 	C 	0.25827	0.42573	0.32863	0.052
Mof_N 	N 	0.44181	0.47037	0.09263	-0.248
Mof_C 	C 	0.39937	0.42753	0.08093	0.098
Mof_H 	H 	0.39727	0.40763	0.03523	-0.014
Mof_C 	C 	0.35797	0.41043	0.13203	-0.167
Mof_H 	H 	0.33017	0.37843	0.12513	0.09
Mof_C 	C 	0.35877	0.44213	0.19383	0.093
Mof_C 	C 	0.40217	0.48413	0.21143	-0.177
Mof_H 	H 	0.40537	0.50423	0.25723	0.103
Mof_C 	C 	0.44167	0.49593	0.15853	0.11
Mof_H 	H 	0.47177	0.52533	0.17053	-0.013
Mof_N 	N 	0.85183	0.73107	0.73817	-0.235
Mof_C 	C 	0.89793	0.77007	0.72387	0.063
Mof_C 	C 	0.91593	0.81757	0.76247	-0.119
Mof_H 	H 	0.94823	0.84417	0.75147	0.084
Mof_C 	C 	0.88443	0.82327	0.81637	0.049
Mof_H 	H 	0.89383	0.85417	0.84127	0.02
Mof_C 	C 	0.83723	0.78057	0.83247	-0.132
Mof_H 	H 	0.81613	0.78267	0.87217	0.084
Mof_C 	C 	0.82123	0.73567	0.79167	0.08
Mof_H 	H 	0.78903	0.70847	0.80137	-0.003
Mof_N 	N 	0.90323	0.71207	0.62357	-0.205
Mof_N 	N 	0.93823	0.71334	0.57167	-0.096
Mof_N 	N 	0.97373	0.79047	0.63697	-0.116
Mof_C 	C 	0.97743	0.75877	0.57977	0.088
Mof_C 	C 	0.92493	0.75907	0.66197	0.053
Mof_N 	N 	0.10847	0.80371	0.42597	-0.249
Mof_C 	C 	0.06603	0.76087	0.41427	0.118
Mof_H 	H 	0.06393	0.74097	0.36857	-0.018
Mof_C 	C 	0.02463	0.74377	0.46537	-0.209
Mof_H 	H 	0.99683	0.71177	0.45847	0.119
Mof_C 	C 	0.02543	0.77547	0.52717	0.091
Mof_C 	C 	0.06883	0.81747	0.54477	-0.179
Mof_H 	H 	0.07203	0.83757	0.59057	0.101
Mof_C 	C 	0.10833	0.82927	0.49187	0.113
Mof_H 	H 	0.13843	0.85867	0.50387	-0.013
Mof_Ni	Ni	0.5	0.5	-0	1.059
Mof_Ni	Ni	0.16667	0.83333	0.33333	1.068
Mof_Ni	Ni	0.83333	0.16667	0.66667	1.068
Mof_Ni	Ni	-0	0.5	-0	1.052
Mof_Ni	Ni	0.66667	0.83333	0.33333	1.068
Mof_Ni	Ni	0.33333	0.16667	0.66667	1.068
Mof_Ni	Ni	0.5	0	-0	1.052
Mof_Ni	Ni	0.16667	0.33333	0.33333	1.068
Mof_Ni	Ni	0.83333	0.66667	0.66667	1.068
_end
