# CIF file generated by openbabel 3.1.0, see https://openbabel.org
data_I
_chemical_name_common 'image0'
_cell_length_a 13.685
_cell_length_b 13.144
_cell_length_c 22.649
_cell_angle_alpha 90
_cell_angle_beta 100.551
_cell_angle_gamma 90
_space_group_name_H-M_alt 'P 1'
_space_group_name_Hall 'P 1'
loop_
    _symmetry_equiv_pos_as_xyz
    x,y,z
loop_
    _atom_site_label
    _atom_site_type_symbol
    _atom_site_fract_x
    _atom_site_fract_y
    _atom_site_fract_z
    _atom_site_occupancy
    W1       W        0.23809    0.48897    0.47599    1.000
    W2       W        0.35508    0.68963    0.41363    1.000
    W3       W        0.36624    0.44240    0.35741    1.000
    W4       W        0.50929    0.25307    0.44144    1.000
    W5       W        0.38202    0.30063    0.56149    1.000
    W6       W        0.37210    0.54721    0.62070    1.000
    La1      La       0.27569    0.40167    0.17655    1.000
    La2      La       0.78086    0.40149    0.22202    1.000
    O1       O        0.40300    0.52700    0.45640    1.000
    O2       O        0.50200    0.61500    0.48410    1.000
    O3       O        0.50700    0.42700    0.44030    1.000
    O4       O        0.59700    0.53300    0.47270    1.000
    O5       O        0.25800    0.43300    0.39930    1.000
    O6       O        0.27000    0.35800    0.51370    1.000
    O7       O        0.26900    0.53900    0.55630    1.000
    O8       O        0.25600    0.62500    0.44250    1.000
    O9       O        0.29320    0.78040    0.37260    1.000
    O10      O        0.48300    0.72230    0.39770    1.000
    O11      O        0.35620    0.57910    0.35630    1.000
    O12      O        0.40200    0.31200    0.39130    1.000
    O13      O        0.60800    0.24500    0.51110    1.000
    O14      O        0.41200    0.23600    0.49210    1.000
    O15      O        0.33300    0.20500    0.59160    1.000
    O16      O        0.36800    0.40300    0.62010    1.000
    O17      O        0.31280    0.56450    0.67760    1.000
    O18      O        0.50900    0.53900    0.65930    1.000
    O19      O        0.39700    0.68300    0.59590    1.000
    O20      O        0.30330    0.41290    0.28970    1.000
    O21      O        0.44770    0.47720    0.18830    1.000
    O22      O        0.60880    0.45270    0.19290    1.000
    O23      O        0.79040    0.73320    0.29030    1.000
    O24      O        0.78280    0.58100    0.25050    1.000
    O25      O        0.72240    0.24140    0.26430    1.000
    O26      O        0.73970    0.08300    0.29690    1.000
    O27      O        0.05380    0.95460    0.29740    1.000
    O28      O        0.89360    0.93390    0.30640    1.000
    N1       N        0.46970    0.66250    0.23490    1.000
    H1       H        0.40910    0.64350    0.22340    1.000
    N2       N        0.59470    0.76260    0.27390    1.000
    N3       N        0.89150    0.23920    0.22380    1.000
    N4       N        0.01500    0.13180    0.23440    1.000
    H2       H        0.07010    0.10430    0.22960    1.000
    C1       C        0.49800    0.74800    0.26000    1.000
    H3       H        0.45340    0.79740    0.26770    1.000
    C2       C        0.55230    0.60710    0.22980    1.000
    C3       C        0.63120    0.67060    0.25410    1.000
    C4       C        0.73600    0.66200    0.26600    1.000
    C5       C        0.53360    0.50370    0.20030    1.000
    C6       C        0.98800    0.22100    0.21510    1.000
    H4       H        0.02650    0.26620    0.19790    1.000
    C7       C        0.86600    0.15500    0.25160    1.000
    C8       C        0.94900    0.08550    0.26280    1.000
    C9       C        0.96600    0.98400    0.28760    1.000
    C10      C        0.77400    0.15800    0.27210    1.000
    W7       W        0.76191    0.98897    0.02401    1.000
    W8       W        0.64492    0.18963    0.08637    1.000
    W9       W        0.63376    0.94240    0.14259    1.000
    W10      W        0.49071    0.75307    0.05856    1.000
    W11      W        0.61798    0.80063    0.93851    1.000
    W12      W        0.62790    0.04721    0.87930    1.000
    La3      La       0.72431    0.90167    0.32345    1.000
    La4      La       0.21914    0.90149    0.27798    1.000
    O29      O        0.59700    0.02700    0.04360    1.000
    O30      O        0.49800    0.11500    0.01590    1.000
    O31      O        0.49300    0.92700    0.05970    1.000
    O32      O        0.40300    0.03300    0.02730    1.000
    O33      O        0.74200    0.93300    0.10070    1.000
    O34      O        0.73000    0.85800    0.98630    1.000
    O35      O        0.73100    0.03900    0.94370    1.000
    O36      O        0.74400    0.12500    0.05750    1.000
    O37      O        0.70680    0.28040    0.12740    1.000
    O38      O        0.51700    0.22230    0.10230    1.000
    O39      O        0.64380    0.07910    0.14370    1.000
    O40      O        0.59800    0.81200    0.10870    1.000
    O41      O        0.39200    0.74500    0.98890    1.000
    O42      O        0.58800    0.73600    0.00790    1.000
    O43      O        0.66700    0.70500    0.90840    1.000
    O44      O        0.63200    0.90300    0.87990    1.000
    O45      O        0.68720    0.06450    0.82240    1.000
    O46      O        0.49100    0.03900    0.84070    1.000
    O47      O        0.60300    0.18300    0.90410    1.000
    O48      O        0.69670    0.91290    0.21030    1.000
    O49      O        0.55230    0.97720    0.31170    1.000
    O50      O        0.39120    0.95270    0.30710    1.000
    O51      O        0.20960    0.23320    0.20970    1.000
    O52      O        0.21720    0.08100    0.24950    1.000
    O53      O        0.27760    0.74140    0.23570    1.000
    O54      O        0.26030    0.58300    0.20310    1.000
    O55      O        0.94620    0.45460    0.20260    1.000
    O56      O        0.10640    0.43390    0.19360    1.000
    N5       N        0.53030    0.16250    0.26510    1.000
    H5       H        0.59090    0.14350    0.27660    1.000
    N6       N        0.40530    0.26260    0.22610    1.000
    N7       N        0.10850    0.73920    0.27620    1.000
    N8       N        0.98500    0.63180    0.26560    1.000
    H6       H        0.92990    0.60430    0.27040    1.000
    C11      C        0.50200    0.24800    0.24000    1.000
    H7       H        0.54660    0.29740    0.23230    1.000
    C12      C        0.44770    0.10710    0.27020    1.000
    C13      C        0.36880    0.17060    0.24590    1.000
    C14      C        0.26400    0.16200    0.23400    1.000
    C15      C        0.46640    0.00370    0.29970    1.000
    C16      C        0.01200    0.72100    0.28490    1.000
    H8       H        0.97350    0.76620    0.30210    1.000
    C17      C        0.13400    0.65500    0.24840    1.000
    C18      C        0.05100    0.58550    0.23720    1.000
    C19      C        0.03400    0.48400    0.21240    1.000
    C20      C        0.22600    0.65800    0.22790    1.000
    W13      W        0.76191    0.51103    0.52401    1.000
    W14      W        0.64492    0.31037    0.58637    1.000
    W15      W        0.63376    0.55760    0.64259    1.000
    W16      W        0.49071    0.74693    0.55856    1.000
    W17      W        0.61798    0.69937    0.43851    1.000
    W18      W        0.62790    0.45279    0.37930    1.000
    La5      La       0.72431    0.59833    0.82345    1.000
    La6      La       0.21914    0.59851    0.77798    1.000
    O57      O        0.59700    0.47300    0.54360    1.000
    O58      O        0.49800    0.38500    0.51590    1.000
    O59      O        0.49300    0.57300    0.55970    1.000
    O60      O        0.40300    0.46700    0.52730    1.000
    O61      O        0.74200    0.56700    0.60070    1.000
    O62      O        0.73000    0.64200    0.48630    1.000
    O63      O        0.73100    0.46100    0.44370    1.000
    O64      O        0.74400    0.37500    0.55750    1.000
    O65      O        0.70680    0.21960    0.62740    1.000
    O66      O        0.51700    0.27770    0.60230    1.000
    O67      O        0.64380    0.42090    0.64370    1.000
    O68      O        0.59800    0.68800    0.60870    1.000
    O69      O        0.39200    0.75500    0.48890    1.000
    O70      O        0.58800    0.76400    0.50790    1.000
    O71      O        0.66700    0.79500    0.40840    1.000
    O72      O        0.63200    0.59700    0.37990    1.000
    O73      O        0.68720    0.43550    0.32240    1.000
    O74      O        0.49100    0.46100    0.34070    1.000
    O75      O        0.60300    0.31700    0.40410    1.000
    O76      O        0.69670    0.58710    0.71030    1.000
    O77      O        0.55230    0.52280    0.81170    1.000
    O78      O        0.39120    0.54730    0.80710    1.000
    O79      O        0.20960    0.26680    0.70970    1.000
    O80      O        0.21720    0.41900    0.74950    1.000
    O81      O        0.27760    0.75860    0.73570    1.000
    O82      O        0.26030    0.91700    0.70310    1.000
    O83      O        0.94620    0.04540    0.70260    1.000
    O84      O        0.10640    0.06610    0.69360    1.000
    N9       N        0.53030    0.33750    0.76510    1.000
    H9       H        0.59090    0.35650    0.77660    1.000
    N10      N        0.40530    0.23740    0.72610    1.000
    N11      N        0.10850    0.76080    0.77620    1.000
    N12      N        0.98500    0.86820    0.76560    1.000
    H10      H        0.92990    0.89570    0.77040    1.000
    C21      C        0.50200    0.25200    0.74000    1.000
    H11      H        0.54660    0.20260    0.73230    1.000
    C22      C        0.44770    0.39290    0.77020    1.000
    C23      C        0.36880    0.32940    0.74590    1.000
    C24      C        0.26400    0.33800    0.73400    1.000
    C25      C        0.46640    0.49630    0.79970    1.000
    C26      C        0.01200    0.77900    0.78490    1.000
    H12      H        0.97350    0.73380    0.80210    1.000
    C27      C        0.13400    0.84500    0.74840    1.000
    C28      C        0.05100    0.91450    0.73720    1.000
    C29      C        0.03400    0.01600    0.71240    1.000
    C30      C        0.22600    0.84200    0.72790    1.000
    W19      W        0.23809    0.01103    0.97599    1.000
    W20      W        0.35508    0.81037    0.91363    1.000
    W21      W        0.36624    0.05760    0.85741    1.000
    W22      W        0.50929    0.24693    0.94144    1.000
    W23      W        0.38202    0.19937    0.06149    1.000
    W24      W        0.37210    0.95279    0.12070    1.000
    La7      La       0.27569    0.09833    0.67655    1.000
    La8      La       0.78086    0.09851    0.72202    1.000
    O85      O        0.40300    0.97300    0.95640    1.000
    O86      O        0.50200    0.88500    0.98410    1.000
    O87      O        0.50700    0.07300    0.94030    1.000
    O88      O        0.59700    0.96700    0.97270    1.000
    O89      O        0.25800    0.06700    0.89930    1.000
    O90      O        0.27000    0.14200    0.01370    1.000
    O91      O        0.26900    0.96100    0.05630    1.000
    O92      O        0.25600    0.87500    0.94250    1.000
    O93      O        0.29320    0.71960    0.87260    1.000
    O94      O        0.48300    0.77770    0.89770    1.000
    O95      O        0.35620    0.92090    0.85630    1.000
    O96      O        0.40200    0.18800    0.89130    1.000
    O97      O        0.60800    0.25500    0.01110    1.000
    O98      O        0.41200    0.26400    0.99210    1.000
    O99      O        0.33300    0.29500    0.09160    1.000
    O100     O        0.36800    0.09700    0.12010    1.000
    O101     O        0.31280    0.93550    0.17760    1.000
    O102     O        0.50900    0.96100    0.15930    1.000
    O103     O        0.39700    0.81700    0.09590    1.000
    O104     O        0.30330    0.08710    0.78970    1.000
    O105     O        0.44770    0.02280    0.68830    1.000
    O106     O        0.60880    0.04730    0.69290    1.000
    O107     O        0.79040    0.76680    0.79030    1.000
    O108     O        0.78280    0.91900    0.75050    1.000
    O109     O        0.72240    0.25860    0.76430    1.000
    O110     O        0.73970    0.41700    0.79690    1.000
    O111     O        0.05380    0.54540    0.79740    1.000
    O112     O        0.89360    0.56610    0.80640    1.000
    N13      N        0.46970    0.83750    0.73490    1.000
    H13      H        0.40910    0.85650    0.72340    1.000
    N14      N        0.59470    0.73740    0.77390    1.000
    N15      N        0.89150    0.26080    0.72380    1.000
    N16      N        0.01500    0.36820    0.73440    1.000
    H14      H        0.07010    0.39570    0.72960    1.000
    C31      C        0.49800    0.75200    0.76000    1.000
    H15      H        0.45340    0.70260    0.76770    1.000
    C32      C        0.55230    0.89290    0.72980    1.000
    C33      C        0.63120    0.82940    0.75410    1.000
    C34      C        0.73600    0.83800    0.76600    1.000
    C35      C        0.53360    0.99630    0.70030    1.000
    C36      C        0.98800    0.27900    0.71510    1.000
    H16      H        0.02650    0.23380    0.69790    1.000
    C37      C        0.86600    0.34500    0.75160    1.000
    C38      C        0.94900    0.41450    0.76280    1.000
    C39      C        0.96600    0.51600    0.78760    1.000
    C40      C        0.77400    0.34200    0.77210    1.000
    Si1      Si       0.50000    0.50000    0.50000    1.000
    Si2      Si       0.50000    0.00000    0.00000    1.000
