data_functionalizedCrystal
_audit_creation_method	'EQeq! by Chris Wilmer'
_symmetry_space_group_name_H-M	'P1'
_symmetry_Int_Tables_number	1
_symmetry_cell_setting	triclinic
loop_
_symmetry_equiv_pos_as_xyz
  x,y,z
_cell_length_a	13.0911
_cell_length_b	20.3529
_cell_length_c	20.3529
_cell_angle_alpha	64.4659
_cell_angle_beta	77.6196
_cell_angle_gamma	102.38
loop_
_atom_site_label
_atom_site_type_symbol
_atom_site_fract_x
_atom_site_fract_y
_atom_site_fract_z
_atom_site_charge
Mof_Cu	Cu	0.87148	0.48435	0.827	0.882
Mof_Cu	Cu	0.93185	0.47825	0.61015	0.874
Mof_Cu	Cu	0.69848	0.827	0.68865	0.882
Mof_Cu	Cu	0.542	0.61015	0.9116	0.874
Mof_Cu	Cu	0.38713	0.68865	0.48435	0.883
Mof_Cu	Cu	0.4536	0.9116	0.47825	0.875
Mof_Cu	Cu	0.12852	0.51565	0.173	0.883
Mof_Cu	Cu	0.06815	0.52175	0.38985	0.875
Mof_Cu	Cu	0.30152	0.173	0.31135	0.883
Mof_Cu	Cu	0.458	0.38985	0.0884	0.875
Mof_Cu	Cu	0.61287	0.31135	0.51565	0.883
Mof_Cu	Cu	0.5464	0.0884	0.52175	0.875
Mof_H 	H 	0.9149	0.5403	0.9428	-0.008
Mof_H 	H 	0.064	0.6069	0.956	0.073
Mof_H 	H 	0.2384	0.6536	0.8662	0.033
Mof_H 	H 	0.2549	0.6416	0.754	0.089
Mof_H 	H 	0.2952	0.6219	0.383	0.003
Mof_H 	H 	0.8577	0.9428	0.5169	-0.007
Mof_H 	H 	0.02	0.956	0.4371	0.071
Mof_H 	H 	0.1046	0.8662	0.4802	0.035
Mof_H 	H 	0.0089	0.754	0.6044	0.088
Mof_H 	H 	0.6782	0.383	0.9951	0.003
Mof_H 	H 	0.3746	0.5169	0.5403	-0.008
Mof_H 	H 	0.4571	0.4371	0.6069	0.073
Mof_H 	H 	0.5848	0.4802	0.6536	0.033
Mof_H 	H 	0.6133	0.6044	0.6416	0.089
Mof_H 	H 	0.6733	0.9951	0.6219	0.003
Mof_H 	H 	0.0851	0.4597	0.0572	-0.008
Mof_H 	H 	0.936	0.3931	0.044	0.073
Mof_H 	H 	0.7616	0.3464	0.1338	0.033
Mof_H 	H 	0.7451	0.3584	0.246	0.089
Mof_H 	H 	0.7048	0.3781	0.617	0.003
Mof_H 	H 	0.1423	0.0572	0.4831	-0.007
Mof_H 	H 	0.98	0.044	0.5629	0.071
Mof_H 	H 	0.8954	0.1338	0.5198	0.035
Mof_H 	H 	0.9911	0.246	0.3956	0.088
Mof_H 	H 	0.3218	0.617	0.0049	0.003
Mof_H 	H 	0.6254	0.4831	0.4597	-0.008
Mof_H 	H 	0.5429	0.5629	0.3931	0.073
Mof_H 	H 	0.4152	0.5198	0.3464	0.033
Mof_H 	H 	0.3867	0.3956	0.3584	0.089
Mof_H 	H 	0.3267	0.0049	0.3781	0.003
Mof_C 	C 	0.9847	0.561	0.9044	0.075
Mof_C 	C 	0.0736	0.6	0.9131	-0.135
Mof_C 	C 	0.176	0.6288	0.8597	0.048
Mof_C 	C 	0.1861	0.6203	0.7933	-0.121
Mof_C 	C 	0.09401	0.58101	0.78818	0.059
Mof_C 	C 	0.09211	0.56566	0.72453	0.071
Mof_C 	C 	0.12223	0.5634	0.62261	0.053
Mof_C 	C 	0.1594	0.57254	0.54544	0.072
Mof_C 	C 	0.24115	0.60046	0.43161	0.102
Mof_C 	C 	0.8891	0.9044	0.5346	0.074
Mof_C 	C 	0.9867	0.9131	0.4869	-0.131
Mof_C 	C 	0.0357	0.8597	0.5115	0.044
Mof_C 	C 	0.9794	0.7933	0.5864	-0.117
Mof_C 	C 	0.88219	0.78818	0.63081	0.057
Mof_C 	C 	0.81664	0.72453	0.70981	0.072
Mof_C 	C 	0.74484	0.62261	0.81399	0.053
Mof_C 	C 	0.70484	0.54544	0.88202	0.072
Mof_C 	C 	0.67276	0.43161	0.96793	0.102
Mof_C 	C 	0.4237	0.5346	0.561	0.076
Mof_C 	C 	0.4736	0.4869	0.6	-0.136
Mof_C 	C 	0.5472	0.5115	0.6288	0.048
Mof_C 	C 	0.5658	0.5864	0.6203	-0.121
Mof_C 	C 	0.513	0.63081	0.58101	0.059
Mof_C 	C 	0.52645	0.70981	0.56566	0.071
Mof_C 	C 	0.55883	0.81399	0.5634	0.053
Mof_C 	C 	0.58686	0.88202	0.57254	0.072
Mof_C 	C 	0.64069	0.96793	0.60046	0.102
Mof_C 	C 	0.0153	0.439	0.0956	0.075
Mof_C 	C 	0.9264	0.4	0.0869	-0.135
Mof_C 	C 	0.824	0.3712	0.1403	0.048
Mof_C 	C 	0.8139	0.3797	0.2067	-0.121
Mof_C 	C 	0.90599	0.41899	0.21182	0.059
Mof_C 	C 	0.90789	0.43434	0.27547	0.071
Mof_C 	C 	0.87777	0.4366	0.37739	0.053
Mof_C 	C 	0.8406	0.42746	0.45456	0.072
Mof_C 	C 	0.75885	0.39954	0.56839	0.102
Mof_C 	C 	0.1109	0.0956	0.4654	0.074
Mof_C 	C 	0.0133	0.0869	0.5131	-0.131
Mof_C 	C 	0.9643	0.1403	0.4885	0.044
Mof_C 	C 	0.0206	0.2067	0.4136	-0.117
Mof_C 	C 	0.11781	0.21182	0.36919	0.057
Mof_C 	C 	0.18336	0.27547	0.29019	0.072
Mof_C 	C 	0.25516	0.37739	0.18601	0.053
Mof_C 	C 	0.29516	0.45456	0.11798	0.072
Mof_C 	C 	0.32724	0.56839	0.03207	0.102
Mof_C 	C 	0.5763	0.4654	0.439	0.076
Mof_C 	C 	0.5264	0.5131	0.4	-0.136
Mof_C 	C 	0.4528	0.4885	0.3712	0.048
Mof_C 	C 	0.4342	0.4136	0.3797	-0.121
Mof_C 	C 	0.487	0.36919	0.41899	0.059
Mof_C 	C 	0.47355	0.29019	0.43434	0.071
Mof_C 	C 	0.44117	0.18601	0.4366	0.053
Mof_C 	C 	0.41314	0.11798	0.42746	0.072
Mof_C 	C 	0.35931	0.03207	0.39954	0.102
Mof_S 	S 	0.7213	0.42732	0.75332	0.736
Mof_S 	S 	0.47462	0.75332	0.81936	0.736
Mof_S 	S 	0.29398	0.81936	0.42732	0.736
Mof_S 	S 	0.2787	0.57268	0.24668	0.736
Mof_S 	S 	0.52538	0.24668	0.18064	0.736
Mof_S 	S 	0.70602	0.18064	0.57268	0.736
Mof_N 	N 	0.99305	0.55101	0.84236	-0.229
Mof_N 	N 	0.99714	0.52077	0.73115	-0.193
Mof_N 	N 	0.01542	0.51888	0.66452	-0.188
Mof_N 	N 	0.17576	0.59385	0.65687	-0.133
Mof_N 	N 	0.08421	0.53741	0.52648	-0.205
Mof_N 	N 	0.13751	0.55465	0.45222	-0.202
Mof_N 	N 	0.25927	0.61218	0.48887	-0.23
Mof_N 	N 	0.83541	0.84236	0.60663	-0.228
Mof_N 	N 	0.72829	0.73115	0.74808	-0.192
Mof_N 	N 	0.67994	0.66452	0.8166	-0.188
Mof_N 	N 	0.83263	0.65687	0.74928	-0.133
Mof_N 	N 	0.61069	0.52648	0.93611	-0.205
Mof_N 	N 	0.58973	0.45222	0.99313	-0.202
Mof_N 	N 	0.74814	0.48887	0.89895	-0.23
Mof_N 	N 	0.44204	0.60663	0.55101	-0.229
Mof_N 	N 	0.47637	0.74808	0.52077	-0.192
Mof_N 	N 	0.49654	0.8166	0.51888	-0.188
Mof_N 	N 	0.58191	0.74928	0.59385	-0.133
Mof_N 	N 	0.5468	0.93611	0.53741	-0.205
Mof_N 	N 	0.58286	0.99313	0.55465	-0.202
Mof_N 	N 	0.64709	0.89895	0.61218	-0.23
Mof_N 	N 	0.00695	0.44899	0.15764	-0.229
Mof_N 	N 	0.00286	0.47923	0.26885	-0.193
Mof_N 	N 	0.98458	0.48112	0.33548	-0.188
Mof_N 	N 	0.82424	0.40615	0.34313	-0.133
Mof_N 	N 	0.91579	0.46259	0.47352	-0.205
Mof_N 	N 	0.86249	0.44535	0.54778	-0.202
Mof_N 	N 	0.74073	0.38782	0.51113	-0.23
Mof_N 	N 	0.16459	0.15764	0.39337	-0.228
Mof_N 	N 	0.27171	0.26885	0.25192	-0.192
Mof_N 	N 	0.32006	0.33548	0.1834	-0.188
Mof_N 	N 	0.16737	0.34313	0.25072	-0.133
Mof_N 	N 	0.38931	0.47352	0.06389	-0.205
Mof_N 	N 	0.41027	0.54778	0.00687	-0.202
Mof_N 	N 	0.25186	0.51113	0.10105	-0.23
Mof_N 	N 	0.55796	0.39337	0.44899	-0.229
Mof_N 	N 	0.52363	0.25192	0.47923	-0.192
Mof_N 	N 	0.50346	0.1834	0.48112	-0.188
Mof_N 	N 	0.41809	0.25072	0.40615	-0.133
Mof_N 	N 	0.4532	0.06389	0.46259	-0.205
Mof_N 	N 	0.41714	0.00687	0.44535	-0.202
Mof_N 	N 	0.35291	0.10105	0.38782	-0.23
Mof_O 	O 	0.76684	0.40879	0.81657	-0.44
Mof_O 	O 	0.732	0.508	0.7182	-0.356
Mof_O 	O 	0.6094	0.3768	0.779	-0.293
Mof_O 	O 	0.79179	0.41359	0.69612	-0.44
Mof_O 	O 	0.58341	0.81657	0.77464	-0.44
Mof_O 	O 	0.4502	0.7182	0.7738	-0.356
Mof_O 	O 	0.3884	0.779	0.8442	-0.293
Mof_O 	O 	0.48791	0.69612	0.89029	-0.44
Mof_O 	O 	0.35805	0.77464	0.40879	-0.44
Mof_O 	O 	0.224	0.7738	0.508	-0.356
Mof_O 	O 	0.2326	0.8442	0.3768	-0.293
Mof_O 	O 	0.3782	0.89029	0.41359	-0.44
Mof_O 	O 	0.23316	0.59121	0.18343	-0.44
Mof_O 	O 	0.268	0.492	0.2818	-0.356
Mof_O 	O 	0.3906	0.6232	0.221	-0.293
Mof_O 	O 	0.20821	0.58641	0.30388	-0.44
Mof_O 	O 	0.41659	0.18343	0.22536	-0.44
Mof_O 	O 	0.5498	0.2818	0.2262	-0.356
Mof_O 	O 	0.6116	0.221	0.1558	-0.293
Mof_O 	O 	0.51209	0.30388	0.10971	-0.44
Mof_O 	O 	0.64195	0.22536	0.59121	-0.44
Mof_O 	O 	0.776	0.2262	0.492	-0.356
Mof_O 	O 	0.7674	0.1558	0.6232	-0.293
Mof_O 	O 	0.6218	0.10971	0.58641	-0.44
_end
