data_functionalizedCrystal
_audit_creation_method	'EQeq! by Chris Wilmer'
_symmetry_space_group_name_H-M	'P1'
_symmetry_Int_Tables_number	1
_symmetry_cell_setting	triclinic
loop_
_symmetry_equiv_pos_as_xyz
  x,y,z
_cell_length_a	25.4117
_cell_length_b	25.4117
_cell_length_c	52.162
_cell_angle_alpha	90
_cell_angle_beta	90
_cell_angle_gamma	90
loop_
_atom_site_label
_atom_site_type_symbol
_atom_site_fract_x
_atom_site_fract_y
_atom_site_fract_z
_atom_site_charge
Mof_Cu	Cu	0.22338	0.45168	0.12614	0.904
Mof_O 	O 	0.20018	0.49879	0.15465	-0.407
Mof_O 	O 	0.05403	0.58012	0.24114	-0.413
Mof_O 	O 	0.05402	0.51681	0.21126	-0.421
Mof_O 	O 	0.05347	0.43708	0.24605	-0.422
Mof_O 	O 	0.05413	0.49874	0.27633	-0.419
Mof_C 	C 	0.21653	0.54418	0.15877	0.357
Mof_C 	C 	0.16658	0.4151	0.317	-0.058
Mof_C 	C 	0.18853	0.57593	0.17816	-0.072
Mof_C 	C 	0.14349	0.5562	0.18993	0.015
Mof_H 	H 	0.1308	0.5226	0.1849	0.053
Mof_C 	C 	0.11711	0.58301	0.20826	-0.073
Mof_C 	C 	0.07128	0.55852	0.22131	0.356
Mof_C 	C 	0.06913	0.45581	0.26663	0.361
Mof_C 	C 	0.1081	0.42441	0.28153	-0.07
Mof_C 	C 	0.12057	0.37507	0.27385	-0.06
Mof_H 	H 	0.1046	0.3602	0.2591	0.067
Mof_C 	C 	0.15722	0.34639	0.28806	0.082
Mof_C 	C 	0.17941	0.36608	0.30939	-0.069
Mof_H 	H 	0.2038	0.3457	0.319	0.072
Mof_C 	C 	0.13054	0.44431	0.30337	0.006
Mof_H 	H 	0.1211	0.4785	0.3091	0.054
Mof_N 	N 	0.16684	0.29248	0.28025	-0.13
Mof_C 	C 	0.1808	0.27626	0.25538	0.001
Mof_H 	H 	0.1887	0.2985	0.2413	0.035
Mof_C 	C 	0.13381	0.63391	0.2147	-0.059
Mof_H 	H 	0.1161	0.6538	0.2275	0.065
Mof_C 	C 	0.17648	0.65415	0.20197	0.079
Mof_C 	C 	0.20424	0.62647	0.1841	-0.058
Mof_H 	H 	0.2339	0.6417	0.1759	0.07
Mof_N 	N 	0.19322	0.70835	0.20725	-0.138
Mof_C 	C 	0.24211	0.72347	0.21478	0.006
Mof_H 	H 	0.2707	0.7011	0.2192	0.034
Mof_C 	C 	0.19313	0.44037	0.3399	0.35
Mof_O 	O 	0.23126	0.41611	0.34956	-0.407
Mof_O 	O 	0.17518	0.48385	0.34728	-0.408
Mof_O 	O 	0.25538	0.56588	0.14783	-0.408
Mof_Cu	Cu	0.72338	0.95168	0.62614	0.905
Mof_O 	O 	0.70018	0.99879	0.65465	-0.404
Mof_O 	O 	0.55403	0.08012	0.74114	-0.403
Mof_O 	O 	0.55402	0.01681	0.71126	-0.411
Mof_O 	O 	0.55347	0.93708	0.74605	-0.411
Mof_O 	O 	0.55413	0.99874	0.77633	-0.408
Mof_C 	C 	0.71653	0.04418	0.65877	0.355
Mof_C 	C 	0.66658	0.9151	0.817	-0.052
Mof_C 	C 	0.68853	0.07593	0.67816	-0.066
Mof_C 	C 	0.64349	0.0562	0.68993	0.013
Mof_H 	H 	0.6308	0.0226	0.6849	0.057
Mof_C 	C 	0.61711	0.08301	0.70826	-0.066
Mof_C 	C 	0.57128	0.05852	0.72131	0.355
Mof_C 	C 	0.56913	0.95581	0.76663	0.361
Mof_C 	C 	0.6081	0.92441	0.78153	-0.062
Mof_C 	C 	0.62057	0.87507	0.77385	-0.061
Mof_H 	H 	0.6046	0.8602	0.7591	0.073
Mof_C 	C 	0.65722	0.84639	0.78806	0.088
Mof_C 	C 	0.67941	0.86608	0.80939	-0.07
Mof_H 	H 	0.7038	0.8457	0.819	0.075
Mof_C 	C 	0.63054	0.94431	0.80337	0.004
Mof_H 	H 	0.6211	0.9785	0.8091	0.06
Mof_N 	N 	0.66684	0.79248	0.78025	-0.129
Mof_C 	C 	0.6808	0.77626	0.75538	0.004
Mof_H 	H 	0.6887	0.7985	0.7413	0.037
Mof_C 	C 	0.63381	0.13391	0.7147	-0.061
Mof_H 	H 	0.6161	0.1538	0.7275	0.071
Mof_C 	C 	0.67648	0.15415	0.70197	0.084
Mof_C 	C 	0.70424	0.12647	0.6841	-0.06
Mof_H 	H 	0.7339	0.1417	0.6759	0.073
Mof_N 	N 	0.69322	0.20835	0.70725	-0.137
Mof_C 	C 	0.74211	0.22347	0.71478	0.008
Mof_H 	H 	0.7707	0.2011	0.7192	0.036
Mof_C 	C 	0.69313	0.94037	0.8399	0.35
Mof_O 	O 	0.73126	0.91611	0.84956	-0.404
Mof_O 	O 	0.67518	0.98385	0.84728	-0.404
Mof_O 	O 	0.75538	0.06588	0.64783	-0.404
Mof_Cu	Cu	0.27662	0.54832	0.62614	0.906
Mof_O 	O 	0.29982	0.50121	0.65465	-0.404
Mof_O 	O 	0.44597	0.41988	0.74114	-0.402
Mof_O 	O 	0.44598	0.48319	0.71126	-0.41
Mof_O 	O 	0.44653	0.56292	0.74605	-0.411
Mof_O 	O 	0.44587	0.50126	0.77633	-0.409
Mof_C 	C 	0.28347	0.45582	0.65877	0.357
Mof_C 	C 	0.33342	0.5849	0.817	-0.053
Mof_C 	C 	0.31147	0.42407	0.67816	-0.068
Mof_C 	C 	0.35651	0.4438	0.68993	0.015
Mof_H 	H 	0.3692	0.4774	0.6849	0.057
Mof_C 	C 	0.38289	0.41699	0.70826	-0.067
Mof_C 	C 	0.42872	0.44148	0.72131	0.356
Mof_C 	C 	0.43087	0.54419	0.76663	0.361
Mof_C 	C 	0.3919	0.57559	0.78153	-0.063
Mof_C 	C 	0.37943	0.62493	0.77385	-0.06
Mof_H 	H 	0.3954	0.6398	0.7591	0.073
Mof_C 	C 	0.34278	0.65361	0.78806	0.087
Mof_C 	C 	0.32059	0.63392	0.80939	-0.069
Mof_H 	H 	0.2962	0.6543	0.819	0.073
Mof_C 	C 	0.36946	0.55569	0.80337	0.005
Mof_H 	H 	0.3789	0.5215	0.8091	0.059
Mof_N 	N 	0.33316	0.70752	0.78025	-0.129
Mof_C 	C 	0.3192	0.72374	0.75538	0.003
Mof_H 	H 	0.3113	0.7015	0.7413	0.037
Mof_C 	C 	0.36619	0.36609	0.7147	-0.06
Mof_H 	H 	0.3839	0.3462	0.7275	0.07
Mof_C 	C 	0.32352	0.34585	0.70197	0.082
Mof_C 	C 	0.29576	0.37353	0.6841	-0.058
Mof_H 	H 	0.2661	0.3583	0.6759	0.07
Mof_N 	N 	0.30678	0.29165	0.70725	-0.137
Mof_C 	C 	0.25789	0.27653	0.71478	0.007
Mof_H 	H 	0.2293	0.2989	0.7192	0.033
Mof_C 	C 	0.30687	0.55963	0.8399	0.351
Mof_O 	O 	0.26874	0.58389	0.84956	-0.407
Mof_O 	O 	0.32482	0.51615	0.84728	-0.404
Mof_O 	O 	0.24462	0.43412	0.64783	-0.407
Mof_Cu	Cu	0.77662	0.04832	0.12614	0.907
Mof_O 	O 	0.79982	0.00121	0.15465	-0.401
Mof_O 	O 	0.94597	0.91988	0.24114	-0.384
Mof_O 	O 	0.94598	0.98319	0.21126	-0.392
Mof_O 	O 	0.94653	0.06292	0.24605	-0.393
Mof_O 	O 	0.94587	0.00126	0.27633	-0.39
Mof_C 	C 	0.78347	0.95582	0.15877	0.355
Mof_C 	C 	0.83342	0.0849	0.317	-0.047
Mof_C 	C 	0.81147	0.92407	0.17816	-0.063
Mof_C 	C 	0.85651	0.9438	0.18993	0.011
Mof_H 	H 	0.8692	0.9774	0.1849	0.061
Mof_C 	C 	0.88289	0.91699	0.20826	-0.058
Mof_C 	C 	0.92872	0.94148	0.22131	0.351
Mof_C 	C 	0.93087	0.04419	0.26663	0.357
Mof_C 	C 	0.8919	0.07559	0.28153	-0.054
Mof_C 	C 	0.87943	0.12493	0.27385	-0.064
Mof_H 	H 	0.8954	0.1398	0.2591	0.079
Mof_C 	C 	0.84278	0.15361	0.28806	0.092
Mof_C 	C 	0.82059	0.13392	0.30939	-0.073
Mof_H 	H 	0.7962	0.1543	0.319	0.076
Mof_C 	C 	0.86946	0.05569	0.30337	0.001
Mof_H 	H 	0.8789	0.0215	0.3091	0.064
Mof_N 	N 	0.83316	0.20752	0.28025	-0.129
Mof_C 	C 	0.8192	0.22374	0.25538	0.005
Mof_H 	H 	0.8113	0.2015	0.2413	0.038
Mof_C 	C 	0.86619	0.86609	0.2147	-0.063
Mof_H 	H 	0.8839	0.8462	0.2275	0.076
Mof_C 	C 	0.82352	0.84585	0.20197	0.087
Mof_C 	C 	0.79576	0.87353	0.1841	-0.061
Mof_H 	H 	0.7661	0.8583	0.1759	0.073
Mof_N 	N 	0.80678	0.79165	0.20725	-0.137
Mof_C 	C 	0.75789	0.77653	0.21478	0.008
Mof_H 	H 	0.7293	0.7989	0.2192	0.035
Mof_C 	C 	0.80687	0.05963	0.3399	0.349
Mof_O 	O 	0.76874	0.08389	0.34956	-0.404
Mof_O 	O 	0.82482	0.01615	0.34728	-0.4
Mof_O 	O 	0.74462	0.93412	0.14783	-0.405
Mof_Cu	Cu	0.79832	0.97338	0.37614	0.907
Mof_O 	O 	0.75121	0.95018	0.40465	-0.403
Mof_O 	O 	0.66988	0.80403	0.49114	-0.402
Mof_O 	O 	0.73319	0.80402	0.46126	-0.409
Mof_O 	O 	0.81292	0.80347	0.49605	-0.408
Mof_O 	O 	0.75126	0.80413	0.52633	-0.408
Mof_C 	C 	0.70582	0.96653	0.40877	0.355
Mof_C 	C 	0.8349	0.91658	0.567	-0.047
Mof_C 	C 	0.67407	0.93853	0.42816	-0.066
Mof_C 	C 	0.6938	0.89349	0.43993	0.013
Mof_H 	H 	0.7274	0.8808	0.4349	0.058
Mof_C 	C 	0.66699	0.86711	0.45826	-0.065
Mof_C 	C 	0.69148	0.82128	0.47131	0.355
Mof_C 	C 	0.79419	0.81913	0.51663	0.36
Mof_C 	C 	0.82559	0.8581	0.53153	-0.058
Mof_C 	C 	0.87493	0.87057	0.52385	-0.064
Mof_H 	H 	0.8898	0.8546	0.5091	0.078
Mof_C 	C 	0.90361	0.90722	0.53806	0.096
Mof_C 	C 	0.88392	0.92941	0.55939	-0.073
Mof_H 	H 	0.9043	0.9538	0.569	0.083
Mof_C 	C 	0.80569	0.88054	0.55337	0.002
Mof_H 	H 	0.7715	0.8711	0.5591	0.061
Mof_N 	N 	0.95752	0.91684	0.53025	-0.118
Mof_C 	C 	0.97374	0.9308	0.50538	0.081
Mof_H 	H 	0.9515	0.9387	0.4913	0.018
Mof_C 	C 	0.61609	0.88381	0.4647	-0.061
Mof_H 	H 	0.5962	0.8661	0.4775	0.071
Mof_C 	C 	0.59585	0.92648	0.45197	0.083
Mof_C 	C 	0.62353	0.95424	0.4341	-0.06
Mof_H 	H 	0.6083	0.9839	0.4259	0.071
Mof_N 	N 	0.54165	0.94322	0.45725	-0.137
Mof_C 	C 	0.52653	0.99211	0.46478	0.007
Mof_H 	H 	0.5489	0.0207	0.4692	0.035
Mof_C 	C 	0.80963	0.94313	0.5899	0.349
Mof_O 	O 	0.83389	0.98126	0.59956	-0.401
Mof_O 	O 	0.76615	0.92518	0.59728	-0.403
Mof_O 	O 	0.68412	0.00538	0.39783	-0.405
Mof_Cu	Cu	0.29832	0.47338	0.87614	0.906
Mof_O 	O 	0.25121	0.45018	0.90465	-0.405
Mof_O 	O 	0.16988	0.30403	0.99114	-0.405
Mof_O 	O 	0.23319	0.30402	0.96126	-0.411
Mof_O 	O 	0.31292	0.30347	0.99605	-0.411
Mof_O 	O 	0.25126	0.30413	0.02633	-0.41
Mof_C 	C 	0.20582	0.46653	0.90877	0.358
Mof_C 	C 	0.3349	0.41658	0.067	-0.053
Mof_C 	C 	0.17407	0.43853	0.92816	-0.072
Mof_C 	C 	0.1938	0.39349	0.93993	0.018
Mof_H 	H 	0.2274	0.3808	0.9349	0.056
Mof_C 	C 	0.16699	0.36711	0.95826	-0.071
Mof_C 	C 	0.19148	0.32128	0.97131	0.357
Mof_C 	C 	0.29419	0.31913	0.01663	0.362
Mof_C 	C 	0.32559	0.3581	0.03153	-0.064
Mof_C 	C 	0.37493	0.37057	0.02385	-0.06
Mof_H 	H 	0.3898	0.3546	0.0091	0.072
Mof_C 	C 	0.40361	0.40722	0.03806	0.087
Mof_C 	C 	0.38392	0.42941	0.05939	-0.069
Mof_H 	H 	0.4043	0.4538	0.069	0.074
Mof_C 	C 	0.30569	0.38054	0.05337	0.005
Mof_H 	H 	0.2715	0.3711	0.0591	0.058
Mof_N 	N 	0.45752	0.41684	0.03025	-0.129
Mof_C 	C 	0.47374	0.4308	0.00538	0.003
Mof_H 	H 	0.4515	0.4387	0.9913	0.037
Mof_C 	C 	0.11609	0.38381	0.9647	-0.055
Mof_H 	H 	0.0962	0.3661	0.9775	0.065
Mof_C 	C 	0.09585	0.42648	0.95197	0.073
Mof_C 	C 	0.12353	0.45424	0.9341	-0.054
Mof_H 	H 	0.1083	0.4839	0.9259	0.066
Mof_N 	N 	0.04165	0.44322	0.95725	-0.121
Mof_C 	C 	0.02653	0.49211	0.96478	-0.068
Mof_H 	H 	0.0489	0.5207	0.9692	0.053
Mof_C 	C 	0.30963	0.44313	0.0899	0.351
Mof_O 	O 	0.33389	0.48126	0.09956	-0.406
Mof_O 	O 	0.26615	0.42518	0.09728	-0.405
Mof_O 	O 	0.18412	0.50538	0.89783	-0.409
Mof_Cu	Cu	0.70168	0.02662	0.87614	0.906
Mof_O 	O 	0.74879	0.04982	0.90465	-0.403
Mof_O 	O 	0.83012	0.19597	0.99114	-0.398
Mof_O 	O 	0.76681	0.19598	0.96126	-0.409
Mof_O 	O 	0.68708	0.19653	0.99605	-0.411
Mof_O 	O 	0.74874	0.19587	0.02633	-0.407
Mof_C 	C 	0.79418	0.03347	0.90877	0.355
Mof_C 	C 	0.6651	0.08342	0.067	-0.052
Mof_C 	C 	0.82593	0.06147	0.92816	-0.063
Mof_C 	C 	0.8062	0.10651	0.93993	0.012
Mof_H 	H 	0.7726	0.1192	0.9349	0.058
Mof_C 	C 	0.83301	0.13289	0.95826	-0.061
Mof_C 	C 	0.80852	0.17872	0.97131	0.355
Mof_C 	C 	0.70581	0.18087	0.01663	0.361
Mof_C 	C 	0.67441	0.1419	0.03153	-0.062
Mof_C 	C 	0.62507	0.12943	0.02385	-0.061
Mof_H 	H 	0.6102	0.1454	0.0091	0.073
Mof_C 	C 	0.59639	0.09278	0.03806	0.088
Mof_C 	C 	0.61608	0.07059	0.05939	-0.07
Mof_H 	H 	0.5957	0.0462	0.069	0.074
Mof_C 	C 	0.69431	0.11946	0.05337	0.004
Mof_H 	H 	0.7285	0.1289	0.0591	0.061
Mof_N 	N 	0.54248	0.08316	0.03025	-0.129
Mof_C 	C 	0.52626	0.0692	0.00538	0.003
Mof_H 	H 	0.5485	0.0613	0.9913	0.037
Mof_C 	C 	0.88391	0.11619	0.9647	-0.062
Mof_H 	H 	0.9038	0.1339	0.9775	0.079
Mof_C 	C 	0.90415	0.07352	0.95197	0.092
Mof_C 	C 	0.87647	0.04576	0.9341	-0.062
Mof_H 	H 	0.8917	0.0161	0.9259	0.077
Mof_N 	N 	0.95835	0.05678	0.95725	-0.125
Mof_C 	C 	0.97347	0.00789	0.96478	0.082
Mof_H 	H 	0.9511	0.9793	0.9692	0.018
Mof_C 	C 	0.69037	0.05687	0.0899	0.35
Mof_O 	O 	0.66611	0.01874	0.09956	-0.405
Mof_O 	O 	0.73385	0.07482	0.09728	-0.403
Mof_O 	O 	0.81588	0.99462	0.89783	-0.402
Mof_Cu	Cu	0.20168	0.52662	0.37614	0.905
Mof_O 	O 	0.24879	0.54982	0.40465	-0.405
Mof_O 	O 	0.33012	0.69597	0.49114	-0.402
Mof_O 	O 	0.26681	0.69598	0.46126	-0.411
Mof_O 	O 	0.18708	0.69653	0.49605	-0.414
Mof_O 	O 	0.24874	0.69587	0.52633	-0.409
Mof_C 	C 	0.29418	0.53347	0.40877	0.357
Mof_C 	C 	0.1651	0.58342	0.567	-0.058
Mof_C 	C 	0.32593	0.56147	0.42816	-0.068
Mof_C 	C 	0.3062	0.60651	0.43993	0.015
Mof_H 	H 	0.2726	0.6192	0.4349	0.056
Mof_C 	C 	0.33301	0.63289	0.45826	-0.067
Mof_C 	C 	0.30852	0.67872	0.47131	0.356
Mof_C 	C 	0.20581	0.68087	0.51663	0.363
Mof_C 	C 	0.17441	0.6419	0.53153	-0.068
Mof_C 	C 	0.12507	0.62943	0.52385	-0.056
Mof_H 	H 	0.1102	0.6454	0.5091	0.068
Mof_C 	C 	0.09639	0.59278	0.53806	0.078
Mof_C 	C 	0.11608	0.57059	0.55939	-0.064
Mof_H 	H 	0.0957	0.5462	0.569	0.068
Mof_C 	C 	0.19431	0.61946	0.55337	0.008
Mof_H 	H 	0.2285	0.6289	0.5591	0.058
Mof_N 	N 	0.04248	0.58316	0.53025	-0.116
Mof_C 	C 	0.02626	0.5692	0.50538	-0.074
Mof_H 	H 	0.0485	0.5613	0.4913	0.056
Mof_C 	C 	0.38391	0.61619	0.4647	-0.06
Mof_H 	H 	0.4038	0.6339	0.4775	0.07
Mof_C 	C 	0.40415	0.57352	0.45197	0.082
Mof_C 	C 	0.37647	0.54576	0.4341	-0.058
Mof_H 	H 	0.3917	0.5161	0.4259	0.071
Mof_N 	N 	0.45835	0.55678	0.45725	-0.137
Mof_C 	C 	0.47347	0.50789	0.46478	0.008
Mof_H 	H 	0.4511	0.4793	0.4692	0.035
Mof_C 	C 	0.19037	0.55687	0.5899	0.352
Mof_O 	O 	0.16611	0.51874	0.59956	-0.409
Mof_O 	O 	0.23385	0.57482	0.59728	-0.405
Mof_O 	O 	0.31588	0.49462	0.39783	-0.406
Mof_Cu	Cu	0.27662	0.45168	0.37386	0.906
Mof_O 	O 	0.29982	0.49879	0.34535	-0.404
Mof_O 	O 	0.44597	0.58012	0.25886	-0.402
Mof_O 	O 	0.44598	0.51681	0.28874	-0.41
Mof_O 	O 	0.44653	0.43708	0.25395	-0.411
Mof_O 	O 	0.44587	0.49874	0.22367	-0.409
Mof_C 	C 	0.28347	0.54418	0.34123	0.357
Mof_C 	C 	0.33342	0.4151	0.183	-0.053
Mof_C 	C 	0.31147	0.57593	0.32184	-0.068
Mof_C 	C 	0.35651	0.5562	0.31007	0.015
Mof_H 	H 	0.3692	0.5226	0.3151	0.057
Mof_C 	C 	0.38289	0.58301	0.29174	-0.067
Mof_C 	C 	0.42872	0.55852	0.27869	0.356
Mof_C 	C 	0.43087	0.45581	0.23337	0.361
Mof_C 	C 	0.3919	0.42441	0.21847	-0.063
Mof_C 	C 	0.37943	0.37507	0.22615	-0.06
Mof_H 	H 	0.3954	0.3602	0.2409	0.073
Mof_C 	C 	0.34278	0.34639	0.21194	0.087
Mof_C 	C 	0.32059	0.36608	0.19061	-0.069
Mof_H 	H 	0.2962	0.3457	0.181	0.073
Mof_C 	C 	0.36946	0.44431	0.19663	0.005
Mof_H 	H 	0.3789	0.4785	0.1909	0.059
Mof_N 	N 	0.33316	0.29248	0.21975	-0.129
Mof_C 	C 	0.3192	0.27626	0.24462	0.003
Mof_H 	H 	0.3113	0.2985	0.2587	0.037
Mof_C 	C 	0.36619	0.63391	0.2853	-0.06
Mof_H 	H 	0.3839	0.6538	0.2725	0.07
Mof_C 	C 	0.32352	0.65415	0.29803	0.082
Mof_C 	C 	0.29576	0.62647	0.3159	-0.058
Mof_H 	H 	0.2661	0.6417	0.3241	0.07
Mof_N 	N 	0.30678	0.70835	0.29275	-0.137
Mof_C 	C 	0.25789	0.72347	0.28522	0.007
Mof_H 	H 	0.2293	0.7011	0.2808	0.033
Mof_C 	C 	0.30687	0.44037	0.1601	0.351
Mof_O 	O 	0.26874	0.41611	0.15044	-0.407
Mof_O 	O 	0.32482	0.48385	0.15272	-0.404
Mof_O 	O 	0.24462	0.56588	0.35217	-0.407
Mof_Cu	Cu	0.77662	0.95168	0.87386	0.907
Mof_O 	O 	0.79982	0.99879	0.84535	-0.401
Mof_O 	O 	0.94597	0.08012	0.75886	-0.384
Mof_O 	O 	0.94598	0.01681	0.78874	-0.392
Mof_O 	O 	0.94653	0.93708	0.75395	-0.393
Mof_O 	O 	0.94587	0.99874	0.72367	-0.39
Mof_C 	C 	0.78347	0.04418	0.84123	0.355
Mof_C 	C 	0.83342	0.9151	0.683	-0.047
Mof_C 	C 	0.81147	0.07593	0.82184	-0.063
Mof_C 	C 	0.85651	0.0562	0.81007	0.011
Mof_H 	H 	0.8692	0.0226	0.8151	0.061
Mof_C 	C 	0.88289	0.08301	0.79174	-0.058
Mof_C 	C 	0.92872	0.05852	0.77869	0.351
Mof_C 	C 	0.93087	0.95581	0.73337	0.357
Mof_C 	C 	0.8919	0.92441	0.71847	-0.054
Mof_C 	C 	0.87943	0.87507	0.72615	-0.064
Mof_H 	H 	0.8954	0.8602	0.7409	0.079
Mof_C 	C 	0.84278	0.84639	0.71194	0.092
Mof_C 	C 	0.82059	0.86608	0.69061	-0.073
Mof_H 	H 	0.7962	0.8457	0.681	0.076
Mof_C 	C 	0.86946	0.94431	0.69663	0.001
Mof_H 	H 	0.8789	0.9785	0.6909	0.064
Mof_N 	N 	0.83316	0.79248	0.71975	-0.129
Mof_C 	C 	0.8192	0.77626	0.74462	0.005
Mof_H 	H 	0.8113	0.7985	0.7587	0.038
Mof_C 	C 	0.86619	0.13391	0.7853	-0.063
Mof_H 	H 	0.8839	0.1538	0.7725	0.076
Mof_C 	C 	0.82352	0.15415	0.79803	0.087
Mof_C 	C 	0.79576	0.12647	0.8159	-0.061
Mof_H 	H 	0.7661	0.1417	0.8241	0.073
Mof_N 	N 	0.80678	0.20835	0.79275	-0.137
Mof_C 	C 	0.75789	0.22347	0.78522	0.008
Mof_H 	H 	0.7293	0.2011	0.7808	0.035
Mof_C 	C 	0.80687	0.94037	0.6601	0.349
Mof_O 	O 	0.76874	0.91611	0.65044	-0.404
Mof_O 	O 	0.82482	0.98385	0.65272	-0.4
Mof_O 	O 	0.74462	0.06588	0.85217	-0.405
Mof_Cu	Cu	0.22338	0.54832	0.87386	0.905
Mof_O 	O 	0.20018	0.50121	0.84535	-0.406
Mof_O 	O 	0.05403	0.41988	0.75886	-0.412
Mof_O 	O 	0.05402	0.48319	0.78874	-0.42
Mof_O 	O 	0.05347	0.56292	0.75395	-0.421
Mof_O 	O 	0.05413	0.50126	0.72367	-0.418
Mof_C 	C 	0.21653	0.45582	0.84123	0.358
Mof_C 	C 	0.16658	0.5849	0.683	-0.057
Mof_C 	C 	0.18853	0.42407	0.82184	-0.071
Mof_C 	C 	0.14349	0.4438	0.81007	0.016
Mof_H 	H 	0.1308	0.4774	0.8151	0.054
Mof_C 	C 	0.11711	0.41699	0.79174	-0.072
Mof_C 	C 	0.07128	0.44148	0.77869	0.357
Mof_C 	C 	0.06913	0.54419	0.73337	0.362
Mof_C 	C 	0.1081	0.57559	0.71847	-0.069
Mof_C 	C 	0.12057	0.62493	0.72615	-0.059
Mof_H 	H 	0.1046	0.6398	0.7409	0.068
Mof_C 	C 	0.15722	0.65361	0.71194	0.083
Mof_C 	C 	0.17941	0.63392	0.69061	-0.068
Mof_H 	H 	0.2038	0.6543	0.681	0.073
Mof_C 	C 	0.13054	0.55569	0.69663	0.007
Mof_H 	H 	0.1211	0.5215	0.6909	0.055
Mof_N 	N 	0.16684	0.70752	0.71975	-0.129
Mof_C 	C 	0.1808	0.72374	0.74462	0.002
Mof_H 	H 	0.1887	0.7015	0.7587	0.036
Mof_C 	C 	0.13381	0.36609	0.7853	-0.058
Mof_H 	H 	0.1161	0.3462	0.7725	0.066
Mof_C 	C 	0.17648	0.34585	0.79803	0.08
Mof_C 	C 	0.20424	0.37353	0.8159	-0.057
Mof_H 	H 	0.2339	0.3583	0.8241	0.071
Mof_N 	N 	0.19322	0.29165	0.79275	-0.137
Mof_C 	C 	0.24211	0.27653	0.78522	0.007
Mof_H 	H 	0.2707	0.2989	0.7808	0.035
Mof_C 	C 	0.19313	0.55963	0.6601	0.351
Mof_O 	O 	0.23126	0.58389	0.65044	-0.406
Mof_O 	O 	0.17518	0.51615	0.65272	-0.407
Mof_O 	O 	0.25538	0.43412	0.85217	-0.407
Mof_Cu	Cu	0.72338	0.04832	0.37386	0.906
Mof_O 	O 	0.70018	0.00121	0.34535	-0.403
Mof_O 	O 	0.55403	0.91988	0.25886	-0.402
Mof_O 	O 	0.55402	0.98319	0.28874	-0.411
Mof_O 	O 	0.55347	0.06292	0.25395	-0.411
Mof_O 	O 	0.55413	0.00126	0.22367	-0.408
Mof_C 	C 	0.71653	0.95582	0.34123	0.355
Mof_C 	C 	0.66658	0.0849	0.183	-0.052
Mof_C 	C 	0.68853	0.92407	0.32184	-0.066
Mof_C 	C 	0.64349	0.9438	0.31007	0.013
Mof_H 	H 	0.6308	0.9774	0.3151	0.057
Mof_C 	C 	0.61711	0.91699	0.29174	-0.066
Mof_C 	C 	0.57128	0.94148	0.27869	0.355
Mof_C 	C 	0.56913	0.04419	0.23337	0.361
Mof_C 	C 	0.6081	0.07559	0.21847	-0.062
Mof_C 	C 	0.62057	0.12493	0.22615	-0.061
Mof_H 	H 	0.6046	0.1398	0.2409	0.073
Mof_C 	C 	0.65722	0.15361	0.21194	0.088
Mof_C 	C 	0.67941	0.13392	0.19061	-0.07
Mof_H 	H 	0.7038	0.1543	0.181	0.075
Mof_C 	C 	0.63054	0.05569	0.19663	0.004
Mof_H 	H 	0.6211	0.0215	0.1909	0.06
Mof_N 	N 	0.66684	0.20752	0.21975	-0.129
Mof_C 	C 	0.6808	0.22374	0.24462	0.004
Mof_H 	H 	0.6887	0.2015	0.2587	0.037
Mof_C 	C 	0.63381	0.86609	0.2853	-0.061
Mof_H 	H 	0.6161	0.8462	0.2725	0.071
Mof_C 	C 	0.67648	0.84585	0.29803	0.084
Mof_C 	C 	0.70424	0.87353	0.3159	-0.06
Mof_H 	H 	0.7339	0.8583	0.3241	0.073
Mof_N 	N 	0.69322	0.79165	0.29275	-0.137
Mof_C 	C 	0.74211	0.77653	0.28522	0.008
Mof_H 	H 	0.7707	0.7989	0.2808	0.036
Mof_C 	C 	0.69313	0.05963	0.1601	0.35
Mof_O 	O 	0.73126	0.08389	0.15044	-0.404
Mof_O 	O 	0.67518	0.01615	0.15272	-0.404
Mof_O 	O 	0.75538	0.93412	0.35217	-0.404
Mof_Cu	Cu	0.70168	0.97338	0.12386	0.906
Mof_O 	O 	0.74879	0.95018	0.09535	-0.403
Mof_O 	O 	0.83012	0.80403	0.00886	-0.398
Mof_O 	O 	0.76681	0.80402	0.03874	-0.409
Mof_O 	O 	0.68708	0.80347	0.00395	-0.411
Mof_O 	O 	0.74874	0.80413	0.97367	-0.407
Mof_C 	C 	0.79418	0.96653	0.09123	0.355
Mof_C 	C 	0.6651	0.91658	0.933	-0.052
Mof_C 	C 	0.82593	0.93853	0.07184	-0.063
Mof_C 	C 	0.8062	0.89349	0.06007	0.012
Mof_H 	H 	0.7726	0.8808	0.0651	0.058
Mof_C 	C 	0.83301	0.86711	0.04174	-0.061
Mof_C 	C 	0.80852	0.82128	0.02869	0.355
Mof_C 	C 	0.70581	0.81913	0.98337	0.361
Mof_C 	C 	0.67441	0.8581	0.96847	-0.062
Mof_C 	C 	0.62507	0.87057	0.97615	-0.061
Mof_H 	H 	0.6102	0.8546	0.9909	0.073
Mof_C 	C 	0.59639	0.90722	0.96194	0.088
Mof_C 	C 	0.61608	0.92941	0.94061	-0.07
Mof_H 	H 	0.5957	0.9538	0.931	0.074
Mof_C 	C 	0.69431	0.88054	0.94663	0.004
Mof_H 	H 	0.7285	0.8711	0.9409	0.061
Mof_N 	N 	0.54248	0.91684	0.96975	-0.129
Mof_C 	C 	0.52626	0.9308	0.99462	0.003
Mof_H 	H 	0.5485	0.9387	0.0087	0.037
Mof_C 	C 	0.88391	0.88381	0.0353	-0.062
Mof_H 	H 	0.9038	0.8661	0.0225	0.079
Mof_C 	C 	0.90415	0.92648	0.04803	0.092
Mof_C 	C 	0.87647	0.95424	0.0659	-0.062
Mof_H 	H 	0.8917	0.9839	0.0741	0.077
Mof_N 	N 	0.95835	0.94322	0.04275	-0.125
Mof_C 	C 	0.97347	0.99211	0.03522	0.082
Mof_H 	H 	0.9511	0.0207	0.0308	0.018
Mof_C 	C 	0.69037	0.94313	0.9101	0.35
Mof_O 	O 	0.66611	0.98126	0.90044	-0.405
Mof_O 	O 	0.73385	0.92518	0.90272	-0.403
Mof_O 	O 	0.81588	0.00538	0.10217	-0.402
Mof_Cu	Cu	0.20168	0.47338	0.62386	0.905
Mof_O 	O 	0.24879	0.45018	0.59535	-0.405
Mof_O 	O 	0.33012	0.30403	0.50886	-0.402
Mof_O 	O 	0.26681	0.30402	0.53874	-0.411
Mof_O 	O 	0.18708	0.30347	0.50395	-0.414
Mof_O 	O 	0.24874	0.30413	0.47367	-0.409
Mof_C 	C 	0.29418	0.46653	0.59123	0.357
Mof_C 	C 	0.1651	0.41658	0.433	-0.058
Mof_C 	C 	0.32593	0.43853	0.57184	-0.068
Mof_C 	C 	0.3062	0.39349	0.56007	0.015
Mof_H 	H 	0.2726	0.3808	0.5651	0.056
Mof_C 	C 	0.33301	0.36711	0.54174	-0.067
Mof_C 	C 	0.30852	0.32128	0.52869	0.356
Mof_C 	C 	0.20581	0.31913	0.48337	0.363
Mof_C 	C 	0.17441	0.3581	0.46847	-0.068
Mof_C 	C 	0.12507	0.37057	0.47615	-0.056
Mof_H 	H 	0.1102	0.3546	0.4909	0.068
Mof_C 	C 	0.09639	0.40722	0.46194	0.078
Mof_C 	C 	0.11608	0.42941	0.44061	-0.064
Mof_H 	H 	0.0957	0.4538	0.431	0.068
Mof_C 	C 	0.19431	0.38054	0.44663	0.008
Mof_H 	H 	0.2285	0.3711	0.4409	0.058
Mof_N 	N 	0.04248	0.41684	0.46975	-0.116
Mof_C 	C 	0.02626	0.4308	0.49462	-0.074
Mof_H 	H 	0.0485	0.4387	0.5087	0.056
Mof_C 	C 	0.38391	0.38381	0.5353	-0.06
Mof_H 	H 	0.4038	0.3661	0.5225	0.07
Mof_C 	C 	0.40415	0.42648	0.54803	0.082
Mof_C 	C 	0.37647	0.45424	0.5659	-0.058
Mof_H 	H 	0.3917	0.4839	0.5741	0.071
Mof_N 	N 	0.45835	0.44322	0.54275	-0.137
Mof_C 	C 	0.47347	0.49211	0.53522	0.008
Mof_H 	H 	0.4511	0.5207	0.5308	0.035
Mof_C 	C 	0.19037	0.44313	0.4101	0.352
Mof_O 	O 	0.16611	0.48126	0.40044	-0.409
Mof_O 	O 	0.23385	0.42518	0.40272	-0.405
Mof_O 	O 	0.31588	0.50538	0.60217	-0.406
Mof_Cu	Cu	0.79832	0.02662	0.62386	0.907
Mof_O 	O 	0.75121	0.04982	0.59535	-0.403
Mof_O 	O 	0.66988	0.19597	0.50886	-0.402
Mof_O 	O 	0.73319	0.19598	0.53874	-0.409
Mof_O 	O 	0.81292	0.19653	0.50395	-0.408
Mof_O 	O 	0.75126	0.19587	0.47367	-0.408
Mof_C 	C 	0.70582	0.03347	0.59123	0.355
Mof_C 	C 	0.8349	0.08342	0.433	-0.047
Mof_C 	C 	0.67407	0.06147	0.57184	-0.066
Mof_C 	C 	0.6938	0.10651	0.56007	0.013
Mof_H 	H 	0.7274	0.1192	0.5651	0.058
Mof_C 	C 	0.66699	0.13289	0.54174	-0.065
Mof_C 	C 	0.69148	0.17872	0.52869	0.355
Mof_C 	C 	0.79419	0.18087	0.48337	0.36
Mof_C 	C 	0.82559	0.1419	0.46847	-0.058
Mof_C 	C 	0.87493	0.12943	0.47615	-0.064
Mof_H 	H 	0.8898	0.1454	0.4909	0.078
Mof_C 	C 	0.90361	0.09278	0.46194	0.096
Mof_C 	C 	0.88392	0.07059	0.44061	-0.073
Mof_H 	H 	0.9043	0.0462	0.431	0.083
Mof_C 	C 	0.80569	0.11946	0.44663	0.002
Mof_H 	H 	0.7715	0.1289	0.4409	0.061
Mof_N 	N 	0.95752	0.08316	0.46975	-0.118
Mof_C 	C 	0.97374	0.0692	0.49462	0.081
Mof_H 	H 	0.9515	0.0613	0.5087	0.018
Mof_C 	C 	0.61609	0.11619	0.5353	-0.061
Mof_H 	H 	0.5962	0.1339	0.5225	0.071
Mof_C 	C 	0.59585	0.07352	0.54803	0.083
Mof_C 	C 	0.62353	0.04576	0.5659	-0.06
Mof_H 	H 	0.6083	0.0161	0.5741	0.071
Mof_N 	N 	0.54165	0.05678	0.54275	-0.137
Mof_C 	C 	0.52653	0.00789	0.53522	0.007
Mof_H 	H 	0.5489	0.9793	0.5308	0.035
Mof_C 	C 	0.80963	0.05687	0.4101	0.349
Mof_O 	O 	0.83389	0.01874	0.40044	-0.401
Mof_O 	O 	0.76615	0.07482	0.40272	-0.403
Mof_O 	O 	0.68412	0.99462	0.60217	-0.405
Mof_Cu	Cu	0.29832	0.52662	0.12386	0.906
Mof_O 	O 	0.25121	0.54982	0.09535	-0.405
Mof_O 	O 	0.16988	0.69597	0.00886	-0.405
Mof_O 	O 	0.23319	0.69598	0.03874	-0.411
Mof_O 	O 	0.31292	0.69653	0.00395	-0.411
Mof_O 	O 	0.25126	0.69587	0.97367	-0.41
Mof_C 	C 	0.20582	0.53347	0.09123	0.358
Mof_C 	C 	0.3349	0.58342	0.933	-0.053
Mof_C 	C 	0.17407	0.56147	0.07184	-0.072
Mof_C 	C 	0.1938	0.60651	0.06007	0.018
Mof_H 	H 	0.2274	0.6192	0.0651	0.056
Mof_C 	C 	0.16699	0.63289	0.04174	-0.071
Mof_C 	C 	0.19148	0.67872	0.02869	0.357
Mof_C 	C 	0.29419	0.68087	0.98337	0.362
Mof_C 	C 	0.32559	0.6419	0.96847	-0.064
Mof_C 	C 	0.37493	0.62943	0.97615	-0.06
Mof_H 	H 	0.3898	0.6454	0.9909	0.072
Mof_C 	C 	0.40361	0.59278	0.96194	0.087
Mof_C 	C 	0.38392	0.57059	0.94061	-0.069
Mof_H 	H 	0.4043	0.5462	0.931	0.074
Mof_C 	C 	0.30569	0.61946	0.94663	0.005
Mof_H 	H 	0.2715	0.6289	0.9409	0.058
Mof_N 	N 	0.45752	0.58316	0.96975	-0.129
Mof_C 	C 	0.47374	0.5692	0.99462	0.003
Mof_H 	H 	0.4515	0.5613	0.0087	0.037
Mof_C 	C 	0.11609	0.61619	0.0353	-0.055
Mof_H 	H 	0.0962	0.6339	0.0225	0.065
Mof_C 	C 	0.09585	0.57352	0.04803	0.073
Mof_C 	C 	0.12353	0.54576	0.0659	-0.054
Mof_H 	H 	0.1083	0.5161	0.0741	0.066
Mof_N 	N 	0.04165	0.55678	0.04275	-0.121
Mof_C 	C 	0.02653	0.50789	0.03522	-0.068
Mof_H 	H 	0.0489	0.4793	0.0308	0.053
Mof_C 	C 	0.30963	0.55687	0.9101	0.351
Mof_O 	O 	0.33389	0.51874	0.90044	-0.406
Mof_O 	O 	0.26615	0.57482	0.90272	-0.405
Mof_O 	O 	0.18412	0.49462	0.10217	-0.409
Mof_Cu	Cu	0.77662	0.54832	0.87386	0.907
Mof_O 	O 	0.79982	0.50121	0.84535	-0.401
Mof_O 	O 	0.94597	0.41988	0.75886	-0.383
Mof_O 	O 	0.94598	0.48319	0.78874	-0.391
Mof_O 	O 	0.94653	0.56292	0.75395	-0.393
Mof_O 	O 	0.94587	0.50126	0.72367	-0.39
Mof_C 	C 	0.78347	0.45582	0.84123	0.356
Mof_C 	C 	0.83342	0.5849	0.683	-0.047
Mof_C 	C 	0.81147	0.42407	0.82184	-0.063
Mof_C 	C 	0.85651	0.4438	0.81007	0.011
Mof_H 	H 	0.8692	0.4774	0.8151	0.061
Mof_C 	C 	0.88289	0.41699	0.79174	-0.058
Mof_C 	C 	0.92872	0.44148	0.77869	0.351
Mof_C 	C 	0.93087	0.54419	0.73337	0.357
Mof_C 	C 	0.8919	0.57559	0.71847	-0.054
Mof_C 	C 	0.87943	0.62493	0.72615	-0.064
Mof_H 	H 	0.8954	0.6398	0.7409	0.079
Mof_C 	C 	0.84278	0.65361	0.71194	0.092
Mof_C 	C 	0.82059	0.63392	0.69061	-0.073
Mof_H 	H 	0.7962	0.6543	0.681	0.076
Mof_C 	C 	0.86946	0.55569	0.69663	0.001
Mof_H 	H 	0.8789	0.5215	0.6909	0.064
Mof_N 	N 	0.83316	0.70752	0.71975	-0.129
Mof_C 	C 	0.8192	0.72374	0.74462	0.005
Mof_H 	H 	0.8113	0.7015	0.7587	0.038
Mof_C 	C 	0.86619	0.36609	0.7853	-0.063
Mof_H 	H 	0.8839	0.3462	0.7725	0.076
Mof_C 	C 	0.82352	0.34585	0.79803	0.087
Mof_C 	C 	0.79576	0.37353	0.8159	-0.061
Mof_H 	H 	0.7661	0.3583	0.8241	0.073
Mof_N 	N 	0.80678	0.29165	0.79275	-0.137
Mof_C 	C 	0.75789	0.27653	0.78522	0.008
Mof_H 	H 	0.7293	0.2989	0.7808	0.035
Mof_C 	C 	0.80687	0.55963	0.6601	0.349
Mof_O 	O 	0.76874	0.58389	0.65044	-0.405
Mof_O 	O 	0.82482	0.51615	0.65272	-0.401
Mof_O 	O 	0.74462	0.43412	0.85217	-0.405
Mof_Cu	Cu	0.27662	0.04832	0.37386	0.906
Mof_O 	O 	0.29982	0.00121	0.34535	-0.403
Mof_O 	O 	0.44597	0.91988	0.25886	-0.402
Mof_O 	O 	0.44598	0.98319	0.28874	-0.411
Mof_O 	O 	0.44653	0.06292	0.25395	-0.411
Mof_O 	O 	0.44587	0.00126	0.22367	-0.408
Mof_C 	C 	0.28347	0.95582	0.34123	0.356
Mof_C 	C 	0.33342	0.0849	0.183	-0.053
Mof_C 	C 	0.31147	0.92407	0.32184	-0.068
Mof_C 	C 	0.35651	0.9438	0.31007	0.014
Mof_H 	H 	0.3692	0.9774	0.3151	0.057
Mof_C 	C 	0.38289	0.91699	0.29174	-0.067
Mof_C 	C 	0.42872	0.94148	0.27869	0.356
Mof_C 	C 	0.43087	0.04419	0.23337	0.361
Mof_C 	C 	0.3919	0.07559	0.21847	-0.063
Mof_C 	C 	0.37943	0.12493	0.22615	-0.06
Mof_H 	H 	0.3954	0.1398	0.2409	0.073
Mof_C 	C 	0.34278	0.15361	0.21194	0.087
Mof_C 	C 	0.32059	0.13392	0.19061	-0.069
Mof_H 	H 	0.2962	0.1543	0.181	0.073
Mof_C 	C 	0.36946	0.05569	0.19663	0.005
Mof_H 	H 	0.3789	0.0215	0.1909	0.059
Mof_N 	N 	0.33316	0.20752	0.21975	-0.129
Mof_C 	C 	0.3192	0.22374	0.24462	0.003
Mof_H 	H 	0.3113	0.2015	0.2587	0.037
Mof_C 	C 	0.36619	0.86609	0.2853	-0.06
Mof_H 	H 	0.3839	0.8462	0.2725	0.07
Mof_C 	C 	0.32352	0.84585	0.29803	0.082
Mof_C 	C 	0.29576	0.87353	0.3159	-0.058
Mof_H 	H 	0.2661	0.8583	0.3241	0.07
Mof_N 	N 	0.30678	0.79165	0.29275	-0.137
Mof_C 	C 	0.25789	0.77653	0.28522	0.007
Mof_H 	H 	0.2293	0.7989	0.2808	0.033
Mof_C 	C 	0.30687	0.05963	0.1601	0.351
Mof_O 	O 	0.26874	0.08389	0.15044	-0.407
Mof_O 	O 	0.32482	0.01615	0.15272	-0.404
Mof_O 	O 	0.24462	0.93412	0.35217	-0.407
Mof_Cu	Cu	0.72338	0.45168	0.37386	0.906
Mof_O 	O 	0.70018	0.49879	0.34535	-0.404
Mof_O 	O 	0.55403	0.58012	0.25886	-0.402
Mof_O 	O 	0.55402	0.51681	0.28874	-0.41
Mof_O 	O 	0.55347	0.43708	0.25395	-0.411
Mof_O 	O 	0.55413	0.49874	0.22367	-0.408
Mof_C 	C 	0.71653	0.54418	0.34123	0.356
Mof_C 	C 	0.66658	0.4151	0.183	-0.052
Mof_C 	C 	0.68853	0.57593	0.32184	-0.066
Mof_C 	C 	0.64349	0.5562	0.31007	0.014
Mof_H 	H 	0.6308	0.5226	0.3151	0.057
Mof_C 	C 	0.61711	0.58301	0.29174	-0.066
Mof_C 	C 	0.57128	0.55852	0.27869	0.355
Mof_C 	C 	0.56913	0.45581	0.23337	0.361
Mof_C 	C 	0.6081	0.42441	0.21847	-0.062
Mof_C 	C 	0.62057	0.37507	0.22615	-0.061
Mof_H 	H 	0.6046	0.3602	0.2409	0.073
Mof_C 	C 	0.65722	0.34639	0.21194	0.088
Mof_C 	C 	0.67941	0.36608	0.19061	-0.07
Mof_H 	H 	0.7038	0.3457	0.181	0.075
Mof_C 	C 	0.63054	0.44431	0.19663	0.004
Mof_H 	H 	0.6211	0.4785	0.1909	0.059
Mof_N 	N 	0.66684	0.29248	0.21975	-0.129
Mof_C 	C 	0.6808	0.27626	0.24462	0.004
Mof_H 	H 	0.6887	0.2985	0.2587	0.037
Mof_C 	C 	0.63381	0.63391	0.2853	-0.061
Mof_H 	H 	0.6161	0.6538	0.2725	0.071
Mof_C 	C 	0.67648	0.65415	0.29803	0.084
Mof_C 	C 	0.70424	0.62647	0.3159	-0.06
Mof_H 	H 	0.7339	0.6417	0.3241	0.073
Mof_N 	N 	0.69322	0.70835	0.29275	-0.137
Mof_C 	C 	0.74211	0.72347	0.28522	0.008
Mof_H 	H 	0.7707	0.7011	0.2808	0.036
Mof_C 	C 	0.69313	0.44037	0.1601	0.35
Mof_O 	O 	0.73126	0.41611	0.15044	-0.404
Mof_O 	O 	0.67518	0.48385	0.15272	-0.404
Mof_O 	O 	0.75538	0.56588	0.35217	-0.404
Mof_Cu	Cu	0.22338	0.95168	0.87386	0.905
Mof_O 	O 	0.20018	0.99879	0.84535	-0.405
Mof_O 	O 	0.05403	0.08012	0.75886	-0.412
Mof_O 	O 	0.05402	0.01681	0.78874	-0.42
Mof_O 	O 	0.05347	0.93708	0.75395	-0.42
Mof_O 	O 	0.05413	0.99874	0.72367	-0.417
Mof_C 	C 	0.21653	0.04418	0.84123	0.356
Mof_C 	C 	0.16658	0.9151	0.683	-0.057
Mof_C 	C 	0.18853	0.07593	0.82184	-0.07
Mof_C 	C 	0.14349	0.0562	0.81007	0.016
Mof_H 	H 	0.1308	0.0226	0.8151	0.054
Mof_C 	C 	0.11711	0.08301	0.79174	-0.072
Mof_C 	C 	0.07128	0.05852	0.77869	0.357
Mof_C 	C 	0.06913	0.95581	0.73337	0.362
Mof_C 	C 	0.1081	0.92441	0.71847	-0.069
Mof_C 	C 	0.12057	0.87507	0.72615	-0.059
Mof_H 	H 	0.1046	0.8602	0.7409	0.068
Mof_C 	C 	0.15722	0.84639	0.71194	0.083
Mof_C 	C 	0.17941	0.86608	0.69061	-0.068
Mof_H 	H 	0.2038	0.8457	0.681	0.073
Mof_C 	C 	0.13054	0.94431	0.69663	0.007
Mof_H 	H 	0.1211	0.9785	0.6909	0.056
Mof_N 	N 	0.16684	0.79248	0.71975	-0.129
Mof_C 	C 	0.1808	0.77626	0.74462	0.002
Mof_H 	H 	0.1887	0.7985	0.7587	0.036
Mof_C 	C 	0.13381	0.13391	0.7853	-0.059
Mof_H 	H 	0.1161	0.1538	0.7725	0.066
Mof_C 	C 	0.17648	0.15415	0.79803	0.08
Mof_C 	C 	0.20424	0.12647	0.8159	-0.058
Mof_H 	H 	0.2339	0.1417	0.8241	0.071
Mof_N 	N 	0.19322	0.20835	0.79275	-0.137
Mof_C 	C 	0.24211	0.22347	0.78522	0.007
Mof_H 	H 	0.2707	0.2011	0.7808	0.035
Mof_C 	C 	0.19313	0.94037	0.6601	0.351
Mof_O 	O 	0.23126	0.91611	0.65044	-0.406
Mof_O 	O 	0.17518	0.98385	0.65272	-0.407
Mof_O 	O 	0.25538	0.06588	0.85217	-0.407
Mof_Cu	Cu	0.20168	0.02662	0.62386	0.905
Mof_O 	O 	0.24879	0.04982	0.59535	-0.405
Mof_O 	O 	0.33012	0.19597	0.50886	-0.402
Mof_O 	O 	0.26681	0.19598	0.53874	-0.411
Mof_O 	O 	0.18708	0.19653	0.50395	-0.414
Mof_O 	O 	0.24874	0.19587	0.47367	-0.409
Mof_C 	C 	0.29418	0.03347	0.59123	0.356
Mof_C 	C 	0.1651	0.08342	0.433	-0.058
Mof_C 	C 	0.32593	0.06147	0.57184	-0.068
Mof_C 	C 	0.3062	0.10651	0.56007	0.015
Mof_H 	H 	0.2726	0.1192	0.5651	0.056
Mof_C 	C 	0.33301	0.13289	0.54174	-0.067
Mof_C 	C 	0.30852	0.17872	0.52869	0.356
Mof_C 	C 	0.20581	0.18087	0.48337	0.363
Mof_C 	C 	0.17441	0.1419	0.46847	-0.068
Mof_C 	C 	0.12507	0.12943	0.47615	-0.056
Mof_H 	H 	0.1102	0.1454	0.4909	0.068
Mof_C 	C 	0.09639	0.09278	0.46194	0.078
Mof_C 	C 	0.11608	0.07059	0.44061	-0.064
Mof_H 	H 	0.0957	0.0462	0.431	0.068
Mof_C 	C 	0.19431	0.11946	0.44663	0.008
Mof_H 	H 	0.2285	0.1289	0.4409	0.058
Mof_N 	N 	0.04248	0.08316	0.46975	-0.116
Mof_C 	C 	0.02626	0.0692	0.49462	-0.073
Mof_H 	H 	0.0485	0.0613	0.5087	0.056
Mof_C 	C 	0.38391	0.11619	0.5353	-0.06
Mof_H 	H 	0.4038	0.1339	0.5225	0.07
Mof_C 	C 	0.40415	0.07352	0.54803	0.082
Mof_C 	C 	0.37647	0.04576	0.5659	-0.059
Mof_H 	H 	0.3917	0.0161	0.5741	0.071
Mof_N 	N 	0.45835	0.05678	0.54275	-0.137
Mof_C 	C 	0.47347	0.00789	0.53522	0.007
Mof_H 	H 	0.4511	0.9793	0.5308	0.035
Mof_C 	C 	0.19037	0.05687	0.4101	0.352
Mof_O 	O 	0.16611	0.01874	0.40044	-0.409
Mof_O 	O 	0.23385	0.07482	0.40272	-0.405
Mof_O 	O 	0.31588	0.99462	0.60217	-0.405
Mof_Cu	Cu	0.70168	0.52662	0.12386	0.906
Mof_O 	O 	0.74879	0.54982	0.09535	-0.403
Mof_O 	O 	0.83012	0.69597	0.00886	-0.398
Mof_O 	O 	0.76681	0.69598	0.03874	-0.409
Mof_O 	O 	0.68708	0.69653	0.00395	-0.411
Mof_O 	O 	0.74874	0.69587	0.97367	-0.407
Mof_C 	C 	0.79418	0.53347	0.09123	0.356
Mof_C 	C 	0.6651	0.58342	0.933	-0.052
Mof_C 	C 	0.82593	0.56147	0.07184	-0.063
Mof_C 	C 	0.8062	0.60651	0.06007	0.012
Mof_H 	H 	0.7726	0.6192	0.0651	0.058
Mof_C 	C 	0.83301	0.63289	0.04174	-0.061
Mof_C 	C 	0.80852	0.67872	0.02869	0.355
Mof_C 	C 	0.70581	0.68087	0.98337	0.361
Mof_C 	C 	0.67441	0.6419	0.96847	-0.062
Mof_C 	C 	0.62507	0.62943	0.97615	-0.061
Mof_H 	H 	0.6102	0.6454	0.9909	0.073
Mof_C 	C 	0.59639	0.59278	0.96194	0.088
Mof_C 	C 	0.61608	0.57059	0.94061	-0.07
Mof_H 	H 	0.5957	0.5462	0.931	0.074
Mof_C 	C 	0.69431	0.61946	0.94663	0.004
Mof_H 	H 	0.7285	0.6289	0.9409	0.061
Mof_N 	N 	0.54248	0.58316	0.96975	-0.129
Mof_C 	C 	0.52626	0.5692	0.99462	0.003
Mof_H 	H 	0.5485	0.5613	0.0087	0.037
Mof_C 	C 	0.88391	0.61619	0.0353	-0.062
Mof_H 	H 	0.9038	0.6339	0.0225	0.079
Mof_C 	C 	0.90415	0.57352	0.04803	0.092
Mof_C 	C 	0.87647	0.54576	0.0659	-0.062
Mof_H 	H 	0.8917	0.5161	0.0741	0.077
Mof_N 	N 	0.95835	0.55678	0.04275	-0.125
Mof_C 	C 	0.97347	0.50789	0.03522	0.084
Mof_H 	H 	0.9511	0.4793	0.0308	0.017
Mof_C 	C 	0.69037	0.55687	0.9101	0.35
Mof_O 	O 	0.66611	0.51874	0.90044	-0.406
Mof_O 	O 	0.73385	0.57482	0.90272	-0.403
Mof_O 	O 	0.81588	0.49462	0.10217	-0.402
Mof_Cu	Cu	0.29832	0.97338	0.12386	0.906
Mof_O 	O 	0.25121	0.95018	0.09535	-0.405
Mof_O 	O 	0.16988	0.80403	0.00886	-0.405
Mof_O 	O 	0.23319	0.80402	0.03874	-0.411
Mof_O 	O 	0.31292	0.80347	0.00395	-0.411
Mof_O 	O 	0.25126	0.80413	0.97367	-0.41
Mof_C 	C 	0.20582	0.96653	0.09123	0.357
Mof_C 	C 	0.3349	0.91658	0.933	-0.053
Mof_C 	C 	0.17407	0.93853	0.07184	-0.072
Mof_C 	C 	0.1938	0.89349	0.06007	0.018
Mof_H 	H 	0.2274	0.8808	0.0651	0.056
Mof_C 	C 	0.16699	0.86711	0.04174	-0.071
Mof_C 	C 	0.19148	0.82128	0.02869	0.357
Mof_C 	C 	0.29419	0.81913	0.98337	0.362
Mof_C 	C 	0.32559	0.8581	0.96847	-0.064
Mof_C 	C 	0.37493	0.87057	0.97615	-0.06
Mof_H 	H 	0.3898	0.8546	0.9909	0.072
Mof_C 	C 	0.40361	0.90722	0.96194	0.087
Mof_C 	C 	0.38392	0.92941	0.94061	-0.069
Mof_H 	H 	0.4043	0.9538	0.931	0.074
Mof_C 	C 	0.30569	0.88054	0.94663	0.005
Mof_H 	H 	0.2715	0.8711	0.9409	0.058
Mof_N 	N 	0.45752	0.91684	0.96975	-0.129
Mof_C 	C 	0.47374	0.9308	0.99462	0.003
Mof_H 	H 	0.4515	0.9387	0.0087	0.037
Mof_C 	C 	0.11609	0.88381	0.0353	-0.055
Mof_H 	H 	0.0962	0.8661	0.0225	0.065
Mof_C 	C 	0.09585	0.92648	0.04803	0.073
Mof_C 	C 	0.12353	0.95424	0.0659	-0.054
Mof_H 	H 	0.1083	0.9839	0.0741	0.066
Mof_N 	N 	0.04165	0.94322	0.04275	-0.121
Mof_C 	C 	0.02653	0.99211	0.03522	-0.067
Mof_H 	H 	0.0489	0.0207	0.0308	0.053
Mof_C 	C 	0.30963	0.94313	0.9101	0.351
Mof_O 	O 	0.33389	0.98126	0.90044	-0.406
Mof_O 	O 	0.26615	0.92518	0.90272	-0.405
Mof_O 	O 	0.18412	0.00538	0.10217	-0.408
Mof_Cu	Cu	0.79832	0.47338	0.62386	0.907
Mof_O 	O 	0.75121	0.45018	0.59535	-0.403
Mof_O 	O 	0.66988	0.30403	0.50886	-0.402
Mof_O 	O 	0.73319	0.30402	0.53874	-0.409
Mof_O 	O 	0.81292	0.30347	0.50395	-0.408
Mof_O 	O 	0.75126	0.30413	0.47367	-0.408
Mof_C 	C 	0.70582	0.46653	0.59123	0.356
Mof_C 	C 	0.8349	0.41658	0.433	-0.047
Mof_C 	C 	0.67407	0.43853	0.57184	-0.067
Mof_C 	C 	0.6938	0.39349	0.56007	0.013
Mof_H 	H 	0.7274	0.3808	0.5651	0.058
Mof_C 	C 	0.66699	0.36711	0.54174	-0.065
Mof_C 	C 	0.69148	0.32128	0.52869	0.355
Mof_C 	C 	0.79419	0.31913	0.48337	0.36
Mof_C 	C 	0.82559	0.3581	0.46847	-0.058
Mof_C 	C 	0.87493	0.37057	0.47615	-0.064
Mof_H 	H 	0.8898	0.3546	0.4909	0.078
Mof_C 	C 	0.90361	0.40722	0.46194	0.096
Mof_C 	C 	0.88392	0.42941	0.44061	-0.073
Mof_H 	H 	0.9043	0.4538	0.431	0.083
Mof_C 	C 	0.80569	0.38054	0.44663	0.002
Mof_H 	H 	0.7715	0.3711	0.4409	0.061
Mof_N 	N 	0.95752	0.41684	0.46975	-0.118
Mof_C 	C 	0.97374	0.4308	0.49462	0.082
Mof_H 	H 	0.9515	0.4387	0.5087	0.018
Mof_C 	C 	0.61609	0.38381	0.5353	-0.061
Mof_H 	H 	0.5962	0.3661	0.5225	0.071
Mof_C 	C 	0.59585	0.42648	0.54803	0.083
Mof_C 	C 	0.62353	0.45424	0.5659	-0.059
Mof_H 	H 	0.6083	0.4839	0.5741	0.072
Mof_N 	N 	0.54165	0.44322	0.54275	-0.137
Mof_C 	C 	0.52653	0.49211	0.53522	0.008
Mof_H 	H 	0.5489	0.5207	0.5308	0.035
Mof_C 	C 	0.80963	0.44313	0.4101	0.349
Mof_O 	O 	0.83389	0.48126	0.40044	-0.401
Mof_O 	O 	0.76615	0.42518	0.40272	-0.403
Mof_O 	O 	0.68412	0.50538	0.60217	-0.406
Mof_Cu	Cu	0.72338	0.54832	0.62614	0.906
Mof_O 	O 	0.70018	0.50121	0.65465	-0.404
Mof_O 	O 	0.55403	0.41988	0.74114	-0.402
Mof_O 	O 	0.55402	0.48319	0.71126	-0.41
Mof_O 	O 	0.55347	0.56292	0.74605	-0.411
Mof_O 	O 	0.55413	0.50126	0.77633	-0.408
Mof_C 	C 	0.71653	0.45582	0.65877	0.356
Mof_C 	C 	0.66658	0.5849	0.817	-0.052
Mof_C 	C 	0.68853	0.42407	0.67816	-0.066
Mof_C 	C 	0.64349	0.4438	0.68993	0.014
Mof_H 	H 	0.6308	0.4774	0.6849	0.057
Mof_C 	C 	0.61711	0.41699	0.70826	-0.066
Mof_C 	C 	0.57128	0.44148	0.72131	0.355
Mof_C 	C 	0.56913	0.54419	0.76663	0.361
Mof_C 	C 	0.6081	0.57559	0.78153	-0.062
Mof_C 	C 	0.62057	0.62493	0.77385	-0.061
Mof_H 	H 	0.6046	0.6398	0.7591	0.073
Mof_C 	C 	0.65722	0.65361	0.78806	0.088
Mof_C 	C 	0.67941	0.63392	0.80939	-0.07
Mof_H 	H 	0.7038	0.6543	0.819	0.075
Mof_C 	C 	0.63054	0.55569	0.80337	0.004
Mof_H 	H 	0.6211	0.5215	0.8091	0.059
Mof_N 	N 	0.66684	0.70752	0.78025	-0.129
Mof_C 	C 	0.6808	0.72374	0.75538	0.004
Mof_H 	H 	0.6887	0.7015	0.7413	0.037
Mof_C 	C 	0.63381	0.36609	0.7147	-0.061
Mof_H 	H 	0.6161	0.3462	0.7275	0.071
Mof_C 	C 	0.67648	0.34585	0.70197	0.084
Mof_C 	C 	0.70424	0.37353	0.6841	-0.06
Mof_H 	H 	0.7339	0.3583	0.6759	0.073
Mof_N 	N 	0.69322	0.29165	0.70725	-0.137
Mof_C 	C 	0.74211	0.27653	0.71478	0.008
Mof_H 	H 	0.7707	0.2989	0.7192	0.036
Mof_C 	C 	0.69313	0.55963	0.8399	0.35
Mof_O 	O 	0.73126	0.58389	0.84956	-0.404
Mof_O 	O 	0.67518	0.51615	0.84728	-0.404
Mof_O 	O 	0.75538	0.43412	0.64783	-0.404
Mof_Cu	Cu	0.22338	0.04832	0.12614	0.905
Mof_O 	O 	0.20018	0.00121	0.15465	-0.405
Mof_O 	O 	0.05403	0.91988	0.24114	-0.412
Mof_O 	O 	0.05402	0.98319	0.21126	-0.42
Mof_O 	O 	0.05347	0.06292	0.24605	-0.42
Mof_O 	O 	0.05413	0.00126	0.27633	-0.417
Mof_C 	C 	0.21653	0.95582	0.15877	0.356
Mof_C 	C 	0.16658	0.0849	0.317	-0.057
Mof_C 	C 	0.18853	0.92407	0.17816	-0.07
Mof_C 	C 	0.14349	0.9438	0.18993	0.016
Mof_H 	H 	0.1308	0.9774	0.1849	0.054
Mof_C 	C 	0.11711	0.91699	0.20826	-0.072
Mof_C 	C 	0.07128	0.94148	0.22131	0.357
Mof_C 	C 	0.06913	0.04419	0.26663	0.362
Mof_C 	C 	0.1081	0.07559	0.28153	-0.069
Mof_C 	C 	0.12057	0.12493	0.27385	-0.059
Mof_H 	H 	0.1046	0.1398	0.2591	0.068
Mof_C 	C 	0.15722	0.15361	0.28806	0.083
Mof_C 	C 	0.17941	0.13392	0.30939	-0.068
Mof_H 	H 	0.2038	0.1543	0.319	0.073
Mof_C 	C 	0.13054	0.05569	0.30337	0.007
Mof_H 	H 	0.1211	0.0215	0.3091	0.056
Mof_N 	N 	0.16684	0.20752	0.28025	-0.129
Mof_C 	C 	0.1808	0.22374	0.25538	0.002
Mof_H 	H 	0.1887	0.2015	0.2413	0.036
Mof_C 	C 	0.13381	0.86609	0.2147	-0.059
Mof_H 	H 	0.1161	0.8462	0.2275	0.066
Mof_C 	C 	0.17648	0.84585	0.20197	0.08
Mof_C 	C 	0.20424	0.87353	0.1841	-0.058
Mof_H 	H 	0.2339	0.8583	0.1759	0.071
Mof_N 	N 	0.19322	0.79165	0.20725	-0.137
Mof_C 	C 	0.24211	0.77653	0.21478	0.007
Mof_H 	H 	0.2707	0.7989	0.2192	0.035
Mof_C 	C 	0.19313	0.05963	0.3399	0.351
Mof_O 	O 	0.23126	0.08389	0.34956	-0.406
Mof_O 	O 	0.17518	0.01615	0.34728	-0.407
Mof_O 	O 	0.25538	0.93412	0.14783	-0.407
Mof_Cu	Cu	0.77662	0.45168	0.12614	0.907
Mof_O 	O 	0.79982	0.49879	0.15465	-0.401
Mof_O 	O 	0.94597	0.58012	0.24114	-0.383
Mof_O 	O 	0.94598	0.51681	0.21126	-0.391
Mof_O 	O 	0.94653	0.43708	0.24605	-0.393
Mof_O 	O 	0.94587	0.49874	0.27633	-0.39
Mof_C 	C 	0.78347	0.54418	0.15877	0.356
Mof_C 	C 	0.83342	0.4151	0.317	-0.047
Mof_C 	C 	0.81147	0.57593	0.17816	-0.063
Mof_C 	C 	0.85651	0.5562	0.18993	0.011
Mof_H 	H 	0.8692	0.5226	0.1849	0.061
Mof_C 	C 	0.88289	0.58301	0.20826	-0.058
Mof_C 	C 	0.92872	0.55852	0.22131	0.351
Mof_C 	C 	0.93087	0.45581	0.26663	0.357
Mof_C 	C 	0.8919	0.42441	0.28153	-0.054
Mof_C 	C 	0.87943	0.37507	0.27385	-0.064
Mof_H 	H 	0.8954	0.3602	0.2591	0.079
Mof_C 	C 	0.84278	0.34639	0.28806	0.092
Mof_C 	C 	0.82059	0.36608	0.30939	-0.073
Mof_H 	H 	0.7962	0.3457	0.319	0.076
Mof_C 	C 	0.86946	0.44431	0.30337	0.001
Mof_H 	H 	0.8789	0.4785	0.3091	0.064
Mof_N 	N 	0.83316	0.29248	0.28025	-0.129
Mof_C 	C 	0.8192	0.27626	0.25538	0.005
Mof_H 	H 	0.8113	0.2985	0.2413	0.038
Mof_C 	C 	0.86619	0.63391	0.2147	-0.063
Mof_H 	H 	0.8839	0.6538	0.2275	0.076
Mof_C 	C 	0.82352	0.65415	0.20197	0.087
Mof_C 	C 	0.79576	0.62647	0.1841	-0.061
Mof_H 	H 	0.7661	0.6417	0.1759	0.073
Mof_N 	N 	0.80678	0.70835	0.20725	-0.137
Mof_C 	C 	0.75789	0.72347	0.21478	0.008
Mof_H 	H 	0.7293	0.7011	0.2192	0.035
Mof_C 	C 	0.80687	0.44037	0.3399	0.349
Mof_O 	O 	0.76874	0.41611	0.34956	-0.405
Mof_O 	O 	0.82482	0.48385	0.34728	-0.401
Mof_O 	O 	0.74462	0.56588	0.14783	-0.405
Mof_Cu	Cu	0.27662	0.95168	0.62614	0.906
Mof_O 	O 	0.29982	0.99879	0.65465	-0.403
Mof_O 	O 	0.44597	0.08012	0.74114	-0.402
Mof_O 	O 	0.44598	0.01681	0.71126	-0.411
Mof_O 	O 	0.44653	0.93708	0.74605	-0.411
Mof_O 	O 	0.44587	0.99874	0.77633	-0.408
Mof_C 	C 	0.28347	0.04418	0.65877	0.356
Mof_C 	C 	0.33342	0.9151	0.817	-0.053
Mof_C 	C 	0.31147	0.07593	0.67816	-0.068
Mof_C 	C 	0.35651	0.0562	0.68993	0.014
Mof_H 	H 	0.3692	0.0226	0.6849	0.057
Mof_C 	C 	0.38289	0.08301	0.70826	-0.067
Mof_C 	C 	0.42872	0.05852	0.72131	0.356
Mof_C 	C 	0.43087	0.95581	0.76663	0.361
Mof_C 	C 	0.3919	0.92441	0.78153	-0.063
Mof_C 	C 	0.37943	0.87507	0.77385	-0.06
Mof_H 	H 	0.3954	0.8602	0.7591	0.073
Mof_C 	C 	0.34278	0.84639	0.78806	0.087
Mof_C 	C 	0.32059	0.86608	0.80939	-0.069
Mof_H 	H 	0.2962	0.8457	0.819	0.073
Mof_C 	C 	0.36946	0.94431	0.80337	0.005
Mof_H 	H 	0.3789	0.9785	0.8091	0.059
Mof_N 	N 	0.33316	0.79248	0.78025	-0.129
Mof_C 	C 	0.3192	0.77626	0.75538	0.003
Mof_H 	H 	0.3113	0.7985	0.7413	0.037
Mof_C 	C 	0.36619	0.13391	0.7147	-0.06
Mof_H 	H 	0.3839	0.1538	0.7275	0.07
Mof_C 	C 	0.32352	0.15415	0.70197	0.082
Mof_C 	C 	0.29576	0.12647	0.6841	-0.058
Mof_H 	H 	0.2661	0.1417	0.6759	0.07
Mof_N 	N 	0.30678	0.20835	0.70725	-0.137
Mof_C 	C 	0.25789	0.22347	0.71478	0.007
Mof_H 	H 	0.2293	0.2011	0.7192	0.033
Mof_C 	C 	0.30687	0.94037	0.8399	0.351
Mof_O 	O 	0.26874	0.91611	0.84956	-0.407
Mof_O 	O 	0.32482	0.98385	0.84728	-0.404
Mof_O 	O 	0.24462	0.06588	0.64783	-0.407
Mof_Cu	Cu	0.29832	0.02662	0.87614	0.906
Mof_O 	O 	0.25121	0.04982	0.90465	-0.405
Mof_O 	O 	0.16988	0.19597	0.99114	-0.405
Mof_O 	O 	0.23319	0.19598	0.96126	-0.411
Mof_O 	O 	0.31292	0.19653	0.99605	-0.411
Mof_O 	O 	0.25126	0.19587	0.02633	-0.41
Mof_C 	C 	0.20582	0.03347	0.90877	0.357
Mof_C 	C 	0.3349	0.08342	0.067	-0.053
Mof_C 	C 	0.17407	0.06147	0.92816	-0.072
Mof_C 	C 	0.1938	0.10651	0.93993	0.018
Mof_H 	H 	0.2274	0.1192	0.9349	0.056
Mof_C 	C 	0.16699	0.13289	0.95826	-0.071
Mof_C 	C 	0.19148	0.17872	0.97131	0.357
Mof_C 	C 	0.29419	0.18087	0.01663	0.362
Mof_C 	C 	0.32559	0.1419	0.03153	-0.064
Mof_C 	C 	0.37493	0.12943	0.02385	-0.06
Mof_H 	H 	0.3898	0.1454	0.0091	0.072
Mof_C 	C 	0.40361	0.09278	0.03806	0.087
Mof_C 	C 	0.38392	0.07059	0.05939	-0.069
Mof_H 	H 	0.4043	0.0462	0.069	0.074
Mof_C 	C 	0.30569	0.11946	0.05337	0.005
Mof_H 	H 	0.2715	0.1289	0.0591	0.058
Mof_N 	N 	0.45752	0.08316	0.03025	-0.129
Mof_C 	C 	0.47374	0.0692	0.00538	0.003
Mof_H 	H 	0.4515	0.0613	0.9913	0.037
Mof_C 	C 	0.11609	0.11619	0.9647	-0.055
Mof_H 	H 	0.0962	0.1339	0.9775	0.065
Mof_C 	C 	0.09585	0.07352	0.95197	0.073
Mof_C 	C 	0.12353	0.04576	0.9341	-0.054
Mof_H 	H 	0.1083	0.0161	0.9259	0.066
Mof_N 	N 	0.04165	0.05678	0.95725	-0.121
Mof_C 	C 	0.02653	0.00789	0.96478	-0.067
Mof_H 	H 	0.0489	0.9793	0.9692	0.053
Mof_C 	C 	0.30963	0.05687	0.0899	0.351
Mof_O 	O 	0.33389	0.01874	0.09956	-0.406
Mof_O 	O 	0.26615	0.07482	0.09728	-0.405
Mof_O 	O 	0.18412	0.99462	0.89783	-0.408
Mof_Cu	Cu	0.79832	0.52662	0.37614	0.907
Mof_O 	O 	0.75121	0.54982	0.40465	-0.403
Mof_O 	O 	0.66988	0.69597	0.49114	-0.402
Mof_O 	O 	0.73319	0.69598	0.46126	-0.409
Mof_O 	O 	0.81292	0.69653	0.49605	-0.408
Mof_O 	O 	0.75126	0.69587	0.52633	-0.408
Mof_C 	C 	0.70582	0.53347	0.40877	0.356
Mof_C 	C 	0.8349	0.58342	0.567	-0.047
Mof_C 	C 	0.67407	0.56147	0.42816	-0.067
Mof_C 	C 	0.6938	0.60651	0.43993	0.013
Mof_H 	H 	0.7274	0.6192	0.4349	0.058
Mof_C 	C 	0.66699	0.63289	0.45826	-0.065
Mof_C 	C 	0.69148	0.67872	0.47131	0.355
Mof_C 	C 	0.79419	0.68087	0.51663	0.36
Mof_C 	C 	0.82559	0.6419	0.53153	-0.058
Mof_C 	C 	0.87493	0.62943	0.52385	-0.064
Mof_H 	H 	0.8898	0.6454	0.5091	0.078
Mof_C 	C 	0.90361	0.59278	0.53806	0.096
Mof_C 	C 	0.88392	0.57059	0.55939	-0.073
Mof_H 	H 	0.9043	0.5462	0.569	0.083
Mof_C 	C 	0.80569	0.61946	0.55337	0.002
Mof_H 	H 	0.7715	0.6289	0.5591	0.061
Mof_N 	N 	0.95752	0.58316	0.53025	-0.118
Mof_C 	C 	0.97374	0.5692	0.50538	0.082
Mof_H 	H 	0.9515	0.5613	0.4913	0.018
Mof_C 	C 	0.61609	0.61619	0.4647	-0.061
Mof_H 	H 	0.5962	0.6339	0.4775	0.071
Mof_C 	C 	0.59585	0.57352	0.45197	0.083
Mof_C 	C 	0.62353	0.54576	0.4341	-0.059
Mof_H 	H 	0.6083	0.5161	0.4259	0.072
Mof_N 	N 	0.54165	0.55678	0.45725	-0.137
Mof_C 	C 	0.52653	0.50789	0.46478	0.008
Mof_H 	H 	0.5489	0.4793	0.4692	0.035
Mof_C 	C 	0.80963	0.55687	0.5899	0.349
Mof_O 	O 	0.83389	0.51874	0.59956	-0.401
Mof_O 	O 	0.76615	0.57482	0.59728	-0.403
Mof_O 	O 	0.68412	0.49462	0.39783	-0.406
Mof_Cu	Cu	0.20168	0.97338	0.37614	0.905
Mof_O 	O 	0.24879	0.95018	0.40465	-0.405
Mof_O 	O 	0.33012	0.80403	0.49114	-0.402
Mof_O 	O 	0.26681	0.80402	0.46126	-0.411
Mof_O 	O 	0.18708	0.80347	0.49605	-0.414
Mof_O 	O 	0.24874	0.80413	0.52633	-0.409
Mof_C 	C 	0.29418	0.96653	0.40877	0.356
Mof_C 	C 	0.1651	0.91658	0.567	-0.058
Mof_C 	C 	0.32593	0.93853	0.42816	-0.068
Mof_C 	C 	0.3062	0.89349	0.43993	0.015
Mof_H 	H 	0.2726	0.8808	0.4349	0.056
Mof_C 	C 	0.33301	0.86711	0.45826	-0.067
Mof_C 	C 	0.30852	0.82128	0.47131	0.356
Mof_C 	C 	0.20581	0.81913	0.51663	0.363
Mof_C 	C 	0.17441	0.8581	0.53153	-0.068
Mof_C 	C 	0.12507	0.87057	0.52385	-0.056
Mof_H 	H 	0.1102	0.8546	0.5091	0.068
Mof_C 	C 	0.09639	0.90722	0.53806	0.078
Mof_C 	C 	0.11608	0.92941	0.55939	-0.064
Mof_H 	H 	0.0957	0.9538	0.569	0.068
Mof_C 	C 	0.19431	0.88054	0.55337	0.008
Mof_H 	H 	0.2285	0.8711	0.5591	0.058
Mof_N 	N 	0.04248	0.91684	0.53025	-0.116
Mof_C 	C 	0.02626	0.9308	0.50538	-0.073
Mof_H 	H 	0.0485	0.9387	0.4913	0.056
Mof_C 	C 	0.38391	0.88381	0.4647	-0.06
Mof_H 	H 	0.4038	0.8661	0.4775	0.07
Mof_C 	C 	0.40415	0.92648	0.45197	0.082
Mof_C 	C 	0.37647	0.95424	0.4341	-0.059
Mof_H 	H 	0.3917	0.9839	0.4259	0.071
Mof_N 	N 	0.45835	0.94322	0.45725	-0.137
Mof_C 	C 	0.47347	0.99211	0.46478	0.007
Mof_H 	H 	0.4511	0.0207	0.4692	0.035
Mof_C 	C 	0.19037	0.94313	0.5899	0.352
Mof_O 	O 	0.16611	0.98126	0.59956	-0.409
Mof_O 	O 	0.23385	0.92518	0.59728	-0.405
Mof_O 	O 	0.31588	0.00538	0.39783	-0.405
Mof_Cu	Cu	0.70168	0.47338	0.87614	0.906
Mof_O 	O 	0.74879	0.45018	0.90465	-0.403
Mof_O 	O 	0.83012	0.30403	0.99114	-0.398
Mof_O 	O 	0.76681	0.30402	0.96126	-0.409
Mof_O 	O 	0.68708	0.30347	0.99605	-0.411
Mof_O 	O 	0.74874	0.30413	0.02633	-0.407
Mof_C 	C 	0.79418	0.46653	0.90877	0.356
Mof_C 	C 	0.6651	0.41658	0.067	-0.052
Mof_C 	C 	0.82593	0.43853	0.92816	-0.063
Mof_C 	C 	0.8062	0.39349	0.93993	0.012
Mof_H 	H 	0.7726	0.3808	0.9349	0.058
Mof_C 	C 	0.83301	0.36711	0.95826	-0.061
Mof_C 	C 	0.80852	0.32128	0.97131	0.355
Mof_C 	C 	0.70581	0.31913	0.01663	0.361
Mof_C 	C 	0.67441	0.3581	0.03153	-0.062
Mof_C 	C 	0.62507	0.37057	0.02385	-0.061
Mof_H 	H 	0.6102	0.3546	0.0091	0.073
Mof_C 	C 	0.59639	0.40722	0.03806	0.088
Mof_C 	C 	0.61608	0.42941	0.05939	-0.07
Mof_H 	H 	0.5957	0.4538	0.069	0.074
Mof_C 	C 	0.69431	0.38054	0.05337	0.004
Mof_H 	H 	0.7285	0.3711	0.0591	0.061
Mof_N 	N 	0.54248	0.41684	0.03025	-0.129
Mof_C 	C 	0.52626	0.4308	0.00538	0.003
Mof_H 	H 	0.5485	0.4387	0.9913	0.037
Mof_C 	C 	0.88391	0.38381	0.9647	-0.062
Mof_H 	H 	0.9038	0.3661	0.9775	0.079
Mof_C 	C 	0.90415	0.42648	0.95197	0.092
Mof_C 	C 	0.87647	0.45424	0.9341	-0.062
Mof_H 	H 	0.8917	0.4839	0.9259	0.077
Mof_N 	N 	0.95835	0.44322	0.95725	-0.125
Mof_C 	C 	0.97347	0.49211	0.96478	0.084
Mof_H 	H 	0.9511	0.5207	0.9692	0.017
Mof_C 	C 	0.69037	0.44313	0.0899	0.35
Mof_O 	O 	0.66611	0.48126	0.09956	-0.406
Mof_O 	O 	0.73385	0.42518	0.09728	-0.403
Mof_O 	O 	0.81588	0.50538	0.89783	-0.402
Mof_Cu	Cu	2.01512e-33	0.54479	0.26183	0.889
Mof_Cu	Cu	1.73444e-33	0.47153	0.22536	0.893
Mof_Cu	Cu	0.5	0.04479	0.76183	0.905
Mof_Cu	Cu	0.5	0.97153	0.72536	0.911
Mof_Cu	Cu	0.5	0.45521	0.76183	0.905
Mof_Cu	Cu	0.5	0.52847	0.72536	0.91
Mof_Cu	Cu	1.40059e-32	0.95521	0.26183	0.888
Mof_Cu	Cu	1.73444e-33	0.02847	0.22536	0.894
Mof_Cu	Cu	0.70521	0.75	0.51183	0.905
Mof_Cu	Cu	0.77847	0.75	0.47536	0.911
Mof_Cu	Cu	0.79479	0.25	0.01183	0.907
Mof_Cu	Cu	0.72153	0.25	0.97536	0.91
Mof_Cu	Cu	0.5	0.54479	0.23817	0.905
Mof_Cu	Cu	0.5	0.47153	0.27464	0.91
Mof_Cu	Cu	-6.30963e-33	0.04479	0.73817	0.888
Mof_Cu	Cu	-6.02895e-33	0.97153	0.77464	0.894
Mof_Cu	Cu	1.7672e-32	0.45521	0.73817	0.889
Mof_Cu	Cu	-6.02895e-33	0.52847	0.77464	0.893
Mof_Cu	Cu	0.5	0.95521	0.23817	0.905
Mof_Cu	Cu	0.5	0.02847	0.27464	0.911
Mof_Cu	Cu	0.79479	0.75	0.98817	0.907
Mof_Cu	Cu	0.72153	0.75	0.02464	0.91
Mof_Cu	Cu	0.70521	0.25	0.48817	0.905
Mof_Cu	Cu	0.77847	0.25	0.52464	0.911
Mof_Cu	Cu	0.29479	0.25	0.48817	0.905
Mof_Cu	Cu	0.22153	0.25	0.52464	0.909
Mof_Cu	Cu	0.20521	0.75	0.98817	0.904
Mof_Cu	Cu	0.27847	0.75	0.02464	0.91
Mof_Cu	Cu	0.20521	0.25	0.01183	0.904
Mof_Cu	Cu	0.27847	0.25	0.97536	0.91
Mof_Cu	Cu	0.29479	0.75	0.51183	0.905
Mof_Cu	Cu	0.22153	0.75	0.47536	0.909
Mof_C 	C 	0.156	0.25	0.29551	0.078
Mof_H 	H 	0.1438	0.25	0.3127	0.012
Mof_C 	C 	0.344	0.75	0.79551	0.08
Mof_H 	H 	0.3562	0.75	0.8127	0.014
Mof_C 	C 	-7.7924e-33	0.906	0.54551	0.039
Mof_H 	H 	1.63215e-32	0.8938	0.5627	0.016
Mof_C 	C 	0.5	0.406	0.04551	0.081
Mof_H 	H 	0.5	0.3938	0.0627	0.014
Mof_C 	C 	0.5	0.094	0.04551	0.081
Mof_H 	H 	0.5	0.1062	0.0627	0.014
Mof_C 	C 	-7.7924e-33	0.594	0.54551	0.039
Mof_H 	H 	2.83123e-32	0.6062	0.5627	0.016
Mof_C 	C 	0.344	0.25	0.20449	0.08
Mof_H 	H 	0.3562	0.25	0.1873	0.014
Mof_C 	C 	0.156	0.75	0.70449	0.078
Mof_H 	H 	0.1438	0.75	0.6873	0.012
Mof_C 	C 	0.656	0.25	0.20449	0.081
Mof_H 	H 	0.6438	0.25	0.1873	0.014
Mof_C 	C 	0.5	0.906	0.95449	0.081
Mof_H 	H 	0.5	0.8938	0.9373	0.014
Mof_C 	C 	1.54887e-32	0.406	0.45449	0.039
Mof_H 	H 	-8.62522e-33	0.3938	0.4373	0.016
Mof_C 	C 	-8.49292e-33	0.094	0.45449	0.039
Mof_H 	H 	-8.62522e-33	0.1062	0.4373	0.016
Mof_C 	C 	0.5	0.594	0.95449	0.081
Mof_H 	H 	0.5	0.6062	0.9373	0.014
Mof_C 	C 	0.844	0.75	0.70449	0.083
Mof_H 	H 	0.8562	0.75	0.6873	0.017
Mof_C 	C 	0.656	0.75	0.79551	0.081
Mof_H 	H 	0.6438	0.75	0.8127	0.014
Mof_C 	C 	0.844	0.25	0.29551	0.083
Mof_H 	H 	0.8562	0.25	0.3127	0.017
Mof_C 	C 	0.1649	0.75	0.20184	0.103
Mof_H 	H 	0.1301	0.75	0.1952	0.003
Mof_C 	C 	0.3351	0.25	0.70184	0.103
Mof_H 	H 	0.3699	0.25	0.6952	0.007
Mof_C 	C 	0.5	0.9149	0.45184	0.104
Mof_H 	H 	0.5	0.8801	0.4452	0.007
Mof_C 	C 	-1.6656e-32	0.4149	0.95184	0.057
Mof_H 	H 	3.12562e-32	0.3801	0.9452	0.01
Mof_C 	C 	7.32565e-33	0.0851	0.95184	0.058
Mof_H 	H 	7.27455e-33	0.1199	0.9452	0.01
Mof_C 	C 	0.5	0.5851	0.45184	0.104
Mof_H 	H 	0.5	0.6199	0.4452	0.007
Mof_C 	C 	0.3351	0.75	0.29816	0.103
Mof_H 	H 	0.3699	0.75	0.3048	0.007
Mof_C 	C 	0.1649	0.25	0.79816	0.103
Mof_H 	H 	0.1301	0.25	0.8048	0.003
Mof_C 	C 	1.31109e-32	0.9149	0.04816	0.058
Mof_H 	H 	-1.07709e-33	0.8801	0.0548	0.01
Mof_C 	C 	0.5	0.4149	0.54816	0.104
Mof_H 	H 	0.5	0.3801	0.5548	0.007
Mof_C 	C 	0.5	0.0851	0.54816	0.104
Mof_H 	H 	0.5	0.1199	0.5548	0.007
Mof_C 	C 	1.12008e-33	0.5851	0.04816	0.057
Mof_H 	H 	4.91831e-33	0.6199	0.0548	0.01
Mof_C 	C 	0.8351	0.25	0.79816	0.105
Mof_H 	H 	0.8699	0.25	0.8048	0.012
Mof_C 	C 	0.6649	0.75	0.29816	0.104
Mof_H 	H 	0.6301	0.75	0.3048	0.007
Mof_C 	C 	0.6649	0.25	0.70184	0.104
Mof_H 	H 	0.6301	0.25	0.6952	0.007
Mof_C 	C 	0.8351	0.75	0.20184	0.105
Mof_H 	H 	0.8699	0.75	0.1952	0.012
_end
