data_functionalizedCrystal
_audit_creation_method	'EQeq! by Chris Wilmer'
_symmetry_space_group_name_H-M	'P1'
_symmetry_Int_Tables_number	1
_symmetry_cell_setting	triclinic
loop_
_symmetry_equiv_pos_as_xyz
  x,y,z
_cell_length_a	17.5238
_cell_length_b	21.4858
_cell_length_c	22.2555
_cell_angle_alpha	106.51
_cell_angle_beta	105.257
_cell_angle_gamma	105.879
loop_
_atom_site_label
_atom_site_type_symbol
_atom_site_fract_x
_atom_site_fract_y
_atom_site_fract_z
_atom_site_charge
Mof_U 	U 	0.97026	0.41888	0.0154	-0.006
Mof_U 	U 	0.88931	0.39834	0.8244	-0.01
Mof_O 	O 	0.8789	0.29179	0.98268	-0.184
Mof_O 	O 	0.8834	0.32603	0.89988	-0.17
Mof_O 	O 	0.8693	0.5063	0.8252	-0.196
Mof_O 	O 	0.9908	0.5977	0.8814	-0.184
Mof_N 	N 	0.59	0.0904	0.6554	-0.236
Mof_H 	H 	0.5654	0.0572	0.6684	0.16
Mof_H 	H 	0.6415	0.0902	0.658	0.164
Mof_C 	C 	0.9132	0.5694	0.8431	0.255
Mof_C 	C 	0.5991	0.1597	0.7012	-0.171
Mof_H 	H 	0.5431	0.1625	0.6924	0.114
Mof_H 	H 	0.6341	0.1962	0.6915	0.115
Mof_O 	O 	0.9433	0.2191	0.7813	-0.244
Mof_C 	C 	0.9173	0.6847	0.836	-0.137
Mof_H 	H 	0.974	0.7045	0.8653	0.114
Mof_C 	C 	0.7069	0.2009	0.9114	-0.124
Mof_H 	H 	0.7292	0.2112	0.9574	0.096
Mof_N 	N 	0.9866	0.3851	0.5632	-0.242
Mof_H 	H 	0.0294	0.3753	0.5538	0.166
Mof_H 	H 	0.0068	0.4139	0.6063	0.166
Mof_C 	C 	0.6382	0.1726	0.7739	0.154
Mof_N 	N 	0.9331	0.8442	0.8986	-0.239
Mof_H 	H 	0.9583	0.8299	0.9295	0.164
Mof_H 	H 	0.8796	0.8354	0.8964	0.168
Mof_C 	C 	0.7581	0.2307	0.8798	0.045
Mof_C 	C 	0.7484	0.6264	0.7525	0.066
Mof_H 	H 	0.6913	0.6067	0.7238	0.016
Mof_C 	C 	0.8453	0.2849	0.9223	0.233
Mof_C 	C 	0.9266	0.2871	0.6514	-0.117
Mof_H 	H 	0.893	0.3124	0.6613	0.105
Mof_C 	C 	0.9488	0.2833	0.5958	0.12
Mof_C 	C 	0.723	0.2154	0.8116	-0.162
Mof_H 	H 	0.757	0.2342	0.7904	0.128
Mof_C 	C 	0.9315	0.803	0.8335	-0.141
Mof_H 	H 	0.9894	0.8093	0.8361	0.099
Mof_H 	H 	0.9065	0.8194	0.7997	0.099
Mof_C 	C 	0.8717	0.6141	0.8166	0.035
Mof_C 	C 	0.6239	0.1567	0.8736	0.085
Mof_H 	H 	0.5905	0.1358	0.8941	0.013
Mof_C 	C 	0.787	0.5853	0.7745	-0.107
Mof_H 	H 	0.7559	0.5378	0.761	0.084
Mof_C 	C 	0.8802	0.7263	0.8127	0.13
Mof_C 	C 	0.7938	0.6964	0.7725	-0.155
Mof_H 	H 	0.7665	0.7244	0.7591	0.104
Mof_C 	C 	0.9182	0.3195	0.5518	-0.139
Mof_H 	H 	0.8972	0.2882	0.5049	0.098
Mof_H 	H 	0.8711	0.3304	0.5607	0.095
Mof_C 	C 	0.9537	0.2536	0.6928	0.011
Mof_C 	C 	0.9256	0.2542	0.7504	0.282
Mof_C 	C 	0.5376	0.0744	0.5842	-0.031
Mof_H 	H 	0.4814	0.0739	0.5819	0.067
Mof_H 	H 	0.5637	0.1118	0.5711	0.07
Mof_C 	C 	0.9524	0.4198	0.5194	-0.031
Mof_H 	H 	0.9089	0.4334	0.5323	0.068
Mof_H 	H 	0.9255	0.3863	0.473	0.068
Mof_C 	C 	0.0026	0.2477	0.5835	-0.143
Mof_H 	H 	0.0202	0.2464	0.5474	0.103
Mof_C 	C 	0.5278	0.007	0.5353	-0.116
Mof_H 	H 	0.5026	0.9693	0.5485	0.082
Mof_H 	H 	0.5836	0.0076	0.5361	0.083
Mof_C 	C 	0.9778	0.9208	0.9214	-0.038
Mof_H 	H 	0.9503	0.9368	0.8882	0.072
Mof_H 	H 	0.0363	0.9307	0.924	0.074
Mof_C 	C 	0.5892	0.1426	0.8057	-0.178
Mof_H 	H 	0.5324	0.1128	0.781	0.12
Mof_C 	C 	0.978	0.9608	0.989	-0.116
Mof_H 	H 	0.0068	0.9457	0.0224	0.083
Mof_H 	H 	0.9196	0.9501	0.9866	0.082
Mof_C 	C 	0.0298	0.214	0.6252	0.044
Mof_H 	H 	0.064	0.1891	0.6159	0.017
Mof_C 	C 	0.0066	0.2177	0.6795	-0.093
Mof_H 	H 	0.026	0.1962	0.7078	0.072
Mof_C 	C 	0.0188	0.4832	0.523	-0.118
Mof_H 	H 	0.0626	0.47	0.5102	0.083
Mof_H 	H 	0.0455	0.5171	0.5692	0.083
Mof_O 	O 	0.9497	0.46498	0.93398	-0.063
Mof_O 	O 	0.879	0.2893	0.76232	-0.194
Mof_U 	U 	0.02974	0.58112	0.9846	-0.005
Mof_U 	U 	0.11069	0.60166	0.1756	-0.009
Mof_O 	O 	0.1211	0.70821	0.01732	-0.183
Mof_O 	O 	0.1166	0.67397	0.10012	-0.169
Mof_O 	O 	0.1307	0.4937	0.1748	-0.195
Mof_O 	O 	0.0092	0.4023	0.1186	-0.183
Mof_N 	N 	0.41	0.9096	0.3446	-0.236
Mof_H 	H 	0.4346	0.9428	0.3316	0.16
Mof_H 	H 	0.3585	0.9098	0.342	0.164
Mof_C 	C 	0.0868	0.4306	0.1569	0.255
Mof_C 	C 	0.4009	0.8403	0.2988	-0.171
Mof_H 	H 	0.4569	0.8375	0.3076	0.114
Mof_H 	H 	0.3659	0.8038	0.3085	0.115
Mof_O 	O 	0.0567	0.7809	0.2187	-0.244
Mof_C 	C 	0.0827	0.3153	0.164	-0.137
Mof_H 	H 	0.026	0.2955	0.1347	0.114
Mof_C 	C 	0.2931	0.7991	0.0886	-0.124
Mof_H 	H 	0.2708	0.7888	0.0426	0.096
Mof_N 	N 	0.0134	0.6149	0.4368	-0.242
Mof_H 	H 	0.9706	0.6247	0.4462	0.166
Mof_H 	H 	0.9932	0.5861	0.3937	0.166
Mof_C 	C 	0.3618	0.8274	0.2261	0.154
Mof_N 	N 	0.0669	0.1558	0.1014	-0.239
Mof_H 	H 	0.0417	0.1701	0.0705	0.164
Mof_H 	H 	0.1204	0.1646	0.1036	0.168
Mof_C 	C 	0.2419	0.7693	0.1202	0.045
Mof_C 	C 	0.2516	0.3736	0.2475	0.066
Mof_H 	H 	0.3087	0.3933	0.2762	0.016
Mof_C 	C 	0.1547	0.7151	0.0777	0.233
Mof_C 	C 	0.0734	0.7129	0.3486	-0.117
Mof_H 	H 	0.107	0.6876	0.3387	0.105
Mof_C 	C 	0.0512	0.7167	0.4042	0.12
Mof_C 	C 	0.277	0.7846	0.1884	-0.162
Mof_H 	H 	0.243	0.7658	0.2096	0.128
Mof_C 	C 	0.0685	0.197	0.1665	-0.141
Mof_H 	H 	0.0106	0.1907	0.1639	0.099
Mof_H 	H 	0.0935	0.1806	0.2003	0.099
Mof_C 	C 	0.1283	0.3859	0.1834	0.035
Mof_C 	C 	0.3761	0.8433	0.1264	0.085
Mof_H 	H 	0.4095	0.8642	0.1059	0.013
Mof_C 	C 	0.213	0.4147	0.2255	-0.107
Mof_H 	H 	0.2441	0.4622	0.239	0.084
Mof_C 	C 	0.1198	0.2737	0.1873	0.13
Mof_C 	C 	0.2062	0.3036	0.2275	-0.155
Mof_H 	H 	0.2335	0.2756	0.2409	0.104
Mof_C 	C 	0.0818	0.6805	0.4482	-0.139
Mof_H 	H 	0.1028	0.7118	0.4951	0.098
Mof_H 	H 	0.1289	0.6696	0.4393	0.095
Mof_C 	C 	0.0463	0.7464	0.3072	0.011
Mof_C 	C 	0.0744	0.7458	0.2496	0.282
Mof_C 	C 	0.4624	0.9256	0.4158	-0.031
Mof_H 	H 	0.5186	0.9261	0.4181	0.067
Mof_H 	H 	0.4363	0.8882	0.4289	0.07
Mof_C 	C 	0.0476	0.5802	0.4806	-0.031
Mof_H 	H 	0.0911	0.5666	0.4677	0.068
Mof_H 	H 	0.0745	0.6137	0.527	0.068
Mof_C 	C 	0.9974	0.7523	0.4165	-0.143
Mof_H 	H 	0.9798	0.7536	0.4526	0.103
Mof_C 	C 	0.4722	0.993	0.4647	-0.116
Mof_H 	H 	0.4974	0.0307	0.4515	0.082
Mof_H 	H 	0.4164	0.9924	0.4639	0.083
Mof_C 	C 	0.0222	0.0792	0.0786	-0.038
Mof_H 	H 	0.0497	0.0632	0.1118	0.072
Mof_H 	H 	0.9637	0.0693	0.076	0.074
Mof_C 	C 	0.4108	0.8574	0.1943	-0.178
Mof_H 	H 	0.4676	0.8872	0.219	0.12
Mof_C 	C 	0.022	0.0392	0.011	-0.116
Mof_H 	H 	0.9932	0.0543	0.9776	0.083
Mof_H 	H 	0.0804	0.0499	0.0134	0.082
Mof_C 	C 	0.9702	0.786	0.3748	0.044
Mof_H 	H 	0.936	0.8109	0.3841	0.017
Mof_C 	C 	0.9934	0.7823	0.3205	-0.093
Mof_H 	H 	0.974	0.8038	0.2922	0.072
Mof_C 	C 	0.9812	0.5168	0.477	-0.118
Mof_H 	H 	0.9374	0.53	0.4898	0.083
Mof_H 	H 	0.9545	0.4829	0.4308	0.083
Mof_O 	O 	0.0503	0.53502	0.06602	-0.063
Mof_O 	O 	0.121	0.7107	0.23768	-0.194
Mof_O 	O 	0.497	0.7238	0.0964	-0.21
Mof_O 	O 	0.4691	0.488	0.1896	-0.205
Mof_N 	N 	0.3966	0.5593	0.1705	-0.144
Mof_O 	O 	0.6526	0.4955	0.1954	-0.209
Mof_O 	O 	0.3029	0.3739	0.0459	-0.205
Mof_N 	N 	0.7715	0.598	0.0383	-0.142
Mof_N 	N 	0.7642	0.5042	0.0793	-0.143
Mof_N 	N 	0.2958	0.5717	0.0263	-0.14
Mof_O 	O 	0.6839	0.7302	0.0988	-0.219
Mof_N 	N 	0.6797	0.6141	0.238	-0.149
Mof_N 	N 	0.28	0.4777	0.0669	-0.139
Mof_C 	C 	0.2369	0.5114	0.0289	0.057
Mof_H 	H 	0.1931	0.5224	0.0446	0.053
Mof_N 	N 	0.4092	0.6561	0.1321	-0.148
Mof_C 	C 	0.8013	0.5429	0.0438	0.064
Mof_H 	H 	0.8638	0.5598	0.0621	0.045
Mof_N 	N 	0.546	0.7078	0.1954	-0.149
Mof_N 	N 	0.7513	0.5764	0.1787	-0.146
Mof_N 	N 	0.6829	0.7045	0.1924	-0.145
Mof_C 	C 	0.7916	0.5303	0.1516	0.037
Mof_H 	H 	0.853	0.5555	0.1709	0.049
Mof_H 	H 	0.7792	0.4909	0.1653	0.059
Mof_C 	C 	0.3301	0.6408	0.0796	0.035
Mof_H 	H 	0.3389	0.6756	0.0597	0.058
Mof_H 	H 	0.288	0.6451	0.0997	0.048
Mof_N 	N 	0.7673	0.6738	0.141	-0.147
Mof_C 	C 	0.4146	0.6335	0.1883	0.06
Mof_H 	H 	0.3815	0.6497	0.2141	0.033
Mof_N 	N 	0.536	0.6084	0.229	-0.146
Mof_C 	C 	0.8061	0.6662	0.0912	0.039
Mof_H 	H 	0.8007	0.7	0.0709	0.053
Mof_H 	H 	0.8666	0.678	0.1139	0.042
Mof_C 	C 	0.2733	0.4135	0.0271	0.275
Mof_C 	C 	0.7311	0.6763	0.2343	0.062
Mof_H 	H 	0.7668	0.7122	0.2794	0.022
Mof_C 	C 	0.4672	0.5461	0.1953	0.268
Mof_C 	C 	0.691	0.5562	0.2028	0.277
Mof_C 	C 	0.3125	0.5037	0.1395	0.029
Mof_H 	H 	0.3152	0.4653	0.1535	0.058
Mof_H 	H 	0.2731	0.5211	0.1556	0.053
Mof_C 	C 	0.7853	0.6521	0.1971	0.059
Mof_H 	H 	0.8461	0.6736	0.2256	0.029
Mof_C 	C 	0.4847	0.6979	0.1371	0.279
Mof_C 	C 	0.5123	0.6673	0.2303	0.063
Mof_H 	H 	0.5241	0.6974	0.2767	0.035
Mof_C 	C 	0.6346	0.7457	0.2136	0.045
Mof_H 	H 	0.6602	0.7695	0.2623	0.034
Mof_H 	H 	0.6405	0.7814	0.1946	0.048
Mof_C 	C 	0.7087	0.7054	0.1393	0.269
Mof_C 	C 	0.6172	0.6109	0.2701	0.042
Mof_H 	H 	0.6071	0.5697	0.2813	0.044
Mof_H 	H 	0.6408	0.6517	0.312	0.032
Mof_O 	O 	0.6777	0.3919	0.0571	-0.206
Mof_C 	C 	0.7111	0.4371	0.0382	0.276
Mof_O 	O 	0.503	0.2762	0.9036	-0.21
Mof_O 	O 	0.5309	0.512	0.8104	-0.205
Mof_N 	N 	0.6034	0.4407	0.8295	-0.144
Mof_O 	O 	0.3474	0.5045	0.8046	-0.209
Mof_O 	O 	0.6971	0.6261	0.9541	-0.205
Mof_N 	N 	0.2285	0.402	0.9617	-0.142
Mof_N 	N 	0.2358	0.4958	0.9207	-0.143
Mof_N 	N 	0.7042	0.4283	0.9737	-0.14
Mof_O 	O 	0.3161	0.2698	0.9012	-0.219
Mof_N 	N 	0.3203	0.3859	0.762	-0.149
Mof_N 	N 	0.72	0.5223	0.9331	-0.139
Mof_C 	C 	0.7631	0.4886	0.9711	0.057
Mof_H 	H 	0.8069	0.4776	0.9554	0.053
Mof_N 	N 	0.5908	0.3439	0.8679	-0.148
Mof_C 	C 	0.1987	0.4571	0.9562	0.064
Mof_H 	H 	0.1362	0.4402	0.9379	0.045
Mof_N 	N 	0.454	0.2922	0.8046	-0.149
Mof_N 	N 	0.2487	0.4236	0.8213	-0.146
Mof_N 	N 	0.3171	0.2955	0.8076	-0.145
Mof_C 	C 	0.2084	0.4697	0.8484	0.037
Mof_H 	H 	0.147	0.4445	0.8291	0.049
Mof_H 	H 	0.2208	0.5091	0.8347	0.059
Mof_C 	C 	0.6699	0.3592	0.9204	0.035
Mof_H 	H 	0.6611	0.3244	0.9403	0.058
Mof_H 	H 	0.712	0.3549	0.9003	0.048
Mof_N 	N 	0.2327	0.3262	0.859	-0.147
Mof_C 	C 	0.5854	0.3665	0.8117	0.06
Mof_H 	H 	0.6185	0.3503	0.7859	0.033
Mof_N 	N 	0.464	0.3916	0.771	-0.146
Mof_C 	C 	0.1939	0.3338	0.9088	0.039
Mof_H 	H 	0.1993	0.3	0.9291	0.053
Mof_H 	H 	0.1334	0.322	0.8861	0.042
Mof_C 	C 	0.7267	0.5865	0.9729	0.275
Mof_C 	C 	0.2689	0.3237	0.7657	0.062
Mof_H 	H 	0.2332	0.2878	0.7206	0.022
Mof_C 	C 	0.5328	0.4539	0.8047	0.268
Mof_C 	C 	0.309	0.4438	0.7972	0.277
Mof_C 	C 	0.6875	0.4963	0.8605	0.029
Mof_H 	H 	0.6848	0.5347	0.8465	0.058
Mof_H 	H 	0.7269	0.4789	0.8444	0.053
Mof_C 	C 	0.2147	0.3479	0.8029	0.059
Mof_H 	H 	0.1539	0.3264	0.7744	0.029
Mof_C 	C 	0.5153	0.3021	0.8629	0.279
Mof_C 	C 	0.4877	0.3327	0.7697	0.063
Mof_H 	H 	0.4759	0.3026	0.7233	0.035
Mof_C 	C 	0.3654	0.2543	0.7864	0.045
Mof_H 	H 	0.3398	0.2305	0.7377	0.034
Mof_H 	H 	0.3595	0.2186	0.8054	0.048
Mof_C 	C 	0.2913	0.2946	0.8607	0.269
Mof_C 	C 	0.3828	0.3891	0.7299	0.042
Mof_H 	H 	0.3929	0.4303	0.7187	0.044
Mof_H 	H 	0.3592	0.3483	0.688	0.032
Mof_O 	O 	0.3223	0.6081	0.9429	-0.206
Mof_C 	C 	0.2889	0.5629	0.9618	0.276
Mof_O 	O 	0.9757	0.0391	0.208	-0.224
Mof_O 	O 	0.824	0.914	0.7826	-0.237
Mof_O 	O 	0.1186	0.2301	0.0282	-0.232
Mof_O 	O 	0.9129	0.1693	0.016	-0.227
Mof_O 	O 	0.7599	0.8217	0.8743	-0.236
Mof_N 	N 	0.0443	0.1748	0.9134	-0.144
Mof_N 	N 	0.7904	0.0845	0.93	-0.148
Mof_O 	O 	0.8351	0.0863	0.1016	-0.231
Mof_N 	N 	0.8597	0.032	0.8071	-0.147
Mof_N 	N 	0.7663	0.9674	0.0641	-0.15
Mof_N 	N 	0.742	0.0179	0.993	-0.155
Mof_N 	N 	0.759	0.9777	0.8363	-0.15
Mof_N 	N 	0.8639	0.9339	0.1362	-0.144
Mof_N 	N 	0.8966	0.1386	0.904	-0.143
Mof_N 	N 	0.0064	0.0665	0.8178	-0.15
Mof_N 	N 	0.732	0.8579	0.9704	-0.147
Mof_N 	N 	0.8259	0.8231	0.0442	-0.142
Mof_N 	N 	0.7103	0.9108	0.9011	-0.153
Mof_C 	C 	0.9729	0.1945	0.9123	0.01
Mof_H 	H 	0.9592	0.2105	0.8756	0.074
Mof_H 	H 	0.9888	0.2337	0.954	0.075
Mof_C 	C 	0.8156	0.9691	0.8063	0.271
Mof_C 	C 	0.686	0.9475	0.9538	0.068
Mof_H 	H 	0.6263	0.9428	0.9369	0.022
Mof_C 	C 	0.8714	0.1349	0.956	0.269
Mof_C 	C 	0.7382	0.0737	0.9692	0.041
Mof_H 	H 	0.6794	0.0627	0.9419	0.031
Mof_H 	H 	0.7564	0.117	0.0077	0.048
Mof_C 	C 	0.9483	0.9755	0.1793	0.256
Mof_C 	C 	0.85	0.8605	0.1162	0.053
Mof_H 	H 	0.8101	0.8368	0.1336	0.036
Mof_C 	C 	0.7976	0.9605	0.1284	0.032
Mof_H 	H 	0.8183	0.0062	0.1643	0.054
Mof_H 	H 	0.7501	0.9299	0.1339	0.039
Mof_C 	C 	0.834	0.0878	0.8396	0.055
Mof_H 	H 	0.8142	0.1101	0.8092	0.047
Mof_C 	C 	0.7622	0.0485	0.8575	0.059
Mof_H 	H 	0.7078	0.0507	0.834	0.036
Mof_C 	C 	0.7415	0.8028	0.9946	0.012
Mof_H 	H 	0.6992	0.7908	0.0144	0.067
Mof_H 	H 	0.7304	0.7612	0.9565	0.076
Mof_C 	C 	0.7025	0.911	0.0035	0.052
Mof_H 	H 	0.6505	0.8896	0.0108	0.032
Mof_C 	C 	0.1127	0.1969	0.9718	0.266
Mof_C 	C 	0.6935	0.9195	0.8359	0.032
Mof_H 	H 	0.6873	0.8768	0.8017	0.049
Mof_H 	H 	0.6397	0.9259	0.8234	0.038
Mof_C 	C 	0.061	0.1401	0.854	0.055
Mof_H 	H 	0.0596	0.1656	0.8239	0.032
Mof_C 	C 	0.7868	0.0298	0.0569	0.274
Mof_C 	C 	0.7353	0.8603	0.9119	0.269
Mof_C 	C 	0.9198	0.0419	0.7739	0.044
Mof_H 	H 	0.9064	0.9978	0.7381	0.045
Mof_H 	H 	0.9131	0.0753	0.7534	0.044
Mof_O 	O 	0.0243	0.9609	0.792	-0.224
Mof_O 	O 	0.176	0.086	0.2174	-0.237
Mof_O 	O 	0.8814	0.7699	0.9718	-0.232
Mof_O 	O 	0.0871	0.8307	0.984	-0.227
Mof_O 	O 	0.2401	0.1783	0.1257	-0.236
Mof_N 	N 	0.9557	0.8252	0.0866	-0.144
Mof_N 	N 	0.2096	0.9155	0.07	-0.148
Mof_O 	O 	0.1649	0.9137	0.8984	-0.231
Mof_N 	N 	0.1403	0.968	0.1929	-0.147
Mof_N 	N 	0.2337	0.0326	0.9359	-0.15
Mof_N 	N 	0.258	0.9821	0.007	-0.155
Mof_N 	N 	0.241	0.0223	0.1637	-0.15
Mof_N 	N 	0.1361	0.0661	0.8638	-0.144
Mof_N 	N 	0.1034	0.8614	0.096	-0.143
Mof_N 	N 	0.9936	0.9335	0.1822	-0.15
Mof_N 	N 	0.268	0.1421	0.0296	-0.147
Mof_N 	N 	0.1741	0.1769	0.9558	-0.142
Mof_N 	N 	0.2897	0.0892	0.0989	-0.153
Mof_C 	C 	0.0271	0.8055	0.0877	0.01
Mof_H 	H 	0.0408	0.7895	0.1244	0.074
Mof_H 	H 	0.0112	0.7663	0.046	0.075
Mof_C 	C 	0.1844	0.0309	0.1937	0.271
Mof_C 	C 	0.314	0.0525	0.0462	0.068
Mof_H 	H 	0.3737	0.0572	0.0631	0.022
Mof_C 	C 	0.1286	0.8651	0.044	0.269
Mof_C 	C 	0.2618	0.9263	0.0308	0.041
Mof_H 	H 	0.3206	0.9373	0.0581	0.031
Mof_H 	H 	0.2436	0.883	0.9923	0.048
Mof_C 	C 	0.0517	0.0245	0.8207	0.256
Mof_C 	C 	0.15	0.1395	0.8838	0.053
Mof_H 	H 	0.1899	0.1632	0.8664	0.036
Mof_C 	C 	0.2024	0.0395	0.8716	0.032
Mof_H 	H 	0.1817	0.9938	0.8357	0.054
Mof_H 	H 	0.2499	0.0701	0.8661	0.039
Mof_C 	C 	0.166	0.9122	0.1604	0.055
Mof_H 	H 	0.1858	0.8899	0.1908	0.047
Mof_C 	C 	0.2378	0.9515	0.1425	0.059
Mof_H 	H 	0.2922	0.9493	0.166	0.036
Mof_C 	C 	0.2585	0.1972	0.0054	0.012
Mof_H 	H 	0.3008	0.2092	0.9856	0.067
Mof_H 	H 	0.2696	0.2388	0.0435	0.076
Mof_C 	C 	0.2975	0.089	0.9965	0.052
Mof_H 	H 	0.3495	0.1104	0.9892	0.032
Mof_C 	C 	0.8873	0.8031	0.0282	0.266
Mof_C 	C 	0.3065	0.0805	0.1641	0.032
Mof_H 	H 	0.3127	0.1232	0.1983	0.049
Mof_H 	H 	0.3603	0.0741	0.1766	0.038
Mof_C 	C 	0.939	0.8599	0.146	0.055
Mof_H 	H 	0.9404	0.8344	0.1761	0.032
Mof_C 	C 	0.2132	0.9702	0.9431	0.274
Mof_C 	C 	0.2647	0.1397	0.0881	0.269
Mof_C 	C 	0.0802	0.9581	0.2261	0.044
Mof_H 	H 	0.0936	0.0022	0.2619	0.045
Mof_H 	H 	0.0869	0.9247	0.2466	0.044
Mof_O 	O 	0.2532	0.6118	0.4809	-0.232
Mof_O 	O 	0.8674	0.6385	0.4481	-0.252
Mof_O 	O 	0.1243	0.4647	0.6904	-0.237
Mof_O 	O 	0.044	0.7218	0.5937	-0.239
Mof_O 	O 	0.2484	0.7121	0.6145	-0.233
Mof_N 	N 	0.1709	0.5849	0.7353	-0.149
Mof_N 	N 	0.2123	0.6805	0.6969	-0.15
Mof_N 	N 	0.3003	0.5623	0.5553	-0.153
Mof_N 	N 	0.3003	0.6398	0.6584	-0.152
Mof_C 	C 	0.302	0.494	0.5517	0.056
Mof_H 	H 	0.3604	0.4955	0.5679	0.022
Mof_N 	N 	0.941	0.6679	0.6272	-0.153
Mof_C 	C 	0.1077	0.5863	0.7644	0.025
Mof_H 	H 	0.1336	0.6247	0.8082	0.052
Mof_H 	H 	0.0884	0.5431	0.7716	0.063
Mof_N 	N 	0.0747	0.6872	0.6819	-0.151
Mof_N 	N 	0.2423	0.5374	0.6812	-0.146
Mof_N 	N 	0.0331	0.5944	0.7233	-0.144
Mof_N 	N 	0.2504	0.4612	0.5832	-0.15
Mof_C 	C 	0.2583	0.5611	0.4941	0.26
Mof_C 	C 	0.1742	0.523	0.7013	0.268
Mof_C 	C 	0.2708	0.4829	0.6544	0.036
Mof_H 	H 	0.3322	0.4994	0.6769	0.043
Mof_H 	H 	0.2449	0.4428	0.6642	0.052
Mof_C 	C 	0.3455	0.6242	0.6146	0.05
Mof_H 	H 	0.3628	0.6635	0.6013	0.039
Mof_H 	H 	0.3971	0.6206	0.6401	0.03
Mof_C 	C 	0.0286	0.6598	0.7211	0.055
Mof_H 	H 	0.0462	0.695	0.7664	0.03
Mof_C 	C 	0.2375	0.6441	0.7398	0.061
Mof_H 	H 	0.2706	0.6767	0.7867	0.033
Mof_N 	N 	0.8154	0.6081	0.5248	-0.153
Mof_C 	C 	0.935	0.6407	0.6796	0.056
Mof_H 	H 	0.9064	0.6623	0.7067	0.025
Mof_C 	C 	0.1644	0.725	0.7094	0.038
Mof_H 	H 	0.1823	0.7496	0.7576	0.038
Mof_H 	H 	0.1777	0.7599	0.69	0.051
Mof_C 	C 	0.8697	0.6731	0.582	0.039
Mof_H 	H 	0.891	0.7089	0.5655	0.047
Mof_H 	H 	0.8357	0.688	0.6068	0.03
Mof_C 	C 	0.746	0.5523	0.5234	0.059
Mof_H 	H 	0.7092	0.5701	0.5439	0.02
Mof_C 	C 	0.816	0.6003	0.4623	0.267
Mof_C 	C 	0.2927	0.6103	0.7077	0.064
Mof_H 	H 	0.3487	0.6218	0.7414	0.037
Mof_C 	C 	0.0219	0.6961	0.6317	0.275
Mof_C 	C 	0.2522	0.6803	0.6523	0.266
Mof_O 	O 	0.9434	0.478	0.6748	-0.224
Mof_N 	N 	0.8991	0.5643	0.6556	-0.147
Mof_N 	N 	0.7755	0.5074	0.5527	-0.146
Mof_C 	C 	0.9574	0.5396	0.6835	0.266
Mof_C 	C 	0.8093	0.5242	0.6246	0.034
Mof_H 	H 	0.7799	0.5503	0.646	0.033
Mof_H 	H 	0.7977	0.481	0.6324	0.055
Mof_O 	O 	0.7468	0.3882	0.5191	-0.232
Mof_O 	O 	0.1326	0.3615	0.5519	-0.252
Mof_O 	O 	0.8757	0.5353	0.3096	-0.237
Mof_O 	O 	0.956	0.2782	0.4063	-0.239
Mof_O 	O 	0.7516	0.2879	0.3855	-0.233
Mof_N 	N 	0.8291	0.4151	0.2647	-0.149
Mof_N 	N 	0.7877	0.3195	0.3031	-0.15
Mof_N 	N 	0.6997	0.4377	0.4447	-0.153
Mof_N 	N 	0.6997	0.3602	0.3416	-0.152
Mof_C 	C 	0.698	0.506	0.4483	0.056
Mof_H 	H 	0.6396	0.5045	0.4321	0.022
Mof_N 	N 	0.059	0.3321	0.3728	-0.153
Mof_C 	C 	0.8923	0.4137	0.2356	0.025
Mof_H 	H 	0.8664	0.3753	0.1918	0.052
Mof_H 	H 	0.9116	0.4569	0.2284	0.063
Mof_N 	N 	0.9253	0.3128	0.3181	-0.151
Mof_N 	N 	0.7577	0.4626	0.3188	-0.146
Mof_N 	N 	0.9669	0.4056	0.2767	-0.144
Mof_N 	N 	0.7496	0.5388	0.4168	-0.15
Mof_C 	C 	0.7417	0.4389	0.5059	0.26
Mof_C 	C 	0.8258	0.477	0.2987	0.268
Mof_C 	C 	0.7292	0.5171	0.3456	0.036
Mof_H 	H 	0.6678	0.5006	0.3231	0.043
Mof_H 	H 	0.7551	0.5572	0.3358	0.052
Mof_C 	C 	0.6545	0.3758	0.3854	0.05
Mof_H 	H 	0.6372	0.3365	0.3987	0.039
Mof_H 	H 	0.6029	0.3794	0.3599	0.03
Mof_C 	C 	0.9714	0.3402	0.2789	0.055
Mof_H 	H 	0.9538	0.305	0.2336	0.03
Mof_C 	C 	0.7625	0.3559	0.2602	0.061
Mof_H 	H 	0.7294	0.3233	0.2133	0.033
Mof_N 	N 	0.1846	0.3919	0.4752	-0.153
Mof_C 	C 	0.065	0.3593	0.3204	0.056
Mof_H 	H 	0.0936	0.3377	0.2933	0.025
Mof_C 	C 	0.8356	0.275	0.2906	0.038
Mof_H 	H 	0.8177	0.2504	0.2424	0.038
Mof_H 	H 	0.8223	0.2401	0.31	0.051
Mof_C 	C 	0.1303	0.3269	0.418	0.039
Mof_H 	H 	0.109	0.2911	0.4345	0.047
Mof_H 	H 	0.1643	0.312	0.3932	0.03
Mof_C 	C 	0.254	0.4477	0.4766	0.059
Mof_H 	H 	0.2908	0.4299	0.4561	0.02
Mof_C 	C 	0.184	0.3997	0.5377	0.267
Mof_C 	C 	0.7073	0.3897	0.2923	0.064
Mof_H 	H 	0.6513	0.3782	0.2586	0.037
Mof_C 	C 	0.9781	0.3039	0.3683	0.275
Mof_C 	C 	0.7478	0.3197	0.3477	0.266
Mof_O 	O 	0.0566	0.522	0.3252	-0.224
Mof_N 	N 	0.1009	0.4357	0.3444	-0.147
Mof_N 	N 	0.2245	0.4926	0.4473	-0.146
Mof_C 	C 	0.0426	0.4604	0.3165	0.266
Mof_C 	C 	0.1907	0.4758	0.3754	0.034
Mof_H 	H 	0.2201	0.4497	0.354	0.033
Mof_H 	H 	0.2023	0.519	0.3676	0.055
Mof_O 	O 	0.2698	0.9603	0.3247	-0.23
Mof_O 	O 	0.6017	0.9663	0.3358	-0.235
Mof_O 	O 	0.5924	0.2437	0.5893	-0.226
Mof_O 	O 	0.7388	0.1654	0.6168	-0.23
Mof_O 	O 	0.4403	0.0292	0.302	-0.242
Mof_O 	O 	0.4094	0.1732	0.6129	-0.247
Mof_N 	N 	0.2892	0.0813	0.5316	-0.152
Mof_N 	N 	0.4299	0.1291	0.3683	-0.151
Mof_N 	N 	0.3606	0.1627	0.5034	-0.151
Mof_N 	N 	0.62	0.2138	0.49	-0.142
Mof_N 	N 	0.7281	0.0142	0.4309	-0.149
Mof_N 	N 	0.5607	0.1278	0.3767	-0.155
Mof_N 	N 	0.2282	0.998	0.4152	-0.149
Mof_N 	N 	0.4905	0.2115	0.4855	-0.151
Mof_C 	C 	0.2854	0.1189	0.4417	0.055
Mof_H 	H 	0.2527	0.1461	0.4276	0.025
Mof_C 	C 	0.4263	0.2251	0.509	0.042
Mof_H 	H 	0.3992	0.2483	0.4836	0.029
Mof_H 	H 	0.4533	0.2571	0.5559	0.047
Mof_N 	N 	0.7308	0.1697	0.5113	-0.145
Mof_N 	N 	0.7833	0.0963	0.5458	-0.152
Mof_C 	C 	0.7845	0.0825	0.4795	0.062
Mof_H 	H 	0.8428	0.0922	0.4803	0.023
Mof_C 	C 	0.4868	0.1982	0.4169	0.058
Mof_H 	H 	0.4756	0.2346	0.402	0.022
Mof_N 	N 	0.3023	0.0773	0.3859	-0.149
Mof_C 	C 	0.7471	0.1328	0.4556	0.065
Mof_H 	H 	0.788	0.1647	0.4447	0.029
Mof_N 	N 	0.6733	0.0859	0.3967	-0.158
Mof_C 	C 	0.5763	0.1983	0.4211	0.06
Mof_H 	H 	0.6054	0.2337	0.4064	0.035
Mof_C 	C 	0.3593	0.1428	0.5564	0.276
Mof_C 	C 	0.5695	0.2247	0.5279	0.262
Mof_C 	C 	0.709	0.2296	0.5207	0.031
Mof_H 	H 	0.7399	0.2592	0.5023	0.051
Mof_H 	H 	0.7275	0.2561	0.5687	0.057
Mof_C 	C 	0.2671	0.008	0.3711	0.255
Mof_C 	C 	0.4726	0.0885	0.3443	0.261
Mof_C 	C 	0.6208	0.1099	0.3534	0.111
Mof_H 	H 	0.627	0.1129	0.314	0.014
Mof_C 	C 	0.7376	0.9496	0.4247	0.045
Mof_H 	H 	0.7972	0.9568	0.4335	0.027
Mof_H 	H 	0.7051	0.9168	0.3784	0.045
Mof_C 	C 	0.2337	0.0627	0.4624	0.059
Mof_H 	H 	0.1774	0.0641	0.4592	0.02
Mof_C 	C 	0.6606	0.017	0.3824	0.262
Mof_C 	C 	0.3394	0.1044	0.344	0.041
Mof_H 	H 	0.3169	0.0678	0.2994	0.049
Mof_H 	H 	0.3219	0.1425	0.3396	0.038
Mof_C 	C 	0.8246	0.0696	0.5921	0.04
Mof_H 	H 	0.8761	0.0669	0.5851	0.029
Mof_H 	H 	0.8413	0.1023	0.6379	0.049
Mof_C 	C 	0.7496	0.1447	0.5644	0.261
Mof_O 	O 	0.7302	0.0397	0.6753	-0.23
Mof_O 	O 	0.3983	0.0337	0.6642	-0.235
Mof_O 	O 	0.4076	0.7563	0.4107	-0.226
Mof_O 	O 	0.2612	0.8346	0.3832	-0.23
Mof_O 	O 	0.5597	0.9708	0.698	-0.242
Mof_O 	O 	0.5906	0.8268	0.3871	-0.247
Mof_N 	N 	0.7108	0.9187	0.4684	-0.152
Mof_N 	N 	0.5701	0.8709	0.6317	-0.151
Mof_N 	N 	0.6394	0.8373	0.4966	-0.151
Mof_N 	N 	0.38	0.7862	0.51	-0.142
Mof_N 	N 	0.2719	0.9858	0.5691	-0.149
Mof_N 	N 	0.4393	0.8722	0.6233	-0.155
Mof_N 	N 	0.7718	0.002	0.5848	-0.149
Mof_N 	N 	0.5095	0.7885	0.5145	-0.151
Mof_C 	C 	0.7146	0.8811	0.5583	0.055
Mof_H 	H 	0.7473	0.8539	0.5724	0.025
Mof_C 	C 	0.5737	0.7749	0.491	0.042
Mof_H 	H 	0.6008	0.7517	0.5164	0.029
Mof_H 	H 	0.5467	0.7429	0.4441	0.047
Mof_N 	N 	0.2692	0.8303	0.4887	-0.145
Mof_N 	N 	0.2167	0.9037	0.4542	-0.152
Mof_C 	C 	0.2155	0.9175	0.5205	0.062
Mof_H 	H 	0.1572	0.9078	0.5197	0.023
Mof_C 	C 	0.5132	0.8018	0.5831	0.058
Mof_H 	H 	0.5244	0.7654	0.598	0.022
Mof_N 	N 	0.6977	0.9227	0.6141	-0.149
Mof_C 	C 	0.2529	0.8672	0.5444	0.065
Mof_H 	H 	0.212	0.8353	0.5553	0.029
Mof_N 	N 	0.3267	0.9141	0.6033	-0.158
Mof_C 	C 	0.4237	0.8017	0.5789	0.06
Mof_H 	H 	0.3946	0.7663	0.5936	0.035
Mof_C 	C 	0.6407	0.8572	0.4436	0.276
Mof_C 	C 	0.4305	0.7753	0.4721	0.262
Mof_C 	C 	0.291	0.7704	0.4793	0.031
Mof_H 	H 	0.2601	0.7408	0.4977	0.051
Mof_H 	H 	0.2725	0.7439	0.4313	0.057
Mof_C 	C 	0.7329	0.992	0.6289	0.255
Mof_C 	C 	0.5274	0.9115	0.6557	0.261
Mof_C 	C 	0.3792	0.8901	0.6466	0.111
Mof_H 	H 	0.373	0.8871	0.686	0.014
Mof_C 	C 	0.2624	0.0504	0.5753	0.045
Mof_H 	H 	0.2028	0.0432	0.5665	0.027
Mof_H 	H 	0.2949	0.0832	0.6216	0.045
Mof_C 	C 	0.7663	0.9373	0.5376	0.059
Mof_H 	H 	0.8226	0.9359	0.5408	0.02
Mof_C 	C 	0.3394	0.983	0.6176	0.262
Mof_C 	C 	0.6606	0.8956	0.656	0.041
Mof_H 	H 	0.6831	0.9322	0.7006	0.049
Mof_H 	H 	0.6781	0.8575	0.6604	0.038
Mof_C 	C 	0.1754	0.9304	0.4079	0.04
Mof_H 	H 	0.1239	0.9331	0.4149	0.029
Mof_H 	H 	0.1587	0.8977	0.3621	0.049
Mof_C 	C 	0.2504	0.8553	0.4356	0.261
_end
