# CIF file generated by openbabel 3.1.0, see https://openbabel.org
data_I
_chemical_name_common 'image0'
_cell_length_a 13.4873
_cell_length_b 13.4873
_cell_length_c 8.0256
_cell_angle_alpha 90
_cell_angle_beta 90
_cell_angle_gamma 120
_space_group_name_H-M_alt 'P 1'
_space_group_name_Hall 'P 1'
loop_
    _symmetry_equiv_pos_as_xyz
    x,y,z
loop_
    _atom_site_label
    _atom_site_type_symbol
    _atom_site_fract_x
    _atom_site_fract_y
    _atom_site_fract_z
    _atom_site_occupancy
    Mn1      Mn       0.30158    0.33859    0.54474    1.000
    O1       O        0.22616    0.18084    0.40370    1.000
    C1       C        0.53366    0.32224    0.54860    1.000
    C2       C        0.35340    0.55970    0.77860    1.000
    O2       O        0.24023    0.05707    0.24220    1.000
    C3       C        0.26440    0.15780    0.27730    1.000
    N1       N        0.34820    0.20990    0.99820    1.000
    H1       H        0.41350    0.25820    0.94470    1.000
    H2       H        0.28850    0.20020    0.93600    1.000
    C4       C        0.34500    0.25510    0.16310    1.000
    H3       H        0.42190    0.28660    0.21040    1.000
    N2       N        0.36661    0.42887    0.30120    1.000
    H4       H        0.34910    0.48490    0.29370    1.000
    H5       H        0.44340    0.46200    0.30010    1.000
    C5       C        0.32040    0.35430    0.15350    1.000
    H6       H        0.35490    0.39870    0.05360    1.000
    H7       H        0.23840    0.32400    0.14710    1.000
    N3       N        0.45440    0.32060    0.60390    1.000
    N4       N        0.36670    0.49920    0.69290    1.000
    Mn2      Mn       0.66141    0.96299    0.54474    1.000
    O3       O        0.81916    0.04532    0.40370    1.000
    C6       C        0.67776    0.21142    0.54860    1.000
    C7       C        0.44030    0.79370    0.77860    1.000
    O4       O        0.94293    0.18316    0.24220    1.000
    C8       C        0.84220    0.10660    0.27730    1.000
    N5       N        0.79010    0.13830    0.99820    1.000
    H8       H        0.74180    0.15530    0.94470    1.000
    H9       H        0.79980    0.08830    0.93600    1.000
    C9       C        0.74490    0.08990    0.16310    1.000
    H10      H        0.71340    0.13530    0.21040    1.000
    N6       N        0.57113    0.93774    0.30120    1.000
    H11      H        0.51510    0.86420    0.29370    1.000
    H12      H        0.53800    0.98140    0.30010    1.000
    C10      C        0.64570    0.96610    0.15350    1.000
    H13      H        0.60130    0.95620    0.05360    1.000
    H14      H        0.67600    0.91440    0.14710    1.000
    N7       N        0.67940    0.13380    0.60390    1.000
    N8       N        0.50080    0.86750    0.69290    1.000
    Mn3      Mn       0.03701    0.69842    0.54474    1.000
    O5       O        0.95468    0.77384    0.40370    1.000
    C11      C        0.78858    0.46634    0.54860    1.000
    C12      C        0.20630    0.64660    0.77860    1.000
    O6       O        0.81684    0.75977    0.24220    1.000
    C13      C        0.89340    0.73560    0.27730    1.000
    N9       N        0.86170    0.65180    0.99820    1.000
    H15      H        0.84470    0.58650    0.94470    1.000
    H16      H        0.91170    0.71150    0.93600    1.000
    C14      C        0.91010    0.65500    0.16310    1.000
    H17      H        0.86470    0.57810    0.21040    1.000
    N10      N        0.06226    0.63339    0.30120    1.000
    H18      H        0.13580    0.65090    0.29370    1.000
    H19      H        0.01860    0.55660    0.30010    1.000
    C15      C        0.03390    0.67960    0.15350    1.000
    H20      H        0.04380    0.64510    0.05360    1.000
    H21      H        0.08560    0.76160    0.14710    1.000
    N11      N        0.86620    0.54560    0.60390    1.000
    N12      N        0.13250    0.63330    0.69290    1.000
    Mn4      Mn       0.69842    0.66141    0.04474    1.000
    O7       O        0.77384    0.81916    0.90370    1.000
    C16      C        0.46634    0.67776    0.04860    1.000
    C17      C        0.64660    0.44030    0.27860    1.000
    O8       O        0.75977    0.94293    0.74220    1.000
    C18      C        0.73560    0.84220    0.77730    1.000
    N13      N        0.65180    0.79010    0.49820    1.000
    H22      H        0.58650    0.74180    0.44470    1.000
    H23      H        0.71150    0.79980    0.43600    1.000
    C19      C        0.65500    0.74490    0.66310    1.000
    H24      H        0.57810    0.71340    0.71040    1.000
    N14      N        0.63339    0.57113    0.80120    1.000
    H25      H        0.65090    0.51510    0.79370    1.000
    H26      H        0.55660    0.53800    0.80010    1.000
    C20      C        0.67960    0.64570    0.65350    1.000
    H27      H        0.64510    0.60130    0.55360    1.000
    H28      H        0.76160    0.67600    0.64710    1.000
    N15      N        0.54560    0.67940    0.10390    1.000
    N16      N        0.63330    0.50080    0.19290    1.000
    Mn5      Mn       0.33859    0.03701    0.04474    1.000
    O9       O        0.18084    0.95468    0.90370    1.000
    C21      C        0.32224    0.78858    0.04860    1.000
    C22      C        0.55970    0.20630    0.27860    1.000
    O10      O        0.05707    0.81684    0.74220    1.000
    C23      C        0.15780    0.89340    0.77730    1.000
    N17      N        0.20990    0.86170    0.49820    1.000
    H29      H        0.25820    0.84470    0.44470    1.000
    H30      H        0.20020    0.91170    0.43600    1.000
    C24      C        0.25510    0.91010    0.66310    1.000
    H31      H        0.28660    0.86470    0.71040    1.000
    N18      N        0.42887    0.06226    0.80120    1.000
    H32      H        0.48490    0.13580    0.79370    1.000
    H33      H        0.46200    0.01860    0.80010    1.000
    C25      C        0.35430    0.03390    0.65350    1.000
    H34      H        0.39870    0.04380    0.55360    1.000
    H35      H        0.32400    0.08560    0.64710    1.000
    N19      N        0.32060    0.86620    0.10390    1.000
    N20      N        0.49920    0.13250    0.19290    1.000
    Mn6      Mn       0.96299    0.30158    0.04474    1.000
    O11      O        0.04532    0.22616    0.90370    1.000
    C26      C        0.21142    0.53366    0.04860    1.000
    C27      C        0.79370    0.35340    0.27860    1.000
    O12      O        0.18316    0.24023    0.74220    1.000
    C28      C        0.10660    0.26440    0.77730    1.000
    N21      N        0.13830    0.34820    0.49820    1.000
    H36      H        0.15530    0.41350    0.44470    1.000
    H37      H        0.08830    0.28850    0.43600    1.000
    C29      C        0.08990    0.34500    0.66310    1.000
    H38      H        0.13530    0.42190    0.71040    1.000
    N22      N        0.93774    0.36661    0.80120    1.000
    H39      H        0.86420    0.34910    0.79370    1.000
    H40      H        0.98140    0.44340    0.80010    1.000
    C30      C        0.96610    0.32040    0.65350    1.000
    H41      H        0.95620    0.35490    0.55360    1.000
    H42      H        0.91440    0.23840    0.64710    1.000
    N23      N        0.13380    0.45440    0.10390    1.000
    N24      N        0.86750    0.36670    0.19290    1.000
    Mn7      Mn       0.33333    0.66667    0.92447    1.000
    Mn8      Mn       0.66667    0.33333    0.42447    1.000
