data_functionalizedCrystal
_audit_creation_method	'EQeq! by Chris Wilmer'
_symmetry_space_group_name_H-M	'P1'
_symmetry_Int_Tables_number	1
_symmetry_cell_setting	triclinic
loop_
_symmetry_equiv_pos_as_xyz
  x,y,z
_cell_length_a	29.497
_cell_length_b	29.497
_cell_length_c	29.497
_cell_angle_alpha	90
_cell_angle_beta	90
_cell_angle_gamma	90
loop_
_atom_site_label
_atom_site_type_symbol
_atom_site_fract_x
_atom_site_fract_y
_atom_site_fract_z
_atom_site_charge
Mof_Zn	Zn	0.55506	0.05506	0.44494	1.208
Mof_Zn	Zn	0.94494	0.94494	0.94494	1.208
Mof_Zn	Zn	0.44494	0.55506	0.05506	1.208
Mof_Zn	Zn	0.05506	0.44494	0.55506	1.208
Mof_Zn	Zn	0.80506	0.80506	0.80506	1.208
Mof_Zn	Zn	0.69494	0.19494	0.30506	1.208
Mof_Zn	Zn	0.30506	0.69494	0.19494	1.208
Mof_Zn	Zn	0.19494	0.30506	0.69494	1.208
Mof_Zn	Zn	0.625	0.125	0.375	1.304
Mof_Zn	Zn	0.875	0.875	0.875	1.304
Mof_Zn	Zn	0.375	0.625	0.125	1.304
Mof_Zn	Zn	0.125	0.375	0.625	1.304
Mof_H 	H 	0.4493	0.159	0.4449	0.031
Mof_H 	H 	0.3972	0.2151	0.4241	0.077
Mof_H 	H 	0.468	0.2366	0.3074	0.08
Mof_H 	H 	0.5141	0.1805	0.327	0.037
Mof_H 	H 	0.0507	0.841	0.9449	0.031
Mof_H 	H 	0.1028	0.7849	0.9241	0.077
Mof_H 	H 	0.032	0.7634	0.8074	0.08
Mof_H 	H 	0.9859	0.8195	0.827	0.037
Mof_H 	H 	0.5507	0.659	0.0551	0.031
Mof_H 	H 	0.6028	0.7151	0.0759	0.077
Mof_H 	H 	0.532	0.7366	0.1926	0.08
Mof_H 	H 	0.4859	0.6805	0.173	0.037
Mof_H 	H 	0.9493	0.341	0.5551	0.031
Mof_H 	H 	0.8972	0.2849	0.5759	0.077
Mof_H 	H 	0.968	0.2634	0.6926	0.08
Mof_H 	H 	0.0141	0.3195	0.673	0.037
Mof_H 	H 	0.4449	0.4493	0.159	0.03
Mof_H 	H 	0.4241	0.3972	0.2151	0.076
Mof_H 	H 	0.3074	0.468	0.2366	0.079
Mof_H 	H 	0.327	0.5141	0.1805	0.036
Mof_H 	H 	0.9449	0.0507	0.841	0.03
Mof_H 	H 	0.9241	0.1028	0.7849	0.076
Mof_H 	H 	0.8074	0.032	0.7634	0.079
Mof_H 	H 	0.827	0.9859	0.8195	0.036
Mof_H 	H 	0.0551	0.5507	0.659	0.03
Mof_H 	H 	0.0759	0.6028	0.7151	0.076
Mof_H 	H 	0.1926	0.532	0.7366	0.079
Mof_H 	H 	0.173	0.4859	0.6805	0.036
Mof_H 	H 	0.5551	0.9493	0.341	0.03
Mof_H 	H 	0.5759	0.8972	0.2849	0.076
Mof_H 	H 	0.6926	0.968	0.2634	0.079
Mof_H 	H 	0.673	0.0141	0.3195	0.036
Mof_H 	H 	0.159	0.4449	0.4493	0.03
Mof_H 	H 	0.2151	0.4241	0.3972	0.076
Mof_H 	H 	0.2366	0.3074	0.468	0.079
Mof_H 	H 	0.1805	0.327	0.5141	0.036
Mof_H 	H 	0.841	0.9449	0.0507	0.03
Mof_H 	H 	0.7849	0.9241	0.1028	0.076
Mof_H 	H 	0.7634	0.8074	0.032	0.079
Mof_H 	H 	0.8195	0.827	0.9859	0.036
Mof_H 	H 	0.659	0.0551	0.5507	0.03
Mof_H 	H 	0.7151	0.0759	0.6028	0.076
Mof_H 	H 	0.7366	0.1926	0.532	0.079
Mof_H 	H 	0.6805	0.173	0.4859	0.036
Mof_H 	H 	0.341	0.5551	0.9493	0.03
Mof_H 	H 	0.2849	0.5759	0.8972	0.076
Mof_H 	H 	0.2634	0.6926	0.968	0.079
Mof_H 	H 	0.3195	0.673	0.0141	0.036
Mof_H 	H 	0.909	0.6993	0.8051	0.03
Mof_H 	H 	0.9651	0.6472	0.8259	0.076
Mof_H 	H 	0.9866	0.718	0.9426	0.079
Mof_H 	H 	0.9305	0.7641	0.923	0.036
Mof_H 	H 	0.591	0.3007	0.3051	0.03
Mof_H 	H 	0.5349	0.3528	0.3259	0.076
Mof_H 	H 	0.5134	0.282	0.4426	0.079
Mof_H 	H 	0.5695	0.2359	0.423	0.036
Mof_H 	H 	0.409	0.8007	0.1949	0.03
Mof_H 	H 	0.4651	0.8528	0.1741	0.076
Mof_H 	H 	0.4866	0.782	0.0574	0.079
Mof_H 	H 	0.4305	0.7359	0.077	0.036
Mof_H 	H 	0.091	0.1993	0.6949	0.03
Mof_H 	H 	0.0349	0.1472	0.6741	0.076
Mof_H 	H 	0.0134	0.218	0.5574	0.079
Mof_H 	H 	0.0695	0.2641	0.577	0.036
Mof_H 	H 	0.1993	0.6949	0.091	0.03
Mof_H 	H 	0.1472	0.6741	0.0349	0.076
Mof_H 	H 	0.218	0.5574	0.0134	0.079
Mof_H 	H 	0.2641	0.577	0.0695	0.036
Mof_H 	H 	0.8007	0.1949	0.409	0.03
Mof_H 	H 	0.8528	0.1741	0.4651	0.076
Mof_H 	H 	0.782	0.0574	0.4866	0.079
Mof_H 	H 	0.7359	0.077	0.4305	0.036
Mof_H 	H 	0.3007	0.3051	0.591	0.03
Mof_H 	H 	0.3528	0.3259	0.5349	0.076
Mof_H 	H 	0.282	0.4426	0.5134	0.079
Mof_H 	H 	0.2359	0.423	0.5695	0.036
Mof_H 	H 	0.6993	0.8051	0.909	0.03
Mof_H 	H 	0.6472	0.8259	0.9651	0.076
Mof_H 	H 	0.718	0.9426	0.9866	0.079
Mof_H 	H 	0.7641	0.923	0.9305	0.036
Mof_H 	H 	0.1949	0.409	0.8007	0.03
Mof_H 	H 	0.1741	0.4651	0.8528	0.076
Mof_H 	H 	0.0574	0.4866	0.782	0.079
Mof_H 	H 	0.077	0.4305	0.7359	0.036
Mof_H 	H 	0.6949	0.091	0.1993	0.03
Mof_H 	H 	0.6741	0.0349	0.1472	0.076
Mof_H 	H 	0.5574	0.0134	0.218	0.079
Mof_H 	H 	0.577	0.0695	0.2641	0.036
Mof_H 	H 	0.8051	0.909	0.6993	0.03
Mof_H 	H 	0.8259	0.9651	0.6472	0.076
Mof_H 	H 	0.9426	0.9866	0.718	0.079
Mof_H 	H 	0.923	0.9305	0.7641	0.036
Mof_H 	H 	0.3051	0.591	0.3007	0.03
Mof_H 	H 	0.3259	0.5349	0.3528	0.076
Mof_H 	H 	0.4426	0.5134	0.282	0.079
Mof_H 	H 	0.423	0.5695	0.2359	0.036
Mof_C 	C 	0.4877	0.1628	0.3868	-0.101
Mof_C 	C 	0.4522	0.1742	0.4174	0.027
Mof_C 	C 	0.4219	0.2085	0.4057	-0.095
Mof_C 	C 	0.4298	0.2346	0.3626	0.043
Mof_C 	C 	0.4637	0.2219	0.3349	-0.107
Mof_C 	C 	0.4909	0.188	0.3469	0.037
Mof_C 	C 	0.5231	0.1277	0.3965	0.337
Mof_C 	C 	0.3958	0.2764	0.3555	0.114
Mof_C 	C 	0.3351	0.3161	0.3751	0.216
Mof_C 	C 	0.0123	0.8372	0.8868	-0.101
Mof_C 	C 	0.0478	0.8258	0.9174	0.027
Mof_C 	C 	0.0781	0.7915	0.9057	-0.095
Mof_C 	C 	0.0702	0.7654	0.8626	0.043
Mof_C 	C 	0.0363	0.7781	0.8349	-0.107
Mof_C 	C 	0.0091	0.812	0.8469	0.037
Mof_C 	C 	0.9769	0.8723	0.8965	0.337
Mof_C 	C 	0.1042	0.7236	0.8555	0.114
Mof_C 	C 	0.1649	0.6839	0.8751	0.216
Mof_C 	C 	0.5123	0.6628	0.1132	-0.101
Mof_C 	C 	0.5478	0.6742	0.0826	0.027
Mof_C 	C 	0.5781	0.7085	0.0943	-0.095
Mof_C 	C 	0.5702	0.7346	0.1374	0.043
Mof_C 	C 	0.5363	0.7219	0.1651	-0.107
Mof_C 	C 	0.5091	0.688	0.1531	0.037
Mof_C 	C 	0.4769	0.6277	0.1035	0.337
Mof_C 	C 	0.6042	0.7764	0.1445	0.114
Mof_C 	C 	0.6649	0.8161	0.1249	0.216
Mof_C 	C 	0.9877	0.3372	0.6132	-0.101
Mof_C 	C 	0.9522	0.3258	0.5826	0.027
Mof_C 	C 	0.9219	0.2915	0.5943	-0.095
Mof_C 	C 	0.9298	0.2654	0.6374	0.043
Mof_C 	C 	0.9637	0.2781	0.6651	-0.107
Mof_C 	C 	0.9909	0.312	0.6531	0.037
Mof_C 	C 	0.0231	0.3723	0.6035	0.337
Mof_C 	C 	0.8958	0.2236	0.6445	0.114
Mof_C 	C 	0.8351	0.1839	0.6249	0.216
Mof_C 	C 	0.3868	0.4877	0.1628	-0.101
Mof_C 	C 	0.4174	0.4522	0.1742	0.027
Mof_C 	C 	0.4057	0.4219	0.2085	-0.095
Mof_C 	C 	0.3626	0.4298	0.2346	0.043
Mof_C 	C 	0.3349	0.4637	0.2219	-0.107
Mof_C 	C 	0.3469	0.4909	0.188	0.037
Mof_C 	C 	0.3965	0.5231	0.1277	0.337
Mof_C 	C 	0.3555	0.3958	0.2764	0.114
Mof_C 	C 	0.3751	0.3351	0.3161	0.216
Mof_C 	C 	0.8868	0.0123	0.8372	-0.101
Mof_C 	C 	0.9174	0.0478	0.8258	0.027
Mof_C 	C 	0.9057	0.0781	0.7915	-0.095
Mof_C 	C 	0.8626	0.0702	0.7654	0.043
Mof_C 	C 	0.8349	0.0363	0.7781	-0.107
Mof_C 	C 	0.8469	0.0091	0.812	0.037
Mof_C 	C 	0.8965	0.9769	0.8723	0.337
Mof_C 	C 	0.8555	0.1042	0.7236	0.114
Mof_C 	C 	0.8751	0.1649	0.6839	0.216
Mof_C 	C 	0.1132	0.5123	0.6628	-0.101
Mof_C 	C 	0.0826	0.5478	0.6742	0.027
Mof_C 	C 	0.0943	0.5781	0.7085	-0.095
Mof_C 	C 	0.1374	0.5702	0.7346	0.043
Mof_C 	C 	0.1651	0.5363	0.7219	-0.107
Mof_C 	C 	0.1531	0.5091	0.688	0.037
Mof_C 	C 	0.1035	0.4769	0.6277	0.337
Mof_C 	C 	0.1445	0.6042	0.7764	0.114
Mof_C 	C 	0.1249	0.6649	0.8161	0.216
Mof_C 	C 	0.6132	0.9877	0.3372	-0.101
Mof_C 	C 	0.5826	0.9522	0.3258	0.027
Mof_C 	C 	0.5943	0.9219	0.2915	-0.095
Mof_C 	C 	0.6374	0.9298	0.2654	0.043
Mof_C 	C 	0.6651	0.9637	0.2781	-0.107
Mof_C 	C 	0.6531	0.9909	0.312	0.037
Mof_C 	C 	0.6035	0.0231	0.3723	0.337
Mof_C 	C 	0.6445	0.8958	0.2236	0.114
Mof_C 	C 	0.6249	0.8351	0.1839	0.216
Mof_C 	C 	0.1628	0.3868	0.4877	-0.101
Mof_C 	C 	0.1742	0.4174	0.4522	0.027
Mof_C 	C 	0.2085	0.4057	0.4219	-0.095
Mof_C 	C 	0.2346	0.3626	0.4298	0.043
Mof_C 	C 	0.2219	0.3349	0.4637	-0.107
Mof_C 	C 	0.188	0.3469	0.4909	0.037
Mof_C 	C 	0.1277	0.3965	0.5231	0.337
Mof_C 	C 	0.2764	0.3555	0.3958	0.114
Mof_C 	C 	0.3161	0.3751	0.3351	0.216
Mof_C 	C 	0.8372	0.8868	0.0123	-0.101
Mof_C 	C 	0.8258	0.9174	0.0478	0.027
Mof_C 	C 	0.7915	0.9057	0.0781	-0.095
Mof_C 	C 	0.7654	0.8626	0.0702	0.043
Mof_C 	C 	0.7781	0.8349	0.0363	-0.107
Mof_C 	C 	0.812	0.8469	0.0091	0.037
Mof_C 	C 	0.8723	0.8965	0.9769	0.337
Mof_C 	C 	0.7236	0.8555	0.1042	0.114
Mof_C 	C 	0.6839	0.8751	0.1649	0.216
Mof_C 	C 	0.6628	0.1132	0.5123	-0.101
Mof_C 	C 	0.6742	0.0826	0.5478	0.027
Mof_C 	C 	0.7085	0.0943	0.5781	-0.095
Mof_C 	C 	0.7346	0.1374	0.5702	0.043
Mof_C 	C 	0.7219	0.1651	0.5363	-0.107
Mof_C 	C 	0.688	0.1531	0.5091	0.037
Mof_C 	C 	0.6277	0.1035	0.4769	0.337
Mof_C 	C 	0.7764	0.1445	0.6042	0.114
Mof_C 	C 	0.8161	0.1249	0.6649	0.216
Mof_C 	C 	0.3372	0.6132	0.9877	-0.101
Mof_C 	C 	0.3258	0.5826	0.9522	0.027
Mof_C 	C 	0.2915	0.5943	0.9219	-0.095
Mof_C 	C 	0.2654	0.6374	0.9298	0.043
Mof_C 	C 	0.2781	0.6651	0.9637	-0.107
Mof_C 	C 	0.312	0.6531	0.9909	0.037
Mof_C 	C 	0.3723	0.6035	0.0231	0.337
Mof_C 	C 	0.2236	0.6445	0.8958	0.114
Mof_C 	C 	0.1839	0.6249	0.8351	0.216
Mof_C 	C 	0.9128	0.7377	0.8632	-0.101
Mof_C 	C 	0.9242	0.7022	0.8326	0.027
Mof_C 	C 	0.9585	0.6719	0.8443	-0.095
Mof_C 	C 	0.9846	0.6798	0.8874	0.043
Mof_C 	C 	0.9719	0.7137	0.9151	-0.107
Mof_C 	C 	0.938	0.7409	0.9031	0.037
Mof_C 	C 	0.8777	0.7731	0.8535	0.337
Mof_C 	C 	0.0264	0.6458	0.8945	0.114
Mof_C 	C 	0.0661	0.5851	0.8749	0.216
Mof_C 	C 	0.5872	0.2623	0.3632	-0.101
Mof_C 	C 	0.5758	0.2978	0.3326	0.027
Mof_C 	C 	0.5415	0.3281	0.3443	-0.095
Mof_C 	C 	0.5154	0.3202	0.3874	0.043
Mof_C 	C 	0.5281	0.2863	0.4151	-0.107
Mof_C 	C 	0.562	0.2591	0.4031	0.037
Mof_C 	C 	0.6223	0.2269	0.3535	0.337
Mof_C 	C 	0.4736	0.3542	0.3945	0.114
Mof_C 	C 	0.4339	0.4149	0.3749	0.216
Mof_C 	C 	0.4128	0.7623	0.1368	-0.101
Mof_C 	C 	0.4242	0.7978	0.1674	0.027
Mof_C 	C 	0.4585	0.8281	0.1557	-0.095
Mof_C 	C 	0.4846	0.8202	0.1126	0.043
Mof_C 	C 	0.4719	0.7863	0.0849	-0.107
Mof_C 	C 	0.438	0.7591	0.0969	0.037
Mof_C 	C 	0.3777	0.7269	0.1465	0.337
Mof_C 	C 	0.5264	0.8542	0.1055	0.114
Mof_C 	C 	0.5661	0.9149	0.1251	0.216
Mof_C 	C 	0.0872	0.2377	0.6368	-0.101
Mof_C 	C 	0.0758	0.2022	0.6674	0.027
Mof_C 	C 	0.0415	0.1719	0.6557	-0.095
Mof_C 	C 	0.0154	0.1798	0.6126	0.043
Mof_C 	C 	0.0281	0.2137	0.5849	-0.107
Mof_C 	C 	0.062	0.2409	0.5969	0.037
Mof_C 	C 	0.1223	0.2731	0.6465	0.337
Mof_C 	C 	0.9736	0.1458	0.6055	0.114
Mof_C 	C 	0.9339	0.0851	0.6251	0.216
Mof_C 	C 	0.2377	0.6368	0.0872	-0.101
Mof_C 	C 	0.2022	0.6674	0.0758	0.027
Mof_C 	C 	0.1719	0.6557	0.0415	-0.095
Mof_C 	C 	0.1798	0.6126	0.0154	0.043
Mof_C 	C 	0.2137	0.5849	0.0281	-0.107
Mof_C 	C 	0.2409	0.5969	0.062	0.037
Mof_C 	C 	0.2731	0.6465	0.1223	0.337
Mof_C 	C 	0.1458	0.6055	0.9736	0.114
Mof_C 	C 	0.0851	0.6251	0.9339	0.216
Mof_C 	C 	0.7623	0.1368	0.4128	-0.101
Mof_C 	C 	0.7978	0.1674	0.4242	0.027
Mof_C 	C 	0.8281	0.1557	0.4585	-0.095
Mof_C 	C 	0.8202	0.1126	0.4846	0.043
Mof_C 	C 	0.7863	0.0849	0.4719	-0.107
Mof_C 	C 	0.7591	0.0969	0.438	0.037
Mof_C 	C 	0.7269	0.1465	0.3777	0.337
Mof_C 	C 	0.8542	0.1055	0.5264	0.114
Mof_C 	C 	0.9149	0.1251	0.5661	0.216
Mof_C 	C 	0.2623	0.3632	0.5872	-0.101
Mof_C 	C 	0.2978	0.3326	0.5758	0.027
Mof_C 	C 	0.3281	0.3443	0.5415	-0.095
Mof_C 	C 	0.3202	0.3874	0.5154	0.043
Mof_C 	C 	0.2863	0.4151	0.5281	-0.107
Mof_C 	C 	0.2591	0.4031	0.562	0.037
Mof_C 	C 	0.2269	0.3535	0.6223	0.337
Mof_C 	C 	0.3542	0.3945	0.4736	0.114
Mof_C 	C 	0.4149	0.3749	0.4339	0.216
Mof_C 	C 	0.7377	0.8632	0.9128	-0.101
Mof_C 	C 	0.7022	0.8326	0.9242	0.027
Mof_C 	C 	0.6719	0.8443	0.9585	-0.095
Mof_C 	C 	0.6798	0.8874	0.9846	0.043
Mof_C 	C 	0.7137	0.9151	0.9719	-0.107
Mof_C 	C 	0.7409	0.9031	0.938	0.037
Mof_C 	C 	0.7731	0.8535	0.8777	0.337
Mof_C 	C 	0.6458	0.8945	0.0264	0.114
Mof_C 	C 	0.5851	0.8749	0.0661	0.216
Mof_C 	C 	0.1368	0.4128	0.7623	-0.101
Mof_C 	C 	0.1674	0.4242	0.7978	0.027
Mof_C 	C 	0.1557	0.4585	0.8281	-0.095
Mof_C 	C 	0.1126	0.4846	0.8202	0.043
Mof_C 	C 	0.0849	0.4719	0.7863	-0.107
Mof_C 	C 	0.0969	0.438	0.7591	0.037
Mof_C 	C 	0.1465	0.3777	0.7269	0.337
Mof_C 	C 	0.1055	0.5264	0.8542	0.114
Mof_C 	C 	0.1251	0.5661	0.9149	0.216
Mof_C 	C 	0.6368	0.0872	0.2377	-0.101
Mof_C 	C 	0.6674	0.0758	0.2022	0.027
Mof_C 	C 	0.6557	0.0415	0.1719	-0.095
Mof_C 	C 	0.6126	0.0154	0.1798	0.043
Mof_C 	C 	0.5849	0.0281	0.2137	-0.107
Mof_C 	C 	0.5969	0.062	0.2409	0.037
Mof_C 	C 	0.6465	0.1223	0.2731	0.337
Mof_C 	C 	0.6055	0.9736	0.1458	0.114
Mof_C 	C 	0.6251	0.9339	0.0851	0.216
Mof_C 	C 	0.8632	0.9128	0.7377	-0.101
Mof_C 	C 	0.8326	0.9242	0.7022	0.027
Mof_C 	C 	0.8443	0.9585	0.6719	-0.095
Mof_C 	C 	0.8874	0.9846	0.6798	0.043
Mof_C 	C 	0.9151	0.9719	0.7137	-0.107
Mof_C 	C 	0.9031	0.938	0.7409	0.037
Mof_C 	C 	0.8535	0.8777	0.7731	0.337
Mof_C 	C 	0.8945	0.0264	0.6458	0.114
Mof_C 	C 	0.8749	0.0661	0.5851	0.216
Mof_C 	C 	0.3632	0.5872	0.2623	-0.101
Mof_C 	C 	0.3326	0.5758	0.2978	0.027
Mof_C 	C 	0.3443	0.5415	0.3281	-0.095
Mof_C 	C 	0.3874	0.5154	0.3202	0.043
Mof_C 	C 	0.4151	0.5281	0.2863	-0.107
Mof_C 	C 	0.4031	0.562	0.2591	0.037
Mof_C 	C 	0.3535	0.6223	0.2269	0.337
Mof_C 	C 	0.3945	0.4736	0.3542	0.114
Mof_C 	C 	0.3749	0.4339	0.4149	0.216
Mof_N 	N 	0.3615	0.2795	0.3857	-0.152
Mof_N 	N 	0.40539	0.3002	0.3204	-0.156
Mof_N 	N 	0.1385	0.7205	0.8857	-0.152
Mof_N 	N 	0.09461	0.6998	0.8204	-0.156
Mof_N 	N 	0.6385	0.7795	0.1143	-0.152
Mof_N 	N 	0.59461	0.8002	0.1796	-0.156
Mof_N 	N 	0.8615	0.2205	0.6143	-0.152
Mof_N 	N 	0.90539	0.1998	0.6796	-0.156
Mof_N 	N 	0.3857	0.3615	0.2795	-0.152
Mof_N 	N 	0.3204	0.40539	0.3002	-0.156
Mof_N 	N 	0.8857	0.1385	0.7205	-0.152
Mof_N 	N 	0.8204	0.09461	0.6998	-0.156
Mof_N 	N 	0.1143	0.6385	0.7795	-0.152
Mof_N 	N 	0.1796	0.59461	0.8002	-0.156
Mof_N 	N 	0.6143	0.8615	0.2205	-0.152
Mof_N 	N 	0.6796	0.90539	0.1998	-0.156
Mof_N 	N 	0.2795	0.3857	0.3615	-0.152
Mof_N 	N 	0.3002	0.3204	0.40539	-0.156
Mof_N 	N 	0.7205	0.8857	0.1385	-0.152
Mof_N 	N 	0.6998	0.8204	0.09461	-0.156
Mof_N 	N 	0.7795	0.1143	0.6385	-0.152
Mof_N 	N 	0.8002	0.1796	0.59461	-0.156
Mof_N 	N 	0.2205	0.6143	0.8615	-0.152
Mof_N 	N 	0.1998	0.6796	0.90539	-0.156
Mof_N 	N 	0.0295	0.6115	0.8643	-0.152
Mof_N 	N 	0.0502	0.65539	0.9296	-0.156
Mof_N 	N 	0.4705	0.3885	0.3643	-0.152
Mof_N 	N 	0.4498	0.34461	0.4296	-0.156
Mof_N 	N 	0.5295	0.8885	0.1357	-0.152
Mof_N 	N 	0.5502	0.84461	0.0704	-0.156
Mof_N 	N 	0.9705	0.1115	0.6357	-0.152
Mof_N 	N 	0.9498	0.15539	0.5704	-0.156
Mof_N 	N 	0.1115	0.6357	0.9705	-0.152
Mof_N 	N 	0.15539	0.5704	0.9498	-0.156
Mof_N 	N 	0.8885	0.1357	0.5295	-0.152
Mof_N 	N 	0.84461	0.0704	0.5502	-0.156
Mof_N 	N 	0.3885	0.3643	0.4705	-0.152
Mof_N 	N 	0.34461	0.4296	0.4498	-0.156
Mof_N 	N 	0.6115	0.8643	0.0295	-0.152
Mof_N 	N 	0.65539	0.9296	0.0502	-0.156
Mof_N 	N 	0.1357	0.5295	0.8885	-0.152
Mof_N 	N 	0.0704	0.5502	0.84461	-0.156
Mof_N 	N 	0.6357	0.9705	0.1115	-0.152
Mof_N 	N 	0.5704	0.9498	0.15539	-0.156
Mof_N 	N 	0.8643	0.0295	0.6115	-0.152
Mof_N 	N 	0.9296	0.0502	0.65539	-0.156
Mof_N 	N 	0.3643	0.4705	0.3885	-0.152
Mof_N 	N 	0.4296	0.4498	0.34461	-0.156
Mof_N 	N 	0.34243	0.34243	0.34243	-0.245
Mof_N 	N 	0.15757	0.65757	0.84243	-0.245
Mof_N 	N 	0.65757	0.84243	0.15757	-0.245
Mof_N 	N 	0.84243	0.15757	0.65757	-0.245
Mof_N 	N 	0.09243	0.59243	0.90757	-0.245
Mof_N 	N 	0.40757	0.40757	0.40757	-0.245
Mof_N 	N 	0.59243	0.90757	0.09243	-0.245
Mof_N 	N 	0.90757	0.09243	0.59243	-0.245
Mof_O 	O 	0.51573	0.10394	0.43113	-0.494
Mof_O 	O 	0.56235	0.12618	0.37087	-0.429
Mof_O 	O 	0.98427	0.89606	0.93113	-0.494
Mof_O 	O 	0.93765	0.87382	0.87087	-0.429
Mof_O 	O 	0.48427	0.60394	0.06887	-0.494
Mof_O 	O 	0.43765	0.62618	0.12913	-0.429
Mof_O 	O 	0.01573	0.39606	0.56887	-0.494
Mof_O 	O 	0.06235	0.37382	0.62913	-0.429
Mof_O 	O 	0.43113	0.51573	0.10394	-0.494
Mof_O 	O 	0.37087	0.56235	0.12618	-0.429
Mof_O 	O 	0.93113	0.98427	0.89606	-0.494
Mof_O 	O 	0.87087	0.93765	0.87382	-0.429
Mof_O 	O 	0.06887	0.48427	0.60394	-0.494
Mof_O 	O 	0.12913	0.43765	0.62618	-0.429
Mof_O 	O 	0.56887	0.01573	0.39606	-0.494
Mof_O 	O 	0.62913	0.06235	0.37382	-0.429
Mof_O 	O 	0.10394	0.43113	0.51573	-0.494
Mof_O 	O 	0.12618	0.37087	0.56235	-0.429
Mof_O 	O 	0.89606	0.93113	0.98427	-0.494
Mof_O 	O 	0.87382	0.87087	0.93765	-0.429
Mof_O 	O 	0.60394	0.06887	0.48427	-0.494
Mof_O 	O 	0.62618	0.12913	0.43765	-0.429
Mof_O 	O 	0.39606	0.56887	0.01573	-0.494
Mof_O 	O 	0.37382	0.62913	0.06235	-0.429
Mof_O 	O 	0.85394	0.76573	0.81887	-0.494
Mof_O 	O 	0.87618	0.81235	0.87913	-0.429
Mof_O 	O 	0.64606	0.23427	0.31887	-0.494
Mof_O 	O 	0.62382	0.18765	0.37913	-0.429
Mof_O 	O 	0.35394	0.73427	0.18113	-0.494
Mof_O 	O 	0.37618	0.68765	0.12087	-0.429
Mof_O 	O 	0.14606	0.26573	0.68113	-0.494
Mof_O 	O 	0.12382	0.31235	0.62087	-0.429
Mof_O 	O 	0.26573	0.68113	0.14606	-0.494
Mof_O 	O 	0.31235	0.62087	0.12382	-0.429
Mof_O 	O 	0.73427	0.18113	0.35394	-0.494
Mof_O 	O 	0.68765	0.12087	0.37618	-0.429
Mof_O 	O 	0.23427	0.31887	0.64606	-0.494
Mof_O 	O 	0.18765	0.37913	0.62382	-0.429
Mof_O 	O 	0.76573	0.81887	0.85394	-0.494
Mof_O 	O 	0.81235	0.87913	0.87618	-0.429
Mof_O 	O 	0.18113	0.35394	0.73427	-0.494
Mof_O 	O 	0.12087	0.37618	0.68765	-0.429
Mof_O 	O 	0.68113	0.14606	0.26573	-0.494
Mof_O 	O 	0.62087	0.12382	0.31235	-0.429
Mof_O 	O 	0.81887	0.85394	0.76573	-0.494
Mof_O 	O 	0.87913	0.87618	0.81235	-0.429
Mof_O 	O 	0.31887	0.64606	0.23427	-0.494
Mof_O 	O 	0.37913	0.62382	0.18765	-0.429
_end
