# CIF file generated by openbabel 3.1.0, see https://openbabel.org
data_I
_chemical_name_common 'image0'
_cell_length_a 30.7158
_cell_length_b 30.7158
_cell_length_c 30.7158
_cell_angle_alpha 90
_cell_angle_beta 90
_cell_angle_gamma 90
_space_group_name_H-M_alt 'P 1'
_space_group_name_Hall 'P 1'
loop_
    _symmetry_equiv_pos_as_xyz
    x,y,z
loop_
    _atom_site_label
    _atom_site_type_symbol
    _atom_site_fract_x
    _atom_site_fract_y
    _atom_site_fract_z
    _atom_site_occupancy
    O1       O        0.59374    0.56022    0.27396    1.000
    O2       O        0.56512    0.53216    0.21466    1.000
    O3       O        0.40090    0.65340    0.18320    1.000
    C1       C        0.56480    0.56020    0.24410    1.000
    C2       C        0.53010    0.59340    0.24490    1.000
    C3       C        0.49860    0.59380    0.21370    1.000
    O4       O        0.09374    0.06022    0.77396    1.000
    O5       O        0.06512    0.03216    0.71466    1.000
    O6       O        0.90090    0.15340    0.68320    1.000
    C4       C        0.06480    0.06020    0.74410    1.000
    C5       C        0.03010    0.09340    0.74490    1.000
    C6       C        0.99860    0.09380    0.71370    1.000
    O7       O        0.90626    0.43978    0.77396    1.000
    O8       O        0.93488    0.46784    0.71466    1.000
    O9       O        0.09910    0.34660    0.68320    1.000
    C7       C        0.93520    0.43980    0.74410    1.000
    C8       C        0.96990    0.40660    0.74490    1.000
    C9       C        0.00140    0.40620    0.71370    1.000
    O10      O        0.40626    0.93978    0.27396    1.000
    O11      O        0.43488    0.96784    0.21466    1.000
    O12      O        0.59910    0.84660    0.18320    1.000
    C10      C        0.43520    0.93980    0.24410    1.000
    C11      C        0.46990    0.90660    0.24490    1.000
    C12      C        0.50140    0.90620    0.21370    1.000
    O13      O        0.40626    0.06022    0.22604    1.000
    O14      O        0.43488    0.03216    0.28534    1.000
    O15      O        0.59910    0.15340    0.31680    1.000
    C13      C        0.43520    0.06020    0.25590    1.000
    C14      C        0.46990    0.09340    0.25510    1.000
    C15      C        0.50140    0.09380    0.28630    1.000
    O16      O        0.90626    0.56022    0.72604    1.000
    O17      O        0.93488    0.53216    0.78534    1.000
    O18      O        0.09910    0.65340    0.81680    1.000
    C16      C        0.93520    0.56020    0.75590    1.000
    C17      C        0.96990    0.59340    0.75510    1.000
    C18      C        0.00140    0.59380    0.78630    1.000
    O19      O        0.09374    0.93978    0.72604    1.000
    O20      O        0.06512    0.96784    0.78534    1.000
    O21      O        0.90090    0.84660    0.81680    1.000
    C19      C        0.06480    0.93980    0.75590    1.000
    C20      C        0.03010    0.90660    0.75510    1.000
    C21      C        0.99860    0.90620    0.78630    1.000
    O22      O        0.59374    0.43978    0.22604    1.000
    O23      O        0.56512    0.46784    0.28534    1.000
    O24      O        0.40090    0.34660    0.31680    1.000
    C22      C        0.56480    0.43980    0.25590    1.000
    C23      C        0.53010    0.40660    0.25510    1.000
    C24      C        0.49860    0.40620    0.28630    1.000
    O25      O        0.27396    0.59374    0.56022    1.000
    O26      O        0.21466    0.56512    0.53216    1.000
    O27      O        0.18320    0.40090    0.65340    1.000
    C25      C        0.24410    0.56480    0.56020    1.000
    C26      C        0.24490    0.53010    0.59340    1.000
    C27      C        0.21370    0.49860    0.59380    1.000
    O28      O        0.77396    0.09374    0.06022    1.000
    O29      O        0.71466    0.06512    0.03216    1.000
    O30      O        0.68320    0.90090    0.15340    1.000
    C28      C        0.74410    0.06480    0.06020    1.000
    C29      C        0.74490    0.03010    0.09340    1.000
    C30      C        0.71370    0.99860    0.09380    1.000
    O31      O        0.77396    0.90626    0.43978    1.000
    O32      O        0.71466    0.93488    0.46784    1.000
    O33      O        0.68320    0.09910    0.34660    1.000
    C31      C        0.74410    0.93520    0.43980    1.000
    C32      C        0.74490    0.96990    0.40660    1.000
    C33      C        0.71370    0.00140    0.40620    1.000
    O34      O        0.27396    0.40626    0.93978    1.000
    O35      O        0.21466    0.43488    0.96784    1.000
    O36      O        0.18320    0.59910    0.84660    1.000
    C34      C        0.24410    0.43520    0.93980    1.000
    C35      C        0.24490    0.46990    0.90660    1.000
    C36      C        0.21370    0.50140    0.90620    1.000
    O37      O        0.22604    0.40626    0.06022    1.000
    O38      O        0.28534    0.43488    0.03216    1.000
    O39      O        0.31680    0.59910    0.15340    1.000
    C37      C        0.25590    0.43520    0.06020    1.000
    C38      C        0.25510    0.46990    0.09340    1.000
    C39      C        0.28630    0.50140    0.09380    1.000
    O40      O        0.72604    0.90626    0.56022    1.000
    O41      O        0.78534    0.93488    0.53216    1.000
    O42      O        0.81680    0.09910    0.65340    1.000
    C40      C        0.75590    0.93520    0.56020    1.000
    C41      C        0.75510    0.96990    0.59340    1.000
    C42      C        0.78630    0.00140    0.59380    1.000
    O43      O        0.72604    0.09374    0.93978    1.000
    O44      O        0.78534    0.06512    0.96784    1.000
    O45      O        0.81680    0.90090    0.84660    1.000
    C43      C        0.75590    0.06480    0.93980    1.000
    C44      C        0.75510    0.03010    0.90660    1.000
    C45      C        0.78630    0.99860    0.90620    1.000
    O46      O        0.22604    0.59374    0.43978    1.000
    O47      O        0.28534    0.56512    0.46784    1.000
    O48      O        0.31680    0.40090    0.34660    1.000
    C46      C        0.25590    0.56480    0.43980    1.000
    C47      C        0.25510    0.53010    0.40660    1.000
    C48      C        0.28630    0.49860    0.40620    1.000
    O49      O        0.56022    0.27396    0.59374    1.000
    O50      O        0.53216    0.21466    0.56512    1.000
    O51      O        0.65340    0.18320    0.40090    1.000
    C49      C        0.56020    0.24410    0.56480    1.000
    C50      C        0.59340    0.24490    0.53010    1.000
    C51      C        0.59380    0.21370    0.49860    1.000
    O52      O        0.06022    0.77396    0.09374    1.000
    O53      O        0.03216    0.71466    0.06512    1.000
    O54      O        0.15340    0.68320    0.90090    1.000
    C52      C        0.06020    0.74410    0.06480    1.000
    C53      C        0.09340    0.74490    0.03010    1.000
    C54      C        0.09380    0.71370    0.99860    1.000
    O55      O        0.43978    0.77396    0.90626    1.000
    O56      O        0.46784    0.71466    0.93488    1.000
    O57      O        0.34660    0.68320    0.09910    1.000
    C55      C        0.43980    0.74410    0.93520    1.000
    C56      C        0.40660    0.74490    0.96990    1.000
    C57      C        0.40620    0.71370    0.00140    1.000
    O58      O        0.93978    0.27396    0.40626    1.000
    O59      O        0.96784    0.21466    0.43488    1.000
    O60      O        0.84660    0.18320    0.59910    1.000
    C58      C        0.93980    0.24410    0.43520    1.000
    C59      C        0.90660    0.24490    0.46990    1.000
    C60      C        0.90620    0.21370    0.50140    1.000
    O61      O        0.06022    0.22604    0.40626    1.000
    O62      O        0.03216    0.28534    0.43488    1.000
    O63      O        0.15340    0.31680    0.59910    1.000
    C61      C        0.06020    0.25590    0.43520    1.000
    C62      C        0.09340    0.25510    0.46990    1.000
    C63      C        0.09380    0.28630    0.50140    1.000
    O64      O        0.56022    0.72604    0.90626    1.000
    O65      O        0.53216    0.78534    0.93488    1.000
    O66      O        0.65340    0.81680    0.09910    1.000
    C64      C        0.56020    0.75590    0.93520    1.000
    C65      C        0.59340    0.75510    0.96990    1.000
    C66      C        0.59380    0.78630    0.00140    1.000
    O67      O        0.93978    0.72604    0.09374    1.000
    O68      O        0.96784    0.78534    0.06512    1.000
    O69      O        0.84660    0.81680    0.90090    1.000
    C67      C        0.93980    0.75590    0.06480    1.000
    C68      C        0.90660    0.75510    0.03010    1.000
    C69      C        0.90620    0.78630    0.99860    1.000
    O70      O        0.43978    0.22604    0.59374    1.000
    O71      O        0.46784    0.28534    0.56512    1.000
    O72      O        0.34660    0.31680    0.40090    1.000
    C70      C        0.43980    0.25590    0.56480    1.000
    C71      C        0.40660    0.25510    0.53010    1.000
    C72      C        0.40620    0.28630    0.49860    1.000
    O73      O        0.31022    0.84374    0.97604    1.000
    O74      O        0.28216    0.81512    0.03534    1.000
    O75      O        0.40340    0.65090    0.06680    1.000
    C73      C        0.31020    0.81480    0.00590    1.000
    C74      C        0.34340    0.78010    0.00510    1.000
    C75      C        0.34380    0.74860    0.03630    1.000
    O76      O        0.81022    0.34374    0.47604    1.000
    O77      O        0.78216    0.31512    0.53534    1.000
    O78      O        0.90340    0.15090    0.56680    1.000
    C76      C        0.81020    0.31480    0.50590    1.000
    C77      C        0.84340    0.28010    0.50510    1.000
    C78      C        0.84380    0.24860    0.53630    1.000
    O79      O        0.18978    0.15626    0.47604    1.000
    O80      O        0.21784    0.18488    0.53534    1.000
    O81      O        0.09660    0.34910    0.56680    1.000
    C79      C        0.18980    0.18520    0.50590    1.000
    C80      C        0.15660    0.21990    0.50510    1.000
    C81      C        0.15620    0.25140    0.53630    1.000
    O82      O        0.68978    0.65626    0.97604    1.000
    O83      O        0.71784    0.68488    0.03534    1.000
    O84      O        0.59660    0.84910    0.06680    1.000
    C82      C        0.68980    0.68520    0.00590    1.000
    C83      C        0.65660    0.71990    0.00510    1.000
    C84      C        0.65620    0.75140    0.03630    1.000
    O85      O        0.81022    0.65626    0.02396    1.000
    O86      O        0.78216    0.68488    0.96466    1.000
    O87      O        0.90340    0.84910    0.93320    1.000
    C85      C        0.81020    0.68520    0.99410    1.000
    C86      C        0.84340    0.71990    0.99490    1.000
    C87      C        0.84380    0.75140    0.96370    1.000
    O88      O        0.31022    0.15626    0.52396    1.000
    O89      O        0.28216    0.18488    0.46466    1.000
    O90      O        0.40340    0.34910    0.43320    1.000
    C88      C        0.31020    0.18520    0.49410    1.000
    C89      C        0.34340    0.21990    0.49490    1.000
    C90      C        0.34380    0.25140    0.46370    1.000
    O91      O        0.68978    0.34374    0.52396    1.000
    O92      O        0.71784    0.31512    0.46466    1.000
    O93      O        0.59660    0.15090    0.43320    1.000
    C91      C        0.68980    0.31480    0.49410    1.000
    C92      C        0.65660    0.28010    0.49490    1.000
    C93      C        0.65620    0.24860    0.46370    1.000
    O94      O        0.18978    0.84374    0.02396    1.000
    O95      O        0.21784    0.81512    0.96466    1.000
    O96      O        0.09660    0.65090    0.93320    1.000
    C94      C        0.18980    0.81480    0.99410    1.000
    C95      C        0.15660    0.78010    0.99490    1.000
    C96      C        0.15620    0.74860    0.96370    1.000
    O97      O        0.34374    0.52396    0.68978    1.000
    O98      O        0.31512    0.46466    0.71784    1.000
    O99      O        0.15090    0.43320    0.59660    1.000
    C97      C        0.31480    0.49410    0.68980    1.000
    C98      C        0.28010    0.49490    0.65660    1.000
    C99      C        0.24860    0.46370    0.65620    1.000
    O100     O        0.84374    0.02396    0.18978    1.000
    O101     O        0.81512    0.96466    0.21784    1.000
    O102     O        0.65090    0.93320    0.09660    1.000
    C100     C        0.81480    0.99410    0.18980    1.000
    C101     C        0.78010    0.99490    0.15660    1.000
    C102     C        0.74860    0.96370    0.15620    1.000
    O103     O        0.65626    0.02396    0.81022    1.000
    O104     O        0.68488    0.96466    0.78216    1.000
    O105     O        0.84910    0.93320    0.90340    1.000
    C103     C        0.68520    0.99410    0.81020    1.000
    C104     C        0.71990    0.99490    0.84340    1.000
    C105     C        0.75140    0.96370    0.84380    1.000
    O106     O        0.15626    0.52396    0.31022    1.000
    O107     O        0.18488    0.46466    0.28216    1.000
    O108     O        0.34910    0.43320    0.40340    1.000
    C106     C        0.18520    0.49410    0.31020    1.000
    C107     C        0.21990    0.49490    0.34340    1.000
    C108     C        0.25140    0.46370    0.34380    1.000
    O109     O        0.15626    0.47604    0.18978    1.000
    O110     O        0.18488    0.53534    0.21784    1.000
    O111     O        0.34910    0.56680    0.09660    1.000
    C109     C        0.18520    0.50590    0.18980    1.000
    C110     C        0.21990    0.50510    0.15660    1.000
    C111     C        0.25140    0.53630    0.15620    1.000
    O112     O        0.65626    0.97604    0.68978    1.000
    O113     O        0.68488    0.03534    0.71784    1.000
    O114     O        0.84910    0.06680    0.59660    1.000
    C112     C        0.68520    0.00590    0.68980    1.000
    C113     C        0.71990    0.00510    0.65660    1.000
    C114     C        0.75140    0.03630    0.65620    1.000
    O115     O        0.84374    0.97604    0.31022    1.000
    O116     O        0.81512    0.03534    0.28216    1.000
    O117     O        0.65090    0.06680    0.40340    1.000
    C115     C        0.81480    0.00590    0.31020    1.000
    C116     C        0.78010    0.00510    0.34340    1.000
    C117     C        0.74860    0.03630    0.34380    1.000
    O118     O        0.34374    0.47604    0.81022    1.000
    O119     O        0.31512    0.53534    0.78216    1.000
    O120     O        0.15090    0.56680    0.90340    1.000
    C118     C        0.31480    0.50590    0.81020    1.000
    C119     C        0.28010    0.50510    0.84340    1.000
    C120     C        0.24860    0.53630    0.84380    1.000
    O121     O        0.02396    0.81022    0.65626    1.000
    O122     O        0.96466    0.78216    0.68488    1.000
    O123     O        0.93320    0.90340    0.84910    1.000
    C121     C        0.99410    0.81020    0.68520    1.000
    C122     C        0.99490    0.84340    0.71990    1.000
    C123     C        0.96370    0.84380    0.75140    1.000
    O124     O        0.52396    0.31022    0.15626    1.000
    O125     O        0.46466    0.28216    0.18488    1.000
    O126     O        0.43320    0.40340    0.34910    1.000
    C124     C        0.49410    0.31020    0.18520    1.000
    C125     C        0.49490    0.34340    0.21990    1.000
    C126     C        0.46370    0.34380    0.25140    1.000
    O127     O        0.52396    0.68978    0.34374    1.000
    O128     O        0.46466    0.71784    0.31512    1.000
    O129     O        0.43320    0.59660    0.15090    1.000
    C127     C        0.49410    0.68980    0.31480    1.000
    C128     C        0.49490    0.65660    0.28010    1.000
    C129     C        0.46370    0.65620    0.24860    1.000
    O130     O        0.02396    0.18978    0.84374    1.000
    O131     O        0.96466    0.21784    0.81512    1.000
    O132     O        0.93320    0.09660    0.65090    1.000
    C130     C        0.99410    0.18980    0.81480    1.000
    C131     C        0.99490    0.15660    0.78010    1.000
    C132     C        0.96370    0.15620    0.74860    1.000
    O133     O        0.97604    0.31022    0.84374    1.000
    O134     O        0.03534    0.28216    0.81512    1.000
    O135     O        0.06680    0.40340    0.65090    1.000
    C133     C        0.00590    0.31020    0.81480    1.000
    C134     C        0.00510    0.34340    0.78010    1.000
    C135     C        0.03630    0.34380    0.74860    1.000
    O136     O        0.47604    0.81022    0.34374    1.000
    O137     O        0.53534    0.78216    0.31512    1.000
    O138     O        0.56680    0.90340    0.15090    1.000
    C136     C        0.50590    0.81020    0.31480    1.000
    C137     C        0.50510    0.84340    0.28010    1.000
    C138     C        0.53630    0.84380    0.24860    1.000
    O139     O        0.47604    0.18978    0.15626    1.000
    O140     O        0.53534    0.21784    0.18488    1.000
    O141     O        0.56680    0.09660    0.34910    1.000
    C139     C        0.50590    0.18980    0.18520    1.000
    C140     C        0.50510    0.15660    0.21990    1.000
    C141     C        0.53630    0.15620    0.25140    1.000
    O142     O        0.97604    0.68978    0.65626    1.000
    O143     O        0.03534    0.71784    0.68488    1.000
    O144     O        0.06680    0.59660    0.84910    1.000
    C142     C        0.00590    0.68980    0.68520    1.000
    C143     C        0.00510    0.65660    0.71990    1.000
    C144     C        0.03630    0.65620    0.75140    1.000
    O145     O        0.40626    0.43978    0.72604    1.000
    O146     O        0.43488    0.46784    0.78534    1.000
    O147     O        0.59910    0.34660    0.81680    1.000
    C145     C        0.43520    0.43980    0.75590    1.000
    C146     C        0.46990    0.40660    0.75510    1.000
    C147     C        0.50140    0.40620    0.78630    1.000
    O148     O        0.90626    0.93978    0.22604    1.000
    O149     O        0.93488    0.96784    0.28534    1.000
    O150     O        0.09910    0.84660    0.31680    1.000
    C148     C        0.93520    0.93980    0.25590    1.000
    C149     C        0.96990    0.90660    0.25510    1.000
    C150     C        0.00140    0.90620    0.28630    1.000
    O151     O        0.09374    0.56022    0.22604    1.000
    O152     O        0.06512    0.53216    0.28534    1.000
    O153     O        0.90090    0.65340    0.31680    1.000
    C151     C        0.06480    0.56020    0.25590    1.000
    C152     C        0.03010    0.59340    0.25510    1.000
    C153     C        0.99860    0.59380    0.28630    1.000
    O154     O        0.59374    0.06022    0.72604    1.000
    O155     O        0.56512    0.03216    0.78534    1.000
    O156     O        0.40090    0.15340    0.81680    1.000
    C154     C        0.56480    0.06020    0.75590    1.000
    C155     C        0.53010    0.09340    0.75510    1.000
    C156     C        0.49860    0.09380    0.78630    1.000
    O157     O        0.59374    0.93978    0.77396    1.000
    O158     O        0.56512    0.96784    0.71466    1.000
    O159     O        0.40090    0.84660    0.68320    1.000
    C157     C        0.56480    0.93980    0.74410    1.000
    C158     C        0.53010    0.90660    0.74490    1.000
    C159     C        0.49860    0.90620    0.71370    1.000
    O160     O        0.09374    0.43978    0.27396    1.000
    O161     O        0.06512    0.46784    0.21466    1.000
    O162     O        0.90090    0.34660    0.18320    1.000
    C160     C        0.06480    0.43980    0.24410    1.000
    C161     C        0.03010    0.40660    0.24490    1.000
    C162     C        0.99860    0.40620    0.21370    1.000
    O163     O        0.90626    0.06022    0.27396    1.000
    O164     O        0.93488    0.03216    0.21466    1.000
    O165     O        0.09910    0.15340    0.18320    1.000
    C163     C        0.93520    0.06020    0.24410    1.000
    C164     C        0.96990    0.09340    0.24490    1.000
    C165     C        0.00140    0.09380    0.21370    1.000
    O166     O        0.40626    0.56022    0.77396    1.000
    O167     O        0.43488    0.53216    0.71466    1.000
    O168     O        0.59910    0.65340    0.68320    1.000
    C166     C        0.43520    0.56020    0.74410    1.000
    C167     C        0.46990    0.59340    0.74490    1.000
    C168     C        0.50140    0.59380    0.71370    1.000
    O169     O        0.72604    0.40626    0.43978    1.000
    O170     O        0.78534    0.43488    0.46784    1.000
    O171     O        0.81680    0.59910    0.34660    1.000
    C169     C        0.75590    0.43520    0.43980    1.000
    C170     C        0.75510    0.46990    0.40660    1.000
    C171     C        0.78630    0.50140    0.40620    1.000
    O172     O        0.22604    0.90626    0.93978    1.000
    O173     O        0.28534    0.93488    0.96784    1.000
    O174     O        0.31680    0.09910    0.84660    1.000
    C172     C        0.25590    0.93520    0.93980    1.000
    C173     C        0.25510    0.96990    0.90660    1.000
    C174     C        0.28630    0.00140    0.90620    1.000
    O175     O        0.22604    0.09374    0.56022    1.000
    O176     O        0.28534    0.06512    0.53216    1.000
    O177     O        0.31680    0.90090    0.65340    1.000
    C175     C        0.25590    0.06480    0.56020    1.000
    C176     C        0.25510    0.03010    0.59340    1.000
    C177     C        0.28630    0.99860    0.59380    1.000
    O178     O        0.72604    0.59374    0.06022    1.000
    O179     O        0.78534    0.56512    0.03216    1.000
    O180     O        0.81680    0.40090    0.15340    1.000
    C178     C        0.75590    0.56480    0.06020    1.000
    C179     C        0.75510    0.53010    0.09340    1.000
    C180     C        0.78630    0.49860    0.09380    1.000
    O181     O        0.77396    0.59374    0.93978    1.000
    O182     O        0.71466    0.56512    0.96784    1.000
    O183     O        0.68320    0.40090    0.84660    1.000
    C181     C        0.74410    0.56480    0.93980    1.000
    C182     C        0.74490    0.53010    0.90660    1.000
    C183     C        0.71370    0.49860    0.90620    1.000
    O184     O        0.27396    0.09374    0.43978    1.000
    O185     O        0.21466    0.06512    0.46784    1.000
    O186     O        0.18320    0.90090    0.34660    1.000
    C184     C        0.24410    0.06480    0.43980    1.000
    C185     C        0.24490    0.03010    0.40660    1.000
    C186     C        0.21370    0.99860    0.40620    1.000
    O187     O        0.27396    0.90626    0.06022    1.000
    O188     O        0.21466    0.93488    0.03216    1.000
    O189     O        0.18320    0.09910    0.15340    1.000
    C187     C        0.24410    0.93520    0.06020    1.000
    C188     C        0.24490    0.96990    0.09340    1.000
    C189     C        0.21370    0.00140    0.09380    1.000
    O190     O        0.77396    0.40626    0.56022    1.000
    O191     O        0.71466    0.43488    0.53216    1.000
    O192     O        0.68320    0.59910    0.65340    1.000
    C190     C        0.74410    0.43520    0.56020    1.000
    C191     C        0.74490    0.46990    0.59340    1.000
    C192     C        0.71370    0.50140    0.59380    1.000
    O193     O        0.43978    0.72604    0.40626    1.000
    O194     O        0.46784    0.78534    0.43488    1.000
    O195     O        0.34660    0.81680    0.59910    1.000
    C193     C        0.43980    0.75590    0.43520    1.000
    C194     C        0.40660    0.75510    0.46990    1.000
    C195     C        0.40620    0.78630    0.50140    1.000
    O196     O        0.93978    0.22604    0.90626    1.000
    O197     O        0.96784    0.28534    0.93488    1.000
    O198     O        0.84660    0.31680    0.09910    1.000
    C196     C        0.93980    0.25590    0.93520    1.000
    C197     C        0.90660    0.25510    0.96990    1.000
    C198     C        0.90620    0.28630    0.00140    1.000
    O199     O        0.56022    0.22604    0.09374    1.000
    O200     O        0.53216    0.28534    0.06512    1.000
    O201     O        0.65340    0.31680    0.90090    1.000
    C199     C        0.56020    0.25590    0.06480    1.000
    C200     C        0.59340    0.25510    0.03010    1.000
    C201     C        0.59380    0.28630    0.99860    1.000
    O202     O        0.06022    0.72604    0.59374    1.000
    O203     O        0.03216    0.78534    0.56512    1.000
    O204     O        0.15340    0.81680    0.40090    1.000
    C202     C        0.06020    0.75590    0.56480    1.000
    C203     C        0.09340    0.75510    0.53010    1.000
    C204     C        0.09380    0.78630    0.49860    1.000
    O205     O        0.93978    0.77396    0.59374    1.000
    O206     O        0.96784    0.71466    0.56512    1.000
    O207     O        0.84660    0.68320    0.40090    1.000
    C205     C        0.93980    0.74410    0.56480    1.000
    C206     C        0.90660    0.74490    0.53010    1.000
    C207     C        0.90620    0.71370    0.49860    1.000
    O208     O        0.43978    0.27396    0.09374    1.000
    O209     O        0.46784    0.21466    0.06512    1.000
    O210     O        0.34660    0.18320    0.90090    1.000
    C208     C        0.43980    0.24410    0.06480    1.000
    C209     C        0.40660    0.24490    0.03010    1.000
    C210     C        0.40620    0.21370    0.99860    1.000
    O211     O        0.06022    0.27396    0.90626    1.000
    O212     O        0.03216    0.21466    0.93488    1.000
    O213     O        0.15340    0.18320    0.09910    1.000
    C211     C        0.06020    0.24410    0.93520    1.000
    C212     C        0.09340    0.24490    0.96990    1.000
    C213     C        0.09380    0.21370    0.00140    1.000
    O214     O        0.56022    0.77396    0.40626    1.000
    O215     O        0.53216    0.71466    0.43488    1.000
    O216     O        0.65340    0.68320    0.59910    1.000
    C214     C        0.56020    0.74410    0.43520    1.000
    C215     C        0.59340    0.74490    0.46990    1.000
    C216     C        0.59380    0.71370    0.50140    1.000
    O217     O        0.68978    0.15626    0.02396    1.000
    O218     O        0.71784    0.18488    0.96466    1.000
    O219     O        0.59660    0.34910    0.93320    1.000
    C217     C        0.68980    0.18520    0.99410    1.000
    C218     C        0.65660    0.21990    0.99490    1.000
    C219     C        0.65620    0.25140    0.96370    1.000
    O220     O        0.18978    0.65626    0.52396    1.000
    O221     O        0.21784    0.68488    0.46466    1.000
    O222     O        0.09660    0.84910    0.43320    1.000
    C220     C        0.18980    0.68520    0.49410    1.000
    C221     C        0.15660    0.71990    0.49490    1.000
    C222     C        0.15620    0.75140    0.46370    1.000
    O223     O        0.81022    0.84374    0.52396    1.000
    O224     O        0.78216    0.81512    0.46466    1.000
    O225     O        0.90340    0.65090    0.43320    1.000
    C223     C        0.81020    0.81480    0.49410    1.000
    C224     C        0.84340    0.78010    0.49490    1.000
    C225     C        0.84380    0.74860    0.46370    1.000
    O226     O        0.31022    0.34374    0.02396    1.000
    O227     O        0.28216    0.31512    0.96466    1.000
    O228     O        0.40340    0.15090    0.93320    1.000
    C226     C        0.31020    0.31480    0.99410    1.000
    C227     C        0.34340    0.28010    0.99490    1.000
    C228     C        0.34380    0.24860    0.96370    1.000
    O229     O        0.18978    0.34374    0.97604    1.000
    O230     O        0.21784    0.31512    0.03534    1.000
    O231     O        0.09660    0.15090    0.06680    1.000
    C229     C        0.18980    0.31480    0.00590    1.000
    C230     C        0.15660    0.28010    0.00510    1.000
    C231     C        0.15620    0.24860    0.03630    1.000
    O232     O        0.68978    0.84374    0.47604    1.000
    O233     O        0.71784    0.81512    0.53534    1.000
    O234     O        0.59660    0.65090    0.56680    1.000
    C232     C        0.68980    0.81480    0.50590    1.000
    C233     C        0.65660    0.78010    0.50510    1.000
    C234     C        0.65620    0.74860    0.53630    1.000
    O235     O        0.31022    0.65626    0.47604    1.000
    O236     O        0.28216    0.68488    0.53534    1.000
    O237     O        0.40340    0.84910    0.56680    1.000
    C235     C        0.31020    0.68520    0.50590    1.000
    C236     C        0.34340    0.71990    0.50510    1.000
    C237     C        0.34380    0.75140    0.53630    1.000
    O238     O        0.81022    0.15626    0.97604    1.000
    O239     O        0.78216    0.18488    0.03534    1.000
    O240     O        0.90340    0.34910    0.06680    1.000
    C238     C        0.81020    0.18520    0.00590    1.000
    C239     C        0.84340    0.21990    0.00510    1.000
    C240     C        0.84380    0.25140    0.03630    1.000
    O241     O        0.65626    0.47604    0.31022    1.000
    O242     O        0.68488    0.53534    0.28216    1.000
    O243     O        0.84910    0.56680    0.40340    1.000
    C241     C        0.68520    0.50590    0.31020    1.000
    C242     C        0.71990    0.50510    0.34340    1.000
    C243     C        0.75140    0.53630    0.34380    1.000
    O244     O        0.15626    0.97604    0.81022    1.000
    O245     O        0.18488    0.03534    0.78216    1.000
    O246     O        0.34910    0.06680    0.90340    1.000
    C244     C        0.18520    0.00590    0.81020    1.000
    C245     C        0.21990    0.00510    0.84340    1.000
    C246     C        0.25140    0.03630    0.84380    1.000
    O247     O        0.34374    0.97604    0.18978    1.000
    O248     O        0.31512    0.03534    0.21784    1.000
    O249     O        0.15090    0.06680    0.09660    1.000
    C247     C        0.31480    0.00590    0.18980    1.000
    C248     C        0.28010    0.00510    0.15660    1.000
    C249     C        0.24860    0.03630    0.15620    1.000
    O250     O        0.84374    0.47604    0.68978    1.000
    O251     O        0.81512    0.53534    0.71784    1.000
    O252     O        0.65090    0.56680    0.59660    1.000
    C250     C        0.81480    0.50590    0.68980    1.000
    C251     C        0.78010    0.50510    0.65660    1.000
    C252     C        0.74860    0.53630    0.65620    1.000
    O253     O        0.84374    0.52396    0.81022    1.000
    O254     O        0.81512    0.46466    0.78216    1.000
    O255     O        0.65090    0.43320    0.90340    1.000
    C253     C        0.81480    0.49410    0.81020    1.000
    C254     C        0.78010    0.49490    0.84340    1.000
    C255     C        0.74860    0.46370    0.84380    1.000
    O256     O        0.34374    0.02396    0.31022    1.000
    O257     O        0.31512    0.96466    0.28216    1.000
    O258     O        0.15090    0.93320    0.40340    1.000
    C256     C        0.31480    0.99410    0.31020    1.000
    C257     C        0.28010    0.99490    0.34340    1.000
    C258     C        0.24860    0.96370    0.34380    1.000
    O259     O        0.15626    0.02396    0.68978    1.000
    O260     O        0.18488    0.96466    0.71784    1.000
    O261     O        0.34910    0.93320    0.59660    1.000
    C259     C        0.18520    0.99410    0.68980    1.000
    C260     C        0.21990    0.99490    0.65660    1.000
    C261     C        0.25140    0.96370    0.65620    1.000
    O262     O        0.65626    0.52396    0.18978    1.000
    O263     O        0.68488    0.46466    0.21784    1.000
    O264     O        0.84910    0.43320    0.09660    1.000
    C262     C        0.68520    0.49410    0.18980    1.000
    C263     C        0.71990    0.49490    0.15660    1.000
    C264     C        0.75140    0.46370    0.15620    1.000
    O265     O        0.97604    0.18978    0.34374    1.000
    O266     O        0.03534    0.21784    0.31512    1.000
    O267     O        0.06680    0.09660    0.15090    1.000
    C265     C        0.00590    0.18980    0.31480    1.000
    C266     C        0.00510    0.15660    0.28010    1.000
    C267     C        0.03630    0.15620    0.24860    1.000
    O268     O        0.47604    0.68978    0.84374    1.000
    O269     O        0.53534    0.71784    0.81512    1.000
    O270     O        0.56680    0.59660    0.65090    1.000
    C268     C        0.50590    0.68980    0.81480    1.000
    C269     C        0.50510    0.65660    0.78010    1.000
    C270     C        0.53630    0.65620    0.74860    1.000
    O271     O        0.47604    0.31022    0.65626    1.000
    O272     O        0.53534    0.28216    0.68488    1.000
    O273     O        0.56680    0.40340    0.84910    1.000
    C271     C        0.50590    0.31020    0.68520    1.000
    C272     C        0.50510    0.34340    0.71990    1.000
    C273     C        0.53630    0.34380    0.75140    1.000
    O274     O        0.97604    0.81022    0.15626    1.000
    O275     O        0.03534    0.78216    0.18488    1.000
    O276     O        0.06680    0.90340    0.34910    1.000
    C274     C        0.00590    0.81020    0.18520    1.000
    C275     C        0.00510    0.84340    0.21990    1.000
    C276     C        0.03630    0.84380    0.25140    1.000
    O277     O        0.02396    0.68978    0.15626    1.000
    O278     O        0.96466    0.71784    0.18488    1.000
    O279     O        0.93320    0.59660    0.34910    1.000
    C277     C        0.99410    0.68980    0.18520    1.000
    C278     C        0.99490    0.65660    0.21990    1.000
    C279     C        0.96370    0.65620    0.25140    1.000
    O280     O        0.52396    0.18978    0.65626    1.000
    O281     O        0.46466    0.21784    0.68488    1.000
    O282     O        0.43320    0.09660    0.84910    1.000
    C280     C        0.49410    0.18980    0.68520    1.000
    C281     C        0.49490    0.15660    0.71990    1.000
    C282     C        0.46370    0.15620    0.75140    1.000
    O283     O        0.52396    0.81022    0.84374    1.000
    O284     O        0.46466    0.78216    0.81512    1.000
    O285     O        0.43320    0.90340    0.65090    1.000
    C283     C        0.49410    0.81020    0.81480    1.000
    C284     C        0.49490    0.84340    0.78010    1.000
    C285     C        0.46370    0.84380    0.74860    1.000
    O286     O        0.02396    0.31022    0.34374    1.000
    O287     O        0.96466    0.28216    0.31512    1.000
    O288     O        0.93320    0.40340    0.15090    1.000
    C286     C        0.99410    0.31020    0.31480    1.000
    C287     C        0.99490    0.34340    0.28010    1.000
    C288     C        0.96370    0.34380    0.24860    1.000
    In1      In       0.62500    0.50000    0.25000    1.000
    In2      In       0.87500    0.50000    0.75000    1.000
    In3      In       0.37500    0.00000    0.25000    1.000
    In4      In       0.12500    0.00000    0.75000    1.000
    In5      In       0.25000    0.62500    0.50000    1.000
    In6      In       0.75000    0.87500    0.50000    1.000
    In7      In       0.25000    0.37500    0.00000    1.000
    In8      In       0.75000    0.12500    0.00000    1.000
    In9      In       0.50000    0.25000    0.62500    1.000
    In10     In       0.50000    0.75000    0.87500    1.000
    In11     In       0.00000    0.25000    0.37500    1.000
    In12     In       0.00000    0.75000    0.12500    1.000
    In13     In       0.25000    0.87500    0.00000    1.000
    In14     In       0.25000    0.12500    0.50000    1.000
    In15     In       0.75000    0.62500    0.00000    1.000
    In16     In       0.75000    0.37500    0.50000    1.000
    In17     In       0.37500    0.50000    0.75000    1.000
    In18     In       0.62500    0.00000    0.75000    1.000
    In19     In       0.12500    0.50000    0.25000    1.000
    In20     In       0.87500    0.00000    0.25000    1.000
    In21     In       0.00000    0.75000    0.62500    1.000
    In22     In       0.50000    0.75000    0.37500    1.000
    In23     In       0.00000    0.25000    0.87500    1.000
    In24     In       0.50000    0.25000    0.12500    1.000
    Co1      Co       0.33069    0.66931    0.16931    1.000
    Co2      Co       0.34645    0.65355    0.15355    1.000
    Co3      Co       0.83069    0.16931    0.66931    1.000
    Co4      Co       0.84645    0.15355    0.65355    1.000
    Co5      Co       0.16931    0.33069    0.66931    1.000
    Co6      Co       0.15355    0.34645    0.65355    1.000
    Co7      Co       0.66931    0.83069    0.16931    1.000
    Co8      Co       0.65355    0.84645    0.15355    1.000
    Co9      Co       0.66931    0.16931    0.33069    1.000
    Co10     Co       0.65355    0.15355    0.34645    1.000
    Co11     Co       0.16931    0.66931    0.83069    1.000
    Co12     Co       0.15355    0.65355    0.84645    1.000
    Co13     Co       0.83069    0.83069    0.83069    1.000
    Co14     Co       0.84645    0.84645    0.84645    1.000
    Co15     Co       0.33069    0.33069    0.33069    1.000
    Co16     Co       0.34645    0.34645    0.34645    1.000
    Co17     Co       0.41931    0.58069    0.08069    1.000
    Co18     Co       0.40355    0.59645    0.09645    1.000
    Co19     Co       0.91931    0.08069    0.58069    1.000
    Co20     Co       0.90355    0.09645    0.59645    1.000
    Co21     Co       0.08069    0.41931    0.58069    1.000
    Co22     Co       0.09645    0.40355    0.59645    1.000
    Co23     Co       0.58069    0.91931    0.08069    1.000
    Co24     Co       0.59645    0.90355    0.09645    1.000
    Co25     Co       0.91931    0.91931    0.91931    1.000
    Co26     Co       0.90355    0.90355    0.90355    1.000
    Co27     Co       0.41931    0.41931    0.41931    1.000
    Co28     Co       0.40355    0.40355    0.40355    1.000
    Co29     Co       0.58069    0.08069    0.41931    1.000
    Co30     Co       0.59645    0.09645    0.40355    1.000
    Co31     Co       0.08069    0.58069    0.91931    1.000
    Co32     Co       0.09645    0.59645    0.90355    1.000
    Co33     Co       0.66931    0.33069    0.83069    1.000
    Co34     Co       0.65355    0.34645    0.84645    1.000
    Co35     Co       0.16931    0.83069    0.33069    1.000
    Co36     Co       0.15355    0.84645    0.34645    1.000
    Co37     Co       0.83069    0.66931    0.33069    1.000
    Co38     Co       0.84645    0.65355    0.34645    1.000
    Co39     Co       0.33069    0.16931    0.83069    1.000
    Co40     Co       0.34645    0.15355    0.84645    1.000
    Co41     Co       0.33069    0.83069    0.66931    1.000
    Co42     Co       0.34645    0.84645    0.65355    1.000
    Co43     Co       0.83069    0.33069    0.16931    1.000
    Co44     Co       0.84645    0.34645    0.15355    1.000
    Co45     Co       0.16931    0.16931    0.16931    1.000
    Co46     Co       0.15355    0.15355    0.15355    1.000
    Co47     Co       0.66931    0.66931    0.66931    1.000
    Co48     Co       0.65355    0.65355    0.65355    1.000
    Co49     Co       0.58069    0.41931    0.91931    1.000
    Co50     Co       0.59645    0.40355    0.90355    1.000
    Co51     Co       0.08069    0.91931    0.41931    1.000
    Co52     Co       0.09645    0.90355    0.40355    1.000
    Co53     Co       0.91931    0.58069    0.41931    1.000
    Co54     Co       0.90355    0.59645    0.40355    1.000
    Co55     Co       0.41931    0.08069    0.91931    1.000
    Co56     Co       0.40355    0.09645    0.90355    1.000
    Co57     Co       0.08069    0.08069    0.08069    1.000
    Co58     Co       0.09645    0.09645    0.09645    1.000
    Co59     Co       0.58069    0.58069    0.58069    1.000
    Co60     Co       0.59645    0.59645    0.59645    1.000
    Co61     Co       0.41931    0.91931    0.58069    1.000
    Co62     Co       0.40355    0.90355    0.59645    1.000
    Co63     Co       0.91931    0.41931    0.08069    1.000
    Co64     Co       0.90355    0.40355    0.09645    1.000
    C289     C        0.52960    0.62500    0.27960    1.000
    C290     C        0.42940    0.62500    0.17940    1.000
    C291     C        0.46540    0.62500    0.21540    1.000
    C292     C        0.02960    0.12500    0.77960    1.000
    C293     C        0.92940    0.12500    0.67940    1.000
    C294     C        0.96540    0.12500    0.71540    1.000
    C295     C        0.97040    0.37500    0.77960    1.000
    C296     C        0.07060    0.37500    0.67940    1.000
    C297     C        0.03460    0.37500    0.71540    1.000
    C298     C        0.47040    0.87500    0.27960    1.000
    C299     C        0.57060    0.87500    0.17940    1.000
    C300     C        0.53460    0.87500    0.21540    1.000
    C301     C        0.47040    0.12500    0.22040    1.000
    C302     C        0.57060    0.12500    0.32060    1.000
    C303     C        0.53460    0.12500    0.28460    1.000
    C304     C        0.97040    0.62500    0.72040    1.000
    C305     C        0.07060    0.62500    0.82060    1.000
    C306     C        0.03460    0.62500    0.78460    1.000
    C307     C        0.02960    0.87500    0.72040    1.000
    C308     C        0.92940    0.87500    0.82060    1.000
    C309     C        0.96540    0.87500    0.78460    1.000
    C310     C        0.52960    0.37500    0.22040    1.000
    C311     C        0.42940    0.37500    0.32060    1.000
    C312     C        0.46540    0.37500    0.28460    1.000
    C313     C        0.27960    0.52960    0.62500    1.000
    C314     C        0.17940    0.42940    0.62500    1.000
    C315     C        0.21540    0.46540    0.62500    1.000
    C316     C        0.77960    0.02960    0.12500    1.000
    C317     C        0.67940    0.92940    0.12500    1.000
    C318     C        0.71540    0.96540    0.12500    1.000
    C319     C        0.77960    0.97040    0.37500    1.000
    C320     C        0.67940    0.07060    0.37500    1.000
    C321     C        0.71540    0.03460    0.37500    1.000
    C322     C        0.27960    0.47040    0.87500    1.000
    C323     C        0.17940    0.57060    0.87500    1.000
    C324     C        0.21540    0.53460    0.87500    1.000
    C325     C        0.22040    0.47040    0.12500    1.000
    C326     C        0.32060    0.57060    0.12500    1.000
    C327     C        0.28460    0.53460    0.12500    1.000
    C328     C        0.72040    0.97040    0.62500    1.000
    C329     C        0.82060    0.07060    0.62500    1.000
    C330     C        0.78460    0.03460    0.62500    1.000
    C331     C        0.72040    0.02960    0.87500    1.000
    C332     C        0.82060    0.92940    0.87500    1.000
    C333     C        0.78460    0.96540    0.87500    1.000
    C334     C        0.22040    0.52960    0.37500    1.000
    C335     C        0.32060    0.42940    0.37500    1.000
    C336     C        0.28460    0.46540    0.37500    1.000
    C337     C        0.62500    0.27960    0.52960    1.000
    C338     C        0.62500    0.17940    0.42940    1.000
    C339     C        0.62500    0.21540    0.46540    1.000
    C340     C        0.12500    0.77960    0.02960    1.000
    C341     C        0.12500    0.67940    0.92940    1.000
    C342     C        0.12500    0.71540    0.96540    1.000
    C343     C        0.37500    0.77960    0.97040    1.000
    C344     C        0.37500    0.67940    0.07060    1.000
    C345     C        0.37500    0.71540    0.03460    1.000
    C346     C        0.87500    0.27960    0.47040    1.000
    C347     C        0.87500    0.17940    0.57060    1.000
    C348     C        0.87500    0.21540    0.53460    1.000
    C349     C        0.12500    0.22040    0.47040    1.000
    C350     C        0.12500    0.32060    0.57060    1.000
    C351     C        0.12500    0.28460    0.53460    1.000
    C352     C        0.62500    0.72040    0.97040    1.000
    C353     C        0.62500    0.82060    0.07060    1.000
    C354     C        0.62500    0.78460    0.03460    1.000
    C355     C        0.87500    0.72040    0.02960    1.000
    C356     C        0.87500    0.82060    0.92940    1.000
    C357     C        0.87500    0.78460    0.96540    1.000
    C358     C        0.37500    0.22040    0.52960    1.000
    C359     C        0.37500    0.32060    0.42940    1.000
    C360     C        0.37500    0.28460    0.46540    1.000
    C361     C        0.47040    0.37500    0.72040    1.000
    C362     C        0.57060    0.37500    0.82060    1.000
    C363     C        0.53460    0.37500    0.78460    1.000
    C364     C        0.97040    0.87500    0.22040    1.000
    C365     C        0.07060    0.87500    0.32060    1.000
    C366     C        0.03460    0.87500    0.28460    1.000
    C367     C        0.02960    0.62500    0.22040    1.000
    C368     C        0.92940    0.62500    0.32060    1.000
    C369     C        0.96540    0.62500    0.28460    1.000
    C370     C        0.52960    0.12500    0.72040    1.000
    C371     C        0.42940    0.12500    0.82060    1.000
    C372     C        0.46540    0.12500    0.78460    1.000
    C373     C        0.52960    0.87500    0.77960    1.000
    C374     C        0.42940    0.87500    0.67940    1.000
    C375     C        0.46540    0.87500    0.71540    1.000
    C376     C        0.02960    0.37500    0.27960    1.000
    C377     C        0.92940    0.37500    0.17940    1.000
    C378     C        0.96540    0.37500    0.21540    1.000
    C379     C        0.97040    0.12500    0.27960    1.000
    C380     C        0.07060    0.12500    0.17940    1.000
    C381     C        0.03460    0.12500    0.21540    1.000
    C382     C        0.47040    0.62500    0.77960    1.000
    C383     C        0.57060    0.62500    0.67940    1.000
    C384     C        0.53460    0.62500    0.71540    1.000
    C385     C        0.72040    0.47040    0.37500    1.000
    C386     C        0.82060    0.57060    0.37500    1.000
    C387     C        0.78460    0.53460    0.37500    1.000
    C388     C        0.22040    0.97040    0.87500    1.000
    C389     C        0.32060    0.07060    0.87500    1.000
    C390     C        0.28460    0.03460    0.87500    1.000
    C391     C        0.22040    0.02960    0.62500    1.000
    C392     C        0.32060    0.92940    0.62500    1.000
    C393     C        0.28460    0.96540    0.62500    1.000
    C394     C        0.72040    0.52960    0.12500    1.000
    C395     C        0.82060    0.42940    0.12500    1.000
    C396     C        0.78460    0.46540    0.12500    1.000
    C397     C        0.77960    0.52960    0.87500    1.000
    C398     C        0.67940    0.42940    0.87500    1.000
    C399     C        0.71540    0.46540    0.87500    1.000
    C400     C        0.27960    0.02960    0.37500    1.000
    C401     C        0.17940    0.92940    0.37500    1.000
    C402     C        0.21540    0.96540    0.37500    1.000
    C403     C        0.27960    0.97040    0.12500    1.000
    C404     C        0.17940    0.07060    0.12500    1.000
    C405     C        0.21540    0.03460    0.12500    1.000
    C406     C        0.77960    0.47040    0.62500    1.000
    C407     C        0.67940    0.57060    0.62500    1.000
    C408     C        0.71540    0.53460    0.62500    1.000
    C409     C        0.37500    0.72040    0.47040    1.000
    C410     C        0.37500    0.82060    0.57060    1.000
    C411     C        0.37500    0.78460    0.53460    1.000
    C412     C        0.87500    0.22040    0.97040    1.000
    C413     C        0.87500    0.32060    0.07060    1.000
    C414     C        0.87500    0.28460    0.03460    1.000
    C415     C        0.62500    0.22040    0.02960    1.000
    C416     C        0.62500    0.32060    0.92940    1.000
    C417     C        0.62500    0.28460    0.96540    1.000
    C418     C        0.12500    0.72040    0.52960    1.000
    C419     C        0.12500    0.82060    0.42940    1.000
    C420     C        0.12500    0.78460    0.46540    1.000
    C421     C        0.87500    0.77960    0.52960    1.000
    C422     C        0.87500    0.67940    0.42940    1.000
    C423     C        0.87500    0.71540    0.46540    1.000
    C424     C        0.37500    0.27960    0.02960    1.000
    C425     C        0.37500    0.17940    0.92940    1.000
    C426     C        0.37500    0.21540    0.96540    1.000
    C427     C        0.12500    0.27960    0.97040    1.000
    C428     C        0.12500    0.17940    0.07060    1.000
    C429     C        0.12500    0.21540    0.03460    1.000
    C430     C        0.62500    0.77960    0.47040    1.000
    C431     C        0.62500    0.67940    0.57060    1.000
    C432     C        0.62500    0.71540    0.53460    1.000
