# CIF file generated by openbabel 3.1.0, see https://openbabel.org
data_I
_chemical_name_common 'GUXLIU_clean'
_cell_length_a 4.9387
_cell_length_b 8.1856
_cell_length_c 12.06
_cell_angle_alpha 90
_cell_angle_beta 90
_cell_angle_gamma 92.045
_space_group_name_H-M_alt 'P 1'
_space_group_name_Hall 'P 1'
loop_
    _symmetry_equiv_pos_as_xyz
    x,y,z
loop_
    _atom_site_label
    _atom_site_type_symbol
    _atom_site_fract_x
    _atom_site_fract_y
    _atom_site_fract_z
    _atom_site_occupancy
    Al1      Al       0.75440    0.86180    0.25000    1.000
    Al2      Al       0.24560    0.13820    0.75000    1.000
    Al3      Al       0.50000    0.00000    0.50000    1.000
    Al4      Al       0.50000    0.00000    0.00000    1.000
    P1       P        0.99100    0.76590    0.48247    1.000
    P2       P        0.00900    0.23410    0.98247    1.000
    P3       P        0.00900    0.23410    0.51753    1.000
    P4       P        0.99100    0.76590    0.01753    1.000
    H1       H        0.69600    0.55100    0.52800    1.000
    H2       H        0.93700    0.56500    0.61800    1.000
    H3       H        0.30400    0.44900    0.02800    1.000
    H4       H        0.06300    0.43500    0.11800    1.000
    H5       H        0.30400    0.44900    0.47200    1.000
    H6       H        0.06300    0.43500    0.38200    1.000
    H7       H        0.69600    0.55100    0.97200    1.000
    H8       H        0.93700    0.56500    0.88200    1.000
    C1       C        0.91800    0.56440    0.53140    1.000
    C2       C        0.08200    0.43560    0.03140    1.000
    C3       C        0.08200    0.43560    0.46860    1.000
    C4       C        0.91800    0.56440    0.96860    1.000
    O1       O        0.79720    0.87820    0.54180    1.000
    O2       O        0.28200    0.80770    0.50830    1.000
    O3       O        0.94640    0.76290    0.35710    1.000
    O4       O        0.20280    0.12180    0.04180    1.000
    O5       O        0.71800    0.19230    0.00830    1.000
    O6       O        0.05360    0.23710    0.85710    1.000
    O7       O        0.20280    0.12180    0.45820    1.000
    O8       O        0.71800    0.19230    0.49170    1.000
    O9       O        0.05360    0.23710    0.64290    1.000
    O10      O        0.79720    0.87820    0.95820    1.000
    O11      O        0.28200    0.80770    0.99170    1.000
    O12      O        0.94640    0.76290    0.14290    1.000
    F1       F        0.55720    0.96420    0.35280    1.000
    F2       F        0.44280    0.03580    0.85280    1.000
    F3       F        0.44280    0.03580    0.64720    1.000
    F4       F        0.55720    0.96420    0.14720    1.000
