data_functionalizedCrystal
_audit_creation_method	'EQeq! by Chris Wilmer'
_symmetry_space_group_name_H-M	'P1'
_symmetry_Int_Tables_number	1
_symmetry_cell_setting	triclinic
loop_
_symmetry_equiv_pos_as_xyz
  x,y,z
_cell_length_a	9.103
_cell_length_b	15.4537
_cell_length_c	15.4537
_cell_angle_alpha	63.7576
_cell_angle_beta	78.6764
_cell_angle_gamma	101.324
loop_
_atom_site_label
_atom_site_type_symbol
_atom_site_fract_x
_atom_site_fract_y
_atom_site_fract_z
_atom_site_charge
Mof_Fe	Fe	0.5	0.5	-0	0.712
Mof_Fe	Fe	0.5	0	0.5	0.717
Mof_Fe	Fe	-0	0.5	0.5	0.632
Mof_Ag	Ag	0.30437	0.60874	0.69563	0.374
Mof_Ag	Ag	7.85084e-17	0.69563	0.69563	0.26
Mof_Ag	Ag	0.69563	0.69563	0.60874	0.441
Mof_Ag	Ag	0.69563	0.39126	0.30437	0.437
Mof_Ag	Ag	-1.57017e-17	0.30437	0.30437	0.251
Mof_Ag	Ag	0.30437	0.30437	0.39126	0.37
Mof_H 	H 	0.4773	0.5727	0.1486	-0.021
Mof_H 	H 	0.5296	0.7201	0.1544	0.083
Mof_H 	H 	0.6259	0.1486	0.2787	-0.019
Mof_H 	H 	0.684	0.1544	0.1255	0.084
Mof_H 	H 	0.9046	0.2787	0.5727	-0.004
Mof_H 	H 	0.8095	0.1255	0.7201	0.085
Mof_H 	H 	0.3741	0.2787	0.1486	-0.022
Mof_H 	H 	0.316	0.1255	0.1544	0.072
Mof_H 	H 	0.0954	0.5727	0.2787	-0.03
Mof_H 	H 	0.1905	0.7201	0.1255	0.072
Mof_H 	H 	0.5227	0.1486	0.5727	-0.022
Mof_H 	H 	0.4704	0.1544	0.7201	0.077
Mof_H 	H 	0.5227	0.4273	0.8514	-0.026
Mof_H 	H 	0.4704	0.2799	0.8456	0.074
Mof_H 	H 	0.3741	0.8514	0.7213	-0.024
Mof_H 	H 	0.316	0.8456	0.8745	0.077
Mof_H 	H 	0.0954	0.7213	0.4273	-0.03
Mof_H 	H 	0.1905	0.8745	0.2799	0.078
Mof_H 	H 	0.6259	0.7213	0.8514	-0.021
Mof_H 	H 	0.684	0.8745	0.8456	0.087
Mof_H 	H 	0.9046	0.4273	0.7213	-0.003
Mof_H 	H 	0.8095	0.2799	0.8745	0.091
Mof_H 	H 	0.4773	0.8514	0.4273	-0.025
Mof_H 	H 	0.5296	0.8456	0.2799	0.082
Mof_C 	C 	0.5214	0.6344	0.0876	0.087
Mof_C 	C 	0.551	0.7226	0.0918	-0.138
Mof_C 	C 	0.3646	0.586	0.8232	-0.109
Mof_C 	C 	0.609	0.0876	0.278	0.09
Mof_C 	C 	0.6428	0.0918	0.1856	-0.14
Mof_C 	C 	0.1878	0.8232	0.5908	-0.091
Mof_C 	C 	0.887	0.278	0.6344	0.092
Mof_C 	C 	0.8284	0.1856	0.7226	-0.135
Mof_C 	C 	0.7786	0.5908	0.586	-0.098
Mof_C 	C 	0.391	0.278	0.0876	0.08
Mof_C 	C 	0.3572	0.1856	0.0918	-0.141
Mof_C 	C 	0.8122	0.5908	0.8232	-0.033
Mof_C 	C 	0.113	0.6344	0.278	0.079
Mof_C 	C 	0.1716	0.7226	0.1856	-0.146
Mof_C 	C 	0.2214	0.586	0.5908	-0.114
Mof_C 	C 	0.4786	0.0876	0.6344	0.083
Mof_C 	C 	0.449	0.0918	0.7226	-0.141
Mof_C 	C 	0.6354	0.8232	0.586	-0.099
Mof_C 	C 	0.4786	0.3656	0.9124	0.102
Mof_C 	C 	0.449	0.2774	0.9082	-0.126
Mof_C 	C 	0.6354	0.414	0.1768	-0.103
Mof_C 	C 	0.391	0.9124	0.722	0.097
Mof_C 	C 	0.3572	0.9082	0.8144	-0.127
Mof_C 	C 	0.8122	0.1768	0.4092	-0.036
Mof_C 	C 	0.113	0.722	0.3656	0.08
Mof_C 	C 	0.1716	0.8144	0.2774	-0.146
Mof_C 	C 	0.2214	0.4092	0.414	-0.114
Mof_C 	C 	0.609	0.722	0.9124	0.109
Mof_C 	C 	0.6428	0.8144	0.9082	-0.12
Mof_C 	C 	0.1878	0.4092	0.1768	-0.094
Mof_C 	C 	0.887	0.3656	0.722	0.093
Mof_C 	C 	0.8284	0.2774	0.8144	-0.134
Mof_C 	C 	0.7786	0.414	0.4092	-0.098
Mof_C 	C 	0.5214	0.9124	0.3656	0.105
Mof_C 	C 	0.551	0.9082	0.2774	-0.128
Mof_C 	C 	0.3646	0.1768	0.414	-0.113
Mof_C 	C 	0.615	0.818	-0	0.04
Mof_C 	C 	0.6511	0.9143	-0	0.111
Mof_C 	C 	0.615	1.57017e-17	0.182	0.047
Mof_C 	C 	0.6511	0	0.0857	0.097
Mof_C 	C 	0.797	0.182	0.818	0.058
Mof_C 	C 	0.7368	0.0857	0.9143	0.127
Mof_C 	C 	0.385	0.182	-0	0.033
Mof_C 	C 	0.3489	0.0857	-0	0.083
Mof_C 	C 	0.203	0.818	0.182	0.048
Mof_C 	C 	0.2632	0.9143	0.0857	0.108
Mof_C 	C 	0.385	6.28067e-17	0.818	0.035
Mof_C 	C 	0.3489	6.28067e-17	0.9143	0.105
Mof_N 	N 	0.4066	0.5561	0.8932	-0.169
Mof_N 	N 	0.2998	0.8932	0.5507	-0.177
Mof_N 	N 	0.8505	0.5507	0.5561	-0.143
Mof_N 	N 	0.7002	0.5507	0.8932	-0.179
Mof_N 	N 	0.1495	0.5561	0.5507	-0.177
Mof_N 	N 	0.5934	0.8932	0.5561	-0.165
Mof_N 	N 	0.5934	0.4439	0.1068	-0.172
Mof_N 	N 	0.7002	0.1068	0.4493	-0.188
Mof_N 	N 	0.1495	0.4493	0.4439	-0.177
Mof_N 	N 	0.2998	0.4493	0.1068	-0.184
Mof_N 	N 	0.8505	0.4439	0.4493	-0.143
Mof_N 	N 	0.4066	0.1068	0.4439	-0.178
Mof_N 	N 	0.5527	0.632	-0	-0.219
Mof_N 	N 	0.5527	3.14034e-17	0.368	-0.217
Mof_N 	N 	0.9207	0.368	0.632	-0.182
Mof_N 	N 	0.4473	0.368	-0	-0.219
Mof_N 	N 	0.0793	0.632	0.368	-0.21
Mof_N 	N 	0.4473	6.28067e-17	0.632	-0.217
Mof_N 	N 	0.70555	6.28067e-17	0.91035	-0.14
Mof_N 	N 	0.6159	0.91035	0.08965	-0.132
Mof_N 	N 	0.70555	0.08965	-0	-0.15
Mof_N 	N 	0.3841	0.08965	0.91035	-0.134
Mof_N 	N 	0.29445	0	0.08965	-0.152
Mof_N 	N 	0.29445	0.91035	-0	-0.15
_end
