# CIF file generated by openbabel 3.1.0, see https://openbabel.org
data_I
_chemical_name_common 'image0'
_cell_length_a 11.7877
_cell_length_b 5.2093
_cell_length_c 12.2031
_cell_angle_alpha 90
_cell_angle_beta 98.198
_cell_angle_gamma 90
_space_group_name_H-M_alt 'P 1'
_space_group_name_Hall 'P 1'
loop_
    _symmetry_equiv_pos_as_xyz
    x,y,z
loop_
    _atom_site_label
    _atom_site_type_symbol
    _atom_site_fract_x
    _atom_site_fract_y
    _atom_site_fract_z
    _atom_site_occupancy
    Zn1      Zn       0.39417    0.20143    0.57172    1.000
    P1       P        0.66271    0.28293    0.56642    1.000
    O1       O        0.76818    0.21750    0.65303    1.000
    H1       H        0.75060    0.22870    0.71550    1.000
    O2       O        0.55656    0.18800    0.61165    1.000
    O3       O        0.67666    0.13820    0.45809    1.000
    O4       O        0.66306    0.56990    0.54478    1.000
    O5       O        0.34855    0.26890    0.71909    1.000
    O6       O        0.19681    0.60130    0.65249    1.000
    H2       H        0.24780    0.68330    0.62940    1.000
    Zn2      Zn       0.10583    0.20143    0.92828    1.000
    P2       P        0.83729    0.28293    0.93358    1.000
    O7       O        0.73182    0.21750    0.84697    1.000
    H3       H        0.74940    0.22870    0.78450    1.000
    O8       O        0.94344    0.18800    0.88835    1.000
    O9       O        0.82334    0.13820    0.04191    1.000
    O10      O        0.83694    0.56990    0.95522    1.000
    O11      O        0.15145    0.26890    0.78091    1.000
    O12      O        0.30319    0.60130    0.84751    1.000
    H4       H        0.25220    0.68330    0.87060    1.000
    Zn3      Zn       0.60583    0.79857    0.42828    1.000
    P3       P        0.33729    0.71707    0.43358    1.000
    O13      O        0.23182    0.78250    0.34697    1.000
    H5       H        0.24940    0.77130    0.28450    1.000
    O14      O        0.44344    0.81200    0.38835    1.000
    O15      O        0.32334    0.86180    0.54191    1.000
    O16      O        0.33694    0.43010    0.45522    1.000
    O17      O        0.65145    0.73110    0.28091    1.000
    O18      O        0.80319    0.39870    0.34751    1.000
    H6       H        0.75220    0.31670    0.37060    1.000
    Zn4      Zn       0.89417    0.79857    0.07172    1.000
    P4       P        0.16271    0.71707    0.06642    1.000
    O19      O        0.26818    0.78250    0.15303    1.000
    H7       H        0.25060    0.77130    0.21550    1.000
    O20      O        0.05656    0.81200    0.11165    1.000
    O21      O        0.17666    0.86180    0.95809    1.000
    O22      O        0.16306    0.43010    0.04478    1.000
    O23      O        0.84855    0.73110    0.21909    1.000
    O24      O        0.69681    0.39870    0.15249    1.000
    H8       H        0.74780    0.31670    0.12940    1.000
    P5       P        0.25000    0.42574    0.75000    1.000
    P6       P        0.75000    0.57426    0.25000    1.000
