data_functionalizedCrystal
_audit_creation_method	'EQeq! by Chris Wilmer'
_symmetry_space_group_name_H-M	'P1'
_symmetry_Int_Tables_number	1
_symmetry_cell_setting	triclinic
loop_
_symmetry_equiv_pos_as_xyz
  x,y,z
_cell_length_a	7.2642
_cell_length_b	15.0204
_cell_length_c	8.8286
_cell_angle_alpha	90
_cell_angle_beta	90
_cell_angle_gamma	90
loop_
_atom_site_label
_atom_site_type_symbol
_atom_site_fract_x
_atom_site_fract_y
_atom_site_fract_z
_atom_site_charge
Mof_H 	H 	0.25	0.4545	0.6799	0.527
Mof_O 	O 	0.3819	0.41555	0.3249	-0.793
Mof_O 	O 	0.0881	0.3839	0.3799	-0.786
Mof_O 	O 	0.386	0.29464	0.0995	-0.439
Mof_H 	H 	0.4844	0.3069	0.1473	0.193
Mof_C 	C 	0.2357	0.3714	0.3118	0.543
Mof_C 	C 	0.2357	0.2926	0.2025	-0.046
Mof_H 	H 	0.1213	0.2945	0.1438	-0.052
Mof_H 	H 	0.25	0.5455	0.6799	0.529
Mof_O 	O 	0.1181	0.58445	0.3249	-0.765
Mof_O 	O 	0.4119	0.6161	0.3799	-0.798
Mof_O 	O 	0.114	0.70536	0.0995	-0.445
Mof_H 	H 	0.0156	0.6931	0.1473	0.119
Mof_C 	C 	0.2643	0.6286	0.3118	0.547
Mof_C 	C 	0.2643	0.7074	0.2025	-0.06
Mof_H 	H 	0.3787	0.7055	0.1438	0.01
Mof_H 	H 	0.25	0.9545	0.8201	0.469
Mof_O 	O 	0.1181	0.91555	0.1751	-0.581
Mof_O 	O 	0.4119	0.8839	0.1201	-0.655
Mof_O 	O 	0.114	0.79464	0.4005	-0.351
Mof_H 	H 	0.0156	0.8069	0.3527	0.129
Mof_C 	C 	0.2643	0.8714	0.1882	0.469
Mof_C 	C 	0.2643	0.7926	0.2975	-0.06
Mof_H 	H 	0.3787	0.7945	0.3562	0.067
Mof_H 	H 	0.25	0.0455	0.8201	0.422
Mof_O 	O 	0.3819	0.08445	0.1751	-0.654
Mof_O 	O 	0.0881	0.1161	0.1201	-0.676
Mof_O 	O 	0.386	0.20536	0.4005	-0.347
Mof_H 	H 	0.4844	0.1931	0.3527	0.199
Mof_C 	C 	0.2357	0.1286	0.1882	0.466
Mof_C 	C 	0.2357	0.2074	0.2975	-0.054
Mof_H 	H 	0.1213	0.2055	0.3562	0.001
Mof_H 	H 	0.75	0.5455	0.3201	0.548
Mof_O 	O 	0.6181	0.58445	0.6751	-0.752
Mof_O 	O 	0.9119	0.6161	0.6201	-0.577
Mof_O 	O 	0.614	0.70536	0.9005	-0.192
Mof_H 	H 	0.5156	0.6931	0.8527	0.174
Mof_C 	C 	0.7643	0.6286	0.6882	0.59
Mof_C 	C 	0.7643	0.7074	0.7975	-0.129
Mof_H 	H 	0.8787	0.7055	0.8562	0.188
Mof_H 	H 	0.75	0.4545	0.3201	0.547
Mof_O 	O 	0.8819	0.41555	0.6751	-0.573
Mof_O 	O 	0.5881	0.3839	0.6201	-0.781
Mof_O 	O 	0.886	0.29464	0.9005	-0.178
Mof_H 	H 	0.9844	0.3069	0.8527	0.253
Mof_C 	C 	0.7357	0.3714	0.6882	0.581
Mof_C 	C 	0.7357	0.2926	0.7975	-0.112
Mof_H 	H 	0.6213	0.2945	0.8562	0.129
Mof_H 	H 	0.75	0.0455	0.1799	0.527
Mof_O 	O 	0.8819	0.08445	0.8249	-0.334
Mof_O 	O 	0.5881	0.1161	0.8799	-0.491
Mof_O 	O 	0.886	0.20536	0.5995	-0.314
Mof_H 	H 	0.9844	0.1931	0.6473	0.268
Mof_C 	C 	0.7357	0.1286	0.8118	0.422
Mof_C 	C 	0.7357	0.2074	0.7025	0.024
Mof_H 	H 	0.6213	0.2055	0.6438	0.038
Mof_H 	H 	0.75	0.9545	0.1799	0.584
Mof_O 	O 	0.6181	0.91555	0.8249	-0.479
Mof_O 	O 	0.9119	0.8839	0.8799	-0.276
Mof_O 	O 	0.614	0.79464	0.5995	-0.318
Mof_H 	H 	0.5156	0.8069	0.6473	0.192
Mof_C 	C 	0.7643	0.8714	0.8118	0.434
Mof_C 	C 	0.7643	0.7926	0.7025	0.006
Mof_H 	H 	0.8787	0.7945	0.6438	0.105
Mof_In	In	0.5	0.5	0.5	3.152
Mof_In	In	2.84837e-32	0.5	0.5	2.347
Mof_In	In	-0	0	-0	1.352
Mof_In	In	0.5	0	-0	2.135
Mof_O 	O 	0.25	0.5	0.6228	-1.753
Mof_O 	O 	0.25	0	0.8772	-1.272
Mof_O 	O 	0.75	0.5	0.3772	-1.692
Mof_O 	O 	0.75	0	0.1228	-1.501
_end
