data_functionalizedCrystal
_audit_creation_method	'EQeq! by Chris Wilmer'
_symmetry_space_group_name_H-M	'P1'
_symmetry_Int_Tables_number	1
_symmetry_cell_setting	triclinic
loop_
_symmetry_equiv_pos_as_xyz
  x,y,z
_cell_length_a	10.903
_cell_length_b	10.96
_cell_length_c	14.84
_cell_angle_alpha	82.55
_cell_angle_beta	85.61
_cell_angle_gamma	88.79
loop_
_atom_site_label
_atom_site_type_symbol
_atom_site_fract_x
_atom_site_fract_y
_atom_site_fract_z
_atom_site_charge
Mof_Zn	Zn	0.4493	0.78383	0.39492	1.215
Mof_Zn	Zn	0.45129	0.82184	0.18907	1.216
Mof_O 	O 	0.6368	0.7785	0.4074	-0.427
Mof_O 	O 	0.6222	0.7989	0.2571	-0.451
Mof_O 	O 	0.28	0.8052	0.3276	-0.459
Mof_O 	O 	0.2647	0.8321	0.1764	-0.406
Mof_O 	O 	0.4554	0.971	0.3669	-0.438
Mof_O 	O 	0.457	0.9991	0.2115	-0.435
Mof_O 	O 	0.4433	0.6347	0.2173	-0.444
Mof_O 	O 	0.4445	0.6061	0.3721	-0.447
Mof_N 	N 	0.3469	0.7756	0.5183	-0.256
Mof_N 	N 	0.5586	0.8281	0.0675	-0.255
Mof_F 	F 	0.189	0.8811	0.8295	-0.415
Mof_F 	F 	0.0019	0.9002	0.9534	-0.386
Mof_C 	C 	0.8224	0.7942	0.309	-0.074
Mof_C 	C 	0.898	0.7829	0.3819	-0.014
Mof_H 	H 	0.8631	0.7698	0.4415	0.048
Mof_C 	C 	0.0252	0.7911	0.3654	-0.032
Mof_H 	H 	0.0748	0.7842	0.4141	0.056
Mof_C 	C 	0.0788	0.8097	0.2764	-0.043
Mof_C 	C 	0.0018	0.8214	0.2017	-0.039
Mof_H 	H 	0.0355	0.8355	0.1418	0.109
Mof_C 	C 	0.8762	0.8112	0.2208	0.017
Mof_H 	H 	0.8258	0.816	0.1726	0.072
Mof_C 	C 	0.6833	0.7881	0.326	0.358
Mof_C 	C 	0.2183	0.8155	0.259	0.338
Mof_C 	C 	0.4509	0.1756	0.2905	-0.047
Mof_C 	C 	0.4021	0.2245	0.3693	-0.039
Mof_H 	H 	0.371	0.1724	0.4201	0.059
Mof_C 	C 	0.4009	0.3521	0.3704	-0.015
Mof_H 	H 	0.3711	0.3846	0.4228	0.05
Mof_C 	C 	0.4445	0.4319	0.2929	-0.074
Mof_C 	C 	0.4935	0.3821	0.2152	-0.007
Mof_H 	H 	0.5235	0.4347	0.1644	0.052
Mof_C 	C 	0.4979	0.2544	0.2127	-0.029
Mof_H 	H 	0.5311	0.2222	0.161	0.076
Mof_C 	C 	0.4541	0.0378	0.289	0.35
Mof_C 	C 	0.4442	0.5683	0.2941	0.358
Mof_C 	C 	0.3192	0.8774	0.5558	0.115
Mof_H 	H 	0.3619	0.9486	0.5328	-0.003
Mof_C 	C 	0.2301	0.884	0.6275	-0.18
Mof_H 	H 	0.2123	0.9576	0.6509	0.131
Mof_C 	C 	0.1686	0.7756	0.6628	0.169
Mof_C 	C 	0.1994	0.6678	0.6273	-0.188
Mof_H 	H 	0.1604	0.5948	0.6513	0.106
Mof_C 	C 	0.2896	0.6692	0.555	0.101
Mof_H 	H 	0.311	0.5963	0.5315	-0.004
Mof_C 	C 	0.0649	0.7803	0.7354	-0.097
Mof_C 	C 	0.9486	0.7321	0.7258	-0.022
Mof_H 	H 	0.9373	0.6935	0.6748	0.041
Mof_C 	C 	0.8492	0.7405	0.7909	-0.027
Mof_H 	H 	0.7735	0.7076	0.783	0.049
Mof_C 	C 	0.8652	0.7999	0.8692	-0.092
Mof_C 	C 	0.9804	0.847	0.8788	0.225
Mof_C 	C 	0.0781	0.8366	0.8127	0.239
Mof_C 	C 	0.7579	0.8123	0.9371	0.173
Mof_C 	C 	0.6792	0.7144	0.9638	-0.194
Mof_H 	H 	0.6914	0.6417	0.9381	0.109
Mof_C 	C 	0.5821	0.7246	0.0289	0.114
Mof_H 	H 	0.5314	0.6572	0.0465	-0.008
Mof_C 	C 	0.6322	0.9244	0.0401	0.114
Mof_H 	H 	0.6154	0.997	0.0653	0.012
Mof_C 	C 	0.733	0.9221	0.9758	-0.181
Mof_H 	H 	0.782	0.9909	0.9591	0.161
Mof_Zn	Zn	0.5507	0.21617	0.60508	1.214
Mof_Zn	Zn	0.54871	0.17816	0.81093	1.215
Mof_O 	O 	0.3632	0.2215	0.5926	-0.428
Mof_O 	O 	0.3778	0.2011	0.7429	-0.452
Mof_O 	O 	0.72	0.1948	0.6724	-0.46
Mof_O 	O 	0.7353	0.1679	0.8236	-0.407
Mof_O 	O 	0.5446	0.029	0.6331	-0.439
Mof_O 	O 	0.543	0.0009	0.7885	-0.436
Mof_O 	O 	0.5567	0.3653	0.7827	-0.445
Mof_O 	O 	0.5555	0.3939	0.6279	-0.448
Mof_N 	N 	0.6531	0.2244	0.4817	-0.256
Mof_N 	N 	0.4414	0.1719	0.9325	-0.255
Mof_F 	F 	0.811	0.1189	0.1705	-0.415
Mof_F 	F 	0.9981	0.0998	0.0466	-0.386
Mof_C 	C 	0.1776	0.2058	0.691	-0.074
Mof_C 	C 	0.102	0.2171	0.6181	-0.014
Mof_H 	H 	0.1369	0.2302	0.5585	0.048
Mof_C 	C 	0.9748	0.2089	0.6346	-0.032
Mof_H 	H 	0.9252	0.2158	0.5859	0.056
Mof_C 	C 	0.9212	0.1903	0.7236	-0.043
Mof_C 	C 	0.9982	0.1786	0.7983	-0.039
Mof_H 	H 	0.9645	0.1645	0.8582	0.109
Mof_C 	C 	0.1238	0.1888	0.7792	0.017
Mof_H 	H 	0.1742	0.184	0.8274	0.072
Mof_C 	C 	0.3167	0.2119	0.674	0.358
Mof_C 	C 	0.7817	0.1845	0.741	0.338
Mof_C 	C 	0.5491	0.8244	0.7095	-0.047
Mof_C 	C 	0.5979	0.7755	0.6307	-0.039
Mof_H 	H 	0.629	0.8276	0.5799	0.059
Mof_C 	C 	0.5991	0.6479	0.6296	-0.015
Mof_H 	H 	0.6289	0.6154	0.5772	0.05
Mof_C 	C 	0.5555	0.5681	0.7071	-0.074
Mof_C 	C 	0.5065	0.6179	0.7848	-0.007
Mof_H 	H 	0.4765	0.5653	0.8356	0.052
Mof_C 	C 	0.5021	0.7456	0.7873	-0.029
Mof_H 	H 	0.4689	0.7778	0.839	0.076
Mof_C 	C 	0.5459	0.9622	0.711	0.35
Mof_C 	C 	0.5558	0.4317	0.7059	0.358
Mof_C 	C 	0.6808	0.1226	0.4442	0.115
Mof_H 	H 	0.6381	0.0514	0.4672	-0.003
Mof_C 	C 	0.7699	0.116	0.3725	-0.18
Mof_H 	H 	0.7877	0.0424	0.3491	0.131
Mof_C 	C 	0.8314	0.2244	0.3372	0.169
Mof_C 	C 	0.8006	0.3322	0.3727	-0.188
Mof_H 	H 	0.8396	0.4052	0.3487	0.106
Mof_C 	C 	0.7104	0.3308	0.445	0.101
Mof_H 	H 	0.689	0.4037	0.4685	-0.004
Mof_C 	C 	0.9351	0.2197	0.2646	-0.097
Mof_C 	C 	0.0514	0.2679	0.2742	-0.022
Mof_H 	H 	0.0627	0.3065	0.3252	0.041
Mof_C 	C 	0.1508	0.2595	0.2091	-0.027
Mof_H 	H 	0.2265	0.2924	0.217	0.049
Mof_C 	C 	0.1348	0.2001	0.1308	-0.092
Mof_C 	C 	0.0196	0.153	0.1212	0.225
Mof_C 	C 	0.9219	0.1634	0.1873	0.239
Mof_C 	C 	0.2421	0.1877	0.0629	0.173
Mof_C 	C 	0.3208	0.2856	0.0362	-0.194
Mof_H 	H 	0.3086	0.3583	0.0619	0.109
Mof_C 	C 	0.4179	0.2754	0.9711	0.114
Mof_H 	H 	0.4686	0.3428	0.9535	-0.008
Mof_C 	C 	0.3678	0.0756	0.9599	0.114
Mof_H 	H 	0.3846	0.003	0.9347	0.012
Mof_C 	C 	0.267	0.0779	0.0242	-0.181
Mof_H 	H 	0.218	0.0091	0.0409	0.161
_end
