# CIF file generated by openbabel 3.1.0, see https://openbabel.org
data_I
_chemical_name_common 'image0'
_cell_length_a 14.0189
_cell_length_b 13.4792
_cell_length_c 14.2787
_cell_angle_alpha 90
_cell_angle_beta 90.466
_cell_angle_gamma 90
_space_group_name_H-M_alt 'P 1'
_space_group_name_Hall 'P 1'
loop_
    _symmetry_equiv_pos_as_xyz
    x,y,z
loop_
    _atom_site_label
    _atom_site_type_symbol
    _atom_site_fract_x
    _atom_site_fract_y
    _atom_site_fract_z
    _atom_site_occupancy
    Zn1      Zn       0.12160    0.13030    0.73420    1.000
    Zn2      Zn       0.97410    0.73010    0.87420    1.000
    P1       P        0.14650    0.61280    0.77370    1.000
    P2       P        0.97480    0.25320    0.60720    1.000
    O1       O        0.05830    0.18290    0.62370    1.000
    O2       O        0.08700    0.99480    0.76010    1.000
    O3       O        0.24950    0.61330    0.81110    1.000
    O4       O        0.88900    0.22120    0.66250    1.000
    O5       O        0.00810    0.86500    0.66490    1.000
    O6       O        0.08430    0.64960    0.85310    1.000
    O7       O        0.94870    0.25380    0.50440    1.000
    O8       O        0.13880    0.68030    0.68930    1.000
    O9       O        0.00360    0.35790    0.63590    1.000
    O10      O        0.11990    0.50660    0.75050    1.000
    Zn3      Zn       0.62160    0.63030    0.73420    1.000
    Zn4      Zn       0.47410    0.23010    0.87420    1.000
    P3       P        0.64650    0.11280    0.77370    1.000
    P4       P        0.47480    0.75320    0.60720    1.000
    O11      O        0.55830    0.68290    0.62370    1.000
    O12      O        0.58700    0.49480    0.76010    1.000
    O13      O        0.74950    0.11330    0.81110    1.000
    O14      O        0.38900    0.72120    0.66250    1.000
    O15      O        0.50810    0.36500    0.66490    1.000
    O16      O        0.58430    0.14960    0.85310    1.000
    O17      O        0.44870    0.75380    0.50440    1.000
    O18      O        0.63880    0.18030    0.68930    1.000
    O19      O        0.50360    0.85790    0.63590    1.000
    O20      O        0.61990    0.00660    0.75050    1.000
    Zn5      Zn       0.87840    0.13030    0.76580    1.000
    Zn6      Zn       0.02590    0.73010    0.62580    1.000
    P5       P        0.85350    0.61280    0.72630    1.000
    P6       P        0.02520    0.25320    0.89280    1.000
    O21      O        0.94170    0.18290    0.87630    1.000
    O22      O        0.91300    0.99480    0.73990    1.000
    O23      O        0.75050    0.61330    0.68890    1.000
    O24      O        0.11100    0.22120    0.83750    1.000
    O25      O        0.99190    0.86500    0.83510    1.000
    O26      O        0.91570    0.64960    0.64690    1.000
    O27      O        0.05130    0.25380    0.99560    1.000
    O28      O        0.86120    0.68030    0.81070    1.000
    O29      O        0.99640    0.35790    0.86410    1.000
    O30      O        0.88010    0.50660    0.74950    1.000
    Zn7      Zn       0.37840    0.63030    0.76580    1.000
    Zn8      Zn       0.52590    0.23010    0.62580    1.000
    P7       P        0.35350    0.11280    0.72630    1.000
    P8       P        0.52520    0.75320    0.89280    1.000
    O31      O        0.44170    0.68290    0.87630    1.000
    O32      O        0.41300    0.49480    0.73990    1.000
    O33      O        0.25050    0.11330    0.68890    1.000
    O34      O        0.61100    0.72120    0.83750    1.000
    O35      O        0.49190    0.36500    0.83510    1.000
    O36      O        0.41570    0.14960    0.64690    1.000
    O37      O        0.55130    0.75380    0.99560    1.000
    O38      O        0.36120    0.18030    0.81070    1.000
    O39      O        0.49640    0.85790    0.86410    1.000
    O40      O        0.38010    0.00660    0.74950    1.000
    Zn9      Zn       0.87840    0.86970    0.26580    1.000
    Zn10     Zn       0.02590    0.26990    0.12580    1.000
    P9       P        0.85350    0.38720    0.22630    1.000
    P10      P        0.02520    0.74680    0.39280    1.000
    O41      O        0.94170    0.81710    0.37630    1.000
    O42      O        0.91300    0.00520    0.23990    1.000
    O43      O        0.75050    0.38670    0.18890    1.000
    O44      O        0.11100    0.77880    0.33750    1.000
    O45      O        0.99190    0.13500    0.33510    1.000
    O46      O        0.91570    0.35040    0.14690    1.000
    O47      O        0.05130    0.74620    0.49560    1.000
    O48      O        0.86120    0.31970    0.31070    1.000
    O49      O        0.99640    0.64210    0.36410    1.000
    O50      O        0.88010    0.49340    0.24950    1.000
    Zn11     Zn       0.37840    0.36970    0.26580    1.000
    Zn12     Zn       0.52590    0.76990    0.12580    1.000
    P11      P        0.35350    0.88720    0.22630    1.000
    P12      P        0.52520    0.24680    0.39280    1.000
    O51      O        0.44170    0.31710    0.37630    1.000
    O52      O        0.41300    0.50520    0.23990    1.000
    O53      O        0.25050    0.88670    0.18890    1.000
    O54      O        0.61100    0.27880    0.33750    1.000
    O55      O        0.49190    0.63500    0.33510    1.000
    O56      O        0.41570    0.85040    0.14690    1.000
    O57      O        0.55130    0.24620    0.49560    1.000
    O58      O        0.36120    0.81970    0.31070    1.000
    O59      O        0.49640    0.14210    0.36410    1.000
    O60      O        0.38010    0.99340    0.24950    1.000
    Zn13     Zn       0.12160    0.86970    0.23420    1.000
    Zn14     Zn       0.97410    0.26990    0.37420    1.000
    P13      P        0.14650    0.38720    0.27370    1.000
    P14      P        0.97480    0.74680    0.10720    1.000
    O61      O        0.05830    0.81710    0.12370    1.000
    O62      O        0.08700    0.00520    0.26010    1.000
    O63      O        0.24950    0.38670    0.31110    1.000
    O64      O        0.88900    0.77880    0.16250    1.000
    O65      O        0.00810    0.13500    0.16490    1.000
    O66      O        0.08430    0.35040    0.35310    1.000
    O67      O        0.94870    0.74620    0.00440    1.000
    O68      O        0.13880    0.31970    0.18930    1.000
    O69      O        0.00360    0.64210    0.13590    1.000
    O70      O        0.11990    0.49340    0.25050    1.000
    Zn15     Zn       0.62160    0.36970    0.23420    1.000
    Zn16     Zn       0.47410    0.76990    0.37420    1.000
    P15      P        0.64650    0.88720    0.27370    1.000
    P16      P        0.47480    0.24680    0.10720    1.000
    O71      O        0.55830    0.31710    0.12370    1.000
    O72      O        0.58700    0.50520    0.26010    1.000
    O73      O        0.74950    0.88670    0.31110    1.000
    O74      O        0.38900    0.27880    0.16250    1.000
    O75      O        0.50810    0.63500    0.16490    1.000
    O76      O        0.58430    0.85040    0.35310    1.000
    O77      O        0.44870    0.24620    0.00440    1.000
    O78      O        0.63880    0.81970    0.18930    1.000
    O79      O        0.50360    0.14210    0.13590    1.000
    O80      O        0.61990    0.99340    0.25050    1.000
    Zn17     Zn       0.00000    0.43410    0.75000    1.000
    P17      P        0.00000    0.93040    0.75000    1.000
    Zn18     Zn       0.50000    0.93410    0.75000    1.000
    P18      P        0.50000    0.43040    0.75000    1.000
    Zn19     Zn       0.00000    0.56590    0.25000    1.000
    P19      P        0.00000    0.06960    0.25000    1.000
    Zn20     Zn       0.50000    0.06590    0.25000    1.000
    P20      P        0.50000    0.56960    0.25000    1.000
