data_functionalizedCrystal
_audit_creation_method	'EQeq! by Chris Wilmer'
_symmetry_space_group_name_H-M	'P1'
_symmetry_Int_Tables_number	1
_symmetry_cell_setting	triclinic
loop_
_symmetry_equiv_pos_as_xyz
  x,y,z
_cell_length_a	11.8894
_cell_length_b	5.2299
_cell_length_c	17.4663
_cell_angle_alpha	90
_cell_angle_beta	97.279
_cell_angle_gamma	90
loop_
_atom_site_label
_atom_site_type_symbol
_atom_site_fract_x
_atom_site_fract_y
_atom_site_fract_z
_atom_site_charge
Mof_Na	Na	0.58991	0.8988	0.03331	1.375
Mof_Na	Na	0.32142	0.932	0.09161	1.389
Mof_Na	Na	0.10692	0.3648	0.95889	2.616
Mof_Na	Na	0.14741	0.9724	0.24034	1.846
Mof_O 	O 	0.4692	0.6209	0.09643	-0.94
Mof_O 	O 	0.2513	0.6775	0.96075	-1.16
Mof_O 	O 	0.2639	0.0995	0.96916	-1.123
Mof_O 	O 	0.2075	0.6626	0.16074	-0.908
Mof_O 	O 	0.4898	0.2001	0.09105	-0.854
Mof_O 	O 	0.3306	0.9384	0.33557	-0.565
Mof_O 	O 	0.0219	0.5001	0.0669	-1.336
Mof_H 	H 	0.0154	0.3638	0.0925	0.344
Mof_H 	H 	0.0853	0.545	0.0912	0.285
Mof_O 	O 	0.2519	0.2473	0.17204	-0.745
Mof_O 	O 	0.0333	0.5521	0.84599	-0.988
Mof_O 	O 	0.2731	0.3001	0.70152	-0.236
Mof_O 	O 	0.0116	0.7107	0.72686	-0.684
Mof_N 	N 	0.3689	0.518	0.31861	-0.276
Mof_H 	H 	0.3775	0.3656	0.3399	0.159
Mof_N 	N 	0.2405	0.7221	0.71953	-0.267
Mof_H 	H 	0.2456	0.8776	0.7011	0.073
Mof_C 	C 	0.4811	0.4039	0.12739	0.562
Mof_C 	C 	0.2708	0.4775	0.1857	0.405
Mof_C 	C 	0.2483	0.8946	0.9311	0.578
Mof_C 	C 	0.2691	0.5235	0.6777	0.183
Mof_C 	C 	0.4802	0.3884	0.2152	-0.405
Mof_H 	H 	0.471	0.2084	0.2309	0.158
Mof_H 	H 	0.5528	0.4533	0.2422	0.128
Mof_C 	C 	0.3437	0.7178	0.3615	0.228
Mof_C 	C 	0.3821	0.5492	0.237	-0.004
Mof_H 	H 	0.3991	0.733	0.2277	-0.109
Mof_C 	C 	0.2012	0.6892	0.795	0.251
Mof_H 	H 	0.2408	0.5393	0.8219	-0.158
Mof_C 	C 	0.2284	0.9293	0.8437	-1.182
Mof_H 	H 	0.297	0.0091	0.8273	0.433
Mof_H 	H 	0.1651	0.0515	0.8315	0.345
Mof_C 	C 	0.3327	0.6651	0.4448	-0.115
Mof_C 	C 	0.3826	0.4586	0.4861	-0.012
Mof_H 	H 	0.4296	0.344	0.4624	0.074
Mof_C 	C 	0.3636	0.4196	0.5621	-0.024
Mof_H 	H 	0.3982	0.2782	0.59	0.094
Mof_C 	C 	0.295	0.5834	0.5979	-0.012
Mof_C 	C 	0.2478	0.7974	0.5575	-0.057
Mof_H 	H 	0.2028	0.9147	0.5819	-0.025
Mof_C 	C 	0.2671	0.8378	0.4815	-0.012
Mof_H 	H 	0.2354	0.9835	0.4542	-0.077
Mof_C 	C 	0.0719	0.6451	0.7872	0.287
Mof_C 	C 	0.2695	0.453	0.4635	0.016
Mof_H 	H 	0.2394	0.337	0.4243	0.017
Mof_C 	C 	0.251	0.413	0.54	-0.066
Mof_H 	H 	0.2079	0.2688	0.5528	0.097
Mof_C 	C 	0.358	0.794	0.5793	-0.049
Mof_H 	H 	0.3878	0.9104	0.6185	-0.015
Mof_C 	C 	0.377	0.834	0.5028	0.003
Mof_H 	H 	0.4196	0.9778	0.4902	-0.034
Mof_Na	Na	0.41009	0.3988	0.96669	2.062
Mof_Na	Na	0.67858	0.432	0.90839	1.965
Mof_Na	Na	0.89308	0.8648	0.04111	1.821
Mof_Na	Na	0.85259	0.4724	0.75966	2.434
Mof_O 	O 	0.5308	0.1209	0.90357	-0.869
Mof_O 	O 	0.7487	0.1775	0.03925	-0.854
Mof_O 	O 	0.7361	0.5995	0.03084	-1.112
Mof_O 	O 	0.7925	0.1626	0.83926	-0.817
Mof_O 	O 	0.5102	0.7001	0.90895	-1.078
Mof_O 	O 	0.6694	0.4384	0.66443	-0.512
Mof_O 	O 	0.9781	0.0001	0.9331	-1.028
Mof_H 	H 	0.9846	0.8638	0.9075	0.034
Mof_H 	H 	0.9147	0.045	0.9088	0.231
Mof_O 	O 	0.7481	0.7473	0.82796	-0.926
Mof_O 	O 	0.9667	0.0521	0.15401	-0.737
Mof_O 	O 	0.7269	0.8001	0.29848	-0.493
Mof_O 	O 	0.9884	0.2107	0.27314	-0.537
Mof_N 	N 	0.6311	0.018	0.68139	-0.138
Mof_H 	H 	0.6225	0.8656	0.6601	-0.045
Mof_N 	N 	0.7595	0.2221	0.28047	-0.256
Mof_H 	H 	0.7544	0.3776	0.2989	0.13
Mof_C 	C 	0.5189	0.9039	0.87261	0.45
Mof_C 	C 	0.7292	0.9775	0.8143	-0.014
Mof_C 	C 	0.7517	0.3946	0.0689	0.516
Mof_C 	C 	0.7309	0.0235	0.3223	0.422
Mof_C 	C 	0.5198	0.8884	0.7848	-0.658
Mof_H 	H 	0.529	0.7084	0.7691	0.144
Mof_H 	H 	0.4472	0.9533	0.7578	0.115
Mof_C 	C 	0.6563	0.2178	0.6385	0.142
Mof_C 	C 	0.6179	0.0492	0.763	0.382
Mof_H 	H 	0.6009	0.233	0.7723	-0.2
Mof_C 	C 	0.7988	0.1892	0.205	0.027
Mof_H 	H 	0.7592	0.0393	0.1781	0.019
Mof_C 	C 	0.7716	0.4293	0.1563	-0.326
Mof_H 	H 	0.703	0.5091	0.1727	0.051
Mof_H 	H 	0.8349	0.5515	0.1685	-0.021
Mof_C 	C 	0.6673	0.1651	0.5552	0.226
Mof_C 	C 	0.6174	0.9586	0.5139	-0.219
Mof_H 	H 	0.5704	0.844	0.5376	0.076
Mof_C 	C 	0.6364	0.9196	0.4379	-0.108
Mof_H 	H 	0.6018	0.7782	0.41	0.044
Mof_C 	C 	0.705	0.0834	0.4021	0.154
Mof_C 	C 	0.7522	0.2974	0.4425	-0.008
Mof_H 	H 	0.7972	0.4147	0.4181	0.012
Mof_C 	C 	0.7329	0.3378	0.5185	-0.082
Mof_H 	H 	0.7646	0.4835	0.5458	0.008
Mof_C 	C 	0.9281	0.1451	0.2128	0.358
Mof_C 	C 	0.7305	0.953	0.5365	-0.136
Mof_H 	H 	0.7606	0.837	0.5757	-0.04
Mof_C 	C 	0.749	0.913	0.46	-0.202
Mof_H 	H 	0.7921	0.7688	0.4472	0.047
Mof_C 	C 	0.642	0.294	0.4207	-0.027
Mof_H 	H 	0.6122	0.4104	0.3815	0.038
Mof_C 	C 	0.623	0.334	0.4972	-0.015
Mof_H 	H 	0.5804	0.4778	0.5098	0.042
_end
