data_functionalizedCrystal
_audit_creation_method	'EQeq! by Chris Wilmer'
_symmetry_space_group_name_H-M	'P1'
_symmetry_Int_Tables_number	1
_symmetry_cell_setting	triclinic
loop_
_symmetry_equiv_pos_as_xyz
  x,y,z
_cell_length_a	9.8623
_cell_length_b	13.1949
_cell_length_c	17.8953
_cell_angle_alpha	84.0894
_cell_angle_beta	74.005
_cell_angle_gamma	68.0552
loop_
_atom_site_label
_atom_site_type_symbol
_atom_site_fract_x
_atom_site_fract_y
_atom_site_fract_z
_atom_site_charge
Mof_Zn	Zn	0.52513	0.81928	0.16798	1.168
Mof_Zn	Zn	0.86673	0.1022	0.19454	1.189
Mof_Zn	Zn	0.51239	0.18072	0.83202	1.167
Mof_Zn	Zn	0.16348	0.89779	0.80545	1.206
Mof_Zn	Zn	0.94311	0.31928	0.33202	1.161
Mof_Zn	Zn	0.31127	0.60221	0.30545	1.198
Mof_Zn	Zn	0.59441	0.68072	0.66798	1.169
Mof_Zn	Zn	0.21892	0.3978	0.69455	1.199
Mof_Zn	Zn	0.02027	0	-0	1.176
Mof_Zn	Zn	0.27027	0.5	0.5	1.195
Mof_H 	H 	0.7237	0.4572	0.1184	0.002
Mof_H 	H 	0.8784	0.6144	0.931	-0.005
Mof_H 	H 	0.0227	0.2866	0.9318	0.018
Mof_H 	H 	0.3559	0.8736	0.034	-0.032
Mof_H 	H 	0.1889	0.9848	0.2452	-0.041
Mof_H 	H 	0.803	0.8526	0.037	-0.028
Mof_H 	H 	0.6048	0.9964	0.2368	-0.053
Mof_H 	H 	0.2993	0.5428	0.8816	0.062
Mof_H 	H 	0.4238	0.3856	0.069	0.061
Mof_H 	H 	0.2411	0.7134	0.0682	0.056
Mof_H 	H 	0.2635	0.1264	0.966	-0.017
Mof_H 	H 	0.4189	0.0152	0.7548	-0.036
Mof_H 	H 	0.6926	0.1474	0.963	-0.011
Mof_H 	H 	0.838	0.0036	0.7632	-0.054
Mof_H 	H 	0.0921	0.9572	0.3816	0.031
Mof_H 	H 	0.0594	0.1144	0.569	0.048
Mof_H 	H 	0.2045	0.7866	0.5682	0.023
Mof_H 	H 	0.6399	0.3736	0.466	-0.028
Mof_H 	H 	0.6841	0.4848	0.2548	-0.039
Mof_H 	H 	0.09	0.3526	0.463	-0.015
Mof_H 	H 	0.0916	0.4964	0.2632	-0.048
Mof_H 	H 	0.4309	0.0428	0.6184	0.04
Mof_H 	H 	0.7428	0.8856	0.431	0.02
Mof_H 	H 	0.5593	0.2134	0.4318	0.019
Mof_H 	H 	0.4795	0.6264	0.534	-0.027
Mof_H 	H 	0.4237	0.5152	0.7452	-0.039
Mof_H 	H 	0.9056	0.6474	0.537	-0.016
Mof_H 	H 	0.8512	0.5036	0.7368	-0.045
Mof_C 	C 	0.8775	0.25	0.072	0.432
Mof_C 	C 	0.87449	0.3562	0.03182	-0.248
Mof_C 	C 	0.78401	0.45546	0.06812	0.145
Mof_C 	C 	0.78343	0.55212	0.02962	-0.231
Mof_C 	C 	0.68075	0.66052	0.06658	0.367
Mof_C 	C 	0.87757	0.5494	0.95626	0.176
Mof_C 	C 	0.97179	0.44966	0.91956	-0.208
Mof_C 	C 	0.07232	0.44962	0.84034	0.37
Mof_C 	C 	0.96553	0.35332	0.95702	0.148
Mof_C 	C 	0.28931	0.91072	0.07886	0.107
Mof_C 	C 	0.19905	0.97094	0.19356	0.145
Mof_C 	C 	0.77693	0.89788	0.07926	0.113
Mof_C 	C 	0.66918	0.97572	0.18752	0.148
Mof_C 	C 	0.1995	0.75	0.928	0.372
Mof_C 	C 	0.26251	0.6438	0.96818	-0.039
Mof_C 	C 	0.30759	0.54454	0.93188	-0.015
Mof_C 	C 	0.36517	0.44788	0.97038	-0.015
Mof_C 	C 	0.40785	0.33948	0.93342	0.305
Mof_C 	C 	0.38323	0.4506	0.04374	-0.069
Mof_C 	C 	0.34101	0.55034	0.08044	-0.048
Mof_C 	C 	0.36228	0.55038	0.15966	0.294
Mof_C 	C 	0.27587	0.64668	0.04298	-0.053
Mof_C 	C 	0.27889	0.08928	0.92114	0.109
Mof_C 	C 	0.36355	0.02906	0.80644	0.073
Mof_C 	C 	0.75407	0.10212	0.92074	0.113
Mof_C 	C 	0.83242	0.02428	0.81248	0.071
Mof_C 	C 	0.1995	0.75	0.428	0.41
Mof_C 	C 	0.15631	0.8562	0.46818	-0.153
Mof_C 	C 	0.10213	0.95546	0.43188	0.105
Mof_C 	C 	0.06305	0.05212	0.47038	-0.127
Mof_C 	C 	0.99733	0.16052	0.43342	0.294
Mof_C 	C 	0.08383	0.0494	0.54374	0.009
Mof_C 	C 	0.14135	0.94966	0.58044	-0.088
Mof_C 	C 	0.16266	0.94962	0.65966	0.357
Mof_C 	C 	0.17255	0.85332	0.54298	0.067
Mof_C 	C 	0.61817	0.41072	0.42114	0.107
Mof_C 	C 	0.64261	0.47094	0.30644	0.104
Mof_C 	C 	0.10619	0.39788	0.42074	0.116
Mof_C 	C 	0.1067	0.47572	0.31248	0.109
Mof_C 	C 	0.3775	0.25	0.572	0.402
Mof_C 	C 	0.48069	0.1438	0.53182	-0.143
Mof_C 	C 	0.48947	0.04454	0.56812	0.016
Mof_C 	C 	0.58555	0.94788	0.52962	-0.091
Mof_C 	C 	0.59127	0.83948	0.56658	0.328
Mof_C 	C 	0.67697	0.9506	0.45626	0.09
Mof_C 	C 	0.67145	0.05034	0.41956	-0.157
Mof_C 	C 	0.77194	0.05038	0.34034	0.281
Mof_C 	C 	0.56885	0.14668	0.45702	0.069
Mof_C 	C 	0.45003	0.58928	0.57886	0.107
Mof_C 	C 	0.41999	0.52906	0.69356	0.106
Mof_C 	C 	0.92481	0.60212	0.57926	0.09
Mof_C 	C 	0.8949	0.52428	0.68752	0.084
Mof_N 	N 	0.08906	0.0138	0.15828	-0.283
Mof_N 	N 	0.14803	0.97428	0.08326	-0.211
Mof_N 	N 	0.32724	0.90518	0.14674	-0.309
Mof_N 	N 	0.77369	0.01662	0.1532	-0.291
Mof_N 	N 	0.84399	0.96518	0.08244	-0.217
Mof_N 	N 	0.66582	0.9009	0.14366	-0.311
Mof_N 	N 	0.26114	0.9862	0.84172	-0.217
Mof_N 	N 	0.20557	0.02572	0.91674	-0.232
Mof_N 	N 	0.37916	0.09482	0.85326	-0.3
Mof_N 	N 	0.94351	0.98338	0.8468	-0.222
Mof_N 	N 	0.89161	0.03482	0.91756	-0.241
Mof_N 	N 	0.71038	0.0991	0.85634	-0.302
Mof_N 	N 	0.49734	0.5138	0.34172	-0.252
Mof_N 	N 	0.48129	0.47428	0.41674	-0.229
Mof_N 	N 	0.72398	0.40518	0.35326	-0.307
Mof_N 	N 	0.17689	0.51662	0.3468	-0.248
Mof_N 	N 	0.17643	0.46518	0.41756	-0.228
Mof_N 	N 	0.05948	0.4009	0.35634	-0.301
Mof_N 	N 	0.35286	0.4862	0.65828	-0.252
Mof_N 	N 	0.37231	0.52572	0.58326	-0.228
Mof_N 	N 	0.48242	0.59482	0.64674	-0.304
Mof_N 	N 	0.04031	0.48338	0.6532	-0.236
Mof_N 	N 	0.05917	0.53482	0.58244	-0.216
Mof_N 	N 	0.81672	0.5991	0.64366	-0.299
Mof_O 	O 	0.91734	0.16836	0.03116	-0.539
Mof_O 	O 	0.83912	0.24984	0.14612	-0.514
Mof_O 	O 	0.63574	0.6631	0.14082	-0.495
Mof_O 	O 	0.64338	0.74322	0.02602	-0.371
Mof_O 	O 	0.09423	0.53358	0.81376	-0.342
Mof_O 	O 	0.13398	0.35916	0.80128	-0.471
Mof_O 	O 	0.11686	0.83164	0.96884	-0.451
Mof_O 	O 	0.23508	0.75016	0.85388	-0.479
Mof_O 	O 	0.43966	0.3369	0.85918	-0.477
Mof_O 	O 	0.41262	0.25678	0.97398	-0.33
Mof_O 	O 	0.44157	0.46642	0.18624	-0.333
Mof_O 	O 	0.29442	0.64084	0.19872	-0.457
Mof_O 	O 	0.1985	0.66836	0.46884	-0.494
Mof_O 	O 	0.23524	0.74984	0.35388	-0.495
Mof_O 	O 	0.02656	0.1631	0.35918	-0.469
Mof_O 	O 	0.9194	0.24322	0.47398	-0.352
Mof_O 	O 	0.15799	0.03358	0.68624	-0.367
Mof_O 	O 	0.18526	0.85916	0.69872	-0.464
Mof_O 	O 	0.3357	0.33164	0.53116	-0.497
Mof_O 	O 	0.33896	0.25016	0.64612	-0.495
Mof_O 	O 	0.54884	0.8369	0.64082	-0.474
Mof_O 	O 	0.6366	0.75678	0.52602	-0.351
Mof_O 	O 	0.87781	0.96642	0.31376	-0.309
Mof_O 	O 	0.74314	0.14084	0.30128	-0.466
_end
