# CIF file generated by openbabel 3.1.0, see https://openbabel.org
data_I
_chemical_name_common 'image0'
_cell_length_a 9.4116
_cell_length_b 13.2967
_cell_length_c 14.9365
_cell_angle_alpha 90
_cell_angle_beta 98.019
_cell_angle_gamma 90
_space_group_name_H-M_alt 'P 1'
_space_group_name_Hall 'P 1'
loop_
    _symmetry_equiv_pos_as_xyz
    x,y,z
loop_
    _atom_site_label
    _atom_site_type_symbol
    _atom_site_fract_x
    _atom_site_fract_y
    _atom_site_fract_z
    _atom_site_occupancy
    Zn1      Zn       0.03224    0.86839    0.65580    1.000
    O1       O        0.87831    0.93992    0.57346    1.000
    O2       O        0.75290    0.88346    0.67771    1.000
    O3       O        0.80034    0.07416    0.38906    1.000
    O4       O        0.82316    0.16056    0.51950    1.000
    C1       C        0.62820    0.97078    0.55241    1.000
    C2       C        0.63020    0.04428    0.48554    1.000
    C3       C        0.49760    0.92813    0.56651    1.000
    H1       H        0.49630    0.87920    0.61270    1.000
    C4       C        0.76150    0.92954    0.60636    1.000
    C5       C        0.76430    0.09738    0.46576    1.000
    O5       O        0.20752    0.67090    0.66424    1.000
    O6       O        0.98353    0.72814    0.62750    1.000
    O7       O        0.95309    0.37636    0.71149    1.000
    O8       O        0.96070    0.54056    0.73844    1.000
    C6       C        0.04020    0.57553    0.56367    1.000
    C7       C        0.05760    0.58931    0.47342    1.000
    H2       H        0.09730    0.65040    0.45520    1.000
    C8       C        0.98240    0.48514    0.59029    1.000
    C9       C        0.08230    0.66294    0.62596    1.000
    C10      C        0.96420    0.46679    0.68687    1.000
    Zn2      Zn       0.96776    0.36839    0.84420    1.000
    O9       O        0.12169    0.43992    0.92654    1.000
    O10      O        0.24710    0.38346    0.82229    1.000
    O11      O        0.19966    0.57416    0.11094    1.000
    O12      O        0.17684    0.66056    0.98050    1.000
    C11      C        0.37180    0.47078    0.94759    1.000
    C12      C        0.36980    0.54428    0.01446    1.000
    C13      C        0.50240    0.42813    0.93349    1.000
    H3       H        0.50370    0.37920    0.88730    1.000
    C14      C        0.23850    0.42954    0.89364    1.000
    C15      C        0.23570    0.59738    0.03424    1.000
    O13      O        0.79248    0.17090    0.83576    1.000
    O14      O        0.01647    0.22814    0.87250    1.000
    O15      O        0.04691    0.87636    0.78851    1.000
    O16      O        0.03930    0.04056    0.76156    1.000
    C16      C        0.95980    0.07553    0.93633    1.000
    C17      C        0.94240    0.08931    0.02658    1.000
    H4       H        0.90270    0.15040    0.04480    1.000
    C18      C        0.01760    0.98514    0.90971    1.000
    C19      C        0.91770    0.16294    0.87404    1.000
    C20      C        0.03580    0.96679    0.81313    1.000
    Zn3      Zn       0.96776    0.13161    0.34420    1.000
    O17      O        0.12169    0.06008    0.42654    1.000
    O18      O        0.24710    0.11654    0.32229    1.000
    O19      O        0.19966    0.92584    0.61094    1.000
    O20      O        0.17684    0.83944    0.48050    1.000
    C21      C        0.37180    0.02922    0.44759    1.000
    C22      C        0.36980    0.95572    0.51446    1.000
    C23      C        0.50240    0.07187    0.43349    1.000
    H5       H        0.50370    0.12080    0.38730    1.000
    C24      C        0.23850    0.07046    0.39364    1.000
    C25      C        0.23570    0.90262    0.53424    1.000
    O21      O        0.79248    0.32910    0.33576    1.000
    O22      O        0.01647    0.27186    0.37250    1.000
    O23      O        0.04691    0.62364    0.28851    1.000
    O24      O        0.03930    0.45944    0.26156    1.000
    C26      C        0.95980    0.42447    0.43633    1.000
    C27      C        0.94240    0.41069    0.52658    1.000
    H6       H        0.90270    0.34960    0.54480    1.000
    C28      C        0.01760    0.51486    0.40971    1.000
    C29      C        0.91770    0.33706    0.37404    1.000
    C30      C        0.03580    0.53321    0.31313    1.000
    Zn4      Zn       0.03224    0.63161    0.15580    1.000
    O25      O        0.87831    0.56008    0.07346    1.000
    O26      O        0.75290    0.61654    0.17771    1.000
    O27      O        0.80034    0.42584    0.88906    1.000
    O28      O        0.82316    0.33944    0.01950    1.000
    C31      C        0.62820    0.52922    0.05241    1.000
    C32      C        0.63020    0.45572    0.98554    1.000
    C33      C        0.49760    0.57187    0.06651    1.000
    H7       H        0.49630    0.62080    0.11270    1.000
    C34      C        0.76150    0.57046    0.10636    1.000
    C35      C        0.76430    0.40262    0.96576    1.000
    O29      O        0.20752    0.82910    0.16424    1.000
    O30      O        0.98353    0.77186    0.12750    1.000
    O31      O        0.95309    0.12364    0.21149    1.000
    O32      O        0.96070    0.95944    0.23844    1.000
    C36      C        0.04020    0.92447    0.06367    1.000
    C37      C        0.05760    0.91069    0.97342    1.000
    H8       H        0.09730    0.84960    0.95520    1.000
    C38      C        0.98240    0.01486    0.09029    1.000
    C39      C        0.08230    0.83706    0.12596    1.000
    C40      C        0.96420    0.03321    0.18687    1.000
