# CIF file generated by openbabel 3.1.0, see https://openbabel.org
data_I
_chemical_name_common 'image0'
_cell_length_a 28.8641
_cell_length_b 12.8331
_cell_length_c 14.7632
_cell_angle_alpha 90
_cell_angle_beta 113.11
_cell_angle_gamma 90
_space_group_name_H-M_alt 'P 1'
_space_group_name_Hall 'P 1'
loop_
    _symmetry_equiv_pos_as_xyz
    x,y,z
loop_
    _atom_site_label
    _atom_site_type_symbol
    _atom_site_fract_x
    _atom_site_fract_y
    _atom_site_fract_z
    _atom_site_occupancy
    Ag1      Ag       0.98649    0.88631    0.02129    1.000
    Ag2      Ag       0.91695    0.98399    0.08870    1.000
    Ag3      Ag       0.91878    0.95914    0.31487    1.000
    Ag4      Ag       0.69178    0.52867    0.61847    1.000
    C1       C        0.99890    0.01110    0.13030    1.000
    C2       C        0.00750    0.09590    0.16140    1.000
    C3       C        0.01630    0.19530    0.21610    1.000
    H1       H        0.00610    0.25330    0.17030    1.000
    H2       H        0.05180    0.20290    0.25720    1.000
    C4       C        0.08730    0.77990    0.04320    1.000
    C5       C        0.11800    0.69900    0.01580    1.000
    C6       C        0.82390    0.04360    0.14100    1.000
    C7       C        0.76730    0.06740    0.09530    1.000
    C8       C        0.89970    0.74570    0.18500    1.000
    C9       C        0.86490    0.65600    0.14900    1.000
    C10      C        0.87450    0.81850    0.90680    1.000
    C11      C        0.83160    0.75040    0.83840    1.000
    C12      C        0.83970    0.68410    0.77230    1.000
    H3       H        0.87140    0.68030    0.77020    1.000
    C13      C        0.80020    0.62280    0.70840    1.000
    H4       H        0.80560    0.57900    0.66320    1.000
    C14      C        0.78450    0.75200    0.83870    1.000
    H5       H        0.77750    0.79600    0.88180    1.000
    C15      C        0.74800    0.69050    0.77700    1.000
    H6       H        0.71650    0.69270    0.78020    1.000
    F1       F        0.10120    0.67760    0.92680    1.000
    F2       F        0.16310    0.72350    0.03530    1.000
    F3       F        0.11940    0.61380    0.05300    1.000
    F4       F        0.74240    0.99590    0.03310    1.000
    F5       F        0.74620    0.07290    0.15720    1.000
    F6       F        0.75870    0.15410    0.04770    1.000
    F7       F        0.86520    0.62080    0.06410    1.000
    F8       F        0.88300    0.56520    0.18700    1.000
    F9       F        0.82330    0.66100    0.13000    1.000
    N1       N        0.75420    0.62730    0.71250    1.000
    O1       O        0.10860    0.86500    0.07480    1.000
    O2       O        0.04390    0.75330    0.02550    1.000
    O3       O        0.84260    0.04060    0.08010    1.000
    O4       O        0.84170    0.03080    0.22950    1.000
    O5       O        0.93590    0.75230    0.16940    1.000
    O6       O        0.87590    0.80970    0.22650    1.000
    O7       O        0.91840    0.78730    0.92420    1.000
    O8       O        0.86290    0.89410    0.94530    1.000
    O9       O        0.94350    0.73030    0.22170    1.000
    O10      O        0.88210    0.82580    0.18030    1.000
    Ag5      Ag       0.48649    0.38631    0.02129    1.000
    Ag6      Ag       0.41695    0.48399    0.08870    1.000
    Ag7      Ag       0.41878    0.45914    0.31487    1.000
    Ag8      Ag       0.19178    0.02867    0.61847    1.000
    C16      C        0.49890    0.51110    0.13030    1.000
    C17      C        0.50750    0.59590    0.16140    1.000
    C18      C        0.51630    0.69530    0.21610    1.000
    H7       H        0.50610    0.75330    0.17030    1.000
    H8       H        0.55180    0.70290    0.25720    1.000
    C19      C        0.58730    0.27990    0.04320    1.000
    C20      C        0.61800    0.19900    0.01580    1.000
    C21      C        0.32390    0.54360    0.14100    1.000
    C22      C        0.26730    0.56740    0.09530    1.000
    C23      C        0.39970    0.24570    0.18500    1.000
    C24      C        0.36490    0.15600    0.14900    1.000
    C25      C        0.37450    0.31850    0.90680    1.000
    C26      C        0.33160    0.25040    0.83840    1.000
    C27      C        0.33970    0.18410    0.77230    1.000
    H9       H        0.37140    0.18030    0.77020    1.000
    C28      C        0.30020    0.12280    0.70840    1.000
    H10      H        0.30560    0.07900    0.66320    1.000
    C29      C        0.28450    0.25200    0.83870    1.000
    H11      H        0.27750    0.29600    0.88180    1.000
    C30      C        0.24800    0.19050    0.77700    1.000
    H12      H        0.21650    0.19270    0.78020    1.000
    F10      F        0.60120    0.17760    0.92680    1.000
    F11      F        0.66310    0.22350    0.03530    1.000
    F12      F        0.61940    0.11380    0.05300    1.000
    F13      F        0.24240    0.49590    0.03310    1.000
    F14      F        0.24620    0.57290    0.15720    1.000
    F15      F        0.25870    0.65410    0.04770    1.000
    F16      F        0.36520    0.12080    0.06410    1.000
    F17      F        0.38300    0.06520    0.18700    1.000
    F18      F        0.32330    0.16100    0.13000    1.000
    N2       N        0.25420    0.12730    0.71250    1.000
    O11      O        0.60860    0.36500    0.07480    1.000
    O12      O        0.54390    0.25330    0.02550    1.000
    O13      O        0.34260    0.54060    0.08010    1.000
    O14      O        0.34170    0.53080    0.22950    1.000
    O15      O        0.43590    0.25230    0.16940    1.000
    O16      O        0.37590    0.30970    0.22650    1.000
    O17      O        0.41840    0.28730    0.92420    1.000
    O18      O        0.36290    0.39410    0.94530    1.000
    O19      O        0.44350    0.23030    0.22170    1.000
    O20      O        0.38210    0.32580    0.18030    1.000
    Ag9      Ag       0.01351    0.88631    0.47871    1.000
    Ag10     Ag       0.08305    0.98399    0.41130    1.000
    Ag11     Ag       0.08122    0.95914    0.18513    1.000
    Ag12     Ag       0.30822    0.52867    0.88153    1.000
    C31      C        0.00110    0.01110    0.36970    1.000
    C32      C        0.99250    0.09590    0.33860    1.000
    C33      C        0.98370    0.19530    0.28390    1.000
    H13      H        0.99390    0.25330    0.32970    1.000
    H14      H        0.94820    0.20290    0.24280    1.000
    C34      C        0.91270    0.77990    0.45680    1.000
    C35      C        0.88200    0.69900    0.48420    1.000
    C36      C        0.17610    0.04360    0.35900    1.000
    C37      C        0.23270    0.06740    0.40470    1.000
    C38      C        0.10030    0.74570    0.31500    1.000
    C39      C        0.13510    0.65600    0.35100    1.000
    C40      C        0.12550    0.81850    0.59320    1.000
    C41      C        0.16840    0.75040    0.66160    1.000
    C42      C        0.16030    0.68410    0.72770    1.000
    H15      H        0.12860    0.68030    0.72980    1.000
    C43      C        0.19980    0.62280    0.79160    1.000
    H16      H        0.19440    0.57900    0.83680    1.000
    C44      C        0.21550    0.75200    0.66130    1.000
    H17      H        0.22250    0.79600    0.61820    1.000
    C45      C        0.25200    0.69050    0.72300    1.000
    H18      H        0.28350    0.69270    0.71980    1.000
    F19      F        0.89880    0.67760    0.57320    1.000
    F20      F        0.83690    0.72350    0.46470    1.000
    F21      F        0.88060    0.61380    0.44700    1.000
    F22      F        0.25760    0.99590    0.46690    1.000
    F23      F        0.25380    0.07290    0.34280    1.000
    F24      F        0.24130    0.15410    0.45230    1.000
    F25      F        0.13480    0.62080    0.43590    1.000
    F26      F        0.11700    0.56520    0.31300    1.000
    F27      F        0.17670    0.66100    0.37000    1.000
    N3       N        0.24580    0.62730    0.78750    1.000
    O21      O        0.89140    0.86500    0.42520    1.000
    O22      O        0.95610    0.75330    0.47450    1.000
    O23      O        0.15740    0.04060    0.41990    1.000
    O24      O        0.15830    0.03080    0.27050    1.000
    O25      O        0.06410    0.75230    0.33060    1.000
    O26      O        0.12410    0.80970    0.27350    1.000
    O27      O        0.08160    0.78730    0.57580    1.000
    O28      O        0.13710    0.89410    0.55470    1.000
    O29      O        0.05650    0.73030    0.27830    1.000
    O30      O        0.11790    0.82580    0.31970    1.000
    Ag13     Ag       0.51351    0.38631    0.47871    1.000
    Ag14     Ag       0.58305    0.48399    0.41130    1.000
    Ag15     Ag       0.58122    0.45914    0.18513    1.000
    Ag16     Ag       0.80822    0.02867    0.88153    1.000
    C46      C        0.50110    0.51110    0.36970    1.000
    C47      C        0.49250    0.59590    0.33860    1.000
    C48      C        0.48370    0.69530    0.28390    1.000
    H19      H        0.49390    0.75330    0.32970    1.000
    H20      H        0.44820    0.70290    0.24280    1.000
    C49      C        0.41270    0.27990    0.45680    1.000
    C50      C        0.38200    0.19900    0.48420    1.000
    C51      C        0.67610    0.54360    0.35900    1.000
    C52      C        0.73270    0.56740    0.40470    1.000
    C53      C        0.60030    0.24570    0.31500    1.000
    C54      C        0.63510    0.15600    0.35100    1.000
    C55      C        0.62550    0.31850    0.59320    1.000
    C56      C        0.66840    0.25040    0.66160    1.000
    C57      C        0.66030    0.18410    0.72770    1.000
    H21      H        0.62860    0.18030    0.72980    1.000
    C58      C        0.69980    0.12280    0.79160    1.000
    H22      H        0.69440    0.07900    0.83680    1.000
    C59      C        0.71550    0.25200    0.66130    1.000
    H23      H        0.72250    0.29600    0.61820    1.000
    C60      C        0.75200    0.19050    0.72300    1.000
    H24      H        0.78350    0.19270    0.71980    1.000
    F28      F        0.39880    0.17760    0.57320    1.000
    F29      F        0.33690    0.22350    0.46470    1.000
    F30      F        0.38060    0.11380    0.44700    1.000
    F31      F        0.75760    0.49590    0.46690    1.000
    F32      F        0.75380    0.57290    0.34280    1.000
    F33      F        0.74130    0.65410    0.45230    1.000
    F34      F        0.63480    0.12080    0.43590    1.000
    F35      F        0.61700    0.06520    0.31300    1.000
    F36      F        0.67670    0.16100    0.37000    1.000
    N4       N        0.74580    0.12730    0.78750    1.000
    O31      O        0.39140    0.36500    0.42520    1.000
    O32      O        0.45610    0.25330    0.47450    1.000
    O33      O        0.65740    0.54060    0.41990    1.000
    O34      O        0.65830    0.53080    0.27050    1.000
    O35      O        0.56410    0.25230    0.33060    1.000
    O36      O        0.62410    0.30970    0.27350    1.000
    O37      O        0.58160    0.28730    0.57580    1.000
    O38      O        0.63710    0.39410    0.55470    1.000
    O39      O        0.55650    0.23030    0.27830    1.000
    O40      O        0.61790    0.32580    0.31970    1.000
    Ag17     Ag       0.01351    0.11369    0.97871    1.000
    Ag18     Ag       0.08305    0.01601    0.91130    1.000
    Ag19     Ag       0.08122    0.04086    0.68513    1.000
    Ag20     Ag       0.30822    0.47133    0.38153    1.000
    C61      C        0.00110    0.98890    0.86970    1.000
    C62      C        0.99250    0.90410    0.83860    1.000
    C63      C        0.98370    0.80470    0.78390    1.000
    H25      H        0.99390    0.74670    0.82970    1.000
    H26      H        0.94820    0.79710    0.74280    1.000
    C64      C        0.91270    0.22010    0.95680    1.000
    C65      C        0.88200    0.30100    0.98420    1.000
    C66      C        0.17610    0.95640    0.85900    1.000
    C67      C        0.23270    0.93260    0.90470    1.000
    C68      C        0.10030    0.25430    0.81500    1.000
    C69      C        0.13510    0.34400    0.85100    1.000
    C70      C        0.12550    0.18150    0.09320    1.000
    C71      C        0.16840    0.24960    0.16160    1.000
    C72      C        0.16030    0.31590    0.22770    1.000
    H27      H        0.12860    0.31970    0.22980    1.000
    C73      C        0.19980    0.37720    0.29160    1.000
    H28      H        0.19440    0.42100    0.33680    1.000
    C74      C        0.21550    0.24800    0.16130    1.000
    H29      H        0.22250    0.20400    0.11820    1.000
    C75      C        0.25200    0.30950    0.22300    1.000
    H30      H        0.28350    0.30730    0.21980    1.000
    F37      F        0.89880    0.32240    0.07320    1.000
    F38      F        0.83690    0.27650    0.96470    1.000
    F39      F        0.88060    0.38620    0.94700    1.000
    F40      F        0.25760    0.00410    0.96690    1.000
    F41      F        0.25380    0.92710    0.84280    1.000
    F42      F        0.24130    0.84590    0.95230    1.000
    F43      F        0.13480    0.37920    0.93590    1.000
    F44      F        0.11700    0.43480    0.81300    1.000
    F45      F        0.17670    0.33900    0.87000    1.000
    N5       N        0.24580    0.37270    0.28750    1.000
    O41      O        0.89140    0.13500    0.92520    1.000
    O42      O        0.95610    0.24670    0.97450    1.000
    O43      O        0.15740    0.95940    0.91990    1.000
    O44      O        0.15830    0.96920    0.77050    1.000
    O45      O        0.06410    0.24770    0.83060    1.000
    O46      O        0.12410    0.19030    0.77350    1.000
    O47      O        0.08160    0.21270    0.07580    1.000
    O48      O        0.13710    0.10590    0.05470    1.000
    O49      O        0.05650    0.26970    0.77830    1.000
    O50      O        0.11790    0.17420    0.81970    1.000
    Ag21     Ag       0.51351    0.61369    0.97871    1.000
    Ag22     Ag       0.58305    0.51601    0.91130    1.000
    Ag23     Ag       0.58122    0.54086    0.68513    1.000
    Ag24     Ag       0.80822    0.97133    0.38153    1.000
    C76      C        0.50110    0.48890    0.86970    1.000
    C77      C        0.49250    0.40410    0.83860    1.000
    C78      C        0.48370    0.30470    0.78390    1.000
    H31      H        0.49390    0.24670    0.82970    1.000
    H32      H        0.44820    0.29710    0.74280    1.000
    C79      C        0.41270    0.72010    0.95680    1.000
    C80      C        0.38200    0.80100    0.98420    1.000
    C81      C        0.67610    0.45640    0.85900    1.000
    C82      C        0.73270    0.43260    0.90470    1.000
    C83      C        0.60030    0.75430    0.81500    1.000
    C84      C        0.63510    0.84400    0.85100    1.000
    C85      C        0.62550    0.68150    0.09320    1.000
    C86      C        0.66840    0.74960    0.16160    1.000
    C87      C        0.66030    0.81590    0.22770    1.000
    H33      H        0.62860    0.81970    0.22980    1.000
    C88      C        0.69980    0.87720    0.29160    1.000
    H34      H        0.69440    0.92100    0.33680    1.000
    C89      C        0.71550    0.74800    0.16130    1.000
    H35      H        0.72250    0.70400    0.11820    1.000
    C90      C        0.75200    0.80950    0.22300    1.000
    H36      H        0.78350    0.80730    0.21980    1.000
    F46      F        0.39880    0.82240    0.07320    1.000
    F47      F        0.33690    0.77650    0.96470    1.000
    F48      F        0.38060    0.88620    0.94700    1.000
    F49      F        0.75760    0.50410    0.96690    1.000
    F50      F        0.75380    0.42710    0.84280    1.000
    F51      F        0.74130    0.34590    0.95230    1.000
    F52      F        0.63480    0.87920    0.93590    1.000
    F53      F        0.61700    0.93480    0.81300    1.000
    F54      F        0.67670    0.83900    0.87000    1.000
    N6       N        0.74580    0.87270    0.28750    1.000
    O51      O        0.39140    0.63500    0.92520    1.000
    O52      O        0.45610    0.74670    0.97450    1.000
    O53      O        0.65740    0.45940    0.91990    1.000
    O54      O        0.65830    0.46920    0.77050    1.000
    O55      O        0.56410    0.74770    0.83060    1.000
    O56      O        0.62410    0.69030    0.77350    1.000
    O57      O        0.58160    0.71270    0.07580    1.000
    O58      O        0.63710    0.60590    0.05470    1.000
    O59      O        0.55650    0.76970    0.77830    1.000
    O60      O        0.61790    0.67420    0.81970    1.000
    Ag25     Ag       0.98649    0.11369    0.52129    1.000
    Ag26     Ag       0.91695    0.01601    0.58870    1.000
    Ag27     Ag       0.91878    0.04086    0.81487    1.000
    Ag28     Ag       0.69178    0.47133    0.11847    1.000
    C91      C        0.99890    0.98890    0.63030    1.000
    C92      C        0.00750    0.90410    0.66140    1.000
    C93      C        0.01630    0.80470    0.71610    1.000
    H37      H        0.00610    0.74670    0.67030    1.000
    H38      H        0.05180    0.79710    0.75720    1.000
    C94      C        0.08730    0.22010    0.54320    1.000
    C95      C        0.11800    0.30100    0.51580    1.000
    C96      C        0.82390    0.95640    0.64100    1.000
    C97      C        0.76730    0.93260    0.59530    1.000
    C98      C        0.89970    0.25430    0.68500    1.000
    C99      C        0.86490    0.34400    0.64900    1.000
    C100     C        0.87450    0.18150    0.40680    1.000
    C101     C        0.83160    0.24960    0.33840    1.000
    C102     C        0.83970    0.31590    0.27230    1.000
    H39      H        0.87140    0.31970    0.27020    1.000
    C103     C        0.80020    0.37720    0.20840    1.000
    H40      H        0.80560    0.42100    0.16320    1.000
    C104     C        0.78450    0.24800    0.33870    1.000
    H41      H        0.77750    0.20400    0.38180    1.000
    C105     C        0.74800    0.30950    0.27700    1.000
    H42      H        0.71650    0.30730    0.28020    1.000
    F55      F        0.10120    0.32240    0.42680    1.000
    F56      F        0.16310    0.27650    0.53530    1.000
    F57      F        0.11940    0.38620    0.55300    1.000
    F58      F        0.74240    0.00410    0.53310    1.000
    F59      F        0.74620    0.92710    0.65720    1.000
    F60      F        0.75870    0.84590    0.54770    1.000
    F61      F        0.86520    0.37920    0.56410    1.000
    F62      F        0.88300    0.43480    0.68700    1.000
    F63      F        0.82330    0.33900    0.63000    1.000
    N7       N        0.75420    0.37270    0.21250    1.000
    O61      O        0.10860    0.13500    0.57480    1.000
    O62      O        0.04390    0.24670    0.52550    1.000
    O63      O        0.84260    0.95940    0.58010    1.000
    O64      O        0.84170    0.96920    0.72950    1.000
    O65      O        0.93590    0.24770    0.66940    1.000
    O66      O        0.87590    0.19030    0.72650    1.000
    O67      O        0.91840    0.21270    0.42420    1.000
    O68      O        0.86290    0.10590    0.44530    1.000
    O69      O        0.94350    0.26970    0.72170    1.000
    O70      O        0.88210    0.17420    0.68030    1.000
    Ag29     Ag       0.48649    0.61369    0.52129    1.000
    Ag30     Ag       0.41695    0.51601    0.58870    1.000
    Ag31     Ag       0.41878    0.54086    0.81487    1.000
    Ag32     Ag       0.19178    0.97133    0.11847    1.000
    C106     C        0.49890    0.48890    0.63030    1.000
    C107     C        0.50750    0.40410    0.66140    1.000
    C108     C        0.51630    0.30470    0.71610    1.000
    H43      H        0.50610    0.24670    0.67030    1.000
    H44      H        0.55180    0.29710    0.75720    1.000
    C109     C        0.58730    0.72010    0.54320    1.000
    C110     C        0.61800    0.80100    0.51580    1.000
    C111     C        0.32390    0.45640    0.64100    1.000
    C112     C        0.26730    0.43260    0.59530    1.000
    C113     C        0.39970    0.75430    0.68500    1.000
    C114     C        0.36490    0.84400    0.64900    1.000
    C115     C        0.37450    0.68150    0.40680    1.000
    C116     C        0.33160    0.74960    0.33840    1.000
    C117     C        0.33970    0.81590    0.27230    1.000
    H45      H        0.37140    0.81970    0.27020    1.000
    C118     C        0.30020    0.87720    0.20840    1.000
    H46      H        0.30560    0.92100    0.16320    1.000
    C119     C        0.28450    0.74800    0.33870    1.000
    H47      H        0.27750    0.70400    0.38180    1.000
    C120     C        0.24800    0.80950    0.27700    1.000
    H48      H        0.21650    0.80730    0.28020    1.000
    F64      F        0.60120    0.82240    0.42680    1.000
    F65      F        0.66310    0.77650    0.53530    1.000
    F66      F        0.61940    0.88620    0.55300    1.000
    F67      F        0.24240    0.50410    0.53310    1.000
    F68      F        0.24620    0.42710    0.65720    1.000
    F69      F        0.25870    0.34590    0.54770    1.000
    F70      F        0.36520    0.87920    0.56410    1.000
    F71      F        0.38300    0.93480    0.68700    1.000
    F72      F        0.32330    0.83900    0.63000    1.000
    N8       N        0.25420    0.87270    0.21250    1.000
    O71      O        0.60860    0.63500    0.57480    1.000
    O72      O        0.54390    0.74670    0.52550    1.000
    O73      O        0.34260    0.45940    0.58010    1.000
    O74      O        0.34170    0.46920    0.72950    1.000
    O75      O        0.43590    0.74770    0.66940    1.000
    O76      O        0.37590    0.69030    0.72650    1.000
    O77      O        0.41840    0.71270    0.42420    1.000
    O78      O        0.36290    0.60590    0.44530    1.000
    O79      O        0.44350    0.76970    0.72170    1.000
    O80      O        0.38210    0.67420    0.68030    1.000
    Ag33     Ag       0.00000    0.87028    0.25000    1.000
    Ag34     Ag       0.50000    0.37028    0.25000    1.000
    Ag35     Ag       0.00000    0.12972    0.75000    1.000
    Ag36     Ag       0.50000    0.62972    0.75000    1.000
