# CIF file generated by openbabel 3.1.0, see https://openbabel.org
data_I
_chemical_name_common 'image0'
_cell_length_a 22.709
_cell_length_b 7.118
_cell_length_c 12.828
_cell_angle_alpha 90
_cell_angle_beta 90
_cell_angle_gamma 90
_space_group_name_H-M_alt 'P 1'
_space_group_name_Hall 'P 1'
loop_
    _symmetry_equiv_pos_as_xyz
    x,y,z
loop_
    _atom_site_label
    _atom_site_type_symbol
    _atom_site_fract_x
    _atom_site_fract_y
    _atom_site_fract_z
    _atom_site_occupancy
    N1       N        0.11080    0.09510    0.38650    1.000
    N2       N        0.06210    0.15840    0.43330    1.000
    C1       C        0.22280    0.10100    0.27630    1.000
    H1       H        0.20560    0.98420    0.29450    1.000
    C2       C        0.20600    0.89500    0.29900    1.000
    N3       N        0.61080    0.59510    0.88650    1.000
    N4       N        0.56210    0.65840    0.93330    1.000
    C3       C        0.72280    0.60100    0.77630    1.000
    H2       H        0.70560    0.48420    0.79450    1.000
    C4       C        0.70600    0.39500    0.79900    1.000
    N5       N        0.88920    0.40490    0.38650    1.000
    N6       N        0.93790    0.34160    0.43330    1.000
    C5       C        0.77720    0.39900    0.27630    1.000
    H3       H        0.79440    0.51580    0.29450    1.000
    C6       C        0.79400    0.60500    0.29900    1.000
    N7       N        0.38920    0.90490    0.88650    1.000
    N8       N        0.43790    0.84160    0.93330    1.000
    C7       C        0.27720    0.89900    0.77630    1.000
    H4       H        0.29440    0.01580    0.79450    1.000
    C8       C        0.29400    0.10500    0.79900    1.000
    N9       N        0.88920    0.59510    0.61350    1.000
    N10      N        0.93790    0.65840    0.56670    1.000
    C9       C        0.77720    0.60100    0.72370    1.000
    H5       H        0.79440    0.48420    0.70550    1.000
    C10      C        0.79400    0.39500    0.70100    1.000
    N11      N        0.38920    0.09510    0.11350    1.000
    N12      N        0.43790    0.15840    0.06670    1.000
    C11      C        0.27720    0.10100    0.22370    1.000
    H6       H        0.29440    0.98420    0.20550    1.000
    C12      C        0.29400    0.89500    0.20100    1.000
    N13      N        0.11080    0.90490    0.61350    1.000
    N14      N        0.06210    0.84160    0.56670    1.000
    C13      C        0.22280    0.89900    0.72370    1.000
    H7       H        0.20560    0.01580    0.70550    1.000
    C14      C        0.20600    0.10500    0.70100    1.000
    N15      N        0.61080    0.40490    0.11350    1.000
    N16      N        0.56210    0.34160    0.06670    1.000
    C15      C        0.72280    0.39900    0.22370    1.000
    H8       H        0.70560    0.51580    0.20550    1.000
    C16      C        0.70600    0.60500    0.20100    1.000
    N17      N        0.88920    0.90490    0.61350    1.000
    N18      N        0.93790    0.84160    0.56670    1.000
    C17      C        0.77720    0.89900    0.72370    1.000
    H9       H        0.79440    0.01580    0.70550    1.000
    C18      C        0.79400    0.10500    0.70100    1.000
    N19      N        0.38920    0.40490    0.11350    1.000
    N20      N        0.43790    0.34160    0.06670    1.000
    C19      C        0.27720    0.39900    0.22370    1.000
    H10      H        0.29440    0.51580    0.20550    1.000
    C20      C        0.29400    0.60500    0.20100    1.000
    N21      N        0.11080    0.59510    0.61350    1.000
    N22      N        0.06210    0.65840    0.56670    1.000
    C21      C        0.22280    0.60100    0.72370    1.000
    H11      H        0.20560    0.48420    0.70550    1.000
    C22      C        0.20600    0.39500    0.70100    1.000
    N23      N        0.61080    0.09510    0.11350    1.000
    N24      N        0.56210    0.15840    0.06670    1.000
    C23      C        0.72280    0.10100    0.22370    1.000
    H12      H        0.70560    0.98420    0.20550    1.000
    C24      C        0.70600    0.89500    0.20100    1.000
    N25      N        0.11080    0.40490    0.38650    1.000
    N26      N        0.06210    0.34160    0.43330    1.000
    C25      C        0.22280    0.39900    0.27630    1.000
    H13      H        0.20560    0.51580    0.29450    1.000
    C26      C        0.20600    0.60500    0.29900    1.000
    N27      N        0.61080    0.90490    0.88650    1.000
    N28      N        0.56210    0.84160    0.93330    1.000
    C27      C        0.72280    0.89900    0.77630    1.000
    H14      H        0.70560    0.01580    0.79450    1.000
    C28      C        0.70600    0.10500    0.79900    1.000
    N29      N        0.88920    0.09510    0.38650    1.000
    N30      N        0.93790    0.15840    0.43330    1.000
    C29      C        0.77720    0.10100    0.27630    1.000
    H15      H        0.79440    0.98420    0.29450    1.000
    C30      C        0.79400    0.89500    0.29900    1.000
    N31      N        0.38920    0.59510    0.88650    1.000
    N32      N        0.43790    0.65840    0.93330    1.000
    C31      C        0.27720    0.60100    0.77630    1.000
    H16      H        0.29440    0.48420    0.79450    1.000
    C32      C        0.29400    0.39500    0.79900    1.000
    Cu1      Cu       0.00000    0.00000    0.50000    1.000
    Cu2      Cu       0.50000    0.50000    0.00000    1.000
    Cu3      Cu       0.00000    0.50000    0.50000    1.000
    Cu4      Cu       0.50000    0.00000    0.00000    1.000
    C33      C        0.19610    0.25000    0.30040    1.000
    C34      C        0.13930    0.25000    0.35920    1.000
    C35      C        0.69610    0.75000    0.80040    1.000
    C36      C        0.63930    0.75000    0.85920    1.000
    C37      C        0.80390    0.25000    0.30040    1.000
    C38      C        0.86070    0.25000    0.35920    1.000
    C39      C        0.30390    0.75000    0.80040    1.000
    C40      C        0.36070    0.75000    0.85920    1.000
    C41      C        0.80390    0.75000    0.69960    1.000
    C42      C        0.86070    0.75000    0.64080    1.000
    C43      C        0.30390    0.25000    0.19960    1.000
    C44      C        0.36070    0.25000    0.14080    1.000
    C45      C        0.19610    0.75000    0.69960    1.000
    C46      C        0.13930    0.75000    0.64080    1.000
    C47      C        0.69610    0.25000    0.19960    1.000
    C48      C        0.63930    0.25000    0.14080    1.000
