# CIF file generated by openbabel 3.1.0, see https://openbabel.org
data_I
_chemical_name_common 'image0'
_cell_length_a 14.3026
_cell_length_b 12.0421
_cell_length_c 21.6987
_cell_angle_alpha 90
_cell_angle_beta 90
_cell_angle_gamma 90
_space_group_name_H-M_alt 'P 1'
_space_group_name_Hall 'P 1'
loop_
    _symmetry_equiv_pos_as_xyz
    x,y,z
loop_
    _atom_site_label
    _atom_site_type_symbol
    _atom_site_fract_x
    _atom_site_fract_y
    _atom_site_fract_z
    _atom_site_occupancy
    N1       N        0.61309    0.94887    0.64161    1.000
    Cu1      Cu       0.94980    0.01142    0.05231    1.000
    O1       O        0.50612    0.62921    0.92049    1.000
    O2       O        0.59061    0.64588    0.00715    1.000
    O3       O        0.93102    0.91900    0.92176    1.000
    O4       O        0.84907    0.93060    0.00997    1.000
    C1       C        0.55677    0.96930    0.68892    1.000
    H1       H        0.49970    0.00720    0.68100    1.000
    C2       C        0.57664    0.93810    0.75002    1.000
    H2       H        0.53360    0.95520    0.78200    1.000
    C3       C        0.65813    0.88306    0.76336    1.000
    C4       C        0.71863    0.85547    0.71405    1.000
    C5       C        0.69367    0.89050    0.65340    1.000
    C6       C        0.75302    0.86450    0.60332    1.000
    H3       H        0.73850    0.89090    0.56320    1.000
    C7       C        0.83130    0.80130    0.61245    1.000
    H4       H        0.87050    0.78350    0.57850    1.000
    C8       C        0.85405    0.76260    0.67150    1.000
    H5       H        0.90740    0.71680    0.67700    1.000
    C9       C        0.80014    0.79020    0.72134    1.000
    H6       H        0.81760    0.76530    0.76120    1.000
    C10      C        0.67917    0.85163    0.82842    1.000
    C11      C        0.61721    0.78247    0.85979    1.000
    H7       H        0.56370    0.75420    0.83910    1.000
    C12      C        0.63296    0.75438    0.92126    1.000
    C13      C        0.71067    0.79741    0.95186    1.000
    H8       H        0.72050    0.78090    0.99420    1.000
    C14      C        0.77353    0.86414    0.92053    1.000
    C15      C        0.75885    0.89060    0.85857    1.000
    H9       H        0.80300    0.93500    0.83700    1.000
    C16      C        0.57050    0.67077    0.95263    1.000
    C17      C        0.85832    0.90759    0.95366    1.000
    N2       N        0.88691    0.05113    0.14161    1.000
    Cu2      Cu       0.55020    0.98858    0.55231    1.000
    O5       O        0.99388    0.37079    0.42049    1.000
    O6       O        0.90939    0.35412    0.50715    1.000
    O7       O        0.56898    0.08100    0.42176    1.000
    O8       O        0.65093    0.06940    0.50997    1.000
    C18      C        0.94323    0.03070    0.18892    1.000
    H10      H        0.00030    0.99280    0.18100    1.000
    C19      C        0.92336    0.06190    0.25002    1.000
    H11      H        0.96640    0.04480    0.28200    1.000
    C20      C        0.84187    0.11694    0.26336    1.000
    C21      C        0.78137    0.14453    0.21405    1.000
    C22      C        0.80633    0.10950    0.15340    1.000
    C23      C        0.74698    0.13550    0.10332    1.000
    H12      H        0.76150    0.10910    0.06320    1.000
    C24      C        0.66870    0.19870    0.11245    1.000
    H13      H        0.62950    0.21650    0.07850    1.000
    C25      C        0.64595    0.23740    0.17150    1.000
    H14      H        0.59260    0.28320    0.17700    1.000
    C26      C        0.69986    0.20980    0.22134    1.000
    H15      H        0.68240    0.23470    0.26120    1.000
    C27      C        0.82083    0.14837    0.32842    1.000
    C28      C        0.88279    0.21753    0.35979    1.000
    H16      H        0.93630    0.24580    0.33910    1.000
    C29      C        0.86704    0.24562    0.42126    1.000
    C30      C        0.78933    0.20259    0.45186    1.000
    H17      H        0.77950    0.21910    0.49420    1.000
    C31      C        0.72647    0.13586    0.42053    1.000
    C32      C        0.74115    0.10940    0.35857    1.000
    H18      H        0.69700    0.06500    0.33700    1.000
    C33      C        0.92950    0.32923    0.45263    1.000
    C34      C        0.64168    0.09241    0.45366    1.000
    N3       N        0.38691    0.44887    0.85839    1.000
    Cu3      Cu       0.05020    0.51142    0.44769    1.000
    O9       O        0.49388    0.12921    0.57951    1.000
    O10      O        0.40939    0.14588    0.49285    1.000
    O11      O        0.06898    0.41900    0.57824    1.000
    O12      O        0.15093    0.43060    0.49003    1.000
    C35      C        0.44323    0.46930    0.81108    1.000
    H19      H        0.50030    0.50720    0.81900    1.000
    C36      C        0.42336    0.43810    0.74998    1.000
    H20      H        0.46640    0.45520    0.71800    1.000
    C37      C        0.34187    0.38306    0.73664    1.000
    C38      C        0.28137    0.35547    0.78595    1.000
    C39      C        0.30633    0.39050    0.84660    1.000
    C40      C        0.24698    0.36450    0.89668    1.000
    H21      H        0.26150    0.39090    0.93680    1.000
    C41      C        0.16870    0.30130    0.88755    1.000
    H22      H        0.12950    0.28350    0.92150    1.000
    C42      C        0.14595    0.26260    0.82850    1.000
    H23      H        0.09260    0.21680    0.82300    1.000
    C43      C        0.19986    0.29020    0.77866    1.000
    H24      H        0.18240    0.26530    0.73880    1.000
    C44      C        0.32083    0.35163    0.67158    1.000
    C45      C        0.38279    0.28247    0.64021    1.000
    H25      H        0.43630    0.25420    0.66090    1.000
    C46      C        0.36704    0.25438    0.57874    1.000
    C47      C        0.28933    0.29741    0.54814    1.000
    H26      H        0.27950    0.28090    0.50580    1.000
    C48      C        0.22647    0.36414    0.57947    1.000
    C49      C        0.24115    0.39060    0.64143    1.000
    H27      H        0.19700    0.43500    0.66300    1.000
    C50      C        0.42950    0.17077    0.54737    1.000
    C51      C        0.14168    0.40759    0.54634    1.000
    N4       N        0.11309    0.55113    0.35839    1.000
    Cu4      Cu       0.44980    0.48858    0.94769    1.000
    O13      O        0.00612    0.87079    0.07951    1.000
    O14      O        0.09061    0.85412    0.99285    1.000
    O15      O        0.43102    0.58100    0.07824    1.000
    O16      O        0.34907    0.56940    0.99003    1.000
    C52      C        0.05677    0.53070    0.31108    1.000
    H28      H        0.99970    0.49280    0.31900    1.000
    C53      C        0.07664    0.56190    0.24998    1.000
    H29      H        0.03360    0.54480    0.21800    1.000
    C54      C        0.15813    0.61694    0.23664    1.000
    C55      C        0.21863    0.64453    0.28595    1.000
    C56      C        0.19367    0.60950    0.34660    1.000
    C57      C        0.25302    0.63550    0.39668    1.000
    H30      H        0.23850    0.60910    0.43680    1.000
    C58      C        0.33130    0.69870    0.38755    1.000
    H31      H        0.37050    0.71650    0.42150    1.000
    C59      C        0.35405    0.73740    0.32850    1.000
    H32      H        0.40740    0.78320    0.32300    1.000
    C60      C        0.30014    0.70980    0.27866    1.000
    H33      H        0.31760    0.73470    0.23880    1.000
    C61      C        0.17917    0.64837    0.17158    1.000
    C62      C        0.11721    0.71753    0.14021    1.000
    H34      H        0.06370    0.74580    0.16090    1.000
    C63      C        0.13296    0.74562    0.07874    1.000
    C64      C        0.21067    0.70259    0.04814    1.000
    H35      H        0.22050    0.71910    0.00580    1.000
    C65      C        0.27353    0.63586    0.07947    1.000
    C66      C        0.25885    0.60940    0.14143    1.000
    H36      H        0.30300    0.56500    0.16300    1.000
    C67      C        0.07050    0.82923    0.04737    1.000
    C68      C        0.35832    0.59241    0.04634    1.000
    N5       N        0.38691    0.05113    0.35839    1.000
    Cu5      Cu       0.05020    0.98858    0.94769    1.000
    O17      O        0.49388    0.37079    0.07951    1.000
    O18      O        0.40939    0.35412    0.99285    1.000
    O19      O        0.06898    0.08100    0.07824    1.000
    O20      O        0.15093    0.06940    0.99003    1.000
    C69      C        0.44323    0.03070    0.31108    1.000
    H37      H        0.50030    0.99280    0.31900    1.000
    C70      C        0.42336    0.06190    0.24998    1.000
    H38      H        0.46640    0.04480    0.21800    1.000
    C71      C        0.34187    0.11694    0.23664    1.000
    C72      C        0.28137    0.14453    0.28595    1.000
    C73      C        0.30633    0.10950    0.34660    1.000
    C74      C        0.24698    0.13550    0.39668    1.000
    H39      H        0.26150    0.10910    0.43680    1.000
    C75      C        0.16870    0.19870    0.38755    1.000
    H40      H        0.12950    0.21650    0.42150    1.000
    C76      C        0.14595    0.23740    0.32850    1.000
    H41      H        0.09260    0.28320    0.32300    1.000
    C77      C        0.19986    0.20980    0.27866    1.000
    H42      H        0.18240    0.23470    0.23880    1.000
    C78      C        0.32083    0.14837    0.17158    1.000
    C79      C        0.38279    0.21753    0.14021    1.000
    H43      H        0.43630    0.24580    0.16090    1.000
    C80      C        0.36704    0.24562    0.07874    1.000
    C81      C        0.28933    0.20259    0.04814    1.000
    H44      H        0.27950    0.21910    0.00580    1.000
    C82      C        0.22647    0.13586    0.07947    1.000
    C83      C        0.24115    0.10940    0.14143    1.000
    H45      H        0.19700    0.06500    0.16300    1.000
    C84      C        0.42950    0.32923    0.04737    1.000
    C85      C        0.14168    0.09241    0.04634    1.000
    N6       N        0.11309    0.94887    0.85839    1.000
    Cu6      Cu       0.44980    0.01142    0.44769    1.000
    O21      O        0.00612    0.62921    0.57951    1.000
    O22      O        0.09061    0.64588    0.49285    1.000
    O23      O        0.43102    0.91900    0.57824    1.000
    O24      O        0.34907    0.93060    0.49003    1.000
    C86      C        0.05677    0.96930    0.81108    1.000
    H46      H        0.99970    0.00720    0.81900    1.000
    C87      C        0.07664    0.93810    0.74998    1.000
    H47      H        0.03360    0.95520    0.71800    1.000
    C88      C        0.15813    0.88306    0.73664    1.000
    C89      C        0.21863    0.85547    0.78595    1.000
    C90      C        0.19367    0.89050    0.84660    1.000
    C91      C        0.25302    0.86450    0.89668    1.000
    H48      H        0.23850    0.89090    0.93680    1.000
    C92      C        0.33130    0.80130    0.88755    1.000
    H49      H        0.37050    0.78350    0.92150    1.000
    C93      C        0.35405    0.76260    0.82850    1.000
    H50      H        0.40740    0.71680    0.82300    1.000
    C94      C        0.30014    0.79020    0.77866    1.000
    H51      H        0.31760    0.76530    0.73880    1.000
    C95      C        0.17917    0.85163    0.67158    1.000
    C96      C        0.11721    0.78247    0.64021    1.000
    H52      H        0.06370    0.75420    0.66090    1.000
    C97      C        0.13296    0.75438    0.57874    1.000
    C98      C        0.21067    0.79741    0.54814    1.000
    H53      H        0.22050    0.78090    0.50580    1.000
    C99      C        0.27353    0.86414    0.57947    1.000
    C100     C        0.25885    0.89060    0.64143    1.000
    H54      H        0.30300    0.93500    0.66300    1.000
    C101     C        0.07050    0.67077    0.54737    1.000
    C102     C        0.35832    0.90759    0.54634    1.000
    N7       N        0.61309    0.55113    0.14161    1.000
    Cu7      Cu       0.94980    0.48858    0.55231    1.000
    O25      O        0.50612    0.87079    0.42049    1.000
    O26      O        0.59061    0.85412    0.50715    1.000
    O27      O        0.93102    0.58100    0.42176    1.000
    O28      O        0.84907    0.56940    0.50997    1.000
    C103     C        0.55677    0.53070    0.18892    1.000
    H55      H        0.49970    0.49280    0.18100    1.000
    C104     C        0.57664    0.56190    0.25002    1.000
    H56      H        0.53360    0.54480    0.28200    1.000
    C105     C        0.65813    0.61694    0.26336    1.000
    C106     C        0.71863    0.64453    0.21405    1.000
    C107     C        0.69367    0.60950    0.15340    1.000
    C108     C        0.75302    0.63550    0.10332    1.000
    H57      H        0.73850    0.60910    0.06320    1.000
    C109     C        0.83130    0.69870    0.11245    1.000
    H58      H        0.87050    0.71650    0.07850    1.000
    C110     C        0.85405    0.73740    0.17150    1.000
    H59      H        0.90740    0.78320    0.17700    1.000
    C111     C        0.80014    0.70980    0.22134    1.000
    H60      H        0.81760    0.73470    0.26120    1.000
    C112     C        0.67917    0.64837    0.32842    1.000
    C113     C        0.61721    0.71753    0.35979    1.000
    H61      H        0.56370    0.74580    0.33910    1.000
    C114     C        0.63296    0.74562    0.42126    1.000
    C115     C        0.71067    0.70259    0.45186    1.000
    H62      H        0.72050    0.71910    0.49420    1.000
    C116     C        0.77353    0.63586    0.42053    1.000
    C117     C        0.75885    0.60940    0.35857    1.000
    H63      H        0.80300    0.56500    0.33700    1.000
    C118     C        0.57050    0.82923    0.45263    1.000
    C119     C        0.85832    0.59241    0.45366    1.000
    N8       N        0.88691    0.44887    0.64161    1.000
    Cu8      Cu       0.55020    0.51142    0.05231    1.000
    O29      O        0.99388    0.12921    0.92049    1.000
    O30      O        0.90939    0.14588    0.00715    1.000
    O31      O        0.56898    0.41900    0.92176    1.000
    O32      O        0.65093    0.43060    0.00997    1.000
    C120     C        0.94323    0.46930    0.68892    1.000
    H64      H        0.00030    0.50720    0.68100    1.000
    C121     C        0.92336    0.43810    0.75002    1.000
    H65      H        0.96640    0.45520    0.78200    1.000
    C122     C        0.84187    0.38306    0.76336    1.000
    C123     C        0.78137    0.35547    0.71405    1.000
    C124     C        0.80633    0.39050    0.65340    1.000
    C125     C        0.74698    0.36450    0.60332    1.000
    H66      H        0.76150    0.39090    0.56320    1.000
    C126     C        0.66870    0.30130    0.61245    1.000
    H67      H        0.62950    0.28350    0.57850    1.000
    C127     C        0.64595    0.26260    0.67150    1.000
    H68      H        0.59260    0.21680    0.67700    1.000
    C128     C        0.69986    0.29020    0.72134    1.000
    H69      H        0.68240    0.26530    0.76120    1.000
    C129     C        0.82083    0.35163    0.82842    1.000
    C130     C        0.88279    0.28247    0.85979    1.000
    H70      H        0.93630    0.25420    0.83910    1.000
    C131     C        0.86704    0.25438    0.92126    1.000
    C132     C        0.78933    0.29741    0.95186    1.000
    H71      H        0.77950    0.28090    0.99420    1.000
    C133     C        0.72647    0.36414    0.92053    1.000
    C134     C        0.74115    0.39060    0.85857    1.000
    H72      H        0.69700    0.43500    0.83700    1.000
    C135     C        0.92950    0.17077    0.95263    1.000
    C136     C        0.64168    0.40759    0.95366    1.000
