data_functionalizedCrystal
_audit_creation_method	'EQeq! by Chris Wilmer'
_symmetry_space_group_name_H-M	'P1'
_symmetry_Int_Tables_number	1
_symmetry_cell_setting	triclinic
loop_
_symmetry_equiv_pos_as_xyz
  x,y,z
_cell_length_a	12.7559
_cell_length_b	12.7559
_cell_length_c	17.741
_cell_angle_alpha	90
_cell_angle_beta	90
_cell_angle_gamma	120
loop_
_atom_site_label
_atom_site_type_symbol
_atom_site_fract_x
_atom_site_fract_y
_atom_site_fract_z
_atom_site_charge
Mof_O 	O 	0.9445	0.3511	0.0852	-0.305
Mof_O 	O 	0.8202	0.3848	0.1529	-0.528
Mof_C 	C 	0.8755	0.329	0.1404	0.413
Mof_C 	C 	0.826	0.2	0.176	-0.144
Mof_H 	H 	0.7612	0.1372	0.1461	0.075
Mof_H 	H 	0.8895	0.1801	0.1831	0.074
Mof_C 	C 	0.9	0.278	0.21	-0.045
Mof_H 	H 	0.9243	0.2194	0.1977	0.012
Mof_H 	H 	0.9626	0.3419	0.2407	0.041
Mof_O 	O 	0.6489	0.5934	0.0852	-0.32
Mof_O 	O 	0.6152	0.4354	0.1529	-0.533
Mof_C 	C 	0.671	0.5465	0.1404	0.419
Mof_C 	C 	0.8	0.626	0.176	-0.086
Mof_H 	H 	0.8628	0.624	0.1461	0.074
Mof_H 	H 	0.8199	0.7094	0.1831	0.034
Mof_C 	C 	0.722	0.622	0.21	-0.104
Mof_H 	H 	0.7806	0.7049	0.1977	0.057
Mof_H 	H 	0.6581	0.6207	0.2407	0.039
Mof_O 	O 	0.4066	0.0555	0.0852	-0.331
Mof_O 	O 	0.5646	0.1798	0.1529	-0.535
Mof_C 	C 	0.4535	0.1245	0.1404	0.411
Mof_C 	C 	0.374	0.174	0.176	-0.076
Mof_H 	H 	0.376	0.2388	0.1461	0.06
Mof_H 	H 	0.2906	0.1105	0.1831	0.019
Mof_C 	C 	0.378	0.1	0.21	-0.101
Mof_H 	H 	0.2951	0.0757	0.1977	0.052
Mof_H 	H 	0.3793	0.0374	0.2407	0.02
Mof_O 	O 	0.0555	0.6489	0.0852	-0.329
Mof_O 	O 	0.1798	0.6152	0.1529	-0.535
Mof_C 	C 	0.1245	0.671	0.1404	0.415
Mof_C 	C 	0.174	0.8	0.176	-0.06
Mof_H 	H 	0.2388	0.8628	0.1461	0.064
Mof_H 	H 	0.1105	0.8199	0.1831	0.01
Mof_C 	C 	0.1	0.722	0.21	-0.122
Mof_H 	H 	0.0757	0.7806	0.1977	0.068
Mof_H 	H 	0.0374	0.6581	0.2407	0.026
Mof_O 	O 	0.3511	0.4066	0.0852	-0.324
Mof_O 	O 	0.3848	0.5646	0.1529	-0.532
Mof_C 	C 	0.329	0.4535	0.1404	0.412
Mof_C 	C 	0.2	0.374	0.176	-0.118
Mof_H 	H 	0.1372	0.376	0.1461	0.066
Mof_H 	H 	0.1801	0.2906	0.1831	0.052
Mof_C 	C 	0.278	0.378	0.21	-0.062
Mof_H 	H 	0.2194	0.2951	0.1977	0.024
Mof_H 	H 	0.3419	0.3793	0.2407	0.028
Mof_O 	O 	0.5934	0.9445	0.0852	-0.302
Mof_O 	O 	0.4354	0.8202	0.1529	-0.528
Mof_C 	C 	0.5465	0.8755	0.1404	0.416
Mof_C 	C 	0.626	0.826	0.176	-0.127
Mof_H 	H 	0.624	0.7612	0.1461	0.08
Mof_H 	H 	0.7094	0.8895	0.1831	0.067
Mof_C 	C 	0.622	0.9	0.21	-0.065
Mof_H 	H 	0.7049	0.9243	0.1977	0.029
Mof_H 	H 	0.6207	0.9626	0.2407	0.046
Mof_O 	O 	0.3511	0.9445	0.4148	-0.294
Mof_O 	O 	0.3848	0.8202	0.3471	-0.524
Mof_C 	C 	0.329	0.8755	0.3596	0.414
Mof_C 	C 	0.2	0.826	0.324	-0.139
Mof_H 	H 	0.1372	0.7612	0.3539	0.079
Mof_H 	H 	0.1801	0.8895	0.3169	0.076
Mof_C 	C 	0.278	0.9	0.29	-0.047
Mof_H 	H 	0.2194	0.9243	0.3023	0.014
Mof_H 	H 	0.3419	0.9626	0.2593	0.043
Mof_O 	O 	0.5934	0.6489	0.4148	-0.309
Mof_O 	O 	0.4354	0.6152	0.3471	-0.53
Mof_C 	C 	0.5465	0.671	0.3596	0.419
Mof_C 	C 	0.626	0.8	0.324	-0.083
Mof_H 	H 	0.624	0.8628	0.3539	0.077
Mof_H 	H 	0.7094	0.8199	0.3169	0.035
Mof_C 	C 	0.622	0.722	0.29	-0.108
Mof_H 	H 	0.7049	0.7806	0.3023	0.058
Mof_H 	H 	0.6207	0.6581	0.2593	0.041
Mof_O 	O 	0.0555	0.4066	0.4148	-0.32
Mof_O 	O 	0.1798	0.5646	0.3471	-0.531
Mof_C 	C 	0.1245	0.4535	0.3596	0.412
Mof_C 	C 	0.174	0.374	0.324	-0.072
Mof_H 	H 	0.2388	0.376	0.3539	0.063
Mof_H 	H 	0.1105	0.2906	0.3169	0.02
Mof_C 	C 	0.1	0.378	0.29	-0.104
Mof_H 	H 	0.0757	0.2951	0.3023	0.054
Mof_H 	H 	0.0374	0.3793	0.2593	0.022
Mof_O 	O 	0.6489	0.0555	0.4148	-0.318
Mof_O 	O 	0.6152	0.1798	0.3471	-0.532
Mof_C 	C 	0.671	0.1245	0.3596	0.415
Mof_C 	C 	0.8	0.174	0.324	-0.057
Mof_H 	H 	0.8628	0.2388	0.3539	0.067
Mof_H 	H 	0.8199	0.1105	0.3169	0.011
Mof_C 	C 	0.722	0.1	0.29	-0.126
Mof_H 	H 	0.7806	0.0757	0.3023	0.07
Mof_H 	H 	0.6581	0.0374	0.2593	0.028
Mof_O 	O 	0.4066	0.3511	0.4148	-0.313
Mof_O 	O 	0.5646	0.3848	0.3471	-0.529
Mof_C 	C 	0.4535	0.329	0.3596	0.413
Mof_C 	C 	0.374	0.2	0.324	-0.114
Mof_H 	H 	0.376	0.1372	0.3539	0.069
Mof_H 	H 	0.2906	0.1801	0.3169	0.052
Mof_C 	C 	0.378	0.278	0.29	-0.066
Mof_H 	H 	0.2951	0.2194	0.3023	0.026
Mof_H 	H 	0.3793	0.3419	0.2593	0.03
Mof_O 	O 	0.9445	0.5934	0.4148	-0.292
Mof_O 	O 	0.8202	0.4354	0.3471	-0.524
Mof_C 	C 	0.8755	0.5465	0.3596	0.417
Mof_C 	C 	0.826	0.626	0.324	-0.123
Mof_H 	H 	0.7612	0.624	0.3539	0.083
Mof_H 	H 	0.8895	0.7094	0.3169	0.067
Mof_C 	C 	0.9	0.622	0.29	-0.068
Mof_H 	H 	0.9243	0.7049	0.3023	0.03
Mof_H 	H 	0.9626	0.6207	0.2593	0.048
Mof_O 	O 	0.0555	0.6489	0.9148	-0.286
Mof_O 	O 	0.1798	0.6152	0.8471	-0.521
Mof_C 	C 	0.1245	0.671	0.8596	0.411
Mof_C 	C 	0.174	0.8	0.824	-0.048
Mof_H 	H 	0.2388	0.8628	0.8539	0.071
Mof_H 	H 	0.1105	0.8199	0.8169	0.009
Mof_C 	C 	0.1	0.722	0.79	-0.131
Mof_H 	H 	0.0757	0.7806	0.8023	0.075
Mof_H 	H 	0.0374	0.6581	0.7593	0.03
Mof_O 	O 	0.3511	0.4066	0.9148	-0.28
Mof_O 	O 	0.3848	0.5646	0.8471	-0.518
Mof_C 	C 	0.329	0.4535	0.8596	0.409
Mof_C 	C 	0.2	0.374	0.824	-0.105
Mof_H 	H 	0.1372	0.376	0.8539	0.074
Mof_H 	H 	0.1801	0.2906	0.8169	0.05
Mof_C 	C 	0.278	0.378	0.79	-0.072
Mof_H 	H 	0.2194	0.2951	0.8023	0.032
Mof_H 	H 	0.3419	0.3793	0.7593	0.032
Mof_O 	O 	0.5934	0.9445	0.9148	-0.26
Mof_O 	O 	0.4354	0.8202	0.8471	-0.514
Mof_C 	C 	0.5465	0.8755	0.8596	0.413
Mof_C 	C 	0.626	0.826	0.824	-0.114
Mof_H 	H 	0.624	0.7612	0.8539	0.087
Mof_H 	H 	0.7094	0.8895	0.8169	0.064
Mof_C 	C 	0.622	0.9	0.79	-0.075
Mof_H 	H 	0.7049	0.9243	0.8023	0.036
Mof_H 	H 	0.6207	0.9626	0.7593	0.05
Mof_O 	O 	0.9445	0.3511	0.9148	-0.262
Mof_O 	O 	0.8202	0.3848	0.8471	-0.513
Mof_C 	C 	0.8755	0.329	0.8596	0.41
Mof_C 	C 	0.826	0.2	0.824	-0.129
Mof_H 	H 	0.7612	0.1372	0.8539	0.083
Mof_H 	H 	0.8895	0.1801	0.8169	0.073
Mof_C 	C 	0.9	0.278	0.79	-0.054
Mof_H 	H 	0.9243	0.2194	0.8023	0.02
Mof_H 	H 	0.9626	0.3419	0.7593	0.044
Mof_O 	O 	0.6489	0.5934	0.9148	-0.277
Mof_O 	O 	0.6152	0.4354	0.8471	-0.519
Mof_C 	C 	0.671	0.5465	0.8596	0.415
Mof_C 	C 	0.8	0.626	0.824	-0.074
Mof_H 	H 	0.8628	0.624	0.8539	0.081
Mof_H 	H 	0.8199	0.7094	0.8169	0.033
Mof_C 	C 	0.722	0.622	0.79	-0.113
Mof_H 	H 	0.7806	0.7049	0.8023	0.063
Mof_H 	H 	0.6581	0.6207	0.7593	0.043
Mof_O 	O 	0.4066	0.0555	0.9148	-0.288
Mof_O 	O 	0.5646	0.1798	0.8471	-0.521
Mof_C 	C 	0.4535	0.1245	0.8596	0.408
Mof_C 	C 	0.374	0.174	0.824	-0.064
Mof_H 	H 	0.376	0.2388	0.8539	0.067
Mof_H 	H 	0.2906	0.1105	0.8169	0.018
Mof_C 	C 	0.378	0.1	0.79	-0.11
Mof_H 	H 	0.2951	0.0757	0.8023	0.059
Mof_H 	H 	0.3793	0.0374	0.7593	0.025
Mof_O 	O 	0.6489	0.0555	0.5852	-0.318
Mof_O 	O 	0.6152	0.1798	0.6529	-0.533
Mof_C 	C 	0.671	0.1245	0.6404	0.415
Mof_C 	C 	0.8	0.174	0.676	-0.056
Mof_H 	H 	0.8628	0.2388	0.6461	0.067
Mof_H 	H 	0.8199	0.1105	0.6831	0.01
Mof_C 	C 	0.722	0.1	0.71	-0.127
Mof_H 	H 	0.7806	0.0757	0.6977	0.072
Mof_H 	H 	0.6581	0.0374	0.7407	0.027
Mof_O 	O 	0.4066	0.3511	0.5852	-0.313
Mof_O 	O 	0.5646	0.3848	0.6529	-0.529
Mof_C 	C 	0.4535	0.329	0.6404	0.413
Mof_C 	C 	0.374	0.2	0.676	-0.112
Mof_H 	H 	0.376	0.1372	0.6461	0.069
Mof_H 	H 	0.2906	0.1801	0.6831	0.051
Mof_C 	C 	0.378	0.278	0.71	-0.067
Mof_H 	H 	0.2951	0.2194	0.6977	0.028
Mof_H 	H 	0.3793	0.3419	0.7407	0.029
Mof_O 	O 	0.9445	0.5934	0.5852	-0.292
Mof_O 	O 	0.8202	0.4354	0.6529	-0.525
Mof_C 	C 	0.8755	0.5465	0.6404	0.417
Mof_C 	C 	0.826	0.626	0.676	-0.121
Mof_H 	H 	0.7612	0.624	0.6461	0.082
Mof_H 	H 	0.8895	0.7094	0.6831	0.065
Mof_C 	C 	0.9	0.622	0.71	-0.07
Mof_H 	H 	0.9243	0.7049	0.6977	0.033
Mof_H 	H 	0.9626	0.6207	0.7407	0.047
Mof_O 	O 	0.3511	0.9445	0.5852	-0.294
Mof_O 	O 	0.3848	0.8202	0.6529	-0.524
Mof_C 	C 	0.329	0.8755	0.6404	0.414
Mof_C 	C 	0.2	0.826	0.676	-0.136
Mof_H 	H 	0.1372	0.7612	0.6461	0.078
Mof_H 	H 	0.1801	0.8895	0.6831	0.074
Mof_C 	C 	0.278	0.9	0.71	-0.05
Mof_H 	H 	0.2194	0.9243	0.6977	0.017
Mof_H 	H 	0.3419	0.9626	0.7407	0.042
Mof_O 	O 	0.5934	0.6489	0.5852	-0.309
Mof_O 	O 	0.4354	0.6152	0.6529	-0.531
Mof_C 	C 	0.5465	0.671	0.6404	0.419
Mof_C 	C 	0.626	0.8	0.676	-0.081
Mof_H 	H 	0.624	0.8628	0.6461	0.077
Mof_H 	H 	0.7094	0.8199	0.6831	0.034
Mof_C 	C 	0.622	0.722	0.71	-0.109
Mof_H 	H 	0.7049	0.7806	0.6977	0.06
Mof_H 	H 	0.6207	0.6581	0.7407	0.04
Mof_O 	O 	0.0555	0.4066	0.5852	-0.32
Mof_O 	O 	0.1798	0.5646	0.6529	-0.532
Mof_C 	C 	0.1245	0.4535	0.6404	0.412
Mof_C 	C 	0.174	0.374	0.676	-0.071
Mof_H 	H 	0.2388	0.376	0.6461	0.062
Mof_H 	H 	0.1105	0.2906	0.6831	0.019
Mof_C 	C 	0.1	0.378	0.71	-0.105
Mof_H 	H 	0.0757	0.2951	0.6977	0.055
Mof_H 	H 	0.0374	0.3793	0.7407	0.022
Mof_Nd	Nd	0.66667	0.33333	0.25	2.781
Mof_Nd	Nd	0.33333	0.66667	0.25	2.781
Mof_Nd	Nd	0.33333	0.66667	0.75	2.785
Mof_Nd	Nd	0.66667	0.33333	0.75	2.785
Mof_Cd	Cd	-0	0.5	-0	0.405
Mof_Cd	Cd	0.5	0.5	-0	0.436
Mof_Cd	Cd	0.5	0	-0	0.405
Mof_Cd	Cd	0.5	1.00976e-32	0.5	0.465
Mof_Cd	Cd	0.5	0.5	0.5	0.497
Mof_Cd	Cd	5.78898e-18	0.5	0.5	0.465
Mof_O 	O 	0.7803	0.2197	0.25	-0.34
Mof_O 	O 	0.7803	0.5606	0.25	-0.337
Mof_O 	O 	0.4394	0.2197	0.25	-0.344
Mof_O 	O 	0.2197	0.7803	0.25	-0.34
Mof_O 	O 	0.2197	0.4394	0.25	-0.344
Mof_O 	O 	0.5606	0.7803	0.25	-0.337
Mof_O 	O 	0.2197	0.7803	0.75	-0.341
Mof_O 	O 	0.2197	0.4394	0.75	-0.344
Mof_O 	O 	0.5606	0.7803	0.75	-0.338
Mof_O 	O 	0.7803	0.2197	0.75	-0.341
Mof_O 	O 	0.7803	0.5606	0.75	-0.338
Mof_O 	O 	0.4394	0.2197	0.75	-0.344
_end
