data_functionalizedCrystal
_audit_creation_method	'EQeq! by Chris Wilmer'
_symmetry_space_group_name_H-M	'P1'
_symmetry_Int_Tables_number	1
_symmetry_cell_setting	triclinic
loop_
_symmetry_equiv_pos_as_xyz
  x,y,z
_cell_length_a	16.8753
_cell_length_b	16.8753
_cell_length_c	16.8753
_cell_angle_alpha	90
_cell_angle_beta	90
_cell_angle_gamma	90
loop_
_atom_site_label
_atom_site_type_symbol
_atom_site_fract_x
_atom_site_fract_y
_atom_site_fract_z
_atom_site_charge
Mof_In	In	0.5077	0.61417	0.4505	2.549
Mof_O 	O 	0.4105	0.543	0.4954	-0.919
Mof_O 	O 	0.4625	0.7195	0.5004	-0.651
Mof_O 	O 	0.6133	0.6628	0.4029	-0.638
Mof_O 	O 	0.617	0.58	0.3003	-0.334
Mof_O 	O 	0.4474	0.6469	0.345	-0.664
Mof_O 	O 	0.5529	0.743	0.5906	-0.33
Mof_C 	C 	0.3772	0.6265	0.2259	-0.26
Mof_C 	C 	0.4116	0.5975	0.3029	0.543
Mof_C 	C 	0.4905	0.7597	0.5571	0.464
Mof_C 	C 	0.6408	0.6377	0.3371	0.423
Mof_C 	C 	0.4087	0.6949	0.1893	0.196
Mof_H 	H 	0.4536	0.719	0.2103	-0.034
Mof_C 	C 	0.7383	0.7506	0.3459	0.072
Mof_H 	H 	0.7124	0.7685	0.3911	0.029
Mof_C 	C 	0.442	0.8308	0.5802	-0.187
Mof_C 	C 	0.376	0.8529	0.5378	0.122
Mof_H 	H 	0.3607	0.8225	0.4944	0.019
Mof_C 	C 	0.7113	0.6828	0.3041	-0.156
Mof_O 	O 	0.4037	0.5241	0.3166	-0.568
Mof_In	In	0.9923	0.38583	0.9505	2.559
Mof_O 	O 	0.0895	0.457	0.9954	-0.919
Mof_O 	O 	0.0375	0.2805	0.0004	-0.651
Mof_O 	O 	0.8867	0.3372	0.9029	-0.638
Mof_O 	O 	0.883	0.42	0.8003	-0.333
Mof_O 	O 	0.0526	0.3531	0.845	-0.666
Mof_O 	O 	0.9471	0.257	0.0906	-0.332
Mof_C 	C 	0.1228	0.3735	0.7259	-0.26
Mof_C 	C 	0.0884	0.4025	0.8029	0.543
Mof_C 	C 	0.0095	0.2403	0.0571	0.468
Mof_C 	C 	0.8592	0.3623	0.8371	0.423
Mof_C 	C 	0.0913	0.3051	0.6893	0.196
Mof_H 	H 	0.0464	0.281	0.7103	-0.034
Mof_C 	C 	0.7617	0.2494	0.8459	0.072
Mof_H 	H 	0.7876	0.2315	0.8911	0.029
Mof_C 	C 	0.058	0.1692	0.0802	-0.192
Mof_C 	C 	0.124	0.1471	0.0378	0.129
Mof_H 	H 	0.1393	0.1775	0.9944	0.016
Mof_C 	C 	0.7887	0.3172	0.8041	-0.156
Mof_O 	O 	0.0963	0.4759	0.8166	-0.568
Mof_In	In	0.4923	0.11417	0.0495	2.552
Mof_O 	O 	0.5895	0.043	0.0046	-0.917
Mof_O 	O 	0.5375	0.2195	0.9996	-0.65
Mof_O 	O 	0.3867	0.1628	0.0971	-0.637
Mof_O 	O 	0.383	0.08	0.1997	-0.333
Mof_O 	O 	0.5526	0.1469	0.155	-0.664
Mof_O 	O 	0.4471	0.243	0.9094	-0.33
Mof_C 	C 	0.6228	0.1265	0.2741	-0.26
Mof_C 	C 	0.5884	0.0975	0.1971	0.543
Mof_C 	C 	0.5095	0.2597	0.9429	0.464
Mof_C 	C 	0.3592	0.1377	0.1629	0.423
Mof_C 	C 	0.5913	0.1949	0.3107	0.196
Mof_H 	H 	0.5464	0.219	0.2897	-0.033
Mof_C 	C 	0.2617	0.2506	0.1541	0.072
Mof_H 	H 	0.2876	0.2685	0.1089	0.029
Mof_C 	C 	0.558	0.3308	0.9198	-0.187
Mof_C 	C 	0.624	0.3529	0.9622	0.123
Mof_H 	H 	0.6393	0.3225	0.0056	0.018
Mof_C 	C 	0.2887	0.1828	0.1959	-0.156
Mof_O 	O 	0.5963	0.0241	0.1834	-0.568
Mof_In	In	0.0077	0.88583	0.5495	2.542
Mof_O 	O 	0.9105	0.957	0.5046	-0.916
Mof_O 	O 	0.9625	0.7805	0.4996	-0.648
Mof_O 	O 	0.1133	0.8372	0.5971	-0.636
Mof_O 	O 	0.117	0.92	0.6997	-0.333
Mof_O 	O 	0.9474	0.8531	0.655	-0.661
Mof_O 	O 	0.0529	0.757	0.4094	-0.331
Mof_C 	C 	0.8772	0.8735	0.7741	-0.258
Mof_C 	C 	0.9116	0.9025	0.6971	0.542
Mof_C 	C 	0.9905	0.7403	0.4429	0.466
Mof_C 	C 	0.1408	0.8623	0.6629	0.422
Mof_C 	C 	0.9087	0.8051	0.8107	0.195
Mof_H 	H 	0.9536	0.781	0.7897	-0.032
Mof_C 	C 	0.2383	0.7494	0.6541	0.072
Mof_H 	H 	0.2124	0.7315	0.6089	0.029
Mof_C 	C 	0.942	0.6692	0.4198	-0.188
Mof_C 	C 	0.876	0.6471	0.4622	0.122
Mof_H 	H 	0.8607	0.6775	0.5056	0.019
Mof_C 	C 	0.2113	0.8172	0.6959	-0.156
Mof_O 	O 	0.9037	0.9759	0.6834	-0.565
Mof_In	In	0.4505	0.5077	0.61417	2.55
Mof_O 	O 	0.4954	0.4105	0.543	-0.918
Mof_O 	O 	0.5004	0.4625	0.7195	-0.65
Mof_O 	O 	0.4029	0.6133	0.6628	-0.637
Mof_O 	O 	0.3003	0.617	0.58	-0.333
Mof_O 	O 	0.345	0.4474	0.6469	-0.664
Mof_O 	O 	0.5906	0.5529	0.743	-0.33
Mof_C 	C 	0.2259	0.3772	0.6265	-0.26
Mof_C 	C 	0.3029	0.4116	0.5975	0.543
Mof_C 	C 	0.5571	0.4905	0.7597	0.464
Mof_C 	C 	0.3371	0.6408	0.6377	0.423
Mof_C 	C 	0.1893	0.4087	0.6949	0.196
Mof_H 	H 	0.2103	0.4536	0.719	-0.034
Mof_C 	C 	0.3459	0.7383	0.7506	0.072
Mof_H 	H 	0.3911	0.7124	0.7685	0.029
Mof_C 	C 	0.5802	0.442	0.8308	-0.187
Mof_C 	C 	0.5378	0.376	0.8529	0.122
Mof_H 	H 	0.4944	0.3607	0.8225	0.019
Mof_C 	C 	0.3041	0.7113	0.6828	-0.156
Mof_O 	O 	0.3166	0.4037	0.5241	-0.568
Mof_In	In	0.9505	0.9923	0.38583	2.559
Mof_O 	O 	0.9954	0.0895	0.457	-0.919
Mof_O 	O 	0.0004	0.0375	0.2805	-0.651
Mof_O 	O 	0.9029	0.8867	0.3372	-0.638
Mof_O 	O 	0.8003	0.883	0.42	-0.333
Mof_O 	O 	0.845	0.0526	0.3531	-0.666
Mof_O 	O 	0.0906	0.9471	0.257	-0.332
Mof_C 	C 	0.7259	0.1228	0.3735	-0.26
Mof_C 	C 	0.8029	0.0884	0.4025	0.543
Mof_C 	C 	0.0571	0.0095	0.2403	0.468
Mof_C 	C 	0.8371	0.8592	0.3623	0.423
Mof_C 	C 	0.6893	0.0913	0.3051	0.196
Mof_H 	H 	0.7103	0.0464	0.281	-0.034
Mof_C 	C 	0.8459	0.7617	0.2494	0.072
Mof_H 	H 	0.8911	0.7876	0.2315	0.029
Mof_C 	C 	0.0802	0.058	0.1692	-0.192
Mof_C 	C 	0.0378	0.124	0.1471	0.129
Mof_H 	H 	0.9944	0.1393	0.1775	0.016
Mof_C 	C 	0.8041	0.7887	0.3172	-0.156
Mof_O 	O 	0.8166	0.0963	0.4759	-0.568
Mof_In	In	0.0495	0.4923	0.11417	2.552
Mof_O 	O 	0.0046	0.5895	0.043	-0.917
Mof_O 	O 	0.9996	0.5375	0.2195	-0.65
Mof_O 	O 	0.0971	0.3867	0.1628	-0.637
Mof_O 	O 	0.1997	0.383	0.08	-0.333
Mof_O 	O 	0.155	0.5526	0.1469	-0.664
Mof_O 	O 	0.9094	0.4471	0.243	-0.33
Mof_C 	C 	0.2741	0.6228	0.1265	-0.26
Mof_C 	C 	0.1971	0.5884	0.0975	0.543
Mof_C 	C 	0.9429	0.5095	0.2597	0.464
Mof_C 	C 	0.1629	0.3592	0.1377	0.423
Mof_C 	C 	0.3107	0.5913	0.1949	0.196
Mof_H 	H 	0.2897	0.5464	0.219	-0.033
Mof_C 	C 	0.1541	0.2617	0.2506	0.072
Mof_H 	H 	0.1089	0.2876	0.2685	0.029
Mof_C 	C 	0.9198	0.558	0.3308	-0.187
Mof_C 	C 	0.9622	0.624	0.3529	0.123
Mof_H 	H 	0.0056	0.6393	0.3225	0.018
Mof_C 	C 	0.1959	0.2887	0.1828	-0.156
Mof_O 	O 	0.1834	0.5963	0.0241	-0.568
Mof_In	In	0.5495	0.0077	0.88583	2.542
Mof_O 	O 	0.5046	0.9105	0.957	-0.916
Mof_O 	O 	0.4996	0.9625	0.7805	-0.648
Mof_O 	O 	0.5971	0.1133	0.8372	-0.636
Mof_O 	O 	0.6997	0.117	0.92	-0.333
Mof_O 	O 	0.655	0.9474	0.8531	-0.661
Mof_O 	O 	0.4094	0.0529	0.757	-0.331
Mof_C 	C 	0.7741	0.8772	0.8735	-0.258
Mof_C 	C 	0.6971	0.9116	0.9025	0.542
Mof_C 	C 	0.4429	0.9905	0.7403	0.466
Mof_C 	C 	0.6629	0.1408	0.8623	0.422
Mof_C 	C 	0.8107	0.9087	0.8051	0.195
Mof_H 	H 	0.7897	0.9536	0.781	-0.032
Mof_C 	C 	0.6541	0.2383	0.7494	0.072
Mof_H 	H 	0.6089	0.2124	0.7315	0.029
Mof_C 	C 	0.4198	0.942	0.6692	-0.188
Mof_C 	C 	0.4622	0.876	0.6471	0.122
Mof_H 	H 	0.5056	0.8607	0.6775	0.019
Mof_C 	C 	0.6959	0.2113	0.8172	-0.156
Mof_O 	O 	0.6834	0.9037	0.9759	-0.565
Mof_In	In	0.61417	0.4505	0.5077	2.55
Mof_O 	O 	0.543	0.4954	0.4105	-0.918
Mof_O 	O 	0.7195	0.5004	0.4625	-0.65
Mof_O 	O 	0.6628	0.4029	0.6133	-0.637
Mof_O 	O 	0.58	0.3003	0.617	-0.333
Mof_O 	O 	0.6469	0.345	0.4474	-0.664
Mof_O 	O 	0.743	0.5906	0.5529	-0.33
Mof_C 	C 	0.6265	0.2259	0.3772	-0.26
Mof_C 	C 	0.5975	0.3029	0.4116	0.543
Mof_C 	C 	0.7597	0.5571	0.4905	0.464
Mof_C 	C 	0.6377	0.3371	0.6408	0.423
Mof_C 	C 	0.6949	0.1893	0.4087	0.196
Mof_H 	H 	0.719	0.2103	0.4536	-0.034
Mof_C 	C 	0.7506	0.3459	0.7383	0.072
Mof_H 	H 	0.7685	0.3911	0.7124	0.029
Mof_C 	C 	0.8308	0.5802	0.442	-0.187
Mof_C 	C 	0.8529	0.5378	0.376	0.122
Mof_H 	H 	0.8225	0.4944	0.3607	0.019
Mof_C 	C 	0.6828	0.3041	0.7113	-0.156
Mof_O 	O 	0.5241	0.3166	0.4037	-0.568
Mof_In	In	0.38583	0.9505	0.9923	2.559
Mof_O 	O 	0.457	0.9954	0.0895	-0.919
Mof_O 	O 	0.2805	0.0004	0.0375	-0.651
Mof_O 	O 	0.3372	0.9029	0.8867	-0.638
Mof_O 	O 	0.42	0.8003	0.883	-0.333
Mof_O 	O 	0.3531	0.845	0.0526	-0.666
Mof_O 	O 	0.257	0.0906	0.9471	-0.332
Mof_C 	C 	0.3735	0.7259	0.1228	-0.26
Mof_C 	C 	0.4025	0.8029	0.0884	0.543
Mof_C 	C 	0.2403	0.0571	0.0095	0.468
Mof_C 	C 	0.3623	0.8371	0.8592	0.423
Mof_C 	C 	0.3051	0.6893	0.0913	0.196
Mof_H 	H 	0.281	0.7103	0.0464	-0.034
Mof_C 	C 	0.2494	0.8459	0.7617	0.072
Mof_H 	H 	0.2315	0.8911	0.7876	0.029
Mof_C 	C 	0.1692	0.0802	0.058	-0.192
Mof_C 	C 	0.1471	0.0378	0.124	0.129
Mof_H 	H 	0.1775	0.9944	0.1393	0.016
Mof_C 	C 	0.3172	0.8041	0.7887	-0.156
Mof_O 	O 	0.4759	0.8166	0.0963	-0.568
Mof_In	In	0.11417	0.0495	0.4923	2.552
Mof_O 	O 	0.043	0.0046	0.5895	-0.917
Mof_O 	O 	0.2195	0.9996	0.5375	-0.65
Mof_O 	O 	0.1628	0.0971	0.3867	-0.637
Mof_O 	O 	0.08	0.1997	0.383	-0.333
Mof_O 	O 	0.1469	0.155	0.5526	-0.664
Mof_O 	O 	0.243	0.9094	0.4471	-0.33
Mof_C 	C 	0.1265	0.2741	0.6228	-0.26
Mof_C 	C 	0.0975	0.1971	0.5884	0.543
Mof_C 	C 	0.2597	0.9429	0.5095	0.464
Mof_C 	C 	0.1377	0.1629	0.3592	0.423
Mof_C 	C 	0.1949	0.3107	0.5913	0.196
Mof_H 	H 	0.219	0.2897	0.5464	-0.033
Mof_C 	C 	0.2506	0.1541	0.2617	0.072
Mof_H 	H 	0.2685	0.1089	0.2876	0.029
Mof_C 	C 	0.3308	0.9198	0.558	-0.187
Mof_C 	C 	0.3529	0.9622	0.624	0.123
Mof_H 	H 	0.3225	0.0056	0.6393	0.018
Mof_C 	C 	0.1828	0.1959	0.2887	-0.156
Mof_O 	O 	0.0241	0.1834	0.5963	-0.568
Mof_In	In	0.88583	0.5495	0.0077	2.542
Mof_O 	O 	0.957	0.5046	0.9105	-0.916
Mof_O 	O 	0.7805	0.4996	0.9625	-0.648
Mof_O 	O 	0.8372	0.5971	0.1133	-0.636
Mof_O 	O 	0.92	0.6997	0.117	-0.333
Mof_O 	O 	0.8531	0.655	0.9474	-0.661
Mof_O 	O 	0.757	0.4094	0.0529	-0.331
Mof_C 	C 	0.8735	0.7741	0.8772	-0.258
Mof_C 	C 	0.9025	0.6971	0.9116	0.542
Mof_C 	C 	0.7403	0.4429	0.9905	0.466
Mof_C 	C 	0.8623	0.6629	0.1408	0.422
Mof_C 	C 	0.8051	0.8107	0.9087	0.195
Mof_H 	H 	0.781	0.7897	0.9536	-0.032
Mof_C 	C 	0.7494	0.6541	0.2383	0.072
Mof_H 	H 	0.7315	0.6089	0.2124	0.029
Mof_C 	C 	0.6692	0.4198	0.942	-0.188
Mof_C 	C 	0.6471	0.4622	0.876	0.122
Mof_H 	H 	0.6775	0.5056	0.8607	0.019
Mof_C 	C 	0.8172	0.6959	0.2113	-0.156
Mof_O 	O 	0.9759	0.6834	0.9037	-0.565
Mof_Nd	Nd	0.41544	0.41544	0.41544	1.936
Mof_O 	O 	0.5603	0.5603	0.5603	-0.983
Mof_Nd	Nd	0.08456	0.58456	0.91544	1.932
Mof_O 	O 	0.9397	0.4397	0.0603	-0.985
Mof_Nd	Nd	0.58456	0.91544	0.08456	1.932
Mof_O 	O 	0.4397	0.0603	0.9397	-0.985
Mof_Nd	Nd	0.91544	0.08456	0.58456	1.932
Mof_O 	O 	0.0603	0.9397	0.4397	-0.985
_end
