data_functionalizedCrystal
_audit_creation_method	'EQeq! by Chris Wilmer'
_symmetry_space_group_name_H-M	'P1'
_symmetry_Int_Tables_number	1
_symmetry_cell_setting	triclinic
loop_
_symmetry_equiv_pos_as_xyz
  x,y,z
_cell_length_a	17.7771
_cell_length_b	17.7771
_cell_length_c	19.1129
_cell_angle_alpha	90
_cell_angle_beta	90
_cell_angle_gamma	120
loop_
_atom_site_label
_atom_site_type_symbol
_atom_site_fract_x
_atom_site_fract_y
_atom_site_fract_z
_atom_site_charge
Mof_Zn	Zn	0.8725	0.5044	0.3285	1.118
Mof_Zn	Zn	0.6319	0.1275	0.3285	1.118
Mof_Zn	Zn	0.4956	0.3681	0.3285	1.118
Mof_Zn	Zn	0.3681	0.4956	0.6715	1.118
Mof_Zn	Zn	0.5044	0.8725	0.6715	1.118
Mof_Zn	Zn	0.1275	0.6319	0.6715	1.118
Mof_Zn	Zn	0.66667	0.33334	0.265	1.133
Mof_Zn	Zn	0.33333	0.66666	0.735	1.133
Mof_Co	Co	0.66667	0.33334	0.0763	1.032
Mof_Co	Co	0.33333	0.66666	0.9237	1.032
Mof_H 	H 	0.55771	0.53713	0.43944	0.017
Mof_H 	H 	0.79931	0.71602	0.50293	0.026
Mof_H 	H 	0.86203	0.65206	0.44037	-0.003
Mof_H 	H 	0.85922	0.47045	0.99937	0.024
Mof_H 	H 	0.0199	0.62929	0.19823	0.002
Mof_H 	H 	0.08552	0.65217	0.0892	0.022
Mof_H 	H 	0.97942	0.44229	0.43944	0.017
Mof_H 	H 	0.91671	0.20069	0.50293	0.026
Mof_H 	H 	0.79003	0.13797	0.44037	-0.003
Mof_H 	H 	0.61123	0.14078	0.99937	0.023
Mof_H 	H 	0.60939	0.9801	0.19823	0.002
Mof_H 	H 	0.56665	0.91448	0.0892	0.022
Mof_H 	H 	0.46287	0.02058	0.43944	0.017
Mof_H 	H 	0.28398	0.08329	0.50293	0.026
Mof_H 	H 	0.34794	0.20997	0.44037	-0.003
Mof_H 	H 	0.52955	0.38877	0.99937	0.023
Mof_H 	H 	0.37071	0.39061	0.19823	0.002
Mof_H 	H 	0.34783	0.43335	0.0892	0.022
Mof_H 	H 	0.02058	0.46287	0.56056	0.017
Mof_H 	H 	0.08329	0.28398	0.49707	0.026
Mof_H 	H 	0.20997	0.34794	0.55963	-0.003
Mof_H 	H 	0.38877	0.52955	0.00063	0.023
Mof_H 	H 	0.39061	0.37071	0.80177	0.002
Mof_H 	H 	0.43335	0.34783	0.9108	0.022
Mof_H 	H 	0.53713	0.55771	0.56056	0.017
Mof_H 	H 	0.71602	0.79931	0.49707	0.026
Mof_H 	H 	0.65206	0.86203	0.55963	-0.003
Mof_H 	H 	0.47045	0.85922	0.00063	0.024
Mof_H 	H 	0.62929	0.0199	0.80177	0.002
Mof_H 	H 	0.65217	0.08552	0.9108	0.022
Mof_H 	H 	0.44229	0.97942	0.56056	0.017
Mof_H 	H 	0.20069	0.91671	0.49707	0.026
Mof_H 	H 	0.13797	0.79003	0.55963	-0.003
Mof_H 	H 	0.14078	0.61123	0.00063	0.023
Mof_H 	H 	0.9801	0.60939	0.80177	0.002
Mof_H 	H 	0.91448	0.56665	0.9108	0.022
Mof_C 	C 	0.655	0.514	0.409	0.052
Mof_C 	C 	0.74749	0.55549	0.4	0.014
Mof_C 	C 	0.617	0.557	0.443	-0.143
Mof_C 	C 	0.76342	0.66542	0.478	-0.064
Mof_C 	C 	0.802	0.629	0.44	-0.097
Mof_C 	C 	0.67183	0.63283	0.481	0.011
Mof_C 	C 	0.904	0.528	0.1666	0.019
Mof_C 	C 	0.85472	0.48272	0.1074	0.043
Mof_C 	C 	0.89	0.5022	0.0384	-0.139
Mof_C 	C 	0.974	0.572	0.0343	0.014
Mof_C 	C 	0.989	0.596	0.16	-0.102
Mof_C 	C 	0.026	0.613	0.09436	-0.06
Mof_C 	C 	0.859	0.345	0.409	0.052
Mof_C 	C 	0.808	0.25251	0.4	0.014
Mof_C 	C 	0.94	0.383	0.443	-0.143
Mof_C 	C 	0.902	0.23658	0.478	-0.064
Mof_C 	C 	0.827	0.198	0.44	-0.097
Mof_C 	C 	0.961	0.32817	0.481	0.011
Mof_C 	C 	0.624	0.096	0.1666	0.019
Mof_C 	C 	0.628	0.14528	0.1074	0.043
Mof_C 	C 	0.6122	0.11	0.0384	-0.139
Mof_C 	C 	0.598	0.026	0.0343	0.014
Mof_C 	C 	0.607	0.011	0.16	-0.102
Mof_C 	C 	0.587	0.974	0.09436	-0.06
Mof_C 	C 	0.486	0.141	0.409	0.052
Mof_C 	C 	0.44451	0.192	0.4	0.014
Mof_C 	C 	0.443	0.06	0.443	-0.143
Mof_C 	C 	0.33458	0.098	0.478	-0.064
Mof_C 	C 	0.371	0.173	0.44	-0.097
Mof_C 	C 	0.36717	0.039	0.481	0.011
Mof_C 	C 	0.472	0.376	0.1666	0.019
Mof_C 	C 	0.51728	0.372	0.1074	0.043
Mof_C 	C 	0.4978	0.3878	0.0384	-0.139
Mof_C 	C 	0.428	0.402	0.0343	0.014
Mof_C 	C 	0.404	0.393	0.16	-0.102
Mof_C 	C 	0.387	0.413	0.09436	-0.06
Mof_C 	C 	0.141	0.486	0.591	0.052
Mof_C 	C 	0.192	0.44451	0.6	0.014
Mof_C 	C 	0.06	0.443	0.557	-0.143
Mof_C 	C 	0.098	0.33458	0.522	-0.064
Mof_C 	C 	0.173	0.371	0.56	-0.097
Mof_C 	C 	0.039	0.36717	0.519	0.011
Mof_C 	C 	0.376	0.472	0.8334	0.019
Mof_C 	C 	0.372	0.51728	0.8926	0.043
Mof_C 	C 	0.3878	0.4978	0.9616	-0.139
Mof_C 	C 	0.402	0.428	0.9657	0.014
Mof_C 	C 	0.393	0.404	0.84	-0.102
Mof_C 	C 	0.413	0.387	0.90564	-0.06
Mof_C 	C 	0.514	0.655	0.591	0.052
Mof_C 	C 	0.55549	0.74749	0.6	0.014
Mof_C 	C 	0.557	0.617	0.557	-0.143
Mof_C 	C 	0.66542	0.76342	0.522	-0.064
Mof_C 	C 	0.629	0.802	0.56	-0.097
Mof_C 	C 	0.63283	0.67183	0.519	0.011
Mof_C 	C 	0.528	0.904	0.8334	0.019
Mof_C 	C 	0.48272	0.85472	0.8926	0.043
Mof_C 	C 	0.5022	0.89	0.9616	-0.139
Mof_C 	C 	0.572	0.974	0.9657	0.014
Mof_C 	C 	0.596	0.989	0.84	-0.102
Mof_C 	C 	0.613	0.026	0.90564	-0.06
Mof_C 	C 	0.345	0.859	0.591	0.052
Mof_C 	C 	0.25251	0.808	0.6	0.014
Mof_C 	C 	0.383	0.94	0.557	-0.143
Mof_C 	C 	0.23658	0.902	0.522	-0.064
Mof_C 	C 	0.198	0.827	0.56	-0.097
Mof_C 	C 	0.32817	0.961	0.519	0.011
Mof_C 	C 	0.096	0.624	0.8334	0.019
Mof_C 	C 	0.14528	0.628	0.8926	0.043
Mof_C 	C 	0.11	0.6122	0.9616	-0.139
Mof_C 	C 	0.026	0.598	0.9657	0.014
Mof_C 	C 	0.011	0.607	0.84	-0.102
Mof_C 	C 	0.974	0.587	0.90564	-0.06
Mof_N 	N 	0.7611	0.5001	0.36	-0.261
Mof_N 	N 	0.68466	0.43866	0.336	-0.21
Mof_N 	N 	0.618	0.445	0.366	-0.27
Mof_N 	N 	0.853	0.486	0.2235	-0.269
Mof_N 	N 	0.778	0.422	0.1992	-0.211
Mof_N 	N 	0.77601	0.41701	0.1293	-0.254
Mof_N 	N 	0.739	0.2389	0.36	-0.261
Mof_N 	N 	0.754	0.31534	0.336	-0.21
Mof_N 	N 	0.827	0.382	0.366	-0.27
Mof_N 	N 	0.633	0.147	0.2235	-0.269
Mof_N 	N 	0.644	0.222	0.1992	-0.211
Mof_N 	N 	0.641	0.22399	0.1293	-0.254
Mof_N 	N 	0.4999	0.261	0.36	-0.261
Mof_N 	N 	0.56134	0.246	0.336	-0.21
Mof_N 	N 	0.555	0.173	0.366	-0.27
Mof_N 	N 	0.514	0.367	0.2235	-0.269
Mof_N 	N 	0.578	0.356	0.1992	-0.211
Mof_N 	N 	0.58299	0.359	0.1293	-0.254
Mof_N 	N 	0.261	0.4999	0.64	-0.261
Mof_N 	N 	0.246	0.56134	0.664	-0.21
Mof_N 	N 	0.173	0.555	0.634	-0.27
Mof_N 	N 	0.367	0.514	0.7765	-0.269
Mof_N 	N 	0.356	0.578	0.8008	-0.211
Mof_N 	N 	0.359	0.58299	0.8707	-0.254
Mof_N 	N 	0.5001	0.7611	0.64	-0.261
Mof_N 	N 	0.43866	0.68466	0.664	-0.21
Mof_N 	N 	0.445	0.618	0.634	-0.27
Mof_N 	N 	0.486	0.853	0.7765	-0.269
Mof_N 	N 	0.422	0.778	0.8008	-0.211
Mof_N 	N 	0.41701	0.77601	0.8707	-0.254
Mof_N 	N 	0.2389	0.739	0.64	-0.261
Mof_N 	N 	0.31534	0.754	0.664	-0.21
Mof_N 	N 	0.382	0.827	0.634	-0.27
Mof_N 	N 	0.147	0.633	0.7765	-0.269
Mof_N 	N 	0.222	0.644	0.8008	-0.211
Mof_N 	N 	0.22399	0.641	0.8707	-0.254
_end
