data_functionalizedCrystal
_audit_creation_method	'EQeq! by Chris Wilmer'
_symmetry_space_group_name_H-M	'P1'
_symmetry_Int_Tables_number	1
_symmetry_cell_setting	triclinic
loop_
_symmetry_equiv_pos_as_xyz
  x,y,z
_cell_length_a	8.8547
_cell_length_b	9.9689
_cell_length_c	12.9721
_cell_angle_alpha	97.005
_cell_angle_beta	97.885
_cell_angle_gamma	90.929
loop_
_atom_site_label
_atom_site_type_symbol
_atom_site_fract_x
_atom_site_fract_y
_atom_site_fract_z
_atom_site_charge
Mof_S 	S 	0.93229	0.10138	0.74667	0.814
Mof_O 	O 	0.01176	0.04605	0.83903	-0.44
Mof_O 	O 	0.03052	0.08503	0.66267	-0.452
Mof_O 	O 	0.78826	0.02169	0.7094	-0.353
Mof_O 	O 	0.90187	0.24321	0.77319	-0.326
Mof_N 	N 	0.09987	0.20592	0.07083	-0.172
Mof_N 	N 	0.21868	0.38017	0.17216	-0.099
Mof_N 	N 	0.23886	0.91907	0.00046	-0.158
Mof_N 	N 	0.46679	0.85378	0.0618	-0.092
Mof_N 	N 	0.9216	0.19578	0.4541	-0.17
Mof_N 	N 	0.87936	0.36493	0.36095	-0.084
Mof_C 	C 	0.4517	0.52098	0.24236	0.242
Mof_C 	C 	0.4543	0.6423	0.19962	-0.305
Mof_H 	H 	0.3639	0.6867	0.1842	0.159
Mof_C 	C 	0.5909	0.6977	0.17973	0.256
Mof_C 	C 	0.7252	0.63167	0.20523	-0.32
Mof_H 	H 	0.8172	0.6688	0.1931	0.164
Mof_C 	C 	0.7244	0.51111	0.24858	0.258
Mof_C 	C 	0.5874	0.45535	0.26609	-0.307
Mof_H 	H 	0.5859	0.3737	0.2938	0.138
Mof_C 	C 	0.3027	0.4623	0.26397	-0.227
Mof_H 	H 	0.3231	0.4069	0.3205	0.092
Mof_H 	H 	0.2396	0.5355	0.2871	0.104
Mof_C 	C 	0.599	0.8327	0.1378	-0.245
Mof_H 	H 	0.6067	0.9047	0.1959	0.138
Mof_H 	H 	0.6905	0.8377	0.1048	0.127
Mof_C 	C 	0.8757	0.4456	0.27395	-0.252
Mof_H 	H 	0.9557	0.5156	0.2913	0.137
Mof_H 	H 	0.897	0.388	0.2121	0.123
Mof_C 	C 	0.1553	0.4263	0.08107	0.009
Mof_H 	H 	0.1606	0.5145	0.0649	0.019
Mof_C 	C 	0.0835	0.3183	0.01938	-0.081
Mof_H 	H 	0.0311	0.3199	0.9523	0.072
Mof_C 	C 	0.1819	0.24667	0.16208	0.063
Mof_H 	H 	0.2109	0.1907	0.2132	-0.008
Mof_C 	C 	0.4396	0.8017	0.9588	0.01
Mof_H 	H 	0.504	0.7484	0.9214	0.052
Mof_C 	C 	0.3003	0.843	0.92168	0.051
Mof_H 	H 	0.2528	0.8229	0.8528	0.032
Mof_C 	C 	0.3435	0.9231	0.08285	0.09
Mof_H 	H 	0.3335	0.9687	0.1484	0.041
Mof_C 	C 	0.8464	0.408	0.45979	-0.023
Mof_H 	H 	0.8124	0.4925	0.4834	0.055
Mof_C 	C 	0.8732	0.3032	0.51604	0.026
Mof_H 	H 	0.8608	0.3039	0.5861	0.037
Mof_C 	C 	0.923	0.2371	0.36124	0.08
Mof_H 	H 	0.9508	0.1839	0.3033	0.006
Mof_S 	S 	0.06771	0.89862	0.25333	0.539
Mof_O 	O 	0.98824	0.95395	0.16097	-0.256
Mof_O 	O 	0.96948	0.91497	0.33733	-0.268
Mof_O 	O 	0.21174	0.97831	0.2906	-0.249
Mof_O 	O 	0.09813	0.75679	0.22681	-0.312
Mof_N 	N 	0.90013	0.79408	0.92917	-0.131
Mof_N 	N 	0.78132	0.61983	0.82784	-0.079
Mof_N 	N 	0.76114	0.08093	0.99954	-0.145
Mof_N 	N 	0.53321	0.14622	0.9382	-0.077
Mof_N 	N 	0.0784	0.80422	0.5459	-0.156
Mof_N 	N 	0.12064	0.63507	0.63905	-0.095
Mof_C 	C 	0.5483	0.47902	0.75764	0.246
Mof_C 	C 	0.5457	0.3577	0.80038	-0.303
Mof_H 	H 	0.6361	0.3133	0.8158	0.164
Mof_C 	C 	0.4091	0.3023	0.82027	0.247
Mof_C 	C 	0.2748	0.36833	0.79477	-0.306
Mof_H 	H 	0.1828	0.3312	0.8069	0.145
Mof_C 	C 	0.2756	0.48889	0.75142	0.239
Mof_C 	C 	0.4126	0.54465	0.73391	-0.304
Mof_H 	H 	0.4141	0.6263	0.7062	0.15
Mof_C 	C 	0.6973	0.5377	0.73603	-0.235
Mof_H 	H 	0.6769	0.5931	0.6795	0.111
Mof_H 	H 	0.7604	0.4645	0.7129	0.121
Mof_C 	C 	0.401	0.1673	0.8622	-0.225
Mof_H 	H 	0.3933	0.0953	0.8041	0.094
Mof_H 	H 	0.3095	0.1623	0.8952	0.111
Mof_C 	C 	0.1243	0.5544	0.72605	-0.222
Mof_H 	H 	0.0443	0.4844	0.7087	0.093
Mof_H 	H 	0.103	0.612	0.7879	0.098
Mof_C 	C 	0.8447	0.5737	0.91893	-0.034
Mof_H 	H 	0.8394	0.4855	0.9351	0.071
Mof_C 	C 	0.9165	0.6817	0.98062	0.073
Mof_H 	H 	0.9689	0.6801	0.0477	0.021
Mof_C 	C 	0.8181	0.75333	0.83792	0.086
Mof_H 	H 	0.7891	0.8093	0.7868	0.055
Mof_C 	C 	0.5604	0.1983	0.0412	-0.055
Mof_H 	H 	0.496	0.2516	0.0786	0.049
Mof_C 	C 	0.6997	0.157	0.07832	-0.009
Mof_H 	H 	0.7472	0.1771	0.1472	0.023
Mof_C 	C 	0.6565	0.0769	0.91715	0.077
Mof_H 	H 	0.6665	0.0313	0.8516	0.01
Mof_C 	C 	0.1536	0.592	0.54021	-0.026
Mof_H 	H 	0.1876	0.5075	0.5166	0.035
Mof_C 	C 	0.1268	0.6968	0.48396	0.013
Mof_H 	H 	0.1392	0.6961	0.4139	0.03
Mof_C 	C 	0.077	0.7629	0.63876	0.079
Mof_H 	H 	0.0492	0.8161	0.6967	0.027
Mof_Mn	Mn	-0	0	-0	0.591
Mof_Mn	Mn	-5.72309e-18	0	0.5	0.608
_end
