data_functionalizedCrystal
_audit_creation_method	'EQeq! by Chris Wilmer'
_symmetry_space_group_name_H-M	'P1'
_symmetry_Int_Tables_number	1
_symmetry_cell_setting	triclinic
loop_
_symmetry_equiv_pos_as_xyz
  x,y,z
_cell_length_a	9.0148
_cell_length_b	9.0148
_cell_length_c	11.4645
_cell_angle_alpha	90
_cell_angle_beta	90
_cell_angle_gamma	120
loop_
_atom_site_label
_atom_site_type_symbol
_atom_site_fract_x
_atom_site_fract_y
_atom_site_fract_z
_atom_site_charge
Mof_In	In	0.5	1.56431e-32	0.66667	2.074
Mof_In	In	0.5	0.5	-0	1.971
Mof_In	In	1.85362e-17	0.5	0.33333	2.054
Mof_C 	C 	0.791	0.209	0.5	0.259
Mof_C 	C 	0.69155	0.30845	0.5	0.278
Mof_C 	C 	0.418	0.209	0.83333	0.276
Mof_C 	C 	0.6169	0.30845	0.83333	0.27
Mof_C 	C 	0.791	0.582	0.16667	0.24
Mof_C 	C 	0.69155	0.3831	0.16667	0.286
Mof_C 	C 	0.209	0.791	0.5	0.259
Mof_C 	C 	0.30845	0.69155	0.5	0.279
Mof_C 	C 	0.582	0.791	0.83333	0.26
Mof_C 	C 	0.3831	0.69155	0.83333	0.303
Mof_C 	C 	0.209	0.418	0.16667	0.255
Mof_C 	C 	0.30845	0.6169	0.16667	0.252
Mof_O 	O 	0.7345	0.0752	0.5629	-0.462
Mof_O 	O 	0.5567	0.2435	0.5569	-0.428
Mof_O 	O 	0.3407	0.2655	0.89623	-0.371
Mof_O 	O 	0.6868	0.4433	0.89023	-0.269
Mof_O 	O 	0.9248	0.6593	0.22957	-0.299
Mof_O 	O 	0.7565	0.3132	0.22357	-0.4
Mof_O 	O 	0.2655	0.9248	0.5629	-0.338
Mof_O 	O 	0.4433	0.7565	0.5569	-0.345
Mof_O 	O 	0.6593	0.7345	0.89623	-0.257
Mof_O 	O 	0.3132	0.5567	0.89023	-0.338
Mof_O 	O 	0.0752	0.3407	0.22957	-0.534
Mof_O 	O 	0.2435	0.6868	0.22357	-0.411
Mof_O 	O 	0.6593	0.9248	0.77043	-0.263
Mof_O 	O 	0.3132	0.7565	0.77643	-0.357
Mof_O 	O 	0.0752	0.7345	0.4371	-0.46
Mof_O 	O 	0.2435	0.5567	0.4431	-0.424
Mof_O 	O 	0.2655	0.3407	0.10377	-0.516
Mof_O 	O 	0.4433	0.6868	0.10977	-0.41
Mof_O 	O 	0.3407	0.0752	0.77043	-0.5
Mof_O 	O 	0.6868	0.2435	0.77643	-0.37
Mof_O 	O 	0.9248	0.2655	0.4371	-0.339
Mof_O 	O 	0.7565	0.4433	0.4431	-0.342
Mof_O 	O 	0.7345	0.6593	0.10377	-0.403
Mof_O 	O 	0.5567	0.3132	0.10977	-0.48
_end
