# CIF file generated by openbabel 3.1.0, see https://openbabel.org
data_I
_chemical_name_common 'QOJVAM_clean'
_cell_length_a 10.0916
_cell_length_b 10.0916
_cell_length_c 16.4373
_cell_angle_alpha 95.9263
_cell_angle_beta 95.9263
_cell_angle_gamma 92.3616
_space_group_name_H-M_alt 'P 1'
_space_group_name_Hall 'P 1'
loop_
    _symmetry_equiv_pos_as_xyz
    x,y,z
loop_
    _atom_site_label
    _atom_site_type_symbol
    _atom_site_fract_x
    _atom_site_fract_y
    _atom_site_fract_z
    _atom_site_occupancy
    Cu1      Cu       0.73991    0.06451    0.82788    1.000
    Cu2      Cu       0.56085    0.23701    0.79130    1.000
    Cu3      Cu       0.06451    0.73991    0.32788    1.000
    Cu4      Cu       0.23701    0.56085    0.29130    1.000
    H1       H        0.90080    0.01860    0.69120    1.000
    H2       H        0.87640    0.62980    0.59720    1.000
    H3       H        0.72630    0.58150    0.69070    1.000
    H4       H        0.66340    0.75160    0.78460    1.000
    H5       H        0.92180    0.74620    0.47510    1.000
    H6       H        0.11220    0.00820    0.65750    1.000
    H7       H        0.24490    0.97010    0.43220    1.000
    H8       H        0.34280    0.07120    0.69100    1.000
    H9       H        0.28570    0.18730    0.46170    1.000
    H10      H        0.57060    0.37840    0.62990    1.000
    H11      H        0.27430    0.38230    0.42930    1.000
    H12      H        0.66180    0.43080    0.52530    1.000
    H13      H        0.69890    0.59030    0.43520    1.000
    H14      H        0.52370    0.64570    0.34220    1.000
    H15      H        0.01860    0.90080    0.19120    1.000
    H16      H        0.62980    0.87640    0.09720    1.000
    H17      H        0.58150    0.72630    0.19070    1.000
    H18      H        0.75160    0.66340    0.28460    1.000
    H19      H        0.74620    0.92180    0.97510    1.000
    H20      H        0.00820    0.11220    0.15750    1.000
    H21      H        0.97010    0.24490    0.93220    1.000
    H22      H        0.07120    0.34280    0.19100    1.000
    H23      H        0.18730    0.28570    0.96170    1.000
    H24      H        0.37840    0.57060    0.12990    1.000
    H25      H        0.38230    0.27430    0.92930    1.000
    H26      H        0.43080    0.66180    0.02530    1.000
    H27      H        0.59030    0.69890    0.93520    1.000
    H28      H        0.64570    0.52370    0.84220    1.000
    C1       C        0.86540    0.92980    0.69110    1.000
    C2       C        0.90270    0.82870    0.63540    1.000
    C3       C        0.85090    0.69890    0.63530    1.000
    C4       C        0.76170    0.67030    0.69080    1.000
    C5       C        0.72430    0.77130    0.74660    1.000
    C6       C        0.99130    0.81190    0.49400    1.000
    C7       C        0.00280    0.87140    0.57480    1.000
    C8       C        0.10440    0.96760    0.60240    1.000
    C9       C        0.19460    0.00440    0.54930    1.000
    C10      C        0.18320    0.94500    0.46850    1.000
    C11      C        0.36590    0.12850    0.65170    1.000
    C12      C        0.29820    0.11360    0.57300    1.000
    C13      C        0.33200    0.19740    0.51550    1.000
    C14      C        0.43350    0.29610    0.53670    1.000
    C15      C        0.50120    0.31100    0.61540    1.000
    C16      C        0.36050    0.42450    0.43050    1.000
    C17      C        0.46460    0.39160    0.48570    1.000
    C18      C        0.59070    0.45330    0.48750    1.000
    C19      C        0.61270    0.54810    0.43400    1.000
    C20      C        0.50860    0.58100    0.37880    1.000
    C21      C        0.92980    0.86540    0.19110    1.000
    C22      C        0.82870    0.90270    0.13540    1.000
    C23      C        0.69890    0.85090    0.13530    1.000
    C24      C        0.67030    0.76170    0.19080    1.000
    C25      C        0.77130    0.72430    0.24660    1.000
    C26      C        0.81190    0.99130    0.99400    1.000
    C27      C        0.87140    0.00280    0.07480    1.000
    C28      C        0.96760    0.10440    0.10240    1.000
    C29      C        0.00440    0.19460    0.04930    1.000
    C30      C        0.94500    0.18320    0.96850    1.000
    C31      C        0.12850    0.36590    0.15170    1.000
    C32      C        0.11360    0.29820    0.07300    1.000
    C33      C        0.19740    0.33200    0.01550    1.000
    C34      C        0.29610    0.43350    0.03670    1.000
    C35      C        0.31100    0.50120    0.11540    1.000
    C36      C        0.42450    0.36050    0.93050    1.000
    C37      C        0.39160    0.46460    0.98570    1.000
    C38      C        0.45330    0.59070    0.98750    1.000
    C39      C        0.54810    0.61270    0.93400    1.000
    C40      C        0.58100    0.50860    0.87880    1.000
    I1       I        0.81057    0.29011    0.76420    1.000
    I2       I        0.49095    0.01051    0.85474    1.000
    I3       I        0.29011    0.81057    0.26420    1.000
    I4       I        0.01051    0.49095    0.35474    1.000
    N1       N        0.77620    0.90120    0.74670    1.000
    N2       N        0.08150    0.84870    0.44090    1.000
    N3       N        0.46740    0.22720    0.67290    1.000
    N4       N        0.38260    0.51920    0.37700    1.000
    N5       N        0.90120    0.77620    0.24670    1.000
    N6       N        0.84870    0.08150    0.94090    1.000
    N7       N        0.22720    0.46740    0.17290    1.000
    N8       N        0.51920    0.38260    0.87700    1.000
