data_functionalizedCrystal
_audit_creation_method	'EQeq! by Chris Wilmer'
_symmetry_space_group_name_H-M	'P1'
_symmetry_Int_Tables_number	1
_symmetry_cell_setting	triclinic
loop_
_symmetry_equiv_pos_as_xyz
  x,y,z
_cell_length_a	22.6505
_cell_length_b	11.2352
_cell_length_c	12.7961
_cell_angle_alpha	90
_cell_angle_beta	90
_cell_angle_gamma	90
loop_
_atom_site_label
_atom_site_type_symbol
_atom_site_fract_x
_atom_site_fract_y
_atom_site_fract_z
_atom_site_charge
Mof_Ca	Ca	0.43405	0.6221	0.0769	1.229
Mof_Ca	Ca	0.50857	0.49376	0.31274	1.549
Mof_S 	S 	0.50879	0.03255	0.22685	0.016
Mof_S 	S 	0.27489	0.48743	0.40768	0.046
Mof_C 	C 	0.283	0.4997	0.2079	-0.025
Mof_H 	H 	0.2985	0.5028	0.1389	0.013
Mof_C 	C 	0.22239	0.5095	0.2317	-0.002
Mof_H 	H 	0.1925	0.5179	0.1801	0.012
Mof_O 	O 	0.4851	0.4493	0.992	-0.504
Mof_O 	O 	0.41051	0.4961	0.217	-0.519
Mof_C 	C 	0.49555	0.7862	0.2357	0.376
Mof_C 	C 	0.38205	0.4735	0.2995	0.359
Mof_O 	O 	0.50929	0.2907	0.2528	-0.433
Mof_O 	O 	0.49504	0.7899	0.1369	-0.418
Mof_O 	O 	0.4864	0.6948	0.2893	-0.479
Mof_O 	O 	0.5303	0.5232	0.1296	-0.557
Mof_C 	C 	0.3168	0.4851	0.2953	-0.12
Mof_O 	O 	0.40658	0.4433	0.3832	-0.385
Mof_O 	O 	0.52925	0.2987	0.4228	-0.504
Mof_O 	O 	0.10931	0.4948	0.3266	-0.47
Mof_O 	O 	0.14891	0.5485	0.4803	-0.449
Mof_C 	C 	0.50683	0.8993	0.293	-0.115
Mof_C 	C 	0.21089	0.5059	0.3367	-0.13
Mof_C 	C 	0.5209	0.1096	0.3413	-0.113
Mof_C 	C 	0.1515	0.5174	0.3861	0.425
Mof_C 	C 	0.5234	0.0349	0.4261	-0.01
Mof_H 	H 	0.5301	0.0612	0.4957	0.035
Mof_C 	C 	0.5207	0.2415	0.3381	0.375
Mof_C 	C 	0.5148	0.9145	0.3985	-0.012
Mof_H 	H 	0.5146	0.851	0.4475	0.034
Mof_C 	C 	0.52744	0.4474	0.0566	0.586
Mof_C 	C 	0.5742	0.3529	0.0465	-1.118
Mof_H 	H 	0.6127	0.3864	0.0656	0.327
Mof_H 	H 	0.5755	0.3244	0.9741	0.39
Mof_H 	H 	0.5648	0.2864	0.0931	0.337
Mof_Ca	Ca	0.56595	0.3779	0.5769	1.378
Mof_Ca	Ca	0.49143	0.50624	0.81274	1.561
Mof_S 	S 	0.49121	0.96745	0.72685	0.052
Mof_S 	S 	0.72511	0.51257	0.90768	0.091
Mof_C 	C 	0.717	0.5003	0.7079	-0.019
Mof_H 	H 	0.7015	0.4972	0.6389	0.034
Mof_C 	C 	0.77761	0.4905	0.7317	0.005
Mof_H 	H 	0.8075	0.4821	0.6801	0.026
Mof_O 	O 	0.5149	0.5507	0.492	-0.582
Mof_O 	O 	0.58949	0.5039	0.717	-0.521
Mof_C 	C 	0.50445	0.2138	0.7357	0.378
Mof_C 	C 	0.61795	0.5265	0.7995	0.364
Mof_O 	O 	0.49071	0.7093	0.7528	-0.421
Mof_O 	O 	0.50496	0.2101	0.6369	-0.4
Mof_O 	O 	0.5136	0.3052	0.7893	-0.48
Mof_O 	O 	0.4697	0.4768	0.6296	-0.563
Mof_C 	C 	0.6832	0.5149	0.7953	-0.119
Mof_O 	O 	0.59342	0.5567	0.8832	-0.364
Mof_O 	O 	0.47075	0.7013	0.9228	-0.458
Mof_O 	O 	0.89069	0.5052	0.8266	-0.458
Mof_O 	O 	0.85109	0.4515	0.9803	-0.394
Mof_C 	C 	0.49317	0.1007	0.793	-0.113
Mof_C 	C 	0.78911	0.4941	0.8367	-0.124
Mof_C 	C 	0.4791	0.8904	0.8413	-0.1
Mof_C 	C 	0.8485	0.4826	0.8861	0.419
Mof_C 	C 	0.4766	0.9651	0.9261	-0.01
Mof_H 	H 	0.4699	0.9388	0.9957	0.065
Mof_C 	C 	0.4793	0.7585	0.8381	0.367
Mof_C 	C 	0.4852	0.0855	0.8985	0
Mof_H 	H 	0.4854	0.149	0.9475	0.048
Mof_C 	C 	0.47256	0.5526	0.5566	0.635
Mof_C 	C 	0.4258	0.6471	0.5465	-0.917
Mof_H 	H 	0.3873	0.6136	0.5656	0.291
Mof_H 	H 	0.4245	0.6756	0.4741	0.285
Mof_H 	H 	0.4352	0.7136	0.5931	0.297
Mof_Ca	Ca	0.93405	0.3779	0.0769	1.227
Mof_Ca	Ca	0.00857	0.50624	0.31274	1.556
Mof_S 	S 	0.00879	0.96745	0.22685	0.017
Mof_S 	S 	0.77489	0.51257	0.40768	0.046
Mof_C 	C 	0.783	0.5003	0.2079	-0.025
Mof_H 	H 	0.7985	0.4972	0.1389	0.013
Mof_C 	C 	0.72239	0.4905	0.2317	-0.002
Mof_H 	H 	0.6925	0.4821	0.1801	0.012
Mof_O 	O 	0.9851	0.5507	0.992	-0.508
Mof_O 	O 	0.91051	0.5039	0.217	-0.521
Mof_C 	C 	0.99555	0.2138	0.2357	0.371
Mof_C 	C 	0.88205	0.5265	0.2995	0.359
Mof_O 	O 	0.00929	0.7093	0.2528	-0.433
Mof_O 	O 	0.99504	0.2101	0.1369	-0.419
Mof_O 	O 	0.9864	0.3052	0.2893	-0.481
Mof_O 	O 	0.0303	0.4768	0.1296	-0.557
Mof_C 	C 	0.8168	0.5149	0.2953	-0.12
Mof_O 	O 	0.90658	0.5567	0.3832	-0.387
Mof_O 	O 	0.02925	0.7013	0.4228	-0.504
Mof_O 	O 	0.60931	0.5052	0.3266	-0.469
Mof_O 	O 	0.64891	0.4515	0.4803	-0.449
Mof_C 	C 	0.00683	0.1007	0.293	-0.109
Mof_C 	C 	0.71089	0.4941	0.3367	-0.13
Mof_C 	C 	0.0209	0.8904	0.3413	-0.113
Mof_C 	C 	0.6515	0.4826	0.3861	0.424
Mof_C 	C 	0.0234	0.9651	0.4261	-0.01
Mof_H 	H 	0.0301	0.9388	0.4957	0.036
Mof_C 	C 	0.0207	0.7585	0.3381	0.375
Mof_C 	C 	0.0148	0.0855	0.3985	-0.012
Mof_H 	H 	0.0146	0.149	0.4475	0.036
Mof_C 	C 	0.02744	0.5526	0.0566	0.593
Mof_C 	C 	0.0742	0.6471	0.0465	-1.12
Mof_H 	H 	0.1127	0.6136	0.0656	0.327
Mof_H 	H 	0.0755	0.6756	0.9741	0.39
Mof_H 	H 	0.0648	0.7136	0.0931	0.338
Mof_Ca	Ca	0.06595	0.6221	0.5769	1.38
Mof_Ca	Ca	0.99143	0.49376	0.81274	1.556
Mof_S 	S 	0.99121	0.03255	0.72685	0.051
Mof_S 	S 	0.22511	0.48743	0.90768	0.091
Mof_C 	C 	0.217	0.4997	0.7079	-0.019
Mof_H 	H 	0.2015	0.5028	0.6389	0.034
Mof_C 	C 	0.27761	0.5095	0.7317	0.005
Mof_H 	H 	0.3075	0.5179	0.6801	0.026
Mof_O 	O 	0.0149	0.4493	0.492	-0.578
Mof_O 	O 	0.08949	0.4961	0.717	-0.52
Mof_C 	C 	0.00445	0.7862	0.7357	0.382
Mof_C 	C 	0.11795	0.4735	0.7995	0.364
Mof_O 	O 	0.99071	0.2907	0.7528	-0.421
Mof_O 	O 	0.00496	0.7899	0.6369	-0.399
Mof_O 	O 	0.0136	0.6948	0.7893	-0.479
Mof_O 	O 	0.9697	0.5232	0.6296	-0.563
Mof_C 	C 	0.1832	0.4851	0.7953	-0.118
Mof_O 	O 	0.09342	0.4433	0.8832	-0.363
Mof_O 	O 	0.97075	0.2987	0.9228	-0.458
Mof_O 	O 	0.39069	0.4948	0.8266	-0.458
Mof_O 	O 	0.35109	0.5485	0.9803	-0.394
Mof_C 	C 	0.99317	0.8993	0.793	-0.117
Mof_C 	C 	0.28911	0.5059	0.8367	-0.124
Mof_C 	C 	0.9791	0.1096	0.8413	-0.1
Mof_C 	C 	0.3485	0.5174	0.8861	0.42
Mof_C 	C 	0.9766	0.0349	0.9261	-0.011
Mof_H 	H 	0.9699	0.0612	0.9957	0.065
Mof_C 	C 	0.9793	0.2415	0.8381	0.366
Mof_C 	C 	0.9852	0.9145	0.8985	0.001
Mof_H 	H 	0.9854	0.851	0.9475	0.047
Mof_C 	C 	0.97256	0.4474	0.5566	0.628
Mof_C 	C 	0.9258	0.3529	0.5465	-0.911
Mof_H 	H 	0.8873	0.3864	0.5656	0.29
Mof_H 	H 	0.9245	0.3244	0.4741	0.282
Mof_H 	H 	0.9352	0.2864	0.5931	0.295
_end
