data_functionalizedCrystal
_audit_creation_method	'EQeq! by Chris Wilmer'
_symmetry_space_group_name_H-M	'P1'
_symmetry_Int_Tables_number	1
_symmetry_cell_setting	triclinic
loop_
_symmetry_equiv_pos_as_xyz
  x,y,z
_cell_length_a	14.8008
_cell_length_b	12.2543
_cell_length_c	30.2243
_cell_angle_alpha	90
_cell_angle_beta	90.991
_cell_angle_gamma	90
loop_
_atom_site_label
_atom_site_type_symbol
_atom_site_fract_x
_atom_site_fract_y
_atom_site_fract_z
_atom_site_charge
Mof_U 	U 	0.45495	0.67133	0.23476	0.028
Mof_U 	U 	0.53319	0.35956	0.07635	0.009
Mof_U 	U 	0.74841	0.42695	0.24292	0.028
Mof_P 	P 	0.98	0.8956	0.3025	0.385
Mof_P 	P 	0.9764	0.4484	0.29164	0.384
Mof_P 	P 	0.6948	0.6843	0.19599	0.391
Mof_P 	P 	0.4752	0.6359	0.04756	0.393
Mof_O 	O 	0.6047	0.6771	0.2185	-0.149
Mof_O 	O 	0.3098	0.5834	0.2495	-0.171
Mof_O 	O 	0.312	0.7616	0.2541	-0.165
Mof_O 	O 	0.7459	0.5756	0.1978	-0.151
Mof_O 	O 	0.7534	0.7751	0.2137	-0.16
Mof_O 	O 	0.834	0.92	0.0663	-0.172
Mof_O 	O 	0.728	0.936	0.0115	-0.161
Mof_O 	O 	0.4887	0.641	0.9987	-0.163
Mof_O 	O 	0.3934	0.709	0.0596	-0.147
Mof_O 	O 	0.4606	0.5248	0.0662	-0.156
Mof_O 	O 	0.0195	0.987	0.2761	-0.155
Mof_O 	O 	0.9908	0.9143	0.3521	-0.162
Mof_O 	O 	0.8805	0.8735	0.2915	-0.153
Mof_O 	O 	0.8782	0.4741	0.2806	-0.16
Mof_O 	O 	0.9831	0.417	0.341	-0.165
Mof_O 	O 	0.0214	0.3608	0.2649	-0.152
Mof_C 	C 	0.2698	0.6709	0.2571	0.271
Mof_C 	C 	0.1728	0.6726	0.2702	-0.009
Mof_C 	C 	0.1293	0.7709	0.2778	-0.029
Mof_H 	H 	0.1603	0.8364	0.2749	0.093
Mof_C 	C 	0.0394	0.7708	0.2896	0.004
Mof_C 	C 	0.9933	0.6716	0.2928	-0.035
Mof_H 	H 	0.9324	0.671	0.2999	0.095
Mof_C 	C 	0.0386	0.5733	0.2854	0.002
Mof_C 	C 	0.1275	0.5738	0.2742	-0.029
Mof_H 	H 	0.1577	0.5084	0.2693	0.093
Mof_C 	C 	0.76	0.899	0.0489	0.269
Mof_C 	C 	0.6983	0.8174	0.0725	0.002
Mof_C 	C 	0.7226	0.7925	0.1165	-0.027
Mof_H 	H 	0.772	0.8262	0.1302	0.095
Mof_C 	C 	0.6705	0.7155	0.1395	-0.001
Mof_C 	C 	0.598	0.6687	0.1172	-0.023
Mof_H 	H 	0.5635	0.6176	0.1322	0.094
Mof_C 	C 	0.5733	0.6937	0.0734	-0.002
Mof_C 	C 	0.6246	0.7674	0.0511	-0.026
Mof_H 	H 	0.6106	0.7843	0.0217	0.092
Mof_U 	U 	0.04505	0.17133	0.26524	0.027
Mof_U 	U 	0.96681	0.85956	0.42365	0.008
Mof_U 	U 	0.75159	0.92695	0.25708	0.027
Mof_P 	P 	0.52	0.3956	0.1975	0.385
Mof_P 	P 	0.5236	0.9484	0.20836	0.384
Mof_P 	P 	0.8052	0.1843	0.30401	0.39
Mof_P 	P 	0.0248	0.1359	0.45244	0.392
Mof_O 	O 	0.8953	0.1771	0.2815	-0.151
Mof_O 	O 	0.1902	0.0834	0.2505	-0.171
Mof_O 	O 	0.188	0.2616	0.2459	-0.165
Mof_O 	O 	0.7541	0.0756	0.3022	-0.151
Mof_O 	O 	0.7466	0.2751	0.2863	-0.16
Mof_O 	O 	0.666	0.42	0.4337	-0.172
Mof_O 	O 	0.772	0.436	0.4885	-0.161
Mof_O 	O 	0.0113	0.141	0.5013	-0.163
Mof_O 	O 	0.1066	0.209	0.4404	-0.147
Mof_O 	O 	0.0394	0.0248	0.4338	-0.156
Mof_O 	O 	0.4805	0.487	0.2239	-0.155
Mof_O 	O 	0.5092	0.4143	0.1479	-0.162
Mof_O 	O 	0.6195	0.3735	0.2085	-0.153
Mof_O 	O 	0.6218	0.9741	0.2194	-0.16
Mof_O 	O 	0.5169	0.917	0.159	-0.165
Mof_O 	O 	0.4786	0.8608	0.2351	-0.152
Mof_C 	C 	0.2302	0.1709	0.2429	0.272
Mof_C 	C 	0.3272	0.1726	0.2298	-0.01
Mof_C 	C 	0.3707	0.2709	0.2222	-0.028
Mof_H 	H 	0.3397	0.3364	0.2251	0.093
Mof_C 	C 	0.4606	0.2708	0.2104	0.003
Mof_C 	C 	0.5067	0.1716	0.2072	-0.033
Mof_H 	H 	0.5676	0.171	0.2001	0.094
Mof_C 	C 	0.4614	0.0733	0.2146	0
Mof_C 	C 	0.3725	0.0738	0.2258	-0.028
Mof_H 	H 	0.3423	0.0084	0.2307	0.093
Mof_C 	C 	0.74	0.399	0.4511	0.269
Mof_C 	C 	0.8017	0.3174	0.4275	0.002
Mof_C 	C 	0.7774	0.2925	0.3835	-0.027
Mof_H 	H 	0.728	0.3262	0.3698	0.095
Mof_C 	C 	0.8295	0.2155	0.3605	-0.001
Mof_C 	C 	0.902	0.1687	0.3828	-0.023
Mof_H 	H 	0.9365	0.1176	0.3678	0.094
Mof_C 	C 	0.9267	0.1937	0.4266	-0.001
Mof_C 	C 	0.8754	0.2674	0.4489	-0.026
Mof_H 	H 	0.8894	0.2843	0.4783	0.092
Mof_U 	U 	0.54505	0.32867	0.76524	0.027
Mof_U 	U 	0.46681	0.64044	0.92365	0.008
Mof_U 	U 	0.25159	0.57305	0.75708	0.027
Mof_P 	P 	0.02	0.1044	0.6975	0.384
Mof_P 	P 	0.0236	0.5516	0.70836	0.383
Mof_P 	P 	0.3052	0.3157	0.80401	0.39
Mof_P 	P 	0.5248	0.3641	0.95244	0.392
Mof_O 	O 	0.3953	0.3229	0.7815	-0.15
Mof_O 	O 	0.6902	0.4166	0.7505	-0.171
Mof_O 	O 	0.688	0.2384	0.7459	-0.165
Mof_O 	O 	0.2541	0.4244	0.8022	-0.151
Mof_O 	O 	0.2466	0.2249	0.7863	-0.16
Mof_O 	O 	0.166	0.08	0.9337	-0.172
Mof_O 	O 	0.272	0.064	0.9885	-0.161
Mof_O 	O 	0.5113	0.359	0.0013	-0.163
Mof_O 	O 	0.6066	0.291	0.9404	-0.147
Mof_O 	O 	0.5394	0.4752	0.9338	-0.156
Mof_O 	O 	0.9805	0.013	0.7239	-0.155
Mof_O 	O 	0.0092	0.0857	0.6479	-0.162
Mof_O 	O 	0.1195	0.1265	0.7085	-0.153
Mof_O 	O 	0.1218	0.5259	0.7194	-0.16
Mof_O 	O 	0.0169	0.583	0.659	-0.165
Mof_O 	O 	0.9786	0.6392	0.7351	-0.152
Mof_C 	C 	0.7302	0.3291	0.7429	0.271
Mof_C 	C 	0.8272	0.3274	0.7298	-0.009
Mof_C 	C 	0.8707	0.2291	0.7222	-0.029
Mof_H 	H 	0.8397	0.1636	0.7251	0.093
Mof_C 	C 	0.9606	0.2292	0.7104	0.004
Mof_C 	C 	0.0067	0.3284	0.7072	-0.035
Mof_H 	H 	0.0676	0.329	0.7001	0.095
Mof_C 	C 	0.9614	0.4267	0.7146	0.002
Mof_C 	C 	0.8725	0.4262	0.7258	-0.029
Mof_H 	H 	0.8423	0.4916	0.7307	0.093
Mof_C 	C 	0.24	0.101	0.9511	0.269
Mof_C 	C 	0.3017	0.1826	0.9275	0.002
Mof_C 	C 	0.2774	0.2075	0.8835	-0.027
Mof_H 	H 	0.228	0.1738	0.8698	0.095
Mof_C 	C 	0.3295	0.2845	0.8605	-0.001
Mof_C 	C 	0.402	0.3313	0.8828	-0.023
Mof_H 	H 	0.4365	0.3824	0.8678	0.094
Mof_C 	C 	0.4267	0.3063	0.9266	-0.002
Mof_C 	C 	0.3754	0.2326	0.9489	-0.026
Mof_H 	H 	0.3894	0.2157	0.9783	0.092
Mof_U 	U 	0.95495	0.82867	0.73476	0.027
Mof_U 	U 	0.03319	0.14044	0.57635	0.008
Mof_U 	U 	0.24841	0.07305	0.74291	0.027
Mof_P 	P 	0.48	0.6044	0.8025	0.385
Mof_P 	P 	0.4764	0.0516	0.79164	0.384
Mof_P 	P 	0.1948	0.8157	0.69599	0.39
Mof_P 	P 	0.9752	0.8641	0.54756	0.392
Mof_O 	O 	0.1047	0.8229	0.7185	-0.151
Mof_O 	O 	0.8098	0.9166	0.7495	-0.171
Mof_O 	O 	0.812	0.7384	0.7541	-0.165
Mof_O 	O 	0.2459	0.9244	0.6978	-0.151
Mof_O 	O 	0.2534	0.7249	0.7137	-0.16
Mof_O 	O 	0.334	0.58	0.5663	-0.172
Mof_O 	O 	0.228	0.564	0.5115	-0.161
Mof_O 	O 	0.9887	0.859	0.4987	-0.163
Mof_O 	O 	0.8934	0.791	0.5596	-0.147
Mof_O 	O 	0.9606	0.9752	0.5662	-0.156
Mof_O 	O 	0.5195	0.513	0.7761	-0.155
Mof_O 	O 	0.4908	0.5857	0.8521	-0.162
Mof_O 	O 	0.3805	0.6265	0.7915	-0.153
Mof_O 	O 	0.3782	0.0259	0.7806	-0.16
Mof_O 	O 	0.4831	0.083	0.841	-0.165
Mof_O 	O 	0.5214	0.1392	0.7649	-0.152
Mof_C 	C 	0.7698	0.8291	0.7571	0.272
Mof_C 	C 	0.6728	0.8274	0.7702	-0.01
Mof_C 	C 	0.6293	0.7291	0.7778	-0.028
Mof_H 	H 	0.6603	0.6636	0.7749	0.093
Mof_C 	C 	0.5394	0.7292	0.7896	0.003
Mof_C 	C 	0.4933	0.8284	0.7928	-0.033
Mof_H 	H 	0.4324	0.829	0.7999	0.094
Mof_C 	C 	0.5386	0.9267	0.7854	0
Mof_C 	C 	0.6275	0.9262	0.7742	-0.028
Mof_H 	H 	0.6577	0.9916	0.7693	0.093
Mof_C 	C 	0.26	0.601	0.5489	0.269
Mof_C 	C 	0.1983	0.6826	0.5725	0.002
Mof_C 	C 	0.2226	0.7075	0.6165	-0.027
Mof_H 	H 	0.272	0.6738	0.6302	0.095
Mof_C 	C 	0.1705	0.7845	0.6395	-0.001
Mof_C 	C 	0.098	0.8313	0.6172	-0.023
Mof_H 	H 	0.0635	0.8824	0.6322	0.094
Mof_C 	C 	0.0733	0.8063	0.5734	-0.001
Mof_C 	C 	0.1246	0.7326	0.5511	-0.026
Mof_H 	H 	0.1106	0.7157	0.5217	0.092
_end
