data_functionalizedCrystal
_audit_creation_method	'EQeq! by Chris Wilmer'
_symmetry_space_group_name_H-M	'P1'
_symmetry_Int_Tables_number	1
_symmetry_cell_setting	triclinic
loop_
_symmetry_equiv_pos_as_xyz
  x,y,z
_cell_length_a	26.0767
_cell_length_b	26.0767
_cell_length_c	8.9467
_cell_angle_alpha	90
_cell_angle_beta	90
_cell_angle_gamma	90
loop_
_atom_site_label
_atom_site_type_symbol
_atom_site_fract_x
_atom_site_fract_y
_atom_site_fract_z
_atom_site_charge
Mof_In	In	0.27433	0.1426	0.68362	2.212
Mof_O 	O 	0.20388	0.10474	0.7386	-0.526
Mof_O 	O 	0.14221	0.05547	0.6463	-0.479
Mof_O 	O 	0.24115	0.11843	0.461	-0.48
Mof_O 	O 	0.1826	0.06349	0.3734	-0.493
Mof_O 	O 	0.27566	0.20258	0.8639	-0.503
Mof_O 	O 	0.26735	0.28655	0.9038	-0.501
Mof_C 	C 	0.18122	0.08208	0.6323	0.268
Mof_C 	C 	0.20363	0.08871	0.4739	0.266
Mof_C 	C 	0.26249	0.24698	0.8266	0.241
Mof_In	In	0.77433	0.6426	0.18362	2.212
Mof_O 	O 	0.70388	0.60474	0.2386	-0.527
Mof_O 	O 	0.64221	0.55547	0.1463	-0.481
Mof_O 	O 	0.74115	0.61843	0.961	-0.481
Mof_O 	O 	0.6826	0.56349	0.8734	-0.493
Mof_O 	O 	0.77566	0.70258	0.3639	-0.503
Mof_O 	O 	0.76735	0.78655	0.4038	-0.502
Mof_C 	C 	0.68122	0.58208	0.1323	0.269
Mof_C 	C 	0.70363	0.58871	0.9739	0.265
Mof_C 	C 	0.76249	0.74698	0.3266	0.241
Mof_In	In	0.22567	0.8574	0.18362	2.213
Mof_O 	O 	0.29612	0.89526	0.2386	-0.527
Mof_O 	O 	0.35779	0.94453	0.1463	-0.48
Mof_O 	O 	0.25885	0.88157	0.961	-0.482
Mof_O 	O 	0.3174	0.93651	0.8734	-0.492
Mof_O 	O 	0.22434	0.79742	0.3639	-0.503
Mof_O 	O 	0.23265	0.71345	0.4038	-0.502
Mof_C 	C 	0.31878	0.91792	0.1323	0.27
Mof_C 	C 	0.29637	0.91129	0.9739	0.264
Mof_C 	C 	0.23751	0.75302	0.3266	0.241
Mof_In	In	0.72567	0.3574	0.68362	2.211
Mof_O 	O 	0.79612	0.39526	0.7386	-0.527
Mof_O 	O 	0.85779	0.44453	0.6463	-0.481
Mof_O 	O 	0.75885	0.38157	0.461	-0.481
Mof_O 	O 	0.8174	0.43651	0.3734	-0.493
Mof_O 	O 	0.72434	0.29742	0.8639	-0.503
Mof_O 	O 	0.73265	0.21345	0.9038	-0.501
Mof_C 	C 	0.81878	0.41792	0.6323	0.268
Mof_C 	C 	0.79637	0.41129	0.4739	0.266
Mof_C 	C 	0.73751	0.25302	0.8266	0.241
Mof_In	In	0.6074	0.52433	0.93362	2.211
Mof_O 	O 	0.64526	0.45388	0.9886	-0.527
Mof_O 	O 	0.69453	0.39221	0.8963	-0.481
Mof_O 	O 	0.63157	0.49115	0.711	-0.481
Mof_O 	O 	0.68651	0.4326	0.6234	-0.493
Mof_O 	O 	0.54742	0.52566	0.1139	-0.503
Mof_O 	O 	0.46345	0.51735	0.1538	-0.502
Mof_C 	C 	0.66792	0.43122	0.8823	0.268
Mof_C 	C 	0.66129	0.45363	0.7239	0.266
Mof_C 	C 	0.50302	0.51249	0.0766	0.241
Mof_In	In	0.1074	0.02433	0.43362	2.205
Mof_O 	O 	0.14526	0.95388	0.4886	-0.526
Mof_O 	O 	0.19453	0.89221	0.3963	-0.481
Mof_O 	O 	0.13157	0.99115	0.211	-0.479
Mof_O 	O 	0.18651	0.9326	0.1234	-0.492
Mof_O 	O 	0.04742	0.02566	0.6139	-0.502
Mof_O 	O 	0.96345	0.01735	0.6538	-0.499
Mof_C 	C 	0.16792	0.93122	0.3823	0.269
Mof_C 	C 	0.16129	0.95363	0.2239	0.266
Mof_C 	C 	0.00302	0.01249	0.5766	0.238
Mof_In	In	0.8926	0.47567	0.43362	2.211
Mof_O 	O 	0.85474	0.54612	0.4886	-0.527
Mof_O 	O 	0.80547	0.60779	0.3963	-0.481
Mof_O 	O 	0.86843	0.50885	0.211	-0.481
Mof_O 	O 	0.81349	0.5674	0.1234	-0.493
Mof_O 	O 	0.95258	0.47434	0.6139	-0.503
Mof_O 	O 	0.03655	0.48265	0.6538	-0.502
Mof_C 	C 	0.83208	0.56878	0.3823	0.268
Mof_C 	C 	0.83871	0.54637	0.2239	0.266
Mof_C 	C 	0.99698	0.48751	0.5766	0.241
Mof_In	In	0.3926	0.97567	0.93362	2.203
Mof_O 	O 	0.35474	0.04612	0.9886	-0.525
Mof_O 	O 	0.30547	0.10779	0.8963	-0.481
Mof_O 	O 	0.36843	0.00885	0.711	-0.48
Mof_O 	O 	0.31349	0.0674	0.6234	-0.493
Mof_O 	O 	0.45258	0.97434	0.1139	-0.501
Mof_O 	O 	0.53655	0.98265	0.1538	-0.5
Mof_C 	C 	0.33208	0.06878	0.8823	0.268
Mof_C 	C 	0.33871	0.04637	0.7239	0.266
Mof_C 	C 	0.49698	0.98751	0.0766	0.241
Mof_In	In	0.72567	0.8574	0.31638	2.211
Mof_O 	O 	0.79612	0.89526	0.2614	-0.527
Mof_O 	O 	0.85779	0.94453	0.3537	-0.48
Mof_O 	O 	0.75885	0.88157	0.539	-0.481
Mof_O 	O 	0.8174	0.93651	0.6266	-0.493
Mof_O 	O 	0.72434	0.79742	0.1361	-0.503
Mof_O 	O 	0.73265	0.71345	0.0962	-0.501
Mof_C 	C 	0.81878	0.91792	0.3677	0.268
Mof_C 	C 	0.79637	0.91129	0.5261	0.266
Mof_C 	C 	0.73751	0.75302	0.1734	0.241
Mof_In	In	0.22567	0.3574	0.81638	2.212
Mof_O 	O 	0.29612	0.39526	0.7614	-0.527
Mof_O 	O 	0.35779	0.44453	0.8537	-0.481
Mof_O 	O 	0.25885	0.38157	0.039	-0.481
Mof_O 	O 	0.3174	0.43651	0.1266	-0.493
Mof_O 	O 	0.22434	0.29742	0.6361	-0.503
Mof_O 	O 	0.23265	0.21345	0.5962	-0.502
Mof_C 	C 	0.31878	0.41792	0.8677	0.269
Mof_C 	C 	0.29637	0.41129	0.0261	0.265
Mof_C 	C 	0.23751	0.25302	0.6734	0.241
Mof_In	In	0.77433	0.1426	0.81638	2.213
Mof_O 	O 	0.70388	0.10474	0.7614	-0.527
Mof_O 	O 	0.64221	0.05547	0.8537	-0.48
Mof_O 	O 	0.74115	0.11843	0.039	-0.482
Mof_O 	O 	0.6826	0.06349	0.1266	-0.492
Mof_O 	O 	0.77566	0.20258	0.6361	-0.503
Mof_O 	O 	0.76735	0.28655	0.5962	-0.502
Mof_C 	C 	0.68122	0.08208	0.8677	0.27
Mof_C 	C 	0.70363	0.08871	0.0261	0.264
Mof_C 	C 	0.76249	0.24698	0.6734	0.241
Mof_In	In	0.27433	0.6426	0.31638	2.211
Mof_O 	O 	0.20388	0.60474	0.2614	-0.527
Mof_O 	O 	0.14221	0.55547	0.3537	-0.481
Mof_O 	O 	0.24115	0.61843	0.539	-0.481
Mof_O 	O 	0.1826	0.56349	0.6266	-0.493
Mof_O 	O 	0.27566	0.70258	0.1361	-0.503
Mof_O 	O 	0.26735	0.78655	0.0962	-0.501
Mof_C 	C 	0.18122	0.58208	0.3677	0.268
Mof_C 	C 	0.20363	0.58871	0.5261	0.266
Mof_C 	C 	0.26249	0.74698	0.1734	0.241
Mof_In	In	0.3926	0.47567	0.06638	2.211
Mof_O 	O 	0.35474	0.54612	0.0114	-0.527
Mof_O 	O 	0.30547	0.60779	0.1037	-0.481
Mof_O 	O 	0.36843	0.50885	0.289	-0.481
Mof_O 	O 	0.31349	0.5674	0.3766	-0.493
Mof_O 	O 	0.45258	0.47434	0.8861	-0.503
Mof_O 	O 	0.53655	0.48265	0.8462	-0.502
Mof_C 	C 	0.33208	0.56878	0.1177	0.268
Mof_C 	C 	0.33871	0.54637	0.2761	0.266
Mof_C 	C 	0.49698	0.48751	0.9234	0.241
Mof_In	In	0.8926	0.97567	0.56638	2.205
Mof_O 	O 	0.85474	0.04612	0.5114	-0.526
Mof_O 	O 	0.80547	0.10779	0.6037	-0.481
Mof_O 	O 	0.86843	0.00885	0.789	-0.479
Mof_O 	O 	0.81349	0.0674	0.8766	-0.492
Mof_O 	O 	0.95258	0.97434	0.3861	-0.502
Mof_O 	O 	0.03655	0.98265	0.3462	-0.499
Mof_C 	C 	0.83208	0.06878	0.6177	0.269
Mof_C 	C 	0.83871	0.04637	0.7761	0.266
Mof_C 	C 	0.99698	0.98751	0.4234	0.238
Mof_In	In	0.1074	0.52433	0.56638	2.211
Mof_O 	O 	0.14526	0.45388	0.5114	-0.527
Mof_O 	O 	0.19453	0.39221	0.6037	-0.481
Mof_O 	O 	0.13157	0.49115	0.789	-0.481
Mof_O 	O 	0.18651	0.4326	0.8766	-0.493
Mof_O 	O 	0.04742	0.52566	0.3861	-0.503
Mof_O 	O 	0.96345	0.51735	0.3462	-0.502
Mof_C 	C 	0.16792	0.43122	0.6177	0.268
Mof_C 	C 	0.16129	0.45363	0.7761	0.266
Mof_C 	C 	0.00302	0.51249	0.4234	0.241
Mof_In	In	0.6074	0.02433	0.06638	2.203
Mof_O 	O 	0.64526	0.95388	0.0114	-0.525
Mof_O 	O 	0.69453	0.89221	0.1037	-0.481
Mof_O 	O 	0.63157	0.99115	0.289	-0.48
Mof_O 	O 	0.68651	0.9326	0.3766	-0.493
Mof_O 	O 	0.54742	0.02566	0.8861	-0.501
Mof_O 	O 	0.46345	0.01735	0.8462	-0.5
Mof_C 	C 	0.66792	0.93122	0.1177	0.268
Mof_C 	C 	0.66129	0.95363	0.2761	0.266
Mof_C 	C 	0.50302	0.01249	0.9234	0.241
_end
