# CIF file generated by openbabel 3.1.0, see https://openbabel.org
data_I
_chemical_name_common 'image0'
_cell_length_a 16.538
_cell_length_b 9.904
_cell_length_c 21.902
_cell_angle_alpha 90
_cell_angle_beta 109.804
_cell_angle_gamma 90
_space_group_name_H-M_alt 'P 1'
_space_group_name_Hall 'P 1'
loop_
    _symmetry_equiv_pos_as_xyz
    x,y,z
loop_
    _atom_site_label
    _atom_site_type_symbol
    _atom_site_fract_x
    _atom_site_fract_y
    _atom_site_fract_z
    _atom_site_occupancy
    N1       N        0.36860    0.03860    0.08490    1.000
    N2       N        0.40390    0.16970    0.10180    1.000
    N3       N        0.40950    0.19580    0.16690    1.000
    C1       C        0.37760    0.08100    0.19020    1.000
    N4       N        0.35240    0.98370    0.13950    1.000
    C2       C        0.24350    0.27400    0.42540    1.000
    C3       C        0.31610    0.17900    0.45330    1.000
    H1       H        0.32170    0.16160    0.49820    1.000
    H2       H        0.30150    0.09350    0.43020    1.000
    C4       C        0.40080    0.22300    0.45140    1.000
    C5       C        0.29350    0.00400    0.25790    1.000
    C6       C        0.38830    0.00700    0.25930    1.000
    H3       H        0.41140    0.91610    0.26100    1.000
    H4       H        0.42480    0.05840    0.29590    1.000
    C7       C        0.02130    0.70850    0.34910    1.000
    C8       C        0.03380    0.70300    0.42070    1.000
    H5       H        0.03850    0.79420    0.43770    1.000
    H6       H        0.08710    0.65630    0.44330    1.000
    C9       C        0.96010    0.63120    0.43350    1.000
    C10      C        0.88480    0.05910    0.42650    1.000
    C11      C        0.83000    0.99900    0.46070    1.000
    H7       H        0.86270    0.93130    0.49110    1.000
    H8       H        0.78120    0.95440    0.42940    1.000
    C12      C        0.79750    0.10500    0.49730    1.000
    Cd1      Cd       0.10173    0.02975    0.35320    1.000
    Cd2      Cd       0.36425    0.53919    0.48661    1.000
    Cd3      Cd       0.97097    0.38936    0.33565    1.000
    Cd4      Cd       0.75881    0.32973    0.37995    1.000
    N5       N        0.16060    0.23750    0.39460    1.000
    N6       N        0.11970    0.35330    0.38010    1.000
    N7       N        0.17020    0.45510    0.40030    1.000
    N8       N        0.24960    0.40890    0.43000    1.000
    N9       N        0.43730    0.34220    0.47170    1.000
    N10      N        0.51730    0.33120    0.46550    1.000
    N11      N        0.52500    0.20500    0.44340    1.000
    N12      N        0.45320    0.14600    0.43450    1.000
    N13      N        0.18870    0.99650    0.28980    1.000
    N14      N        0.17360    0.92110    0.23930    1.000
    N15      N        0.23880    0.92400    0.21840    1.000
    N16      N        0.26770    0.04900    0.30520    1.000
    N17      N        0.98490    0.08060    0.38730    1.000
    N18      N        0.93780    0.18690    0.37120    1.000
    N19      N        0.87390    0.17800    0.39540    1.000
    N20      N        0.95540    0.99790    0.42220    1.000
    N21      N        0.80520    0.09030    0.55930    1.000
    N22      N        0.76630    0.20510    0.57310    1.000
    N23      N        0.73510    0.27430    0.52050    1.000
    N24      N        0.75280    0.21460    0.47080    1.000
    N25      N        0.98750    0.65620    0.24970    1.000
    N26      N        0.99290    0.60900    0.30780    1.000
    N27      N        0.01300    0.78120    0.25590    1.000
    N28      N        0.03490    0.81850    0.31820    1.000
    N29      N        0.91830    0.68720    0.46890    1.000
    N30      N        0.85480    0.59430    0.46530    1.000
    N31      N        0.86420    0.48920    0.43120    1.000
    N32      N        0.93000    0.50820    0.41070    1.000
    N33      N        0.63140    0.53860    0.41510    1.000
    N34      N        0.59610    0.66970    0.39820    1.000
    N35      N        0.59050    0.69580    0.33310    1.000
    C13      C        0.62240    0.58100    0.30980    1.000
    N36      N        0.64760    0.48370    0.36050    1.000
    C14      C        0.75650    0.77400    0.07460    1.000
    C15      C        0.68390    0.67900    0.04670    1.000
    H9       H        0.67830    0.66160    0.00180    1.000
    H10      H        0.69850    0.59350    0.06980    1.000
    C16      C        0.59920    0.72300    0.04860    1.000
    C17      C        0.70650    0.50400    0.24210    1.000
    C18      C        0.61170    0.50700    0.24070    1.000
    H11      H        0.58860    0.41610    0.23900    1.000
    H12      H        0.57520    0.55840    0.20410    1.000
    C19      C        0.97870    0.20850    0.15090    1.000
    C20      C        0.96620    0.20300    0.07930    1.000
    H13      H        0.96150    0.29420    0.06230    1.000
    H14      H        0.91290    0.15630    0.05670    1.000
    C21      C        0.03990    0.13120    0.06650    1.000
    C22      C        0.11520    0.55910    0.07350    1.000
    C23      C        0.17000    0.49900    0.03930    1.000
    H15      H        0.13730    0.43130    0.00890    1.000
    H16      H        0.21880    0.45440    0.07060    1.000
    C24      C        0.20250    0.60500    0.00270    1.000
    Cd5      Cd       0.89827    0.52975    0.14680    1.000
    Cd6      Cd       0.63575    0.03919    0.01339    1.000
    Cd7      Cd       0.02903    0.88936    0.16435    1.000
    Cd8      Cd       0.24119    0.82973    0.12005    1.000
    N37      N        0.83940    0.73750    0.10540    1.000
    N38      N        0.88030    0.85330    0.11990    1.000
    N39      N        0.82980    0.95510    0.09970    1.000
    N40      N        0.75040    0.90890    0.07000    1.000
    N41      N        0.56270    0.84220    0.02830    1.000
    N42      N        0.48270    0.83120    0.03450    1.000
    N43      N        0.47500    0.70500    0.05660    1.000
    N44      N        0.54680    0.64600    0.06550    1.000
    N45      N        0.81130    0.49650    0.21020    1.000
    N46      N        0.82640    0.42110    0.26070    1.000
    N47      N        0.76120    0.42400    0.28160    1.000
    N48      N        0.73230    0.54900    0.19480    1.000
    N49      N        0.01510    0.58060    0.11270    1.000
    N50      N        0.06220    0.68690    0.12880    1.000
    N51      N        0.12610    0.67800    0.10460    1.000
    N52      N        0.04460    0.49790    0.07780    1.000
    N53      N        0.19480    0.59030    0.94070    1.000
    N54      N        0.23370    0.70510    0.92690    1.000
    N55      N        0.26490    0.77430    0.97950    1.000
    N56      N        0.24720    0.71460    0.02920    1.000
    N57      N        0.01250    0.15620    0.25030    1.000
    N58      N        0.00710    0.10900    0.19220    1.000
    N59      N        0.98700    0.28120    0.24410    1.000
    N60      N        0.96510    0.31850    0.18180    1.000
    N61      N        0.08170    0.18720    0.03110    1.000
    N62      N        0.14520    0.09430    0.03470    1.000
    N63      N        0.13580    0.98920    0.06880    1.000
    N64      N        0.07000    0.00820    0.08930    1.000
    N65      N        0.63140    0.96140    0.91510    1.000
    N66      N        0.59610    0.83030    0.89820    1.000
    N67      N        0.59050    0.80420    0.83310    1.000
    C25      C        0.62240    0.91900    0.80980    1.000
    N68      N        0.64760    0.01630    0.86050    1.000
    C26      C        0.75650    0.72600    0.57460    1.000
    C27      C        0.68390    0.82100    0.54670    1.000
    H17      H        0.67830    0.83840    0.50180    1.000
    H18      H        0.69850    0.90650    0.56980    1.000
    C28      C        0.59920    0.77700    0.54860    1.000
    C29      C        0.70650    0.99600    0.74210    1.000
    C30      C        0.61170    0.99300    0.74070    1.000
    H19      H        0.58860    0.08390    0.73900    1.000
    H20      H        0.57520    0.94160    0.70410    1.000
    C31      C        0.97870    0.29150    0.65090    1.000
    C32      C        0.96620    0.29700    0.57930    1.000
    H21      H        0.96150    0.20580    0.56230    1.000
    H22      H        0.91290    0.34370    0.55670    1.000
    C33      C        0.03990    0.36880    0.56650    1.000
    C34      C        0.11520    0.94090    0.57350    1.000
    C35      C        0.17000    0.00100    0.53930    1.000
    H23      H        0.13730    0.06870    0.50890    1.000
    H24      H        0.21880    0.04560    0.57060    1.000
    C36      C        0.20250    0.89500    0.50270    1.000
    Cd9      Cd       0.89827    0.97025    0.64680    1.000
    Cd10     Cd       0.63575    0.46081    0.51339    1.000
    Cd11     Cd       0.02903    0.61064    0.66435    1.000
    Cd12     Cd       0.24119    0.67027    0.62005    1.000
    N69      N        0.83940    0.76250    0.60540    1.000
    N70      N        0.88030    0.64670    0.61990    1.000
    N71      N        0.82980    0.54490    0.59970    1.000
    N72      N        0.75040    0.59110    0.57000    1.000
    N73      N        0.56270    0.65780    0.52830    1.000
    N74      N        0.48270    0.66880    0.53450    1.000
    N75      N        0.47500    0.79500    0.55660    1.000
    N76      N        0.54680    0.85400    0.56550    1.000
    N77      N        0.81130    0.00350    0.71020    1.000
    N78      N        0.82640    0.07890    0.76070    1.000
    N79      N        0.76120    0.07600    0.78160    1.000
    N80      N        0.73230    0.95100    0.69480    1.000
    N81      N        0.01510    0.91940    0.61270    1.000
    N82      N        0.06220    0.81310    0.62880    1.000
    N83      N        0.12610    0.82200    0.60460    1.000
    N84      N        0.04460    0.00210    0.57780    1.000
    N85      N        0.19480    0.90970    0.44070    1.000
    N86      N        0.23370    0.79490    0.42690    1.000
    N87      N        0.26490    0.72570    0.47950    1.000
    N88      N        0.24720    0.78540    0.52920    1.000
    N89      N        0.01250    0.34380    0.75030    1.000
    N90      N        0.00710    0.39100    0.69220    1.000
    N91      N        0.98700    0.21880    0.74410    1.000
    N92      N        0.96510    0.18150    0.68180    1.000
    N93      N        0.08170    0.31280    0.53110    1.000
    N94      N        0.14520    0.40570    0.53470    1.000
    N95      N        0.13580    0.51080    0.56880    1.000
    N96      N        0.07000    0.49180    0.58930    1.000
    N97      N        0.36860    0.46140    0.58490    1.000
    N98      N        0.40390    0.33030    0.60180    1.000
    N99      N        0.40950    0.30420    0.66690    1.000
    C37      C        0.37760    0.41900    0.69020    1.000
    N100     N        0.35240    0.51630    0.63950    1.000
    C38      C        0.24350    0.22600    0.92540    1.000
    C39      C        0.31610    0.32100    0.95330    1.000
    H25      H        0.32170    0.33840    0.99820    1.000
    H26      H        0.30150    0.40650    0.93020    1.000
    C40      C        0.40080    0.27700    0.95140    1.000
    C41      C        0.29350    0.49600    0.75790    1.000
    C42      C        0.38830    0.49300    0.75930    1.000
    H27      H        0.41140    0.58390    0.76100    1.000
    H28      H        0.42480    0.44160    0.79590    1.000
    C43      C        0.02130    0.79150    0.84910    1.000
    C44      C        0.03380    0.79700    0.92070    1.000
    H29      H        0.03850    0.70580    0.93770    1.000
    H30      H        0.08710    0.84370    0.94330    1.000
    C45      C        0.96010    0.86880    0.93350    1.000
    C46      C        0.88480    0.44090    0.92650    1.000
    C47      C        0.83000    0.50100    0.96070    1.000
    H31      H        0.86270    0.56870    0.99110    1.000
    H32      H        0.78120    0.54560    0.92940    1.000
    C48      C        0.79750    0.39500    0.99730    1.000
    Cd13     Cd       0.10173    0.47025    0.85320    1.000
    Cd14     Cd       0.36425    0.96081    0.98661    1.000
    Cd15     Cd       0.97097    0.11064    0.83565    1.000
    Cd16     Cd       0.75881    0.17027    0.87995    1.000
    N101     N        0.16060    0.26250    0.89460    1.000
    N102     N        0.11970    0.14670    0.88010    1.000
    N103     N        0.17020    0.04490    0.90030    1.000
    N104     N        0.24960    0.09110    0.93000    1.000
    N105     N        0.43730    0.15780    0.97170    1.000
    N106     N        0.51730    0.16880    0.96550    1.000
    N107     N        0.52500    0.29500    0.94340    1.000
    N108     N        0.45320    0.35400    0.93450    1.000
    N109     N        0.18870    0.50350    0.78980    1.000
    N110     N        0.17360    0.57890    0.73930    1.000
    N111     N        0.23880    0.57600    0.71840    1.000
    N112     N        0.26770    0.45100    0.80520    1.000
    N113     N        0.98490    0.41940    0.88730    1.000
    N114     N        0.93780    0.31310    0.87120    1.000
    N115     N        0.87390    0.32200    0.89540    1.000
    N116     N        0.95540    0.50210    0.92220    1.000
    N117     N        0.80520    0.40970    0.05930    1.000
    N118     N        0.76630    0.29490    0.07310    1.000
    N119     N        0.73510    0.22570    0.02050    1.000
    N120     N        0.75280    0.28540    0.97080    1.000
    N121     N        0.98750    0.84380    0.74970    1.000
    N122     N        0.99290    0.89100    0.80780    1.000
    N123     N        0.01300    0.71880    0.75590    1.000
    N124     N        0.03490    0.68150    0.81820    1.000
    N125     N        0.91830    0.81280    0.96890    1.000
    N126     N        0.85480    0.90570    0.96530    1.000
    N127     N        0.86420    0.01080    0.93120    1.000
    N128     N        0.93000    0.99180    0.91070    1.000
