data_functionalizedCrystal
_audit_creation_method	'EQeq! by Chris Wilmer'
_symmetry_space_group_name_H-M	'P1'
_symmetry_Int_Tables_number	1
_symmetry_cell_setting	triclinic
loop_
_symmetry_equiv_pos_as_xyz
  x,y,z
_cell_length_a	6.827
_cell_length_b	13.965
_cell_length_c	16.073
_cell_angle_alpha	90
_cell_angle_beta	90
_cell_angle_gamma	90
loop_
_atom_site_label
_atom_site_type_symbol
_atom_site_fract_x
_atom_site_fract_y
_atom_site_fract_z
_atom_site_charge
Mof_V 	V 	0.93488	0.23585	0.49911	1.833
Mof_V 	V 	0.56512	0.76415	0.99911	1.834
Mof_V 	V 	0.06512	0.73585	0.00089	1.834
Mof_V 	V 	0.43488	0.26415	0.50089	1.836
Mof_H 	H 	0.5519	0.9815	0.1798	0.057
Mof_H 	H 	0.5313	0.0878	0.2868	0.055
Mof_H 	H 	0.9482	0.0521	0.2932	0.046
Mof_H 	H 	0.9689	0.9523	0.1812	0.066
Mof_H 	H 	0.9481	0.0185	0.6798	0.044
Mof_H 	H 	0.9687	0.9122	0.7868	0.063
Mof_H 	H 	0.5518	0.9479	0.7932	0.056
Mof_H 	H 	0.5311	0.0477	0.6812	0.054
Mof_H 	H 	0.4481	0.4815	0.3202	0.055
Mof_H 	H 	0.4687	0.5878	0.2132	0.056
Mof_H 	H 	0.0518	0.5521	0.2068	0.051
Mof_H 	H 	0.0311	0.4523	0.3188	0.058
Mof_H 	H 	0.0519	0.5185	0.8202	0.053
Mof_H 	H 	0.0313	0.4122	0.7132	0.06
Mof_H 	H 	0.4482	0.4479	0.7068	0.055
Mof_H 	H 	0.4689	0.5477	0.8188	0.055
Mof_C 	C 	0.2779	0.8795	0.1046	0.414
Mof_C 	C 	0.2615	0.9526	0.1704	-0.082
Mof_C 	C 	0.4302	0.996	0.2025	-0.013
Mof_C 	C 	0.4177	0.0594	0.2665	-0.004
Mof_C 	C 	0.2242	0.1462	0.3758	0.422
Mof_C 	C 	0.2378	0.0826	0.3025	-0.095
Mof_C 	C 	0.0699	0.0391	0.2698	0.007
Mof_C 	C 	0.0829	0.9777	0.2039	-0.025
Mof_C 	C 	0.2221	0.1205	0.6046	0.42
Mof_C 	C 	0.2385	0.0474	0.6704	-0.097
Mof_C 	C 	0.0698	0.004	0.7025	0.009
Mof_C 	C 	0.0823	0.9406	0.7665	-0.022
Mof_C 	C 	0.2758	0.8538	0.8758	0.417
Mof_C 	C 	0.2622	0.9174	0.8025	-0.082
Mof_C 	C 	0.4301	0.9609	0.7698	-0.013
Mof_C 	C 	0.4171	0.0223	0.7039	-0.003
Mof_C 	C 	0.7221	0.3795	0.3954	0.416
Mof_C 	C 	0.7385	0.4526	0.3296	-0.088
Mof_C 	C 	0.5698	0.496	0.2975	-0.01
Mof_C 	C 	0.5823	0.5594	0.2335	-0.006
Mof_C 	C 	0.7758	0.6462	0.1242	0.42
Mof_C 	C 	0.7622	0.5826	0.1975	-0.09
Mof_C 	C 	0.9301	0.5391	0.2302	-0.004
Mof_C 	C 	0.9171	0.4777	0.2961	-0.01
Mof_C 	C 	0.7779	0.6205	0.8954	0.418
Mof_C 	C 	0.7615	0.5474	0.8296	-0.092
Mof_C 	C 	0.9302	0.504	0.7975	-0.005
Mof_C 	C 	0.9177	0.4406	0.7335	-0.014
Mof_C 	C 	0.7242	0.3538	0.6242	0.419
Mof_C 	C 	0.7378	0.4174	0.6975	-0.086
Mof_C 	C 	0.5699	0.4609	0.7302	-0.012
Mof_C 	C 	0.5829	0.5223	0.7961	-0.004
Mof_O 	O 	0.7177	0.1912	0.4942	-0.676
Mof_O 	O 	0.4437	0.8572	0.0785	-0.505
Mof_O 	O 	0.0559	0.166	0.4053	-0.508
Mof_O 	O 	0.1164	0.8426	0.0762	-0.498
Mof_O 	O 	0.3828	0.1807	0.4031	-0.495
Mof_O 	O 	0.7823	0.8088	0.9942	-0.675
Mof_O 	O 	0.0563	0.1428	0.5785	-0.505
Mof_O 	O 	0.4441	0.834	0.9053	-0.509
Mof_O 	O 	0.3836	0.1574	0.5762	-0.498
Mof_O 	O 	0.1172	0.8193	0.9031	-0.494
Mof_O 	O 	0.2823	0.6912	0.0058	-0.675
Mof_O 	O 	0.5563	0.3572	0.4215	-0.507
Mof_O 	O 	0.9441	0.666	0.0947	-0.507
Mof_O 	O 	0.8836	0.3426	0.4238	-0.498
Mof_O 	O 	0.6172	0.6807	0.0969	-0.494
Mof_O 	O 	0.2177	0.3088	0.5058	-0.674
Mof_O 	O 	0.9437	0.6428	0.9215	-0.507
Mof_O 	O 	0.5559	0.334	0.5947	-0.509
Mof_O 	O 	0.6164	0.6574	0.9238	-0.497
Mof_O 	O 	0.8828	0.3193	0.5969	-0.495
_end
