# CIF file generated by openbabel 3.1.0, see https://openbabel.org
data_I
_chemical_name_common 'image0'
_cell_length_a 11.7292
_cell_length_b 5.5685
_cell_length_c 22.792
_cell_angle_alpha 90
_cell_angle_beta 100.493
_cell_angle_gamma 90
_space_group_name_H-M_alt 'P 1'
_space_group_name_Hall 'P 1'
loop_
    _symmetry_equiv_pos_as_xyz
    x,y,z
loop_
    _atom_site_label
    _atom_site_type_symbol
    _atom_site_fract_x
    _atom_site_fract_y
    _atom_site_fract_z
    _atom_site_occupancy
    Ca1      Ca       0.63749    0.75620    0.22222    1.000
    S1       S        0.39917    0.96451    0.10714    1.000
    O1       O        0.26084    0.91557    0.80924    1.000
    O2       O        0.26461    0.52420    0.82797    1.000
    O3       O        0.95767    0.91915    0.25482    1.000
    O4       O        0.98643    0.52363    0.24585    1.000
    O5       O        0.41621    0.22042    0.11108    1.000
    O6       O        0.49514    0.80548    0.13020    1.000
    C1       C        0.35455    0.89150    0.03111    1.000
    C2       C        0.38241    0.66740    0.01067    1.000
    H1       H        0.42000    0.54980    0.03760    1.000
    C3       C        0.35388    0.61980    0.94993    1.000
    H2       H        0.37200    0.46760    0.93520    1.000
    C4       C        0.29938    0.79180    0.91059    1.000
    C5       C        0.26898    0.01220    0.93202    1.000
    H3       H        0.23010    0.12860    0.90510    1.000
    C6       C        0.29539    0.06210    0.99258    1.000
    H4       H        0.27330    0.21090    0.00760    1.000
    C7       C        0.27457    0.73860    0.84470    1.000
    C8       C        0.28174    0.89120    0.14223    1.000
    C9       C        0.19304    0.05950    0.14080    1.000
    H5       H        0.19420    0.20580    0.11950    1.000
    C10      C        0.10297    0.00980    0.17102    1.000
    H6       H        0.04300    0.12420    0.17130    1.000
    C11      C        0.10079    0.79200    0.20092    1.000
    C12      C        0.18833    0.62360    0.20040    1.000
    H7       H        0.18510    0.47400    0.22010    1.000
    C13      C        0.28073    0.67180    0.17139    1.000
    H8       H        0.34120    0.55820    0.17150    1.000
    C14      C        0.00606    0.74060    0.23671    1.000
    Ca2      Ca       0.86251    0.25620    0.27778    1.000
    S2       S        0.10083    0.46451    0.39286    1.000
    O7       O        0.23916    0.41557    0.69076    1.000
    O8       O        0.23539    0.02420    0.67203    1.000
    O9       O        0.54233    0.41915    0.24518    1.000
    O10      O        0.51357    0.02363    0.25415    1.000
    O11      O        0.08379    0.72042    0.38892    1.000
    O12      O        0.00486    0.30548    0.36980    1.000
    C15      C        0.14545    0.39150    0.46889    1.000
    C16      C        0.11759    0.16740    0.48933    1.000
    H9       H        0.08000    0.04980    0.46240    1.000
    C17      C        0.14612    0.11980    0.55007    1.000
    H10      H        0.12800    0.96760    0.56480    1.000
    C18      C        0.20062    0.29180    0.58941    1.000
    C19      C        0.23102    0.51220    0.56798    1.000
    H11      H        0.26990    0.62860    0.59490    1.000
    C20      C        0.20461    0.56210    0.50742    1.000
    H12      H        0.22670    0.71090    0.49240    1.000
    C21      C        0.22543    0.23860    0.65530    1.000
    C22      C        0.21826    0.39120    0.35777    1.000
    C23      C        0.30696    0.55950    0.35920    1.000
    H13      H        0.30580    0.70580    0.38050    1.000
    C24      C        0.39703    0.50980    0.32898    1.000
    H14      H        0.45700    0.62420    0.32870    1.000
    C25      C        0.39921    0.29200    0.29908    1.000
    C26      C        0.31167    0.12360    0.29960    1.000
    H15      H        0.31490    0.97400    0.27990    1.000
    C27      C        0.21927    0.17180    0.32861    1.000
    H16      H        0.15880    0.05820    0.32850    1.000
    C28      C        0.49394    0.24060    0.26329    1.000
    Ca3      Ca       0.36251    0.24380    0.77778    1.000
    S3       S        0.60083    0.03549    0.89286    1.000
    O13      O        0.73916    0.08443    0.19076    1.000
    O14      O        0.73539    0.47580    0.17203    1.000
    O15      O        0.04233    0.08085    0.74518    1.000
    O16      O        0.01357    0.47637    0.75415    1.000
    O17      O        0.58379    0.77958    0.88892    1.000
    O18      O        0.50486    0.19452    0.86980    1.000
    C29      C        0.64545    0.10850    0.96889    1.000
    C30      C        0.61759    0.33260    0.98933    1.000
    H17      H        0.58000    0.45020    0.96240    1.000
    C31      C        0.64612    0.38020    0.05007    1.000
    H18      H        0.62800    0.53240    0.06480    1.000
    C32      C        0.70062    0.20820    0.08941    1.000
    C33      C        0.73102    0.98780    0.06798    1.000
    H19      H        0.76990    0.87140    0.09490    1.000
    C34      C        0.70461    0.93790    0.00742    1.000
    H20      H        0.72670    0.78910    0.99240    1.000
    C35      C        0.72543    0.26140    0.15530    1.000
    C36      C        0.71826    0.10880    0.85777    1.000
    C37      C        0.80696    0.94050    0.85920    1.000
    H21      H        0.80580    0.79420    0.88050    1.000
    C38      C        0.89703    0.99020    0.82898    1.000
    H22      H        0.95700    0.87580    0.82870    1.000
    C39      C        0.89921    0.20800    0.79908    1.000
    C40      C        0.81167    0.37640    0.79960    1.000
    H23      H        0.81490    0.52600    0.77990    1.000
    C41      C        0.71927    0.32820    0.82861    1.000
    H24      H        0.65880    0.44180    0.82850    1.000
    C42      C        0.99394    0.25940    0.76329    1.000
    Ca4      Ca       0.13749    0.74380    0.72222    1.000
    S4       S        0.89917    0.53549    0.60714    1.000
    O19      O        0.76084    0.58443    0.30924    1.000
    O20      O        0.76461    0.97580    0.32797    1.000
    O21      O        0.45767    0.58085    0.75482    1.000
    O22      O        0.48643    0.97637    0.74585    1.000
    O23      O        0.91621    0.27958    0.61108    1.000
    O24      O        0.99514    0.69452    0.63020    1.000
    C43      C        0.85455    0.60850    0.53111    1.000
    C44      C        0.88241    0.83260    0.51067    1.000
    H25      H        0.92000    0.95020    0.53760    1.000
    C45      C        0.85388    0.88020    0.44993    1.000
    H26      H        0.87200    0.03240    0.43520    1.000
    C46      C        0.79938    0.70820    0.41059    1.000
    C47      C        0.76898    0.48780    0.43202    1.000
    H27      H        0.73010    0.37140    0.40510    1.000
    C48      C        0.79539    0.43790    0.49258    1.000
    H28      H        0.77330    0.28910    0.50760    1.000
    C49      C        0.77457    0.76140    0.34470    1.000
    C50      C        0.78174    0.60880    0.64223    1.000
    C51      C        0.69304    0.44050    0.64080    1.000
    H29      H        0.69420    0.29420    0.61950    1.000
    C52      C        0.60297    0.49020    0.67102    1.000
    H30      H        0.54300    0.37580    0.67130    1.000
    C53      C        0.60079    0.70800    0.70092    1.000
    C54      C        0.68833    0.87640    0.70040    1.000
    H31      H        0.68510    0.02600    0.72010    1.000
    C55      C        0.78073    0.82820    0.67139    1.000
    H32      H        0.84120    0.94180    0.67150    1.000
    C56      C        0.50606    0.75940    0.73671    1.000
