# CIF file generated by openbabel 3.1.0, see https://openbabel.org
data_I
_chemical_name_common 'image0'
_cell_length_a 8.6736
_cell_length_b 9.7813
_cell_length_c 22.7964
_cell_angle_alpha 90
_cell_angle_beta 90
_cell_angle_gamma 90
_space_group_name_H-M_alt 'P 1'
_space_group_name_Hall 'P 1'
loop_
    _symmetry_equiv_pos_as_xyz
    x,y,z
loop_
    _atom_site_label
    _atom_site_type_symbol
    _atom_site_fract_x
    _atom_site_fract_y
    _atom_site_fract_z
    _atom_site_occupancy
    Y1       Y        0.04000    0.85910    0.74424    1.000
    P1       P        0.98140    0.11020    0.87020    1.000
    P2       P        0.30470    0.13990    0.72040    1.000
    P3       P        0.78150    0.09900    0.66630    1.000
    O1       O        0.92530    0.22780    0.83860    1.000
    O2       O        0.98760    0.99000    0.82750    1.000
    O3       O        0.13770    0.11870    0.89830    1.000
    O4       O        0.17180    0.23800    0.72530    1.000
    O5       O        0.24770    0.99790    0.72350    1.000
    O6       O        0.38400    0.16860    0.66110    1.000
    O7       O        0.88310    0.98540    0.68340    1.000
    O8       O        0.78270    0.20720    0.71370    1.000
    O9       O        0.62160    0.05190    0.65190    1.000
    N1       N        0.67220    0.07370    0.91100    1.000
    N2       N        0.39850    0.13580    0.84640    1.000
    N3       N        0.91510    0.91110    0.45000    1.000
    C1       C        0.83570    0.06190    0.93010    1.000
    C2       C        0.62540    0.99170    0.85850    1.000
    C3       C        0.45500    0.98680    0.85690    1.000
    C4       C        0.45100    0.22560    0.89350    1.000
    C5       C        0.62060    0.22210    0.89990    1.000
    C6       C        0.44380    0.17560    0.78330    1.000
    C7       C        0.85670    0.18430    0.59690    1.000
    C8       C        0.88300    0.14630    0.49050    1.000
    C9       C        0.92600    0.95170    0.55760    1.000
    C10      C        0.86300    0.05330    0.44200    1.000
    N4       N        0.85400    0.08760    0.54970    1.000
    Y2       Y        0.04000    0.14090    0.25576    1.000
    P4       P        0.98140    0.88980    0.12980    1.000
    P5       P        0.30470    0.86010    0.27960    1.000
    P6       P        0.78150    0.90100    0.33370    1.000
    O10      O        0.92530    0.77220    0.16140    1.000
    O11      O        0.98760    0.01000    0.17250    1.000
    O12      O        0.13770    0.88130    0.10170    1.000
    O13      O        0.17180    0.76200    0.27470    1.000
    O14      O        0.24770    0.00210    0.27650    1.000
    O15      O        0.38400    0.83140    0.33890    1.000
    O16      O        0.88310    0.01460    0.31660    1.000
    O17      O        0.78270    0.79280    0.28630    1.000
    O18      O        0.62160    0.94810    0.34810    1.000
    N5       N        0.67220    0.92630    0.08900    1.000
    N6       N        0.39850    0.86420    0.15360    1.000
    N7       N        0.91510    0.08890    0.55000    1.000
    C11      C        0.83570    0.93810    0.06990    1.000
    C12      C        0.62540    0.00830    0.14150    1.000
    C13      C        0.45500    0.01320    0.14310    1.000
    C14      C        0.45100    0.77440    0.10650    1.000
    C15      C        0.62060    0.77790    0.10010    1.000
    C16      C        0.44380    0.82440    0.21670    1.000
    C17      C        0.85670    0.81570    0.40310    1.000
    C18      C        0.88300    0.85370    0.50950    1.000
    C19      C        0.92600    0.04830    0.44240    1.000
    C20      C        0.86300    0.94670    0.55800    1.000
    N8       N        0.85400    0.91240    0.45030    1.000
    Y3       Y        0.96000    0.64090    0.24424    1.000
    P7       P        0.01860    0.38980    0.37020    1.000
    P8       P        0.69530    0.36010    0.22040    1.000
    P9       P        0.21850    0.40100    0.16630    1.000
    O19      O        0.07470    0.27220    0.33860    1.000
    O20      O        0.01240    0.51000    0.32750    1.000
    O21      O        0.86230    0.38130    0.39830    1.000
    O22      O        0.82820    0.26200    0.22530    1.000
    O23      O        0.75230    0.50210    0.22350    1.000
    O24      O        0.61600    0.33140    0.16110    1.000
    O25      O        0.11690    0.51460    0.18340    1.000
    O26      O        0.21730    0.29280    0.21370    1.000
    O27      O        0.37840    0.44810    0.15190    1.000
    N9       N        0.32780    0.42630    0.41100    1.000
    N10      N        0.60150    0.36420    0.34640    1.000
    N11      N        0.08490    0.58890    0.95000    1.000
    C21      C        0.16430    0.43810    0.43010    1.000
    C22      C        0.37460    0.50830    0.35850    1.000
    C23      C        0.54500    0.51320    0.35690    1.000
    C24      C        0.54900    0.27440    0.39350    1.000
    C25      C        0.37940    0.27790    0.39990    1.000
    C26      C        0.55620    0.32440    0.28330    1.000
    C27      C        0.14330    0.31570    0.09690    1.000
    C28      C        0.11700    0.35370    0.99050    1.000
    C29      C        0.07400    0.54830    0.05760    1.000
    C30      C        0.13700    0.44670    0.94200    1.000
    N12      N        0.14600    0.41240    0.04970    1.000
    Y4       Y        0.96000    0.35910    0.75576    1.000
    P10      P        0.01860    0.61020    0.62980    1.000
    P11      P        0.69530    0.63990    0.77960    1.000
    P12      P        0.21850    0.59900    0.83370    1.000
    O28      O        0.07470    0.72780    0.66140    1.000
    O29      O        0.01240    0.49000    0.67250    1.000
    O30      O        0.86230    0.61870    0.60170    1.000
    O31      O        0.82820    0.73800    0.77470    1.000
    O32      O        0.75230    0.49790    0.77650    1.000
    O33      O        0.61600    0.66860    0.83890    1.000
    O34      O        0.11690    0.48540    0.81660    1.000
    O35      O        0.21730    0.70720    0.78630    1.000
    O36      O        0.37840    0.55190    0.84810    1.000
    N13      N        0.32780    0.57370    0.58900    1.000
    N14      N        0.60150    0.63580    0.65360    1.000
    N15      N        0.08490    0.41110    0.05000    1.000
    C31      C        0.16430    0.56190    0.56990    1.000
    C32      C        0.37460    0.49170    0.64150    1.000
    C33      C        0.54500    0.48680    0.64310    1.000
    C34      C        0.54900    0.72560    0.60650    1.000
    C35      C        0.37940    0.72210    0.60010    1.000
    C36      C        0.55620    0.67560    0.71670    1.000
    C37      C        0.14330    0.68430    0.90310    1.000
    C38      C        0.11700    0.64630    0.00950    1.000
    C39      C        0.07400    0.45170    0.94240    1.000
    C40      C        0.13700    0.55330    0.05800    1.000
    N16      N        0.14600    0.58760    0.95030    1.000
