# CIF file generated by openbabel 3.1.0, see https://openbabel.org
data_I
_chemical_name_common 'OCACUR_clean'
_cell_length_a 9.4098
_cell_length_b 9.4098
_cell_length_c 11.742
_cell_angle_alpha 90.3182
_cell_angle_beta 90.3182
_cell_angle_gamma 110.041
_space_group_name_H-M_alt 'P 1'
_space_group_name_Hall 'P 1'
loop_
    _symmetry_equiv_pos_as_xyz
    x,y,z
loop_
    _atom_site_label
    _atom_site_type_symbol
    _atom_site_fract_x
    _atom_site_fract_y
    _atom_site_fract_z
    _atom_site_occupancy
    Co1      Co       0.11278    0.88722    0.50000    1.000
    Co2      Co       0.85850    0.86870    0.68848    1.000
    Co3      Co       0.88722    0.11278    0.00000    1.000
    Co4      Co       0.86870    0.85850    0.18848    1.000
    H1       H        0.93100    0.43480    0.23460    1.000
    H2       H        0.87770    0.33090    0.61780    1.000
    H3       H        0.43480    0.93100    0.73460    1.000
    H4       H        0.33090    0.87770    0.11780    1.000
    C1       C        0.86160    0.59660    0.59040    1.000
    C2       C        0.90830    0.66570    0.32980    1.000
    C3       C        0.91820    0.15780    0.26080    1.000
    C4       C        0.93440    0.11000    0.52010    1.000
    C5       C        0.89100    0.49320    0.50400    1.000
    C6       C        0.90780    0.52380    0.38730    1.000
    C7       C        0.92200    0.41420    0.31210    1.000
    C8       C        0.92300    0.27500    0.35040    1.000
    C9       C        0.91300    0.24540    0.46830    1.000
    C10      C        0.89190    0.35330    0.54080    1.000
    C11      C        0.59660    0.86160    0.09040    1.000
    C12      C        0.66570    0.90830    0.82980    1.000
    C13      C        0.15780    0.91820    0.76080    1.000
    C14      C        0.11000    0.93440    0.02010    1.000
    C15      C        0.49320    0.89100    0.00400    1.000
    C16      C        0.52380    0.90780    0.88730    1.000
    C17      C        0.41420    0.92200    0.81210    1.000
    C18      C        0.27500    0.92300    0.85040    1.000
    C19      C        0.24540    0.91300    0.96830    1.000
    C20      C        0.35330    0.89190    0.04080    1.000
    O1       O        0.90170    0.74070    0.56510    1.000
    O2       O        0.79950    0.54790    0.67760    1.000
    O3       O        0.00570    0.79370    0.34580    1.000
    O4       O        0.80530    0.64830    0.25310    1.000
    O5       O        0.95990    0.20290    0.16290    1.000
    O6       O        0.86420    0.02180    0.29140    1.000
    O7       O        0.04380    0.07100    0.48560    1.000
    O8       O        0.84700    0.04420    0.59890    1.000
    O9       O        0.74070    0.90170    0.06510    1.000
    O10      O        0.54790    0.79950    0.17760    1.000
    O11      O        0.79370    0.00570    0.84580    1.000
    O12      O        0.64830    0.80530    0.75310    1.000
    O13      O        0.20290    0.95990    0.66290    1.000
    O14      O        0.02180    0.86420    0.79140    1.000
    O15      O        0.07100    0.04380    0.98560    1.000
    O16      O        0.04420    0.84700    0.09890    1.000
