data_functionalizedCrystal
_audit_creation_method	'EQeq! by Chris Wilmer'
_symmetry_space_group_name_H-M	'P1'
_symmetry_Int_Tables_number	1
_symmetry_cell_setting	triclinic
loop_
_symmetry_equiv_pos_as_xyz
  x,y,z
_cell_length_a	7.4106
_cell_length_b	20.0651
_cell_length_c	31.1884
_cell_angle_alpha	90
_cell_angle_beta	90
_cell_angle_gamma	90
loop_
_atom_site_label
_atom_site_type_symbol
_atom_site_fract_x
_atom_site_fract_y
_atom_site_fract_z
_atom_site_charge
Mof_Ni	Ni	0.27745	0.51635	0.56812	1.11
Mof_Ni	Ni	0.5788	0.98445	0.23421	1.111
Mof_Ni	Ni	0.14422	0.99669	0.37913	1.109
Mof_Ni	Ni	0.72255	0.48365	0.06812	1.11
Mof_Ni	Ni	0.4212	0.01555	0.73421	1.111
Mof_Ni	Ni	0.85578	0.00331	0.87913	1.109
Mof_Ni	Ni	0.77745	0.98365	0.56812	1.11
Mof_Ni	Ni	0.0788	0.51555	0.23421	1.11
Mof_Ni	Ni	0.64422	0.50331	0.37913	1.11
Mof_Ni	Ni	0.22255	0.01635	0.06812	1.11
Mof_Ni	Ni	0.9212	0.48445	0.73421	1.11
Mof_Ni	Ni	0.35578	0.49669	0.87913	1.11
Mof_H 	H 	0.2152	0.8521	0.5098	0.093
Mof_H 	H 	0.1031	0.6608	0.4422	0.101
Mof_H 	H 	0.5802	0.4361	0.2913	0.042
Mof_H 	H 	0.6478	0.1593	0.35	0.097
Mof_H 	H 	0.6302	0.0557	0.3202	0.025
Mof_H 	H 	0.3431	0.668	0.5759	0.023
Mof_H 	H 	0.6928	0.2544	0.3751	0.091
Mof_H 	H 	0.5166	0.7343	0.2173	0.09
Mof_H 	H 	0.6344	0.6428	0.1919	0.103
Mof_H 	H 	0.1426	0.5669	0.4811	0.035
Mof_H 	H 	0.4906	0.8367	0.2489	0.027
Mof_H 	H 	0.5657	0.3322	0.2609	0.099
Mof_H 	H 	0.6905	0.9245	0.1491	0.039
Mof_H 	H 	0.7075	0.3598	0.4019	0.03
Mof_H 	H 	0.7096	0.8251	0.1128	0.101
Mof_H 	H 	0.1893	0.9481	0.4704	0.036
Mof_H 	H 	0.1172	0.7474	0.4033	0.098
Mof_H 	H 	0.2984	0.7649	0.5396	0.095
Mof_H 	H 	0.5679	0.237	0.2345	0.104
Mof_H 	H 	0.0821	0.8462	0.3673	0.022
Mof_H 	H 	0.6555	0.7352	0.0792	0.112
Mof_H 	H 	0.6716	0.5456	0.1565	0.024
Mof_H 	H 	0.5339	0.1311	0.2092	0.03
Mof_H 	H 	0.6972	0.6334	0.0479	0.031
Mof_H 	H 	0.7848	0.1479	0.0098	0.073
Mof_H 	H 	0.8969	0.3392	0.9422	0.111
Mof_H 	H 	0.4198	0.5639	0.7913	0.042
Mof_H 	H 	0.3522	0.8407	0.85	0.098
Mof_H 	H 	0.3698	0.9443	0.8202	0.025
Mof_H 	H 	0.6569	0.332	0.0759	0.018
Mof_H 	H 	0.3072	0.7456	0.8751	0.092
Mof_H 	H 	0.4834	0.2657	0.7173	0.09
Mof_H 	H 	0.3656	0.3572	0.6919	0.103
Mof_H 	H 	0.8574	0.4331	0.9811	0.029
Mof_H 	H 	0.5094	0.1633	0.7489	0.027
Mof_H 	H 	0.4343	0.6678	0.7609	0.099
Mof_H 	H 	0.3095	0.0755	0.6491	0.04
Mof_H 	H 	0.2925	0.6402	0.9019	0.031
Mof_H 	H 	0.2904	0.1749	0.6128	0.102
Mof_H 	H 	0.8107	0.0519	0.9704	0.044
Mof_H 	H 	0.8828	0.2526	0.9033	0.092
Mof_H 	H 	0.7016	0.2351	0.0396	0.105
Mof_H 	H 	0.4321	0.763	0.7345	0.104
Mof_H 	H 	0.9179	0.1538	0.8673	0.025
Mof_H 	H 	0.3445	0.2648	0.5792	0.113
Mof_H 	H 	0.3284	0.4544	0.6565	0.024
Mof_H 	H 	0.4661	0.8689	0.7092	0.03
Mof_H 	H 	0.3028	0.3666	0.5479	0.033
Mof_H 	H 	0.7152	0.6479	0.5098	0.092
Mof_H 	H 	0.6031	0.8392	0.4422	0.102
Mof_H 	H 	0.0802	0.0639	0.2913	0.04
Mof_H 	H 	0.1478	0.3407	0.35	0.097
Mof_H 	H 	0.1302	0.4443	0.3202	0.024
Mof_H 	H 	0.8431	0.832	0.5759	0.022
Mof_H 	H 	0.1928	0.2456	0.3751	0.09
Mof_H 	H 	0.0166	0.7657	0.2173	0.085
Mof_H 	H 	0.1344	0.8572	0.1919	0.102
Mof_H 	H 	0.6426	0.9331	0.4811	0.035
Mof_H 	H 	0.9906	0.6633	0.2489	0.037
Mof_H 	H 	0.0657	0.1678	0.2609	0.098
Mof_H 	H 	0.1905	0.5755	0.1491	0.04
Mof_H 	H 	0.2075	0.1402	0.4019	0.03
Mof_H 	H 	0.2096	0.6749	0.1128	0.099
Mof_H 	H 	0.6893	0.5519	0.4704	0.036
Mof_H 	H 	0.6172	0.7526	0.4033	0.098
Mof_H 	H 	0.7984	0.7351	0.5396	0.094
Mof_H 	H 	0.0679	0.263	0.2345	0.103
Mof_H 	H 	0.5821	0.6538	0.3673	0.023
Mof_H 	H 	0.1555	0.7648	0.0792	0.112
Mof_H 	H 	0.1716	0.9544	0.1565	0.023
Mof_H 	H 	0.0339	0.3689	0.2092	0.029
Mof_H 	H 	0.1972	0.8666	0.0479	0.03
Mof_H 	H 	0.2848	0.3521	0.0098	0.071
Mof_H 	H 	0.3969	0.1608	0.9422	0.111
Mof_H 	H 	0.9198	0.9361	0.7913	0.04
Mof_H 	H 	0.8522	0.6593	0.85	0.097
Mof_H 	H 	0.8698	0.5557	0.8202	0.024
Mof_H 	H 	0.1569	0.168	0.0759	0.017
Mof_H 	H 	0.8072	0.7544	0.8751	0.091
Mof_H 	H 	0.9834	0.2343	0.7173	0.085
Mof_H 	H 	0.8656	0.1428	0.6919	0.102
Mof_H 	H 	0.3574	0.0669	0.9811	0.029
Mof_H 	H 	0.0094	0.3367	0.7489	0.037
Mof_H 	H 	0.9343	0.8322	0.7609	0.098
Mof_H 	H 	0.8095	0.4245	0.6491	0.04
Mof_H 	H 	0.7925	0.8598	0.9019	0.031
Mof_H 	H 	0.7904	0.3251	0.6128	0.1
Mof_H 	H 	0.3107	0.4481	0.9704	0.045
Mof_H 	H 	0.3828	0.2474	0.9033	0.092
Mof_H 	H 	0.2016	0.2649	0.0396	0.104
Mof_H 	H 	0.9321	0.737	0.7345	0.103
Mof_H 	H 	0.4179	0.3462	0.8673	0.026
Mof_H 	H 	0.8445	0.2352	0.5792	0.113
Mof_H 	H 	0.8284	0.0456	0.6565	0.023
Mof_H 	H 	0.9661	0.6311	0.7092	0.029
Mof_H 	H 	0.8028	0.1334	0.5479	0.032
Mof_C 	C 	0.1915	0.84947	0.48058	-0.122
Mof_C 	C 	0.1522	0.66384	0.46957	-0.138
Mof_C 	C 	0.6028	0.39912	0.30839	0.079
Mof_C 	C 	0.6273	0.15526	0.32067	-0.138
Mof_C 	C 	0.1986	0.72424	0.48536	0.072
Mof_C 	C 	0.615	0.09265	0.30255	0.095
Mof_C 	C 	0.6235	0.28047	0.31452	0.056
Mof_C 	C 	0.2921	0.6661	0.54872	0.092
Mof_C 	C 	0.6685	0.29057	0.35734	-0.123
Mof_C 	C 	0.5522	0.7723	0.20251	-0.127
Mof_C 	C 	0.6095	0.21174	0.29605	0.076
Mof_C 	C 	0.6472	0.64298	0.16222	-0.15
Mof_C 	C 	0.1716	0.78771	0.46125	0.059
Mof_C 	C 	0.6193	0.76745	0.16137	0.056
Mof_C 	C 	0.1764	0.60737	0.49326	0.089
Mof_C 	C 	0.5385	0.83434	0.22135	0.083
Mof_C 	C 	0.5929	0.33651	0.28986	-0.12
Mof_C 	C 	0.6534	0.8858	0.16291	0.078
Mof_C 	C 	0.6768	0.35421	0.37321	0.081
Mof_C 	C 	0.6678	0.82588	0.14095	-0.121
Mof_C 	C 	0.1763	0.90728	0.45661	0.078
Mof_C 	C 	0.6426	0.70198	0.13982	0.083
Mof_C 	C 	0.1322	0.78754	0.41777	-0.131
Mof_C 	C 	0.268	0.72465	0.52675	-0.137
Mof_C 	C 	0.5781	0.20105	0.25323	-0.141
Mof_C 	C 	0.1151	0.8475	0.39601	0.097
Mof_C 	C 	0.6602	0.69716	0.09614	-0.15
Mof_C 	C 	0.6707	0.58465	0.14042	0.108
Mof_C 	C 	0.5618	0.13665	0.23808	0.1
Mof_C 	C 	0.6848	0.63522	0.07754	0.111
Mof_C 	C 	0.8085	0.15053	0.98058	-0.085
Mof_C 	C 	0.8478	0.33616	0.96957	-0.164
Mof_C 	C 	0.3972	0.60088	0.80839	0.079
Mof_C 	C 	0.3727	0.84474	0.82067	-0.139
Mof_C 	C 	0.8014	0.27576	0.98536	0.106
Mof_C 	C 	0.385	0.90735	0.80255	0.095
Mof_C 	C 	0.3765	0.71953	0.81452	0.056
Mof_C 	C 	0.7079	0.3339	0.04872	0.107
Mof_C 	C 	0.3315	0.70943	0.85734	-0.123
Mof_C 	C 	0.4478	0.2277	0.70251	-0.127
Mof_C 	C 	0.3905	0.78826	0.79605	0.076
Mof_C 	C 	0.3528	0.35702	0.66222	-0.149
Mof_C 	C 	0.8284	0.21229	0.96125	0.035
Mof_C 	C 	0.3807	0.23255	0.66137	0.056
Mof_C 	C 	0.8236	0.39263	0.99326	0.114
Mof_C 	C 	0.4615	0.16566	0.72135	0.083
Mof_C 	C 	0.4071	0.66349	0.78986	-0.12
Mof_C 	C 	0.3466	0.1142	0.66291	0.078
Mof_C 	C 	0.3232	0.64579	0.87321	0.081
Mof_C 	C 	0.3322	0.17412	0.64095	-0.121
Mof_C 	C 	0.8237	0.09272	0.95661	0.06
Mof_C 	C 	0.3574	0.29802	0.63982	0.082
Mof_C 	C 	0.8678	0.21246	0.91777	-0.115
Mof_C 	C 	0.732	0.27535	0.02675	-0.171
Mof_C 	C 	0.4219	0.79895	0.75323	-0.142
Mof_C 	C 	0.8849	0.1525	0.89601	0.088
Mof_C 	C 	0.3398	0.30284	0.59614	-0.149
Mof_C 	C 	0.3293	0.41535	0.64042	0.108
Mof_C 	C 	0.4382	0.86335	0.73808	0.101
Mof_C 	C 	0.3152	0.36478	0.57754	0.11
Mof_C 	C 	0.6915	0.65053	0.48058	-0.122
Mof_C 	C 	0.6522	0.83616	0.46957	-0.138
Mof_C 	C 	0.1028	0.10088	0.30839	0.077
Mof_C 	C 	0.1273	0.34474	0.32067	-0.139
Mof_C 	C 	0.6986	0.77576	0.48536	0.071
Mof_C 	C 	0.115	0.40735	0.30255	0.094
Mof_C 	C 	0.1235	0.21953	0.31452	0.055
Mof_C 	C 	0.7921	0.8339	0.54872	0.091
Mof_C 	C 	0.1685	0.20943	0.35734	-0.123
Mof_C 	C 	0.0522	0.7277	0.20251	-0.119
Mof_C 	C 	0.1095	0.28826	0.29605	0.074
Mof_C 	C 	0.1472	0.85702	0.16222	-0.152
Mof_C 	C 	0.6716	0.71229	0.46125	0.059
Mof_C 	C 	0.1193	0.73255	0.16137	0.05
Mof_C 	C 	0.6764	0.89263	0.49326	0.088
Mof_C 	C 	0.0385	0.66566	0.22135	0.068
Mof_C 	C 	0.0929	0.16349	0.28986	-0.121
Mof_C 	C 	0.1534	0.6142	0.16291	0.075
Mof_C 	C 	0.1768	0.14579	0.37321	0.079
Mof_C 	C 	0.1678	0.67412	0.14095	-0.118
Mof_C 	C 	0.6763	0.59272	0.45661	0.078
Mof_C 	C 	0.1426	0.79802	0.13982	0.083
Mof_C 	C 	0.6322	0.71246	0.41777	-0.131
Mof_C 	C 	0.768	0.77535	0.52675	-0.138
Mof_C 	C 	0.0781	0.29895	0.25323	-0.143
Mof_C 	C 	0.6151	0.6525	0.39601	0.097
Mof_C 	C 	0.1602	0.80284	0.09614	-0.152
Mof_C 	C 	0.1707	0.91535	0.14042	0.107
Mof_C 	C 	0.0618	0.36335	0.23808	0.099
Mof_C 	C 	0.1848	0.86478	0.07754	0.11
Mof_C 	C 	0.3085	0.34947	0.98058	-0.083
Mof_C 	C 	0.3478	0.16384	0.96957	-0.164
Mof_C 	C 	0.8972	0.89912	0.80839	0.077
Mof_C 	C 	0.8727	0.65526	0.82067	-0.139
Mof_C 	C 	0.3014	0.22424	0.98536	0.106
Mof_C 	C 	0.885	0.59265	0.80255	0.094
Mof_C 	C 	0.8765	0.78047	0.81452	0.055
Mof_C 	C 	0.2079	0.1661	0.04872	0.106
Mof_C 	C 	0.8315	0.79057	0.85734	-0.123
Mof_C 	C 	0.9478	0.2723	0.70251	-0.119
Mof_C 	C 	0.8905	0.71174	0.79605	0.074
Mof_C 	C 	0.8528	0.14298	0.66222	-0.152
Mof_C 	C 	0.3284	0.28771	0.96125	0.033
Mof_C 	C 	0.8807	0.26745	0.66137	0.05
Mof_C 	C 	0.3236	0.10737	0.99326	0.114
Mof_C 	C 	0.9615	0.33434	0.72135	0.068
Mof_C 	C 	0.9071	0.83651	0.78986	-0.121
Mof_C 	C 	0.8466	0.3858	0.66291	0.075
Mof_C 	C 	0.8232	0.85421	0.87321	0.079
Mof_C 	C 	0.8322	0.32588	0.64095	-0.118
Mof_C 	C 	0.3237	0.40728	0.95661	0.059
Mof_C 	C 	0.8574	0.20198	0.63982	0.083
Mof_C 	C 	0.3678	0.28754	0.91777	-0.114
Mof_C 	C 	0.232	0.22465	0.02675	-0.172
Mof_C 	C 	0.9219	0.70105	0.75323	-0.143
Mof_C 	C 	0.3849	0.3475	0.89601	0.088
Mof_C 	C 	0.8398	0.19716	0.59614	-0.151
Mof_C 	C 	0.8293	0.08465	0.64042	0.107
Mof_C 	C 	0.9382	0.63665	0.73808	0.099
Mof_C 	C 	0.8152	0.13522	0.57754	0.11
Mof_S 	S 	0.47978	0.91691	0.33082	0.68
Mof_S 	S 	0.43213	0.59411	0.65716	0.655
Mof_S 	S 	0.52022	0.08309	0.83082	0.68
Mof_S 	S 	0.56787	0.40589	0.15716	0.655
Mof_S 	S 	0.97978	0.58309	0.33082	0.69
Mof_S 	S 	0.93213	0.90589	0.65716	0.646
Mof_S 	S 	0.02022	0.41691	0.83082	0.69
Mof_S 	S 	0.06787	0.09411	0.15716	0.646
Mof_N 	N 	0.1433	0.90663	0.41394	-0.214
Mof_N 	N 	0.6431	0.409	0.34964	-0.213
Mof_N 	N 	0.5828	0.0825	0.26147	-0.215
Mof_N 	N 	0.5893	0.89117	0.20277	-0.214
Mof_N 	N 	0.246	0.60658	0.533	-0.214
Mof_N 	N 	0.692	0.5788	0.09879	-0.218
Mof_N 	N 	0.8567	0.09337	0.91394	-0.21
Mof_N 	N 	0.3569	0.591	0.84964	-0.213
Mof_N 	N 	0.4172	0.9175	0.76147	-0.216
Mof_N 	N 	0.4107	0.10883	0.70277	-0.214
Mof_N 	N 	0.754	0.39342	0.033	-0.225
Mof_N 	N 	0.308	0.4212	0.59879	-0.217
Mof_N 	N 	0.6433	0.59337	0.41394	-0.214
Mof_N 	N 	0.1431	0.091	0.34964	-0.213
Mof_N 	N 	0.0828	0.4175	0.26147	-0.216
Mof_N 	N 	0.0893	0.60883	0.20277	-0.212
Mof_N 	N 	0.746	0.89342	0.533	-0.214
Mof_N 	N 	0.192	0.9212	0.09879	-0.219
Mof_N 	N 	0.3567	0.40663	0.91394	-0.209
Mof_N 	N 	0.8569	0.909	0.84964	-0.213
Mof_N 	N 	0.9172	0.5825	0.76147	-0.216
Mof_N 	N 	0.9107	0.39117	0.70277	-0.212
Mof_N 	N 	0.254	0.10658	0.033	-0.225
Mof_N 	N 	0.808	0.0788	0.59879	-0.218
Mof_O 	O 	0.5912	0.93659	0.29374	-0.387
Mof_O 	O 	0.2907	0.56792	0.62842	-0.375
Mof_O 	O 	0.3066	0.95529	0.32945	-0.392
Mof_O 	O 	0.3019	0.97988	0.23932	-0.242
Mof_O 	O 	0.5522	0.52463	0.56095	-0.232
Mof_O 	O 	0.8558	0.98335	0.23518	-0.231
Mof_O 	O 	0.0077	0.51541	0.57941	-0.221
Mof_O 	O 	0.5669	0.03073	0.17404	-0.23
Mof_O 	O 	0.9235	0.96741	0.34391	-0.236
Mof_O 	O 	0.2496	0.46569	0.51041	-0.222
Mof_O 	O 	0.3771	0.02521	0.41073	-0.234
Mof_O 	O 	0.9709	0.03461	0.42494	-0.226
Mof_O 	O 	0.4093	0.56674	0.70019	-0.243
Mof_O 	O 	0.4435	0.84573	0.32889	-0.274
Mof_O 	O 	0.579	0.93305	0.37032	-0.258
Mof_O 	O 	0.6106	0.5741	0.64109	-0.241
Mof_O 	O 	0.4173	0.66609	0.65945	-0.258
Mof_O 	O 	0.4088	0.06341	0.79374	-0.387
Mof_O 	O 	0.7093	0.43208	0.12842	-0.375
Mof_O 	O 	0.6934	0.04471	0.82945	-0.392
Mof_O 	O 	0.6981	0.02012	0.73932	-0.242
Mof_O 	O 	0.4478	0.47537	0.06095	-0.235
Mof_O 	O 	0.1442	0.01665	0.73518	-0.231
Mof_O 	O 	0.9923	0.48459	0.07941	-0.223
Mof_O 	O 	0.4331	0.96927	0.67404	-0.23
Mof_O 	O 	0.0765	0.03259	0.84391	-0.236
Mof_O 	O 	0.7504	0.53431	0.01041	-0.228
Mof_O 	O 	0.6229	0.97479	0.91073	-0.233
Mof_O 	O 	0.0291	0.96539	0.92494	-0.224
Mof_O 	O 	0.5907	0.43326	0.20019	-0.243
Mof_O 	O 	0.5565	0.15427	0.82889	-0.274
Mof_O 	O 	0.421	0.06695	0.87032	-0.258
Mof_O 	O 	0.3894	0.4259	0.14109	-0.241
Mof_O 	O 	0.5827	0.33391	0.15945	-0.258
Mof_O 	O 	0.0912	0.56341	0.29374	-0.392
Mof_O 	O 	0.7907	0.93208	0.62842	-0.375
Mof_O 	O 	0.8066	0.54471	0.32945	-0.392
Mof_O 	O 	0.8019	0.52012	0.23932	-0.238
Mof_O 	O 	0.0522	0.97537	0.56095	-0.229
Mof_O 	O 	0.3558	0.51665	0.23518	-0.234
Mof_O 	O 	0.5077	0.98459	0.57941	-0.224
Mof_O 	O 	0.0669	0.46927	0.17404	-0.233
Mof_O 	O 	0.4235	0.53259	0.34391	-0.238
Mof_O 	O 	0.7496	0.03431	0.51041	-0.222
Mof_O 	O 	0.8771	0.47479	0.41073	-0.233
Mof_O 	O 	0.4709	0.46539	0.42494	-0.228
Mof_O 	O 	0.9093	0.93326	0.70019	-0.245
Mof_O 	O 	0.9435	0.65427	0.32889	-0.274
Mof_O 	O 	0.079	0.56695	0.37032	-0.262
Mof_O 	O 	0.1106	0.9259	0.64109	-0.234
Mof_O 	O 	0.9173	0.83391	0.65945	-0.259
Mof_O 	O 	0.9088	0.43659	0.79374	-0.393
Mof_O 	O 	0.2093	0.06792	0.12842	-0.375
Mof_O 	O 	0.1934	0.45529	0.82945	-0.392
Mof_O 	O 	0.1981	0.47988	0.73932	-0.238
Mof_O 	O 	0.9478	0.02463	0.06095	-0.231
Mof_O 	O 	0.6442	0.48335	0.73518	-0.234
Mof_O 	O 	0.4923	0.01541	0.07941	-0.225
Mof_O 	O 	0.9331	0.53073	0.67404	-0.233
Mof_O 	O 	0.5765	0.46741	0.84391	-0.238
Mof_O 	O 	0.2504	0.96569	0.01041	-0.229
Mof_O 	O 	0.1229	0.52521	0.91073	-0.232
Mof_O 	O 	0.5291	0.53461	0.92494	-0.227
Mof_O 	O 	0.0907	0.06674	0.20019	-0.244
Mof_O 	O 	0.0565	0.34573	0.82889	-0.275
Mof_O 	O 	0.921	0.43305	0.87032	-0.262
Mof_O 	O 	0.8894	0.0741	0.14109	-0.234
Mof_O 	O 	0.0827	0.16609	0.15945	-0.259
Mof_S 	S 	0.78558	0.38942	0.51193	0.607
Mof_O 	O 	0.8039	0.41606	0.55521	-0.234
Mof_O 	O 	0.6178	0.41906	0.49396	-0.217
Mof_O 	O 	0.9402	0.41018	0.48451	-0.208
Mof_O 	O 	0.7687	0.31797	0.51341	-0.246
Mof_S 	S 	0.21442	0.61058	0.01193	0.58
Mof_O 	O 	0.1961	0.58394	0.05521	-0.23
Mof_O 	O 	0.3822	0.58094	0.99396	-0.203
Mof_O 	O 	0.0598	0.58982	0.98451	-0.194
Mof_O 	O 	0.2313	0.68203	0.01341	-0.245
Mof_S 	S 	0.28558	0.11058	0.51193	0.607
Mof_O 	O 	0.3039	0.08394	0.55521	-0.232
Mof_O 	O 	0.1178	0.08094	0.49396	-0.216
Mof_O 	O 	0.4402	0.08982	0.48451	-0.207
Mof_O 	O 	0.2687	0.18203	0.51341	-0.246
Mof_S 	S 	0.71442	0.88942	0.01193	0.579
Mof_O 	O 	0.6961	0.91606	0.05521	-0.228
Mof_O 	O 	0.8822	0.91906	0.99396	-0.203
Mof_O 	O 	0.5598	0.91018	0.98451	-0.194
Mof_O 	O 	0.7313	0.81797	0.01341	-0.244
_end
