# CIF file generated by openbabel 3.1.0, see https://openbabel.org
data_I
_chemical_name_common 'EREFEN01_clean'
_cell_length_a 13.1741
_cell_length_b 13.219
_cell_length_c 14.0288
_cell_angle_alpha 82.989
_cell_angle_beta 82.369
_cell_angle_gamma 84.054
_space_group_name_H-M_alt 'P 1'
_space_group_name_Hall 'P 1'
loop_
    _symmetry_equiv_pos_as_xyz
    x,y,z
loop_
    _atom_site_label
    _atom_site_type_symbol
    _atom_site_fract_x
    _atom_site_fract_y
    _atom_site_fract_z
    _atom_site_occupancy
    Zn1      Zn       0.36397    0.17197    0.79901    1.000
    Zn2      Zn       0.37384    0.17761    0.58883    1.000
    H3       H        0.33990    0.49590    0.80530    1.000
    H4       H        0.33800    0.65920    0.86710    1.000
    H5       H        0.34440    0.84360    0.85600    1.000
    H6       H        0.39890    0.51180    0.51980    1.000
    H7       H        0.40720    0.68570    0.51340    1.000
    H8       H        0.38630    0.84660    0.58340    1.000
    H9       H        0.04990    0.18010    0.58900    1.000
    H10      H        0.89080    0.16460    0.52240    1.000
    H11      H        0.71100    0.16140    0.53440    1.000
    H12      H        0.85100    0.17800    0.87640    1.000
    H13      H        0.02640    0.17370    0.87010    1.000
    H14      H        0.69190    0.16980    0.80690    1.000
    H15      H        0.23870    0.27230    0.95670    1.000
    H16      H        0.49170    0.09390    0.12150    1.000
    H17      H        0.49390    0.09120    0.95680    1.000
    H18      H        0.34170    0.34260    0.25410    1.000
    H19      H        0.35080    0.33130    0.41850    1.000
    H20      H        0.38560    0.03160    0.44030    1.000
    H21      H        0.38420    0.03380    0.27500    1.000
    C22      C        0.36670    0.37200    0.67030    1.000
    C23      C        0.36760    0.48500    0.66250    1.000
    C24      C        0.35230    0.53470    0.74400    1.000
    C25      C        0.34760    0.69380    0.80360    1.000
    C26      C        0.35230    0.81210    0.79780    1.000
    C27      C        0.38730    0.54290    0.57830    1.000
    C28      C        0.39110    0.64840    0.57500    1.000
    C29      C        0.36550    0.86400    0.72180    1.000
    C30      C        0.37630    0.80990    0.64600    1.000
    C31      C        0.35430    0.64080    0.73980    1.000
    C32      C        0.37390    0.70050    0.65130    1.000
    C33      C        0.36950    0.97730    0.71050    1.000
    C34      C        0.17200    0.18190    0.72090    1.000
    C35      C        0.05760    0.18030    0.72920    1.000
    C36      C        0.00960    0.17870    0.65050    1.000
    C37      C        0.85270    0.16820    0.58450    1.000
    C38      C        0.74020    0.16530    0.59210    1.000
    C39      C        0.89080    0.17650    0.81480    1.000
    C40      C        0.99710    0.17650    0.81140    1.000
    C41      C        0.68060    0.16750    0.66960    1.000
    C42      C        0.73080    0.17040    0.74480    1.000
    C43      C        0.90230    0.17520    0.65470    1.000
    C44      C        0.84070    0.17450    0.73920    1.000
    C45      C        0.56720    0.16510    0.67970    1.000
    C46      C        0.29070    0.23540    0.99120    1.000
    C47      C        0.28610    0.24380    0.08880    1.000
    C48      C        0.36040    0.18820    0.14060    1.000
    C49      C        0.43830    0.13140    0.08920    1.000
    C50      C        0.43880    0.12920    0.99120    1.000
    C51      C        0.35950    0.18720    0.24640    1.000
    C52      C        0.35090    0.27770    0.29070    1.000
    C53      C        0.35610    0.26980    0.38880    1.000
    C54      C        0.37720    0.09550    0.40180    1.000
    C55      C        0.37500    0.09640    0.30330    1.000
    C56      C        0.05860    0.41220    0.13830    1.000
    C57      C        0.90740    0.55230    0.19170    1.000
    C58      C        0.07580    0.46510    0.20400    1.000
    C59      C        0.99410    0.53770    0.22950    1.000
    C60      C        0.88450    0.49080    0.12310    1.000
    C61      C        0.96380    0.41440    0.09300    1.000
    N62      N        0.36420    0.17860    0.94300    1.000
    N63      N        0.20540    0.30660    0.13800    1.000
    N64      N        0.14430    0.34870    0.09270    1.000
    N65      N        0.36810    0.18120    0.44450    1.000
    O66      O        0.35700    0.32380    0.75340    1.000
    O67      O        0.37450    0.33060    0.59340    1.000
    O68      O        0.22100    0.18800    0.63900    1.000
    O69      O        0.21000    0.17690    0.79920    1.000
    O70      O        0.52720    0.16460    0.60270    1.000
    O71      O        0.51820    0.16220    0.76270    1.000
    O72      O        0.36820    0.01820    0.78750    1.000
    O73      O        0.37450    0.02410    0.62790    1.000
    H74      H        0.15261    0.38364    0.78608    1.000
    H75      H        0.99234    0.41406    0.71211    1.000
    H76      H        0.19356    0.49661    0.90519    1.000
    H77      H        0.04192    0.64183    0.96113    1.000
    H78      H        0.15189    0.45086    0.23588    1.000
    Zn79     Zn       0.63603    0.82803    0.20099    1.000
    Zn80     Zn       0.62616    0.82239    0.41117    1.000
    H81      H        0.66010    0.50410    0.19470    1.000
    H82      H        0.66200    0.34080    0.13290    1.000
    H83      H        0.65560    0.15640    0.14400    1.000
    H84      H        0.60110    0.48820    0.48020    1.000
    H85      H        0.59280    0.31430    0.48660    1.000
    H86      H        0.61370    0.15340    0.41660    1.000
    H87      H        0.95010    0.81990    0.41100    1.000
    H88      H        0.10920    0.83540    0.47760    1.000
    H89      H        0.28900    0.83860    0.46560    1.000
    H90      H        0.14900    0.82200    0.12360    1.000
    H91      H        0.97360    0.82630    0.12990    1.000
    H92      H        0.30810    0.83020    0.19310    1.000
    H93      H        0.76130    0.72770    0.04330    1.000
    H94      H        0.50830    0.90610    0.87850    1.000
    H95      H        0.50610    0.90880    0.04320    1.000
    H96      H        0.65830    0.65740    0.74590    1.000
    H97      H        0.64920    0.66870    0.58150    1.000
    H98      H        0.61440    0.96840    0.55970    1.000
    H99      H        0.61580    0.96620    0.72500    1.000
    C100     C        0.63330    0.62800    0.32970    1.000
    C101     C        0.63240    0.51500    0.33750    1.000
    C102     C        0.64770    0.46530    0.25600    1.000
    C103     C        0.65240    0.30620    0.19640    1.000
    C104     C        0.64770    0.18790    0.20220    1.000
    C105     C        0.61270    0.45710    0.42170    1.000
    C106     C        0.60890    0.35160    0.42500    1.000
    C107     C        0.63450    0.13600    0.27820    1.000
    C108     C        0.62370    0.19010    0.35400    1.000
    C109     C        0.64570    0.35920    0.26020    1.000
    C110     C        0.62610    0.29950    0.34870    1.000
    C111     C        0.63050    0.02270    0.28950    1.000
    C112     C        0.82800    0.81810    0.27910    1.000
    C113     C        0.94240    0.81970    0.27080    1.000
    C114     C        0.99040    0.82130    0.34950    1.000
    C115     C        0.14730    0.83180    0.41550    1.000
    C116     C        0.25980    0.83470    0.40790    1.000
    C117     C        0.10920    0.82350    0.18520    1.000
    C118     C        0.00290    0.82350    0.18860    1.000
    C119     C        0.31940    0.83250    0.33040    1.000
    C120     C        0.26920    0.82960    0.25520    1.000
    C121     C        0.09770    0.82480    0.34530    1.000
    C122     C        0.15930    0.82550    0.26080    1.000
    C123     C        0.43280    0.83490    0.32030    1.000
    C124     C        0.70930    0.76460    0.00880    1.000
    C125     C        0.71390    0.75620    0.91120    1.000
    C126     C        0.63960    0.81180    0.85940    1.000
    C127     C        0.56170    0.86860    0.91080    1.000
    C128     C        0.56120    0.87080    0.00880    1.000
    C129     C        0.64050    0.81280    0.75360    1.000
    C130     C        0.64910    0.72230    0.70930    1.000
    C131     C        0.64390    0.73020    0.61120    1.000
    C132     C        0.62280    0.90450    0.59820    1.000
    C133     C        0.62500    0.90360    0.69670    1.000
    C134     C        0.94140    0.58780    0.86170    1.000
    C135     C        0.09260    0.44770    0.80830    1.000
    C136     C        0.92420    0.53490    0.79600    1.000
    C137     C        0.00590    0.46230    0.77050    1.000
    C138     C        0.11550    0.50920    0.87690    1.000
    C139     C        0.03620    0.58560    0.90700    1.000
    N140     N        0.63580    0.82140    0.05700    1.000
    N141     N        0.79460    0.69340    0.86200    1.000
    N142     N        0.85570    0.65130    0.90730    1.000
    N143     N        0.63190    0.81880    0.55550    1.000
    O144     O        0.64300    0.67620    0.24660    1.000
    O145     O        0.62550    0.66940    0.40660    1.000
    O146     O        0.77900    0.81200    0.36100    1.000
    O147     O        0.79000    0.82310    0.20080    1.000
    O148     O        0.47280    0.83540    0.39730    1.000
    O149     O        0.48180    0.83780    0.23730    1.000
    O150     O        0.63180    0.98180    0.21250    1.000
    O151     O        0.62550    0.97590    0.37210    1.000
    H152     H        0.84739    0.61636    0.21392    1.000
    H153     H        0.00766    0.58594    0.28789    1.000
    H154     H        0.80644    0.50339    0.09481    1.000
    H155     H        0.95808    0.35817    0.03887    1.000
    H156     H        0.84811    0.54914    0.76412    1.000
