# CIF file generated by openbabel 3.1.0, see https://openbabel.org
data_I
_chemical_name_common 'image0'
_cell_length_a 11.52
_cell_length_b 7.632
_cell_length_c 7.039
_cell_angle_alpha 88.93
_cell_angle_beta 109.71
_cell_angle_gamma 82.81
_space_group_name_H-M_alt 'P 1'
_space_group_name_Hall 'P 1'
loop_
    _symmetry_equiv_pos_as_xyz
    x,y,z
loop_
    _atom_site_label
    _atom_site_type_symbol
    _atom_site_fract_x
    _atom_site_fract_y
    _atom_site_fract_z
    _atom_site_occupancy
    N1       N        0.04660    0.21740    0.23570    1.000
    N2       N        0.92770    0.23270    0.74150    1.000
    N3       N        0.80400    0.01440    0.01510    1.000
    C1       C        0.03090    0.32340    0.33790    1.000
    C2       C        0.95140    0.33580    0.64580    1.000
    C3       C        0.78690    0.02500    0.21380    1.000
    C4       C        0.65460    0.01850    0.20110    1.000
    C5       C        0.64200    0.01710    0.41190    1.000
    C6       C        0.50840    0.00290    0.39740    1.000
    H1       H        0.74813    0.13030    0.92192    1.000
    H2       H        0.76587    0.89807    0.94898    1.000
    H3       H        0.81530    0.14743    0.27624    1.000
    H4       H        0.84633    0.91549    0.31288    1.000
    H5       H        0.59517    0.13300    0.10968    1.000
    H6       H        0.62326    0.90048    0.12885    1.000
    H7       H        0.66904    0.13788    0.48136    1.000
    H8       H        0.70734    0.90586    0.50500    1.000
    H9       H        0.44748    0.11565    0.30590    1.000
    H10      H        0.48130    0.88358    0.32424    1.000
    N4       N        0.95340    0.78260    0.76430    1.000
    N5       N        0.07230    0.76730    0.25850    1.000
    N6       N        0.19600    0.98560    0.98490    1.000
    C7       C        0.96910    0.67660    0.66210    1.000
    C8       C        0.04860    0.66420    0.35420    1.000
    C9       C        0.21310    0.97500    0.78620    1.000
    C10      C        0.34540    0.98150    0.79890    1.000
    C11      C        0.35800    0.98290    0.58810    1.000
    C12      C        0.49160    0.99710    0.60260    1.000
    H11      H        0.25187    0.86970    0.07808    1.000
    H12      H        0.23413    0.10193    0.05102    1.000
    H13      H        0.18470    0.85257    0.72376    1.000
    H14      H        0.15367    0.08451    0.68712    1.000
    H15      H        0.40483    0.86700    0.89032    1.000
    H16      H        0.37674    0.09952    0.87115    1.000
    H17      H        0.33096    0.86212    0.51864    1.000
    H18      H        0.29266    0.09414    0.49500    1.000
    H19      H        0.55252    0.88435    0.69410    1.000
    H20      H        0.51870    0.11642    0.67576    1.000
    Cd1      Cd       0.00000    0.00000    0.00000    1.000
    Ni1      Ni       0.00000    0.50000    0.50000    1.000
