data_functionalizedCrystal
_audit_creation_method	'EQeq! by Chris Wilmer'
_symmetry_space_group_name_H-M	'P1'
_symmetry_Int_Tables_number	1
_symmetry_cell_setting	triclinic
loop_
_symmetry_equiv_pos_as_xyz
  x,y,z
_cell_length_a	9.4644
_cell_length_b	12.7206
_cell_length_c	18.5539
_cell_angle_alpha	106.206
_cell_angle_beta	97.893
_cell_angle_gamma	100.266
loop_
_atom_site_label
_atom_site_type_symbol
_atom_site_fract_x
_atom_site_fract_y
_atom_site_fract_z
_atom_site_charge
Mof_Ho	Ho	0.26384	0.48509	0.49728	1.966
Mof_O 	O 	0.284	0.3333	0.3943	-0.495
Mof_N 	N 	0.4581	0.1063	0.1741	-0.11
Mof_C 	C 	0.4017	0.9169	0.074	-0.167
Mof_O 	O 	0.5267	0.3913	0.4269	-0.554
Mof_N 	N 	0.5041	0.6494	0.1808	-0.115
Mof_C 	C 	0.4778	0.847	0.1022	0.218
Mof_O 	O 	0.3645	0.562	0.4077	-0.504
Mof_N 	N 	0.0608	0.6643	0.868	-0.113
Mof_C 	C 	0.4186	0.7306	0.0781	-0.171
Mof_O 	O 	0.611	0.6135	0.4387	-0.516
Mof_C 	C 	0.2819	0.685	0.0299	0.214
Mof_O 	O 	0.1796	0.5238	0.61317	-0.542
Mof_C 	C 	0.2059	0.7565	0.0038	-0.161
Mof_O 	O 	0.9468	0.5329	0.58529	-0.597
Mof_C 	C 	0.266	0.8721	0.0235	0.194
Mof_C 	C 	0.4721	0.0399	0.0967	0.004
Mof_H 	H 	0.5774	0.0484	0.0948	0.024
Mof_H 	H 	0.4275	0.0718	0.0586	0.024
Mof_C 	C 	0.5085	0.6545	0.1008	0.002
Mof_H 	H 	0.6115	0.6812	0.0974	0.015
Mof_H 	H 	0.4721	0.5778	0.0641	0.019
Mof_C 	C 	0.0556	0.7088	0.9527	-0.01
Mof_H 	H 	0.9992	0.7682	0.96	0.025
Mof_H 	H 	0.0031	0.647	0.9685	0.02
Mof_C 	C 	0.6207	0.8963	0.1578	-0.567
Mof_H 	H 	0.6622	0.8357	0.1685	0.19
Mof_H 	H 	0.6047	0.9457	0.2055	0.192
Mof_H 	H 	0.6888	0.9399	0.1357	0.177
Mof_C 	C 	0.2168	0.5607	0.0045	-0.57
Mof_H 	H 	0.2914	0.5198	0.9884	0.186
Mof_H 	H 	0.1342	0.5417	0.9615	0.188
Mof_H 	H 	0.1824	0.5395	0.047	0.185
Mof_C 	C 	0.1821	0.9454	0.9915	-0.514
Mof_H 	H 	0.1339	0.9046	0.9382	0.17
Mof_H 	H 	0.25	0.0145	0.9937	0.163
Mof_H 	H 	0.108	0.9644	0.0219	0.16
Mof_C 	C 	0.5776	0.1669	0.2274	-0.011
Mof_H 	H 	0.6722	0.1625	0.217	0.027
Mof_C 	C 	0.5641	0.2354	0.2972	0.006
Mof_H 	H 	0.649	0.276	0.3353	0.014
Mof_C 	C 	0.4274	0.2446	0.3114	-0.126
Mof_C 	C 	0.3037	0.178	0.257	-0.011
Mof_H 	H 	0.2083	0.1802	0.2671	0.036
Mof_C 	C 	0.3216	0.1093	0.1888	0.002
Mof_H 	H 	0.238	0.0636	0.1516	0.024
Mof_C 	C 	0.4113	0.3285	0.3838	0.466
Mof_C 	C 	0.6258	0.6399	0.2226	0
Mof_H 	H 	0.7139	0.643	0.2033	0.02
Mof_C 	C 	0.6233	0.6256	0.2929	-0.012
Mof_H 	H 	0.7101	0.6205	0.323	0.036
Mof_C 	C 	0.494	0.6188	0.3202	-0.112
Mof_C 	C 	0.3696	0.6295	0.2757	-0.018
Mof_H 	H 	0.2799	0.6259	0.2935	0.036
Mof_C 	C 	0.3773	0.6453	0.2068	0.008
Mof_H 	H 	0.2928	0.6534	0.1766	0.025
Mof_C 	C 	0.4879	0.5964	0.3958	0.466
Mof_C 	C 	0.1846	0.6435	0.8454	-0.002
Mof_H 	H 	0.2715	0.6579	0.8825	0.034
Mof_C 	C 	0.1859	0.6017	0.769	-0.012
Mof_H 	H 	0.2729	0.5857	0.7529	0.042
Mof_C 	C 	0.059	0.5828	0.7153	-0.129
Mof_C 	C 	0.9328	0.6034	0.7405	-0.006
Mof_H 	H 	0.844	0.5883	0.7046	0.043
Mof_C 	C 	0.9365	0.6462	0.8182	-0.004
Mof_H 	H 	0.8509	0.6625	0.8359	0.028
Mof_C 	C 	0.061	0.542	0.6299	0.497
Mof_Ho	Ho	0.73616	0.51491	0.50272	1.967
Mof_O 	O 	0.716	0.6667	0.6057	-0.494
Mof_N 	N 	0.5419	0.8937	0.8259	-0.109
Mof_C 	C 	0.5983	0.0831	0.926	-0.166
Mof_O 	O 	0.4733	0.6087	0.5731	-0.553
Mof_N 	N 	0.4959	0.3506	0.8192	-0.114
Mof_C 	C 	0.5222	0.153	0.8978	0.218
Mof_O 	O 	0.6355	0.438	0.5923	-0.504
Mof_N 	N 	0.9392	0.3357	0.132	-0.113
Mof_C 	C 	0.5814	0.2694	0.9219	-0.171
Mof_O 	O 	0.389	0.3865	0.5613	-0.516
Mof_C 	C 	0.7181	0.315	0.9701	0.214
Mof_O 	O 	0.8204	0.4762	0.38683	-0.542
Mof_C 	C 	0.7941	0.2435	0.9962	-0.161
Mof_O 	O 	0.0532	0.4671	0.41471	-0.597
Mof_C 	C 	0.734	0.1279	0.9765	0.194
Mof_C 	C 	0.5279	0.9601	0.9033	0.004
Mof_H 	H 	0.4226	0.9516	0.9052	0.024
Mof_H 	H 	0.5725	0.9282	0.9414	0.024
Mof_C 	C 	0.4915	0.3455	0.8992	0.002
Mof_H 	H 	0.3885	0.3188	0.9026	0.015
Mof_H 	H 	0.5279	0.4222	0.9359	0.019
Mof_C 	C 	0.9444	0.2912	0.0473	-0.01
Mof_H 	H 	0.0008	0.2318	0.04	0.025
Mof_H 	H 	0.9969	0.353	0.0315	0.02
Mof_C 	C 	0.3793	0.1037	0.8422	-0.567
Mof_H 	H 	0.3378	0.1643	0.8315	0.19
Mof_H 	H 	0.3953	0.0543	0.7945	0.192
Mof_H 	H 	0.3112	0.0601	0.8643	0.177
Mof_C 	C 	0.7832	0.4393	0.9955	-0.57
Mof_H 	H 	0.7086	0.4802	0.0116	0.186
Mof_H 	H 	0.8658	0.4583	0.0385	0.188
Mof_H 	H 	0.8176	0.4605	0.953	0.185
Mof_C 	C 	0.8179	0.0546	0.0085	-0.514
Mof_H 	H 	0.8661	0.0954	0.0618	0.17
Mof_H 	H 	0.75	0.9855	0.0063	0.163
Mof_H 	H 	0.892	0.0356	0.9781	0.16
Mof_C 	C 	0.4224	0.8331	0.7726	-0.011
Mof_H 	H 	0.3278	0.8375	0.783	0.027
Mof_C 	C 	0.4359	0.7646	0.7028	0.006
Mof_H 	H 	0.351	0.724	0.6647	0.014
Mof_C 	C 	0.5726	0.7554	0.6886	-0.126
Mof_C 	C 	0.6963	0.822	0.743	-0.011
Mof_H 	H 	0.7917	0.8198	0.7329	0.036
Mof_C 	C 	0.6784	0.8907	0.8112	0.002
Mof_H 	H 	0.762	0.9364	0.8484	0.024
Mof_C 	C 	0.5887	0.6715	0.6162	0.466
Mof_C 	C 	0.3742	0.3601	0.7774	0
Mof_H 	H 	0.2861	0.357	0.7967	0.02
Mof_C 	C 	0.3767	0.3744	0.7071	-0.012
Mof_H 	H 	0.2899	0.3795	0.677	0.036
Mof_C 	C 	0.506	0.3812	0.6798	-0.112
Mof_C 	C 	0.6304	0.3705	0.7243	-0.018
Mof_H 	H 	0.7201	0.3741	0.7065	0.036
Mof_C 	C 	0.6227	0.3547	0.7932	0.008
Mof_H 	H 	0.7072	0.3466	0.8234	0.025
Mof_C 	C 	0.5121	0.4036	0.6042	0.466
Mof_C 	C 	0.8154	0.3565	0.1546	-0.002
Mof_H 	H 	0.7285	0.3421	0.1175	0.034
Mof_C 	C 	0.8141	0.3983	0.231	-0.012
Mof_H 	H 	0.7271	0.4143	0.2471	0.042
Mof_C 	C 	0.941	0.4172	0.2847	-0.129
Mof_C 	C 	0.0672	0.3966	0.2595	-0.006
Mof_H 	H 	0.156	0.4117	0.2954	0.043
Mof_C 	C 	0.0635	0.3538	0.1818	-0.004
Mof_H 	H 	0.1491	0.3375	0.1641	0.028
Mof_C 	C 	0.939	0.458	0.3701	0.497
_end
