data_functionalizedCrystal
_audit_creation_method	'EQeq! by Chris Wilmer'
_symmetry_space_group_name_H-M	'P1'
_symmetry_Int_Tables_number	1
_symmetry_cell_setting	triclinic
loop_
_symmetry_equiv_pos_as_xyz
  x,y,z
_cell_length_a	28.9341
_cell_length_b	28.9341
_cell_length_c	10.5123
_cell_angle_alpha	90
_cell_angle_beta	90
_cell_angle_gamma	90
loop_
_atom_site_label
_atom_site_type_symbol
_atom_site_fract_x
_atom_site_fract_y
_atom_site_fract_z
_atom_site_charge
Mof_Y 	Y 	0.39105	0.81662	0.03552	1.539
Mof_C 	C 	0.45812	0.71834	0.9906	0.401
Mof_C 	C 	0.50107	0.71897	0.9169	-0.017
Mof_C 	C 	0.52027	0.75293	0.8467	-0.004
Mof_H 	H 	0.5078	0.7829	0.8328	0.041
Mof_C 	C 	0.56244	0.7356	0.7973	-0.072
Mof_H 	H 	0.5839	0.7516	0.7449	0.074
Mof_C 	C 	0.56599	0.69185	0.8396	0.055
Mof_C 	C 	0.60234	0.65717	0.8147	0.265
Mof_C 	C 	0.32472	0.72327	0.984	0.396
Mof_C 	C 	0.28261	0.70281	0.9273	-0.003
Mof_C 	C 	0.27097	0.65788	0.9093	-0.032
Mof_H 	H 	0.2877	0.6316	0.9374	0.058
Mof_C 	C 	0.49061	0.87816	0.9995	0.073
Mof_H 	H 	0.4885	0.8775	0.0896	0.023
Mof_C 	C 	0.52909	0.8992	0.9438	-0.086
Mof_H 	H 	0.5528	0.9122	0.9951	0.07
Mof_C 	C 	0.53202	0.9008	0.8128	-0.026
Mof_H 	H 	0.5578	0.9151	0.7732	0.045
Mof_C 	C 	0.49743	0.88143	0.7391	-0.002
Mof_C 	C 	0.497	0.88319	0.602	-0.042
Mof_H 	H 	0.5225	0.8965	0.5584	0.057
Mof_C 	C 	0.46152	0.86648	0.5353	-0.061
Mof_H 	H 	0.4621	0.8682	0.445	0.072
Mof_C 	C 	0.42326	0.84638	0.5964	0.013
Mof_C 	C 	0.3837	0.83001	0.5315	-0.038
Mof_H 	H 	0.3828	0.831	0.4412	0.06
Mof_C 	C 	0.347	0.8129	0.5965	-0.074
Mof_H 	H 	0.3199	0.803	0.5531	0.069
Mof_C 	C 	0.34996	0.81023	0.7295	0.058
Mof_H 	H 	0.3244	0.7979	0.7749	0.033
Mof_C 	C 	0.42248	0.84281	0.7313	0.033
Mof_C 	C 	0.46014	0.86118	0.8032	0.035
Mof_N 	N 	0.45734	0.85927	0.9325	-0.196
Mof_N 	N 	0.38672	0.82399	0.7956	-0.186
Mof_O 	O 	0.44873	0.68365	0.0573	-0.406
Mof_O 	O 	0.43368	0.75465	0.9823	-0.457
Mof_O 	O 	0.52914	0.68075	0.9162	-0.162
Mof_O 	O 	0.60206	0.61794	0.8651	-0.323
Mof_O 	O 	0.63376	0.67031	0.7402	-0.365
Mof_O 	O 	0.33082	0.7661	0.9789	-0.404
Mof_O 	O 	0.35143	0.6938	0.0323	-0.437
Mof_Y 	Y 	0.89105	0.31662	0.53552	1.544
Mof_C 	C 	0.95812	0.21834	0.4906	0.4
Mof_C 	C 	0.00107	0.21897	0.4169	-0.017
Mof_C 	C 	0.02027	0.25293	0.3467	-0.004
Mof_H 	H 	0.0078	0.2829	0.3328	0.041
Mof_C 	C 	0.06244	0.2356	0.2973	-0.072
Mof_H 	H 	0.0839	0.2516	0.2449	0.074
Mof_C 	C 	0.06599	0.19185	0.3396	0.055
Mof_C 	C 	0.10234	0.15717	0.3147	0.265
Mof_C 	C 	0.82472	0.22327	0.484	0.396
Mof_C 	C 	0.78261	0.20281	0.4273	-0.003
Mof_C 	C 	0.77097	0.15788	0.4093	-0.032
Mof_H 	H 	0.7877	0.1316	0.4374	0.058
Mof_C 	C 	0.99061	0.37816	0.4995	0.064
Mof_H 	H 	0.9885	0.3775	0.5896	0.028
Mof_C 	C 	0.02909	0.3992	0.4438	-0.081
Mof_H 	H 	0.0528	0.4122	0.4951	0.067
Mof_C 	C 	0.03202	0.4008	0.3128	-0.031
Mof_H 	H 	0.0578	0.4151	0.2732	0.047
Mof_C 	C 	0.99743	0.38143	0.2391	0.003
Mof_C 	C 	0.997	0.38319	0.102	-0.05
Mof_H 	H 	0.0225	0.3965	0.0584	0.061
Mof_C 	C 	0.96152	0.36648	0.0353	-0.049
Mof_H 	H 	0.9621	0.3682	0.945	0.066
Mof_C 	C 	0.92326	0.34638	0.0964	0.006
Mof_C 	C 	0.8837	0.33001	0.0315	-0.028
Mof_H 	H 	0.8828	0.331	0.9412	0.055
Mof_C 	C 	0.847	0.3129	0.0965	-0.079
Mof_H 	H 	0.8199	0.303	0.0531	0.071
Mof_C 	C 	0.84996	0.31023	0.2295	0.06
Mof_H 	H 	0.8244	0.2979	0.2749	0.032
Mof_C 	C 	0.92248	0.34281	0.2313	0.036
Mof_C 	C 	0.96014	0.36118	0.3032	0.031
Mof_N 	N 	0.95734	0.35927	0.4325	-0.195
Mof_N 	N 	0.88672	0.32399	0.2956	-0.188
Mof_O 	O 	0.94873	0.18365	0.5573	-0.404
Mof_O 	O 	0.93368	0.25465	0.4823	-0.459
Mof_O 	O 	0.02914	0.18075	0.4162	-0.162
Mof_O 	O 	0.10206	0.11794	0.3651	-0.323
Mof_O 	O 	0.13376	0.17031	0.2402	-0.365
Mof_O 	O 	0.83082	0.2661	0.4789	-0.405
Mof_O 	O 	0.85143	0.1938	0.5323	-0.436
Mof_Y 	Y 	0.60895	0.18338	0.03552	1.539
Mof_C 	C 	0.54188	0.28166	0.9906	0.401
Mof_C 	C 	0.49893	0.28103	0.9169	-0.017
Mof_C 	C 	0.47973	0.24707	0.8467	-0.004
Mof_H 	H 	0.4922	0.2171	0.8328	0.041
Mof_C 	C 	0.43756	0.2644	0.7973	-0.072
Mof_H 	H 	0.4161	0.2484	0.7449	0.074
Mof_C 	C 	0.43401	0.30815	0.8396	0.055
Mof_C 	C 	0.39766	0.34283	0.8147	0.265
Mof_C 	C 	0.67528	0.27673	0.984	0.396
Mof_C 	C 	0.71739	0.29719	0.9273	-0.003
Mof_C 	C 	0.72903	0.34212	0.9093	-0.032
Mof_H 	H 	0.7123	0.3684	0.9374	0.058
Mof_C 	C 	0.50939	0.12184	0.9995	0.073
Mof_H 	H 	0.5115	0.1225	0.0896	0.023
Mof_C 	C 	0.47091	0.1008	0.9438	-0.086
Mof_H 	H 	0.4472	0.0878	0.9951	0.07
Mof_C 	C 	0.46798	0.0992	0.8128	-0.026
Mof_H 	H 	0.4422	0.0849	0.7732	0.045
Mof_C 	C 	0.50257	0.11857	0.7391	-0.002
Mof_C 	C 	0.503	0.11681	0.602	-0.042
Mof_H 	H 	0.4775	0.1035	0.5584	0.057
Mof_C 	C 	0.53848	0.13352	0.5353	-0.061
Mof_H 	H 	0.5379	0.1318	0.445	0.072
Mof_C 	C 	0.57674	0.15362	0.5964	0.013
Mof_C 	C 	0.6163	0.16999	0.5315	-0.038
Mof_H 	H 	0.6172	0.169	0.4412	0.06
Mof_C 	C 	0.653	0.1871	0.5965	-0.074
Mof_H 	H 	0.6801	0.197	0.5531	0.069
Mof_C 	C 	0.65004	0.18977	0.7295	0.058
Mof_H 	H 	0.6756	0.2021	0.7749	0.033
Mof_C 	C 	0.57752	0.15719	0.7313	0.033
Mof_C 	C 	0.53986	0.13882	0.8032	0.035
Mof_N 	N 	0.54266	0.14073	0.9325	-0.196
Mof_N 	N 	0.61328	0.17601	0.7956	-0.186
Mof_O 	O 	0.55127	0.31635	0.0573	-0.406
Mof_O 	O 	0.56632	0.24535	0.9823	-0.457
Mof_O 	O 	0.47086	0.31925	0.9162	-0.162
Mof_O 	O 	0.39794	0.38206	0.8651	-0.323
Mof_O 	O 	0.36624	0.32969	0.7402	-0.365
Mof_O 	O 	0.66918	0.2339	0.9789	-0.404
Mof_O 	O 	0.64857	0.3062	0.0323	-0.437
Mof_Y 	Y 	0.10895	0.68338	0.53552	1.544
Mof_C 	C 	0.04188	0.78166	0.4906	0.4
Mof_C 	C 	0.99893	0.78103	0.4169	-0.017
Mof_C 	C 	0.97973	0.74707	0.3467	-0.004
Mof_H 	H 	0.9922	0.7171	0.3328	0.041
Mof_C 	C 	0.93756	0.7644	0.2973	-0.072
Mof_H 	H 	0.9161	0.7484	0.2449	0.074
Mof_C 	C 	0.93401	0.80815	0.3396	0.055
Mof_C 	C 	0.89766	0.84283	0.3147	0.265
Mof_C 	C 	0.17528	0.77673	0.484	0.396
Mof_C 	C 	0.21739	0.79719	0.4273	-0.003
Mof_C 	C 	0.22903	0.84212	0.4093	-0.032
Mof_H 	H 	0.2123	0.8684	0.4374	0.058
Mof_C 	C 	0.00939	0.62184	0.4995	0.064
Mof_H 	H 	0.0115	0.6225	0.5896	0.028
Mof_C 	C 	0.97091	0.6008	0.4438	-0.081
Mof_H 	H 	0.9472	0.5878	0.4951	0.067
Mof_C 	C 	0.96798	0.5992	0.3128	-0.031
Mof_H 	H 	0.9422	0.5849	0.2732	0.047
Mof_C 	C 	0.00257	0.61857	0.2391	0.003
Mof_C 	C 	0.003	0.61681	0.102	-0.05
Mof_H 	H 	0.9775	0.6035	0.0584	0.061
Mof_C 	C 	0.03848	0.63352	0.0353	-0.049
Mof_H 	H 	0.0379	0.6318	0.945	0.066
Mof_C 	C 	0.07674	0.65362	0.0964	0.006
Mof_C 	C 	0.1163	0.66999	0.0315	-0.028
Mof_H 	H 	0.1172	0.669	0.9412	0.055
Mof_C 	C 	0.153	0.6871	0.0965	-0.079
Mof_H 	H 	0.1801	0.697	0.0531	0.071
Mof_C 	C 	0.15004	0.68977	0.2295	0.06
Mof_H 	H 	0.1756	0.7021	0.2749	0.032
Mof_C 	C 	0.07752	0.65719	0.2313	0.036
Mof_C 	C 	0.03986	0.63882	0.3032	0.031
Mof_N 	N 	0.04266	0.64073	0.4325	-0.195
Mof_N 	N 	0.11328	0.67601	0.2956	-0.188
Mof_O 	O 	0.05127	0.81635	0.5573	-0.404
Mof_O 	O 	0.06632	0.74535	0.4823	-0.459
Mof_O 	O 	0.97086	0.81925	0.4162	-0.162
Mof_O 	O 	0.89794	0.88206	0.3651	-0.323
Mof_O 	O 	0.86624	0.82969	0.2402	-0.365
Mof_O 	O 	0.16918	0.7339	0.4789	-0.405
Mof_O 	O 	0.14857	0.8062	0.5323	-0.436
Mof_Y 	Y 	0.81662	0.60895	0.96448	1.539
Mof_C 	C 	0.71834	0.54188	0.0094	0.401
Mof_C 	C 	0.71897	0.49893	0.0831	-0.017
Mof_C 	C 	0.75293	0.47973	0.1533	-0.004
Mof_H 	H 	0.7829	0.4922	0.1672	0.041
Mof_C 	C 	0.7356	0.43756	0.2027	-0.072
Mof_H 	H 	0.7516	0.4161	0.2551	0.074
Mof_C 	C 	0.69185	0.43401	0.1604	0.055
Mof_C 	C 	0.65717	0.39766	0.1853	0.265
Mof_C 	C 	0.72327	0.67528	0.016	0.396
Mof_C 	C 	0.70281	0.71739	0.0727	-0.003
Mof_C 	C 	0.65788	0.72903	0.0907	-0.032
Mof_H 	H 	0.6316	0.7123	0.0626	0.058
Mof_C 	C 	0.87816	0.50939	0.0005	0.073
Mof_H 	H 	0.8775	0.5115	0.9104	0.023
Mof_C 	C 	0.8992	0.47091	0.0562	-0.086
Mof_H 	H 	0.9122	0.4472	0.0049	0.07
Mof_C 	C 	0.9008	0.46798	0.1872	-0.026
Mof_H 	H 	0.9151	0.4422	0.2268	0.045
Mof_C 	C 	0.88143	0.50257	0.2609	-0.002
Mof_C 	C 	0.88319	0.503	0.398	-0.042
Mof_H 	H 	0.8965	0.4775	0.4416	0.057
Mof_C 	C 	0.86648	0.53848	0.4647	-0.061
Mof_H 	H 	0.8682	0.5379	0.555	0.072
Mof_C 	C 	0.84638	0.57674	0.4036	0.013
Mof_C 	C 	0.83001	0.6163	0.4685	-0.038
Mof_H 	H 	0.831	0.6172	0.5588	0.06
Mof_C 	C 	0.8129	0.653	0.4035	-0.074
Mof_H 	H 	0.803	0.6801	0.4469	0.069
Mof_C 	C 	0.81023	0.65004	0.2705	0.058
Mof_H 	H 	0.7979	0.6756	0.2251	0.033
Mof_C 	C 	0.84281	0.57752	0.2687	0.033
Mof_C 	C 	0.86118	0.53986	0.1968	0.035
Mof_N 	N 	0.85927	0.54266	0.0675	-0.196
Mof_N 	N 	0.82399	0.61328	0.2044	-0.186
Mof_O 	O 	0.68365	0.55127	0.9427	-0.406
Mof_O 	O 	0.75465	0.56632	0.0177	-0.457
Mof_O 	O 	0.68075	0.47086	0.0838	-0.162
Mof_O 	O 	0.61794	0.39794	0.1349	-0.323
Mof_O 	O 	0.67031	0.36624	0.2598	-0.365
Mof_O 	O 	0.7661	0.66918	0.0211	-0.404
Mof_O 	O 	0.6938	0.64857	0.9677	-0.437
Mof_Y 	Y 	0.31662	0.10895	0.46448	1.544
Mof_C 	C 	0.21834	0.04188	0.5094	0.4
Mof_C 	C 	0.21897	0.99893	0.5831	-0.017
Mof_C 	C 	0.25293	0.97973	0.6533	-0.004
Mof_H 	H 	0.2829	0.9922	0.6672	0.041
Mof_C 	C 	0.2356	0.93756	0.7027	-0.072
Mof_H 	H 	0.2516	0.9161	0.7551	0.074
Mof_C 	C 	0.19185	0.93401	0.6604	0.055
Mof_C 	C 	0.15717	0.89766	0.6853	0.265
Mof_C 	C 	0.22327	0.17528	0.516	0.396
Mof_C 	C 	0.20281	0.21739	0.5727	-0.003
Mof_C 	C 	0.15788	0.22903	0.5907	-0.032
Mof_H 	H 	0.1316	0.2123	0.5626	0.058
Mof_C 	C 	0.37816	0.00939	0.5005	0.064
Mof_H 	H 	0.3775	0.0115	0.4104	0.028
Mof_C 	C 	0.3992	0.97091	0.5562	-0.081
Mof_H 	H 	0.4122	0.9472	0.5049	0.067
Mof_C 	C 	0.4008	0.96798	0.6872	-0.031
Mof_H 	H 	0.4151	0.9422	0.7268	0.047
Mof_C 	C 	0.38143	0.00257	0.7609	0.003
Mof_C 	C 	0.38319	0.003	0.898	-0.05
Mof_H 	H 	0.3965	0.9775	0.9416	0.061
Mof_C 	C 	0.36648	0.03848	0.9647	-0.049
Mof_H 	H 	0.3682	0.0379	0.055	0.066
Mof_C 	C 	0.34638	0.07674	0.9036	0.006
Mof_C 	C 	0.33001	0.1163	0.9685	-0.028
Mof_H 	H 	0.331	0.1172	0.0588	0.055
Mof_C 	C 	0.3129	0.153	0.9035	-0.079
Mof_H 	H 	0.303	0.1801	0.9469	0.071
Mof_C 	C 	0.31023	0.15004	0.7705	0.06
Mof_H 	H 	0.2979	0.1756	0.7251	0.032
Mof_C 	C 	0.34281	0.07752	0.7687	0.036
Mof_C 	C 	0.36118	0.03986	0.6968	0.031
Mof_N 	N 	0.35927	0.04266	0.5675	-0.195
Mof_N 	N 	0.32399	0.11328	0.7044	-0.188
Mof_O 	O 	0.18365	0.05127	0.4427	-0.404
Mof_O 	O 	0.25465	0.06632	0.5177	-0.459
Mof_O 	O 	0.18075	0.97086	0.5838	-0.162
Mof_O 	O 	0.11794	0.89794	0.6349	-0.323
Mof_O 	O 	0.17031	0.86624	0.7598	-0.365
Mof_O 	O 	0.2661	0.16918	0.5211	-0.405
Mof_O 	O 	0.1938	0.14857	0.4677	-0.436
Mof_Y 	Y 	0.18338	0.39105	0.96448	1.539
Mof_C 	C 	0.28166	0.45812	0.0094	0.401
Mof_C 	C 	0.28103	0.50107	0.0831	-0.017
Mof_C 	C 	0.24707	0.52027	0.1533	-0.004
Mof_H 	H 	0.2171	0.5078	0.1672	0.041
Mof_C 	C 	0.2644	0.56244	0.2027	-0.072
Mof_H 	H 	0.2484	0.5839	0.2551	0.074
Mof_C 	C 	0.30815	0.56599	0.1604	0.055
Mof_C 	C 	0.34283	0.60234	0.1853	0.265
Mof_C 	C 	0.27673	0.32472	0.016	0.396
Mof_C 	C 	0.29719	0.28261	0.0727	-0.003
Mof_C 	C 	0.34212	0.27097	0.0907	-0.032
Mof_H 	H 	0.3684	0.2877	0.0626	0.058
Mof_C 	C 	0.12184	0.49061	0.0005	0.073
Mof_H 	H 	0.1225	0.4885	0.9104	0.023
Mof_C 	C 	0.1008	0.52909	0.0562	-0.086
Mof_H 	H 	0.0878	0.5528	0.0049	0.07
Mof_C 	C 	0.0992	0.53202	0.1872	-0.026
Mof_H 	H 	0.0849	0.5578	0.2268	0.045
Mof_C 	C 	0.11857	0.49743	0.2609	-0.002
Mof_C 	C 	0.11681	0.497	0.398	-0.042
Mof_H 	H 	0.1035	0.5225	0.4416	0.057
Mof_C 	C 	0.13352	0.46152	0.4647	-0.061
Mof_H 	H 	0.1318	0.4621	0.555	0.072
Mof_C 	C 	0.15362	0.42326	0.4036	0.013
Mof_C 	C 	0.16999	0.3837	0.4685	-0.038
Mof_H 	H 	0.169	0.3828	0.5588	0.06
Mof_C 	C 	0.1871	0.347	0.4035	-0.074
Mof_H 	H 	0.197	0.3199	0.4469	0.069
Mof_C 	C 	0.18977	0.34996	0.2705	0.058
Mof_H 	H 	0.2021	0.3244	0.2251	0.033
Mof_C 	C 	0.15719	0.42248	0.2687	0.033
Mof_C 	C 	0.13882	0.46014	0.1968	0.035
Mof_N 	N 	0.14073	0.45734	0.0675	-0.196
Mof_N 	N 	0.17601	0.38672	0.2044	-0.186
Mof_O 	O 	0.31635	0.44873	0.9427	-0.406
Mof_O 	O 	0.24535	0.43368	0.0177	-0.457
Mof_O 	O 	0.31925	0.52914	0.0838	-0.162
Mof_O 	O 	0.38206	0.60206	0.1349	-0.323
Mof_O 	O 	0.32969	0.63376	0.2598	-0.365
Mof_O 	O 	0.2339	0.33082	0.0211	-0.404
Mof_O 	O 	0.3062	0.35143	0.9677	-0.437
Mof_Y 	Y 	0.68338	0.89105	0.46448	1.544
Mof_C 	C 	0.78166	0.95812	0.5094	0.4
Mof_C 	C 	0.78103	0.00107	0.5831	-0.017
Mof_C 	C 	0.74707	0.02027	0.6533	-0.004
Mof_H 	H 	0.7171	0.0078	0.6672	0.041
Mof_C 	C 	0.7644	0.06244	0.7027	-0.072
Mof_H 	H 	0.7484	0.0839	0.7551	0.074
Mof_C 	C 	0.80815	0.06599	0.6604	0.055
Mof_C 	C 	0.84283	0.10234	0.6853	0.265
Mof_C 	C 	0.77673	0.82472	0.516	0.396
Mof_C 	C 	0.79719	0.78261	0.5727	-0.003
Mof_C 	C 	0.84212	0.77097	0.5907	-0.032
Mof_H 	H 	0.8684	0.7877	0.5626	0.058
Mof_C 	C 	0.62184	0.99061	0.5005	0.064
Mof_H 	H 	0.6225	0.9885	0.4104	0.028
Mof_C 	C 	0.6008	0.02909	0.5562	-0.081
Mof_H 	H 	0.5878	0.0528	0.5049	0.067
Mof_C 	C 	0.5992	0.03202	0.6872	-0.031
Mof_H 	H 	0.5849	0.0578	0.7268	0.047
Mof_C 	C 	0.61857	0.99743	0.7609	0.003
Mof_C 	C 	0.61681	0.997	0.898	-0.05
Mof_H 	H 	0.6035	0.0225	0.9416	0.061
Mof_C 	C 	0.63352	0.96152	0.9647	-0.049
Mof_H 	H 	0.6318	0.9621	0.055	0.066
Mof_C 	C 	0.65362	0.92326	0.9036	0.006
Mof_C 	C 	0.66999	0.8837	0.9685	-0.028
Mof_H 	H 	0.669	0.8828	0.0588	0.055
Mof_C 	C 	0.6871	0.847	0.9035	-0.079
Mof_H 	H 	0.697	0.8199	0.9469	0.071
Mof_C 	C 	0.68977	0.84996	0.7705	0.06
Mof_H 	H 	0.7021	0.8244	0.7251	0.032
Mof_C 	C 	0.65719	0.92248	0.7687	0.036
Mof_C 	C 	0.63882	0.96014	0.6968	0.031
Mof_N 	N 	0.64073	0.95734	0.5675	-0.195
Mof_N 	N 	0.67601	0.88672	0.7044	-0.188
Mof_O 	O 	0.81635	0.94873	0.4427	-0.404
Mof_O 	O 	0.74535	0.93368	0.5177	-0.459
Mof_O 	O 	0.81925	0.02914	0.5838	-0.162
Mof_O 	O 	0.88206	0.10206	0.6349	-0.323
Mof_O 	O 	0.82969	0.13376	0.7598	-0.365
Mof_O 	O 	0.7339	0.83082	0.5211	-0.405
Mof_O 	O 	0.8062	0.85143	0.4677	-0.436
Mof_Y 	Y 	0.10895	0.81662	0.71448	1.544
Mof_C 	C 	0.04188	0.71834	0.7594	0.4
Mof_C 	C 	0.99893	0.71897	0.8331	-0.018
Mof_C 	C 	0.97973	0.75293	0.9033	-0.002
Mof_H 	H 	0.9922	0.7829	0.9172	0.04
Mof_C 	C 	0.93756	0.7356	0.9527	-0.077
Mof_H 	H 	0.9161	0.7516	0.0051	0.077
Mof_C 	C 	0.93401	0.69185	0.9104	0.057
Mof_C 	C 	0.89766	0.65717	0.9353	0.261
Mof_C 	C 	0.17528	0.72327	0.766	0.396
Mof_C 	C 	0.21739	0.70281	0.8227	-0.003
Mof_C 	C 	0.22903	0.65788	0.8407	-0.032
Mof_H 	H 	0.2123	0.6316	0.8126	0.058
Mof_C 	C 	0.00939	0.87816	0.7505	0.064
Mof_H 	H 	0.0115	0.8775	0.6604	0.028
Mof_C 	C 	0.97091	0.8992	0.8062	-0.081
Mof_H 	H 	0.9472	0.9122	0.7549	0.067
Mof_C 	C 	0.96798	0.9008	0.9372	-0.031
Mof_H 	H 	0.9422	0.9151	0.9768	0.046
Mof_C 	C 	0.00257	0.88143	0.0109	0.002
Mof_C 	C 	0.003	0.88319	0.148	-0.045
Mof_H 	H 	0.9775	0.8965	0.1916	0.058
Mof_C 	C 	0.03848	0.86648	0.2147	-0.059
Mof_H 	H 	0.0379	0.8682	0.305	0.071
Mof_C 	C 	0.07674	0.84638	0.1536	0.012
Mof_C 	C 	0.1163	0.83001	0.2185	-0.036
Mof_H 	H 	0.1172	0.831	0.3088	0.059
Mof_C 	C 	0.153	0.8129	0.1535	-0.075
Mof_H 	H 	0.1801	0.803	0.1969	0.069
Mof_C 	C 	0.15004	0.81023	0.0205	0.058
Mof_H 	H 	0.1756	0.7979	0.9751	0.033
Mof_C 	C 	0.07752	0.84281	0.0187	0.034
Mof_C 	C 	0.03986	0.86118	0.9468	0.032
Mof_N 	N 	0.04266	0.85927	0.8175	-0.195
Mof_N 	N 	0.11328	0.82399	0.9544	-0.188
Mof_O 	O 	0.05127	0.68365	0.6927	-0.404
Mof_O 	O 	0.06632	0.75465	0.7677	-0.459
Mof_O 	O 	0.97086	0.68075	0.8338	-0.163
Mof_O 	O 	0.89794	0.61794	0.8849	-0.323
Mof_O 	O 	0.86624	0.67031	0.0098	-0.361
Mof_O 	O 	0.16918	0.7661	0.7711	-0.405
Mof_O 	O 	0.14857	0.6938	0.7177	-0.436
Mof_Y 	Y 	0.60895	0.31662	0.21448	1.544
Mof_C 	C 	0.54188	0.21834	0.2594	0.4
Mof_C 	C 	0.49893	0.21897	0.3331	-0.017
Mof_C 	C 	0.47973	0.25293	0.4033	-0.005
Mof_H 	H 	0.4922	0.2829	0.4172	0.041
Mof_C 	C 	0.43756	0.2356	0.4527	-0.072
Mof_H 	H 	0.4161	0.2516	0.5051	0.073
Mof_C 	C 	0.43401	0.19185	0.4104	0.055
Mof_C 	C 	0.39766	0.15717	0.4353	0.265
Mof_C 	C 	0.67528	0.22327	0.266	0.395
Mof_C 	C 	0.71739	0.20281	0.3227	-0.003
Mof_C 	C 	0.72903	0.15788	0.3407	-0.032
Mof_H 	H 	0.7123	0.1316	0.3126	0.058
Mof_C 	C 	0.50939	0.37816	0.2505	0.065
Mof_H 	H 	0.5115	0.3775	0.1604	0.028
Mof_C 	C 	0.47091	0.3992	0.3062	-0.082
Mof_H 	H 	0.4472	0.4122	0.2549	0.068
Mof_C 	C 	0.46798	0.4008	0.4372	-0.029
Mof_H 	H 	0.4422	0.4151	0.4768	0.046
Mof_C 	C 	0.50257	0.38143	0.5109	-0.001
Mof_C 	C 	0.503	0.38319	0.648	-0.043
Mof_H 	H 	0.4775	0.3965	0.6916	0.058
Mof_C 	C 	0.53848	0.36648	0.7147	-0.06
Mof_H 	H 	0.5379	0.3682	0.805	0.072
Mof_C 	C 	0.57674	0.34638	0.6536	0.013
Mof_C 	C 	0.6163	0.33001	0.7185	-0.037
Mof_H 	H 	0.6172	0.331	0.8088	0.06
Mof_C 	C 	0.653	0.3129	0.6535	-0.074
Mof_H 	H 	0.6801	0.303	0.6969	0.069
Mof_C 	C 	0.65004	0.31023	0.5205	0.058
Mof_H 	H 	0.6756	0.2979	0.4751	0.033
Mof_C 	C 	0.57752	0.34281	0.5187	0.033
Mof_C 	C 	0.53986	0.36118	0.4468	0.034
Mof_N 	N 	0.54266	0.35927	0.3175	-0.195
Mof_N 	N 	0.61328	0.32399	0.4544	-0.187
Mof_O 	O 	0.55127	0.18365	0.1927	-0.404
Mof_O 	O 	0.56632	0.25465	0.2677	-0.459
Mof_O 	O 	0.47086	0.18075	0.3338	-0.162
Mof_O 	O 	0.39794	0.11794	0.3849	-0.323
Mof_O 	O 	0.36624	0.17031	0.5098	-0.365
Mof_O 	O 	0.66918	0.2661	0.2711	-0.405
Mof_O 	O 	0.64857	0.1938	0.2177	-0.436
Mof_Y 	Y 	0.89105	0.18338	0.71448	1.544
Mof_C 	C 	0.95812	0.28166	0.7594	0.4
Mof_C 	C 	0.00107	0.28103	0.8331	-0.018
Mof_C 	C 	0.02027	0.24707	0.9033	-0.002
Mof_H 	H 	0.0078	0.2171	0.9172	0.04
Mof_C 	C 	0.06244	0.2644	0.9527	-0.077
Mof_H 	H 	0.0839	0.2484	0.0051	0.077
Mof_C 	C 	0.06599	0.30815	0.9104	0.057
Mof_C 	C 	0.10234	0.34283	0.9353	0.261
Mof_C 	C 	0.82472	0.27673	0.766	0.396
Mof_C 	C 	0.78261	0.29719	0.8227	-0.003
Mof_C 	C 	0.77097	0.34212	0.8407	-0.032
Mof_H 	H 	0.7877	0.3684	0.8126	0.058
Mof_C 	C 	0.99061	0.12184	0.7505	0.064
Mof_H 	H 	0.9885	0.1225	0.6604	0.028
Mof_C 	C 	0.02909	0.1008	0.8062	-0.081
Mof_H 	H 	0.0528	0.0878	0.7549	0.067
Mof_C 	C 	0.03202	0.0992	0.9372	-0.031
Mof_H 	H 	0.0578	0.0849	0.9768	0.046
Mof_C 	C 	0.99743	0.11857	0.0109	0.002
Mof_C 	C 	0.997	0.11681	0.148	-0.045
Mof_H 	H 	0.0225	0.1035	0.1916	0.058
Mof_C 	C 	0.96152	0.13352	0.2147	-0.059
Mof_H 	H 	0.9621	0.1318	0.305	0.071
Mof_C 	C 	0.92326	0.15362	0.1536	0.012
Mof_C 	C 	0.8837	0.16999	0.2185	-0.036
Mof_H 	H 	0.8828	0.169	0.3088	0.059
Mof_C 	C 	0.847	0.1871	0.1535	-0.075
Mof_H 	H 	0.8199	0.197	0.1969	0.069
Mof_C 	C 	0.84996	0.18977	0.0205	0.058
Mof_H 	H 	0.8244	0.2021	0.9751	0.033
Mof_C 	C 	0.92248	0.15719	0.0187	0.034
Mof_C 	C 	0.96014	0.13882	0.9468	0.032
Mof_N 	N 	0.95734	0.14073	0.8175	-0.195
Mof_N 	N 	0.88672	0.17601	0.9544	-0.188
Mof_O 	O 	0.94873	0.31635	0.6927	-0.404
Mof_O 	O 	0.93368	0.24535	0.7677	-0.459
Mof_O 	O 	0.02914	0.31925	0.8338	-0.163
Mof_O 	O 	0.10206	0.38206	0.8849	-0.323
Mof_O 	O 	0.13376	0.32969	0.0098	-0.361
Mof_O 	O 	0.83082	0.2339	0.7711	-0.405
Mof_O 	O 	0.85143	0.3062	0.7177	-0.436
Mof_Y 	Y 	0.39105	0.68338	0.21448	1.544
Mof_C 	C 	0.45812	0.78166	0.2594	0.4
Mof_C 	C 	0.50107	0.78103	0.3331	-0.017
Mof_C 	C 	0.52027	0.74707	0.4033	-0.005
Mof_H 	H 	0.5078	0.7171	0.4172	0.041
Mof_C 	C 	0.56244	0.7644	0.4527	-0.072
Mof_H 	H 	0.5839	0.7484	0.5051	0.073
Mof_C 	C 	0.56599	0.80815	0.4104	0.055
Mof_C 	C 	0.60234	0.84283	0.4353	0.265
Mof_C 	C 	0.32472	0.77673	0.266	0.395
Mof_C 	C 	0.28261	0.79719	0.3227	-0.003
Mof_C 	C 	0.27097	0.84212	0.3407	-0.032
Mof_H 	H 	0.2877	0.8684	0.3126	0.058
Mof_C 	C 	0.49061	0.62184	0.2505	0.065
Mof_H 	H 	0.4885	0.6225	0.1604	0.028
Mof_C 	C 	0.52909	0.6008	0.3062	-0.082
Mof_H 	H 	0.5528	0.5878	0.2549	0.068
Mof_C 	C 	0.53202	0.5992	0.4372	-0.029
Mof_H 	H 	0.5578	0.5849	0.4768	0.046
Mof_C 	C 	0.49743	0.61857	0.5109	-0.001
Mof_C 	C 	0.497	0.61681	0.648	-0.043
Mof_H 	H 	0.5225	0.6035	0.6916	0.058
Mof_C 	C 	0.46152	0.63352	0.7147	-0.06
Mof_H 	H 	0.4621	0.6318	0.805	0.072
Mof_C 	C 	0.42326	0.65362	0.6536	0.013
Mof_C 	C 	0.3837	0.66999	0.7185	-0.037
Mof_H 	H 	0.3828	0.669	0.8088	0.06
Mof_C 	C 	0.347	0.6871	0.6535	-0.074
Mof_H 	H 	0.3199	0.697	0.6969	0.069
Mof_C 	C 	0.34996	0.68977	0.5205	0.058
Mof_H 	H 	0.3244	0.7021	0.4751	0.033
Mof_C 	C 	0.42248	0.65719	0.5187	0.033
Mof_C 	C 	0.46014	0.63882	0.4468	0.034
Mof_N 	N 	0.45734	0.64073	0.3175	-0.195
Mof_N 	N 	0.38672	0.67601	0.4544	-0.187
Mof_O 	O 	0.44873	0.81635	0.1927	-0.404
Mof_O 	O 	0.43368	0.74535	0.2677	-0.459
Mof_O 	O 	0.52914	0.81925	0.3338	-0.162
Mof_O 	O 	0.60206	0.88206	0.3849	-0.323
Mof_O 	O 	0.63376	0.82969	0.5098	-0.365
Mof_O 	O 	0.33082	0.7339	0.2711	-0.405
Mof_O 	O 	0.35143	0.8062	0.2177	-0.436
Mof_Y 	Y 	0.68338	0.60895	0.78552	1.544
Mof_C 	C 	0.78166	0.54188	0.7406	0.4
Mof_C 	C 	0.78103	0.49893	0.6669	-0.017
Mof_C 	C 	0.74707	0.47973	0.5967	-0.005
Mof_H 	H 	0.7171	0.4922	0.5828	0.041
Mof_C 	C 	0.7644	0.43756	0.5473	-0.072
Mof_H 	H 	0.7484	0.4161	0.4949	0.073
Mof_C 	C 	0.80815	0.43401	0.5896	0.055
Mof_C 	C 	0.84283	0.39766	0.5647	0.265
Mof_C 	C 	0.77673	0.67528	0.734	0.395
Mof_C 	C 	0.79719	0.71739	0.6773	-0.003
Mof_C 	C 	0.84212	0.72903	0.6593	-0.032
Mof_H 	H 	0.8684	0.7123	0.6874	0.058
Mof_C 	C 	0.62184	0.50939	0.7495	0.065
Mof_H 	H 	0.6225	0.5115	0.8396	0.028
Mof_C 	C 	0.6008	0.47091	0.6938	-0.082
Mof_H 	H 	0.5878	0.4472	0.7451	0.068
Mof_C 	C 	0.5992	0.46798	0.5628	-0.029
Mof_H 	H 	0.5849	0.4422	0.5232	0.046
Mof_C 	C 	0.61857	0.50257	0.4891	-0.001
Mof_C 	C 	0.61681	0.503	0.352	-0.043
Mof_H 	H 	0.6035	0.4775	0.3084	0.058
Mof_C 	C 	0.63352	0.53848	0.2853	-0.06
Mof_H 	H 	0.6318	0.5379	0.195	0.072
Mof_C 	C 	0.65362	0.57674	0.3464	0.013
Mof_C 	C 	0.66999	0.6163	0.2815	-0.037
Mof_H 	H 	0.669	0.6172	0.1912	0.06
Mof_C 	C 	0.6871	0.653	0.3465	-0.074
Mof_H 	H 	0.697	0.6801	0.3031	0.069
Mof_C 	C 	0.68977	0.65004	0.4795	0.058
Mof_H 	H 	0.7021	0.6756	0.5249	0.033
Mof_C 	C 	0.65719	0.57752	0.4813	0.033
Mof_C 	C 	0.63882	0.53986	0.5532	0.034
Mof_N 	N 	0.64073	0.54266	0.6825	-0.195
Mof_N 	N 	0.67601	0.61328	0.5456	-0.187
Mof_O 	O 	0.81635	0.55127	0.8073	-0.404
Mof_O 	O 	0.74535	0.56632	0.7323	-0.459
Mof_O 	O 	0.81925	0.47086	0.6662	-0.162
Mof_O 	O 	0.88206	0.39794	0.6151	-0.323
Mof_O 	O 	0.82969	0.36624	0.4902	-0.365
Mof_O 	O 	0.7339	0.66918	0.7289	-0.405
Mof_O 	O 	0.8062	0.64857	0.7823	-0.436
Mof_Y 	Y 	0.18338	0.10895	0.28552	1.544
Mof_C 	C 	0.28166	0.04188	0.2406	0.4
Mof_C 	C 	0.28103	0.99893	0.1669	-0.018
Mof_C 	C 	0.24707	0.97973	0.0967	-0.002
Mof_H 	H 	0.2171	0.9922	0.0828	0.04
Mof_C 	C 	0.2644	0.93756	0.0473	-0.077
Mof_H 	H 	0.2484	0.9161	0.9949	0.077
Mof_C 	C 	0.30815	0.93401	0.0896	0.057
Mof_C 	C 	0.34283	0.89766	0.0647	0.261
Mof_C 	C 	0.27673	0.17528	0.234	0.396
Mof_C 	C 	0.29719	0.21739	0.1773	-0.003
Mof_C 	C 	0.34212	0.22903	0.1593	-0.032
Mof_H 	H 	0.3684	0.2123	0.1874	0.058
Mof_C 	C 	0.12184	0.00939	0.2495	0.064
Mof_H 	H 	0.1225	0.0115	0.3396	0.028
Mof_C 	C 	0.1008	0.97091	0.1938	-0.081
Mof_H 	H 	0.0878	0.9472	0.2451	0.067
Mof_C 	C 	0.0992	0.96798	0.0628	-0.031
Mof_H 	H 	0.0849	0.9422	0.0232	0.046
Mof_C 	C 	0.11857	0.00257	0.9891	0.002
Mof_C 	C 	0.11681	0.003	0.852	-0.045
Mof_H 	H 	0.1035	0.9775	0.8084	0.058
Mof_C 	C 	0.13352	0.03848	0.7853	-0.059
Mof_H 	H 	0.1318	0.0379	0.695	0.071
Mof_C 	C 	0.15362	0.07674	0.8464	0.012
Mof_C 	C 	0.16999	0.1163	0.7815	-0.036
Mof_H 	H 	0.169	0.1172	0.6912	0.059
Mof_C 	C 	0.1871	0.153	0.8465	-0.075
Mof_H 	H 	0.197	0.1801	0.8031	0.069
Mof_C 	C 	0.18977	0.15004	0.9795	0.058
Mof_H 	H 	0.2021	0.1756	0.0249	0.033
Mof_C 	C 	0.15719	0.07752	0.9813	0.034
Mof_C 	C 	0.13882	0.03986	0.0532	0.032
Mof_N 	N 	0.14073	0.04266	0.1825	-0.195
Mof_N 	N 	0.17601	0.11328	0.0456	-0.188
Mof_O 	O 	0.31635	0.05127	0.3073	-0.404
Mof_O 	O 	0.24535	0.06632	0.2323	-0.459
Mof_O 	O 	0.31925	0.97086	0.1662	-0.163
Mof_O 	O 	0.38206	0.89794	0.1151	-0.323
Mof_O 	O 	0.32969	0.86624	0.9902	-0.361
Mof_O 	O 	0.2339	0.16918	0.2289	-0.405
Mof_O 	O 	0.3062	0.14857	0.2823	-0.436
Mof_Y 	Y 	0.31662	0.39105	0.78552	1.544
Mof_C 	C 	0.21834	0.45812	0.7406	0.4
Mof_C 	C 	0.21897	0.50107	0.6669	-0.017
Mof_C 	C 	0.25293	0.52027	0.5967	-0.005
Mof_H 	H 	0.2829	0.5078	0.5828	0.041
Mof_C 	C 	0.2356	0.56244	0.5473	-0.072
Mof_H 	H 	0.2516	0.5839	0.4949	0.073
Mof_C 	C 	0.19185	0.56599	0.5896	0.055
Mof_C 	C 	0.15717	0.60234	0.5647	0.265
Mof_C 	C 	0.22327	0.32472	0.734	0.395
Mof_C 	C 	0.20281	0.28261	0.6773	-0.003
Mof_C 	C 	0.15788	0.27097	0.6593	-0.032
Mof_H 	H 	0.1316	0.2877	0.6874	0.058
Mof_C 	C 	0.37816	0.49061	0.7495	0.065
Mof_H 	H 	0.3775	0.4885	0.8396	0.028
Mof_C 	C 	0.3992	0.52909	0.6938	-0.082
Mof_H 	H 	0.4122	0.5528	0.7451	0.068
Mof_C 	C 	0.4008	0.53202	0.5628	-0.029
Mof_H 	H 	0.4151	0.5578	0.5232	0.046
Mof_C 	C 	0.38143	0.49743	0.4891	-0.001
Mof_C 	C 	0.38319	0.497	0.352	-0.043
Mof_H 	H 	0.3965	0.5225	0.3084	0.058
Mof_C 	C 	0.36648	0.46152	0.2853	-0.06
Mof_H 	H 	0.3682	0.4621	0.195	0.072
Mof_C 	C 	0.34638	0.42326	0.3464	0.013
Mof_C 	C 	0.33001	0.3837	0.2815	-0.037
Mof_H 	H 	0.331	0.3828	0.1912	0.06
Mof_C 	C 	0.3129	0.347	0.3465	-0.074
Mof_H 	H 	0.303	0.3199	0.3031	0.069
Mof_C 	C 	0.31023	0.34996	0.4795	0.058
Mof_H 	H 	0.2979	0.3244	0.5249	0.033
Mof_C 	C 	0.34281	0.42248	0.4813	0.033
Mof_C 	C 	0.36118	0.46014	0.5532	0.034
Mof_N 	N 	0.35927	0.45734	0.6825	-0.195
Mof_N 	N 	0.32399	0.38672	0.5456	-0.187
Mof_O 	O 	0.18365	0.44873	0.8073	-0.404
Mof_O 	O 	0.25465	0.43368	0.7323	-0.459
Mof_O 	O 	0.18075	0.52914	0.6662	-0.162
Mof_O 	O 	0.11794	0.60206	0.6151	-0.323
Mof_O 	O 	0.17031	0.63376	0.4902	-0.365
Mof_O 	O 	0.2661	0.33082	0.7289	-0.405
Mof_O 	O 	0.1938	0.35143	0.7823	-0.436
Mof_Y 	Y 	0.81662	0.89105	0.28552	1.544
Mof_C 	C 	0.71834	0.95812	0.2406	0.4
Mof_C 	C 	0.71897	0.00107	0.1669	-0.018
Mof_C 	C 	0.75293	0.02027	0.0967	-0.002
Mof_H 	H 	0.7829	0.0078	0.0828	0.04
Mof_C 	C 	0.7356	0.06244	0.0473	-0.077
Mof_H 	H 	0.7516	0.0839	0.9949	0.077
Mof_C 	C 	0.69185	0.06599	0.0896	0.057
Mof_C 	C 	0.65717	0.10234	0.0647	0.261
Mof_C 	C 	0.72327	0.82472	0.234	0.396
Mof_C 	C 	0.70281	0.78261	0.1773	-0.003
Mof_C 	C 	0.65788	0.77097	0.1593	-0.032
Mof_H 	H 	0.6316	0.7877	0.1874	0.058
Mof_C 	C 	0.87816	0.99061	0.2495	0.064
Mof_H 	H 	0.8775	0.9885	0.3396	0.028
Mof_C 	C 	0.8992	0.02909	0.1938	-0.081
Mof_H 	H 	0.9122	0.0528	0.2451	0.067
Mof_C 	C 	0.9008	0.03202	0.0628	-0.031
Mof_H 	H 	0.9151	0.0578	0.0232	0.046
Mof_C 	C 	0.88143	0.99743	0.9891	0.002
Mof_C 	C 	0.88319	0.997	0.852	-0.045
Mof_H 	H 	0.8965	0.0225	0.8084	0.058
Mof_C 	C 	0.86648	0.96152	0.7853	-0.059
Mof_H 	H 	0.8682	0.9621	0.695	0.071
Mof_C 	C 	0.84638	0.92326	0.8464	0.012
Mof_C 	C 	0.83001	0.8837	0.7815	-0.036
Mof_H 	H 	0.831	0.8828	0.6912	0.059
Mof_C 	C 	0.8129	0.847	0.8465	-0.075
Mof_H 	H 	0.803	0.8199	0.8031	0.069
Mof_C 	C 	0.81023	0.84996	0.9795	0.058
Mof_H 	H 	0.7979	0.8244	0.0249	0.033
Mof_C 	C 	0.84281	0.92248	0.9813	0.034
Mof_C 	C 	0.86118	0.96014	0.0532	0.032
Mof_N 	N 	0.85927	0.95734	0.1825	-0.195
Mof_N 	N 	0.82399	0.88672	0.0456	-0.188
Mof_O 	O 	0.68365	0.94873	0.3073	-0.404
Mof_O 	O 	0.75465	0.93368	0.2323	-0.459
Mof_O 	O 	0.68075	0.02914	0.1662	-0.163
Mof_O 	O 	0.61794	0.10206	0.1151	-0.323
Mof_O 	O 	0.67031	0.13376	0.9902	-0.361
Mof_O 	O 	0.7661	0.83082	0.2289	-0.405
Mof_O 	O 	0.6938	0.85143	0.2823	-0.436
Mof_O 	O 	0.25	0.73153	0.875	-0.152
Mof_O 	O 	0.75	0.23153	0.375	-0.152
Mof_O 	O 	0.75	0.26847	0.875	-0.152
Mof_O 	O 	0.25	0.76847	0.375	-0.152
Mof_O 	O 	0.73153	0.75	0.125	-0.152
Mof_O 	O 	0.26847	0.25	0.125	-0.152
Mof_O 	O 	0.76847	0.75	0.625	-0.152
Mof_O 	O 	0.23153	0.25	0.625	-0.152
_end
