# CIF file generated by openbabel 3.1.0, see https://openbabel.org
data_I
_chemical_name_common 'CEDFIC_clean'
_cell_length_a 13.6908
_cell_length_b 13.6908
_cell_length_c 16.317
_cell_angle_alpha 67.0219
_cell_angle_beta 67.0219
_cell_angle_gamma 75.6934
_space_group_name_H-M_alt 'P 1'
_space_group_name_Hall 'P 1'
loop_
    _symmetry_equiv_pos_as_xyz
    x,y,z
loop_
    _atom_site_label
    _atom_site_type_symbol
    _atom_site_fract_x
    _atom_site_fract_y
    _atom_site_fract_z
    _atom_site_occupancy
    Gd1      Gd       0.16769    0.45449    0.99786    1.000
    Gd2      Gd       0.54551    0.83231    0.50214    1.000
    Gd3      Gd       0.83231    0.54551    0.00214    1.000
    Gd4      Gd       0.45449    0.16769    0.49786    1.000
    H1       H        0.08190    0.34550    0.56440    1.000
    H2       H        0.08240    0.12780    0.15110    1.000
    H3       H        0.22520    0.33840    0.74320    1.000
    H4       H        0.91180    0.45400    0.78550    1.000
    H5       H        0.65450    0.91810    0.93560    1.000
    H6       H        0.87220    0.91760    0.34890    1.000
    H7       H        0.66160    0.77480    0.75680    1.000
    H8       H        0.54600    0.08820    0.71450    1.000
    H9       H        0.91810    0.65450    0.43560    1.000
    H10      H        0.91760    0.87220    0.84890    1.000
    H11      H        0.77480    0.66160    0.25680    1.000
    H12      H        0.08820    0.54600    0.21450    1.000
    H13      H        0.34550    0.08190    0.06440    1.000
    H14      H        0.12780    0.08240    0.65110    1.000
    H15      H        0.33840    0.22520    0.24320    1.000
    H16      H        0.45400    0.91180    0.28550    1.000
    H17      H        0.76780    0.23220    0.25000    1.000
    H18      H        0.23220    0.76780    0.75000    1.000
    C1       C        0.92762    0.19686    0.18939    1.000
    C2       C        0.07903    0.35825    0.61855    1.000
    C3       C        0.95114    0.30816    0.12228    1.000
    C4       C        0.06380    0.42832    0.85883    1.000
    C5       C        0.01119    0.11433    0.19035    1.000
    C6       C        0.16380    0.35536    0.72447    1.000
    C7       C        0.06868    0.40204    0.77577    1.000
    C8       C        0.16905    0.33349    0.64610    1.000
    C9       C        0.27012    0.28154    0.59076    1.000
    C10      C        0.97745    0.42425    0.75021    1.000
    C11      C        0.98526    0.40180    0.67195    1.000
    C12      C        0.80314    0.07238    0.31061    1.000
    C13      C        0.64175    0.92097    0.88145    1.000
    C14      C        0.69184    0.04886    0.37772    1.000
    C15      C        0.57168    0.93620    0.64117    1.000
    C16      C        0.88567    0.98881    0.30965    1.000
    C17      C        0.64464    0.83620    0.77553    1.000
    C18      C        0.59796    0.93132    0.72423    1.000
    C19      C        0.66651    0.83095    0.85390    1.000
    C20      C        0.71846    0.72988    0.90924    1.000
    C21      C        0.57575    0.02255    0.74979    1.000
    C22      C        0.59820    0.01474    0.82805    1.000
    C23      C        0.07238    0.80314    0.81061    1.000
    C24      C        0.92097    0.64175    0.38145    1.000
    C25      C        0.04886    0.69184    0.87772    1.000
    C26      C        0.93620    0.57168    0.14117    1.000
    C27      C        0.98881    0.88567    0.80965    1.000
    C28      C        0.83620    0.64464    0.27553    1.000
    C29      C        0.93132    0.59796    0.22423    1.000
    C30      C        0.83095    0.66651    0.35390    1.000
    C31      C        0.72988    0.71846    0.40924    1.000
    C32      C        0.02255    0.57575    0.24979    1.000
    C33      C        0.01474    0.59820    0.32805    1.000
    C34      C        0.19686    0.92762    0.68939    1.000
    C35      C        0.35825    0.07903    0.11855    1.000
    C36      C        0.30816    0.95114    0.62228    1.000
    C37      C        0.42832    0.06380    0.35883    1.000
    C38      C        0.11433    0.01119    0.69035    1.000
    C39      C        0.35536    0.16380    0.22447    1.000
    C40      C        0.40204    0.06868    0.27577    1.000
    C41      C        0.33349    0.16905    0.14610    1.000
    C42      C        0.28154    0.27012    0.09076    1.000
    C43      C        0.42425    0.97745    0.25021    1.000
    C44      C        0.40180    0.98526    0.17195    1.000
    C45      C        0.82436    0.17564    0.25000    1.000
    C46      C        0.98776    0.01224    0.25000    1.000
    C47      C        0.17564    0.82436    0.75000    1.000
    C48      C        0.01224    0.98776    0.75000    1.000
    N1       N        0.88924    0.42354    0.64454    1.000
    N2       N        0.57646    0.11076    0.85546    1.000
    N3       N        0.11076    0.57646    0.35546    1.000
    N4       N        0.42354    0.88924    0.14454    1.000
    N5       N        0.07533    0.92467    0.25000    1.000
    N6       N        0.92467    0.07533    0.75000    1.000
    O1       O        0.87291    0.37549    0.10891    1.000
    O2       O        0.04817    0.32403    0.08513    1.000
    O3       O        0.14851    0.40833    0.87855    1.000
    O4       O        0.97533    0.46925    0.90255    1.000
    O5       O        0.27344    0.27362    0.51537    1.000
    O6       O        0.34816    0.24574    0.62219    1.000
    O7       O        0.16774    0.94744    0.20974    1.000
    O8       O        0.90142    0.42216    0.56637    1.000
    O9       O        0.80224    0.44234    0.70093    1.000
    O10      O        0.62451    0.12709    0.39109    1.000
    O11      O        0.67597    0.95183    0.41487    1.000
    O12      O        0.59167    0.85149    0.62145    1.000
    O13      O        0.53075    0.02467    0.59745    1.000
    O14      O        0.72638    0.72656    0.98463    1.000
    O15      O        0.75426    0.65184    0.87781    1.000
    O16      O        0.05256    0.83226    0.29026    1.000
    O17      O        0.57784    0.09858    0.93363    1.000
    O18      O        0.55766    0.19776    0.79907    1.000
    O19      O        0.12709    0.62451    0.89109    1.000
    O20      O        0.95183    0.67597    0.91487    1.000
    O21      O        0.85149    0.59167    0.12145    1.000
    O22      O        0.02467    0.53075    0.09745    1.000
    O23      O        0.72656    0.72638    0.48463    1.000
    O24      O        0.65184    0.75426    0.37781    1.000
    O25      O        0.83226    0.05256    0.79026    1.000
    O26      O        0.09858    0.57784    0.43363    1.000
    O27      O        0.19776    0.55766    0.29907    1.000
    O28      O        0.37549    0.87291    0.60891    1.000
    O29      O        0.32403    0.04817    0.58513    1.000
    O30      O        0.40833    0.14851    0.37855    1.000
    O31      O        0.46925    0.97533    0.40255    1.000
    O32      O        0.27362    0.27344    0.01537    1.000
    O33      O        0.24574    0.34816    0.12219    1.000
    O34      O        0.94744    0.16774    0.70974    1.000
    O35      O        0.42216    0.90142    0.06637    1.000
    O36      O        0.44234    0.80224    0.20093    1.000
