# CIF file generated by openbabel 3.1.0, see https://openbabel.org
data_I
_chemical_name_common 'image0'
_cell_length_a 28.0103
_cell_length_b 28.0103
_cell_length_c 6.4044
_cell_angle_alpha 90
_cell_angle_beta 90
_cell_angle_gamma 120
_space_group_name_H-M_alt 'P 1'
_space_group_name_Hall 'P 1'
loop_
    _symmetry_equiv_pos_as_xyz
    x,y,z
loop_
    _atom_site_label
    _atom_site_type_symbol
    _atom_site_fract_x
    _atom_site_fract_y
    _atom_site_fract_z
    _atom_site_occupancy
    Fe1      Fe       0.30220    0.02780    0.71130    1.000
    P1       P        0.42628    0.04033    0.57860    1.000
    O1       O        0.47740    0.09100    0.51790    1.000
    O2       O        0.39160    0.05610    0.71640    1.000
    O3       O        0.38900    0.01180    0.39630    1.000
    N1       N        0.46191    0.01835    0.93700    1.000
    C1       C        0.44516    0.99458    0.72020    1.000
    C2       C        0.52392    0.05833    0.95440    1.000
    C3       C        0.44649    0.97338    0.10140    1.000
    Fe2      Fe       0.96887    0.36113    0.04463    1.000
    P2       P        0.09295    0.37366    0.91193    1.000
    O4       O        0.14407    0.42433    0.85123    1.000
    O5       O        0.05827    0.38943    0.04973    1.000
    O6       O        0.05567    0.34513    0.72963    1.000
    N2       N        0.12858    0.35168    0.27033    1.000
    C4       C        0.11183    0.32791    0.05353    1.000
    C5       C        0.19059    0.39166    0.28773    1.000
    C6       C        0.11316    0.30671    0.43473    1.000
    Fe3      Fe       0.63553    0.69447    0.37797    1.000
    P3       P        0.75961    0.70700    0.24527    1.000
    O7       O        0.81073    0.75767    0.18457    1.000
    O8       O        0.72493    0.72277    0.38307    1.000
    O9       O        0.72233    0.67847    0.06297    1.000
    N3       N        0.79524    0.68502    0.60367    1.000
    C7       C        0.77849    0.66125    0.38687    1.000
    C8       C        0.85725    0.72500    0.62107    1.000
    C9       C        0.77982    0.64005    0.76807    1.000
    Fe4      Fe       0.97220    0.27440    0.71130    1.000
    P4       P        0.95967    0.38595    0.57860    1.000
    O10      O        0.90900    0.38640    0.51790    1.000
    O11      O        0.94390    0.33550    0.71640    1.000
    O12      O        0.98820    0.37720    0.39630    1.000
    N4       N        0.98165    0.44356    0.93700    1.000
    C10      C        0.00542    0.45058    0.72020    1.000
    C11      C        0.94167    0.46559    0.95440    1.000
    C12      C        0.02662    0.47311    0.10140    1.000
    Fe5      Fe       0.63887    0.60773    0.04463    1.000
    P5       P        0.62634    0.71928    0.91193    1.000
    O13      O        0.57567    0.71973    0.85123    1.000
    O14      O        0.61057    0.66883    0.04973    1.000
    O15      O        0.65487    0.71053    0.72963    1.000
    N5       N        0.64832    0.77689    0.27033    1.000
    C13      C        0.67209    0.78391    0.05353    1.000
    C14      C        0.60834    0.79892    0.28773    1.000
    C15      C        0.69329    0.80644    0.43473    1.000
    Fe6      Fe       0.30553    0.94107    0.37797    1.000
    P6       P        0.29300    0.05262    0.24527    1.000
    O16      O        0.24233    0.05307    0.18457    1.000
    O17      O        0.27723    0.00217    0.38307    1.000
    O18      O        0.32153    0.04387    0.06297    1.000
    N6       N        0.31498    0.11023    0.60367    1.000
    C16      C        0.33875    0.11725    0.38687    1.000
    C17      C        0.27500    0.13226    0.62107    1.000
    C18      C        0.35995    0.13978    0.76807    1.000
    Fe7      Fe       0.72560    0.69780    0.71130    1.000
    P7       P        0.61405    0.57372    0.57860    1.000
    O19      O        0.61360    0.52260    0.51790    1.000
    O20      O        0.66450    0.60840    0.71640    1.000
    O21      O        0.62280    0.61100    0.39630    1.000
    N7       N        0.55644    0.53809    0.93700    1.000
    C19      C        0.54942    0.55484    0.72020    1.000
    C20      C        0.53441    0.47608    0.95440    1.000
    C21      C        0.52689    0.55351    0.10140    1.000
    Fe8      Fe       0.39227    0.03113    0.04463    1.000
    P8       P        0.28072    0.90705    0.91193    1.000
    O22      O        0.28027    0.85593    0.85123    1.000
    O23      O        0.33117    0.94173    0.04973    1.000
    O24      O        0.28947    0.94433    0.72963    1.000
    N8       N        0.22311    0.87142    0.27033    1.000
    C22      C        0.21609    0.88817    0.05353    1.000
    C23      C        0.20108    0.80941    0.28773    1.000
    C24      C        0.19356    0.88684    0.43473    1.000
    Fe9      Fe       0.05893    0.36447    0.37797    1.000
    P9       P        0.94738    0.24039    0.24527    1.000
    O25      O        0.94693    0.18927    0.18457    1.000
    O26      O        0.99783    0.27507    0.38307    1.000
    O27      O        0.95613    0.27767    0.06297    1.000
    N9       N        0.88977    0.20476    0.60367    1.000
    C25      C        0.88275    0.22151    0.38687    1.000
    C26      C        0.86774    0.14275    0.62107    1.000
    C27      C        0.86022    0.22018    0.76807    1.000
    Fe10     Fe       0.69780    0.97220    0.28870    1.000
    P10      P        0.57372    0.95967    0.42140    1.000
    O28      O        0.52260    0.90900    0.48210    1.000
    O29      O        0.60840    0.94390    0.28360    1.000
    O30      O        0.61100    0.98820    0.60370    1.000
    N10      N        0.53809    0.98165    0.06300    1.000
    C28      C        0.55484    0.00542    0.27980    1.000
    C29      C        0.47608    0.94167    0.04560    1.000
    C30      C        0.55351    0.02662    0.89860    1.000
    Fe11     Fe       0.36447    0.30553    0.62203    1.000
    P11      P        0.24039    0.29300    0.75473    1.000
    O31      O        0.18927    0.24233    0.81543    1.000
    O32      O        0.27507    0.27723    0.61693    1.000
    O33      O        0.27767    0.32153    0.93703    1.000
    N11      N        0.20476    0.31498    0.39633    1.000
    C31      C        0.22151    0.33875    0.61313    1.000
    C32      C        0.14275    0.27500    0.37893    1.000
    C33      C        0.22018    0.35995    0.23193    1.000
    Fe12     Fe       0.03113    0.63887    0.95537    1.000
    P12      P        0.90705    0.62634    0.08807    1.000
    O34      O        0.85593    0.57567    0.14877    1.000
    O35      O        0.94173    0.61057    0.95027    1.000
    O36      O        0.94433    0.65487    0.27037    1.000
    N12      N        0.87142    0.64832    0.72967    1.000
    C34      C        0.88817    0.67209    0.94647    1.000
    C35      C        0.80941    0.60834    0.71227    1.000
    C36      C        0.88684    0.69329    0.56527    1.000
    Fe13     Fe       0.02780    0.72560    0.28870    1.000
    P13      P        0.04033    0.61405    0.42140    1.000
    O37      O        0.09100    0.61360    0.48210    1.000
    O38      O        0.05610    0.66450    0.28360    1.000
    O39      O        0.01180    0.62280    0.60370    1.000
    N13      N        0.01835    0.55644    0.06300    1.000
    C37      C        0.99458    0.54942    0.27980    1.000
    C38      C        0.05833    0.53441    0.04560    1.000
    C39      C        0.97338    0.52689    0.89860    1.000
    Fe14     Fe       0.69447    0.05893    0.62203    1.000
    P14      P        0.70700    0.94738    0.75473    1.000
    O40      O        0.75767    0.94693    0.81543    1.000
    O41      O        0.72277    0.99783    0.61693    1.000
    O42      O        0.67847    0.95613    0.93703    1.000
    N14      N        0.68502    0.88977    0.39633    1.000
    C40      C        0.66125    0.88275    0.61313    1.000
    C41      C        0.72500    0.86774    0.37893    1.000
    C42      C        0.64005    0.86022    0.23193    1.000
    Fe15     Fe       0.36113    0.39227    0.95537    1.000
    P15      P        0.37366    0.28072    0.08807    1.000
    O43      O        0.42433    0.28027    0.14877    1.000
    O44      O        0.38943    0.33117    0.95027    1.000
    O45      O        0.34513    0.28947    0.27037    1.000
    N15      N        0.35168    0.22311    0.72967    1.000
    C43      C        0.32791    0.21609    0.94647    1.000
    C44      C        0.39166    0.20108    0.71227    1.000
    C45      C        0.30671    0.19356    0.56527    1.000
    Fe16     Fe       0.27440    0.30220    0.28870    1.000
    P16      P        0.38595    0.42628    0.42140    1.000
    O46      O        0.38640    0.47740    0.48210    1.000
    O47      O        0.33550    0.39160    0.28360    1.000
    O48      O        0.37720    0.38900    0.60370    1.000
    N16      N        0.44356    0.46191    0.06300    1.000
    C46      C        0.45058    0.44516    0.27980    1.000
    C47      C        0.46559    0.52392    0.04560    1.000
    C48      C        0.47311    0.44649    0.89860    1.000
    Fe17     Fe       0.94107    0.63553    0.62203    1.000
    P17      P        0.05262    0.75961    0.75473    1.000
    O49      O        0.05307    0.81073    0.81543    1.000
    O50      O        0.00217    0.72493    0.61693    1.000
    O51      O        0.04387    0.72233    0.93703    1.000
    N17      N        0.11023    0.79524    0.39633    1.000
    C49      C        0.11725    0.77849    0.61313    1.000
    C50      C        0.13226    0.85725    0.37893    1.000
    C51      C        0.13978    0.77982    0.23193    1.000
    Fe18     Fe       0.60773    0.96887    0.95537    1.000
    P18      P        0.71928    0.09295    0.08807    1.000
    O52      O        0.71973    0.14407    0.14877    1.000
    O53      O        0.66883    0.05827    0.95027    1.000
    O54      O        0.71053    0.05567    0.27037    1.000
    N18      N        0.77689    0.12858    0.72967    1.000
    C52      C        0.78391    0.11183    0.94647    1.000
    C53      C        0.79892    0.19059    0.71227    1.000
    C54      C        0.80644    0.11316    0.56527    1.000
