# CIF file generated by openbabel 3.1.0, see https://openbabel.org
data_I
_chemical_name_common 'image0'
_cell_length_a 21.963
_cell_length_b 7.6577
_cell_length_c 6.1689
_cell_angle_alpha 90
_cell_angle_beta 91.48
_cell_angle_gamma 90
_space_group_name_H-M_alt 'P 1'
_space_group_name_Hall 'P 1'
loop_
    _symmetry_equiv_pos_as_xyz
    x,y,z
loop_
    _atom_site_label
    _atom_site_type_symbol
    _atom_site_fract_x
    _atom_site_fract_y
    _atom_site_fract_z
    _atom_site_occupancy
    Ce1      Ce       0.35468    0.74659    0.94994    1.000
    O1       O        0.45610    0.63830    0.11420    1.000
    O2       O        0.46270    0.85580    0.85140    1.000
    O3       O        0.34400    0.79890    0.34450    1.000
    O4       O        0.34090    0.95550    0.64660    1.000
    O5       O        0.36230    0.05590    0.09720    1.000
    H1       H        0.39380    0.11290    0.06130    1.000
    O6       O        0.23679    0.10920    0.28250    1.000
    H2       H        0.24510    0.02420    0.19860    1.000
    O7       O        0.33530    0.46180    0.13920    1.000
    O8       O        0.24990    0.35450    0.99560    1.000
    C1       C        0.34440    0.93920    0.44530    1.000
    C2       C        0.34960    0.10740    0.30930    1.000
    H3       H        0.38320    0.17890    0.36750    1.000
    C3       C        0.29030    0.21230    0.31380    1.000
    H4       H        0.28820    0.27020    0.45510    1.000
    C4       C        0.29290    0.35430    0.13720    1.000
    O9       O        0.38850    0.54780    0.64310    1.000
    H5       H        0.41620    0.49150    0.57580    1.000
    H6       H        0.36670    0.61300    0.55800    1.000
    Ce2      Ce       0.85468    0.24659    0.94994    1.000
    O10      O        0.95610    0.13830    0.11420    1.000
    O11      O        0.96270    0.35580    0.85140    1.000
    O12      O        0.84400    0.29890    0.34450    1.000
    O13      O        0.84090    0.45550    0.64660    1.000
    O14      O        0.86230    0.55590    0.09720    1.000
    H7       H        0.89380    0.61290    0.06130    1.000
    O15      O        0.73679    0.60920    0.28250    1.000
    H8       H        0.74510    0.52420    0.19860    1.000
    O16      O        0.83530    0.96180    0.13920    1.000
    O17      O        0.74990    0.85450    0.99560    1.000
    C5       C        0.84440    0.43920    0.44530    1.000
    C6       C        0.84960    0.60740    0.30930    1.000
    H9       H        0.88320    0.67890    0.36750    1.000
    C7       C        0.79030    0.71230    0.31380    1.000
    H10      H        0.78820    0.77020    0.45510    1.000
    C8       C        0.79290    0.85430    0.13720    1.000
    O18      O        0.88850    0.04780    0.64310    1.000
    H11      H        0.91620    0.99150    0.57580    1.000
    H12      H        0.86670    0.11300    0.55800    1.000
    Ce3      Ce       0.64532    0.74659    0.05006    1.000
    O19      O        0.54390    0.63830    0.88580    1.000
    O20      O        0.53730    0.85580    0.14860    1.000
    O21      O        0.65600    0.79890    0.65550    1.000
    O22      O        0.65910    0.95550    0.35340    1.000
    O23      O        0.63770    0.05590    0.90280    1.000
    H13      H        0.60620    0.11290    0.93870    1.000
    O24      O        0.76321    0.10920    0.71750    1.000
    H14      H        0.75490    0.02420    0.80140    1.000
    O25      O        0.66470    0.46180    0.86080    1.000
    O26      O        0.75010    0.35450    0.00440    1.000
    C9       C        0.65560    0.93920    0.55470    1.000
    C10      C        0.65040    0.10740    0.69070    1.000
    H15      H        0.61680    0.17890    0.63250    1.000
    C11      C        0.70970    0.21230    0.68620    1.000
    H16      H        0.71180    0.27020    0.54490    1.000
    C12      C        0.70710    0.35430    0.86280    1.000
    O27      O        0.61150    0.54780    0.35690    1.000
    H17      H        0.58380    0.49150    0.42420    1.000
    H18      H        0.63330    0.61300    0.44200    1.000
    Ce4      Ce       0.14532    0.24659    0.05006    1.000
    O28      O        0.04390    0.13830    0.88580    1.000
    O29      O        0.03730    0.35580    0.14860    1.000
    O30      O        0.15600    0.29890    0.65550    1.000
    O31      O        0.15910    0.45550    0.35340    1.000
    O32      O        0.13770    0.55590    0.90280    1.000
    H19      H        0.10620    0.61290    0.93870    1.000
    O33      O        0.26321    0.60920    0.71750    1.000
    H20      H        0.25490    0.52420    0.80140    1.000
    O34      O        0.16470    0.96180    0.86080    1.000
    O35      O        0.25010    0.85450    0.00440    1.000
    C13      C        0.15560    0.43920    0.55470    1.000
    C14      C        0.15040    0.60740    0.69070    1.000
    H21      H        0.11680    0.67890    0.63250    1.000
    C15      C        0.20970    0.71230    0.68620    1.000
    H22      H        0.21180    0.77020    0.54490    1.000
    C16      C        0.20710    0.85430    0.86280    1.000
    O36      O        0.11150    0.04780    0.35690    1.000
    H23      H        0.08380    0.99150    0.42420    1.000
    H24      H        0.13330    0.11300    0.44200    1.000
    S1       S        0.50000    0.74510    0.00000    1.000
    S2       S        0.00000    0.24510    0.00000    1.000
