data_functionalizedCrystal
_audit_creation_method	'EQeq! by Chris Wilmer'
_symmetry_space_group_name_H-M	'P1'
_symmetry_Int_Tables_number	1
_symmetry_cell_setting	triclinic
loop_
_symmetry_equiv_pos_as_xyz
  x,y,z
_cell_length_a	14.43
_cell_length_b	21.6902
_cell_length_c	30.645
_cell_angle_alpha	86.0356
_cell_angle_beta	78.004
_cell_angle_gamma	70.571
loop_
_atom_site_label
_atom_site_type_symbol
_atom_site_fract_x
_atom_site_fract_y
_atom_site_fract_z
_atom_site_charge
Mof_Cd	Cd	0.66101	0.67798	0.5	0.443
Mof_Cd	Cd	0.47665	0.55792	0.50652	0.448
Mof_Cd	Cd	0.95278	0.09444	-0	0.488
Mof_Cd	Cd	0.74652	0.50696	0.5	0.516
Mof_Cd	Cd	0.96543	0.55792	0.49348	0.429
Mof_Cd	Cd	0.03802	0.92396	-0	0.431
Mof_Cd	Cd	0.22191	0.04578	0.99494	0.466
Mof_Cd	Cd	0.73231	0.04578	0.00506	0.445
Mof_Ni	Ni	0.47276	0.70768	0.77323	1.099
Mof_Ni	Ni	0.88044	0.89492	0.27112	1.091
Mof_Ni	Ni	0.69957	0.39226	0.77863	1.086
Mof_Ni	Ni	0.90817	0.39226	0.22137	1.073
Mof_Ni	Ni	0.99686	0.21248	0.72115	1.082
Mof_Ni	Ni	0.79066	0.21248	0.27885	1.097
Mof_Ni	Ni	0.81956	0.70768	0.22677	1.098
Mof_Ni	Ni	0.22464	0.89492	0.72888	1.095
Mof_H 	H 	0.4383	0.7392	0.2452	0.378
Mof_H 	H 	0.3059	0.6678	0.6721	0.073
Mof_H 	H 	0.0263	0.6678	0.3279	0.058
Mof_H 	H 	0.701	0.8304	0.3405	-0.016
Mof_H 	H 	0.1811	0.785	0.3536	0.429
Mof_H 	H 	0.433	0.301	0.9622	0.35
Mof_H 	H 	0.8571	0.1316	0.7326	-0.021
Mof_H 	H 	0.3193	0.2586	0.7376	0.431
Mof_H 	H 	0.4122	0.1148	0.7936	0.45
Mof_H 	H 	0.1809	0.436	0.0969	0.365
Mof_H 	H 	0.901	0.2372	0.1091	0.005
Mof_H 	H 	0.7452	0.995	0.8088	0.522
Mof_H 	H 	0.0661	0.9442	0.3817	0.354
Mof_H 	H 	0.1815	0.355	0.2414	0.517
Mof_H 	H 	0.3038	0.4576	0.2607	0.509
Mof_H 	H 	0.0954	0.981	0.8868	-0.014
Mof_H 	H 	0.6084	0.7734	0.9539	0.415
Mof_H 	H 	0.2296	0.3484	0.2836	0.499
Mof_H 	H 	0.1387	0.717	0.1743	0.069
Mof_H 	H 	0.6439	0.99	0.1899	0.081
Mof_H 	H 	0.2386	0.4576	0.7393	0.523
Mof_H 	H 	0.1684	0.246	0.2291	0.001
Mof_H 	H 	0.1849	0.1154	0.2515	0.01
Mof_H 	H 	0.2598	0.995	0.1912	0.532
Mof_H 	H 	0.1946	0.9708	0.1336	-0.079
Mof_H 	H 	0.7936	0.7576	0.7079	0.386
Mof_H 	H 	0.4721	0.4214	0.9284	0.381
Mof_H 	H 	0.0309	0.8532	0.4589	0.434
Mof_H 	H 	0.9549	0.9536	0.7227	0.466
Mof_H 	H 	0.36	0.9682	0.7388	-0.004
Mof_H 	H 	0.6841	0.4894	0.6228	0.005
Mof_H 	H 	0.7311	0.636	0.7815	0.399
Mof_H 	H 	0.4009	0.2512	0.4461	0.334
Mof_H 	H 	0.2733	0.842	0.2415	0.498
Mof_H 	H 	0.4263	0.4604	0.7934	0.506
Mof_H 	H 	0.6059	0.575	0.24	0.407
Mof_H 	H 	0.8191	0.575	0.76	0.398
Mof_H 	H 	0.8225	0.7392	0.7548	0.366
Mof_H 	H 	0.5932	0.6778	0.9223	0.44
Mof_H 	H 	0.1656	0.8422	0.2393	0.536
Mof_H 	H 	0.9832	0.7864	0.159	-0.032
Mof_H 	H 	0.2731	0.267	0.1391	0.361
Mof_H 	H 	0.0198	0.4664	0.7768	-0.036
Mof_H 	H 	0.9543	0.748	0.2784	0.02
Mof_H 	H 	0.3661	0.99	0.8101	0.081
Mof_H 	H 	0.457	0.651	0.6662	0.011
Mof_H 	H 	0.4394	0.254	0.9243	0.356
Mof_H 	H 	0.7752	0.7476	0.3947	-0.012
Mof_H 	H 	0.1993	0.9538	0.2789	0.466
Mof_H 	H 	0.473	0.1148	0.2064	0.454
Mof_H 	H 	0.0079	0.7588	0.4427	-0.036
Mof_H 	H 	0.7134	0.2224	0.6863	0.046
Mof_H 	H 	0.0994	0.1068	0.1969	0.029
Mof_H 	H 	0.5138	0.4664	0.2232	-0.006
Mof_H 	H 	0.7927	0.2974	0.6628	-0.021
Mof_H 	H 	0.2329	0.9608	0.8334	-0.015
Mof_H 	H 	0.2149	0.206	0.2685	-0.015
Mof_H 	H 	0.9898	0.934	0.3556	0.344
Mof_H 	H 	0.861	0.0114	0.7443	0.443
Mof_H 	H 	0.4641	0.8928	0.2676	-0.004
Mof_H 	H 	0.7387	0.762	0.8419	0.414
Mof_H 	H 	0.5606	0.8384	0.6944	0.053
Mof_H 	H 	0.9922	0.8422	0.7607	0.501
Mof_H 	H 	0.4221	0.2586	0.2624	0.437
Mof_H 	H 	0.6329	0.636	0.2185	0.407
Mof_H 	H 	0.9144	0.4838	0.7068	0.031
Mof_H 	H 	0.2215	0.465	0.1998	0.465
Mof_H 	H 	0.0741	0.6166	0.2891	0.018
Mof_H 	H 	0.0816	0.4264	0.1238	0.398
Mof_H 	H 	0.1372	0.7706	0.7875	0.046
Mof_H 	H 	0.92	0.3538	0.7256	-0.001
Mof_H 	H 	0.5385	0.7478	0.2513	0.414
Mof_H 	H 	0.2333	0.7588	0.5573	-0.08
Mof_H 	H 	0.2783	0.324	0.5524	0.365
Mof_H 	H 	0.4805	0.2682	0.4665	0.341
Mof_H 	H 	0.4993	0.762	0.1581	0.412
Mof_H 	H 	0.266	0.301	0.0378	0.341
Mof_H 	H 	0.422	0.3484	0.7164	0.509
Mof_H 	H 	0.8265	0.4894	0.3772	0.008
Mof_H 	H 	0.943	0.6562	0.6748	0.382
Mof_H 	H 	0.3914	0.6408	0.2774	0.396
Mof_H 	H 	0.7938	0.1068	0.8031	0.05
Mof_H 	H 	0.2937	0.3334	0.1397	0.342
Mof_H 	H 	0.5817	0.7702	0.1813	0.448
Mof_H 	H 	0.0642	0.2224	0.3137	0.055
Mof_H 	H 	0.581	0.2428	0.9461	-0.054
Mof_H 	H 	0.0034	0.8638	0.5631	0.421
Mof_H 	H 	0.5856	0.246	0.7709	0.007
Mof_H 	H 	0.2628	0.1494	0.7089	0.49
Mof_H 	H 	0.3977	0.324	0.4476	0.353
Mof_H 	H 	0.5375	0.3736	0.2935	0.03
Mof_H 	H 	0.601	0.8384	0.3056	0.053
Mof_H 	H 	0.6018	0.4838	0.2932	0.037
Mof_H 	H 	0.3655	0.1836	0.8167	0.445
Mof_H 	H 	0.5587	0.0936	0.2734	0.476
Mof_H 	H 	0.5735	0.9144	0.3094	0.052
Mof_H 	H 	0.2304	0.7864	0.841	-0.015
Mof_H 	H 	0.6308	0.6652	0.1032	0.415
Mof_H 	H 	0.4125	0.9146	0.8199	0.084
Mof_H 	H 	0.7628	0.9272	0.8329	0.501
Mof_H 	H 	0.1283	0.7298	0.2957	0.056
Mof_H 	H 	0.2699	0.5158	0.7152	0.537
Mof_H 	H 	0.9794	0.391	0.8246	0.104
Mof_H 	H 	0.3831	0.436	0.9031	0.367
Mof_H 	H 	0.6431	0.8928	0.7324	-0.004
Mof_H 	H 	0.4724	0.8482	0.9356	-0.068
Mof_H 	H 	0.0416	0.2882	0.2869	0.054
Mof_H 	H 	0.8469	0.9538	0.7211	0.444
Mof_H 	H 	0.8346	0.9708	0.8664	-0.093
Mof_H 	H 	0.492	0.4264	0.8762	0.396
Mof_H 	H 	0.729	0.6778	0.0777	0.428
Mof_H 	H 	0.5163	0.6154	0.3594	-0.06
Mof_H 	H 	0.6057	0.6224	0.6118	0.014
Mof_H 	H 	0.2337	0.1402	0.2063	0.011
Mof_H 	H 	0.0889	0.3736	0.7065	0.046
Mof_H 	H 	0.4629	0.5876	0.3036	0.412
Mof_H 	H 	0.6261	0.1402	0.7937	-0.004
Mof_H 	H 	0.8518	0.4514	0.7906	-0.04
Mof_H 	H 	0.475	0.154	0.2982	0.457
Mof_H 	H 	0.2476	0.177	0.5815	0.323
Mof_H 	H 	0.5327	0.6262	0.2135	0.384
Mof_H 	H 	0.1443	0.717	0.8257	0.048
Mof_H 	H 	0.2503	0.272	0.7851	0.443
Mof_H 	H 	0.8847	0.842	0.7585	0.476
Mof_H 	H 	0.0861	0.4464	0.7014	0.037
Mof_H 	H 	0.5226	0.762	0.0755	0.399
Mof_H 	H 	0.5922	0.8508	0.7669	0.01
Mof_H 	H 	0.1133	0.4604	0.2066	0.499
Mof_H 	H 	0.6794	0.8482	0.0644	-0.072
Mof_H 	H 	0.4794	0.9852	0.2251	-0.003
Mof_H 	H 	0.2491	0.3332	0.642	0.36
Mof_H 	H 	0.7262	0.3538	0.2744	-0.001
Mof_H 	H 	0.0915	0.9536	0.2773	0.505
Mof_H 	H 	0.3066	0.254	0.0757	0.349
Mof_H 	H 	0.9519	0.853	0.6434	0.344
Mof_H 	H 	0.9897	0.9442	0.6183	0.356
Mof_H 	H 	0.5055	0.2786	0.3295	0.358
Mof_H 	H 	0.1159	0.8532	0.5411	0.422
Mof_H 	H 	0.4833	0.1836	0.3968	0.299
Mof_H 	H 	0.4177	0.3332	0.358	0.35
Mof_H 	H 	0.1762	0.2428	0.0539	-0.054
Mof_H 	H 	0.0957	0.9442	0.5926	0.391
Mof_H 	H 	0.4488	0.7576	0.2921	0.397
Mof_H 	H 	0.3331	0.1836	0.6032	0.31
Mof_H 	H 	0.6312	0.8296	0.9232	0.428
Mof_H 	H 	0.414	0.2618	0.3586	0.332
Mof_H 	H 	0.0339	0.785	0.6464	0.394
Mof_H 	H 	0.7137	0.7478	0.7487	0.405
Mof_H 	H 	0.4008	0.6562	0.3252	0.403
Mof_H 	H 	0.1232	0.7938	0.4385	0.44
Mof_H 	H 	0.8036	0.3618	0.3983	-0.002
Mof_H 	H 	0.8063	0.9608	0.1666	-0.013
Mof_H 	H 	0.6296	0.391	0.1754	0.053
Mof_H 	H 	0.1289	0.5226	0.2226	0.483
Mof_H 	H 	0.4799	0.3252	0.8318	0.369
Mof_H 	H 	0.4826	0.4032	0.2269	-0.029
Mof_H 	H 	0.144	0.6574	0.7004	0.018
Mof_H 	H 	0.7881	0.3292	0.1543	-0.012
Mof_H 	H 	0.1161	0.3628	0.5561	-0.075
Mof_H 	H 	0.2513	0.2682	0.5335	0.355
Mof_H 	H 	0.9678	0.6408	0.7226	0.372
Mof_H 	H 	0.6181	0.4258	0.3277	0.067
Mof_H 	H 	0.5211	0.3628	0.4439	-0.051
Mof_H 	H 	0.7128	0.666	0.1294	0.446
Mof_H 	H 	0.4772	0.7476	0.6053	-0.017
Mof_H 	H 	0.1065	0.4214	0.0716	0.382
Mof_H 	H 	0.7719	0.6224	0.3882	0.014
Mof_H 	H 	0.2854	0.3654	0.2372	0.484
Mof_H 	H 	0.1328	0.8638	0.4369	0.418
Mof_H 	H 	0.5301	0.2634	0.256	0.467
Mof_H 	H 	0.2012	0.6376	0.225	-0.016
Mof_H 	H 	0.9236	0.981	0.1132	0.013
Mof_H 	H 	0.4675	0.4464	0.2986	0.018
Mof_H 	H 	0.3477	0.0936	0.7266	0.471
Mof_H 	H 	0.5791	0.206	0.7315	-0.008
Mof_H 	H 	0.0262	0.8434	0.6759	0.401
Mof_H 	H 	0.3093	0.6166	0.7109	0.039
Mof_H 	H 	0.4289	0.8344	0.753	-0.026
Mof_H 	H 	0.6729	0.9146	0.1801	0.084
Mof_H 	H 	0.0017	0.1228	0.879	0
Mof_H 	H 	0.0624	0.695	0.7723	-0
Mof_H 	H 	0.7367	0.8344	0.247	-0.026
Mof_H 	H 	0.3885	0.1756	0.2304	0.441
Mof_H 	H 	0.1146	0.4822	0.347	-0.093
Mof_H 	H 	0.5392	0.8296	0.0768	0.421
Mof_H 	H 	0.2426	0.695	0.2277	-0.032
Mof_H 	H 	0.8411	0.6262	0.7865	0.372
Mof_H 	H 	0.3242	0.2618	0.6414	0.34
Mof_H 	H 	0.1304	0.8434	0.3241	0.437
Mof_H 	H 	0.3135	0.465	0.8002	0.476
Mof_H 	H 	0.8755	0.1228	0.121	-0.034
Mof_H 	H 	0.9561	0.4258	0.6723	0.056
Mof_H 	H 	0.704	0.6652	0.8968	0.422
Mof_H 	H 	0.9192	0.833	0.8044	0.488
Mof_H 	H 	0.0773	0.1814	0.1851	0.061
Mof_H 	H 	0.0113	0.1316	0.2674	0.031
Mof_H 	H 	0.1419	0.7298	0.7043	0.035
Mof_H 	H 	0.3363	0.3174	0.0647	0.328
Mof_H 	H 	0.3463	0.3174	0.9353	0.338
Mof_H 	H 	0.8683	0.6154	0.6406	-0.061
Mof_H 	H 	0.3479	0.2512	0.5539	0.344
Mof_H 	H 	0.2218	0.851	0.8967	-0.021
Mof_H 	H 	0.4032	0.4822	0.653	-0.091
Mof_H 	H 	0.4509	0.1836	0.1833	0.448
Mof_H 	H 	0.6718	0.9682	0.2612	-0.005
Mof_H 	H 	0.7413	0.1814	0.8149	0.078
Mof_H 	H 	0.6509	0.8286	0.8452	0.437
Mof_H 	H 	0.4686	0.8304	0.6595	-0.018
Mof_H 	H 	0.0463	0.6516	0.2132	-0.03
Mof_H 	H 	0.2478	0.833	0.1956	0.513
Mof_H 	H 	0.5865	0.181	0.3665	0.318
Mof_H 	H 	0.4359	0.1756	0.7696	0.436
Mof_H 	H 	0.2159	0.2786	0.6705	0.369
Mof_H 	H 	0.2065	0.2634	0.744	0.462
Mof_H 	H 	0.9272	0.851	0.1033	-0.033
Mof_H 	H 	0.5205	0.8286	0.1548	0.434
Mof_H 	H 	0.1612	0.6376	0.775	0.007
Mof_H 	H 	0.9601	0.9442	0.4074	0.332
Mof_H 	H 	0.2971	0.45	0.6898	0.531
Mof_H 	H 	0.6997	0.1154	0.7485	-0.005
Mof_H 	H 	0.31	0.9272	0.1671	0.511
Mof_H 	H 	0.6702	0.2882	0.7131	0.044
Mof_H 	H 	0.3288	0.936	0.2145	0.501
Mof_H 	H 	0.1276	0.0114	0.2557	0.468
Mof_H 	H 	0.892	0.651	0.3338	0.007
Mof_H 	H 	0.5754	0.177	0.4185	0.308
Mof_H 	H 	0.4777	0.272	0.2149	0.446
Mof_H 	H 	0.5354	0.9852	0.7749	-0.003
Mof_H 	H 	0.1142	0.4032	0.7731	-0.072
Mof_H 	H 	0.8346	0.3618	0.6017	-0.02
Mof_H 	H 	0.8618	0.2372	0.8909	-0.011
Mof_H 	H 	0.919	0.131	0.8262	-0.006
Mof_H 	H 	0.6443	0.3384	0.2132	0.053
Mof_H 	H 	0.6182	0.7734	0.0461	0.405
Mof_H 	H 	0.3021	0.6516	0.7868	-0.012
Mof_H 	H 	0.6968	0.4514	0.2094	-0.021
Mof_H 	H 	0.8827	0.3292	0.8457	-0.02
Mof_H 	H 	0.797	0.4566	0.6761	-0
Mof_H 	H 	0.2868	0.1218	0.8498	-0.094
Mof_H 	H 	0.371	0.154	0.7018	0.451
Mof_H 	H 	0.5878	0.1494	0.2911	0.494
Mof_H 	H 	0.6481	0.7702	0.8187	0.452
Mof_H 	H 	0.2977	0.748	0.7216	0.001
Mof_H 	H 	0.9099	0.2974	0.3372	-0.021
Mof_H 	H 	0.0173	0.3384	0.7868	0.135
Mof_H 	H 	0.3729	0.3334	0.8603	0.346
Mof_H 	H 	0.95	0.131	0.1738	-0.033
Mof_H 	H 	0.7154	0.762	0.9245	0.405
Mof_H 	H 	0.083	0.7938	0.5615	0.437
Mof_H 	H 	0.0762	0.934	0.6444	0.405
Mof_H 	H 	0.2529	0.45	0.3102	0.519
Mof_H 	H 	0.9495	0.5876	0.6964	0.391
Mof_H 	H 	0.557	0.8508	0.2331	0.01
Mof_H 	H 	0.5121	0.9144	0.6906	0.051
Mof_H 	H 	0.5914	0.1218	0.1502	-0.104
Mof_H 	H 	0.4599	0.267	0.8609	0.363
Mof_H 	H 	0.1986	0.6574	0.2996	0.033
Mof_H 	H 	0.0922	0.7706	0.2125	0.069
Mof_H 	H 	0.3492	0.3654	0.7628	0.495
Mof_H 	H 	0.6212	0.666	0.8706	0.455
Mof_H 	H 	0.1951	0.853	0.3566	0.407
Mof_H 	H 	0.2143	0.5158	0.2848	0.524
Mof_H 	H 	0.7352	0.936	0.7855	0.49
Mof_H 	H 	0.3485	0.5226	0.7774	0.489
Mof_H 	H 	0.4635	0.355	0.7586	0.527
Mof_H 	H 	0.1949	0.3252	0.1682	0.368
Mof_H 	H 	0.2325	0.181	0.6335	0.332
Mof_H 	H 	0.7464	0.4566	0.3239	0.003
Mof_C 	C 	0.9689	0.4902	0.369	-0.234
Mof_C 	C 	0.6472	0.6636	0.704	0.36
Mof_C 	C 	0.1054	0.3068	0.1047	-0.384
Mof_C 	C 	0.9847	0.3846	0.7931	-0.372
Mof_C 	C 	0.2415	0.4692	0.2818	-1.713
Mof_C 	C 	0.7924	0.6022	0.5706	0.309
Mof_C 	C 	0.8412	0.3362	0.1636	0.086
Mof_C 	C 	0.6759	0.1502	0.7704	-0.044
Mof_C 	C 	0.1494	0.8314	0.3525	-1.416
Mof_C 	C 	0.4867	0.6632	0.6869	0.07
Mof_C 	C 	0.4861	0.2492	0.2426	-1.534
Mof_C 	C 	0.4005	0.837	0.6692	0.1
Mof_C 	C 	0.2259	0.129	0.8412	0.296
Mof_C 	C 	0.0867	0.1496	0.209	-0.08
Mof_C 	C 	0.5794	0.888	0.747	-0.081
Mof_C 	C 	0.8974	0.4536	0.3156	-0.219
Mof_C 	C 	0.7289	0.6292	0.3682	0.11
Mof_C 	C 	0.0506	0.4178	0.7167	-0.143
Mof_C 	C 	0.6331	0.4794	0.6428	0.138
Mof_C 	C 	0.2647	0.2492	0.7574	-1.517
Mof_C 	C 	0.5923	0.3048	0.3899	-0.41
Mof_C 	C 	0.135	0.6826	0.7657	-0.052
Mof_C 	C 	0.5212	0.878	0.7112	-0.144
Mof_C 	C 	0.7452	0.6148	0.6192	-0.192
Mof_C 	C 	0.0586	0.2412	0.2844	-0.131
Mof_C 	C 	0.5419	0.1962	0.3944	-1.076
Mof_C 	C 	0.3377	0.8572	0.9215	-0.232
Mof_C 	C 	0.5363	0.9496	0.2269	-0.034
Mof_C 	C 	0.4081	0.764	0.6073	0.142
Mof_C 	C 	0.2619	0.1962	0.6056	-1.116
Mof_C 	C 	0.4364	0.6336	0.2977	-1.336
Mof_C 	C 	0.2798	0.2794	0.5562	-1.19
Mof_C 	C 	0.3483	0.7882	0.8612	-0.27
Mof_C 	C 	0.0706	0.348	0.5765	0.288
Mof_C 	C 	0.5242	0.6598	0.2768	0.917
Mof_C 	C 	0.5757	0.625	0.351	0.213
Mof_C 	C 	0.5878	0.3068	0.8953	-0.384
Mof_C 	C 	0.0887	0.8396	0.4354	-1.427
Mof_C 	C 	0.7376	0.099	0.0842	0.428
Mof_C 	C 	0.2834	0.6626	0.7038	-0.14
Mof_C 	C 	0.8135	0.917	0.0482	0.401
Mof_C 	C 	0.9969	0.1664	0.2451	-0.078
Mof_C 	C 	0.9461	0.9474	0.8119	-0.578
Mof_C 	C 	0.7834	0.733	0.7347	-1.312
Mof_C 	C 	0.9	0.009	0.9283	0.394
Mof_C 	C 	0.0553	0.1766	0.0457	0.368
Mof_C 	C 	0.4808	0.4492	0.7025	-0.572
Mof_C 	C 	0.7839	0.7642	0.1434	0.375
Mof_C 	C 	0.2796	0.6978	0.7782	-0.002
Mof_C 	C 	0.4649	0.475	0.6609	0.282
Mof_C 	C 	0.0464	0.941	0.7961	0.436
Mof_C 	C 	0.649	0.4536	0.6844	-0.238
Mof_C 	C 	0.3001	0.77	0.8339	0.104
Mof_C 	C 	0.1899	0.338	0.1013	0.818
Mof_C 	C 	0.9234	0.8546	0.776	-1.668
Mof_C 	C 	0.8279	0.764	0.3927	0.127
Mof_C 	C 	0.0226	0.6978	0.2218	0.088
Mof_C 	C 	0.8827	0.9282	0.783	1.186
Mof_C 	C 	0.8771	0.6936	0.4559	0.353
Mof_C 	C 	0.7625	0.837	0.3308	0.097
Mof_C 	C 	0.2912	0.8348	0.8936	0.15
Mof_C 	C 	0.3671	0.476	0.7808	-1.631
Mof_C 	C 	0.7275	0.232	0.9234	-0.205
Mof_C 	C 	0.6677	0.782	0.8442	-1.462
Mof_C 	C 	0.8828	0.4048	0.7829	0.095
Mof_C 	C 	0.4293	0.6936	0.5441	0.365
Mof_C 	C 	0.8056	0.1506	0.1843	-0.318
Mof_C 	C 	0.0192	0.8314	0.6475	-1.278
Mof_C 	C 	0.0605	0.9254	0.617	-1.306
Mof_C 	C 	0.6307	0.3846	0.2069	-0.172
Mof_C 	C 	0.6124	0.7582	0.8871	1.016
Mof_C 	C 	0.0633	0.979	0.1161	-0.192
Mof_C 	C 	0.4174	0.2988	0.9335	-1.162
Mof_C 	C 	0.8472	0.9492	0.1877	0.154
Mof_C 	C 	0.6805	0.685	0.1051	-1.467
Mof_C 	C 	0.8884	0.7464	0.4244	-0.227
Mof_C 	C 	0.0438	0.1506	0.8157	-0.236
Mof_C 	C 	0.0405	0.232	0.0766	-0.172
Mof_C 	C 	0.8064	0.4416	0.3035	0.088
Mof_C 	C 	0.5929	0.6536	0.6742	-0.216
Mof_C 	C 	0.5311	0.1758	0.2337	1.104
Mof_C 	C 	0.4196	0.8728	0.7333	0.017
Mof_C 	C 	0.4073	0.948	0.7968	-0.177
Mof_C 	C 	0.091	0.009	0.0717	0.37
Mof_C 	C 	0.5718	0.7832	0.0741	-1.384
Mof_C 	C 	0.891	0.148	0.1947	0.155
Mof_C 	C 	0.6054	0.6022	0.4294	0.309
Mof_C 	C 	0.1318	0.9664	0.1442	0.278
Mof_C 	C 	0.715	0.7866	0.1155	-0.465
Mof_C 	C 	0.7132	0.4	0.2666	0.003
Mof_C 	C 	0.1481	0.9652	0.2613	-1.593
Mof_C 	C 	0.6353	0.1502	0.2018	-0.552
Mof_C 	C 	0.9567	0.5176	0.4158	0.286
Mof_C 	C 	0.2893	0.4692	0.7182	-1.754
Mof_C 	C 	0.4836	0.733	0.2653	-1.343
Mof_C 	C 	0.704	0.9318	0.24	0.017
Mof_C 	C 	0.3652	0.7464	0.5756	-0.249
Mof_C 	C 	0.6823	0.283	0.3594	0.339
Mof_C 	C 	0.5141	0.9496	0.7731	-0.034
Mof_C 	C 	0.6892	0.6636	0.296	0.363
Mof_C 	C 	0.9734	0.702	0.2697	-0.065
Mof_C 	C 	0.7156	0.161	0.2146	0.432
Mof_C 	C 	0.07	0.4492	0.2975	-0.522
Mof_C 	C 	0.2145	0.1502	0.7982	-0.527
Mof_C 	C 	0.1459	0.6854	0.2851	-0.159
Mof_C 	C 	0.7076	0.8728	0.2667	0.016
Mof_C 	C 	0.2432	0.3136	0.1408	-1.204
Mof_C 	C 	0.017	0.3296	0.1361	0.337
Mof_C 	C 	0.948	0.437	0.7033	-0.115
Mof_C 	C 	0.9856	0.8126	0.387	-0.481
Mof_C 	C 	0.0579	0.9726	0.868	0.238
Mof_C 	C 	0.925	0.8304	0.3553	0.326
Mof_C 	C 	0.961	0.148	0.8053	0.08
Mof_C 	C 	0.645	0.7832	0.9259	-1.403
Mof_C 	C 	0.6345	0.685	0.8949	-1.489
Mof_C 	C 	0.2551	0.2878	0.643	-1.206
Mof_C 	C 	0.874	0.8348	0.1064	0.157
Mof_C 	C 	0.0347	0.283	0.6406	0.411
Mof_C 	C 	0.4432	0.3136	0.8592	-1.211
Mof_C 	C 	0.2213	0.3714	0.2561	-1.673
Mof_C 	C 	0.97	0.3694	0.5734	-0.273
Mof_C 	C 	0.5792	0.6204	0.233	-1.329
Mof_C 	C 	0.1234	0.161	0.7854	0.398
Mof_C 	C 	0.8226	0.3362	0.8364	0.088
Mof_C 	C 	0.1616	0.2136	0.2519	-0.048
Mof_C 	C 	0.6451	0.129	0.1588	0.322
Mof_C 	C 	0.8501	0.6632	0.3131	0.065
Mof_C 	C 	0.7561	0.3034	0.8622	-0.224
Mof_C 	C 	0.7994	0.2262	0.7315	-0.009
Mof_C 	C 	0.8153	0.1296	0.1413	0.217
Mof_C 	C 	0.4408	0.2794	0.4438	-1.153
Mof_C 	C 	0.2838	0.2988	0.0665	-1.145
Mof_C 	C 	0.1108	0.7244	0.2059	-0.215
Mof_C 	C 	0.2695	0.917	0.9518	0.396
Mof_C 	C 	0.9018	0.3476	0.6038	0.177
Mof_C 	C 	0.4571	0.2878	0.357	-1.172
Mof_C 	C 	0.7614	0.3044	0.3626	-0.23
Mof_C 	C 	0.6447	0.948	0.2032	-0.177
Mof_C 	C 	0.2018	0.8126	0.613	-0.469
Mof_C 	C 	0.4519	0.7642	0.8566	0.374
Mof_C 	C 	0.8595	0.2828	0.3319	0.092
Mof_C 	C 	0.7535	0.6536	0.3258	-0.217
Mof_C 	C 	0.1171	0.258	0.075	0.186
Mof_C 	C 	0.8875	0.4794	0.3572	0.128
Mof_C 	C 	0.1569	0.476	0.2192	-1.599
Mof_C 	C 	0.1648	0.7244	0.7941	-0.144
Mof_C 	C 	0.9405	0.3034	0.1378	-0.245
Mof_C 	C 	0.771	0.9486	0.8046	-1.661
Mof_C 	C 	0.1687	0.6854	0.7149	-0.089
Mof_C 	C 	0.2446	0.8304	0.6447	0.33
Mof_C 	C 	0.5391	0.1398	0.2783	-1.591
Mof_C 	C 	0.054	0.6626	0.2962	-0.047
Mof_C 	C 	0.5116	0.271	0.3967	0.792
Mof_C 	C 	0.4413	0.8332	0.917	0.234
Mof_C 	C 	0.6008	0.878	0.2888	-0.144
Mof_C 	C 	0.2174	0.271	0.6033	0.83
Mof_C 	C 	0.4984	0.7866	0.8845	-0.464
Mof_C 	C 	0.6419	0.6292	0.6318	0.109
Mof_C 	C 	0.1739	0.1502	0.2296	-0.092
Mof_C 	C 	0.816	0.6598	0.7232	0.89
Mof_C 	C 	0.615	0.437	0.2967	-0.123
Mof_C 	C 	0.7124	0.4048	0.2171	0.027
Mof_C 	C 	0.2804	0.9486	0.1954	-1.697
Mof_C 	C 	0.0925	0.852	0.6103	0.962
Mof_C 	C 	0.64	0.6148	0.3808	-0.193
Mof_C 	C 	0.6249	0.258	0.925	0.192
Mof_C 	C 	0.9887	0.4384	0.2857	0.285
Mof_C 	C 	0.168	0.4438	0.2657	1.209
Mof_C 	C 	0.5322	0.421	0.2327	-0.023
Mof_C 	C 	0.3855	0.161	0.7887	-1.481
Mof_C 	C 	0.5814	0.348	0.4235	0.195
Mof_C 	C 	0.9018	0.9664	0.8558	0.319
Mof_C 	C 	0.8462	0.806	0.3582	-0.221
Mof_C 	C 	0.8051	0.8572	0.0785	-0.243
Mof_C 	C 	0.8577	0.2828	0.6681	0.118
Mof_C 	C 	0.4721	0.338	0.8987	0.824
Mof_C 	C 	0.1634	0.099	0.9158	0.413
Mof_C 	C 	0.93	0.6336	0.7023	-1.286
Mof_C 	C 	0.1029	0.3048	0.6101	-0.462
Mof_C 	C 	0.6248	0.2136	0.7481	-0.076
Mof_C 	C 	0.1824	0.6826	0.2343	0.016
Mof_C 	C 	0.0468	0.421	0.7673	0.125
Mof_C 	C 	0.9299	0.77	0.1661	0.111
Mof_C 	C 	0.7932	0.2546	0.892	0.119
Mof_C 	C 	0.9342	0.3044	0.6374	-0.301
Mof_C 	C 	0.9695	0.9726	0.132	0.128
Mof_C 	C 	0.3246	0.702	0.7303	0.034
Mof_C 	C 	0.5503	0.782	0.1558	-1.45
Mof_C 	C 	0.3211	0.1398	0.7217	-1.574
Mof_C 	C 	0.4535	0.161	0.2113	-1.495
Mof_C 	C 	0.9441	0.9536	0.1759	-0.302
Mof_C 	C 	0.8004	0.6204	0.767	-1.3
Mof_C 	C 	0.7637	0.1496	0.791	-0.17
Mof_C 	C 	0.8868	0.4	0.7334	-0.024
Mof_C 	C 	0.0717	0.8396	0.5646	-1.408
Mof_C 	C 	0.0601	0.475	0.3391	0.303
Mof_C 	C 	0.2036	0.9492	0.8123	0.161
Mof_C 	C 	0.9744	0.2262	0.2685	-0.01
Mof_C 	C 	0.7002	0.2412	0.7156	-0.136
Mof_C 	C 	0.0141	0.9254	0.383	-1.2
Mof_C 	C 	0.453	0.4126	0.9019	-1.284
Mof_C 	C 	0.1462	0.1188	0.8715	-0.282
Mof_C 	C 	0.8367	0.1664	0.7549	0.016
Mof_C 	C 	0.6606	0.3694	0.4266	-0.196
Mof_C 	C 	0.5409	0.4902	0.631	-0.214
Mof_C 	C 	0.8635	0.7882	0.1388	-0.282
Mof_C 	C 	0.1023	0.9536	0.8241	-0.304
Mof_C 	C 	0.4073	0.3714	0.7439	-1.709
Mof_C 	C 	0.6003	0.6494	0.3086	-0.437
Mof_C 	C 	0.8867	0.9652	0.7387	-1.53
Mof_C 	C 	0.6294	0.7582	0.1129	1.004
Mof_C 	C 	0.7255	0.8332	0.083	0.236
Mof_C 	C 	0.3642	0.9318	0.76	0.017
Mof_C 	C 	0.222	0.8546	0.224	-1.729
Mof_C 	C 	0.752	0.4416	0.6965	0.101
Mof_C 	C 	0.9305	0.4278	0.5431	0.373
Mof_C 	C 	0.3882	0.4438	0.7343	1.244
Mof_C 	C 	0.9522	0.2546	0.108	0.08
Mof_C 	C 	0.9673	0.7706	0.4215	0.19
Mof_C 	C 	0.5257	0.5176	0.5842	0.319
Mof_C 	C 	0.5316	0.4178	0.2833	-0.104
Mof_C 	C 	0.735	0.1188	0.1285	-0.316
Mof_C 	C 	0.5729	0.4384	0.7143	0.36
Mof_C 	C 	0.2931	0.1758	0.7663	1.088
Mof_C 	C 	0.2621	0.7706	0.5785	0.257
Mof_C 	C 	0.9577	0.979	0.8839	-0.294
Mof_C 	C 	0.7681	0.1766	0.9543	0.34
Mof_C 	C 	0.3478	0.806	0.6418	-0.225
Mof_C 	C 	0.7506	0.3476	0.3962	0.119
Mof_C 	C 	0.6417	0.4278	0.4569	0.351
Mof_C 	C 	0.7503	0.6494	0.6914	-0.428
Mof_C 	C 	0.6534	0.3296	0.8639	0.306
Mof_C 	C 	0.1344	0.4126	0.0981	-1.282
Mof_C 	C 	0.1065	0.9474	0.1881	-0.545
Mof_C 	C 	0.1891	0.9282	0.217	1.222
Mof_C 	C 	0.5326	0.888	0.253	-0.081
Mof_C 	C 	0.7993	0.625	0.649	0.208
Mof_C 	C 	0.0126	0.941	0.2039	0.448
Mof_C 	C 	0.0551	0.1296	0.8587	0.169
Mof_C 	C 	0.0555	0.852	0.3897	0.991
Mof_N 	N 	0.9297	0.732	0.2018	-0.31
Mof_N 	N 	0.2569	0.9302	0.7744	-0.296
Mof_N 	N 	0.774	0.8694	0.2974	-0.299
Mof_N 	N 	0.3566	0.8694	0.7026	-0.299
Mof_N 	N 	0.3383	0.732	0.7982	-0.288
Mof_N 	N 	0.8792	0.246	0.299	-0.287
Mof_N 	N 	0.4265	0.6882	0.726	-0.278
Mof_N 	N 	0.8129	0.9302	0.2256	-0.297
Mof_N 	N 	0.818	0.373	0.1968	-0.305
Mof_N 	N 	0.8748	0.246	0.701	-0.293
Mof_N 	N 	0.7809	0.4154	0.729	-0.285
Mof_N 	N 	0.8853	0.6882	0.274	-0.266
Mof_N 	N 	0.8037	0.4154	0.271	-0.287
Mof_N 	N 	0.9343	0.1686	0.766	-0.282
Mof_N 	N 	0.8971	0.1686	0.234	-0.282
Mof_N 	N 	0.809	0.373	0.8032	-0.312
Mof_O 	O 	0.2476	0.0856	0.925	-0.329
Mof_O 	O 	0.5373	0.5764	0.4378	-0.295
Mof_O 	O 	0.3899	0.6678	0.521	-0.311
Mof_O 	O 	0.8623	0.1596	0.9584	-0.287
Mof_O 	O 	0.8402	0.4402	0.5424	-0.307
Mof_O 	O 	0.6649	0.5936	0.4593	-0.284
Mof_O 	O 	0.7161	0.145	0.975	-0.3
Mof_O 	O 	0.9423	0.6678	0.479	-0.321
Mof_O 	O 	0.0128	0.3664	0.1708	-0.466
Mof_O 	O 	0.0344	0.5284	0.4212	-0.259
Mof_O 	O 	0.6208	0.3664	0.8292	-0.472
Mof_O 	O 	0.327	0.9418	0.9679	-0.289
Mof_O 	O 	0.8133	0.088	0.0549	-0.325
Mof_O 	O 	0.9479	0.0074	0.9578	-0.348
Mof_O 	O 	0.9959	0.448	0.5176	-0.314
Mof_O 	O 	0.7092	0.185	0.2536	-0.54
Mof_O 	O 	0.5108	0.7282	0.8224	-0.511
Mof_O 	O 	0.6005	0.6896	0.7429	-0.508
Mof_O 	O 	0.7196	0.4402	0.4576	-0.302
Mof_O 	O 	0.761	0.7282	0.1776	-0.513
Mof_O 	O 	0.873	0.5258	0.4446	-0.274
Mof_O 	O 	0.5561	0.448	0.4824	-0.297
Mof_O 	O 	0.525	0.679	0.5369	-0.323
Mof_O 	O 	0.7312	0.9418	0.0321	-0.296
Mof_O 	O 	0.1861	0.8622	0.6834	-0.47
Mof_O 	O 	0.6012	0.5258	0.5554	-0.28
Mof_O 	O 	0.0665	0.2458	0.6743	-0.499
Mof_O 	O 	0.9781	0.1596	0.0416	-0.314
Mof_O 	O 	0.7415	0.5936	0.5407	-0.284
Mof_O 	O 	0.9517	0.8622	0.3166	-0.484
Mof_O 	O 	0.8863	0.5764	0.5622	-0.298
Mof_O 	O 	0.1058	0.185	0.7464	-0.518
Mof_O 	O 	0.0987	0.088	0.9451	-0.302
Mof_O 	O 	0.0879	0.9176	0.7539	-0.494
Mof_O 	O 	0.1862	0.9378	0.9555	-0.334
Mof_O 	O 	0.6877	0.2458	0.3257	-0.497
Mof_O 	O 	0.5798	0.4126	0.7569	-0.488
Mof_O 	O 	0.8115	0.0122	0.9381	-0.342
Mof_O 	O 	0.796	0.679	0.4631	-0.321
Mof_O 	O 	0.0076	0.4126	0.2431	-0.448
Mof_O 	O 	0.0447	0.0074	0.0422	-0.318
Mof_O 	O 	0.1763	0.0122	0.0619	-0.34
Mof_O 	O 	0.9945	0.9176	0.2461	-0.537
Mof_O 	O 	0.6668	0.0856	0.075	-0.336
Mof_O 	O 	0.1389	0.145	0.025	-0.313
Mof_O 	O 	0.876	0.9378	0.0445	-0.353
Mof_O 	O 	0.7099	0.6896	0.2571	-0.511
Mof_O 	O 	0.4372	0.5284	0.5788	-0.298
_end
