data_functionalizedCrystal
_audit_creation_method	'EQeq! by Chris Wilmer'
_symmetry_space_group_name_H-M	'P1'
_symmetry_Int_Tables_number	1
_symmetry_cell_setting	triclinic
loop_
_symmetry_equiv_pos_as_xyz
  x,y,z
_cell_length_a	16.7094
_cell_length_b	20.2857
_cell_length_c	17.1936
_cell_angle_alpha	90
_cell_angle_beta	99.178
_cell_angle_gamma	90
loop_
_atom_site_label
_atom_site_type_symbol
_atom_site_fract_x
_atom_site_fract_y
_atom_site_fract_z
_atom_site_charge
Mof_Mn	Mn	0.96912	0.83354	0.24752	1.037
Mof_Mn	Mn	0.86416	0.87503	0.05289	0.813
Mof_Mn	Mn	0.08766	0.85221	0.44303	0.853
Mof_S 	S 	0.45205	0.7251	0.22902	0.273
Mof_S 	S 	0.10693	0.51409	0.95779	0.284
Mof_S 	S 	0.0427	0.43195	0.34433	0.267
Mof_O 	O 	0.0149	0.7568	0.3253	-0.418
Mof_O 	O 	0.5684	0.4177	0.324	-0.43
Mof_O 	O 	0.9868	0.76861	0.1534	-0.38
Mof_O 	O 	0.4095	0.3685	0.2543	-0.391
Mof_O 	O 	0.8429	0.80712	0.24341	-0.38
Mof_O 	O 	0.4626	0.61077	0.8597	-0.409
Mof_O 	O 	0.7989	0.8129	0.1145	-0.408
Mof_O 	O 	0.9476	0.80423	0.0302	-0.391
Mof_O 	O 	0.5511	0.456	0.4392	-0.364
Mof_O 	O 	0.3414	0.3862	0.1341	-0.419
Mof_O 	O 	0.0812	0.7511	0.4457	-0.413
Mof_O 	O 	0.4929	0.6	0.9873	-0.384
Mof_O 	O 	0.4264	0.765	0.2895	-0.213
Mof_O 	O 	0.4033	0.72184	0.1532	-0.207
Mof_O 	O 	0.0619	0.50031	0.8823	-0.221
Mof_O 	O 	0.1101	0.46704	0.0198	-0.218
Mof_O 	O 	0.0503	0.40166	0.4198	-0.212
Mof_O 	O 	0.9759	0.41598	0.2848	-0.208
Mof_C 	C 	0.7888	0.8033	0.1842	0.397
Mof_C 	C 	0.7055	0.7841	0.1969	-0.126
Mof_C 	C 	0.6855	0.7768	0.272	0.042
Mof_H 	H 	0.7251	0.7833	0.3159	0.034
Mof_C 	C 	0.608	0.7599	0.2822	-0.085
Mof_H 	H 	0.5946	0.7557	0.3325	0.072
Mof_C 	C 	0.5506	0.7494	0.2164	0.02
Mof_C 	C 	0.569	0.757	0.1413	-0.086
Mof_H 	H 	0.5295	0.75	0.0975	0.084
Mof_C 	C 	0.6459	0.7749	0.1321	0.041
Mof_H 	H 	0.6582	0.7811	0.0817	0.031
Mof_C 	C 	0.4672	0.6448	0.2665	0.007
Mof_C 	C 	0.4702	0.6347	0.347	-0.086
Mof_H 	H 	0.4591	0.669	0.3796	0.075
Mof_C 	C 	0.4898	0.5732	0.3771	0.024
Mof_H 	H 	0.491	0.5653	0.4306	0.045
Mof_C 	C 	0.5078	0.5229	0.3286	-0.115
Mof_C 	C 	0.5013	0.5329	0.2479	0.034
Mof_H 	H 	0.5108	0.4983	0.2153	0.031
Mof_C 	C 	0.4806	0.594	0.2163	-0.088
Mof_H 	H 	0.4758	0.601	0.1623	0.077
Mof_C 	C 	0.5421	0.4611	0.3655	0.363
Mof_C 	C 	0.9807	0.7637	0.0799	0.39
Mof_C 	C 	0.0146	0.7021	0.0484	-0.103
Mof_C 	C 	0.0039	0.6907	0.9686	0.025
Mof_H 	H 	0.977	0.7216	0.934	0.048
Mof_C 	C 	0.0329	0.6333	0.9394	-0.07
Mof_H 	H 	0.0261	0.6253	0.8855	0.082
Mof_C 	C 	0.0722	0.5883	0.9925	0.009
Mof_C 	C 	0.0826	0.5999	0.0722	-0.065
Mof_H 	H 	0.1092	0.5689	0.1071	0.072
Mof_C 	C 	0.054	0.657	0.1004	0.032
Mof_H 	H 	0.0613	0.6651	0.1543	0.038
Mof_C 	C 	0.2069	0.5327	0.9452	0.01
Mof_C 	C 	0.2214	0.5609	0.8761	-0.091
Mof_H 	H 	0.1789	0.5675	0.8349	0.084
Mof_C 	C 	0.299	0.5796	0.8681	0.038
Mof_H 	H 	0.3093	0.5983	0.8213	0.034
Mof_C 	C 	0.3607	0.5701	0.9299	-0.119
Mof_C 	C 	0.3456	0.5401	0.9987	0.036
Mof_H 	H 	0.3881	0.5327	0.0398	0.028
Mof_C 	C 	0.2687	0.5212	0.0065	-0.093
Mof_H 	H 	0.2584	0.501	0.0524	0.076
Mof_C 	C 	0.4437	0.5949	0.9245	0.371
Mof_C 	C 	0.0471	0.7252	0.3825	0.429
Mof_C 	C 	0.0469	0.6522	0.3754	-0.158
Mof_C 	C 	0.0173	0.6242	0.3032	0.077
Mof_H 	H 	0.9978	0.6511	0.2607	0.024
Mof_C 	C 	0.0165	0.5574	0.2938	-0.124
Mof_H 	H 	0.997	0.5387	0.245	0.102
Mof_C 	C 	0.0447	0.5182	0.3573	0.036
Mof_C 	C 	0.0725	0.5445	0.4288	-0.119
Mof_H 	H 	0.0901	0.5172	0.4716	0.086
Mof_C 	C 	0.0744	0.6121	0.4376	0.074
Mof_H 	H 	0.0945	0.6305	0.4863	0.021
Mof_C 	C 	0.1313	0.4164	0.304	0.023
Mof_C 	C 	0.1308	0.4255	0.2244	-0.087
Mof_H 	H 	0.0839	0.4393	0.192	0.089
Mof_C 	C 	0.201	0.4137	0.1934	0.045
Mof_H 	H 	0.2011	0.4187	0.1396	0.042
Mof_C 	C 	0.2708	0.3948	0.242	-0.124
Mof_C 	C 	0.27	0.3852	0.3215	0.045
Mof_H 	H 	0.3169	0.3714	0.354	0.034
Mof_C 	C 	0.1999	0.3959	0.3529	-0.089
Mof_H 	H 	0.1993	0.3893	0.4063	0.08
Mof_C 	C 	0.3472	0.3823	0.2076	0.409
Mof_Mn	Mn	0.53088	0.33354	0.25248	1.038
Mof_Mn	Mn	0.63584	0.37503	0.44711	0.814
Mof_Mn	Mn	0.41234	0.35221	0.05697	0.853
Mof_S 	S 	0.04795	0.2251	0.27098	0.273
Mof_S 	S 	0.39307	0.01409	0.54221	0.282
Mof_S 	S 	0.4573	0.93195	0.15567	0.266
Mof_O 	O 	0.4851	0.2568	0.1747	-0.419
Mof_O 	O 	0.9316	0.9177	0.176	-0.43
Mof_O 	O 	0.5132	0.26861	0.3466	-0.381
Mof_O 	O 	0.0905	0.8685	0.2457	-0.39
Mof_O 	O 	0.6571	0.30712	0.25659	-0.38
Mof_O 	O 	0.0374	0.11077	0.6403	-0.41
Mof_O 	O 	0.7011	0.3129	0.3855	-0.408
Mof_O 	O 	0.5524	0.30423	0.4698	-0.392
Mof_O 	O 	0.9489	0.956	0.0608	-0.364
Mof_O 	O 	0.1586	0.8862	0.3659	-0.418
Mof_O 	O 	0.4188	0.2511	0.0543	-0.413
Mof_O 	O 	0.0071	0.1	0.5127	-0.385
Mof_O 	O 	0.0736	0.265	0.2105	-0.213
Mof_O 	O 	0.0967	0.22184	0.3468	-0.208
Mof_O 	O 	0.4381	0.00031	0.6177	-0.22
Mof_O 	O 	0.3899	0.96704	0.4802	-0.218
Mof_O 	O 	0.4497	0.90166	0.0802	-0.212
Mof_O 	O 	0.5241	0.91598	0.2152	-0.208
Mof_C 	C 	0.7112	0.3033	0.3158	0.397
Mof_C 	C 	0.7945	0.2841	0.3031	-0.126
Mof_C 	C 	0.8145	0.2768	0.228	0.042
Mof_H 	H 	0.7749	0.2833	0.1841	0.034
Mof_C 	C 	0.892	0.2599	0.2178	-0.085
Mof_H 	H 	0.9054	0.2557	0.1675	0.071
Mof_C 	C 	0.9494	0.2494	0.2836	0.019
Mof_C 	C 	0.931	0.257	0.3587	-0.086
Mof_H 	H 	0.9705	0.25	0.4025	0.084
Mof_C 	C 	0.8541	0.2749	0.3679	0.041
Mof_H 	H 	0.8418	0.2811	0.4183	0.032
Mof_C 	C 	0.0328	0.1448	0.2335	0.008
Mof_C 	C 	0.0298	0.1347	0.153	-0.087
Mof_H 	H 	0.0409	0.169	0.1204	0.076
Mof_C 	C 	0.0102	0.0732	0.1229	0.025
Mof_H 	H 	0.009	0.0653	0.0694	0.045
Mof_C 	C 	0.9922	0.0229	0.1714	-0.116
Mof_C 	C 	0.9987	0.0329	0.2521	0.036
Mof_H 	H 	0.9892	0.9983	0.2847	0.03
Mof_C 	C 	0.0194	0.094	0.2837	-0.089
Mof_H 	H 	0.0242	0.101	0.3377	0.078
Mof_C 	C 	0.9579	0.9611	0.1345	0.363
Mof_C 	C 	0.5193	0.2637	0.4201	0.395
Mof_C 	C 	0.4854	0.2021	0.4516	-0.114
Mof_C 	C 	0.4961	0.1907	0.5314	0.038
Mof_H 	H 	0.523	0.2216	0.566	0.043
Mof_C 	C 	0.4671	0.1333	0.5606	-0.079
Mof_H 	H 	0.4739	0.1253	0.6145	0.085
Mof_C 	C 	0.4278	0.0883	0.5075	0.016
Mof_C 	C 	0.4174	0.0999	0.4278	-0.075
Mof_H 	H 	0.3908	0.0689	0.3929	0.075
Mof_C 	C 	0.446	0.157	0.3996	0.041
Mof_H 	H 	0.4387	0.1651	0.3457	0.035
Mof_C 	C 	0.2931	0.0327	0.5548	0.014
Mof_C 	C 	0.2786	0.0609	0.6239	-0.094
Mof_H 	H 	0.3211	0.0675	0.6651	0.085
Mof_C 	C 	0.201	0.0796	0.6319	0.041
Mof_H 	H 	0.1907	0.0983	0.6787	0.033
Mof_C 	C 	0.1393	0.0701	0.5701	-0.122
Mof_C 	C 	0.1544	0.0401	0.5013	0.042
Mof_H 	H 	0.1119	0.0327	0.4602	0.026
Mof_C 	C 	0.2313	0.0212	0.4935	-0.098
Mof_H 	H 	0.2416	0.001	0.4476	0.078
Mof_C 	C 	0.0563	0.0949	0.5755	0.372
Mof_C 	C 	0.4529	0.2252	0.1175	0.429
Mof_C 	C 	0.4531	0.1522	0.1246	-0.157
Mof_C 	C 	0.4827	0.1242	0.1968	0.075
Mof_H 	H 	0.5022	0.1511	0.2393	0.026
Mof_C 	C 	0.4835	0.0574	0.2062	-0.125
Mof_H 	H 	0.503	0.0387	0.255	0.103
Mof_C 	C 	0.4553	0.0182	0.1427	0.036
Mof_C 	C 	0.4275	0.0445	0.0712	-0.119
Mof_H 	H 	0.4099	0.0172	0.0284	0.086
Mof_C 	C 	0.4256	0.1121	0.0624	0.073
Mof_H 	H 	0.4055	0.1305	0.0137	0.021
Mof_C 	C 	0.3687	0.9164	0.196	0.023
Mof_C 	C 	0.3692	0.9255	0.2756	-0.087
Mof_H 	H 	0.4161	0.9393	0.308	0.088
Mof_C 	C 	0.299	0.9137	0.3066	0.045
Mof_H 	H 	0.2989	0.9187	0.3604	0.042
Mof_C 	C 	0.2292	0.8948	0.258	-0.123
Mof_C 	C 	0.23	0.8852	0.1785	0.045
Mof_H 	H 	0.1831	0.8714	0.146	0.034
Mof_C 	C 	0.3001	0.8959	0.1471	-0.089
Mof_H 	H 	0.3007	0.8893	0.0937	0.08
Mof_C 	C 	0.1528	0.8823	0.2924	0.409
Mof_Mn	Mn	0.03088	0.16646	0.75248	1.037
Mof_Mn	Mn	0.13584	0.12497	0.94711	0.813
Mof_Mn	Mn	0.91234	0.14779	0.55697	0.853
Mof_S 	S 	0.54795	0.2749	0.77098	0.273
Mof_S 	S 	0.89307	0.48591	0.04221	0.284
Mof_S 	S 	0.9573	0.56805	0.65567	0.267
Mof_O 	O 	0.9851	0.2432	0.6747	-0.418
Mof_O 	O 	0.4316	0.5823	0.676	-0.43
Mof_O 	O 	0.0132	0.23139	0.8466	-0.38
Mof_O 	O 	0.5905	0.6315	0.7457	-0.391
Mof_O 	O 	0.1571	0.19288	0.75659	-0.38
Mof_O 	O 	0.5374	0.38923	0.1403	-0.409
Mof_O 	O 	0.2011	0.1871	0.8855	-0.408
Mof_O 	O 	0.0524	0.19577	0.9698	-0.391
Mof_O 	O 	0.4489	0.544	0.5608	-0.364
Mof_O 	O 	0.6586	0.6138	0.8659	-0.419
Mof_O 	O 	0.9188	0.2489	0.5543	-0.413
Mof_O 	O 	0.5071	0.4	0.0127	-0.384
Mof_O 	O 	0.5736	0.235	0.7105	-0.213
Mof_O 	O 	0.5967	0.27816	0.8468	-0.207
Mof_O 	O 	0.9381	0.49969	0.1177	-0.221
Mof_O 	O 	0.8899	0.53296	0.9802	-0.218
Mof_O 	O 	0.9497	0.59834	0.5802	-0.212
Mof_O 	O 	0.0241	0.58402	0.7152	-0.208
Mof_C 	C 	0.2112	0.1967	0.8158	0.397
Mof_C 	C 	0.2945	0.2159	0.8031	-0.126
Mof_C 	C 	0.3145	0.2232	0.728	0.042
Mof_H 	H 	0.2749	0.2167	0.6841	0.034
Mof_C 	C 	0.392	0.2401	0.7178	-0.085
Mof_H 	H 	0.4054	0.2443	0.6675	0.072
Mof_C 	C 	0.4494	0.2506	0.7836	0.02
Mof_C 	C 	0.431	0.243	0.8587	-0.086
Mof_H 	H 	0.4705	0.25	0.9025	0.084
Mof_C 	C 	0.3541	0.2251	0.8679	0.041
Mof_H 	H 	0.3418	0.2189	0.9183	0.031
Mof_C 	C 	0.5328	0.3552	0.7335	0.007
Mof_C 	C 	0.5298	0.3653	0.653	-0.086
Mof_H 	H 	0.5409	0.331	0.6204	0.075
Mof_C 	C 	0.5102	0.4268	0.6229	0.024
Mof_H 	H 	0.509	0.4347	0.5694	0.045
Mof_C 	C 	0.4922	0.4771	0.6714	-0.115
Mof_C 	C 	0.4987	0.4671	0.7521	0.034
Mof_H 	H 	0.4892	0.5017	0.7847	0.031
Mof_C 	C 	0.5194	0.406	0.7837	-0.088
Mof_H 	H 	0.5242	0.399	0.8377	0.077
Mof_C 	C 	0.4579	0.5389	0.6345	0.363
Mof_C 	C 	0.0193	0.2363	0.9201	0.39
Mof_C 	C 	0.9854	0.2979	0.9516	-0.103
Mof_C 	C 	0.9961	0.3093	0.0314	0.025
Mof_H 	H 	0.023	0.2784	0.066	0.048
Mof_C 	C 	0.9671	0.3667	0.0606	-0.07
Mof_H 	H 	0.9739	0.3747	0.1145	0.082
Mof_C 	C 	0.9278	0.4117	0.0075	0.009
Mof_C 	C 	0.9174	0.4001	0.9278	-0.065
Mof_H 	H 	0.8908	0.4311	0.8929	0.072
Mof_C 	C 	0.946	0.343	0.8996	0.032
Mof_H 	H 	0.9387	0.3349	0.8457	0.038
Mof_C 	C 	0.7931	0.4673	0.0548	0.01
Mof_C 	C 	0.7786	0.4391	0.1239	-0.091
Mof_H 	H 	0.8211	0.4325	0.1651	0.084
Mof_C 	C 	0.701	0.4204	0.1319	0.038
Mof_H 	H 	0.6907	0.4017	0.1787	0.034
Mof_C 	C 	0.6393	0.4299	0.0701	-0.119
Mof_C 	C 	0.6544	0.4599	0.0013	0.036
Mof_H 	H 	0.6119	0.4673	0.9602	0.028
Mof_C 	C 	0.7313	0.4788	0.9935	-0.093
Mof_H 	H 	0.7416	0.499	0.9476	0.076
Mof_C 	C 	0.5563	0.4051	0.0755	0.371
Mof_C 	C 	0.9529	0.2748	0.6175	0.429
Mof_C 	C 	0.9531	0.3478	0.6246	-0.158
Mof_C 	C 	0.9827	0.3758	0.6968	0.077
Mof_H 	H 	0.0022	0.3489	0.7393	0.024
Mof_C 	C 	0.9835	0.4426	0.7062	-0.124
Mof_H 	H 	0.003	0.4613	0.755	0.102
Mof_C 	C 	0.9553	0.4818	0.6427	0.036
Mof_C 	C 	0.9275	0.4555	0.5712	-0.119
Mof_H 	H 	0.9099	0.4828	0.5284	0.086
Mof_C 	C 	0.9256	0.3879	0.5624	0.074
Mof_H 	H 	0.9055	0.3695	0.5137	0.021
Mof_C 	C 	0.8687	0.5836	0.696	0.023
Mof_C 	C 	0.8692	0.5745	0.7756	-0.087
Mof_H 	H 	0.9161	0.5607	0.808	0.089
Mof_C 	C 	0.799	0.5863	0.8066	0.045
Mof_H 	H 	0.7989	0.5813	0.8604	0.042
Mof_C 	C 	0.7292	0.6052	0.758	-0.124
Mof_C 	C 	0.73	0.6148	0.6785	0.045
Mof_H 	H 	0.6831	0.6286	0.646	0.034
Mof_C 	C 	0.8001	0.6041	0.6471	-0.089
Mof_H 	H 	0.8007	0.6107	0.5937	0.08
Mof_C 	C 	0.6528	0.6177	0.7924	0.409
Mof_Mn	Mn	0.46912	0.66646	0.74752	1.038
Mof_Mn	Mn	0.36416	0.62497	0.55289	0.814
Mof_Mn	Mn	0.58766	0.64779	0.94303	0.853
Mof_S 	S 	0.95205	0.7749	0.72902	0.273
Mof_S 	S 	0.60693	0.98591	0.45779	0.282
Mof_S 	S 	0.5427	0.06805	0.84433	0.266
Mof_O 	O 	0.5149	0.7432	0.8253	-0.419
Mof_O 	O 	0.0684	0.0823	0.824	-0.43
Mof_O 	O 	0.4868	0.73139	0.6534	-0.381
Mof_O 	O 	0.9095	0.1315	0.7543	-0.39
Mof_O 	O 	0.3429	0.69288	0.74341	-0.38
Mof_O 	O 	0.9626	0.88923	0.3597	-0.41
Mof_O 	O 	0.2989	0.6871	0.6145	-0.408
Mof_O 	O 	0.4476	0.69577	0.5302	-0.392
Mof_O 	O 	0.0511	0.044	0.9392	-0.364
Mof_O 	O 	0.8414	0.1138	0.6341	-0.418
Mof_O 	O 	0.5812	0.7489	0.9457	-0.413
Mof_O 	O 	0.9929	0.9	0.4873	-0.385
Mof_O 	O 	0.9264	0.735	0.7895	-0.213
Mof_O 	O 	0.9033	0.77816	0.6532	-0.208
Mof_O 	O 	0.5619	0.99969	0.3823	-0.22
Mof_O 	O 	0.6101	0.03296	0.5198	-0.218
Mof_O 	O 	0.5503	0.09834	0.9198	-0.212
Mof_O 	O 	0.4759	0.08402	0.7848	-0.208
Mof_C 	C 	0.2888	0.6967	0.6842	0.397
Mof_C 	C 	0.2055	0.7159	0.6969	-0.126
Mof_C 	C 	0.1855	0.7232	0.772	0.042
Mof_H 	H 	0.2251	0.7167	0.8159	0.034
Mof_C 	C 	0.108	0.7401	0.7822	-0.085
Mof_H 	H 	0.0946	0.7443	0.8325	0.071
Mof_C 	C 	0.0506	0.7506	0.7164	0.019
Mof_C 	C 	0.069	0.743	0.6413	-0.086
Mof_H 	H 	0.0295	0.75	0.5975	0.084
Mof_C 	C 	0.1459	0.7251	0.6321	0.041
Mof_H 	H 	0.1582	0.7189	0.5817	0.032
Mof_C 	C 	0.9672	0.8552	0.7665	0.008
Mof_C 	C 	0.9702	0.8653	0.847	-0.087
Mof_H 	H 	0.9591	0.831	0.8796	0.076
Mof_C 	C 	0.9898	0.9268	0.8771	0.025
Mof_H 	H 	0.991	0.9347	0.9306	0.045
Mof_C 	C 	0.0078	0.9771	0.8286	-0.116
Mof_C 	C 	0.0013	0.9671	0.7479	0.036
Mof_H 	H 	0.0108	0.0017	0.7153	0.03
Mof_C 	C 	0.9806	0.906	0.7163	-0.089
Mof_H 	H 	0.9758	0.899	0.6623	0.078
Mof_C 	C 	0.0421	0.0389	0.8655	0.363
Mof_C 	C 	0.4807	0.7363	0.5799	0.395
Mof_C 	C 	0.5146	0.7979	0.5484	-0.114
Mof_C 	C 	0.5039	0.8093	0.4686	0.038
Mof_H 	H 	0.477	0.7784	0.434	0.043
Mof_C 	C 	0.5329	0.8667	0.4394	-0.079
Mof_H 	H 	0.5261	0.8747	0.3855	0.085
Mof_C 	C 	0.5722	0.9117	0.4925	0.016
Mof_C 	C 	0.5826	0.9001	0.5722	-0.075
Mof_H 	H 	0.6092	0.9311	0.6071	0.075
Mof_C 	C 	0.554	0.843	0.6004	0.041
Mof_H 	H 	0.5613	0.8349	0.6543	0.035
Mof_C 	C 	0.7069	0.9673	0.4452	0.014
Mof_C 	C 	0.7214	0.9391	0.3761	-0.094
Mof_H 	H 	0.6789	0.9325	0.3349	0.085
Mof_C 	C 	0.799	0.9204	0.3681	0.041
Mof_H 	H 	0.8093	0.9017	0.3213	0.033
Mof_C 	C 	0.8607	0.9299	0.4299	-0.122
Mof_C 	C 	0.8456	0.9599	0.4987	0.042
Mof_H 	H 	0.8881	0.9673	0.5398	0.026
Mof_C 	C 	0.7687	0.9788	0.5065	-0.098
Mof_H 	H 	0.7584	0.999	0.5524	0.078
Mof_C 	C 	0.9437	0.9051	0.4245	0.372
Mof_C 	C 	0.5471	0.7748	0.8825	0.429
Mof_C 	C 	0.5469	0.8478	0.8754	-0.157
Mof_C 	C 	0.5173	0.8758	0.8032	0.075
Mof_H 	H 	0.4978	0.8489	0.7607	0.026
Mof_C 	C 	0.5165	0.9426	0.7938	-0.125
Mof_H 	H 	0.497	0.9613	0.745	0.103
Mof_C 	C 	0.5447	0.9818	0.8573	0.036
Mof_C 	C 	0.5725	0.9555	0.9288	-0.119
Mof_H 	H 	0.5901	0.9828	0.9716	0.086
Mof_C 	C 	0.5744	0.8879	0.9376	0.073
Mof_H 	H 	0.5945	0.8695	0.9863	0.021
Mof_C 	C 	0.6313	0.0836	0.804	0.023
Mof_C 	C 	0.6308	0.0745	0.7244	-0.087
Mof_H 	H 	0.5839	0.0607	0.692	0.088
Mof_C 	C 	0.701	0.0863	0.6934	0.045
Mof_H 	H 	0.7011	0.0813	0.6396	0.042
Mof_C 	C 	0.7708	0.1052	0.742	-0.123
Mof_C 	C 	0.77	0.1148	0.8215	0.045
Mof_H 	H 	0.8169	0.1286	0.854	0.034
Mof_C 	C 	0.6999	0.1041	0.8529	-0.089
Mof_H 	H 	0.6993	0.1107	0.9063	0.08
Mof_C 	C 	0.8472	0.1177	0.7076	0.409
_end
