# CIF file generated by openbabel 3.1.0, see https://openbabel.org
data_I
_chemical_name_common 'HUZFIS_charged'
_cell_length_a 13.0315
_cell_length_b 13.0315
_cell_length_c 25.0942
_cell_angle_alpha 82.1167
_cell_angle_beta 80.1025
_cell_angle_gamma 113.884
_space_group_name_H-M_alt 'P 1'
_space_group_name_Hall 'P 1'
loop_
    _symmetry_equiv_pos_as_xyz
    x,y,z
loop_
    _atom_site_label
    _atom_site_type_symbol
    _atom_site_fract_x
    _atom_site_fract_y
    _atom_site_fract_z
    _atom_site_occupancy
    Cd1      Cd       0.57960    0.82960    0.25000    1.000
    Cd2      Cd       0.42040    0.17040    0.75000    1.000
    H1       H        0.17190    0.67440    0.16790    1.000
    H2       H        0.61680    0.61830    0.19490    1.000
    H3       H        0.73480    0.12250    0.23430    1.000
    H4       H        0.34790    0.77970    0.18560    1.000
    H5       H        0.99250    0.89340    0.08370    1.000
    H6       H        0.82710    0.31630    0.19100    1.000
    H7       H        0.59530    0.85880    0.10750    1.000
    H8       H        0.95160    0.38110    0.10350    1.000
    H9       H        0.64880    0.94790    0.01430    1.000
    H10      H        0.63490    0.49920    0.12070    1.000
    H11      H        0.32260    0.30530    0.22670    1.000
    H12      H        0.47810    0.03730    0.24480    1.000
    H13      H        0.90780    0.12030    0.99930    1.000
    H14      H        0.58630    0.21320    0.04930    1.000
    H15      H        0.79300    0.84620    0.14180    1.000
    H16      H        0.34600    0.13960    0.21920    1.000
    H17      H        0.98750    0.25390    0.05540    1.000
    H18      H        0.24340    0.40200    0.16060    1.000
    H19      H        0.64290    0.12120    0.98510    1.000
    H20      H        0.11870    0.48840    0.15710    1.000
    H21      H        0.66360    0.33570    0.11630    1.000
    H22      H        0.34230    0.33980    0.33210    1.000
    H23      H        0.31320    0.81170    0.30510    1.000
    H24      H        0.85680    0.96910    0.26570    1.000
    H25      H        0.46530    0.53350    0.31440    1.000
    H26      H        0.47710    0.07620    0.41630    1.000
    H27      H        0.00730    0.01810    0.30900    1.000
    H28      H        0.46630    0.70280    0.39250    1.000
    H29      H        0.98460    0.05510    0.39650    1.000
    H30      H        0.46220    0.66310    0.48570    1.000
    H31      H        0.11990    0.75560    0.37930    1.000
    H32      H        0.03200    0.54930    0.27330    1.000
    H33      H        0.78210    0.72290    0.25520    1.000
    H34      H        0.61960    0.90710    0.50070    1.000
    H35      H        0.76250    0.63560    0.45070    1.000
    H36      H        0.48800    0.93480    0.35820    1.000
    H37      H        0.85880    0.56520    0.28080    1.000
    H38      H        0.80930    0.04290    0.44460    1.000
    H39      H        0.06260    0.40400    0.33940    1.000
    H40      H        0.60630    0.62800    0.51490    1.000
    H41      H        0.14550    0.27580    0.34290    1.000
    H42      H        0.95200    0.77990    0.38370    1.000
    H43      H        0.82810    0.32560    0.83210    1.000
    H44      H        0.38320    0.38170    0.80510    1.000
    H45      H        0.26520    0.87750    0.76570    1.000
    H46      H        0.65210    0.22030    0.81440    1.000
    H47      H        0.00750    0.10660    0.91630    1.000
    H48      H        0.17290    0.68370    0.80900    1.000
    H49      H        0.40470    0.14120    0.89250    1.000
    H50      H        0.04840    0.61890    0.89650    1.000
    H51      H        0.35120    0.05210    0.98570    1.000
    H52      H        0.36510    0.50080    0.87930    1.000
    H53      H        0.67740    0.69470    0.77330    1.000
    H54      H        0.52190    0.96270    0.75520    1.000
    H55      H        0.09220    0.87970    0.00070    1.000
    H56      H        0.41370    0.78680    0.95070    1.000
    H57      H        0.20700    0.15380    0.85820    1.000
    H58      H        0.65400    0.86040    0.78080    1.000
    H59      H        0.01250    0.74610    0.94460    1.000
    H60      H        0.75660    0.59800    0.83940    1.000
    H61      H        0.35710    0.87880    0.01490    1.000
    H62      H        0.88130    0.51160    0.84290    1.000
    H63      H        0.33640    0.66430    0.88370    1.000
    H64      H        0.65770    0.66020    0.66790    1.000
    H65      H        0.68680    0.18830    0.69490    1.000
    H66      H        0.14320    0.03090    0.73430    1.000
    H67      H        0.53470    0.46650    0.68560    1.000
    H68      H        0.52290    0.92380    0.58370    1.000
    H69      H        0.99270    0.98190    0.69100    1.000
    H70      H        0.53370    0.29720    0.60750    1.000
    H71      H        0.01540    0.94490    0.60350    1.000
    H72      H        0.53780    0.33690    0.51430    1.000
    H73      H        0.88010    0.24440    0.62070    1.000
    H74      H        0.96800    0.45070    0.72670    1.000
    H75      H        0.21790    0.27710    0.74480    1.000
    H76      H        0.38040    0.09290    0.49930    1.000
    H77      H        0.23750    0.36440    0.54930    1.000
    H78      H        0.51200    0.06520    0.64180    1.000
    H79      H        0.14120    0.43480    0.71920    1.000
    H80      H        0.19070    0.95710    0.55540    1.000
    H81      H        0.93740    0.59600    0.66060    1.000
    H82      H        0.39370    0.37200    0.48510    1.000
    H83      H        0.85450    0.72420    0.65710    1.000
    H84      H        0.04800    0.22010    0.61630    1.000
    C1       C        0.47659    0.41650    0.17431    1.000
    C2       C        0.22287    0.64169    0.17044    1.000
    C3       C        0.54550    0.61307    0.19043    1.000
    C4       C        0.78411    0.14813    0.19876    1.000
    C5       C        0.32756    0.70493    0.18091    1.000
    C6       C        0.99574    0.93591    0.04995    1.000
    C7       C        0.40262    0.65362    0.18436    1.000
    C8       C        0.83973    0.26323    0.17284    1.000
    C9       C        0.59478    0.92956    0.09626    1.000
    C10      C        0.91508    0.30245    0.11967    1.000
    C11      C        0.80413    0.07084    0.16983    1.000
    C12      C        0.36978    0.54141    0.17641    1.000
    C13      C        0.87861    0.11140    0.11659    1.000
    C14      C        0.62542    0.98283    0.04075    1.000
    C15      C        0.57827    0.42704    0.14089    1.000
    C16      C        0.38996    0.31051    0.20413    1.000
    C17      C        0.50433    0.03669    0.20798    1.000
    C18      C        0.56282    0.98559    0.13499    1.000
    C19      C        0.94470    0.07228    0.99942    1.000
    C20      C        0.94119    0.00774    0.04907    1.000
    C21      C        0.50700    0.22238    0.16742    1.000
    C22      C        0.58943    0.14383    0.06074    1.000
    C23      C        0.56133    0.09080    0.11667    1.000
    C24      C        0.80727    0.92179    0.14274    1.000
    C25      C        0.40431    0.21190    0.20019    1.000
    C26      C        0.93677    0.22773    0.09050    1.000
    C27      C        0.26395    0.47641    0.16584    1.000
    C28      C        0.62243    0.08822    0.02295    1.000
    C29      C        0.19096    0.52895    0.16349    1.000
    C30      C        0.59481    0.32976    0.13783    1.000
    C31      C        0.09081    0.65090    0.32569    1.000
    C32      C        0.31213    0.39331    0.32956    1.000
    C33      C        0.30350    0.73593    0.30957    1.000
    C34      C        0.84689    0.98287    0.30124    1.000
    C35      C        0.38584    0.50847    0.31909    1.000
    C36      C        0.48586    0.04569    0.45005    1.000
    C37      C        0.33798    0.58698    0.31564    1.000
    C38      C        0.93607    0.01257    0.32716    1.000
    C39      C        0.52582    0.69104    0.40374    1.000
    C40      C        0.92212    0.03475    0.38033    1.000
    C41      C        0.74067    0.97396    0.33017    1.000
    C42      C        0.21782    0.54619    0.32359    1.000
    C43      C        0.72799    0.99520    0.38341    1.000
    C44      C        0.52358    0.66617    0.45925    1.000
    C45      C        0.06793    0.71916    0.35911    1.000
    C46      C        0.01464    0.59409    0.29587    1.000
    C47      C        0.74467    0.71231    0.29202    1.000
    C48      C        0.62058    0.69781    0.36501    1.000
    C49      C        0.57170    0.94412    0.50058    1.000
    C50      C        0.55681    0.99026    0.45093    1.000
    C51      C        0.88980    0.67442    0.33258    1.000
    C52      C        0.70457    0.65017    0.43926    1.000
    C53      C        0.70747    0.67800    0.38333    1.000
    C54      C        0.56453    0.95001    0.35726    1.000
    C55      C        0.91209    0.60450    0.29981    1.000
    C56      C        0.81823    0.02727    0.40950    1.000
    C57      C        0.14225    0.42979    0.33416    1.000
    C58      C        0.61117    0.64538    0.47705    1.000
    C59      C        0.19244    0.35445    0.33651    1.000
    C60      C        0.96759    0.73264    0.36217    1.000
    C61      C        0.52341    0.58350    0.82569    1.000
    C62      C        0.77713    0.35831    0.82956    1.000
    C63      C        0.45450    0.38693    0.80957    1.000
    C64      C        0.21589    0.85187    0.80124    1.000
    C65      C        0.67244    0.29507    0.81909    1.000
    C66      C        0.00426    0.06409    0.95005    1.000
    C67      C        0.59738    0.34638    0.81564    1.000
    C68      C        0.16027    0.73677    0.82716    1.000
    C69      C        0.40522    0.07044    0.90374    1.000
    C70      C        0.08492    0.69755    0.88033    1.000
    C71      C        0.19587    0.92916    0.83017    1.000
    C72      C        0.63022    0.45859    0.82359    1.000
    C73      C        0.12139    0.88860    0.88341    1.000
    C74      C        0.37458    0.01717    0.95925    1.000
    C75      C        0.42173    0.57296    0.85911    1.000
    C76      C        0.61004    0.68949    0.79587    1.000
    C77      C        0.49567    0.96331    0.79202    1.000
    C78      C        0.43718    0.01441    0.86501    1.000
    C79      C        0.05530    0.92772    0.00058    1.000
    C80      C        0.05881    0.99226    0.95093    1.000
    C81      C        0.49300    0.77762    0.83258    1.000
    C82      C        0.41057    0.85617    0.93926    1.000
    C83      C        0.43867    0.90920    0.88333    1.000
    C84      C        0.19273    0.07821    0.85726    1.000
    C85      C        0.59569    0.78810    0.79981    1.000
    C86      C        0.06323    0.77227    0.90950    1.000
    C87      C        0.73605    0.52359    0.83416    1.000
    C88      C        0.37757    0.91178    0.97705    1.000
    C89      C        0.80904    0.47105    0.83651    1.000
    C90      C        0.40519    0.67024    0.86217    1.000
    C91      C        0.90919    0.34910    0.67431    1.000
    C92      C        0.68787    0.60669    0.67044    1.000
    C93      C        0.69650    0.26407    0.69043    1.000
    C94      C        0.15311    0.01713    0.69876    1.000
    C95      C        0.61416    0.49153    0.68091    1.000
    C96      C        0.51414    0.95431    0.54995    1.000
    C97      C        0.66202    0.41302    0.68436    1.000
    C98      C        0.06393    0.98743    0.67284    1.000
    C99      C        0.47418    0.30896    0.59626    1.000
    C100     C        0.07788    0.96525    0.61967    1.000
    C101     C        0.25933    0.02604    0.66983    1.000
    C102     C        0.78218    0.45381    0.67641    1.000
    C103     C        0.27201    0.00480    0.61659    1.000
    C104     C        0.47642    0.33383    0.54075    1.000
    C105     C        0.93207    0.28084    0.64089    1.000
    C106     C        0.98536    0.40591    0.70413    1.000
    C107     C        0.25533    0.28769    0.70798    1.000
    C108     C        0.37942    0.30219    0.63499    1.000
    C109     C        0.42830    0.05588    0.49942    1.000
    C110     C        0.44319    0.00974    0.54907    1.000
    C111     C        0.11020    0.32558    0.66742    1.000
    C112     C        0.29543    0.34983    0.56074    1.000
    C113     C        0.29253    0.32200    0.61667    1.000
    C114     C        0.43547    0.04999    0.64274    1.000
    C115     C        0.08791    0.39550    0.70019    1.000
    C116     C        0.18177    0.97273    0.59050    1.000
    C117     C        0.85775    0.57021    0.66584    1.000
    C118     C        0.38883    0.35462    0.52295    1.000
    C119     C        0.80756    0.64555    0.66349    1.000
    C120     C        0.03241    0.26736    0.63783    1.000
    N1       N        0.52669    0.95309    0.19320    1.000
    N2       N        0.75981    0.95009    0.18532    1.000
    N3       N        0.51423    0.69665    0.19376    1.000
    N4       N        0.46467    0.51908    0.17989    1.000
    N5       N        0.87871    0.01296    0.10039    1.000
    N6       N        0.52309    0.12142    0.16449    1.000
    N7       N        0.64629    0.71989    0.30680    1.000
    N8       N        0.63541    0.94513    0.31468    1.000
    N9       N        0.39041    0.70799    0.30624    1.000
    N10      N        0.19897    0.64456    0.32011    1.000
    N11      N        0.61335    0.97910    0.39961    1.000
    N12      N        0.78591    0.68758    0.33551    1.000
    N13      N        0.47331    0.04691    0.80680    1.000
    N14      N        0.24019    0.04991    0.81468    1.000
    N15      N        0.48577    0.30335    0.80624    1.000
    N16      N        0.53533    0.48092    0.82011    1.000
    N17      N        0.12129    0.98704    0.89961    1.000
    N18      N        0.47691    0.87858    0.83551    1.000
    N19      N        0.35371    0.28011    0.69320    1.000
    N20      N        0.36459    0.05487    0.68532    1.000
    N21      N        0.60959    0.29201    0.69376    1.000
    N22      N        0.80103    0.35544    0.67989    1.000
    N23      N        0.38665    0.02090    0.60039    1.000
    N24      N        0.21409    0.31242    0.66449    1.000
    Cl1      Cl       0.08687    0.37126    0.86155    1.000
    O1       O        0.08075    0.45738    0.82207    1.000
    O2       O        0.16521    0.33014    0.83585    1.000
    O3       O        0.97416    0.27910    0.88414    1.000
    O4       O        0.12930    0.42320    0.90450    1.000
    Cl2      Cl       0.73281    0.94842    0.63845    1.000
    O5       O        0.77945    0.90282    0.67793    1.000
    O6       O        0.66599    0.00106    0.66415    1.000
    O7       O        0.66324    0.85830    0.61586    1.000
    O8       O        0.82770    0.03380    0.59550    1.000
    Cl3      Cl       0.91313    0.62874    0.13845    1.000
    O9       O        0.91925    0.54262    0.17793    1.000
    O10      O        0.83479    0.66986    0.16415    1.000
    O11      O        0.02584    0.72090    0.11586    1.000
    O12      O        0.87070    0.57680    0.09550    1.000
    Cl4      Cl       0.26719    0.05158    0.36155    1.000
    O13      O        0.22055    0.09718    0.32207    1.000
    O14      O        0.33401    0.99894    0.33585    1.000
    O15      O        0.33676    0.14170    0.38414    1.000
    O16      O        0.17230    0.96620    0.40450    1.000
