data_functionalizedCrystal
_audit_creation_method	'EQeq! by Chris Wilmer'
_symmetry_space_group_name_H-M	'P1'
_symmetry_Int_Tables_number	1
_symmetry_cell_setting	triclinic
loop_
_symmetry_equiv_pos_as_xyz
  x,y,z
_cell_length_a	9.666
_cell_length_b	11.692
_cell_length_c	12.366
_cell_angle_alpha	72.75
_cell_angle_beta	67.912
_cell_angle_gamma	76.869
loop_
_atom_site_label
_atom_site_type_symbol
_atom_site_fract_x
_atom_site_fract_y
_atom_site_fract_z
_atom_site_charge
Mof_Li	Li	0.5469	0.3833	0.0533	2.406
Mof_Li	Li	0.5349	0.0726	0.3875	1.794
Mof_Li	Li	0.234	0.1085	0.5165	2.442
Mof_Li	Li	0.5549	0.3074	0.3052	4.253
Mof_Li	Li	0.4531	0.6167	0.9467	2.407
Mof_Li	Li	0.4651	0.9274	0.6125	1.795
Mof_Li	Li	0.766	0.8915	0.4835	2.443
Mof_Li	Li	0.4451	0.6926	0.6948	4.254
Mof_H 	H 	0.0972	0.1019	0.3381	-0.29
Mof_H 	H 	0.8495	0.3306	0.1463	-0.325
Mof_H 	H 	0.2516	0.4035	0.1119	-0.3
Mof_H 	H 	0.5818	0.6107	0.3486	-0.217
Mof_H 	H 	0.5443	0.7739	0.0255	-0.217
Mof_H 	H 	0.5382	0.97	0.244	-0.256
Mof_H 	H 	0.9028	0.8981	0.6619	-0.29
Mof_H 	H 	0.1505	0.6694	0.8537	-0.325
Mof_H 	H 	0.7484	0.5965	0.8881	-0.3
Mof_H 	H 	0.4182	0.3893	0.6514	-0.217
Mof_H 	H 	0.4557	0.2261	0.9745	-0.217
Mof_H 	H 	0.4618	0.03	0.756	-0.256
Mof_C 	C 	0.33713	0.21815	0.26309	0.988
Mof_C 	C 	0.82672	0.12736	0.31992	1.058
Mof_C 	C 	0.19788	0.24737	0.22866	-0.748
Mof_C 	C 	0.08465	0.1736	0.28242	0.542
Mof_C 	C 	0.95246	0.20569	0.25392	-0.747
Mof_C 	C 	0.93632	0.30952	0.16739	0.431
Mof_C 	C 	0.05073	0.38182	0.11236	-0.362
Mof_C 	C 	0.17816	0.35186	0.14598	0.448
Mof_C 	C 	0.55552	0.79923	0.4361	0.893
Mof_C 	C 	0.57182	0.55145	0.16284	1.063
Mof_C 	C 	0.55816	0.79175	0.31572	-0.653
Mof_C 	C 	0.56993	0.68129	0.29151	0.491
Mof_C 	C 	0.56434	0.67393	0.18314	-0.658
Mof_C 	C 	0.5477	0.77797	0.09842	0.35
Mof_C 	C 	0.5358	0.88894	0.12208	-0.299
Mof_C 	C 	0.5433	0.89516	0.22972	0.368
Mof_C 	C 	0.66287	0.78185	0.73691	0.988
Mof_C 	C 	0.17328	0.87264	0.68008	1.058
Mof_C 	C 	0.80212	0.75263	0.77134	-0.748
Mof_C 	C 	0.91535	0.8264	0.71758	0.542
Mof_C 	C 	0.04754	0.79431	0.74608	-0.747
Mof_C 	C 	0.06368	0.69048	0.83261	0.431
Mof_C 	C 	0.94927	0.61818	0.88764	-0.362
Mof_C 	C 	0.82184	0.64814	0.85402	0.448
Mof_C 	C 	0.44448	0.20077	0.5639	0.893
Mof_C 	C 	0.42818	0.44855	0.83716	1.063
Mof_C 	C 	0.44184	0.20825	0.68428	-0.653
Mof_C 	C 	0.43007	0.31871	0.70849	0.491
Mof_C 	C 	0.43566	0.32607	0.81686	-0.658
Mof_C 	C 	0.4523	0.22203	0.90158	0.35
Mof_C 	C 	0.4642	0.11106	0.87792	-0.299
Mof_C 	C 	0.4567	0.10484	0.77028	0.368
Mof_N 	N 	0.04882	0.49168	0.02276	-0.105
Mof_N 	N 	0.51215	0.00262	0.04429	-0.1
Mof_N 	N 	0.95118	0.50832	0.97724	-0.105
Mof_N 	N 	0.48785	0.99738	0.95571	-0.1
Mof_O 	O 	0.34833	0.12695	0.34518	-1.432
Mof_O 	O 	0.43627	0.28701	0.20927	-1.781
Mof_O 	O 	0.70339	0.16465	0.30184	-1.756
Mof_O 	O 	0.85278	0.03127	0.38932	-1.207
Mof_O 	O 	0.57219	0.90086	0.44458	-1.587
Mof_O 	O 	0.54196	0.54604	0.07408	-1.496
Mof_O 	O 	0.60464	0.46319	0.23713	-1.55
Mof_O 	O 	0.53674	0.70917	0.5197	-1.443
Mof_O 	O 	0.65167	0.87305	0.65482	-1.432
Mof_O 	O 	0.56373	0.71299	0.79073	-1.781
Mof_O 	O 	0.29661	0.83535	0.69816	-1.756
Mof_O 	O 	0.14722	0.96873	0.61068	-1.207
Mof_O 	O 	0.42781	0.09914	0.55542	-1.587
Mof_O 	O 	0.45804	0.45396	0.92592	-1.496
Mof_O 	O 	0.39536	0.53681	0.76287	-1.55
Mof_O 	O 	0.46326	0.29083	0.4803	-1.443
_end
