# CIF file generated by openbabel 3.1.0, see https://openbabel.org
data_I
_chemical_name_common 'image0'
_cell_length_a 15.348
_cell_length_b 30.693
_cell_length_c 9.8227
_cell_angle_alpha 90
_cell_angle_beta 90
_cell_angle_gamma 90
_space_group_name_H-M_alt 'P 1'
_space_group_name_Hall 'P 1'
loop_
    _symmetry_equiv_pos_as_xyz
    x,y,z
loop_
    _atom_site_label
    _atom_site_type_symbol
    _atom_site_fract_x
    _atom_site_fract_y
    _atom_site_fract_z
    _atom_site_occupancy
    N1       N        0.77430    0.66940    0.65590    1.000
    N2       N        0.71110    0.76550    0.65330    1.000
    C1       C        0.86680    0.65080    0.65000    1.000
    C2       C        0.73230    0.66110    0.76700    1.000
    C3       C        0.88040    0.61950    0.72920    1.000
    H1       H        0.90950    0.66190    0.59220    1.000
    H2       H        0.69170    0.68180    0.79410    1.000
    C4       C        0.74040    0.62680    0.84700    1.000
    C5       C        0.83000    0.60460    0.84020    1.000
    H3       H        0.93110    0.60390    0.71260    1.000
    H4       H        0.69560    0.61690    0.90270    1.000
    C6       C        0.84990    0.56920    0.92510    1.000
    S1       S        0.88860    0.52138    0.84900    1.000
    S2       S        0.90320    0.41596    0.14790    1.000
    C7       C        0.87210    0.36730    0.06430    1.000
    C8       C        0.84450    0.33160    0.16150    1.000
    C9       C        0.79240    0.34100    0.27300    1.000
    C10      C        0.87060    0.28970    0.14640    1.000
    C11      C        0.76560    0.30840    0.36300    1.000
    H5       H        0.77490    0.36960    0.28810    1.000
    H6       H        0.90300    0.28180    0.07030    1.000
    C12      C        0.84900    0.25770    0.24540    1.000
    H7       H        0.73090    0.31600    0.43710    1.000
    H8       H        0.87620    0.23070    0.24170    1.000
    C13      C        0.88270    0.28680    0.36000    1.000
    H9       H        0.91560    0.28150    0.43800    1.000
    C14      C        0.91120    0.31980    0.26760    1.000
    H10      H        0.96580    0.33280    0.27250    1.000
    C15      C        0.77260    0.30760    0.13700    1.000
    H11      H        0.73880    0.31170    0.05960    1.000
    C16      C        0.75150    0.27540    0.23800    1.000
    H12      H        0.69680    0.26230    0.23490    1.000
    C17      C        0.85580    0.64600    0.85400    1.000
    H13      H        0.89410    0.65330    0.92350    1.000
    C18      C        0.82660    0.67850    0.76630    1.000
    H14      H        0.84280    0.70720    0.78280    1.000
    C19      C        0.73560    0.62900    0.63800    1.000
    H15      H        0.69370    0.62460    0.57120    1.000
    C20      C        0.76310    0.59320    0.72800    1.000
    H16      H        0.74130    0.56510    0.71850    1.000
    N3       N        0.80880    0.26290    0.33900    1.000
    N4       N        0.22570    0.33060    0.65590    1.000
    N5       N        0.28890    0.23450    0.65330    1.000
    C21      C        0.13320    0.34920    0.65000    1.000
    C22      C        0.26770    0.33890    0.76700    1.000
    C23      C        0.11960    0.38050    0.72920    1.000
    H17      H        0.09050    0.33810    0.59220    1.000
    H18      H        0.30830    0.31820    0.79410    1.000
    C24      C        0.25960    0.37320    0.84700    1.000
    C25      C        0.17000    0.39540    0.84020    1.000
    H19      H        0.06890    0.39610    0.71260    1.000
    H20      H        0.30440    0.38310    0.90270    1.000
    C26      C        0.15010    0.43080    0.92510    1.000
    S3       S        0.11140    0.47862    0.84900    1.000
    S4       S        0.09680    0.58404    0.14790    1.000
    C27      C        0.12790    0.63270    0.06430    1.000
    C28      C        0.15550    0.66840    0.16150    1.000
    C29      C        0.20760    0.65900    0.27300    1.000
    C30      C        0.12940    0.71030    0.14640    1.000
    C31      C        0.23440    0.69160    0.36300    1.000
    H21      H        0.22510    0.63040    0.28810    1.000
    H22      H        0.09700    0.71820    0.07030    1.000
    C32      C        0.15100    0.74230    0.24540    1.000
    H23      H        0.26910    0.68400    0.43710    1.000
    H24      H        0.12380    0.76930    0.24170    1.000
    C33      C        0.11730    0.71320    0.36000    1.000
    H25      H        0.08440    0.71850    0.43800    1.000
    C34      C        0.08880    0.68020    0.26760    1.000
    H26      H        0.03420    0.66720    0.27250    1.000
    C35      C        0.22740    0.69240    0.13700    1.000
    H27      H        0.26120    0.68830    0.05960    1.000
    C36      C        0.24850    0.72460    0.23800    1.000
    H28      H        0.30320    0.73770    0.23490    1.000
    C37      C        0.14420    0.35400    0.85400    1.000
    H29      H        0.10590    0.34670    0.92350    1.000
    C38      C        0.17340    0.32150    0.76630    1.000
    H30      H        0.15720    0.29280    0.78280    1.000
    C39      C        0.26440    0.37100    0.63800    1.000
    H31      H        0.30630    0.37540    0.57120    1.000
    C40      C        0.23690    0.40680    0.72800    1.000
    H32      H        0.25870    0.43490    0.71850    1.000
    N6       N        0.19120    0.73710    0.33900    1.000
    N7       N        0.72570    0.16940    0.34410    1.000
    N8       N        0.78890    0.26550    0.34670    1.000
    C41      C        0.63320    0.15080    0.35000    1.000
    C42      C        0.76770    0.16110    0.23300    1.000
    C43      C        0.61960    0.11950    0.27080    1.000
    H33      H        0.59050    0.16190    0.40780    1.000
    H34      H        0.80830    0.18180    0.20590    1.000
    C44      C        0.75960    0.12680    0.15300    1.000
    C45      C        0.67000    0.10460    0.15980    1.000
    H35      H        0.56890    0.10390    0.28740    1.000
    H36      H        0.80440    0.11690    0.09730    1.000
    C46      C        0.65010    0.06920    0.07490    1.000
    S5       S        0.61140    0.02138    0.15100    1.000
    S6       S        0.59680    0.91596    0.85210    1.000
    C47      C        0.62790    0.86730    0.93570    1.000
    C48      C        0.65550    0.83160    0.83850    1.000
    C49      C        0.70760    0.84100    0.72700    1.000
    C50      C        0.62940    0.78970    0.85360    1.000
    C51      C        0.73440    0.80840    0.63700    1.000
    H37      H        0.72510    0.86960    0.71190    1.000
    H38      H        0.59700    0.78180    0.92970    1.000
    C52      C        0.65100    0.75770    0.75460    1.000
    H39      H        0.76910    0.81600    0.56290    1.000
    H40      H        0.62380    0.73070    0.75830    1.000
    C53      C        0.61730    0.78680    0.64000    1.000
    H41      H        0.58440    0.78150    0.56200    1.000
    C54      C        0.58880    0.81980    0.73240    1.000
    H42      H        0.53420    0.83280    0.72750    1.000
    C55      C        0.72740    0.80760    0.86300    1.000
    H43      H        0.76120    0.81170    0.94040    1.000
    C56      C        0.74850    0.77540    0.76200    1.000
    H44      H        0.80320    0.76230    0.76510    1.000
    C57      C        0.64420    0.14600    0.14600    1.000
    H45      H        0.60590    0.15330    0.07650    1.000
    C58      C        0.67340    0.17850    0.23370    1.000
    H46      H        0.65720    0.20720    0.21720    1.000
    C59      C        0.76440    0.12900    0.36200    1.000
    H47      H        0.80630    0.12460    0.42880    1.000
    C60      C        0.73690    0.09320    0.27200    1.000
    H48      H        0.75870    0.06510    0.28150    1.000
    N9       N        0.69120    0.76290    0.66100    1.000
    N10      N        0.27430    0.83060    0.34410    1.000
    N11      N        0.21110    0.73450    0.34670    1.000
    C61      C        0.36680    0.84920    0.35000    1.000
    C62      C        0.23230    0.83890    0.23300    1.000
    C63      C        0.38040    0.88050    0.27080    1.000
    H49      H        0.40950    0.83810    0.40780    1.000
    H50      H        0.19170    0.81820    0.20590    1.000
    C64      C        0.24040    0.87320    0.15300    1.000
    C65      C        0.33000    0.89540    0.15980    1.000
    H51      H        0.43110    0.89610    0.28740    1.000
    H52      H        0.19560    0.88310    0.09730    1.000
    C66      C        0.34990    0.93080    0.07490    1.000
    S7       S        0.38860    0.97862    0.15100    1.000
    S8       S        0.40320    0.08404    0.85210    1.000
    C67      C        0.37210    0.13270    0.93570    1.000
    C68      C        0.34450    0.16840    0.83850    1.000
    C69      C        0.29240    0.15900    0.72700    1.000
    C70      C        0.37060    0.21030    0.85360    1.000
    C71      C        0.26560    0.19160    0.63700    1.000
    H53      H        0.27490    0.13040    0.71190    1.000
    H54      H        0.40300    0.21820    0.92970    1.000
    C72      C        0.34900    0.24230    0.75460    1.000
    H55      H        0.23090    0.18400    0.56290    1.000
    H56      H        0.37620    0.26930    0.75830    1.000
    C73      C        0.38270    0.21320    0.64000    1.000
    H57      H        0.41560    0.21850    0.56200    1.000
    C74      C        0.41120    0.18020    0.73240    1.000
    H58      H        0.46580    0.16720    0.72750    1.000
    C75      C        0.27260    0.19240    0.86300    1.000
    H59      H        0.23880    0.18830    0.94040    1.000
    C76      C        0.25150    0.22460    0.76200    1.000
    H60      H        0.19680    0.23770    0.76510    1.000
    C77      C        0.35580    0.85400    0.14600    1.000
    H61      H        0.39410    0.84670    0.07650    1.000
    C78      C        0.32660    0.82150    0.23370    1.000
    H62      H        0.34280    0.79280    0.21720    1.000
    C79      C        0.23560    0.87100    0.36200    1.000
    H63      H        0.19370    0.87540    0.42880    1.000
    C80      C        0.26310    0.90680    0.27200    1.000
    H64      H        0.24130    0.93490    0.28150    1.000
    N12      N        0.30880    0.23710    0.66100    1.000
    N13      N        0.22570    0.33060    0.34410    1.000
    N14      N        0.28890    0.23450    0.34670    1.000
    C81      C        0.13320    0.34920    0.35000    1.000
    C82      C        0.26770    0.33890    0.23300    1.000
    C83      C        0.11960    0.38050    0.27080    1.000
    H65      H        0.09050    0.33810    0.40780    1.000
    H66      H        0.30830    0.31820    0.20590    1.000
    C84      C        0.25960    0.37320    0.15300    1.000
    C85      C        0.17000    0.39540    0.15980    1.000
    H67      H        0.06890    0.39610    0.28740    1.000
    H68      H        0.30440    0.38310    0.09730    1.000
    C86      C        0.15010    0.43080    0.07490    1.000
    S9       S        0.11140    0.47862    0.15100    1.000
    S10      S        0.09680    0.58404    0.85210    1.000
    C87      C        0.12790    0.63270    0.93570    1.000
    C88      C        0.15550    0.66840    0.83850    1.000
    C89      C        0.20760    0.65900    0.72700    1.000
    C90      C        0.12940    0.71030    0.85360    1.000
    C91      C        0.23440    0.69160    0.63700    1.000
    H69      H        0.22510    0.63040    0.71190    1.000
    H70      H        0.09700    0.71820    0.92970    1.000
    C92      C        0.15100    0.74230    0.75460    1.000
    H71      H        0.26910    0.68400    0.56290    1.000
    H72      H        0.12380    0.76930    0.75830    1.000
    C93      C        0.11730    0.71320    0.64000    1.000
    H73      H        0.08440    0.71850    0.56200    1.000
    C94      C        0.08880    0.68020    0.73240    1.000
    H74      H        0.03420    0.66720    0.72750    1.000
    C95      C        0.22740    0.69240    0.86300    1.000
    H75      H        0.26120    0.68830    0.94040    1.000
    C96      C        0.24850    0.72460    0.76200    1.000
    H76      H        0.30320    0.73770    0.76510    1.000
    C97      C        0.14420    0.35400    0.14600    1.000
    H77      H        0.10590    0.34670    0.07650    1.000
    C98      C        0.17340    0.32150    0.23370    1.000
    H78      H        0.15720    0.29280    0.21720    1.000
    C99      C        0.26440    0.37100    0.36200    1.000
    H79      H        0.30630    0.37540    0.42880    1.000
    C100     C        0.23690    0.40680    0.27200    1.000
    H80      H        0.25870    0.43490    0.28150    1.000
    N15      N        0.19120    0.73710    0.66100    1.000
    N16      N        0.77430    0.66940    0.34410    1.000
    N17      N        0.71110    0.76550    0.34670    1.000
    C101     C        0.86680    0.65080    0.35000    1.000
    C102     C        0.73230    0.66110    0.23300    1.000
    C103     C        0.88040    0.61950    0.27080    1.000
    H81      H        0.90950    0.66190    0.40780    1.000
    H82      H        0.69170    0.68180    0.20590    1.000
    C104     C        0.74040    0.62680    0.15300    1.000
    C105     C        0.83000    0.60460    0.15980    1.000
    H83      H        0.93110    0.60390    0.28740    1.000
    H84      H        0.69560    0.61690    0.09730    1.000
    C106     C        0.84990    0.56920    0.07490    1.000
    S11      S        0.88860    0.52138    0.15100    1.000
    S12      S        0.90320    0.41596    0.85210    1.000
    C107     C        0.87210    0.36730    0.93570    1.000
    C108     C        0.84450    0.33160    0.83850    1.000
    C109     C        0.79240    0.34100    0.72700    1.000
    C110     C        0.87060    0.28970    0.85360    1.000
    C111     C        0.76560    0.30840    0.63700    1.000
    H85      H        0.77490    0.36960    0.71190    1.000
    H86      H        0.90300    0.28180    0.92970    1.000
    C112     C        0.84900    0.25770    0.75460    1.000
    H87      H        0.73090    0.31600    0.56290    1.000
    H88      H        0.87620    0.23070    0.75830    1.000
    C113     C        0.88270    0.28680    0.64000    1.000
    H89      H        0.91560    0.28150    0.56200    1.000
    C114     C        0.91120    0.31980    0.73240    1.000
    H90      H        0.96580    0.33280    0.72750    1.000
    C115     C        0.77260    0.30760    0.86300    1.000
    H91      H        0.73880    0.31170    0.94040    1.000
    C116     C        0.75150    0.27540    0.76200    1.000
    H92      H        0.69680    0.26230    0.76510    1.000
    C117     C        0.85580    0.64600    0.14600    1.000
    H93      H        0.89410    0.65330    0.07650    1.000
    C118     C        0.82660    0.67850    0.23370    1.000
    H94      H        0.84280    0.70720    0.21720    1.000
    C119     C        0.73560    0.62900    0.36200    1.000
    H95      H        0.69370    0.62460    0.42880    1.000
    C120     C        0.76310    0.59320    0.27200    1.000
    H96      H        0.74130    0.56510    0.28150    1.000
    N18      N        0.80880    0.26290    0.66100    1.000
    N19      N        0.27430    0.83060    0.65590    1.000
    N20      N        0.21110    0.73450    0.65330    1.000
    C121     C        0.36680    0.84920    0.65000    1.000
    C122     C        0.23230    0.83890    0.76700    1.000
    C123     C        0.38040    0.88050    0.72920    1.000
    H97      H        0.40950    0.83810    0.59220    1.000
    H98      H        0.19170    0.81820    0.79410    1.000
    C124     C        0.24040    0.87320    0.84700    1.000
    C125     C        0.33000    0.89540    0.84020    1.000
    H99      H        0.43110    0.89610    0.71260    1.000
    H100     H        0.19560    0.88310    0.90270    1.000
    C126     C        0.34990    0.93080    0.92510    1.000
    S13      S        0.38860    0.97862    0.84900    1.000
    S14      S        0.40320    0.08404    0.14790    1.000
    C127     C        0.37210    0.13270    0.06430    1.000
    C128     C        0.34450    0.16840    0.16150    1.000
    C129     C        0.29240    0.15900    0.27300    1.000
    C130     C        0.37060    0.21030    0.14640    1.000
    C131     C        0.26560    0.19160    0.36300    1.000
    H101     H        0.27490    0.13040    0.28810    1.000
    H102     H        0.40300    0.21820    0.07030    1.000
    C132     C        0.34900    0.24230    0.24540    1.000
    H103     H        0.23090    0.18400    0.43710    1.000
    H104     H        0.37620    0.26930    0.24170    1.000
    C133     C        0.38270    0.21320    0.36000    1.000
    H105     H        0.41560    0.21850    0.43800    1.000
    C134     C        0.41120    0.18020    0.26760    1.000
    H106     H        0.46580    0.16720    0.27250    1.000
    C135     C        0.27260    0.19240    0.13700    1.000
    H107     H        0.23880    0.18830    0.05960    1.000
    C136     C        0.25150    0.22460    0.23800    1.000
    H108     H        0.19680    0.23770    0.23490    1.000
    C137     C        0.35580    0.85400    0.85400    1.000
    H109     H        0.39410    0.84670    0.92350    1.000
    C138     C        0.32660    0.82150    0.76630    1.000
    H110     H        0.34280    0.79280    0.78280    1.000
    C139     C        0.23560    0.87100    0.63800    1.000
    H111     H        0.19370    0.87540    0.57120    1.000
    C140     C        0.26310    0.90680    0.72800    1.000
    H112     H        0.24130    0.93490    0.71850    1.000
    N21      N        0.30880    0.23710    0.33900    1.000
    N22      N        0.72570    0.16940    0.65590    1.000
    N23      N        0.78890    0.26550    0.65330    1.000
    C141     C        0.63320    0.15080    0.65000    1.000
    C142     C        0.76770    0.16110    0.76700    1.000
    C143     C        0.61960    0.11950    0.72920    1.000
    H113     H        0.59050    0.16190    0.59220    1.000
    H114     H        0.80830    0.18180    0.79410    1.000
    C144     C        0.75960    0.12680    0.84700    1.000
    C145     C        0.67000    0.10460    0.84020    1.000
    H115     H        0.56890    0.10390    0.71260    1.000
    H116     H        0.80440    0.11690    0.90270    1.000
    C146     C        0.65010    0.06920    0.92510    1.000
    S15      S        0.61140    0.02138    0.84900    1.000
    S16      S        0.59680    0.91596    0.14790    1.000
    C147     C        0.62790    0.86730    0.06430    1.000
    C148     C        0.65550    0.83160    0.16150    1.000
    C149     C        0.70760    0.84100    0.27300    1.000
    C150     C        0.62940    0.78970    0.14640    1.000
    C151     C        0.73440    0.80840    0.36300    1.000
    H117     H        0.72510    0.86960    0.28810    1.000
    H118     H        0.59700    0.78180    0.07030    1.000
    C152     C        0.65100    0.75770    0.24540    1.000
    H119     H        0.76910    0.81600    0.43710    1.000
    H120     H        0.62380    0.73070    0.24170    1.000
    C153     C        0.61730    0.78680    0.36000    1.000
    H121     H        0.58440    0.78150    0.43800    1.000
    C154     C        0.58880    0.81980    0.26760    1.000
    H122     H        0.53420    0.83280    0.27250    1.000
    C155     C        0.72740    0.80760    0.13700    1.000
    H123     H        0.76120    0.81170    0.05960    1.000
    C156     C        0.74850    0.77540    0.23800    1.000
    H124     H        0.80320    0.76230    0.23490    1.000
    C157     C        0.64420    0.14600    0.85400    1.000
    H125     H        0.60590    0.15330    0.92350    1.000
    C158     C        0.67340    0.17850    0.76630    1.000
    H126     H        0.65720    0.20720    0.78280    1.000
    C159     C        0.76440    0.12900    0.63800    1.000
    H127     H        0.80630    0.12460    0.57120    1.000
    C160     C        0.73690    0.09320    0.72800    1.000
    H128     H        0.75870    0.06510    0.71850    1.000
    N24      N        0.69120    0.76290    0.33900    1.000
    Fe1      Fe       0.73746    0.71706    0.50000    1.000
    N25      N        0.86470    0.74340    0.50000    1.000
    N26      N        0.61480    0.69030    0.50000    1.000
    C161     C        0.90560    0.77100    0.50000    1.000
    N27      N        0.95130    0.81180    0.50000    1.000
    C162     C        0.04430    0.80830    0.50000    1.000
    Fe2      Fe       0.26254    0.28294    0.50000    1.000
    N28      N        0.13530    0.25660    0.50000    1.000
    N29      N        0.38520    0.30970    0.50000    1.000
    C163     C        0.09440    0.22900    0.50000    1.000
    N30      N        0.04870    0.18820    0.50000    1.000
    C164     C        0.95570    0.19170    0.50000    1.000
    Fe3      Fe       0.76254    0.21706    0.50000    1.000
    N31      N        0.63530    0.24340    0.50000    1.000
    N32      N        0.88520    0.19030    0.50000    1.000
    C165     C        0.59440    0.27100    0.50000    1.000
    N33      N        0.54870    0.31180    0.50000    1.000
    C166     C        0.45570    0.30830    0.50000    1.000
    Fe4      Fe       0.23746    0.78294    0.50000    1.000
    N34      N        0.36470    0.75660    0.50000    1.000
    N35      N        0.11480    0.80970    0.50000    1.000
    C167     C        0.40560    0.72900    0.50000    1.000
    N36      N        0.45130    0.68820    0.50000    1.000
    C168     C        0.54430    0.69170    0.50000    1.000
    C169     C        0.89770    0.49120    0.00000    1.000
    C170     C        0.89660    0.44900    0.00000    1.000
    C171     C        0.10230    0.50880    0.00000    1.000
    C172     C        0.10340    0.55100    0.00000    1.000
    C173     C        0.60230    0.99120    0.00000    1.000
    C174     C        0.60340    0.94900    0.00000    1.000
    C175     C        0.39770    0.00880    0.00000    1.000
    C176     C        0.39660    0.05100    0.00000    1.000
