data_functionalizedCrystal
_audit_creation_method	'EQeq! by Chris Wilmer'
_symmetry_space_group_name_H-M	'P1'
_symmetry_Int_Tables_number	1
_symmetry_cell_setting	triclinic
loop_
_symmetry_equiv_pos_as_xyz
  x,y,z
_cell_length_a	34.565
_cell_length_b	34.565
_cell_length_c	8.3337
_cell_angle_alpha	90
_cell_angle_beta	90
_cell_angle_gamma	120
loop_
_atom_site_label
_atom_site_type_symbol
_atom_site_fract_x
_atom_site_fract_y
_atom_site_fract_z
_atom_site_charge
Mof_Ag	Ag	0.32285	0.14043	0.49754	0.667
Mof_O 	O 	0.01134	0.6688	0.64573	-0.197
Mof_N 	N 	0.34402	0.20066	0.351	-0.193
Mof_N 	N 	0.20911	0.28324	0.3933	-0.19
Mof_C 	C 	0.324	0.2257	0.3617	0.035
Mof_H 	H 	0.2989	0.2159	0.4265	0.049
Mof_C 	C 	0.33994	0.26555	0.278	-0.051
Mof_C 	C 	0.04327	0.61273	0.51073	0.032
Mof_H 	H 	0.05497	0.63963	0.45523	0.083
Mof_C 	C 	0.06217	0.58603	0.49463	-0.115
Mof_H 	H 	0.75253	0.92727	0.75767	0.147
Mof_C 	C 	0.3787	0.2139	0.251	0.073
Mof_H 	H 	0.392	0.1964	0.2414	0.03
Mof_C 	C 	0.3201	0.29515	0.3015	0.174
Mof_C 	C 	0.253	0.2977	0.3889	0.082
Mof_H 	H 	0.2724	0.3241	0.4419	0.034
Mof_C 	C 	0.2709	0.2749	0.3084	-0.052
Mof_C 	C 	0.90867	0.56883	0.56043	0.064
Mof_H 	H 	0.91957	0.55293	0.50473	0.063
Mof_C 	C 	0.1969	0.2208	0.2317	-0.09
Mof_H 	H 	0.84357	0.52813	0.51133	0.18
Mof_C 	C 	0.1816	0.2449	0.3166	0.113
Mof_H 	H 	0.151	0.2341	0.3207	0.059
Mof_C 	C 	0.4162	0.1574	0.5497	0.288
Mof_O 	O 	0.398	0.1396	0.4222	-0.246
Mof_O 	O 	0.73193	0.83207	0.32987	-0.277
Mof_C 	C 	0.79693	0.84217	0.20757	0.268
Mof_F 	F 	0.4802	0.1556	0.4539	-0.354
Mof_F 	F 	0.83123	0.89077	0.19967	-0.271
Mof_C 	C 	0.81413	0.83867	0.37097	0.765
Mof_F 	F 	0.78683	0.79407	0.39797	-0.476
Mof_F 	F 	0.80803	0.86627	0.48167	-0.381
Mof_F 	F 	0.85863	0.85527	0.36567	-0.334
Mof_Ag	Ag	0.98952	0.47376	0.83087	0.669
Mof_O 	O 	0.678	0.00214	0.97907	-0.196
Mof_N 	N 	0.01069	0.53399	0.68433	-0.192
Mof_N 	N 	0.87578	0.61657	0.72663	-0.189
Mof_C 	C 	0.99067	0.55903	0.69503	0.036
Mof_H 	H 	0.96557	0.54923	0.75983	0.05
Mof_C 	C 	0.00661	0.59888	0.61133	-0.051
Mof_C 	C 	0.70993	0.94607	0.84407	0.033
Mof_H 	H 	0.72163	0.97297	0.78857	0.084
Mof_C 	C 	0.72883	0.91937	0.82797	-0.114
Mof_H 	H 	0.4192	0.2606	0.091	0.147
Mof_C 	C 	0.04537	0.54723	0.58433	0.075
Mof_H 	H 	0.05867	0.52973	0.57473	0.031
Mof_C 	C 	0.98677	0.62848	0.63483	0.176
Mof_C 	C 	0.91967	0.63103	0.72223	0.084
Mof_H 	H 	0.93907	0.65743	0.77523	0.035
Mof_C 	C 	0.93757	0.60823	0.64173	-0.051
Mof_C 	C 	0.57533	0.90217	0.89377	0.065
Mof_H 	H 	0.58623	0.88627	0.83807	0.064
Mof_C 	C 	0.86357	0.55413	0.56503	-0.089
Mof_H 	H 	0.51023	0.86147	0.84467	0.18
Mof_C 	C 	0.84827	0.57823	0.64993	0.113
Mof_H 	H 	0.81767	0.56743	0.65403	0.059
Mof_C 	C 	0.08287	0.49073	0.88303	0.288
Mof_O 	O 	0.06467	0.47293	0.75553	-0.246
Mof_O 	O 	0.3986	0.1654	0.6632	-0.277
Mof_C 	C 	0.4636	0.1755	0.5409	0.268
Mof_F 	F 	0.14687	0.48893	0.78723	-0.354
Mof_F 	F 	0.4979	0.2241	0.533	-0.271
Mof_C 	C 	0.4808	0.172	0.7043	0.765
Mof_F 	F 	0.4535	0.1274	0.7313	-0.476
Mof_F 	F 	0.4747	0.1996	0.815	-0.38
Mof_F 	F 	0.5253	0.1886	0.699	-0.333
Mof_Ag	Ag	0.65618	0.8071	0.16421	0.669
Mof_O 	O 	0.34467	0.33547	0.3124	-0.196
Mof_N 	N 	0.67735	0.86733	0.01767	-0.191
Mof_N 	N 	0.54244	0.94991	0.05997	-0.189
Mof_C 	C 	0.65733	0.89237	0.02837	0.038
Mof_H 	H 	0.63223	0.88257	0.09317	0.05
Mof_C 	C 	0.67327	0.93222	0.94467	-0.052
Mof_C 	C 	0.3766	0.2794	0.1774	0.032
Mof_H 	H 	0.3883	0.3063	0.1219	0.084
Mof_C 	C 	0.3955	0.2527	0.1613	-0.114
Mof_H 	H 	0.08587	0.59393	0.42433	0.148
Mof_C 	C 	0.71203	0.88057	0.91767	0.074
Mof_H 	H 	0.72533	0.86307	0.90807	0.031
Mof_C 	C 	0.65343	0.96182	0.96817	0.176
Mof_C 	C 	0.58633	0.96437	0.05557	0.085
Mof_H 	H 	0.60573	0.99077	0.10857	0.035
Mof_C 	C 	0.60423	0.94157	0.97507	-0.052
Mof_C 	C 	0.242	0.2355	0.2271	0.065
Mof_H 	H 	0.2529	0.2196	0.1714	0.064
Mof_C 	C 	0.53023	0.88747	0.89837	-0.089
Mof_H 	H 	0.1769	0.1948	0.178	0.18
Mof_C 	C 	0.51493	0.91157	0.98327	0.112
Mof_H 	H 	0.48433	0.90077	0.98737	0.059
Mof_C 	C 	0.74953	0.82407	0.21637	0.287
Mof_O 	O 	0.73133	0.80627	0.08887	-0.246
Mof_O 	O 	0.06527	0.49873	0.99653	-0.277
Mof_C 	C 	0.13027	0.50883	0.87423	0.266
Mof_F 	F 	0.81353	0.82227	0.12057	-0.354
Mof_F 	F 	0.16457	0.55743	0.86633	-0.272
Mof_C 	C 	0.14747	0.50533	0.03763	0.767
Mof_F 	F 	0.12017	0.46073	0.06463	-0.476
Mof_F 	F 	0.14137	0.53293	0.14833	-0.38
Mof_F 	F 	0.19197	0.52193	0.03233	-0.333
Mof_Ag	Ag	0.85957	0.18242	0.49754	0.668
Mof_O 	O 	0.3312	0.34253	0.64573	-0.196
Mof_N 	N 	0.79934	0.14336	0.351	-0.192
Mof_N 	N 	0.71676	0.92587	0.3933	-0.189
Mof_C 	C 	0.7743	0.0983	0.3617	0.036
Mof_H 	H 	0.7841	0.083	0.4265	0.05
Mof_C 	C 	0.73445	0.07439	0.278	-0.05
Mof_C 	C 	0.38727	0.43053	0.51073	0.032
Mof_H 	H 	0.36037	0.41533	0.45523	0.084
Mof_C 	C 	0.41397	0.47613	0.49463	-0.114
Mof_H 	H 	0.07273	0.82527	0.75767	0.148
Mof_C 	C 	0.7861	0.1648	0.251	0.074
Mof_H 	H 	0.8036	0.1956	0.2414	0.031
Mof_C 	C 	0.70485	0.02495	0.3015	0.175
Mof_C 	C 	0.7023	0.9553	0.3889	0.083
Mof_H 	H 	0.6759	0.9483	0.4419	0.035
Mof_C 	C 	0.7251	0.996	0.3084	-0.051
Mof_C 	C 	0.43117	0.33983	0.56043	0.065
Mof_H 	H 	0.44707	0.36663	0.50473	0.065
Mof_C 	C 	0.7792	0.9761	0.2317	-0.089
Mof_H 	H 	0.47187	0.31543	0.51133	0.18
Mof_C 	C 	0.7551	0.9367	0.3166	0.113
Mof_H 	H 	0.7659	0.9169	0.3207	0.059
Mof_C 	C 	0.8426	0.2588	0.5497	0.288
Mof_O 	O 	0.8604	0.2584	0.4222	-0.246
Mof_O 	O 	0.16793	0.89987	0.32987	-0.277
Mof_C 	C 	0.15783	0.95477	0.20757	0.268
Mof_F 	F 	0.8444	0.3246	0.4539	-0.354
Mof_F 	F 	0.10923	0.94047	0.19967	-0.271
Mof_C 	C 	0.16133	0.97547	0.37097	0.765
Mof_F 	F 	0.20593	0.99277	0.39797	-0.476
Mof_F 	F 	0.13373	0.94177	0.48167	-0.381
Mof_F 	F 	0.14473	0.00337	0.36567	-0.334
Mof_Ag	Ag	0.52624	0.51575	0.83087	0.669
Mof_O 	O 	0.99786	0.67587	0.97907	-0.196
Mof_N 	N 	0.46601	0.47669	0.68433	-0.192
Mof_N 	N 	0.38343	0.2592	0.72663	-0.189
Mof_C 	C 	0.44097	0.43163	0.69503	0.036
Mof_H 	H 	0.45077	0.41633	0.75983	0.05
Mof_C 	C 	0.40112	0.40772	0.61133	-0.05
Mof_C 	C 	0.05393	0.76387	0.84407	0.033
Mof_H 	H 	0.02703	0.74867	0.78857	0.083
Mof_C 	C 	0.08063	0.80947	0.82797	-0.114
Mof_H 	H 	0.7394	0.1586	0.091	0.147
Mof_C 	C 	0.45277	0.49813	0.58433	0.075
Mof_H 	H 	0.47027	0.52893	0.57473	0.031
Mof_C 	C 	0.37152	0.35828	0.63483	0.176
Mof_C 	C 	0.36897	0.28863	0.72223	0.084
Mof_H 	H 	0.34257	0.28163	0.77523	0.035
Mof_C 	C 	0.39177	0.32933	0.64173	-0.051
Mof_C 	C 	0.09783	0.67317	0.89377	0.065
Mof_H 	H 	0.11373	0.69997	0.83807	0.064
Mof_C 	C 	0.44587	0.30943	0.56503	-0.089
Mof_H 	H 	0.13853	0.64877	0.84467	0.18
Mof_C 	C 	0.42177	0.27003	0.64993	0.113
Mof_H 	H 	0.43257	0.25023	0.65403	0.059
Mof_C 	C 	0.50927	0.59213	0.88303	0.288
Mof_O 	O 	0.52707	0.59173	0.75553	-0.246
Mof_O 	O 	0.8346	0.2332	0.6632	-0.277
Mof_C 	C 	0.8245	0.2881	0.5409	0.268
Mof_F 	F 	0.51107	0.65793	0.78723	-0.354
Mof_F 	F 	0.7759	0.2738	0.533	-0.271
Mof_C 	C 	0.828	0.3088	0.7043	0.765
Mof_F 	F 	0.8726	0.3261	0.7313	-0.476
Mof_F 	F 	0.8004	0.2751	0.815	-0.38
Mof_F 	F 	0.8114	0.3367	0.699	-0.333
Mof_Ag	Ag	0.1929	0.84909	0.16421	0.669
Mof_O 	O 	0.66453	0.0092	0.3124	-0.196
Mof_N 	N 	0.13267	0.81003	0.01767	-0.191
Mof_N 	N 	0.05009	0.59254	0.05997	-0.189
Mof_C 	C 	0.10763	0.76497	0.02837	0.038
Mof_H 	H 	0.11743	0.74967	0.09317	0.05
Mof_C 	C 	0.06778	0.74106	0.94467	-0.052
Mof_C 	C 	0.7206	0.0972	0.1774	0.032
Mof_H 	H 	0.6937	0.082	0.1219	0.083
Mof_C 	C 	0.7473	0.1428	0.1613	-0.114
Mof_H 	H 	0.40607	0.49193	0.42433	0.148
Mof_C 	C 	0.11943	0.83147	0.91767	0.074
Mof_H 	H 	0.13693	0.86227	0.90807	0.031
Mof_C 	C 	0.03818	0.69162	0.96817	0.176
Mof_C 	C 	0.03563	0.62197	0.05557	0.085
Mof_H 	H 	0.00923	0.61497	0.10857	0.035
Mof_C 	C 	0.05843	0.66267	0.97507	-0.052
Mof_C 	C 	0.7645	0.0065	0.2271	0.065
Mof_H 	H 	0.7804	0.0333	0.1714	0.065
Mof_C 	C 	0.11253	0.64277	0.89837	-0.089
Mof_H 	H 	0.8052	0.9821	0.178	0.18
Mof_C 	C 	0.08843	0.60337	0.98327	0.112
Mof_H 	H 	0.09923	0.58357	0.98737	0.059
Mof_C 	C 	0.17593	0.92547	0.21637	0.287
Mof_O 	O 	0.19373	0.92507	0.08887	-0.246
Mof_O 	O 	0.50127	0.56653	0.99653	-0.277
Mof_C 	C 	0.49117	0.62143	0.87423	0.266
Mof_F 	F 	0.17773	0.99127	0.12057	-0.354
Mof_F 	F 	0.44257	0.60713	0.86633	-0.272
Mof_C 	C 	0.49467	0.64213	0.03763	0.767
Mof_F 	F 	0.53927	0.65943	0.06463	-0.476
Mof_F 	F 	0.46707	0.60843	0.14833	-0.38
Mof_F 	F 	0.47807	0.67003	0.03233	-0.333
Mof_Ag	Ag	0.81758	0.67715	0.49754	0.668
Mof_O 	O 	0.65747	0.98866	0.64573	-0.196
Mof_N 	N 	0.85664	0.65598	0.351	-0.192
Mof_N 	N 	0.07413	0.79089	0.3933	-0.189
Mof_C 	C 	0.9017	0.676	0.3617	0.036
Mof_H 	H 	0.917	0.7011	0.4265	0.05
Mof_C 	C 	0.92561	0.66006	0.278	-0.05
Mof_C 	C 	0.56947	0.95673	0.51073	0.033
Mof_H 	H 	0.58467	0.94503	0.45523	0.084
Mof_C 	C 	0.52387	0.93783	0.49463	-0.114
Mof_H 	H 	0.17473	0.24747	0.75767	0.148
Mof_C 	C 	0.8352	0.6213	0.251	0.074
Mof_H 	H 	0.8044	0.608	0.2414	0.031
Mof_C 	C 	0.97505	0.6799	0.3015	0.176
Mof_C 	C 	0.0447	0.747	0.3889	0.083
Mof_H 	H 	0.0517	0.7276	0.4419	0.035
Mof_C 	C 	0.004	0.7291	0.3084	-0.051
Mof_C 	C 	0.66017	0.09133	0.56043	0.065
Mof_H 	H 	0.63337	0.08043	0.50473	0.065
Mof_C 	C 	0.0239	0.8031	0.2317	-0.089
Mof_H 	H 	0.68457	0.15643	0.51133	0.18
Mof_C 	C 	0.0633	0.8184	0.3166	0.113
Mof_H 	H 	0.0831	0.849	0.3207	0.059
Mof_C 	C 	0.7412	0.5838	0.5497	0.288
Mof_O 	O 	0.7416	0.602	0.4222	-0.246
Mof_O 	O 	0.10013	0.26807	0.32987	-0.277
Mof_C 	C 	0.04523	0.20307	0.20757	0.268
Mof_F 	F 	0.6754	0.5198	0.4539	-0.354
Mof_F 	F 	0.05953	0.16877	0.19967	-0.271
Mof_C 	C 	0.02453	0.18587	0.37097	0.765
Mof_F 	F 	0.00723	0.21317	0.39797	-0.476
Mof_F 	F 	0.05823	0.19197	0.48167	-0.381
Mof_F 	F 	0.99663	0.14137	0.36567	-0.334
Mof_Ag	Ag	0.48425	0.01048	0.83087	0.669
Mof_O 	O 	0.32413	0.322	0.97907	-0.196
Mof_N 	N 	0.52331	0.98931	0.68433	-0.192
Mof_N 	N 	0.7408	0.12422	0.72663	-0.189
Mof_C 	C 	0.56837	0.00933	0.69503	0.036
Mof_H 	H 	0.58367	0.03443	0.75983	0.05
Mof_C 	C 	0.59228	0.99339	0.61133	-0.05
Mof_C 	C 	0.23613	0.29007	0.84407	0.033
Mof_H 	H 	0.25133	0.27837	0.78857	0.084
Mof_C 	C 	0.19053	0.27117	0.82797	-0.114
Mof_H 	H 	0.8414	0.5808	0.091	0.147
Mof_C 	C 	0.50187	0.95463	0.58433	0.075
Mof_H 	H 	0.47107	0.94133	0.57473	0.031
Mof_C 	C 	0.64172	0.01323	0.63483	0.176
Mof_C 	C 	0.71137	0.08033	0.72223	0.084
Mof_H 	H 	0.71837	0.06093	0.77523	0.035
Mof_C 	C 	0.67067	0.06243	0.64173	-0.051
Mof_C 	C 	0.32683	0.42467	0.89377	0.065
Mof_H 	H 	0.30003	0.41377	0.83807	0.064
Mof_C 	C 	0.69057	0.13643	0.56503	-0.089
Mof_H 	H 	0.35123	0.48977	0.84467	0.18
Mof_C 	C 	0.72997	0.15173	0.64993	0.113
Mof_H 	H 	0.74977	0.18233	0.65403	0.059
Mof_C 	C 	0.40787	0.91713	0.88303	0.288
Mof_O 	O 	0.40827	0.93533	0.75553	-0.246
Mof_O 	O 	0.7668	0.6014	0.6632	-0.277
Mof_C 	C 	0.7119	0.5364	0.5409	0.268
Mof_F 	F 	0.34207	0.85313	0.78723	-0.354
Mof_F 	F 	0.7262	0.5021	0.533	-0.271
Mof_C 	C 	0.6912	0.5192	0.7043	0.765
Mof_F 	F 	0.6739	0.5465	0.7313	-0.476
Mof_F 	F 	0.7249	0.5253	0.815	-0.38
Mof_F 	F 	0.6633	0.4747	0.699	-0.333
Mof_Ag	Ag	0.15091	0.34382	0.16421	0.669
Mof_O 	O 	0.9908	0.65533	0.3124	-0.196
Mof_N 	N 	0.18997	0.32265	0.01767	-0.191
Mof_N 	N 	0.40746	0.45756	0.05997	-0.189
Mof_C 	C 	0.23503	0.34267	0.02837	0.038
Mof_H 	H 	0.25033	0.36777	0.09317	0.05
Mof_C 	C 	0.25894	0.32673	0.94467	-0.052
Mof_C 	C 	0.9028	0.6234	0.1774	0.032
Mof_H 	H 	0.918	0.6117	0.1219	0.083
Mof_C 	C 	0.8572	0.6045	0.1613	-0.114
Mof_H 	H 	0.50807	0.91413	0.42433	0.148
Mof_C 	C 	0.16853	0.28797	0.91767	0.074
Mof_H 	H 	0.13773	0.27467	0.90807	0.031
Mof_C 	C 	0.30838	0.34657	0.96817	0.176
Mof_C 	C 	0.37803	0.41367	0.05557	0.085
Mof_H 	H 	0.38503	0.39427	0.10857	0.035
Mof_C 	C 	0.33733	0.39577	0.97507	-0.052
Mof_C 	C 	0.9935	0.758	0.2271	0.065
Mof_H 	H 	0.9667	0.7471	0.1714	0.064
Mof_C 	C 	0.35723	0.46977	0.89837	-0.089
Mof_H 	H 	0.0179	0.8231	0.178	0.18
Mof_C 	C 	0.39663	0.48507	0.98327	0.112
Mof_H 	H 	0.41643	0.51567	0.98737	0.059
Mof_C 	C 	0.07453	0.25047	0.21637	0.287
Mof_O 	O 	0.07493	0.26867	0.08887	-0.246
Mof_O 	O 	0.43347	0.93473	0.99653	-0.278
Mof_C 	C 	0.37857	0.86973	0.87423	0.266
Mof_F 	F 	0.00873	0.18647	0.12057	-0.354
Mof_F 	F 	0.39287	0.83543	0.86633	-0.272
Mof_C 	C 	0.35787	0.85253	0.03763	0.767
Mof_F 	F 	0.34057	0.87983	0.06463	-0.476
Mof_F 	F 	0.39157	0.85863	0.14833	-0.38
Mof_F 	F 	0.32997	0.80803	0.03233	-0.333
Mof_Ag	Ag	0.67715	0.85957	0.50246	0.668
Mof_O 	O 	0.98866	0.3312	0.35427	-0.196
Mof_N 	N 	0.65598	0.79934	0.649	-0.192
Mof_N 	N 	0.79089	0.71676	0.6067	-0.189
Mof_C 	C 	0.676	0.7743	0.6383	0.036
Mof_H 	H 	0.7011	0.7841	0.5735	0.05
Mof_C 	C 	0.66006	0.73445	0.722	-0.05
Mof_C 	C 	0.95673	0.38727	0.48927	0.033
Mof_H 	H 	0.94503	0.36037	0.54477	0.084
Mof_C 	C 	0.93783	0.41397	0.50537	-0.114
Mof_H 	H 	0.24747	0.07273	0.24233	0.148
Mof_C 	C 	0.6213	0.7861	0.749	0.074
Mof_H 	H 	0.608	0.8036	0.7586	0.031
Mof_C 	C 	0.6799	0.70485	0.6985	0.175
Mof_C 	C 	0.747	0.7023	0.6111	0.083
Mof_H 	H 	0.7276	0.6759	0.5581	0.035
Mof_C 	C 	0.7291	0.7251	0.6916	-0.051
Mof_C 	C 	0.09133	0.43117	0.43957	0.065
Mof_H 	H 	0.08043	0.44707	0.49527	0.064
Mof_C 	C 	0.8031	0.7792	0.7683	-0.089
Mof_H 	H 	0.15643	0.47187	0.48867	0.18
Mof_C 	C 	0.8184	0.7551	0.6834	0.113
Mof_H 	H 	0.849	0.7659	0.6793	0.059
Mof_C 	C 	0.5838	0.8426	0.4503	0.288
Mof_O 	O 	0.602	0.8604	0.5778	-0.246
Mof_O 	O 	0.26807	0.16793	0.67013	-0.277
Mof_C 	C 	0.20307	0.15783	0.79243	0.268
Mof_F 	F 	0.5198	0.8444	0.5461	-0.354
Mof_F 	F 	0.16877	0.10923	0.80033	-0.271
Mof_C 	C 	0.18587	0.16133	0.62903	0.765
Mof_F 	F 	0.21317	0.20593	0.60203	-0.476
Mof_F 	F 	0.19197	0.13373	0.51833	-0.381
Mof_F 	F 	0.14137	0.14473	0.63433	-0.334
Mof_Ag	Ag	0.34382	0.1929	0.83579	0.669
Mof_O 	O 	0.65533	0.66453	0.6876	-0.196
Mof_N 	N 	0.32265	0.13267	0.98233	-0.191
Mof_N 	N 	0.45756	0.05009	0.94003	-0.189
Mof_C 	C 	0.34267	0.10763	0.97163	0.038
Mof_H 	H 	0.36777	0.11743	0.90683	0.05
Mof_C 	C 	0.32673	0.06778	0.05533	-0.052
Mof_C 	C 	0.6234	0.7206	0.8226	0.032
Mof_H 	H 	0.6117	0.6937	0.8781	0.084
Mof_C 	C 	0.6045	0.7473	0.8387	-0.114
Mof_H 	H 	0.91413	0.40607	0.57567	0.148
Mof_C 	C 	0.28797	0.11943	0.08233	0.074
Mof_H 	H 	0.27467	0.13693	0.09193	0.031
Mof_C 	C 	0.34657	0.03818	0.03183	0.176
Mof_C 	C 	0.41367	0.03563	0.94443	0.085
Mof_H 	H 	0.39427	0.00923	0.89143	0.035
Mof_C 	C 	0.39577	0.05843	0.02493	-0.052
Mof_C 	C 	0.758	0.7645	0.7729	0.065
Mof_H 	H 	0.7471	0.7804	0.8286	0.064
Mof_C 	C 	0.46977	0.11253	0.10163	-0.089
Mof_H 	H 	0.8231	0.8052	0.822	0.18
Mof_C 	C 	0.48507	0.08843	0.01673	0.112
Mof_H 	H 	0.51567	0.09923	0.01263	0.059
Mof_C 	C 	0.25047	0.17593	0.78363	0.287
Mof_O 	O 	0.26867	0.19373	0.91113	-0.246
Mof_O 	O 	0.93473	0.50127	0.00347	-0.277
Mof_C 	C 	0.86973	0.49117	0.12577	0.266
Mof_F 	F 	0.18647	0.17773	0.87943	-0.354
Mof_F 	F 	0.83543	0.44257	0.13367	-0.272
Mof_C 	C 	0.85253	0.49467	0.96237	0.767
Mof_F 	F 	0.87983	0.53927	0.93537	-0.476
Mof_F 	F 	0.85863	0.46707	0.85167	-0.38
Mof_F 	F 	0.80803	0.47807	0.96767	-0.333
Mof_Ag	Ag	0.01048	0.52624	0.16913	0.669
Mof_O 	O 	0.322	0.99786	0.02093	-0.196
Mof_N 	N 	0.98931	0.46601	0.31567	-0.192
Mof_N 	N 	0.12422	0.38343	0.27337	-0.189
Mof_C 	C 	0.00933	0.44097	0.30497	0.036
Mof_H 	H 	0.03443	0.45077	0.24017	0.05
Mof_C 	C 	0.99339	0.40112	0.38867	-0.051
Mof_C 	C 	0.29007	0.05393	0.15593	0.033
Mof_H 	H 	0.27837	0.02703	0.21143	0.084
Mof_C 	C 	0.27117	0.08063	0.17203	-0.114
Mof_H 	H 	0.5808	0.7394	0.909	0.147
Mof_C 	C 	0.95463	0.45277	0.41567	0.075
Mof_H 	H 	0.94133	0.47027	0.42527	0.031
Mof_C 	C 	0.01323	0.37152	0.36517	0.176
Mof_C 	C 	0.08033	0.36897	0.27777	0.084
Mof_H 	H 	0.06093	0.34257	0.22477	0.035
Mof_C 	C 	0.06243	0.39177	0.35827	-0.051
Mof_C 	C 	0.42467	0.09783	0.10623	0.065
Mof_H 	H 	0.41377	0.11373	0.16193	0.064
Mof_C 	C 	0.13643	0.44587	0.43497	-0.089
Mof_H 	H 	0.48977	0.13853	0.15533	0.18
Mof_C 	C 	0.15173	0.42177	0.35007	0.113
Mof_H 	H 	0.18233	0.43257	0.34597	0.059
Mof_C 	C 	0.91713	0.50927	0.11697	0.288
Mof_O 	O 	0.93533	0.52707	0.24447	-0.246
Mof_O 	O 	0.6014	0.8346	0.3368	-0.277
Mof_C 	C 	0.5364	0.8245	0.4591	0.268
Mof_F 	F 	0.85313	0.51107	0.21277	-0.354
Mof_F 	F 	0.5021	0.7759	0.467	-0.271
Mof_C 	C 	0.5192	0.828	0.2957	0.765
Mof_F 	F 	0.5465	0.8726	0.2687	-0.476
Mof_F 	F 	0.5253	0.8004	0.185	-0.38
Mof_F 	F 	0.4747	0.8114	0.301	-0.333
Mof_Ag	Ag	0.14043	0.81758	0.50246	0.668
Mof_O 	O 	0.6688	0.65747	0.35427	-0.196
Mof_N 	N 	0.20066	0.85664	0.649	-0.192
Mof_N 	N 	0.28324	0.07413	0.6067	-0.189
Mof_C 	C 	0.2257	0.9017	0.6383	0.036
Mof_H 	H 	0.2159	0.917	0.5735	0.05
Mof_C 	C 	0.26555	0.92561	0.722	-0.05
Mof_C 	C 	0.61273	0.56947	0.48927	0.032
Mof_H 	H 	0.63963	0.58467	0.54477	0.084
Mof_C 	C 	0.58603	0.52387	0.50537	-0.114
Mof_H 	H 	0.92727	0.17473	0.24233	0.148
Mof_C 	C 	0.2139	0.8352	0.749	0.074
Mof_H 	H 	0.1964	0.8044	0.7586	0.031
Mof_C 	C 	0.29515	0.97505	0.6985	0.175
Mof_C 	C 	0.2977	0.0447	0.6111	0.083
Mof_H 	H 	0.3241	0.0517	0.5581	0.035
Mof_C 	C 	0.2749	0.004	0.6916	-0.051
Mof_C 	C 	0.56883	0.66017	0.43957	0.065
Mof_H 	H 	0.55293	0.63337	0.49527	0.065
Mof_C 	C 	0.2208	0.0239	0.7683	-0.089
Mof_H 	H 	0.52813	0.68457	0.48867	0.18
Mof_C 	C 	0.2449	0.0633	0.6834	0.113
Mof_H 	H 	0.2341	0.0831	0.6793	0.059
Mof_C 	C 	0.1574	0.7412	0.4503	0.288
Mof_O 	O 	0.1396	0.7416	0.5778	-0.246
Mof_O 	O 	0.83207	0.10013	0.67013	-0.277
Mof_C 	C 	0.84217	0.04523	0.79243	0.268
Mof_F 	F 	0.1556	0.6754	0.5461	-0.354
Mof_F 	F 	0.89077	0.05953	0.80033	-0.271
Mof_C 	C 	0.83867	0.02453	0.62903	0.765
Mof_F 	F 	0.79407	0.00723	0.60203	-0.476
Mof_F 	F 	0.86627	0.05823	0.51833	-0.381
Mof_F 	F 	0.85527	0.99663	0.63433	-0.334
Mof_Ag	Ag	0.8071	0.15091	0.83579	0.669
Mof_O 	O 	0.33547	0.9908	0.6876	-0.196
Mof_N 	N 	0.86733	0.18997	0.98233	-0.191
Mof_N 	N 	0.94991	0.40746	0.94003	-0.189
Mof_C 	C 	0.89237	0.23503	0.97163	0.038
Mof_H 	H 	0.88257	0.25033	0.90683	0.05
Mof_C 	C 	0.93222	0.25894	0.05533	-0.052
Mof_C 	C 	0.2794	0.9028	0.8226	0.032
Mof_H 	H 	0.3063	0.918	0.8781	0.083
Mof_C 	C 	0.2527	0.8572	0.8387	-0.114
Mof_H 	H 	0.59393	0.50807	0.57567	0.148
Mof_C 	C 	0.88057	0.16853	0.08233	0.074
Mof_H 	H 	0.86307	0.13773	0.09193	0.031
Mof_C 	C 	0.96182	0.30838	0.03183	0.176
Mof_C 	C 	0.96437	0.37803	0.94443	0.085
Mof_H 	H 	0.99077	0.38503	0.89143	0.035
Mof_C 	C 	0.94157	0.33733	0.02493	-0.052
Mof_C 	C 	0.2355	0.9935	0.7729	0.065
Mof_H 	H 	0.2196	0.9667	0.8286	0.065
Mof_C 	C 	0.88747	0.35723	0.10163	-0.089
Mof_H 	H 	0.1948	0.0179	0.822	0.18
Mof_C 	C 	0.91157	0.39663	0.01673	0.112
Mof_H 	H 	0.90077	0.41643	0.01263	0.059
Mof_C 	C 	0.82407	0.07453	0.78363	0.287
Mof_O 	O 	0.80627	0.07493	0.91113	-0.246
Mof_O 	O 	0.49873	0.43347	0.00347	-0.277
Mof_C 	C 	0.50883	0.37857	0.12577	0.266
Mof_F 	F 	0.82227	0.00873	0.87943	-0.354
Mof_F 	F 	0.55743	0.39287	0.13367	-0.272
Mof_C 	C 	0.50533	0.35787	0.96237	0.767
Mof_F 	F 	0.46073	0.34057	0.93537	-0.476
Mof_F 	F 	0.53293	0.39157	0.85167	-0.38
Mof_F 	F 	0.52193	0.32997	0.96767	-0.333
Mof_Ag	Ag	0.47376	0.48425	0.16913	0.669
Mof_O 	O 	0.00214	0.32413	0.02093	-0.196
Mof_N 	N 	0.53399	0.52331	0.31567	-0.192
Mof_N 	N 	0.61657	0.7408	0.27337	-0.189
Mof_C 	C 	0.55903	0.56837	0.30497	0.036
Mof_H 	H 	0.54923	0.58367	0.24017	0.05
Mof_C 	C 	0.59888	0.59228	0.38867	-0.05
Mof_C 	C 	0.94607	0.23613	0.15593	0.033
Mof_H 	H 	0.97297	0.25133	0.21143	0.083
Mof_C 	C 	0.91937	0.19053	0.17203	-0.114
Mof_H 	H 	0.2606	0.8414	0.909	0.147
Mof_C 	C 	0.54723	0.50187	0.41567	0.075
Mof_H 	H 	0.52973	0.47107	0.42527	0.031
Mof_C 	C 	0.62848	0.64172	0.36517	0.176
Mof_C 	C 	0.63103	0.71137	0.27777	0.084
Mof_H 	H 	0.65743	0.71837	0.22477	0.035
Mof_C 	C 	0.60823	0.67067	0.35827	-0.051
Mof_C 	C 	0.90217	0.32683	0.10623	0.065
Mof_H 	H 	0.88627	0.30003	0.16193	0.064
Mof_C 	C 	0.55413	0.69057	0.43497	-0.089
Mof_H 	H 	0.86147	0.35123	0.15533	0.18
Mof_C 	C 	0.57823	0.72997	0.35007	0.113
Mof_H 	H 	0.56743	0.74977	0.34597	0.059
Mof_C 	C 	0.49073	0.40787	0.11697	0.288
Mof_O 	O 	0.47293	0.40827	0.24447	-0.246
Mof_O 	O 	0.1654	0.7668	0.3368	-0.277
Mof_C 	C 	0.1755	0.7119	0.4591	0.268
Mof_F 	F 	0.48893	0.34207	0.21277	-0.354
Mof_F 	F 	0.2241	0.7262	0.467	-0.271
Mof_C 	C 	0.172	0.6912	0.2957	0.765
Mof_F 	F 	0.1274	0.6739	0.2687	-0.476
Mof_F 	F 	0.1996	0.7249	0.185	-0.38
Mof_F 	F 	0.1886	0.6633	0.301	-0.333
Mof_Ag	Ag	0.18242	0.32285	0.50246	0.668
Mof_O 	O 	0.34253	0.01134	0.35427	-0.196
Mof_N 	N 	0.14336	0.34402	0.649	-0.192
Mof_N 	N 	0.92587	0.20911	0.6067	-0.189
Mof_C 	C 	0.0983	0.324	0.6383	0.036
Mof_H 	H 	0.083	0.2989	0.5735	0.05
Mof_C 	C 	0.07439	0.33994	0.722	-0.05
Mof_C 	C 	0.43053	0.04327	0.48927	0.033
Mof_H 	H 	0.41533	0.05497	0.54477	0.084
Mof_C 	C 	0.47613	0.06217	0.50537	-0.114
Mof_H 	H 	0.82527	0.75253	0.24233	0.148
Mof_C 	C 	0.1648	0.3787	0.749	0.074
Mof_H 	H 	0.1956	0.392	0.7586	0.031
Mof_C 	C 	0.02495	0.3201	0.6985	0.176
Mof_C 	C 	0.9553	0.253	0.6111	0.083
Mof_H 	H 	0.9483	0.2724	0.5581	0.035
Mof_C 	C 	0.996	0.2709	0.6916	-0.051
Mof_C 	C 	0.33983	0.90867	0.43957	0.065
Mof_H 	H 	0.36663	0.91957	0.49527	0.065
Mof_C 	C 	0.9761	0.1969	0.7683	-0.089
Mof_H 	H 	0.31543	0.84357	0.48867	0.18
Mof_C 	C 	0.9367	0.1816	0.6834	0.113
Mof_H 	H 	0.9169	0.151	0.6793	0.059
Mof_C 	C 	0.2588	0.4162	0.4503	0.288
Mof_O 	O 	0.2584	0.398	0.5778	-0.246
Mof_O 	O 	0.89987	0.73193	0.67013	-0.277
Mof_C 	C 	0.95477	0.79693	0.79243	0.268
Mof_F 	F 	0.3246	0.4802	0.5461	-0.354
Mof_F 	F 	0.94047	0.83123	0.80033	-0.271
Mof_C 	C 	0.97547	0.81413	0.62903	0.765
Mof_F 	F 	0.99277	0.78683	0.60203	-0.476
Mof_F 	F 	0.94177	0.80803	0.51833	-0.381
Mof_F 	F 	0.00337	0.85863	0.63433	-0.334
Mof_Ag	Ag	0.84909	0.65618	0.83579	0.669
Mof_O 	O 	0.0092	0.34467	0.6876	-0.196
Mof_N 	N 	0.81003	0.67735	0.98233	-0.191
Mof_N 	N 	0.59254	0.54244	0.94003	-0.189
Mof_C 	C 	0.76497	0.65733	0.97163	0.038
Mof_H 	H 	0.74967	0.63223	0.90683	0.05
Mof_C 	C 	0.74106	0.67327	0.05533	-0.052
Mof_C 	C 	0.0972	0.3766	0.8226	0.032
Mof_H 	H 	0.082	0.3883	0.8781	0.083
Mof_C 	C 	0.1428	0.3955	0.8387	-0.114
Mof_H 	H 	0.49193	0.08587	0.57567	0.148
Mof_C 	C 	0.83147	0.71203	0.08233	0.074
Mof_H 	H 	0.86227	0.72533	0.09193	0.031
Mof_C 	C 	0.69162	0.65343	0.03183	0.176
Mof_C 	C 	0.62197	0.58633	0.94443	0.085
Mof_H 	H 	0.61497	0.60573	0.89143	0.035
Mof_C 	C 	0.66267	0.60423	0.02493	-0.052
Mof_C 	C 	0.0065	0.242	0.7729	0.065
Mof_H 	H 	0.0333	0.2529	0.8286	0.064
Mof_C 	C 	0.64277	0.53023	0.10163	-0.089
Mof_H 	H 	0.9821	0.1769	0.822	0.18
Mof_C 	C 	0.60337	0.51493	0.01673	0.112
Mof_H 	H 	0.58357	0.48433	0.01263	0.059
Mof_C 	C 	0.92547	0.74953	0.78363	0.287
Mof_O 	O 	0.92507	0.73133	0.91113	-0.246
Mof_O 	O 	0.56653	0.06527	0.00347	-0.278
Mof_C 	C 	0.62143	0.13027	0.12577	0.266
Mof_F 	F 	0.99127	0.81353	0.87943	-0.354
Mof_F 	F 	0.60713	0.16457	0.13367	-0.272
Mof_C 	C 	0.64213	0.14747	0.96237	0.767
Mof_F 	F 	0.65943	0.12017	0.93537	-0.476
Mof_F 	F 	0.60843	0.14137	0.85167	-0.38
Mof_F 	F 	0.67003	0.19197	0.96767	-0.333
Mof_Ag	Ag	0.51575	0.98952	0.16913	0.669
Mof_O 	O 	0.67587	0.678	0.02093	-0.196
Mof_N 	N 	0.47669	0.01069	0.31567	-0.192
Mof_N 	N 	0.2592	0.87578	0.27337	-0.189
Mof_C 	C 	0.43163	0.99067	0.30497	0.036
Mof_H 	H 	0.41633	0.96557	0.24017	0.05
Mof_C 	C 	0.40772	0.00661	0.38867	-0.05
Mof_C 	C 	0.76387	0.70993	0.15593	0.033
Mof_H 	H 	0.74867	0.72163	0.21143	0.084
Mof_C 	C 	0.80947	0.72883	0.17203	-0.114
Mof_H 	H 	0.1586	0.4192	0.909	0.147
Mof_C 	C 	0.49813	0.04537	0.41567	0.075
Mof_H 	H 	0.52893	0.05867	0.42527	0.031
Mof_C 	C 	0.35828	0.98677	0.36517	0.176
Mof_C 	C 	0.28863	0.91967	0.27777	0.084
Mof_H 	H 	0.28163	0.93907	0.22477	0.035
Mof_C 	C 	0.32933	0.93757	0.35827	-0.051
Mof_C 	C 	0.67317	0.57533	0.10623	0.065
Mof_H 	H 	0.69997	0.58623	0.16193	0.064
Mof_C 	C 	0.30943	0.86357	0.43497	-0.089
Mof_H 	H 	0.64877	0.51023	0.15533	0.18
Mof_C 	C 	0.27003	0.84827	0.35007	0.113
Mof_H 	H 	0.25023	0.81767	0.34597	0.059
Mof_C 	C 	0.59213	0.08287	0.11697	0.288
Mof_O 	O 	0.59173	0.06467	0.24447	-0.246
Mof_O 	O 	0.2332	0.3986	0.3368	-0.277
Mof_C 	C 	0.2881	0.4636	0.4591	0.268
Mof_F 	F 	0.65793	0.14687	0.21277	-0.354
Mof_F 	F 	0.2738	0.4979	0.467	-0.271
Mof_C 	C 	0.3088	0.4808	0.2957	0.765
Mof_F 	F 	0.3261	0.4535	0.2687	-0.476
Mof_F 	F 	0.2751	0.4747	0.185	-0.38
Mof_F 	F 	0.3367	0.5253	0.301	-0.333
_end
