# CIF file generated by openbabel 3.1.0, see https://openbabel.org
data_I
_chemical_name_common 'RUWXEN_clean'
_cell_length_a 9.404
_cell_length_b 9.957
_cell_length_c 11.459
_cell_angle_alpha 93.381
_cell_angle_beta 97.716
_cell_angle_gamma 110.242
_space_group_name_H-M_alt 'P 1'
_space_group_name_Hall 'P 1'
loop_
    _symmetry_equiv_pos_as_xyz
    x,y,z
loop_
    _atom_site_label
    _atom_site_type_symbol
    _atom_site_fract_x
    _atom_site_fract_y
    _atom_site_fract_z
    _atom_site_occupancy
    La1      La       0.78447    0.54726    0.48193    1.000
    La2      La       0.21553    0.45274    0.51807    1.000
    H1       H        0.58270    0.13340    0.33340    1.000
    H2       H        0.30790    0.71730    0.27870    1.000
    H3       H        0.18560    0.00410    0.46570    1.000
    H4       H        0.64560    0.71860    0.11840    1.000
    H5       H        0.55960    0.60240    0.92410    1.000
    H6       H        0.23970    0.78480    0.88170    1.000
    H7       H        0.33350    0.90960    0.07210    1.000
    H8       H        0.41730    0.86660    0.66660    1.000
    H9       H        0.69210    0.28270    0.72130    1.000
    H10      H        0.81440    0.99590    0.53430    1.000
    H11      H        0.35440    0.28140    0.88160    1.000
    H12      H        0.44040    0.39760    0.07590    1.000
    H13      H        0.76030    0.21520    0.11830    1.000
    H14      H        0.66650    0.09040    0.92790    1.000
    C1       C        0.42830    0.24320    0.46880    1.000
    C2       C        0.39020    0.09240    0.40940    1.000
    C3       C        0.49200    0.06140    0.34310    1.000
    C4       C        0.45530    0.92230    0.29260    1.000
    C5       C        0.32690    0.81140    0.31000    1.000
    C6       C        0.22380    0.84330    0.37680    1.000
    C7       C        0.08040    0.72870    0.39620    1.000
    C8       C        0.25480    0.98270    0.42400    1.000
    C9       C        0.49560    0.82220    0.11230    1.000
    C10      C        0.56460    0.73200    0.07070    1.000
    C11      C        0.51060    0.66000    0.95440    1.000
    C12      C        0.38610    0.67460    0.88570    1.000
    C13      C        0.32220    0.58990    0.76630    1.000
    C14      C        0.32050    0.77070    0.92900    1.000
    C15      C        0.37630    0.84560    0.04350    1.000
    C16      C        0.57170    0.75680    0.53120    1.000
    C17      C        0.60980    0.90760    0.59060    1.000
    C18      C        0.50800    0.93860    0.65690    1.000
    C19      C        0.54470    0.07770    0.70740    1.000
    C20      C        0.67310    0.18860    0.69000    1.000
    C21      C        0.77620    0.15670    0.62320    1.000
    C22      C        0.91960    0.27130    0.60380    1.000
    C23      C        0.74520    0.01730    0.57600    1.000
    C24      C        0.50440    0.17780    0.88770    1.000
    C25      C        0.43540    0.26800    0.92930    1.000
    C26      C        0.48940    0.34000    0.04560    1.000
    C27      C        0.61390    0.32540    0.11430    1.000
    C28      C        0.67780    0.41010    0.23370    1.000
    C29      C        0.67950    0.22930    0.07100    1.000
    C30      C        0.62370    0.15440    0.95650    1.000
    O1       O        0.55640    0.33560    0.46570    1.000
    O2       O        0.32440    0.26610    0.51850    1.000
    O3       O        0.95930    0.75480    0.38430    1.000
    O4       O        0.08360    0.60760    0.42430    1.000
    O5       O        0.55850    0.89550    0.22560    1.000
    O6       O        0.21210    0.61010    0.70240    1.000
    O7       O        0.37880    0.49950    0.73210    1.000
    O8       O        0.44360    0.66440    0.53430    1.000
    O9       O        0.67560    0.73390    0.48150    1.000
    O10      O        0.04070    0.24520    0.61570    1.000
    O11      O        0.91640    0.39240    0.57570    1.000
    O12      O        0.44150    0.10450    0.77440    1.000
    O13      O        0.78790    0.38990    0.29760    1.000
    O14      O        0.62120    0.50050    0.26790    1.000
