data_functionalizedCrystal
_audit_creation_method	'EQeq! by Chris Wilmer'
_symmetry_space_group_name_H-M	'P1'
_symmetry_Int_Tables_number	1
_symmetry_cell_setting	triclinic
loop_
_symmetry_equiv_pos_as_xyz
  x,y,z
_cell_length_a	10.2033
_cell_length_b	10.2033
_cell_length_c	9.5545
_cell_angle_alpha	90
_cell_angle_beta	90
_cell_angle_gamma	90
loop_
_atom_site_label
_atom_site_type_symbol
_atom_site_fract_x
_atom_site_fract_y
_atom_site_fract_z
_atom_site_charge
Mof_O 	O 	0.1972	0.0244	0.2202	-0.454
Mof_O 	O 	0.2879	0.7644	0.201	-0.215
Mof_O 	O 	0.6972	0.5244	0.7202	-0.454
Mof_O 	O 	0.7879	0.2644	0.701	-0.215
Mof_O 	O 	0.8028	0.9756	0.2202	-0.454
Mof_O 	O 	0.7121	0.2356	0.201	-0.215
Mof_O 	O 	0.3028	0.4756	0.7202	-0.454
Mof_O 	O 	0.2121	0.7356	0.701	-0.215
Mof_O 	O 	0.0244	0.8028	0.7798	-0.453
Mof_O 	O 	0.7644	0.7121	0.799	-0.214
Mof_O 	O 	0.5244	0.3028	0.2798	-0.453
Mof_O 	O 	0.2644	0.2121	0.299	-0.214
Mof_O 	O 	0.9756	0.1972	0.7798	-0.453
Mof_O 	O 	0.2356	0.2879	0.799	-0.214
Mof_O 	O 	0.4756	0.6972	0.2798	-0.453
Mof_O 	O 	0.7356	0.7879	0.299	-0.214
Mof_O 	O 	0.8028	0.0244	0.7798	-0.453
Mof_O 	O 	0.7121	0.7644	0.799	-0.214
Mof_O 	O 	0.3028	0.5244	0.2798	-0.453
Mof_O 	O 	0.2121	0.2644	0.299	-0.214
Mof_O 	O 	0.1972	0.9756	0.7798	-0.453
Mof_O 	O 	0.2879	0.2356	0.799	-0.214
Mof_O 	O 	0.6972	0.4756	0.2798	-0.453
Mof_O 	O 	0.7879	0.7356	0.299	-0.214
Mof_O 	O 	0.9756	0.8028	0.2202	-0.453
Mof_O 	O 	0.2356	0.7121	0.201	-0.214
Mof_O 	O 	0.4756	0.3028	0.7202	-0.453
Mof_O 	O 	0.7356	0.2121	0.701	-0.214
Mof_O 	O 	0.0244	0.1972	0.2202	-0.453
Mof_O 	O 	0.7644	0.2879	0.201	-0.214
Mof_O 	O 	0.5244	0.6972	0.7202	-0.453
Mof_O 	O 	0.2644	0.7879	0.701	-0.214
Mof_Co	Co	0.13302	0.86698	0.1328	1.146
Mof_P 	P 	0.16368	0.83632	0.8076	0.536
Mof_O 	O 	0.2031	0.7969	0.9575	-0.444
Mof_H 	H 	0.266	0.734	0.7988	0.097
Mof_Co	Co	0.63302	0.36698	0.6328	1.146
Mof_P 	P 	0.66368	0.33632	0.3076	0.536
Mof_O 	O 	0.7031	0.2969	0.4575	-0.444
Mof_H 	H 	0.766	0.234	0.2988	0.097
Mof_Co	Co	0.86698	0.13302	0.1328	1.146
Mof_P 	P 	0.83632	0.16368	0.8076	0.536
Mof_O 	O 	0.7969	0.2031	0.9575	-0.444
Mof_H 	H 	0.734	0.266	0.7988	0.097
Mof_Co	Co	0.36698	0.63302	0.6328	1.146
Mof_P 	P 	0.33632	0.66368	0.3076	0.536
Mof_O 	O 	0.2969	0.7031	0.4575	-0.444
Mof_H 	H 	0.234	0.766	0.2988	0.097
Mof_Co	Co	0.86698	0.86698	0.8672	1.146
Mof_P 	P 	0.83632	0.83632	0.1924	0.536
Mof_O 	O 	0.7969	0.7969	0.0425	-0.444
Mof_H 	H 	0.734	0.734	0.2012	0.097
Mof_Co	Co	0.36698	0.36698	0.3672	1.146
Mof_P 	P 	0.33632	0.33632	0.6924	0.536
Mof_O 	O 	0.2969	0.2969	0.5425	-0.444
Mof_H 	H 	0.234	0.234	0.7012	0.097
Mof_Co	Co	0.13302	0.13302	0.8672	1.146
Mof_P 	P 	0.16368	0.16368	0.1924	0.536
Mof_O 	O 	0.2031	0.2031	0.0425	-0.444
Mof_H 	H 	0.266	0.266	0.2012	0.097
Mof_Co	Co	0.63302	0.63302	0.3672	1.146
Mof_P 	P 	0.66368	0.66368	0.6924	0.536
Mof_O 	O 	0.7031	0.7031	0.5425	-0.444
Mof_H 	H 	0.766	0.766	0.7012	0.097
_end
