data_functionalizedCrystal
_audit_creation_method	'EQeq! by Chris Wilmer'
_symmetry_space_group_name_H-M	'P1'
_symmetry_Int_Tables_number	1
_symmetry_cell_setting	triclinic
loop_
_symmetry_equiv_pos_as_xyz
  x,y,z
_cell_length_a	13.229
_cell_length_b	15.396
_cell_length_c	14.8
_cell_angle_alpha	90
_cell_angle_beta	95.1
_cell_angle_gamma	90
loop_
_atom_site_label
_atom_site_type_symbol
_atom_site_fract_x
_atom_site_fract_y
_atom_site_fract_z
_atom_site_charge
Mof_Ga	Ga	0.6138	0.5398	0.1791	2.278
Mof_Ga	Ga	0.5648	0.6049	0.5009	4.011
Mof_Ga	Ga	0.5688	0.3515	0.4966	4.109
Mof_Ga	Ga	0.3248	0.474	0.472	3.757
Mof_Ga	Ga	0.2534	0.375	0.2479	3.666
Mof_Ga	Ga	0.8934	0.4306	0.3125	2.703
Mof_Ga	Ga	0.9449	0.3502	-0	3.155
Mof_Ga	Ga	0.9183	0.6074	0.0008	2.716
Mof_Ga	Ga	0.178	0.4772	0.029	3.52
Mof_Ga	Ga	0.2407	0.5797	0.2524	3.866
Mof_P 	P 	0.6798	0.4798	0.3786	1.062
Mof_P 	P 	0.4791	0.4758	0.6385	0.902
Mof_P 	P 	0.3688	0.2799	0.4137	1.023
Mof_P 	P 	0.6354	0.1708	0.5821	1.043
Mof_P 	P 	0.3859	0.4828	0.1267	0.864
Mof_P 	P 	0.8173	0.4657	0.1162	0.843
Mof_P 	P 	0.0235	0.4843	0.8633	0.753
Mof_P 	P 	0.1194	0.6696	0.0893	0.934
Mof_P 	P 	0.1487	0.2808	0.0759	0.891
Mof_P 	P 	0.1151	0.4683	0.3763	0.841
Mof_O 	O 	0.6076	0.487	0.2969	-0.863
Mof_O 	O 	0.6636	0.5564	0.442	-1.191
Mof_O 	O 	0.6647	0.3939	0.4285	-1.215
Mof_O 	O 	0.7083	0.4574	0.1411	-0.82
Mof_O 	O 	0.525	0.5584	0.6067	-1.131
Mof_O 	O 	0.5437	0.3987	0.6044	-1.171
Mof_O 	O 	0.4887	0.4765	0.7399	-0.262
Mof_O 	O 	0.3653	0.4681	0.5977	-0.963
Mof_O 	O 	0.6527	0.2596	0.5433	-1.081
Mof_O 	O 	0.4798	0.6567	0.4126	-1.229
Mof_O 	O 	0.4827	0.2873	0.4186	-1.244
Mof_O 	O 	0.3246	0.285	0.3157	-0.953
Mof_O 	O 	0.1386	0.3907	0.3196	-1.012
Mof_O 	O 	0.189	0.2834	0.1766	-0.942
Mof_O 	O 	0.3661	0.3999	0.1758	-0.954
Mof_O 	O 	0.3257	0.4848	0.0327	-0.911
Mof_O 	O 	0.4988	0.4932	0.1164	-0.802
Mof_O 	O 	0.3258	0.6024	0.4779	-1.029
Mof_O 	O 	0.6552	0.6877	0.5498	-1.057
Mof_O 	O 	0.3242	0.3481	0.4706	-1.044
Mof_O 	O 	0.8954	0.4821	0.2024	-0.956
Mof_O 	O 	0.8408	0.3828	0.068	-1.006
Mof_O 	O 	0.8203	0.5406	0.0504	-0.978
Mof_O 	O 	0.7887	0.4859	0.3597	-0.974
Mof_O 	O 	0.9621	0.4008	0.8868	-0.785
Mof_O 	O 	0.9668	0.5646	0.896	-0.747
Mof_O 	O 	0.0163	0.4909	0.7622	-0.273
Mof_O 	O 	0.1329	0.4808	0.9	-0.775
Mof_O 	O 	0.1793	0.1905	0.0375	-1.173
Mof_O 	O 	0.0304	0.2808	0.0697	-1.129
Mof_O 	O 	0.0048	0.6567	0.0902	-0.954
Mof_O 	O 	0.165	0.6659	0.187	-0.991
Mof_O 	O 	0.3545	0.5649	0.1783	-1
Mof_O 	O 	0.6831	0.1647	0.6785	-1
Mof_O 	O 	0.1341	0.5539	0.3232	-1.022
Mof_O 	O 	0.1755	0.4693	0.4697	-0.876
Mof_O 	O 	0.0007	0.4666	0.392	-0.835
Mof_O 	O 	0.1874	0.3533	0.0196	-1.045
Mof_O 	O 	0.8623	0.26	0.9472	-0.773
Mof_O 	O 	0.1655	0.6019	0.0274	-1.016
Mof_O 	O 	0.1815	0.4764	0.1679	-1.501
Mof_F 	F 	0.4736	0.4709	0.4519	-1.333
Mof_O 	O 	0.314	0.4763	0.3294	-1.527
Mof_F 	F 	0.0257	0.4584	0.0515	-1.198
Mof_Ga	Ga	0.3862	0.0398	0.8209	2.272
Mof_Ga	Ga	0.4352	0.1049	0.4991	3.971
Mof_Ga	Ga	0.4312	0.8515	0.5034	4.126
Mof_Ga	Ga	0.6752	0.974	0.528	3.834
Mof_Ga	Ga	0.7466	0.875	0.7521	3.696
Mof_Ga	Ga	0.1066	0.9306	0.6875	2.793
Mof_Ga	Ga	0.0551	0.8502	-0	3.071
Mof_Ga	Ga	0.0817	0.1074	0.9992	4.228
Mof_Ga	Ga	0.822	0.9772	0.971	4.234
Mof_Ga	Ga	0.7593	0.0797	0.7476	3.809
Mof_P 	P 	0.3202	0.9798	0.6214	1.094
Mof_P 	P 	0.5209	0.9758	0.3615	0.932
Mof_P 	P 	0.6312	0.7799	0.5863	1.028
Mof_P 	P 	0.3646	0.6708	0.4179	1.044
Mof_P 	P 	0.6141	0.9828	0.8733	0.903
Mof_P 	P 	0.1827	0.9657	0.8838	0.921
Mof_P 	P 	0.9765	0.9843	0.1367	0.83
Mof_P 	P 	0.8806	0.1696	0.9107	0.998
Mof_P 	P 	0.8513	0.7808	0.9241	0.872
Mof_P 	P 	0.8849	0.9683	0.6237	0.873
Mof_O 	O 	0.3924	0.987	0.7031	-0.839
Mof_O 	O 	0.3364	0.0564	0.558	-1.217
Mof_O 	O 	0.3353	0.8939	0.5715	-1.214
Mof_O 	O 	0.2917	0.9574	0.8589	-0.757
Mof_O 	O 	0.475	0.0584	0.3933	-1.172
Mof_O 	O 	0.4563	0.8987	0.3956	-1.189
Mof_O 	O 	0.5113	0.9765	0.2601	-0.336
Mof_O 	O 	0.6347	0.9681	0.4023	-0.987
Mof_O 	O 	0.3473	0.7596	0.4567	-1.084
Mof_O 	O 	0.5202	0.1567	0.5874	-1.221
Mof_O 	O 	0.5173	0.7873	0.5814	-1.239
Mof_O 	O 	0.6754	0.785	0.6843	-0.94
Mof_O 	O 	0.8614	0.8907	0.6804	-1.018
Mof_O 	O 	0.811	0.7834	0.8234	-0.926
Mof_O 	O 	0.6339	0.8999	0.8242	-0.942
Mof_O 	O 	0.6743	0.9848	0.9673	-0.896
Mof_O 	O 	0.5012	0.9932	0.8836	-0.71
Mof_O 	O 	0.6742	0.1024	0.5221	-1.066
Mof_O 	O 	0.3448	0.1877	0.4502	-1.058
Mof_O 	O 	0.6758	0.8481	0.5294	-1.061
Mof_O 	O 	0.1046	0.9821	0.7976	-0.98
Mof_O 	O 	0.1592	0.8828	0.932	-0.864
Mof_O 	O 	0.1797	0.0406	0.9496	-1.176
Mof_O 	O 	0.2113	0.9859	0.6403	-0.98
Mof_O 	O 	0.0379	0.9008	0.1132	-0.93
Mof_O 	O 	0.0332	0.0646	0.104	-1.246
Mof_O 	O 	0.9837	0.9909	0.2378	-0.296
Mof_O 	O 	0.8671	0.9808	0.1	-1.115
Mof_O 	O 	0.8207	0.6905	0.9625	-0.693
Mof_O 	O 	0.9696	0.7808	0.9303	-0.937
Mof_O 	O 	0.9952	0.1567	0.9098	-1.192
Mof_O 	O 	0.835	0.1659	0.813	-0.989
Mof_O 	O 	0.6455	0.0649	0.8217	-1.017
Mof_O 	O 	0.3169	0.6647	0.3215	-1.016
Mof_O 	O 	0.8659	0.0539	0.6768	-1.055
Mof_O 	O 	0.8245	0.9693	0.5303	-0.886
Mof_O 	O 	0.9993	0.9666	0.608	-0.849
Mof_O 	O 	0.8126	0.8533	0.9804	-1.023
Mof_O 	O 	0.1377	0.76	0.0528	-0.91
Mof_O 	O 	0.8345	0.1019	0.9726	-1.067
Mof_O 	O 	0.8185	0.9764	0.8321	-1.582
Mof_F 	F 	0.5264	0.9709	0.5481	-1.326
Mof_O 	O 	0.686	0.9763	0.6706	-1.514
Mof_F 	F 	0.9743	0.9584	0.9485	-1.21
_end
