# CIF file generated by openbabel 3.1.0, see https://openbabel.org
data_I
_chemical_name_common 'image0'
_cell_length_a 8.3567
_cell_length_b 9.0434
_cell_length_c 12.055
_cell_angle_alpha 90
_cell_angle_beta 90
_cell_angle_gamma 90
_space_group_name_H-M_alt 'P 1'
_space_group_name_Hall 'P 1'
loop_
    _symmetry_equiv_pos_as_xyz
    x,y,z
loop_
    _atom_site_label
    _atom_site_type_symbol
    _atom_site_fract_x
    _atom_site_fract_y
    _atom_site_fract_z
    _atom_site_occupancy
    Ni1      Ni       0.12879    0.81024    0.68074    1.000
    O1       O        0.05948    0.59132    0.69370    1.000
    N1       N        0.38051    0.58384    0.61242    1.000
    N2       N        0.34219    0.73128    0.60980    1.000
    C1       C        0.14210    0.47855    0.71404    1.000
    C2       C        0.32410    0.48180    0.69830    1.000
    H1       H        0.37330    0.50900    0.76830    1.000
    H2       H        0.36010    0.38290    0.67980    1.000
    C3       C        0.48200    0.55480    0.53035    1.000
    H3       H        0.52500    0.46210    0.51520    1.000
    N3       N        0.51345    0.67692    0.47305    1.000
    O2       O        0.09179    0.35828    0.75230    1.000
    C4       C        0.42480    0.78168    0.52402    1.000
    H4       H        0.42200    0.87980    0.50110    1.000
    Ni2      Ni       0.37121    0.18976    0.18074    1.000
    O3       O        0.44052    0.40868    0.19370    1.000
    N4       N        0.11949    0.41616    0.11242    1.000
    N5       N        0.15781    0.26872    0.10980    1.000
    C5       C        0.35790    0.52145    0.21404    1.000
    C6       C        0.17590    0.51820    0.19830    1.000
    H5       H        0.12670    0.49100    0.26830    1.000
    H6       H        0.13990    0.61710    0.17980    1.000
    C7       C        0.01800    0.44520    0.03035    1.000
    H7       H        0.97500    0.53790    0.01520    1.000
    N6       N        0.98655    0.32308    0.97305    1.000
    O4       O        0.40821    0.64172    0.25230    1.000
    C8       C        0.07520    0.21832    0.02402    1.000
    H8       H        0.07800    0.12020    0.00110    1.000
    Ni3      Ni       0.87121    0.31024    0.81926    1.000
    O5       O        0.94052    0.09132    0.80630    1.000
    N7       N        0.61949    0.08384    0.88758    1.000
    N8       N        0.65781    0.23128    0.89020    1.000
    C9       C        0.85790    0.97855    0.78596    1.000
    C10      C        0.67590    0.98180    0.80170    1.000
    H9       H        0.62670    0.00900    0.73170    1.000
    H10      H        0.63990    0.88290    0.82020    1.000
    C11      C        0.51800    0.05480    0.96965    1.000
    H11      H        0.47500    0.96210    0.98480    1.000
    N9       N        0.48655    0.17692    0.02695    1.000
    O6       O        0.90821    0.85828    0.74770    1.000
    C12      C        0.57520    0.28168    0.97598    1.000
    H12      H        0.57800    0.37980    0.99890    1.000
    Ni4      Ni       0.62879    0.68976    0.31926    1.000
    O7       O        0.55948    0.90868    0.30630    1.000
    N10      N        0.88051    0.91616    0.38758    1.000
    N11      N        0.84219    0.76872    0.39020    1.000
    C13      C        0.64210    0.02145    0.28596    1.000
    C14      C        0.82410    0.01820    0.30170    1.000
    H13      H        0.87330    0.99100    0.23170    1.000
    H14      H        0.86010    0.11710    0.32020    1.000
    C15      C        0.98200    0.94520    0.46965    1.000
    H15      H        0.02500    0.03790    0.48480    1.000
    N12      N        0.01345    0.82308    0.52695    1.000
    O8       O        0.59179    0.14172    0.24770    1.000
    C16      C        0.92480    0.71832    0.47598    1.000
    H16      H        0.92200    0.62020    0.49890    1.000
