# CIF file generated by openbabel 3.1.0, see https://openbabel.org
data_I
_chemical_name_common 'image0'
_cell_length_a 18.8175
_cell_length_b 18.8175
_cell_length_c 19.0483
_cell_angle_alpha 90
_cell_angle_beta 90
_cell_angle_gamma 120
_space_group_name_H-M_alt 'P 1'
_space_group_name_Hall 'P 1'
loop_
    _symmetry_equiv_pos_as_xyz
    x,y,z
loop_
    _atom_site_label
    _atom_site_type_symbol
    _atom_site_fract_x
    _atom_site_fract_y
    _atom_site_fract_z
    _atom_site_occupancy
    Cd1      Cd       0.67081    0.05418    0.37694    1.000
    N1       N        0.68890    0.06490    0.25837    1.000
    N2       N        0.57020    0.07140    0.33504    1.000
    C1       C        0.61940    0.05680    0.22524    1.000
    C2       C        0.73330    0.05490    0.20889    1.000
    C3       C        0.55770    0.06400    0.26800    1.000
    H1       H        0.52900    0.07500    0.36000    1.000
    C4       C        0.62580    0.04090    0.15491    1.000
    N3       N        0.69800    0.04060    0.14545    1.000
    C5       C        0.81540    0.06450    0.22180    1.000
    O1       O        0.49690    0.06300    0.23535    1.000
    C6       C        0.57240    0.02380    0.09151    1.000
    H2       H        0.82700    0.04700    0.18700    1.000
    H3       H        0.81900    0.04100    0.26100    1.000
    H4       H        0.87800    0.13200    0.22500    1.000
    O2       O        0.59590    0.00830    0.03460    1.000
    N4       N        0.50410    0.02500    0.09720    1.000
    H5       H        0.47500    0.00300    0.14000    1.000
    H6       H        0.47200    0.00700    0.06700    1.000
    Cd2      Cd       0.33748    0.38751    0.71027    1.000
    N5       N        0.35557    0.39823    0.59170    1.000
    N6       N        0.23687    0.40473    0.66837    1.000
    C7       C        0.28607    0.39013    0.55857    1.000
    C8       C        0.39997    0.38823    0.54222    1.000
    C9       C        0.22437    0.39733    0.60133    1.000
    H7       H        0.19567    0.40833    0.69333    1.000
    C10      C        0.29247    0.37423    0.48824    1.000
    N7       N        0.36467    0.37393    0.47878    1.000
    C11      C        0.48207    0.39783    0.55513    1.000
    O3       O        0.16357    0.39633    0.56868    1.000
    C12      C        0.23907    0.35713    0.42484    1.000
    H8       H        0.49367    0.38033    0.52033    1.000
    H9       H        0.48567    0.37433    0.59433    1.000
    H10      H        0.54467    0.46533    0.55833    1.000
    O4       O        0.26257    0.34163    0.36793    1.000
    N8       N        0.17077    0.35833    0.43053    1.000
    H11      H        0.14167    0.33633    0.47333    1.000
    H12      H        0.13867    0.34033    0.40033    1.000
    Cd3      Cd       0.00414    0.72085    0.04361    1.000
    N9       N        0.02223    0.73157    0.92504    1.000
    N10      N        0.90353    0.73807    0.00171    1.000
    C13      C        0.95273    0.72347    0.89191    1.000
    C14      C        0.06663    0.72157    0.87556    1.000
    C15      C        0.89103    0.73067    0.93467    1.000
    H13      H        0.86233    0.74167    0.02667    1.000
    C16      C        0.95913    0.70757    0.82158    1.000
    N11      N        0.03133    0.70727    0.81212    1.000
    C17      C        0.14873    0.73117    0.88847    1.000
    O5       O        0.83023    0.72967    0.90202    1.000
    C18      C        0.90573    0.69047    0.75818    1.000
    H14      H        0.16033    0.71367    0.85367    1.000
    H15      H        0.15233    0.70767    0.92767    1.000
    H16      H        0.21133    0.79867    0.89167    1.000
    O6       O        0.92923    0.67497    0.70127    1.000
    N12      N        0.83743    0.69167    0.76387    1.000
    H17      H        0.80833    0.66967    0.80667    1.000
    H18      H        0.80533    0.67367    0.73367    1.000
    Cd4      Cd       0.94582    0.61663    0.37694    1.000
    N13      N        0.93510    0.62400    0.25837    1.000
    N14      N        0.92860    0.49880    0.33504    1.000
    C19      C        0.94320    0.56260    0.22524    1.000
    C20      C        0.94510    0.67840    0.20889    1.000
    C21      C        0.93600    0.49370    0.26800    1.000
    H19      H        0.92500    0.45400    0.36000    1.000
    C22      C        0.95910    0.58490    0.15491    1.000
    N15      N        0.95940    0.65740    0.14545    1.000
    C23      C        0.93550    0.75090    0.22180    1.000
    O7       O        0.93700    0.43390    0.23535    1.000
    C24      C        0.97620    0.54860    0.09151    1.000
    H20      H        0.95300    0.78000    0.18700    1.000
    H21      H        0.95900    0.77800    0.26100    1.000
    H22      H        0.86800    0.74600    0.22500    1.000
    O8       O        0.99170    0.58760    0.03460    1.000
    N16      N        0.97500    0.47910    0.09720    1.000
    H23      H        0.99700    0.47200    0.14000    1.000
    H24      H        0.99300    0.46500    0.06700    1.000
    Cd5      Cd       0.61249    0.94996    0.71027    1.000
    N17      N        0.60177    0.95733    0.59170    1.000
    N18      N        0.59527    0.83213    0.66837    1.000
    C25      C        0.60987    0.89593    0.55857    1.000
    C26      C        0.61177    0.01173    0.54222    1.000
    C27      C        0.60267    0.82703    0.60133    1.000
    H25      H        0.59167    0.78733    0.69333    1.000
    C28      C        0.62577    0.91823    0.48824    1.000
    N19      N        0.62607    0.99073    0.47878    1.000
    C29      C        0.60217    0.08423    0.55513    1.000
    O9       O        0.60367    0.76723    0.56868    1.000
    C30      C        0.64287    0.88193    0.42484    1.000
    H26      H        0.61967    0.11333    0.52033    1.000
    H27      H        0.62567    0.11133    0.59433    1.000
    H28      H        0.53467    0.07933    0.55833    1.000
    O10      O        0.65837    0.92093    0.36793    1.000
    N20      N        0.64167    0.81243    0.43053    1.000
    H29      H        0.66367    0.80533    0.47333    1.000
    H30      H        0.65967    0.79833    0.40033    1.000
    Cd6      Cd       0.27915    0.28330    0.04361    1.000
    N21      N        0.26843    0.29067    0.92504    1.000
    N22      N        0.26193    0.16547    0.00171    1.000
    C31      C        0.27653    0.22927    0.89191    1.000
    C32      C        0.27843    0.34507    0.87556    1.000
    C33      C        0.26933    0.16037    0.93467    1.000
    H31      H        0.25833    0.12067    0.02667    1.000
    C34      C        0.29243    0.25157    0.82158    1.000
    N23      N        0.29273    0.32407    0.81212    1.000
    C35      C        0.26883    0.41757    0.88847    1.000
    O11      O        0.27033    0.10057    0.90202    1.000
    C36      C        0.30953    0.21527    0.75818    1.000
    H32      H        0.28633    0.44667    0.85367    1.000
    H33      H        0.29233    0.44467    0.92767    1.000
    H34      H        0.20133    0.41267    0.89167    1.000
    O12      O        0.32503    0.25427    0.70127    1.000
    N24      N        0.30833    0.14577    0.76387    1.000
    H35      H        0.33033    0.13867    0.80667    1.000
    H36      H        0.32633    0.13167    0.73367    1.000
    Cd7      Cd       0.38337    0.32919    0.37694    1.000
    N25      N        0.37600    0.31110    0.25837    1.000
    N26      N        0.50120    0.42980    0.33504    1.000
    C37      C        0.43740    0.38060    0.22524    1.000
    C38      C        0.32160    0.26670    0.20889    1.000
    C39      C        0.50630    0.44230    0.26800    1.000
    H37      H        0.54600    0.47100    0.36000    1.000
    C40      C        0.41510    0.37420    0.15491    1.000
    N27      N        0.34260    0.30200    0.14545    1.000
    C41      C        0.24910    0.18460    0.22180    1.000
    O13      O        0.56610    0.50310    0.23535    1.000
    C42      C        0.45140    0.42760    0.09151    1.000
    H38      H        0.22000    0.17300    0.18700    1.000
    H39      H        0.22200    0.18100    0.26100    1.000
    H40      H        0.25400    0.12200    0.22500    1.000
    O14      O        0.41240    0.40410    0.03460    1.000
    N28      N        0.52090    0.49590    0.09720    1.000
    H41      H        0.52800    0.52500    0.14000    1.000
    H42      H        0.53500    0.52800    0.06700    1.000
    Cd8      Cd       0.05004    0.66252    0.71027    1.000
    N29      N        0.04267    0.64443    0.59170    1.000
    N30      N        0.16787    0.76313    0.66837    1.000
    C43      C        0.10407    0.71393    0.55857    1.000
    C44      C        0.98827    0.60003    0.54222    1.000
    C45      C        0.17297    0.77563    0.60133    1.000
    H43      H        0.21267    0.80433    0.69333    1.000
    C46      C        0.08177    0.70753    0.48824    1.000
    N31      N        0.00927    0.63533    0.47878    1.000
    C47      C        0.91577    0.51793    0.55513    1.000
    O15      O        0.23277    0.83643    0.56868    1.000
    C48      C        0.11807    0.76093    0.42484    1.000
    H44      H        0.88667    0.50633    0.52033    1.000
    H45      H        0.88867    0.51433    0.59433    1.000
    H46      H        0.92067    0.45533    0.55833    1.000
    O16      O        0.07907    0.73743    0.36793    1.000
    N32      N        0.18757    0.82923    0.43053    1.000
    H47      H        0.19467    0.85833    0.47333    1.000
    H48      H        0.20167    0.86133    0.40033    1.000
    Cd9      Cd       0.71670    0.99586    0.04361    1.000
    N33      N        0.70933    0.97777    0.92504    1.000
    N34      N        0.83453    0.09647    0.00171    1.000
    C49      C        0.77073    0.04727    0.89191    1.000
    C50      C        0.65493    0.93337    0.87556    1.000
    C51      C        0.83963    0.10897    0.93467    1.000
    H49      H        0.87933    0.13767    0.02667    1.000
    C52      C        0.74843    0.04087    0.82158    1.000
    N35      N        0.67593    0.96867    0.81212    1.000
    C53      C        0.58243    0.85127    0.88847    1.000
    O17      O        0.89943    0.16977    0.90202    1.000
    C54      C        0.78473    0.09427    0.75818    1.000
    H50      H        0.55333    0.83967    0.85367    1.000
    H51      H        0.55533    0.84767    0.92767    1.000
    H52      H        0.58733    0.78867    0.89167    1.000
    O18      O        0.74573    0.07077    0.70127    1.000
    N36      N        0.85423    0.16257    0.76387    1.000
    H53      H        0.86133    0.19167    0.80667    1.000
    H54      H        0.86833    0.19467    0.73367    1.000
    Cd10     Cd       0.32919    0.94582    0.62306    1.000
    N37      N        0.31110    0.93510    0.74163    1.000
    N38      N        0.42980    0.92860    0.66496    1.000
    C55      C        0.38060    0.94320    0.77476    1.000
    C56      C        0.26670    0.94510    0.79111    1.000
    C57      C        0.44230    0.93600    0.73200    1.000
    H55      H        0.47100    0.92500    0.64000    1.000
    C58      C        0.37420    0.95910    0.84509    1.000
    N39      N        0.30200    0.95940    0.85455    1.000
    C59      C        0.18460    0.93550    0.77820    1.000
    O19      O        0.50310    0.93700    0.76465    1.000
    C60      C        0.42760    0.97620    0.90849    1.000
    H56      H        0.17300    0.95300    0.81300    1.000
    H57      H        0.18100    0.95900    0.73900    1.000
    H58      H        0.12200    0.86800    0.77500    1.000
    O20      O        0.40410    0.99170    0.96540    1.000
    N40      N        0.49590    0.97500    0.90280    1.000
    H59      H        0.52500    0.99700    0.86000    1.000
    H60      H        0.52800    0.99300    0.93300    1.000
    Cd11     Cd       0.99586    0.27915    0.95639    1.000
    N41      N        0.97777    0.26843    0.07496    1.000
    N42      N        0.09647    0.26193    0.99829    1.000
    C61      C        0.04727    0.27653    0.10809    1.000
    C62      C        0.93337    0.27843    0.12444    1.000
    C63      C        0.10897    0.26933    0.06533    1.000
    H61      H        0.13767    0.25833    0.97333    1.000
    C64      C        0.04087    0.29243    0.17842    1.000
    N43      N        0.96867    0.29273    0.18788    1.000
    C65      C        0.85127    0.26883    0.11153    1.000
    O21      O        0.16977    0.27033    0.09798    1.000
    C66      C        0.09427    0.30953    0.24182    1.000
    H62      H        0.83967    0.28633    0.14633    1.000
    H63      H        0.84767    0.29233    0.07233    1.000
    H64      H        0.78867    0.20133    0.10833    1.000
    O22      O        0.07077    0.32503    0.29873    1.000
    N44      N        0.16257    0.30833    0.23613    1.000
    H65      H        0.19167    0.33033    0.19333    1.000
    H66      H        0.19467    0.32633    0.26633    1.000
    Cd12     Cd       0.66252    0.61249    0.28973    1.000
    N45      N        0.64443    0.60177    0.40830    1.000
    N46      N        0.76313    0.59527    0.33163    1.000
    C67      C        0.71393    0.60987    0.44143    1.000
    C68      C        0.60003    0.61177    0.45778    1.000
    C69      C        0.77563    0.60267    0.39867    1.000
    H67      H        0.80433    0.59167    0.30667    1.000
    C70      C        0.70753    0.62577    0.51176    1.000
    N47      N        0.63533    0.62607    0.52122    1.000
    C71      C        0.51793    0.60217    0.44487    1.000
    O23      O        0.83643    0.60367    0.43132    1.000
    C72      C        0.76093    0.64287    0.57516    1.000
    H68      H        0.50633    0.61967    0.47967    1.000
    H69      H        0.51433    0.62567    0.40567    1.000
    H70      H        0.45533    0.53467    0.44167    1.000
    O24      O        0.73743    0.65837    0.63207    1.000
    N48      N        0.82923    0.64167    0.56947    1.000
    H71      H        0.85833    0.66367    0.52667    1.000
    H72      H        0.86133    0.65967    0.59967    1.000
    Cd13     Cd       0.05418    0.38337    0.62306    1.000
    N49      N        0.06490    0.37600    0.74163    1.000
    N50      N        0.07140    0.50120    0.66496    1.000
    C73      C        0.05680    0.43740    0.77476    1.000
    C74      C        0.05490    0.32160    0.79111    1.000
    C75      C        0.06400    0.50630    0.73200    1.000
    H73      H        0.07500    0.54600    0.64000    1.000
    C76      C        0.04090    0.41510    0.84509    1.000
    N51      N        0.04060    0.34260    0.85455    1.000
    C77      C        0.06450    0.24910    0.77820    1.000
    O25      O        0.06300    0.56610    0.76465    1.000
    C78      C        0.02380    0.45140    0.90849    1.000
    H74      H        0.04700    0.22000    0.81300    1.000
    H75      H        0.04100    0.22200    0.73900    1.000
    H76      H        0.13200    0.25400    0.77500    1.000
    O26      O        0.00830    0.41240    0.96540    1.000
    N52      N        0.02500    0.52090    0.90280    1.000
    H77      H        0.00300    0.52800    0.86000    1.000
    H78      H        0.00700    0.53500    0.93300    1.000
    Cd14     Cd       0.72085    0.71670    0.95639    1.000
    N53      N        0.73157    0.70933    0.07496    1.000
    N54      N        0.73807    0.83453    0.99829    1.000
    C79      C        0.72347    0.77073    0.10809    1.000
    C80      C        0.72157    0.65493    0.12444    1.000
    C81      C        0.73067    0.83963    0.06533    1.000
    H79      H        0.74167    0.87933    0.97333    1.000
    C82      C        0.70757    0.74843    0.17842    1.000
    N55      N        0.70727    0.67593    0.18788    1.000
    C83      C        0.73117    0.58243    0.11153    1.000
    O27      O        0.72967    0.89943    0.09798    1.000
    C84      C        0.69047    0.78473    0.24182    1.000
    H80      H        0.71367    0.55333    0.14633    1.000
    H81      H        0.70767    0.55533    0.07233    1.000
    H82      H        0.79867    0.58733    0.10833    1.000
    O28      O        0.67497    0.74573    0.29873    1.000
    N56      N        0.69167    0.85423    0.23613    1.000
    H83      H        0.66967    0.86133    0.19333    1.000
    H84      H        0.67367    0.86833    0.26633    1.000
    Cd15     Cd       0.38751    0.05004    0.28973    1.000
    N57      N        0.39823    0.04267    0.40830    1.000
    N58      N        0.40473    0.16787    0.33163    1.000
    C85      C        0.39013    0.10407    0.44143    1.000
    C86      C        0.38823    0.98827    0.45778    1.000
    C87      C        0.39733    0.17297    0.39867    1.000
    H85      H        0.40833    0.21267    0.30667    1.000
    C88      C        0.37423    0.08177    0.51176    1.000
    N59      N        0.37393    0.00927    0.52122    1.000
    C89      C        0.39783    0.91577    0.44487    1.000
    O29      O        0.39633    0.23277    0.43132    1.000
    C90      C        0.35713    0.11807    0.57516    1.000
    H86      H        0.38033    0.88667    0.47967    1.000
    H87      H        0.37433    0.88867    0.40567    1.000
    H88      H        0.46533    0.92067    0.44167    1.000
    O30      O        0.34163    0.07907    0.63207    1.000
    N60      N        0.35833    0.18757    0.56947    1.000
    H89      H        0.33633    0.19467    0.52667    1.000
    H90      H        0.34033    0.20167    0.59967    1.000
    Cd16     Cd       0.61663    0.67081    0.62306    1.000
    N61      N        0.62400    0.68890    0.74163    1.000
    N62      N        0.49880    0.57020    0.66496    1.000
    C91      C        0.56260    0.61940    0.77476    1.000
    C92      C        0.67840    0.73330    0.79111    1.000
    C93      C        0.49370    0.55770    0.73200    1.000
    H91      H        0.45400    0.52900    0.64000    1.000
    C94      C        0.58490    0.62580    0.84509    1.000
    N63      N        0.65740    0.69800    0.85455    1.000
    C95      C        0.75090    0.81540    0.77820    1.000
    O31      O        0.43390    0.49690    0.76465    1.000
    C96      C        0.54860    0.57240    0.90849    1.000
    H92      H        0.78000    0.82700    0.81300    1.000
    H93      H        0.77800    0.81900    0.73900    1.000
    H94      H        0.74600    0.87800    0.77500    1.000
    O32      O        0.58760    0.59590    0.96540    1.000
    N64      N        0.47910    0.50410    0.90280    1.000
    H95      H        0.47200    0.47500    0.86000    1.000
    H96      H        0.46500    0.47200    0.93300    1.000
    Cd17     Cd       0.28330    0.00414    0.95639    1.000
    N65      N        0.29067    0.02223    0.07496    1.000
    N66      N        0.16547    0.90353    0.99829    1.000
    C97      C        0.22927    0.95273    0.10809    1.000
    C98      C        0.34507    0.06663    0.12444    1.000
    C99      C        0.16037    0.89103    0.06533    1.000
    H97      H        0.12067    0.86233    0.97333    1.000
    C100     C        0.25157    0.95913    0.17842    1.000
    N67      N        0.32407    0.03133    0.18788    1.000
    C101     C        0.41757    0.14873    0.11153    1.000
    O33      O        0.10057    0.83023    0.09798    1.000
    C102     C        0.21527    0.90573    0.24182    1.000
    H98      H        0.44667    0.16033    0.14633    1.000
    H99      H        0.44467    0.15233    0.07233    1.000
    H100     H        0.41267    0.21133    0.10833    1.000
    O34      O        0.25427    0.92923    0.29873    1.000
    N68      N        0.14577    0.83743    0.23613    1.000
    H101     H        0.13867    0.80833    0.19333    1.000
    H102     H        0.13167    0.80533    0.26633    1.000
    Cd18     Cd       0.94996    0.33748    0.28973    1.000
    N69      N        0.95733    0.35557    0.40830    1.000
    N70      N        0.83213    0.23687    0.33163    1.000
    C103     C        0.89593    0.28607    0.44143    1.000
    C104     C        0.01173    0.39997    0.45778    1.000
    C105     C        0.82703    0.22437    0.39867    1.000
    H103     H        0.78733    0.19567    0.30667    1.000
    C106     C        0.91823    0.29247    0.51176    1.000
    N71      N        0.99073    0.36467    0.52122    1.000
    C107     C        0.08423    0.48207    0.44487    1.000
    O35      O        0.76723    0.16357    0.43132    1.000
    C108     C        0.88193    0.23907    0.57516    1.000
    H104     H        0.11333    0.49367    0.47967    1.000
    H105     H        0.11133    0.48567    0.40567    1.000
    H106     H        0.07933    0.54467    0.44167    1.000
    O36      O        0.92093    0.26257    0.63207    1.000
    N72      N        0.81243    0.17077    0.56947    1.000
    H107     H        0.80533    0.14167    0.52667    1.000
    H108     H        0.79833    0.13867    0.59967    1.000
