# CIF file generated by openbabel 3.1.0, see https://openbabel.org
data_I
_chemical_name_common 'image0'
_cell_length_a 6.6305
_cell_length_b 16.7832
_cell_length_c 12.7618
_cell_angle_alpha 90
_cell_angle_beta 90
_cell_angle_gamma 90
_space_group_name_H-M_alt 'P 1'
_space_group_name_Hall 'P 1'
loop_
    _symmetry_equiv_pos_as_xyz
    x,y,z
loop_
    _atom_site_label
    _atom_site_type_symbol
    _atom_site_fract_x
    _atom_site_fract_y
    _atom_site_fract_z
    _atom_site_occupancy
    O1       O        0.16783    0.16769    0.84308    1.000
    C1       C        0.80830    0.03508    0.96820    1.000
    O2       O        0.66783    0.66769    0.34308    1.000
    C2       C        0.30830    0.53508    0.46820    1.000
    O3       O        0.83217    0.33231    0.84308    1.000
    C3       C        0.19170    0.46492    0.96820    1.000
    O4       O        0.33217    0.83231    0.34308    1.000
    C4       C        0.69170    0.96492    0.46820    1.000
    O5       O        0.83217    0.66769    0.15692    1.000
    C5       C        0.19170    0.53508    0.03180    1.000
    O6       O        0.33217    0.16769    0.65692    1.000
    C6       C        0.69170    0.03508    0.53180    1.000
    O7       O        0.16783    0.83231    0.15692    1.000
    C7       C        0.80830    0.96492    0.03180    1.000
    O8       O        0.66783    0.33231    0.65692    1.000
    C8       C        0.30830    0.46492    0.53180    1.000
    O9       O        0.83217    0.83231    0.15692    1.000
    C9       C        0.19170    0.96492    0.03180    1.000
    O10      O        0.33217    0.33231    0.65692    1.000
    C10      C        0.69170    0.46492    0.53180    1.000
    O11      O        0.16783    0.66769    0.15692    1.000
    C11      C        0.80830    0.53508    0.03180    1.000
    O12      O        0.66783    0.16769    0.65692    1.000
    C12      C        0.30830    0.03508    0.53180    1.000
    O13      O        0.16783    0.33231    0.84308    1.000
    C13      C        0.80830    0.46492    0.96820    1.000
    O14      O        0.66783    0.83231    0.34308    1.000
    C14      C        0.30830    0.96492    0.46820    1.000
    O15      O        0.83217    0.16769    0.84308    1.000
    C15      C        0.19170    0.03508    0.96820    1.000
    O16      O        0.33217    0.66769    0.34308    1.000
    C16      C        0.69170    0.53508    0.46820    1.000
    Al1      Al       0.25000    0.25000    0.75000    1.000
    Al2      Al       0.75000    0.25000    0.75000    1.000
    Al3      Al       0.75000    0.75000    0.25000    1.000
    Al4      Al       0.25000    0.75000    0.25000    1.000
    O17      O        0.00000    0.25000    0.68500    1.000
    O18      O        0.50000    0.75000    0.18500    1.000
    O19      O        0.00000    0.75000    0.31500    1.000
    O20      O        0.50000    0.25000    0.81500    1.000
    C17      C        0.00000    0.06280    0.94440    1.000
    C18      C        0.00000    0.13835    0.87040    1.000
    C19      C        0.50000    0.56280    0.44440    1.000
    C20      C        0.50000    0.63835    0.37040    1.000
    C21      C        0.00000    0.43720    0.94440    1.000
    C22      C        0.00000    0.36165    0.87040    1.000
    C23      C        0.50000    0.93720    0.44440    1.000
    C24      C        0.50000    0.86165    0.37040    1.000
    C25      C        0.00000    0.56280    0.05560    1.000
    C26      C        0.00000    0.63835    0.12960    1.000
    C27      C        0.50000    0.06280    0.55560    1.000
    C28      C        0.50000    0.13835    0.62960    1.000
    C29      C        0.00000    0.93720    0.05560    1.000
    C30      C        0.00000    0.86165    0.12960    1.000
    C31      C        0.50000    0.43720    0.55560    1.000
    C32      C        0.50000    0.36165    0.62960    1.000
