data_functionalizedCrystal
_audit_creation_method	'EQeq! by Chris Wilmer'
_symmetry_space_group_name_H-M	'P1'
_symmetry_Int_Tables_number	1
_symmetry_cell_setting	triclinic
loop_
_symmetry_equiv_pos_as_xyz
  x,y,z
_cell_length_a	8.5851
_cell_length_b	15.4118
_cell_length_c	28.0467
_cell_angle_alpha	90
_cell_angle_beta	90
_cell_angle_gamma	90
loop_
_atom_site_label
_atom_site_type_symbol
_atom_site_fract_x
_atom_site_fract_y
_atom_site_fract_z
_atom_site_charge
Mof_Tb	Tb	0.0516	0.79758	0.41386	2.187
Mof_Tb	Tb	0.4484	0.29758	0.58614	2.212
Mof_Tb	Tb	0.9484	0.20242	0.91386	2.183
Mof_Tb	Tb	0.5516	0.70242	0.08614	2.211
Mof_Tb	Tb	0.9484	0.20242	0.58614	2.186
Mof_Tb	Tb	0.5516	0.70242	0.41386	2.211
Mof_Tb	Tb	0.0516	0.79758	0.08614	2.183
Mof_Tb	Tb	0.4484	0.29758	0.91386	2.211
Mof_H 	H 	0.9138	0.5152	0.4032	0.023
Mof_H 	H 	0.8843	0.3757	0.4486	0.046
Mof_H 	H 	0.6566	0.5934	0.2951	0.025
Mof_H 	H 	0.5862	0.0152	0.5968	0.024
Mof_H 	H 	0.6157	0.8757	0.5514	0.045
Mof_H 	H 	0.8434	0.0934	0.7049	0.023
Mof_H 	H 	0.0862	0.4848	0.9032	0.023
Mof_H 	H 	0.1157	0.6243	0.9486	0.045
Mof_H 	H 	0.3434	0.4066	0.7951	0.025
Mof_H 	H 	0.4138	0.9848	0.0968	0.023
Mof_H 	H 	0.3843	0.1243	0.0514	0.045
Mof_H 	H 	0.1566	0.9066	0.2049	0.023
Mof_H 	H 	0.0862	0.4848	0.5968	0.023
Mof_H 	H 	0.1157	0.6243	0.5514	0.046
Mof_H 	H 	0.3434	0.4066	0.7049	0.025
Mof_H 	H 	0.4138	0.9848	0.4032	0.024
Mof_H 	H 	0.3843	0.1243	0.4486	0.045
Mof_H 	H 	0.1566	0.9066	0.2951	0.023
Mof_H 	H 	0.9138	0.5152	0.0968	0.023
Mof_H 	H 	0.8843	0.3757	0.0514	0.045
Mof_H 	H 	0.6566	0.5934	0.2049	0.025
Mof_H 	H 	0.5862	0.0152	0.9032	0.023
Mof_H 	H 	0.6157	0.8757	0.9486	0.045
Mof_H 	H 	0.8434	0.0934	0.7951	0.023
Mof_C 	C 	0.1479	0.3352	0.5102	0.495
Mof_C 	C 	0.2039	0.6058	0.4225	0.454
Mof_C 	C 	0.1024	0.4011	0.4742	-0.033
Mof_C 	C 	0.9869	0.4903	0.4235	-0.003
Mof_C 	C 	0.9702	0.4124	0.449	-0.029
Mof_C 	C 	0.8521	0.7299	0.3359	0.421
Mof_C 	C 	0.806	0.6956	0.2888	-0.018
Mof_C 	C 	0.7114	0.6309	0.2752	-0.014
Mof_C 	C 	0.1301	0.5224	0.4342	-0.044
Mof_C 	C 	0.3521	0.8352	0.4898	0.495
Mof_C 	C 	0.2961	0.1058	0.5775	0.45
Mof_C 	C 	0.3976	0.9011	0.5258	-0.034
Mof_C 	C 	0.5131	0.9903	0.5765	-0.013
Mof_C 	C 	0.5298	0.9124	0.551	-0.025
Mof_C 	C 	0.6479	0.2299	0.6641	0.421
Mof_C 	C 	0.694	0.1956	0.7112	-0.02
Mof_C 	C 	0.7886	0.1309	0.7248	-0.016
Mof_C 	C 	0.3699	0.0224	0.5658	-0.034
Mof_C 	C 	0.8521	0.6648	0.0102	0.496
Mof_C 	C 	0.7961	0.3942	0.9225	0.454
Mof_C 	C 	0.8976	0.5989	0.9742	-0.037
Mof_C 	C 	0.0131	0.5097	0.9235	-0.002
Mof_C 	C 	0.0298	0.5876	0.949	-0.026
Mof_C 	C 	0.1479	0.2701	0.8359	0.421
Mof_C 	C 	0.194	0.3044	0.7888	-0.018
Mof_C 	C 	0.2886	0.3691	0.7752	-0.014
Mof_C 	C 	0.8699	0.4776	0.9342	-0.046
Mof_C 	C 	0.6479	0.1648	0.9898	0.494
Mof_C 	C 	0.7039	0.8942	0.0775	0.451
Mof_C 	C 	0.6024	0.0989	0.0258	-0.033
Mof_C 	C 	0.4869	0.0097	0.0765	-0.011
Mof_C 	C 	0.4702	0.0876	0.051	-0.027
Mof_C 	C 	0.3521	0.7701	0.1641	0.421
Mof_C 	C 	0.306	0.8044	0.2112	-0.02
Mof_C 	C 	0.2114	0.8691	0.2248	-0.016
Mof_C 	C 	0.6301	0.9776	0.0658	-0.035
Mof_C 	C 	0.8521	0.6648	0.4898	0.495
Mof_C 	C 	0.7961	0.3942	0.5775	0.454
Mof_C 	C 	0.8976	0.5989	0.5258	-0.033
Mof_C 	C 	0.0131	0.5097	0.5765	-0.003
Mof_C 	C 	0.0298	0.5876	0.551	-0.029
Mof_C 	C 	0.1479	0.2701	0.6641	0.421
Mof_C 	C 	0.194	0.3044	0.7112	-0.018
Mof_C 	C 	0.2886	0.3691	0.7248	-0.014
Mof_C 	C 	0.8699	0.4776	0.5658	-0.044
Mof_C 	C 	0.6479	0.1648	0.5102	0.495
Mof_C 	C 	0.7039	0.8942	0.4225	0.45
Mof_C 	C 	0.6024	0.0989	0.4742	-0.034
Mof_C 	C 	0.4869	0.0097	0.4235	-0.013
Mof_C 	C 	0.4702	0.0876	0.449	-0.025
Mof_C 	C 	0.3521	0.7701	0.3359	0.421
Mof_C 	C 	0.306	0.8044	0.2888	-0.02
Mof_C 	C 	0.2114	0.8691	0.2752	-0.016
Mof_C 	C 	0.6301	0.9776	0.4342	-0.034
Mof_C 	C 	0.1479	0.3352	0.9898	0.496
Mof_C 	C 	0.2039	0.6058	0.0775	0.454
Mof_C 	C 	0.1024	0.4011	0.0258	-0.037
Mof_C 	C 	0.9869	0.4903	0.0765	-0.002
Mof_C 	C 	0.9702	0.4124	0.051	-0.026
Mof_C 	C 	0.8521	0.7299	0.1641	0.421
Mof_C 	C 	0.806	0.6956	0.2112	-0.018
Mof_C 	C 	0.7114	0.6309	0.2248	-0.014
Mof_C 	C 	0.1301	0.5224	0.0658	-0.046
Mof_C 	C 	0.3521	0.8352	0.0102	0.494
Mof_C 	C 	0.2961	0.1058	0.9225	0.451
Mof_C 	C 	0.3976	0.9011	0.9742	-0.033
Mof_C 	C 	0.5131	0.9903	0.9235	-0.011
Mof_C 	C 	0.5298	0.9124	0.949	-0.027
Mof_C 	C 	0.6479	0.2299	0.8359	0.421
Mof_C 	C 	0.694	0.1956	0.7888	-0.02
Mof_C 	C 	0.7886	0.1309	0.7752	-0.016
Mof_C 	C 	0.3699	0.0224	0.9342	-0.035
Mof_O 	O 	0.2846	0.3386	0.5258	-0.568
Mof_O 	O 	0.0437	0.2831	0.52197	-0.541
Mof_O 	O 	0.2044	0.4671	0.46535	-0.149
Mof_O 	O 	0.1244	0.6556	0.39699	-0.543
Mof_O 	O 	0.3368	0.6206	0.43894	-0.552
Mof_O 	O 	0.9502	0.7904	0.33743	-0.513
Mof_O 	O 	0.7932	0.6963	0.37264	-0.579
Mof_O 	O 	0.2154	0.8386	0.4742	-0.567
Mof_O 	O 	0.4563	0.7831	0.47803	-0.546
Mof_O 	O 	0.2956	0.9671	0.53465	-0.152
Mof_O 	O 	0.3756	0.1556	0.60301	-0.54
Mof_O 	O 	0.1632	0.1206	0.56106	-0.545
Mof_O 	O 	0.5498	0.2904	0.66257	-0.522
Mof_O 	O 	0.7068	0.1963	0.62736	-0.581
Mof_O 	O 	0.7154	0.6614	0.0258	-0.568
Mof_O 	O 	0.9563	0.7169	0.02197	-0.54
Mof_O 	O 	0.7956	0.5329	0.96535	-0.148
Mof_O 	O 	0.8756	0.3444	0.89699	-0.543
Mof_O 	O 	0.6632	0.3794	0.93894	-0.552
Mof_O 	O 	0.0498	0.2096	0.83743	-0.512
Mof_O 	O 	0.2068	0.3037	0.87264	-0.579
Mof_O 	O 	0.7846	0.1614	0.9742	-0.567
Mof_O 	O 	0.5437	0.2169	0.97803	-0.546
Mof_O 	O 	0.7044	0.0329	0.03465	-0.152
Mof_O 	O 	0.6244	0.8444	0.10301	-0.541
Mof_O 	O 	0.8368	0.8794	0.06106	-0.544
Mof_O 	O 	0.4502	0.7096	0.16257	-0.522
Mof_O 	O 	0.2932	0.8037	0.12736	-0.58
Mof_O 	O 	0.7154	0.6614	0.4742	-0.568
Mof_O 	O 	0.9563	0.7169	0.47803	-0.541
Mof_O 	O 	0.7956	0.5329	0.53465	-0.149
Mof_O 	O 	0.8756	0.3444	0.60301	-0.543
Mof_O 	O 	0.6632	0.3794	0.56106	-0.552
Mof_O 	O 	0.0498	0.2096	0.66257	-0.513
Mof_O 	O 	0.2068	0.3037	0.62736	-0.579
Mof_O 	O 	0.7846	0.1614	0.5258	-0.567
Mof_O 	O 	0.5437	0.2169	0.52197	-0.546
Mof_O 	O 	0.7044	0.0329	0.46535	-0.152
Mof_O 	O 	0.6244	0.8444	0.39699	-0.54
Mof_O 	O 	0.8368	0.8794	0.43894	-0.545
Mof_O 	O 	0.4502	0.7096	0.33743	-0.522
Mof_O 	O 	0.2932	0.8037	0.37264	-0.581
Mof_O 	O 	0.2846	0.3386	0.9742	-0.568
Mof_O 	O 	0.0437	0.2831	0.97803	-0.54
Mof_O 	O 	0.2044	0.4671	0.03465	-0.148
Mof_O 	O 	0.1244	0.6556	0.10301	-0.543
Mof_O 	O 	0.3368	0.6206	0.06106	-0.552
Mof_O 	O 	0.9502	0.7904	0.16257	-0.512
Mof_O 	O 	0.7932	0.6963	0.12736	-0.579
Mof_O 	O 	0.2154	0.8386	0.0258	-0.567
Mof_O 	O 	0.4563	0.7831	0.02197	-0.546
Mof_O 	O 	0.2956	0.9671	0.96535	-0.152
Mof_O 	O 	0.3756	0.1556	0.89699	-0.541
Mof_O 	O 	0.1632	0.1206	0.93894	-0.544
Mof_O 	O 	0.5498	0.2904	0.83743	-0.522
Mof_O 	O 	0.7068	0.1963	0.87264	-0.58
Mof_O 	O 	0.8658	0.7369	0.25	-0.136
Mof_O 	O 	0.6342	0.2369	0.75	-0.139
Mof_O 	O 	0.1342	0.2631	0.75	-0.136
Mof_O 	O 	0.3658	0.7631	0.25	-0.139
_end
