data_functionalizedCrystal
_audit_creation_method	'EQeq! by Chris Wilmer'
_symmetry_space_group_name_H-M	'P1'
_symmetry_Int_Tables_number	1
_symmetry_cell_setting	triclinic
loop_
_symmetry_equiv_pos_as_xyz
  x,y,z
_cell_length_a	11.425
_cell_length_b	15.824
_cell_length_c	12.649
_cell_angle_alpha	90
_cell_angle_beta	90
_cell_angle_gamma	90
loop_
_atom_site_label
_atom_site_type_symbol
_atom_site_fract_x
_atom_site_fract_y
_atom_site_fract_z
_atom_site_charge
Mof_Sr	Sr	0.25	0.67245	0.12874	1.365
Mof_Sr	Sr	0.75	0.82755	0.62874	1.363
Mof_Sr	Sr	0.75	0.32755	0.87126	1.365
Mof_Sr	Sr	0.25	0.17245	0.37126	1.363
Mof_Gd	Gd	0.25	0.42294	0.52233	1.877
Mof_Gd	Gd	0.25	0.42622	0.02228	1.722
Mof_Gd	Gd	0.75	0.07706	0.02233	1.86
Mof_Gd	Gd	0.75	0.07378	0.52228	1.719
Mof_Gd	Gd	0.75	0.57706	0.47767	1.877
Mof_Gd	Gd	0.75	0.57378	0.97772	1.722
Mof_Gd	Gd	0.25	0.92294	0.97767	1.86
Mof_Gd	Gd	0.25	0.92622	0.47772	1.719
Mof_H 	H 	0.1939	0.253	0.5956	0.335
Mof_H 	H 	0.8061	0.247	0.0956	0.333
Mof_H 	H 	0.6939	0.747	0.4044	0.334
Mof_H 	H 	0.3061	0.753	0.9044	0.334
Mof_H 	H 	0.8061	0.747	0.4044	0.335
Mof_H 	H 	0.1939	0.753	0.9044	0.333
Mof_H 	H 	0.3061	0.253	0.5956	0.334
Mof_H 	H 	0.6939	0.247	0.0956	0.334
Mof_C 	C 	0.0255	0.5422	0.9797	0.265
Mof_C 	C 	0.317	0.4076	0.773	0.248
Mof_C 	C 	0.9771	0.4578	0.4775	0.267
Mof_C 	C 	0.9745	0.9578	0.4797	0.268
Mof_C 	C 	0.683	0.0924	0.273	0.247
Mof_C 	C 	0.0229	0.0422	0.9775	0.274
Mof_C 	C 	0.5255	0.4578	0.0203	0.265
Mof_C 	C 	0.817	0.5924	0.227	0.247
Mof_C 	C 	0.4771	0.5422	0.5225	0.268
Mof_C 	C 	0.4745	0.0422	0.5203	0.264
Mof_C 	C 	0.183	0.9076	0.727	0.247
Mof_C 	C 	0.5229	0.9578	0.0225	0.269
Mof_C 	C 	0.9745	0.4578	0.0203	0.265
Mof_C 	C 	0.683	0.5924	0.227	0.248
Mof_C 	C 	0.0229	0.5422	0.5225	0.267
Mof_C 	C 	0.0255	0.0422	0.5203	0.268
Mof_C 	C 	0.317	0.9076	0.727	0.247
Mof_C 	C 	0.9771	0.9578	0.0225	0.274
Mof_C 	C 	0.4745	0.5422	0.9797	0.265
Mof_C 	C 	0.183	0.4076	0.773	0.247
Mof_C 	C 	0.5229	0.4578	0.4775	0.268
Mof_C 	C 	0.5255	0.9578	0.4797	0.264
Mof_C 	C 	0.817	0.0924	0.273	0.247
Mof_C 	C 	0.4771	0.0422	0.9775	0.269
Mof_C 	C 	0.25	0.4733	0.2718	0.277
Mof_C 	C 	0.25	0.3767	0.269	0.281
Mof_C 	C 	0.75	0.0267	0.7718	0.281
Mof_C 	C 	0.75	0.1233	0.769	0.279
Mof_C 	C 	0.75	0.5267	0.7282	0.277
Mof_C 	C 	0.75	0.6233	0.731	0.281
Mof_C 	C 	0.25	0.9733	0.2282	0.281
Mof_C 	C 	0.25	0.8767	0.231	0.279
Mof_O 	O 	0.1322	0.5549	0.9953	-0.457
Mof_O 	O 	0.3654	0.4063	0.8611	-0.412
Mof_O 	O 	0.9545	0.5918	0.9348	-0.413
Mof_O 	O 	0.0509	0.3993	0.4685	-0.412
Mof_O 	O 	0.367	0.4079	0.6846	-0.402
Mof_O 	O 	0.8721	0.4534	0.4536	-0.386
Mof_O 	O 	0.8678	0.9451	0.4953	-0.457
Mof_O 	O 	0.6346	0.0937	0.3611	-0.413
Mof_O 	O 	0.0455	0.9082	0.4348	-0.416
Mof_O 	O 	0.9491	0.1007	0.9685	-0.413
Mof_O 	O 	0.633	0.0921	0.1846	-0.403
Mof_O 	O 	0.1279	0.0466	0.9536	-0.382
Mof_O 	O 	0.6322	0.4451	0.0047	-0.457
Mof_O 	O 	0.8654	0.5937	0.1389	-0.412
Mof_O 	O 	0.4545	0.4082	0.0652	-0.412
Mof_O 	O 	0.5509	0.6007	0.5315	-0.412
Mof_O 	O 	0.867	0.5921	0.3154	-0.402
Mof_O 	O 	0.3721	0.5466	0.5464	-0.386
Mof_O 	O 	0.3678	0.0549	0.5047	-0.457
Mof_O 	O 	0.1346	0.9063	0.6389	-0.415
Mof_O 	O 	0.5455	0.0918	0.5652	-0.412
Mof_O 	O 	0.4491	0.8993	0.0315	-0.408
Mof_O 	O 	0.133	0.9079	0.8154	-0.404
Mof_O 	O 	0.6279	0.9534	0.0464	-0.381
Mof_O 	O 	0.8678	0.4451	0.0047	-0.457
Mof_O 	O 	0.6346	0.5937	0.1389	-0.412
Mof_O 	O 	0.0455	0.4082	0.0652	-0.413
Mof_O 	O 	0.9491	0.6007	0.5315	-0.412
Mof_O 	O 	0.633	0.5921	0.3154	-0.402
Mof_O 	O 	0.1279	0.5466	0.5464	-0.386
Mof_O 	O 	0.1322	0.0549	0.5047	-0.457
Mof_O 	O 	0.3654	0.9063	0.6389	-0.413
Mof_O 	O 	0.9545	0.0918	0.5652	-0.416
Mof_O 	O 	0.0509	0.8993	0.0315	-0.413
Mof_O 	O 	0.367	0.9079	0.8154	-0.403
Mof_O 	O 	0.8721	0.9534	0.0464	-0.382
Mof_O 	O 	0.3678	0.5549	0.9953	-0.457
Mof_O 	O 	0.1346	0.4063	0.8611	-0.412
Mof_O 	O 	0.5455	0.5918	0.9348	-0.412
Mof_O 	O 	0.4491	0.3993	0.4685	-0.412
Mof_O 	O 	0.133	0.4079	0.6846	-0.402
Mof_O 	O 	0.6279	0.4534	0.4536	-0.386
Mof_O 	O 	0.6322	0.9451	0.4953	-0.457
Mof_O 	O 	0.8654	0.0937	0.3611	-0.415
Mof_O 	O 	0.4545	0.9082	0.4348	-0.412
Mof_O 	O 	0.5509	0.1007	0.9685	-0.408
Mof_O 	O 	0.867	0.0921	0.1846	-0.404
Mof_O 	O 	0.3721	0.0466	0.9536	-0.381
Mof_O 	O 	0.25	0.5084	0.3605	-0.412
Mof_O 	O 	0.25	0.3382	0.3568	-0.496
Mof_O 	O 	0.25	0.3422	0.1815	-0.456
Mof_O 	O 	0.25	0.5101	0.1845	-0.501
Mof_O 	O 	0.25	0.2672	0.5567	-0.917
Mof_O 	O 	0.75	0.9916	0.8605	-0.415
Mof_O 	O 	0.75	0.1618	0.8568	-0.494
Mof_O 	O 	0.75	0.1578	0.6815	-0.455
Mof_O 	O 	0.75	0.9899	0.6845	-0.503
Mof_O 	O 	0.75	0.2328	0.0567	-0.916
Mof_O 	O 	0.75	0.4916	0.6395	-0.412
Mof_O 	O 	0.75	0.6618	0.6432	-0.496
Mof_O 	O 	0.75	0.6578	0.8185	-0.456
Mof_O 	O 	0.75	0.4899	0.8155	-0.501
Mof_O 	O 	0.75	0.7328	0.4433	-0.917
Mof_O 	O 	0.25	0.0084	0.1395	-0.415
Mof_O 	O 	0.25	0.8382	0.1432	-0.494
Mof_O 	O 	0.25	0.8422	0.3185	-0.455
Mof_O 	O 	0.25	0.0101	0.3155	-0.503
Mof_O 	O 	0.25	0.7672	0.9433	-0.916
_end
