data_functionalizedCrystal
_audit_creation_method	'EQeq! by Chris Wilmer'
_symmetry_space_group_name_H-M	'P1'
_symmetry_Int_Tables_number	1
_symmetry_cell_setting	triclinic
loop_
_symmetry_equiv_pos_as_xyz
  x,y,z
_cell_length_a	15.337
_cell_length_b	32.832
_cell_length_c	10.1057
_cell_angle_alpha	90
_cell_angle_beta	106.549
_cell_angle_gamma	90
loop_
_atom_site_label
_atom_site_type_symbol
_atom_site_fract_x
_atom_site_fract_y
_atom_site_fract_z
_atom_site_charge
Mof_Cu	Cu	0.58029	0.21663	0.22464	0.928
Mof_Cu	Cu	0.50722	0.21726	0.48308	0.937
Mof_Cu	Cu	0.65408	0.27467	0.4599	0.931
Mof_O 	O 	0.6177	0.21803	0.4248	-0.743
Mof_H 	H 	0.6577	0.2006	0.4639	0.291
Mof_O 	O 	0.5324	0.15784	0.2347	-0.369
Mof_O 	O 	0.472	0.16264	0.4141	-0.382
Mof_O 	O 	0.7051	0.22832	0.2109	-0.453
Mof_O 	O 	0.7626	0.26671	0.4001	-0.402
Mof_O 	O 	0.5443	0.27519	0.5272	-0.719
Mof_H 	H 	0.5042	0.2921	0.4844	0.282
Mof_O 	O 	0.0479	0.3345	0.4601	-0.075
Mof_O 	O 	0.0983	0.3366	0.2941	-0.051
Mof_O 	O 	0.0035	0.3048	0.9994	0.2
Mof_O 	O 	0.119	0.3456	0.0049	0.212
Mof_O 	O 	0.2754	0.996	0.3932	-0.048
Mof_O 	O 	0.2758	0.0518	0.4728	-0.055
Mof_O 	O 	0.2942	0.01869	0.0053	-0.05
Mof_O 	O 	0.2948	0.97	0.8719	0.008
Mof_O 	O 	0.4018	0.27874	0.0487	-0.4
Mof_O 	O 	0.4543	0.23979	0.2354	-0.454
Mof_O 	O 	0.4011	0.81982	0.2701	-0.365
Mof_O 	O 	0.336	0.83249	0.0463	-0.376
Mof_C 	C 	0.4923	0.14391	0.3179	0.34
Mof_C 	C 	0.4655	0.09983	0.2993	-0.05
Mof_C 	C 	0.5113	0.0736	0.2381	0.005
Mof_H 	H 	0.5585	0.0833	0.2061	0.063
Mof_C 	C 	0.4882	0.0325	0.2227	-0.062
Mof_H 	H 	0.5226	0.0149	0.1859	0.089
Mof_C 	C 	0.4137	0.0173	0.2619	0.02
Mof_C 	C 	0.3698	0.0447	0.3252	0.083
Mof_C 	C 	0.3951	0.08483	0.3467	-0.058
Mof_H 	H 	0.3652	0.1019	0.3928	0.096
Mof_C 	C 	0.3932	0.9731	0.24	0.023
Mof_C 	C 	0.3515	0.9566	0.1132	0.077
Mof_C 	C 	0.3421	0.9149	0.0883	-0.052
Mof_H 	H 	0.3127	0.905	0.0007	0.092
Mof_C 	C 	0.3774	0.88869	0.1963	-0.045
Mof_C 	C 	0.4212	0.9047	0.3242	-0.003
Mof_H 	H 	0.4462	0.8873	0.3976	0.055
Mof_C 	C 	0.4285	0.9458	0.3446	-0.056
Mof_H 	H 	0.4584	0.9556	0.4321	0.073
Mof_C 	C 	0.3724	0.84328	0.1737	0.32
Mof_C 	C 	0.7694	0.24775	0.2966	0.362
Mof_C 	C 	0.8592	0.24832	0.2689	-0.079
Mof_C 	C 	0.9173	0.2805	0.3223	-0.036
Mof_H 	H 	0.8998	0.3007	0.374	0.084
Mof_C 	C 	0.0011	0.2823	0.2979	0.077
Mof_C 	C 	0.0305	0.2521	0.2203	0.033
Mof_C 	C 	0.9728	0.2194	0.1754	-0.075
Mof_H 	H 	0.9919	0.198	0.1301	0.095
Mof_C 	C 	0.8873	0.2177	0.196	0.029
Mof_H 	H 	0.8488	0.196	0.1608	0.048
Mof_C 	C 	0.121	0.2534	0.1903	0.035
Mof_C 	C 	0.1847	0.223	0.2466	-0.075
Mof_H 	H 	0.1676	0.2015	0.2936	0.095
Mof_C 	C 	0.2716	0.224	0.2348	0.03
Mof_H 	H 	0.3129	0.2038	0.2764	0.045
Mof_C 	C 	0.2981	0.2551	0.1606	-0.079
Mof_C 	C 	0.2341	0.2843	0.0979	-0.031
Mof_H 	H 	0.2501	0.305	0.0463	0.083
Mof_C 	C 	0.1473	0.28298	0.1112	0.069
Mof_C 	C 	0.3936	0.25803	0.1493	0.382
Mof_N 	N 	0.3125	0.0291	0.4097	-0.026
Mof_N 	N 	0.0616	0.3157	0.3633	0.015
Mof_N 	N 	0.0838	0.31499	0.0362	0.002
Mof_N 	N 	0.3111	0.98303	0.9897	-0.003
Mof_O 	O 	0.0255	0.3457	0.3957	-0.022
Mof_O 	O 	0.1428	0.3069	0.4012	-0.086
Mof_O 	O 	0.0052	0.3145	0.041	-0.292
Mof_O 	O 	0.1055	0.3367	0.9526	-0.307
Mof_O 	O 	0.2425	0.0024	0.3021	-0.044
Mof_O 	O 	0.2247	0.0595	0.3631	-0.049
Mof_O 	O 	0.2651	0.0097	0.0221	-0.029
Mof_O 	O 	0.3385	0.9736	0.8913	-0.112
Mof_N 	N 	0.2789	0.0347	0.3434	0.018
Mof_Cu	Cu	0.41971	0.71663	0.27536	0.929
Mof_Cu	Cu	0.49278	0.71726	0.01692	0.934
Mof_Cu	Cu	0.34592	0.77467	0.0401	0.93
Mof_O 	O 	0.3823	0.71803	0.0752	-0.744
Mof_H 	H 	0.3423	0.7006	0.0361	0.29
Mof_O 	O 	0.4676	0.65784	0.2653	-0.37
Mof_O 	O 	0.528	0.66264	0.0859	-0.384
Mof_O 	O 	0.2949	0.72832	0.2891	-0.455
Mof_O 	O 	0.2374	0.76671	0.0999	-0.405
Mof_O 	O 	0.4557	0.77519	0.9728	-0.706
Mof_H 	H 	0.4958	0.7921	0.0156	0.273
Mof_O 	O 	0.9521	0.8345	0.0399	-0.079
Mof_O 	O 	0.9017	0.8366	0.2059	-0.052
Mof_O 	O 	0.9965	0.8048	0.5006	0.068
Mof_O 	O 	0.881	0.8456	0.4951	0.084
Mof_O 	O 	0.7246	0.496	0.1068	-0.047
Mof_O 	O 	0.7242	0.5518	0.0272	-0.056
Mof_O 	O 	0.7058	0.51869	0.4947	-0.053
Mof_O 	O 	0.7052	0.47	0.6281	0.007
Mof_O 	O 	0.5982	0.77874	0.4513	-0.404
Mof_O 	O 	0.5457	0.73979	0.2646	-0.455
Mof_O 	O 	0.5989	0.31982	0.2299	-0.363
Mof_O 	O 	0.664	0.33249	0.4537	-0.373
Mof_C 	C 	0.5077	0.64391	0.1821	0.341
Mof_C 	C 	0.5345	0.59983	0.2007	-0.053
Mof_C 	C 	0.4887	0.5736	0.2619	0.007
Mof_H 	H 	0.4415	0.5833	0.2939	0.062
Mof_C 	C 	0.5118	0.5325	0.2773	-0.063
Mof_H 	H 	0.4774	0.5149	0.3141	0.09
Mof_C 	C 	0.5863	0.5173	0.2381	0.021
Mof_C 	C 	0.6302	0.5447	0.1748	0.082
Mof_C 	C 	0.6049	0.58483	0.1533	-0.057
Mof_H 	H 	0.6348	0.6019	0.1072	0.095
Mof_C 	C 	0.6068	0.4731	0.26	0.022
Mof_C 	C 	0.6485	0.4566	0.3868	0.079
Mof_C 	C 	0.6579	0.4149	0.4117	-0.053
Mof_H 	H 	0.6873	0.405	0.4993	0.094
Mof_C 	C 	0.6226	0.38869	0.3037	-0.042
Mof_C 	C 	0.5788	0.4047	0.1758	-0.005
Mof_H 	H 	0.5538	0.3873	0.1024	0.058
Mof_C 	C 	0.5715	0.4458	0.1554	-0.054
Mof_H 	H 	0.5416	0.4556	0.0679	0.073
Mof_C 	C 	0.6276	0.34328	0.3263	0.319
Mof_C 	C 	0.2306	0.74775	0.2034	0.362
Mof_C 	C 	0.1408	0.74832	0.2311	-0.082
Mof_C 	C 	0.0827	0.7805	0.1777	-0.037
Mof_H 	H 	0.1002	0.8007	0.126	0.082
Mof_C 	C 	0.9989	0.7823	0.2021	0.072
Mof_C 	C 	0.9695	0.7521	0.2797	0.033
Mof_C 	C 	0.0272	0.7194	0.3246	-0.076
Mof_H 	H 	0.0081	0.698	0.3699	0.095
Mof_C 	C 	0.1127	0.7177	0.304	0.028
Mof_H 	H 	0.1512	0.696	0.3392	0.047
Mof_C 	C 	0.879	0.7534	0.3097	0.035
Mof_C 	C 	0.8153	0.723	0.2534	-0.079
Mof_H 	H 	0.8324	0.7015	0.2064	0.098
Mof_C 	C 	0.7284	0.724	0.2652	0.031
Mof_H 	H 	0.6871	0.7038	0.2236	0.043
Mof_C 	C 	0.7019	0.7551	0.3394	-0.081
Mof_C 	C 	0.7659	0.7843	0.4021	-0.031
Mof_H 	H 	0.7499	0.805	0.4537	0.082
Mof_C 	C 	0.8527	0.78298	0.3888	0.07
Mof_C 	C 	0.6064	0.75803	0.3507	0.383
Mof_N 	N 	0.6875	0.5291	0.0903	-0.026
Mof_N 	N 	0.9384	0.8157	0.1367	0.015
Mof_N 	N 	0.9162	0.81499	0.4638	-0.002
Mof_N 	N 	0.6889	0.48303	0.5103	-0.003
Mof_O 	O 	0.9745	0.8457	0.1043	-0.022
Mof_O 	O 	0.8572	0.8069	0.0988	-0.088
Mof_O 	O 	0.9948	0.8145	0.459	-0.16
Mof_O 	O 	0.8945	0.8367	0.5474	-0.176
Mof_O 	O 	0.7575	0.5024	0.1979	-0.044
Mof_O 	O 	0.7753	0.5595	0.1369	-0.05
Mof_O 	O 	0.7349	0.5097	0.4779	-0.027
Mof_O 	O 	0.6615	0.4736	0.6087	-0.112
Mof_N 	N 	0.7211	0.5347	0.1566	0.018
Mof_Cu	Cu	0.41971	0.78336	0.77536	0.929
Mof_Cu	Cu	0.49278	0.78274	0.51692	0.938
Mof_Cu	Cu	0.34592	0.72533	0.5401	0.932
Mof_O 	O 	0.3823	0.78197	0.5752	-0.742
Mof_H 	H 	0.3423	0.7994	0.5361	0.292
Mof_O 	O 	0.4676	0.84216	0.7653	-0.368
Mof_O 	O 	0.528	0.83736	0.5859	-0.382
Mof_O 	O 	0.2949	0.77168	0.7891	-0.453
Mof_O 	O 	0.2374	0.73329	0.5999	-0.402
Mof_O 	O 	0.4557	0.72481	0.4728	-0.719
Mof_H 	H 	0.4958	0.7079	0.5156	0.282
Mof_O 	O 	0.9521	0.6655	0.5399	-0.075
Mof_O 	O 	0.9017	0.6634	0.7059	-0.051
Mof_O 	O 	0.9965	0.6952	0.0006	0.2
Mof_O 	O 	0.881	0.6544	0.9951	0.212
Mof_O 	O 	0.7246	0.004	0.6068	-0.048
Mof_O 	O 	0.7242	0.9482	0.5272	-0.055
Mof_O 	O 	0.7058	0.98131	0.9947	-0.05
Mof_O 	O 	0.7052	0.03	0.1281	0.008
Mof_O 	O 	0.5982	0.72126	0.9513	-0.4
Mof_O 	O 	0.5457	0.76021	0.7646	-0.454
Mof_O 	O 	0.5989	0.18018	0.7299	-0.365
Mof_O 	O 	0.664	0.16751	0.9537	-0.376
Mof_C 	C 	0.5077	0.85609	0.6821	0.34
Mof_C 	C 	0.5345	0.90017	0.7007	-0.05
Mof_C 	C 	0.4887	0.9264	0.7619	0.005
Mof_H 	H 	0.4415	0.9167	0.7939	0.063
Mof_C 	C 	0.5118	0.9675	0.7773	-0.062
Mof_H 	H 	0.4774	0.9851	0.8141	0.089
Mof_C 	C 	0.5863	0.9827	0.7381	0.02
Mof_C 	C 	0.6302	0.9553	0.6748	0.083
Mof_C 	C 	0.6049	0.91517	0.6533	-0.058
Mof_H 	H 	0.6348	0.8981	0.6072	0.096
Mof_C 	C 	0.6068	0.0269	0.76	0.023
Mof_C 	C 	0.6485	0.0434	0.8868	0.077
Mof_C 	C 	0.6579	0.0851	0.9117	-0.052
Mof_H 	H 	0.6873	0.095	0.9993	0.092
Mof_C 	C 	0.6226	0.11131	0.8037	-0.045
Mof_C 	C 	0.5788	0.0953	0.6758	-0.003
Mof_H 	H 	0.5538	0.1127	0.6024	0.055
Mof_C 	C 	0.5715	0.0542	0.6554	-0.056
Mof_H 	H 	0.5416	0.0444	0.5679	0.073
Mof_C 	C 	0.6276	0.15672	0.8263	0.32
Mof_C 	C 	0.2306	0.75225	0.7034	0.362
Mof_C 	C 	0.1408	0.75168	0.7311	-0.079
Mof_C 	C 	0.0827	0.7195	0.6777	-0.036
Mof_H 	H 	0.1002	0.6993	0.626	0.084
Mof_C 	C 	0.9989	0.7177	0.7021	0.077
Mof_C 	C 	0.9695	0.7479	0.7797	0.033
Mof_C 	C 	0.0272	0.7806	0.8246	-0.075
Mof_H 	H 	0.0081	0.802	0.8699	0.095
Mof_C 	C 	0.1127	0.7823	0.804	0.029
Mof_H 	H 	0.1512	0.804	0.8392	0.048
Mof_C 	C 	0.879	0.7466	0.8097	0.035
Mof_C 	C 	0.8153	0.777	0.7534	-0.075
Mof_H 	H 	0.8324	0.7985	0.7064	0.095
Mof_C 	C 	0.7284	0.776	0.7652	0.03
Mof_H 	H 	0.6871	0.7962	0.7236	0.045
Mof_C 	C 	0.7019	0.7449	0.8394	-0.079
Mof_C 	C 	0.7659	0.7157	0.9021	-0.031
Mof_H 	H 	0.7499	0.695	0.9537	0.083
Mof_C 	C 	0.8527	0.71702	0.8888	0.069
Mof_C 	C 	0.6064	0.74197	0.8507	0.382
Mof_N 	N 	0.6875	0.9709	0.5903	-0.026
Mof_N 	N 	0.9384	0.6843	0.6367	0.015
Mof_N 	N 	0.9162	0.68501	0.9638	0.002
Mof_N 	N 	0.6889	0.01697	0.0103	-0.003
Mof_O 	O 	0.9745	0.6543	0.6043	-0.022
Mof_O 	O 	0.8572	0.6931	0.5988	-0.086
Mof_O 	O 	0.9948	0.6855	0.959	-0.292
Mof_O 	O 	0.8945	0.6633	0.0474	-0.307
Mof_O 	O 	0.7575	0.9976	0.6979	-0.044
Mof_O 	O 	0.7753	0.9405	0.6369	-0.049
Mof_O 	O 	0.7349	0.9903	0.9779	-0.029
Mof_O 	O 	0.6615	0.0264	0.1087	-0.112
Mof_N 	N 	0.7211	0.9653	0.6566	0.018
Mof_Cu	Cu	0.58029	0.28337	0.72464	0.929
Mof_Cu	Cu	0.50722	0.28274	0.98308	0.934
Mof_Cu	Cu	0.65408	0.22533	0.9599	0.93
Mof_O 	O 	0.6177	0.28197	0.9248	-0.744
Mof_H 	H 	0.6577	0.2994	0.9639	0.29
Mof_O 	O 	0.5324	0.34216	0.7347	-0.37
Mof_O 	O 	0.472	0.33736	0.9141	-0.384
Mof_O 	O 	0.7051	0.27168	0.7109	-0.455
Mof_O 	O 	0.7626	0.23329	0.9001	-0.405
Mof_O 	O 	0.5443	0.22481	0.0272	-0.706
Mof_H 	H 	0.5042	0.2079	0.9844	0.273
Mof_O 	O 	0.0479	0.1655	0.9601	-0.079
Mof_O 	O 	0.0983	0.1634	0.7941	-0.052
Mof_O 	O 	0.0035	0.1952	0.4994	0.068
Mof_O 	O 	0.119	0.1544	0.5049	0.084
Mof_O 	O 	0.2754	0.504	0.8932	-0.047
Mof_O 	O 	0.2758	0.4482	0.9728	-0.056
Mof_O 	O 	0.2942	0.48131	0.5053	-0.053
Mof_O 	O 	0.2948	0.53	0.3719	0.007
Mof_O 	O 	0.4018	0.22126	0.5487	-0.404
Mof_O 	O 	0.4543	0.26021	0.7354	-0.455
Mof_O 	O 	0.4011	0.68018	0.7701	-0.363
Mof_O 	O 	0.336	0.66751	0.5463	-0.373
Mof_C 	C 	0.4923	0.35609	0.8179	0.341
Mof_C 	C 	0.4655	0.40017	0.7993	-0.053
Mof_C 	C 	0.5113	0.4264	0.7381	0.007
Mof_H 	H 	0.5585	0.4167	0.7061	0.062
Mof_C 	C 	0.4882	0.4675	0.7227	-0.063
Mof_H 	H 	0.5226	0.4851	0.6859	0.09
Mof_C 	C 	0.4137	0.4827	0.7619	0.021
Mof_C 	C 	0.3698	0.4553	0.8252	0.082
Mof_C 	C 	0.3951	0.41517	0.8467	-0.057
Mof_H 	H 	0.3652	0.3981	0.8928	0.095
Mof_C 	C 	0.3932	0.5269	0.74	0.022
Mof_C 	C 	0.3515	0.5434	0.6132	0.079
Mof_C 	C 	0.3421	0.5851	0.5883	-0.053
Mof_H 	H 	0.3127	0.595	0.5007	0.094
Mof_C 	C 	0.3774	0.61131	0.6963	-0.042
Mof_C 	C 	0.4212	0.5953	0.8242	-0.005
Mof_H 	H 	0.4462	0.6127	0.8976	0.058
Mof_C 	C 	0.4285	0.5542	0.8446	-0.054
Mof_H 	H 	0.4584	0.5444	0.9321	0.073
Mof_C 	C 	0.3724	0.65672	0.6737	0.319
Mof_C 	C 	0.7694	0.25225	0.7966	0.362
Mof_C 	C 	0.8592	0.25168	0.7689	-0.082
Mof_C 	C 	0.9173	0.2195	0.8223	-0.037
Mof_H 	H 	0.8998	0.1993	0.874	0.082
Mof_C 	C 	0.0011	0.2177	0.7979	0.072
Mof_C 	C 	0.0305	0.2479	0.7203	0.033
Mof_C 	C 	0.9728	0.2806	0.6754	-0.076
Mof_H 	H 	0.9919	0.302	0.6301	0.095
Mof_C 	C 	0.8873	0.2823	0.696	0.028
Mof_H 	H 	0.8488	0.304	0.6608	0.047
Mof_C 	C 	0.121	0.2466	0.6903	0.035
Mof_C 	C 	0.1847	0.277	0.7466	-0.079
Mof_H 	H 	0.1676	0.2985	0.7936	0.098
Mof_C 	C 	0.2716	0.276	0.7348	0.031
Mof_H 	H 	0.3129	0.2962	0.7764	0.043
Mof_C 	C 	0.2981	0.2449	0.6606	-0.081
Mof_C 	C 	0.2341	0.2157	0.5979	-0.031
Mof_H 	H 	0.2501	0.195	0.5463	0.082
Mof_C 	C 	0.1473	0.21702	0.6112	0.07
Mof_C 	C 	0.3936	0.24197	0.6493	0.383
Mof_N 	N 	0.3125	0.4709	0.9097	-0.026
Mof_N 	N 	0.0616	0.1843	0.8633	0.015
Mof_N 	N 	0.0838	0.18501	0.5362	-0.002
Mof_N 	N 	0.3111	0.51697	0.4897	-0.003
Mof_O 	O 	0.0255	0.1543	0.8957	-0.022
Mof_O 	O 	0.1428	0.1931	0.9012	-0.088
Mof_O 	O 	0.0052	0.1855	0.541	-0.16
Mof_O 	O 	0.1055	0.1633	0.4526	-0.176
Mof_O 	O 	0.2425	0.4976	0.8021	-0.044
Mof_O 	O 	0.2247	0.4405	0.8631	-0.05
Mof_O 	O 	0.2651	0.4903	0.5221	-0.027
Mof_O 	O 	0.3385	0.5264	0.3913	-0.112
Mof_N 	N 	0.2789	0.4653	0.8434	0.018
_end
