data_functionalizedCrystal
_audit_creation_method	'EQeq! by Chris Wilmer'
_symmetry_space_group_name_H-M	'P1'
_symmetry_Int_Tables_number	1
_symmetry_cell_setting	triclinic
loop_
_symmetry_equiv_pos_as_xyz
  x,y,z
_cell_length_a	11.2367
_cell_length_b	32.9682
_cell_length_c	32.9682
_cell_angle_alpha	88.3357
_cell_angle_beta	80.1879
_cell_angle_gamma	80.1877
loop_
_atom_site_label
_atom_site_type_symbol
_atom_site_fract_x
_atom_site_fract_y
_atom_site_fract_z
_atom_site_charge
Mof_Pr	Pr	0.81646	0.97138	0.17134	2.213
Mof_Pr	Pr	0.31687	0.97408	0.17314	2.271
Mof_Pr	Pr	0.45918	0.52862	0.32866	2.213
Mof_Pr	Pr	0.96409	0.52592	0.32686	2.267
Mof_Pr	Pr	0.9878	0.82866	0.47138	2.205
Mof_Pr	Pr	0.49002	0.82685	0.47408	2.27
Mof_Pr	Pr	0.78784	0.67134	0.02862	2.213
Mof_Pr	Pr	0.29094	0.67315	0.02592	2.272
Mof_Pr	Pr	0.18354	0.02862	0.82866	2.213
Mof_Pr	Pr	0.68313	0.02592	0.82686	2.271
Mof_Pr	Pr	0.54082	0.47138	0.67134	2.213
Mof_Pr	Pr	0.03591	0.47408	0.67314	2.267
Mof_Pr	Pr	0.0122	0.17134	0.52862	2.205
Mof_Pr	Pr	0.50998	0.17315	0.52592	2.27
Mof_Pr	Pr	0.21216	0.32866	0.97138	2.213
Mof_Pr	Pr	0.70906	0.32685	0.97408	2.272
Mof_Co	Co	0.71127	0.87107	0.96359	1.118
Mof_Co	Co	0.04593	0.62893	0.53641	1.118
Mof_Co	Co	0.67486	0.03641	0.37107	1.119
Mof_Co	Co	0.58234	0.46359	0.12893	1.119
Mof_Co	Co	0.28873	0.12893	0.03641	1.119
Mof_Co	Co	0.95407	0.37107	0.46359	1.119
Mof_Co	Co	0.32514	0.96359	0.62893	1.119
Mof_Co	Co	0.41766	0.53641	0.87107	1.119
Mof_H 	H 	0.9598	0.0165	0.0593	-0.015
Mof_H 	H 	0.9357	0.0639	0.0061	0.09
Mof_H 	H 	0.0661	0.1137	0.9967	-0.016
Mof_H 	H 	0.4144	0.1389	0.1117	-0.003
Mof_H 	H 	0.3471	0.1482	0.18	0.092
Mof_H 	H 	0.1651	0.1267	0.2097	0.027
Mof_H 	H 	0.5554	0.8423	0.1327	0.02
Mof_H 	H 	0.6635	0.7874	0.0936	0.086
Mof_H 	H 	0.7592	0.7989	0.0267	-0.028
Mof_H 	H 	0.6359	0.9668	0.9418	-0.027
Mof_H 	H 	0.6527	0.0283	0.9723	0.086
Mof_H 	H 	0.6973	0.026	0.038	0.003
Mof_H 	H 	0.667	0.1236	0.2198	0.03
Mof_H 	H 	0.8246	0.1281	0.2557	0.091
Mof_H 	H 	0.8425	0.0866	0.313	-0.002
Mof_H 	H 	0.4238	0.9995	0.3961	-0.019
Mof_H 	H 	0.3188	0.9626	0.361	0.09
Mof_H 	H 	0.3752	0.9555	0.2903	-0.019
Mof_H 	H 	0.1021	0.9565	0.3135	-0.007
Mof_H 	H 	0.0156	0.9254	0.3718	0.11
Mof_H 	H 	0.9577	0.8655	0.3633	-0.022
Mof_H 	H 	0.2682	0.7597	0.2059	0.021
Mof_H 	H 	0.2673	0.7855	0.1395	0.087
Mof_H 	H 	0.127	0.8452	0.134	0.023
Mof_H 	H 	0.5356	0.4835	0.4407	-0.016
Mof_H 	H 	0.5057	0.4361	0.4939	0.091
Mof_H 	H 	0.6765	0.3863	0.5033	-0.016
Mof_H 	H 	0.165	0.3611	0.3883	-0.003
Mof_H 	H 	0.1753	0.3518	0.32	0.091
Mof_H 	H 	0.0015	0.3733	0.2903	0.028
Mof_H 	H 	0.0304	0.6577	0.3673	0.021
Mof_H 	H 	0.0445	0.7126	0.4064	0.087
Mof_H 	H 	0.0848	0.7011	0.4733	-0.027
Mof_H 	H 	0.0445	0.5332	0.5582	-0.027
Mof_H 	H 	0.1533	0.4717	0.5277	0.086
Mof_H 	H 	0.2613	0.474	0.462	0.004
Mof_H 	H 	0.5104	0.3764	0.2802	0.03
Mof_H 	H 	0.7084	0.3719	0.2443	0.091
Mof_H 	H 	0.7421	0.4134	0.187	-0.002
Mof_H 	H 	0.3194	0.5005	0.1039	-0.019
Mof_H 	H 	0.1424	0.5374	0.139	0.09
Mof_H 	H 	0.121	0.5445	0.2097	-0.018
Mof_H 	H 	0.8721	0.5435	0.1865	-0.01
Mof_H 	H 	0.8128	0.5746	0.1282	0.114
Mof_H 	H 	0.6865	0.6345	0.1367	-0.026
Mof_H 	H 	0.7338	0.7403	0.2941	0.02
Mof_H 	H 	0.6923	0.7145	0.3605	0.087
Mof_H 	H 	0.6062	0.6548	0.366	0.022
Mof_H 	H 	0.0191	0.9407	0.5165	-0.016
Mof_H 	H 	0.9418	0.9939	0.5639	0.091
Mof_H 	H 	0.0628	0.0033	0.6137	-0.017
Mof_H 	H 	0.5261	0.8883	0.6389	-0.003
Mof_H 	H 	0.5271	0.82	0.6482	0.092
Mof_H 	H 	0.3748	0.7903	0.6267	0.027
Mof_H 	H 	0.6881	0.8673	0.3423	0.02
Mof_H 	H 	0.7571	0.9064	0.2874	0.086
Mof_H 	H 	0.7859	0.9733	0.2989	-0.028
Mof_H 	H 	0.5777	0.0582	0.4668	-0.027
Mof_H 	H 	0.625	0.0277	0.5283	0.086
Mof_H 	H 	0.7353	0.962	0.526	0.004
Mof_H 	H 	0.8868	0.7802	0.6236	0.031
Mof_H 	H 	0.0803	0.7443	0.6281	0.089
Mof_H 	H 	0.1555	0.687	0.5866	-0.002
Mof_H 	H 	0.8199	0.6039	0.4995	-0.019
Mof_H 	H 	0.6798	0.639	0.4626	0.09
Mof_H 	H 	0.6655	0.7097	0.4555	-0.019
Mof_H 	H 	0.4156	0.6865	0.4565	-0.01
Mof_H 	H 	0.3874	0.6282	0.4254	0.114
Mof_H 	H 	0.321	0.6367	0.3655	-0.026
Mof_H 	H 	0.4741	0.7941	0.2597	0.021
Mof_H 	H 	0.4068	0.8605	0.2855	0.087
Mof_H 	H 	0.261	0.866	0.3452	0.022
Mof_H 	H 	0.9763	0.5593	0.9835	-0.017
Mof_H 	H 	0.9996	0.5061	0.9361	0.092
Mof_H 	H 	0.1798	0.4967	0.8863	-0.017
Mof_H 	H 	0.5533	0.6117	0.8611	-0.003
Mof_H 	H 	0.4953	0.68	0.8518	0.092
Mof_H 	H 	0.2918	0.7097	0.8733	0.027
Mof_H 	H 	0.3977	0.6327	0.1577	0.02
Mof_H 	H 	0.4509	0.5936	0.2126	0.086
Mof_H 	H 	0.5581	0.5267	0.2011	-0.028
Mof_H 	H 	0.6027	0.4418	0.0332	-0.027
Mof_H 	H 	0.681	0.4723	0.9717	0.086
Mof_H 	H 	0.7233	0.538	0.974	0.004
Mof_H 	H 	0.7906	0.7198	0.8764	0.03
Mof_H 	H 	0.9527	0.7557	0.8719	0.09
Mof_H 	H 	0.9291	0.813	0.9134	-0.003
Mof_H 	H 	0.4233	0.8961	0.0005	-0.019
Mof_H 	H 	0.2814	0.861	0.0374	0.09
Mof_H 	H 	0.3307	0.7903	0.0445	-0.019
Mof_H 	H 	0.0586	0.8135	0.0435	-0.011
Mof_H 	H 	0.941	0.8718	0.0746	0.115
Mof_H 	H 	0.8232	0.8633	0.1345	-0.026
Mof_H 	H 	0.0279	0.7059	0.2403	0.021
Mof_H 	H 	0.0528	0.6395	0.2145	0.086
Mof_H 	H 	0.9722	0.634	0.1548	0.024
Mof_H 	H 	0.0402	0.9835	0.9407	-0.015
Mof_H 	H 	0.0643	0.9361	0.9939	0.09
Mof_H 	H 	0.9339	0.8863	0.0033	-0.016
Mof_H 	H 	0.5856	0.8611	0.8883	-0.003
Mof_H 	H 	0.6529	0.8518	0.82	0.092
Mof_H 	H 	0.8349	0.8733	0.7903	0.027
Mof_H 	H 	0.4446	0.1577	0.8673	0.02
Mof_H 	H 	0.3365	0.2126	0.9064	0.086
Mof_H 	H 	0.2408	0.2011	0.9733	-0.028
Mof_H 	H 	0.3641	0.0332	0.0582	-0.027
Mof_H 	H 	0.3473	0.9717	0.0277	0.086
Mof_H 	H 	0.3027	0.974	0.962	0.003
Mof_H 	H 	0.333	0.8764	0.7802	0.03
Mof_H 	H 	0.1754	0.8719	0.7443	0.091
Mof_H 	H 	0.1575	0.9134	0.687	-0.002
Mof_H 	H 	0.5762	0.0005	0.6039	-0.019
Mof_H 	H 	0.6812	0.0374	0.639	0.09
Mof_H 	H 	0.6248	0.0445	0.7097	-0.019
Mof_H 	H 	0.8979	0.0435	0.6865	-0.007
Mof_H 	H 	0.9844	0.0746	0.6282	0.11
Mof_H 	H 	0.0423	0.1345	0.6367	-0.022
Mof_H 	H 	0.7318	0.2403	0.7941	0.021
Mof_H 	H 	0.7327	0.2145	0.8605	0.087
Mof_H 	H 	0.873	0.1548	0.866	0.023
Mof_H 	H 	0.4644	0.5165	0.5593	-0.016
Mof_H 	H 	0.4943	0.5639	0.5061	0.091
Mof_H 	H 	0.3235	0.6137	0.4967	-0.016
Mof_H 	H 	0.835	0.6389	0.6117	-0.003
Mof_H 	H 	0.8247	0.6482	0.68	0.091
Mof_H 	H 	0.9985	0.6267	0.7097	0.028
Mof_H 	H 	0.9696	0.3423	0.6327	0.021
Mof_H 	H 	0.9555	0.2874	0.5936	0.087
Mof_H 	H 	0.9152	0.2989	0.5267	-0.027
Mof_H 	H 	0.9555	0.4668	0.4418	-0.027
Mof_H 	H 	0.8467	0.5283	0.4723	0.086
Mof_H 	H 	0.7387	0.526	0.538	0.004
Mof_H 	H 	0.4896	0.6236	0.7198	0.03
Mof_H 	H 	0.2916	0.6281	0.7557	0.091
Mof_H 	H 	0.2579	0.5866	0.813	-0.002
Mof_H 	H 	0.6806	0.4995	0.8961	-0.019
Mof_H 	H 	0.8576	0.4626	0.861	0.09
Mof_H 	H 	0.879	0.4555	0.7903	-0.018
Mof_H 	H 	0.1279	0.4565	0.8135	-0.01
Mof_H 	H 	0.1872	0.4254	0.8718	0.114
Mof_H 	H 	0.3135	0.3655	0.8633	-0.026
Mof_H 	H 	0.2662	0.2597	0.7059	0.02
Mof_H 	H 	0.3077	0.2855	0.6395	0.087
Mof_H 	H 	0.3938	0.3452	0.634	0.022
Mof_H 	H 	0.9809	0.0593	0.4835	-0.016
Mof_H 	H 	0.0582	0.0061	0.4361	0.091
Mof_H 	H 	0.9372	0.9967	0.3863	-0.017
Mof_H 	H 	0.4739	0.1117	0.3611	-0.003
Mof_H 	H 	0.4729	0.18	0.3518	0.092
Mof_H 	H 	0.6252	0.2097	0.3733	0.027
Mof_H 	H 	0.3119	0.1327	0.6577	0.02
Mof_H 	H 	0.2429	0.0936	0.7126	0.086
Mof_H 	H 	0.2141	0.0267	0.7011	-0.028
Mof_H 	H 	0.4223	0.9418	0.5332	-0.027
Mof_H 	H 	0.375	0.9723	0.4717	0.086
Mof_H 	H 	0.2647	0.038	0.474	0.004
Mof_H 	H 	0.1132	0.2198	0.3764	0.031
Mof_H 	H 	0.9197	0.2557	0.3719	0.089
Mof_H 	H 	0.8445	0.313	0.4134	-0.002
Mof_H 	H 	0.1801	0.3961	0.5005	-0.019
Mof_H 	H 	0.3202	0.361	0.5374	0.09
Mof_H 	H 	0.3345	0.2903	0.5445	-0.019
Mof_H 	H 	0.5844	0.3135	0.5435	-0.01
Mof_H 	H 	0.6126	0.3718	0.5746	0.114
Mof_H 	H 	0.679	0.3633	0.6345	-0.026
Mof_H 	H 	0.5259	0.2059	0.7403	0.021
Mof_H 	H 	0.5932	0.1395	0.7145	0.087
Mof_H 	H 	0.739	0.134	0.6548	0.022
Mof_H 	H 	0.0237	0.4407	0.0165	-0.017
Mof_H 	H 	0.0004	0.4939	0.0639	0.092
Mof_H 	H 	0.8202	0.5033	0.1137	-0.017
Mof_H 	H 	0.4467	0.3883	0.1389	-0.003
Mof_H 	H 	0.5047	0.32	0.1482	0.092
Mof_H 	H 	0.7082	0.2903	0.1267	0.027
Mof_H 	H 	0.6023	0.3673	0.8423	0.02
Mof_H 	H 	0.5491	0.4064	0.7874	0.086
Mof_H 	H 	0.4419	0.4733	0.7989	-0.028
Mof_H 	H 	0.3973	0.5582	0.9668	-0.027
Mof_H 	H 	0.319	0.5277	0.0283	0.086
Mof_H 	H 	0.2767	0.462	0.026	0.004
Mof_H 	H 	0.2094	0.2802	0.1236	0.03
Mof_H 	H 	0.0473	0.2443	0.1281	0.09
Mof_H 	H 	0.0709	0.187	0.0866	-0.003
Mof_H 	H 	0.5767	0.1039	0.9995	-0.019
Mof_H 	H 	0.7186	0.139	0.9626	0.09
Mof_H 	H 	0.6693	0.2097	0.9555	-0.019
Mof_H 	H 	0.9414	0.1865	0.9565	-0.011
Mof_H 	H 	0.059	0.1282	0.9254	0.115
Mof_H 	H 	0.1768	0.1367	0.8655	-0.026
Mof_H 	H 	0.9721	0.2941	0.7597	0.021
Mof_H 	H 	0.9472	0.3605	0.7855	0.086
Mof_H 	H 	0.0278	0.366	0.8452	0.024
Mof_C 	C 	0.0692	0.0179	0.1231	0.574
Mof_C 	C 	0.0545	0.0495	0.0891	-0.224
Mof_C 	C 	0.9945	0.0403	0.0579	0.122
Mof_C 	C 	0.9867	0.0667	0.0249	-0.172
Mof_C 	C 	0.0593	0.0984	0.0208	0.097
Mof_C 	C 	0.1111	0.0834	0.0848	0.103
Mof_C 	C 	0.1745	0.1005	0.1163	0.047
Mof_C 	C 	0.3414	0.1304	0.1236	0.072
Mof_C 	C 	0.3025	0.1359	0.1639	-0.134
Mof_C 	C 	0.1931	0.123	0.1816	0.047
Mof_C 	C 	0.1264	0.1049	0.1583	-0.122
Mof_C 	C 	0.0104	0.0911	0.1777	0.318
Mof_C 	C 	0.5013	0.9213	0.1135	0.323
Mof_C 	C 	0.5882	0.8861	0.0897	-0.114
Mof_C 	C 	0.5946	0.8465	0.1061	0.056
Mof_C 	C 	0.6584	0.814	0.0832	-0.143
Mof_C 	C 	0.7173	0.8212	0.0428	0.096
Mof_C 	C 	0.6565	0.8916	0.0502	0.051
Mof_C 	C 	0.665	0.9314	0.03	0.061
Mof_C 	C 	0.6456	0.9667	0.9693	0.098
Mof_C 	C 	0.6593	0.0038	0.987	-0.15
Mof_C 	C 	0.6827	0.0022	0.0264	0.065
Mof_C 	C 	0.6851	0.966	0.05	-0.116
Mof_C 	C 	0.7294	0.9635	0.0905	0.331
Mof_C 	C 	0.492	0.0793	0.2307	0.308
Mof_C 	C 	0.5948	0.0801	0.2549	-0.111
Mof_C 	C 	0.676	0.107	0.2428	0.043
Mof_C 	C 	0.7704	0.1099	0.2639	-0.126
Mof_C 	C 	0.7809	0.0847	0.2979	0.074
Mof_C 	C 	0.616	0.0555	0.2881	0.053
Mof_C 	C 	0.5385	0.0244	0.3058	0.089
Mof_C 	C 	0.4384	0.9998	0.3674	0.103
Mof_C 	C 	0.3789	0.9764	0.3468	-0.186
Mof_C 	C 	0.4093	0.9733	0.3045	0.128
Mof_C 	C 	0.4899	0.9966	0.2834	-0.213
Mof_C 	C 	0.5351	0.9889	0.2377	0.566
Mof_C 	C 	0.1131	0.909	0.2738	-0.14
Mof_C 	C 	0.0837	0.9303	0.3121	0.094
Mof_C 	C 	0.0302	0.913	0.346	-0.188
Mof_C 	C 	0.9996	0.8769	0.3401	0.126
Mof_C 	C 	0.0817	0.87	0.2706	0.094
Mof_C 	C 	0.119	0.846	0.2326	0.083
Mof_C 	C 	0.2288	0.7865	0.2027	0.079
Mof_C 	C 	0.2219	0.7999	0.1625	-0.129
Mof_C 	C 	0.1432	0.8358	0.1596	0.049
Mof_C 	C 	0.0837	0.8596	0.1966	-0.117
Mof_C 	C 	0.9908	0.8994	0.1918	0.36
Mof_C 	C 	0.1876	0.929	0.2388	0.369
Mof_C 	C 	0.7102	0.4821	0.3769	0.573
Mof_C 	C 	0.6931	0.4505	0.4109	-0.223
Mof_C 	C 	0.5927	0.4597	0.4421	0.123
Mof_C 	C 	0.5783	0.4333	0.4751	-0.174
Mof_C 	C 	0.6785	0.4016	0.4792	0.098
Mof_C 	C 	0.7793	0.4166	0.4152	0.104
Mof_C 	C 	0.8913	0.3995	0.3837	0.047
Mof_C 	C 	0.0954	0.3696	0.3764	0.071
Mof_C 	C 	0.1023	0.3641	0.3361	-0.132
Mof_C 	C 	0.9977	0.377	0.3184	0.045
Mof_C 	C 	0.8896	0.3951	0.3417	-0.121
Mof_C 	C 	0.7792	0.4089	0.3223	0.318
Mof_C 	C 	0.0361	0.5787	0.3865	0.325
Mof_C 	C 	0.064	0.6139	0.4103	-0.114
Mof_C 	C 	0.0472	0.6535	0.3939	0.057
Mof_C 	C 	0.0556	0.686	0.4168	-0.143
Mof_C 	C 	0.0813	0.6788	0.4572	0.097
Mof_C 	C 	0.0983	0.6084	0.4498	0.052
Mof_C 	C 	0.1264	0.5686	0.47	0.06
Mof_C 	C 	0.0816	0.5333	0.5307	0.098
Mof_C 	C 	0.1501	0.4962	0.513	-0.149
Mof_C 	C 	0.2113	0.4978	0.4736	0.064
Mof_C 	C 	0.2011	0.534	0.45	-0.116
Mof_C 	C 	0.2834	0.5365	0.4095	0.331
Mof_C 	C 	0.302	0.4207	0.2693	0.308
Mof_C 	C 	0.4298	0.4199	0.2451	-0.111
Mof_C 	C 	0.5258	0.393	0.2572	0.043
Mof_C 	C 	0.6442	0.3901	0.2361	-0.126
Mof_C 	C 	0.6635	0.4153	0.2021	0.074
Mof_C 	C 	0.4596	0.4445	0.2119	0.053
Mof_C 	C 	0.3687	0.4756	0.1942	0.089
Mof_C 	C 	0.3056	0.5002	0.1326	0.103
Mof_C 	C 	0.2021	0.5236	0.1532	-0.185
Mof_C 	C 	0.1871	0.5267	0.1955	0.127
Mof_C 	C 	0.2699	0.5034	0.2166	-0.213
Mof_C 	C 	0.2617	0.5111	0.2623	0.565
Mof_C 	C 	0.7959	0.591	0.2262	-0.143
Mof_C 	C 	0.8261	0.5697	0.1879	0.101
Mof_C 	C 	0.7892	0.587	0.154	-0.201
Mof_C 	C 	0.7166	0.6231	0.1599	0.139
Mof_C 	C 	0.7223	0.63	0.2294	0.094
Mof_C 	C 	0.6976	0.654	0.2674	0.083
Mof_C 	C 	0.718	0.7135	0.2973	0.079
Mof_C 	C 	0.6843	0.7001	0.3375	-0.13
Mof_C 	C 	0.6386	0.6642	0.3404	0.05
Mof_C 	C 	0.6399	0.6404	0.3034	-0.12
Mof_C 	C 	0.582	0.6006	0.3082	0.363
Mof_C 	C 	0.8554	0.571	0.2612	0.37
Mof_C 	C 	0.1923	0.8769	0.5179	0.572
Mof_C 	C 	0.1436	0.9109	0.5495	-0.223
Mof_C 	C 	0.0524	0.9421	0.5403	0.123
Mof_C 	C 	0.0116	0.9751	0.5667	-0.175
Mof_C 	C 	0.0801	0.9792	0.5984	0.099
Mof_C 	C 	0.1959	0.9152	0.5834	0.103
Mof_C 	C 	0.2908	0.8837	0.6005	0.047
Mof_C 	C 	0.465	0.8764	0.6304	0.072
Mof_C 	C 	0.4664	0.8361	0.6359	-0.134
Mof_C 	C 	0.3747	0.8184	0.623	0.047
Mof_C 	C 	0.2847	0.8417	0.6049	-0.122
Mof_C 	C 	0.1881	0.8223	0.5911	0.319
Mof_C 	C 	0.6148	0.8865	0.4213	0.323
Mof_C 	C 	0.6779	0.9103	0.3861	-0.114
Mof_C 	C 	0.7007	0.8939	0.3465	0.056
Mof_C 	C 	0.7416	0.9168	0.314	-0.143
Mof_C 	C 	0.7601	0.9572	0.3212	0.096
Mof_C 	C 	0.7067	0.9498	0.3916	0.051
Mof_C 	C 	0.695	0.97	0.4314	0.06
Mof_C 	C 	0.6149	0.0307	0.4667	0.097
Mof_C 	C 	0.6463	0.013	0.5038	-0.149
Mof_C 	C 	0.7091	0.9736	0.5022	0.064
Mof_C 	C 	0.7351	0.95	0.466	-0.116
Mof_C 	C 	0.8199	0.9095	0.4635	0.331
Mof_C 	C 	0.7227	0.7693	0.5793	0.307
Mof_C 	C 	0.8497	0.7451	0.5801	-0.109
Mof_C 	C 	0.9188	0.7572	0.607	0.039
Mof_C 	C 	0.0343	0.7361	0.6099	-0.122
Mof_C 	C 	0.0788	0.7021	0.5847	0.072
Mof_C 	C 	0.9041	0.7119	0.5555	0.051
Mof_C 	C 	0.8443	0.6942	0.5244	0.089
Mof_C 	C 	0.8058	0.6326	0.4998	0.103
Mof_C 	C 	0.7257	0.6532	0.4764	-0.186
Mof_C 	C 	0.7138	0.6955	0.4733	0.127
Mof_C 	C 	0.7733	0.7166	0.4966	-0.214
Mof_C 	C 	0.7728	0.7623	0.4889	0.565
Mof_C 	C 	0.3869	0.7262	0.409	-0.143
Mof_C 	C 	0.3958	0.6879	0.4303	0.101
Mof_C 	C 	0.3762	0.654	0.413	-0.201
Mof_C 	C 	0.3397	0.6599	0.3769	0.139
Mof_C 	C 	0.3523	0.7294	0.37	0.095
Mof_C 	C 	0.3516	0.7674	0.346	0.083
Mof_C 	C 	0.4315	0.7973	0.2865	0.079
Mof_C 	C 	0.3844	0.8375	0.2999	-0.13
Mof_C 	C 	0.3028	0.8404	0.3358	0.05
Mof_C 	C 	0.2803	0.8034	0.3596	-0.12
Mof_C 	C 	0.1826	0.8082	0.3994	0.363
Mof_C 	C 	0.4264	0.7612	0.429	0.37
Mof_C 	C 	0.0871	0.6231	0.9821	0.575
Mof_C 	C 	0.104	0.5891	0.9505	-0.225
Mof_C 	C 	0.0348	0.5579	0.9597	0.126
Mof_C 	C 	0.0534	0.5249	0.9333	-0.177
Mof_C 	C 	0.1577	0.5208	0.9016	0.1
Mof_C 	C 	0.1945	0.5848	0.9166	0.104
Mof_C 	C 	0.275	0.6163	0.8995	0.047
Mof_C 	C 	0.4718	0.6236	0.8696	0.072
Mof_C 	C 	0.4384	0.6639	0.8641	-0.133
Mof_C 	C 	0.3161	0.6816	0.877	0.047
Mof_C 	C 	0.2313	0.6583	0.8951	-0.122
Mof_C 	C 	0.1015	0.6777	0.9089	0.319
Mof_C 	C 	0.4226	0.6135	0.0787	0.323
Mof_C 	C 	0.4743	0.5897	0.1139	-0.114
Mof_C 	C 	0.4411	0.6061	0.1535	0.056
Mof_C 	C 	0.4724	0.5832	0.186	-0.143
Mof_C 	C 	0.5385	0.5428	0.1788	0.096
Mof_C 	C 	0.5481	0.5502	0.1084	0.051
Mof_C 	C 	0.5964	0.53	0.0686	0.06
Mof_C 	C 	0.6123	0.4693	0.0333	0.098
Mof_C 	C 	0.6631	0.487	0.9962	-0.149
Mof_C 	C 	0.6849	0.5264	0.9978	0.064
Mof_C 	C 	0.6511	0.55	0.034	-0.116
Mof_C 	C 	0.6929	0.5905	0.0365	0.331
Mof_C 	C 	0.5713	0.7307	0.9207	0.308
Mof_C 	C 	0.6749	0.7549	0.9199	-0.111
Mof_C 	C 	0.783	0.7428	0.893	0.043
Mof_C 	C 	0.8803	0.7639	0.8901	-0.126
Mof_C 	C 	0.8656	0.7979	0.9153	0.074
Mof_C 	C 	0.6715	0.7881	0.9445	0.053
Mof_C 	C 	0.5629	0.8058	0.9756	0.089
Mof_C 	C 	0.4382	0.8674	0.0002	0.103
Mof_C 	C 	0.3553	0.8468	0.0236	-0.186
Mof_C 	C 	0.3826	0.8045	0.0267	0.128
Mof_C 	C 	0.4865	0.7834	0.0034	-0.213
Mof_C 	C 	0.524	0.7377	0.0111	0.566
Mof_C 	C 	0.0221	0.7738	0.091	-0.141
Mof_C 	C 	0.014	0.8121	0.0697	0.105
Mof_C 	C 	0.9432	0.846	0.087	-0.206
Mof_C 	C 	0.8765	0.8401	0.1231	0.14
Mof_C 	C 	0.9517	0.7706	0.13	0.092
Mof_C 	C 	0.965	0.7326	0.154	0.082
Mof_C 	C 	0.0153	0.7027	0.2135	0.081
Mof_C 	C 	0.0218	0.6625	0.2001	-0.124
Mof_C 	C 	0.979	0.6596	0.1642	0.044
Mof_C 	C 	0.9433	0.6966	0.1404	-0.119
Mof_C 	C 	0.8902	0.6918	0.1006	0.363
Mof_C 	C 	0.1166	0.7388	0.071	0.37
Mof_C 	C 	0.9308	0.9821	0.8769	0.574
Mof_C 	C 	0.9455	0.9505	0.9109	-0.224
Mof_C 	C 	0.0055	0.9597	0.9421	0.122
Mof_C 	C 	0.0133	0.9333	0.9751	-0.172
Mof_C 	C 	0.9407	0.9016	0.9792	0.097
Mof_C 	C 	0.8889	0.9166	0.9152	0.103
Mof_C 	C 	0.8255	0.8995	0.8837	0.047
Mof_C 	C 	0.6586	0.8696	0.8764	0.072
Mof_C 	C 	0.6975	0.8641	0.8361	-0.134
Mof_C 	C 	0.8069	0.877	0.8184	0.047
Mof_C 	C 	0.8736	0.8951	0.8417	-0.122
Mof_C 	C 	0.9896	0.9089	0.8223	0.318
Mof_C 	C 	0.4987	0.0787	0.8865	0.323
Mof_C 	C 	0.4118	0.1139	0.9103	-0.114
Mof_C 	C 	0.4054	0.1535	0.8939	0.056
Mof_C 	C 	0.3416	0.186	0.9168	-0.143
Mof_C 	C 	0.2827	0.1788	0.9572	0.096
Mof_C 	C 	0.3435	0.1084	0.9498	0.051
Mof_C 	C 	0.335	0.0686	0.97	0.061
Mof_C 	C 	0.3544	0.0333	0.0307	0.098
Mof_C 	C 	0.3407	0.9962	0.013	-0.15
Mof_C 	C 	0.3173	0.9978	0.9736	0.065
Mof_C 	C 	0.3149	0.034	0.95	-0.116
Mof_C 	C 	0.2706	0.0365	0.9095	0.331
Mof_C 	C 	0.508	0.9207	0.7693	0.308
Mof_C 	C 	0.4052	0.9199	0.7451	-0.111
Mof_C 	C 	0.324	0.893	0.7572	0.043
Mof_C 	C 	0.2296	0.8901	0.7361	-0.126
Mof_C 	C 	0.2191	0.9153	0.7021	0.074
Mof_C 	C 	0.384	0.9445	0.7119	0.053
Mof_C 	C 	0.4615	0.9756	0.6942	0.089
Mof_C 	C 	0.5616	0.0002	0.6326	0.103
Mof_C 	C 	0.6211	0.0236	0.6532	-0.186
Mof_C 	C 	0.5907	0.0267	0.6955	0.128
Mof_C 	C 	0.5101	0.0034	0.7166	-0.213
Mof_C 	C 	0.4649	0.0111	0.7623	0.566
Mof_C 	C 	0.8869	0.091	0.7262	-0.14
Mof_C 	C 	0.9163	0.0697	0.6879	0.094
Mof_C 	C 	0.9698	0.087	0.654	-0.188
Mof_C 	C 	0.0004	0.1231	0.6599	0.126
Mof_C 	C 	0.9183	0.13	0.7294	0.094
Mof_C 	C 	0.881	0.154	0.7674	0.083
Mof_C 	C 	0.7712	0.2135	0.7973	0.079
Mof_C 	C 	0.7781	0.2001	0.8375	-0.129
Mof_C 	C 	0.8568	0.1642	0.8404	0.049
Mof_C 	C 	0.9163	0.1404	0.8034	-0.117
Mof_C 	C 	0.0092	0.1006	0.8082	0.36
Mof_C 	C 	0.8124	0.071	0.7612	0.369
Mof_C 	C 	0.2898	0.5179	0.6231	0.573
Mof_C 	C 	0.3069	0.5495	0.5891	-0.223
Mof_C 	C 	0.4073	0.5403	0.5579	0.123
Mof_C 	C 	0.4217	0.5667	0.5249	-0.174
Mof_C 	C 	0.3215	0.5984	0.5208	0.098
Mof_C 	C 	0.2207	0.5834	0.5848	0.104
Mof_C 	C 	0.1087	0.6005	0.6163	0.047
Mof_C 	C 	0.9046	0.6304	0.6236	0.071
Mof_C 	C 	0.8977	0.6359	0.6639	-0.132
Mof_C 	C 	0.0023	0.623	0.6816	0.045
Mof_C 	C 	0.1104	0.6049	0.6583	-0.121
Mof_C 	C 	0.2208	0.5911	0.6777	0.318
Mof_C 	C 	0.9639	0.4213	0.6135	0.325
Mof_C 	C 	0.936	0.3861	0.5897	-0.114
Mof_C 	C 	0.9528	0.3465	0.6061	0.057
Mof_C 	C 	0.9444	0.314	0.5832	-0.143
Mof_C 	C 	0.9187	0.3212	0.5428	0.097
Mof_C 	C 	0.9017	0.3916	0.5502	0.052
Mof_C 	C 	0.8736	0.4314	0.53	0.06
Mof_C 	C 	0.9184	0.4667	0.4693	0.098
Mof_C 	C 	0.8499	0.5038	0.487	-0.149
Mof_C 	C 	0.7887	0.5022	0.5264	0.064
Mof_C 	C 	0.7989	0.466	0.55	-0.116
Mof_C 	C 	0.7166	0.4635	0.5905	0.331
Mof_C 	C 	0.698	0.5793	0.7307	0.308
Mof_C 	C 	0.5702	0.5801	0.7549	-0.111
Mof_C 	C 	0.4742	0.607	0.7428	0.043
Mof_C 	C 	0.3558	0.6099	0.7639	-0.126
Mof_C 	C 	0.3365	0.5847	0.7979	0.074
Mof_C 	C 	0.5404	0.5555	0.7881	0.053
Mof_C 	C 	0.6313	0.5244	0.8058	0.089
Mof_C 	C 	0.6944	0.4998	0.8674	0.103
Mof_C 	C 	0.7979	0.4764	0.8468	-0.185
Mof_C 	C 	0.8129	0.4733	0.8045	0.127
Mof_C 	C 	0.7301	0.4966	0.7834	-0.213
Mof_C 	C 	0.7383	0.4889	0.7377	0.565
Mof_C 	C 	0.2041	0.409	0.7738	-0.143
Mof_C 	C 	0.1739	0.4303	0.8121	0.101
Mof_C 	C 	0.2108	0.413	0.846	-0.201
Mof_C 	C 	0.2834	0.3769	0.8401	0.139
Mof_C 	C 	0.2777	0.37	0.7706	0.094
Mof_C 	C 	0.3024	0.346	0.7326	0.083
Mof_C 	C 	0.282	0.2865	0.7027	0.079
Mof_C 	C 	0.3157	0.2999	0.6625	-0.13
Mof_C 	C 	0.3614	0.3358	0.6596	0.05
Mof_C 	C 	0.3601	0.3596	0.6966	-0.12
Mof_C 	C 	0.418	0.3994	0.6918	0.363
Mof_C 	C 	0.1446	0.429	0.7388	0.37
Mof_C 	C 	0.8077	0.1231	0.4821	0.572
Mof_C 	C 	0.8564	0.0891	0.4505	-0.223
Mof_C 	C 	0.9476	0.0579	0.4597	0.123
Mof_C 	C 	0.9884	0.0249	0.4333	-0.175
Mof_C 	C 	0.9199	0.0208	0.4016	0.099
Mof_C 	C 	0.8041	0.0848	0.4166	0.103
Mof_C 	C 	0.7092	0.1163	0.3995	0.047
Mof_C 	C 	0.535	0.1236	0.3696	0.072
Mof_C 	C 	0.5336	0.1639	0.3641	-0.134
Mof_C 	C 	0.6253	0.1816	0.377	0.047
Mof_C 	C 	0.7153	0.1583	0.3951	-0.122
Mof_C 	C 	0.8119	0.1777	0.4089	0.319
Mof_C 	C 	0.3852	0.1135	0.5787	0.323
Mof_C 	C 	0.3221	0.0897	0.6139	-0.114
Mof_C 	C 	0.2993	0.1061	0.6535	0.056
Mof_C 	C 	0.2584	0.0832	0.686	-0.143
Mof_C 	C 	0.2399	0.0428	0.6788	0.096
Mof_C 	C 	0.2933	0.0502	0.6084	0.051
Mof_C 	C 	0.305	0.03	0.5686	0.06
Mof_C 	C 	0.3851	0.9693	0.5333	0.097
Mof_C 	C 	0.3537	0.987	0.4962	-0.149
Mof_C 	C 	0.2909	0.0264	0.4978	0.064
Mof_C 	C 	0.2649	0.05	0.534	-0.116
Mof_C 	C 	0.1801	0.0905	0.5365	0.331
Mof_C 	C 	0.2773	0.2307	0.4207	0.307
Mof_C 	C 	0.1503	0.2549	0.4199	-0.109
Mof_C 	C 	0.0812	0.2428	0.393	0.039
Mof_C 	C 	0.9657	0.2639	0.3901	-0.122
Mof_C 	C 	0.9212	0.2979	0.4153	0.072
Mof_C 	C 	0.0959	0.2881	0.4445	0.051
Mof_C 	C 	0.1557	0.3058	0.4756	0.089
Mof_C 	C 	0.1942	0.3674	0.5002	0.103
Mof_C 	C 	0.2743	0.3468	0.5236	-0.186
Mof_C 	C 	0.2862	0.3045	0.5267	0.127
Mof_C 	C 	0.2267	0.2834	0.5034	-0.214
Mof_C 	C 	0.2272	0.2377	0.5111	0.565
Mof_C 	C 	0.6131	0.2738	0.591	-0.143
Mof_C 	C 	0.6042	0.3121	0.5697	0.101
Mof_C 	C 	0.6238	0.346	0.587	-0.201
Mof_C 	C 	0.6603	0.3401	0.6231	0.139
Mof_C 	C 	0.6477	0.2706	0.63	0.095
Mof_C 	C 	0.6484	0.2326	0.654	0.083
Mof_C 	C 	0.5685	0.2027	0.7135	0.079
Mof_C 	C 	0.6156	0.1625	0.7001	-0.13
Mof_C 	C 	0.6972	0.1596	0.6642	0.05
Mof_C 	C 	0.7197	0.1966	0.6404	-0.12
Mof_C 	C 	0.8174	0.1918	0.6006	0.363
Mof_C 	C 	0.5736	0.2388	0.571	0.37
Mof_C 	C 	0.9129	0.3769	0.0179	0.575
Mof_C 	C 	0.896	0.4109	0.0495	-0.225
Mof_C 	C 	0.9652	0.4421	0.0403	0.126
Mof_C 	C 	0.9466	0.4751	0.0667	-0.177
Mof_C 	C 	0.8423	0.4792	0.0984	0.1
Mof_C 	C 	0.8055	0.4152	0.0834	0.104
Mof_C 	C 	0.725	0.3837	0.1005	0.047
Mof_C 	C 	0.5282	0.3764	0.1304	0.072
Mof_C 	C 	0.5616	0.3361	0.1359	-0.133
Mof_C 	C 	0.6839	0.3184	0.123	0.047
Mof_C 	C 	0.7687	0.3417	0.1049	-0.122
Mof_C 	C 	0.8985	0.3223	0.0911	0.319
Mof_C 	C 	0.5774	0.3865	0.9213	0.323
Mof_C 	C 	0.5257	0.4103	0.8861	-0.114
Mof_C 	C 	0.5589	0.3939	0.8465	0.056
Mof_C 	C 	0.5276	0.4168	0.814	-0.143
Mof_C 	C 	0.4615	0.4572	0.8212	0.096
Mof_C 	C 	0.4519	0.4498	0.8916	0.051
Mof_C 	C 	0.4036	0.47	0.9314	0.06
Mof_C 	C 	0.3877	0.5307	0.9667	0.098
Mof_C 	C 	0.3369	0.513	0.0038	-0.149
Mof_C 	C 	0.3151	0.4736	0.0022	0.064
Mof_C 	C 	0.3489	0.45	0.966	-0.116
Mof_C 	C 	0.3071	0.4095	0.9635	0.331
Mof_C 	C 	0.4287	0.2693	0.0793	0.308
Mof_C 	C 	0.3251	0.2451	0.0801	-0.111
Mof_C 	C 	0.217	0.2572	0.107	0.043
Mof_C 	C 	0.1197	0.2361	0.1099	-0.126
Mof_C 	C 	0.1344	0.2021	0.0847	0.074
Mof_C 	C 	0.3285	0.2119	0.0555	0.053
Mof_C 	C 	0.4371	0.1942	0.0244	0.089
Mof_C 	C 	0.5618	0.1326	0.9998	0.103
Mof_C 	C 	0.6447	0.1532	0.9764	-0.186
Mof_C 	C 	0.6174	0.1955	0.9733	0.128
Mof_C 	C 	0.5135	0.2166	0.9966	-0.213
Mof_C 	C 	0.476	0.2623	0.9889	0.566
Mof_C 	C 	0.9779	0.2262	0.909	-0.141
Mof_C 	C 	0.986	0.1879	0.9303	0.105
Mof_C 	C 	0.0568	0.154	0.913	-0.206
Mof_C 	C 	0.1235	0.1599	0.8769	0.14
Mof_C 	C 	0.0483	0.2294	0.87	0.092
Mof_C 	C 	0.035	0.2674	0.846	0.082
Mof_C 	C 	0.9847	0.2973	0.7865	0.081
Mof_C 	C 	0.9782	0.3375	0.7999	-0.124
Mof_C 	C 	0.021	0.3404	0.8358	0.044
Mof_C 	C 	0.0567	0.3034	0.8596	-0.119
Mof_C 	C 	0.1098	0.3082	0.8994	0.363
Mof_C 	C 	0.8834	0.2612	0.929	0.37
Mof_N 	N 	0.1173	0.1068	0.0504	-0.249
Mof_N 	N 	0.2791	0.1128	0.099	-0.248
Mof_N 	N 	0.6463	0.9316	0.9902	-0.241
Mof_N 	N 	0.7147	0.8584	0.0272	-0.243
Mof_N 	N 	0.7058	0.0578	0.3096	-0.245
Mof_N 	N 	0.5176	0.0235	0.3477	-0.245
Mof_N 	N 	0.02	0.8534	0.3054	-0.131
Mof_N 	N 	0.1851	0.808	0.237	-0.121
Mof_N 	N 	0.7745	0.3932	0.4496	-0.249
Mof_N 	N 	0.9909	0.3872	0.401	-0.248
Mof_N 	N 	0.0681	0.5684	0.5098	-0.24
Mof_N 	N 	0.1003	0.6416	0.4728	-0.243
Mof_N 	N 	0.5732	0.4422	0.1904	-0.245
Mof_N 	N 	0.3888	0.4765	0.1523	-0.245
Mof_N 	N 	0.6788	0.6466	0.1946	-0.135
Mof_N 	N 	0.7301	0.692	0.263	-0.121
Mof_N 	N 	0.1677	0.9496	0.6068	-0.249
Mof_N 	N 	0.3781	0.901	0.6128	-0.248
Mof_N 	N 	0.6365	0.0098	0.4316	-0.24
Mof_N 	N 	0.7419	0.9728	0.3584	-0.243
Mof_N 	N 	0.0154	0.6904	0.5578	-0.243
Mof_N 	N 	0.8653	0.6523	0.5235	-0.245
Mof_N 	N 	0.3254	0.6946	0.3534	-0.134
Mof_N 	N 	0.4221	0.763	0.308	-0.121
Mof_N 	N 	0.2241	0.5504	0.8932	-0.249
Mof_N 	N 	0.3919	0.599	0.8872	-0.248
Mof_N 	N 	0.5779	0.4902	0.0684	-0.241
Mof_N 	N 	0.5731	0.5272	0.1416	-0.243
Mof_N 	N 	0.7636	0.8096	0.9422	-0.245
Mof_N 	N 	0.5411	0.8477	0.9765	-0.245
Mof_N 	N 	0.8734	0.8054	0.1466	-0.135
Mof_N 	N 	0.9931	0.737	0.192	-0.123
Mof_N 	N 	0.8827	0.8932	0.9496	-0.249
Mof_N 	N 	0.7209	0.8872	0.901	-0.248
Mof_N 	N 	0.3537	0.0684	0.0098	-0.241
Mof_N 	N 	0.2853	0.1416	0.9728	-0.243
Mof_N 	N 	0.2942	0.9422	0.6904	-0.245
Mof_N 	N 	0.4824	0.9765	0.6523	-0.245
Mof_N 	N 	0.98	0.1466	0.6946	-0.131
Mof_N 	N 	0.8149	0.192	0.763	-0.121
Mof_N 	N 	0.2255	0.6068	0.5504	-0.249
Mof_N 	N 	0.0091	0.6128	0.599	-0.248
Mof_N 	N 	0.9319	0.4316	0.4902	-0.24
Mof_N 	N 	0.8997	0.3584	0.5272	-0.243
Mof_N 	N 	0.4268	0.5578	0.8096	-0.245
Mof_N 	N 	0.6112	0.5235	0.8477	-0.245
Mof_N 	N 	0.3212	0.3534	0.8054	-0.135
Mof_N 	N 	0.2699	0.308	0.737	-0.121
Mof_N 	N 	0.8323	0.0504	0.3932	-0.249
Mof_N 	N 	0.6219	0.099	0.3872	-0.248
Mof_N 	N 	0.3635	0.9902	0.5684	-0.24
Mof_N 	N 	0.2581	0.0272	0.6416	-0.243
Mof_N 	N 	0.9846	0.3096	0.4422	-0.243
Mof_N 	N 	0.1347	0.3477	0.4765	-0.245
Mof_N 	N 	0.6746	0.3054	0.6466	-0.134
Mof_N 	N 	0.5779	0.237	0.692	-0.121
Mof_N 	N 	0.7759	0.4496	0.1068	-0.249
Mof_N 	N 	0.6081	0.401	0.1128	-0.248
Mof_N 	N 	0.4221	0.5098	0.9316	-0.241
Mof_N 	N 	0.4269	0.4728	0.8584	-0.243
Mof_N 	N 	0.2364	0.1904	0.0578	-0.245
Mof_N 	N 	0.4589	0.1523	0.0235	-0.245
Mof_N 	N 	0.1266	0.1946	0.8534	-0.135
Mof_N 	N 	0.0069	0.263	0.808	-0.123
Mof_O 	O 	0.48858	0.91723	0.15341	-0.479
Mof_O 	O 	0.4447	0.9493	0.0965	-0.43
Mof_O 	O 	0.831	0.9427	0.0937	-0.408
Mof_O 	O 	0.66443	0.98607	0.11967	-0.478
Mof_O 	O 	0.98788	0.9967	0.13194	-0.617
Mof_O 	O 	0.16628	0.01514	0.1379	-0.621
Mof_O 	O 	0.91781	0.10003	0.16055	-0.268
Mof_O 	O 	0.01176	0.07202	0.21086	-0.294
Mof_O 	O 	0.52203	0.07769	0.19185	-0.288
Mof_O 	O 	0.38682	0.07867	0.25009	-0.267
Mof_O 	O 	0.64398	0.99283	0.22521	-0.614
Mof_O 	O 	0.46291	0.97763	0.21735	-0.618
Mof_O 	O 	0.1337	0.9601	0.2235	-0.516
Mof_O 	O 	0.2958	0.9146	0.226	-0.444
Mof_O 	O 	0.9939	0.9132	0.1578	-0.497
Mof_O 	O 	0.9064	0.911	0.2216	-0.432
Mof_O 	O 	0.05922	0.58277	0.34659	-0.478
Mof_O 	O 	0.9905	0.5507	0.4035	-0.432
Mof_O 	O 	0.3674	0.5573	0.4063	-0.408
Mof_O 	O 	0.27017	0.51393	0.38033	-0.477
Mof_O 	O 	0.61652	0.5033	0.36806	-0.616
Mof_O 	O 	0.81932	0.48486	0.3621	-0.62
Mof_O 	O 	0.67839	0.39997	0.33945	-0.269
Mof_O 	O 	0.79464	0.42798	0.28914	-0.294
Mof_O 	O 	0.29157	0.42231	0.30815	-0.288
Mof_O 	O 	0.21558	0.42133	0.24991	-0.267
Mof_O 	O 	0.36202	0.50717	0.27479	-0.614
Mof_O 	O 	0.15789	0.52237	0.28265	-0.617
Mof_O 	O 	0.8173	0.5399	0.2765	-0.517
Mof_O 	O 	0.9364	0.5854	0.274	-0.445
Mof_O 	O 	0.5649	0.5868	0.3422	-0.497
Mof_O 	O 	0.539	0.589	0.2784	-0.432
Mof_O 	O 	0.64199	0.84659	0.41723	-0.479
Mof_O 	O 	0.5412	0.9035	0.4493	-0.43
Mof_O 	O 	0.9247	0.9063	0.4427	-0.408
Mof_O 	O 	0.7841	0.88033	0.48607	-0.477
Mof_O 	O 	0.11982	0.86806	0.4967	-0.614
Mof_O 	O 	0.30418	0.8621	0.51514	-0.62
Mof_O 	O 	0.07836	0.83945	0.60003	-0.268
Mof_O 	O 	0.22262	0.78914	0.57202	-0.293
Mof_O 	O 	0.71388	0.80815	0.57769	-0.288
Mof_O 	O 	0.63691	0.74991	0.57867	-0.267
Mof_O 	O 	0.86919	0.77479	0.49283	-0.614
Mof_O 	O 	0.68026	0.78265	0.47763	-0.618
Mof_O 	O 	0.3572	0.7765	0.4601	-0.517
Mof_O 	O 	0.5218	0.774	0.4146	-0.444
Mof_O 	O 	0.1517	0.8422	0.4132	-0.495
Mof_O 	O 	0.128	0.7784	0.411	-0.43
Mof_O 	O 	0.40581	0.65341	0.08277	-0.479
Mof_O 	O 	0.394	0.5965	0.0507	-0.43
Mof_O 	O 	0.7737	0.5937	0.0573	-0.408
Mof_O 	O 	0.6505	0.61967	0.01393	-0.477
Mof_O 	O 	0.98458	0.63194	0.0033	-0.617
Mof_O 	O 	0.18142	0.6379	0.98486	-0.621
Mof_O 	O 	0.01784	0.66055	0.89997	-0.268
Mof_O 	O 	0.08378	0.71086	0.92798	-0.293
Mof_O 	O 	0.59972	0.69185	0.92231	-0.288
Mof_O 	O 	0.46549	0.75009	0.92133	-0.267
Mof_O 	O 	0.63681	0.72521	0.00717	-0.614
Mof_O 	O 	0.44054	0.71735	0.02237	-0.618
Mof_O 	O 	0.0938	0.7235	0.0399	-0.517
Mof_O 	O 	0.2104	0.726	0.0854	-0.444
Mof_O 	O 	0.9071	0.6578	0.0868	-0.497
Mof_O 	O 	0.8174	0.7216	0.089	-0.432
Mof_O 	O 	0.51142	0.08277	0.84659	-0.479
Mof_O 	O 	0.5553	0.0507	0.9035	-0.43
Mof_O 	O 	0.169	0.0573	0.9063	-0.408
Mof_O 	O 	0.33557	0.01393	0.88033	-0.478
Mof_O 	O 	0.01212	0.0033	0.86806	-0.617
Mof_O 	O 	0.83372	0.98486	0.8621	-0.621
Mof_O 	O 	0.08219	0.89997	0.83945	-0.268
Mof_O 	O 	0.98824	0.92798	0.78914	-0.294
Mof_O 	O 	0.47797	0.92231	0.80815	-0.288
Mof_O 	O 	0.61318	0.92133	0.74991	-0.267
Mof_O 	O 	0.35602	0.00717	0.77479	-0.614
Mof_O 	O 	0.53709	0.02237	0.78265	-0.618
Mof_O 	O 	0.8663	0.0399	0.7765	-0.516
Mof_O 	O 	0.7042	0.0854	0.774	-0.444
Mof_O 	O 	0.0061	0.0868	0.8422	-0.497
Mof_O 	O 	0.0936	0.089	0.7784	-0.432
Mof_O 	O 	0.94078	0.41723	0.65341	-0.478
Mof_O 	O 	0.0095	0.4493	0.5965	-0.432
Mof_O 	O 	0.6326	0.4427	0.5937	-0.408
Mof_O 	O 	0.72983	0.48607	0.61967	-0.477
Mof_O 	O 	0.38348	0.4967	0.63194	-0.616
Mof_O 	O 	0.18068	0.51514	0.6379	-0.62
Mof_O 	O 	0.32161	0.60003	0.66055	-0.269
Mof_O 	O 	0.20536	0.57202	0.71086	-0.294
Mof_O 	O 	0.70843	0.57769	0.69185	-0.288
Mof_O 	O 	0.78442	0.57867	0.75009	-0.267
Mof_O 	O 	0.63798	0.49283	0.72521	-0.614
Mof_O 	O 	0.84211	0.47763	0.71735	-0.617
Mof_O 	O 	0.1827	0.4601	0.7235	-0.517
Mof_O 	O 	0.0636	0.4146	0.726	-0.445
Mof_O 	O 	0.4351	0.4132	0.6578	-0.497
Mof_O 	O 	0.461	0.411	0.7216	-0.432
Mof_O 	O 	0.35801	0.15341	0.58277	-0.479
Mof_O 	O 	0.4588	0.0965	0.5507	-0.43
Mof_O 	O 	0.0753	0.0937	0.5573	-0.408
Mof_O 	O 	0.2159	0.11967	0.51393	-0.477
Mof_O 	O 	0.88018	0.13194	0.5033	-0.614
Mof_O 	O 	0.69582	0.1379	0.48486	-0.62
Mof_O 	O 	0.92164	0.16055	0.39997	-0.268
Mof_O 	O 	0.77738	0.21086	0.42798	-0.293
Mof_O 	O 	0.28612	0.19185	0.42231	-0.288
Mof_O 	O 	0.36309	0.25009	0.42133	-0.267
Mof_O 	O 	0.13081	0.22521	0.50717	-0.614
Mof_O 	O 	0.31974	0.21735	0.52237	-0.618
Mof_O 	O 	0.6428	0.2235	0.5399	-0.517
Mof_O 	O 	0.4782	0.226	0.5854	-0.444
Mof_O 	O 	0.8483	0.1578	0.5868	-0.495
Mof_O 	O 	0.872	0.2216	0.589	-0.43
Mof_O 	O 	0.59419	0.34659	0.91723	-0.479
Mof_O 	O 	0.606	0.4035	0.9493	-0.43
Mof_O 	O 	0.2263	0.4063	0.9427	-0.408
Mof_O 	O 	0.3495	0.38033	0.98607	-0.477
Mof_O 	O 	0.01542	0.36806	0.9967	-0.617
Mof_O 	O 	0.81858	0.3621	0.01514	-0.621
Mof_O 	O 	0.98216	0.33945	0.10003	-0.268
Mof_O 	O 	0.91622	0.28914	0.07202	-0.293
Mof_O 	O 	0.40028	0.30815	0.07769	-0.288
Mof_O 	O 	0.53451	0.24991	0.07867	-0.267
Mof_O 	O 	0.36319	0.27479	0.99283	-0.614
Mof_O 	O 	0.55946	0.28265	0.97763	-0.618
Mof_O 	O 	0.9062	0.2765	0.9601	-0.517
Mof_O 	O 	0.7896	0.274	0.9146	-0.444
Mof_O 	O 	0.0929	0.3422	0.9132	-0.497
Mof_O 	O 	0.1826	0.2784	0.911	-0.432
_end
