data_functionalizedCrystal
_audit_creation_method	'EQeq! by Chris Wilmer'
_symmetry_space_group_name_H-M	'P1'
_symmetry_Int_Tables_number	1
_symmetry_cell_setting	triclinic
loop_
_symmetry_equiv_pos_as_xyz
  x,y,z
_cell_length_a	8.694
_cell_length_b	11.212
_cell_length_c	13.483
_cell_angle_alpha	90
_cell_angle_beta	90
_cell_angle_gamma	90
loop_
_atom_site_label
_atom_site_type_symbol
_atom_site_fract_x
_atom_site_fract_y
_atom_site_fract_z
_atom_site_charge
Mof_Cd	Cd	-0	0.76624	-0	0.341
Mof_Cd	Cd	0.5	0.23376	0.5	0.389
Mof_Cd	Cd	0.5	0.06788	0.10077	0.273
Mof_Cd	Cd	0.5	0.48572	0.86754	0.278
Mof_Cd	Cd	3.49331e-33	0.93212	0.60077	0.26
Mof_Cd	Cd	-7.46639e-33	0.51428	0.36754	0.249
Mof_C 	C 	0.7073	0.9608	0.0612	0.005
Mof_C 	C 	0.7067	0.58	0.9183	0.011
Mof_C 	C 	0.7927	0.0392	0.5612	0.024
Mof_C 	C 	0.7933	0.42	0.4183	0.026
Mof_C 	C 	0.2073	0.0392	0.5612	-0.01
Mof_C 	C 	0.2067	0.42	0.4183	-0.01
Mof_C 	C 	0.2927	0.9608	0.0612	-0.007
Mof_C 	C 	0.2933	0.58	0.9183	-0.001
Mof_C 	C 	4.40756e-33	0.8765	0.758	-0.012
Mof_C 	C 	-8.26092e-33	0.6235	0.2309	-0.02
Mof_C 	C 	0.5	0.1235	0.258	-0.006
Mof_C 	C 	0.5	0.3765	0.7309	-0.001
Mof_C 	C 	0.5	0.2391	0.0173	-0.112
Mof_C 	C 	0.5	0.3272	0.9757	-0.006
Mof_C 	C 	3.00795e-33	0.7609	0.5173	-0.073
Mof_C 	C 	1.23696e-32	0.6728	0.4757	-0.061
Mof_N 	N 	0.8077	0.8992	0.0419	-0.12
Mof_N 	N 	0.8075	0.6321	0.9493	-0.108
Mof_N 	N 	0.6923	0.1008	0.5419	-0.133
Mof_N 	N 	0.6925	0.3679	0.4493	-0.133
Mof_N 	N 	0.3077	0.1008	0.5419	-0.132
Mof_N 	N 	0.3075	0.3679	0.4493	-0.131
Mof_N 	N 	0.1923	0.8992	0.0419	-0.137
Mof_N 	N 	0.1925	0.6321	0.9493	-0.123
Mof_N 	N 	4.87448e-33	0.8421	0.8383	-0.126
Mof_N 	N 	-3.8813e-33	0.6775	0.1583	-0.137
Mof_N 	N 	0.5	0.1579	0.3383	-0.129
Mof_N 	N 	0.5	0.3225	0.6583	-0.128
_end
