# CIF file generated by openbabel 3.1.0, see https://openbabel.org
data_I
_chemical_name_common 'PARHAS_clean'
_cell_length_a 7.779
_cell_length_b 14.855
_cell_length_c 15.339
_cell_angle_alpha 90
_cell_angle_beta 90
_cell_angle_gamma 98.631
_space_group_name_H-M_alt 'P 1'
_space_group_name_Hall 'P 1'
loop_
    _symmetry_equiv_pos_as_xyz
    x,y,z
loop_
    _atom_site_label
    _atom_site_type_symbol
    _atom_site_fract_x
    _atom_site_fract_y
    _atom_site_fract_z
    _atom_site_occupancy
    Ca1      Ca       0.54889    0.22053    0.71929    1.000
    Ca2      Ca       0.95111    0.77947    0.21929    1.000
    Ca3      Ca       0.45111    0.77947    0.28071    1.000
    Ca4      Ca       0.04889    0.22053    0.78071    1.000
    H1       H        0.77250    0.04290    0.94670    1.000
    H2       H        0.76170    0.13900    0.98590    1.000
    H3       H        0.53870    0.91220    0.98250    1.000
    H4       H        0.40890    0.95960    0.92720    1.000
    H5       H        0.30040    0.37890    0.95830    1.000
    H6       H        0.46170    0.34290    0.99890    1.000
    H7       H        0.48640    0.51110    0.90870    1.000
    H8       H        0.64380    0.47550    0.95400    1.000
    H9       H        0.72750    0.95710    0.44670    1.000
    H10      H        0.73830    0.86100    0.48590    1.000
    H11      H        0.96130    0.08780    0.48250    1.000
    H12      H        0.09110    0.04040    0.42720    1.000
    H13      H        0.19960    0.62110    0.45830    1.000
    H14      H        0.03830    0.65710    0.49890    1.000
    H15      H        0.01360    0.48890    0.40870    1.000
    H16      H        0.85620    0.52450    0.45400    1.000
    H17      H        0.22750    0.95710    0.05330    1.000
    H18      H        0.23830    0.86100    0.01410    1.000
    H19      H        0.46130    0.08780    0.01750    1.000
    H20      H        0.59110    0.04040    0.07280    1.000
    H21      H        0.69960    0.62110    0.04170    1.000
    H22      H        0.53830    0.65710    0.00110    1.000
    H23      H        0.51360    0.48890    0.09130    1.000
    H24      H        0.35620    0.52450    0.04600    1.000
    H25      H        0.27250    0.04290    0.55330    1.000
    H26      H        0.26170    0.13900    0.51410    1.000
    H27      H        0.03870    0.91220    0.51750    1.000
    H28      H        0.90890    0.95960    0.57280    1.000
    H29      H        0.80040    0.37890    0.54170    1.000
    H30      H        0.96170    0.34290    0.50110    1.000
    H31      H        0.98640    0.51110    0.59130    1.000
    H32      H        0.14380    0.47550    0.54600    1.000
    C1       C        0.64660    0.12021    0.86813    1.000
    C2       C        0.69570    0.08792    0.95540    1.000
    C3       C        0.54600    0.04619    0.01448    1.000
    C4       C        0.45410    0.33156    0.86628    1.000
    C5       C        0.42410    0.37821    0.95130    1.000
    C6       C        0.51960    0.47632    0.95780    1.000
    C7       C        0.85340    0.87979    0.36813    1.000
    C8       C        0.80430    0.91208    0.45540    1.000
    C9       C        0.95400    0.95381    0.51448    1.000
    C10      C        0.04590    0.66844    0.36628    1.000
    C11      C        0.07590    0.62179    0.45130    1.000
    C12      C        0.98040    0.52368    0.45780    1.000
    C13      C        0.35340    0.87979    0.13187    1.000
    C14      C        0.30430    0.91208    0.04460    1.000
    C15      C        0.45400    0.95381    0.98552    1.000
    C16      C        0.54590    0.66844    0.13372    1.000
    C17      C        0.57590    0.62179    0.04870    1.000
    C18      C        0.48040    0.52368    0.04220    1.000
    C19      C        0.14660    0.12021    0.63187    1.000
    C20      C        0.19570    0.08792    0.54460    1.000
    C21      C        0.04600    0.04619    0.48552    1.000
    C22      C        0.95410    0.33156    0.63372    1.000
    C23      C        0.92410    0.37821    0.54870    1.000
    C24      C        0.01960    0.47632    0.54220    1.000
    O1       O        0.76640    0.15002    0.81530    1.000
    O2       O        0.48930    0.11907    0.84772    1.000
    O3       O        0.60910    0.33040    0.84180    1.000
    O4       O        0.32740    0.29559    0.82138    1.000
    O5       O        0.73360    0.84998    0.31530    1.000
    O6       O        0.01070    0.88093    0.34772    1.000
    O7       O        0.89090    0.66960    0.34180    1.000
    O8       O        0.17260    0.70441    0.32138    1.000
    O9       O        0.23360    0.84998    0.18470    1.000
    O10      O        0.51070    0.88093    0.15228    1.000
    O11      O        0.39090    0.66960    0.15820    1.000
    O12      O        0.67260    0.70441    0.17862    1.000
    O13      O        0.26640    0.15002    0.68470    1.000
    O14      O        0.98930    0.11907    0.65228    1.000
    O15      O        0.10910    0.33040    0.65820    1.000
    O16      O        0.82740    0.29559    0.67862    1.000
