data_functionalizedCrystal
_audit_creation_method	'EQeq! by Chris Wilmer'
_symmetry_space_group_name_H-M	'P1'
_symmetry_Int_Tables_number	1
_symmetry_cell_setting	triclinic
loop_
_symmetry_equiv_pos_as_xyz
  x,y,z
_cell_length_a	7.9974
_cell_length_b	10.3744
_cell_length_c	12.6106
_cell_angle_alpha	90.316
_cell_angle_beta	90.311
_cell_angle_gamma	107.047
loop_
_atom_site_label
_atom_site_type_symbol
_atom_site_fract_x
_atom_site_fract_y
_atom_site_fract_z
_atom_site_charge
Mof_Zn	Zn	0.55635	0.21007	0.76248	1.206
Mof_Zn	Zn	0.1776	0.12851	0.94333	1.228
Mof_Zn	Zn	0.44365	0.78993	0.23752	1.206
Mof_Zn	Zn	0.8224	0.87149	0.05667	1.228
Mof_H 	H 	0.9718	0.0855	0.6541	0.027
Mof_H 	H 	0.8579	0.0425	0.487	0.083
Mof_H 	H 	0.5583	0.5991	0.7534	0.058
Mof_H 	H 	0.4407	0.7658	0.6007	0.08
Mof_H 	H 	0.7798	0.4653	0.0058	0.045
Mof_H 	H 	0.4417	0.4009	0.2466	0.058
Mof_H 	H 	0.7607	0.2402	0.005	0.029
Mof_H 	H 	0.2202	0.5347	0.9942	0.045
Mof_H 	H 	0.5593	0.2342	0.3993	0.08
Mof_H 	H 	0.2393	0.7598	0.995	0.029
Mof_H 	H 	0.0282	0.9145	0.3459	0.026
Mof_H 	H 	0.1421	0.9575	0.513	0.082
Mof_C 	C 	0.1351	0.9797	0.3562	0.039
Mof_C 	C 	0.1408	0.0251	0.1623	0.41
Mof_C 	C 	0.2915	0.5928	0.9459	-0.031
Mof_C 	C 	0.6117	0.8518	0.7151	0.066
Mof_C 	C 	0.2239	0.0494	0.2686	-0.15
Mof_C 	C 	0.7085	0.4072	0.0541	-0.031
Mof_C 	C 	0.5053	0.3671	0.1979	-0.035
Mof_C 	C 	0.4051	0.8161	0.8735	-0.111
Mof_C 	C 	0.5949	0.1839	0.1265	-0.111
Mof_C 	C 	0.5795	0.8613	0.4145	0.307
Mof_C 	C 	0.3027	0.7272	0.9454	-0.013
Mof_C 	C 	0.3583	0.1019	0.4735	-0.016
Mof_C 	C 	0.4947	0.6329	0.8021	-0.035
Mof_C 	C 	0.6973	0.2728	0.0546	-0.013
Mof_C 	C 	0.611	0.4547	0.127	-0.082
Mof_C 	C 	0.4513	0.1709	0.3872	-0.089
Mof_C 	C 	0.5487	0.8291	0.6128	-0.089
Mof_C 	C 	0.3883	0.1482	0.2849	0.066
Mof_C 	C 	0.7973	0.9943	0.5439	-0.093
Mof_C 	C 	0.5096	0.7695	0.8009	0.03
Mof_C 	C 	0.8649	0.0203	0.6438	0.039
Mof_C 	C 	0.6003	0.0386	0.1232	0.42
Mof_C 	C 	0.4205	0.1387	0.5855	0.307
Mof_C 	C 	0.6417	0.8981	0.5265	-0.016
Mof_C 	C 	0.8592	0.9749	0.8377	0.41
Mof_C 	C 	0.3997	0.9614	0.8768	0.42
Mof_C 	C 	0.3792	0.3982	0.8666	0.416
Mof_C 	C 	0.389	0.5453	0.873	-0.082
Mof_C 	C 	0.4904	0.2305	0.1991	0.03
Mof_C 	C 	0.7761	0.9506	0.7314	-0.15
Mof_C 	C 	0.2027	0.0057	0.4561	-0.093
Mof_C 	C 	0.6208	0.6018	0.1334	0.416
Mof_O 	O 	0.3326	0.0882	0.6626	-0.393
Mof_O 	O 	0.0412	0.9077	0.141	-0.484
Mof_O 	O 	0.9588	0.0923	0.859	-0.484
Mof_O 	O 	0.2675	0.3205	0.9259	-0.499
Mof_O 	O 	0.8313	0.8792	0.9013	-0.479
Mof_O 	O 	0.6674	0.9118	0.3374	-0.393
Mof_O 	O 	0.5702	0.2196	0.6003	-0.424
Mof_O 	O 	0.4298	0.7804	0.3997	-0.424
Mof_O 	O 	0.5375	0.0532	0.8536	-0.509
Mof_O 	O 	0.7416	0.0228	0.0955	-0.509
Mof_O 	O 	0.4625	0.9468	0.1464	-0.509
Mof_O 	O 	0.2584	0.9772	0.9045	-0.509
Mof_O 	O 	0.7325	0.6795	0.0741	-0.499
Mof_O 	O 	0.4821	0.3639	0.8068	-0.526
Mof_O 	O 	0.1687	0.1208	0.0987	-0.479
Mof_O 	O 	0.5179	0.6361	0.1932	-0.526
_end
