data_functionalizedCrystal
_audit_creation_method	'EQeq! by Chris Wilmer'
_symmetry_space_group_name_H-M	'P1'
_symmetry_Int_Tables_number	1
_symmetry_cell_setting	triclinic
loop_
_symmetry_equiv_pos_as_xyz
  x,y,z
_cell_length_a	16.2717
_cell_length_b	12.6684
_cell_length_c	17.6021
_cell_angle_alpha	90
_cell_angle_beta	112.523
_cell_angle_gamma	90
loop_
_atom_site_label
_atom_site_type_symbol
_atom_site_fract_x
_atom_site_fract_y
_atom_site_fract_z
_atom_site_charge
Mof_Cu	Cu	0.52528	0.17199	0.45094	0.792
Mof_Cu	Cu	0.61366	0.10409	0.36708	0.79
Mof_Cu	Cu	0.08008	0.11289	0.44143	0.804
Mof_N 	N 	0.18722	0.0997	0.4255	-0.3
Mof_N 	N 	0.42786	0.07895	0.39037	-0.299
Mof_N 	N 	0.50737	0.0155	0.31539	-0.29
Mof_N 	N 	0.49599	0.8052	0.12662	-0.265
Mof_N 	N 	0.62327	0.3129	0.76267	-0.245
Mof_N 	N 	0.63614	0.19378	0.5433	-0.291
Mof_N 	N 	0.71772	0.14	0.46713	-0.293
Mof_N 	N 	0.96771	0.1193	0.44932	-0.301
Mof_C 	C 	0.2665	0.119	0.4854	0.111
Mof_H 	H 	0.2677	0.1388	0.5367	-0.068
Mof_C 	C 	0.34598	0.1113	0.4757	-0.258
Mof_H 	H 	0.399	0.1259	0.5196	0.055
Mof_C 	C 	0.34728	0.0815	0.40006	0.151
Mof_C 	C 	0.26441	0.0614	0.33711	-0.22
Mof_H 	H 	0.261	0.0419	0.2851	0.093
Mof_C 	C 	0.1886	0.0706	0.3527	0.107
Mof_H 	H 	0.1345	0.0558	0.3101	-0.061
Mof_C 	C 	0.43456	0.0197	0.33138	0.053
Mof_H 	H 	0.3859	0.979	0.2997	0.007
Mof_C 	C 	0.568	0.8128	0.19635	0.088
Mof_H 	H 	0.6161	0.7687	0.2033	-0.033
Mof_C 	C 	0.57451	0.8829	0.25867	-0.209
Mof_H 	H 	0.6265	0.8866	0.3056	0.059
Mof_C 	C 	0.50264	0.9477	0.25057	0.138
Mof_C 	C 	0.42806	0.9409	0.17683	-0.191
Mof_H 	H 	0.379	0.9841	0.1678	0.083
Mof_C 	C 	0.4279	0.8697	0.11785	0.075
Mof_H 	H 	0.3778	0.8662	0.0692	-0.033
Mof_C 	C 	0.55639	0.3192	0.68995	0.107
Mof_H 	H 	0.5042	0.3517	0.6874	-0.032
Mof_C 	C 	0.55963	0.2804	0.61776	-0.214
Mof_H 	H 	0.5105	0.2878	0.5687	0.05
Mof_C 	C 	0.63553	0.2307	0.61806	0.145
Mof_C 	C 	0.70551	0.2204	0.69493	-0.201
Mof_H 	H 	0.7578	0.1861	0.6998	0.087
Mof_C 	C 	0.69561	0.2621	0.7633	0.099
Mof_H 	H 	0.7428	0.2543	0.8137	-0.026
Mof_C 	C 	0.71255	0.1774	0.53589	0.069
Mof_H 	H 	0.765	0.1925	0.5804	-0.006
Mof_C 	C 	0.9002	0.0591	0.4061	0.095
Mof_H 	H 	0.9085	0.0107	0.3699	-0.063
Mof_C 	C 	0.81767	0.0635	0.41124	-0.257
Mof_H 	H 	0.7724	0.0189	0.3789	0.058
Mof_C 	C 	0.802	0.1345	0.46462	0.149
Mof_C 	C 	0.8727	0.1994	0.5091	-0.228
Mof_H 	H 	0.8658	0.2507	0.544	0.09
Mof_C 	C 	0.9537	0.1875	0.5014	0.091
Mof_H 	H 	0.001	0.2292	0.5342	-0.062
Mof_Cu	Cu	0.47472	0.67199	0.04906	0.791
Mof_Cu	Cu	0.38634	0.60409	0.13292	0.789
Mof_Cu	Cu	0.91992	0.61289	0.05857	0.804
Mof_N 	N 	0.81278	0.5997	0.0745	-0.299
Mof_N 	N 	0.57214	0.57895	0.10963	-0.299
Mof_N 	N 	0.49263	0.5155	0.18461	-0.29
Mof_N 	N 	0.50401	0.3052	0.37338	-0.265
Mof_N 	N 	0.37673	0.8129	0.73733	-0.245
Mof_N 	N 	0.36386	0.69378	0.9567	-0.291
Mof_N 	N 	0.28228	0.64	0.03287	-0.292
Mof_N 	N 	0.03229	0.6193	0.05068	-0.299
Mof_C 	C 	0.7335	0.619	0.0146	0.108
Mof_H 	H 	0.7323	0.6388	0.9633	-0.066
Mof_C 	C 	0.65402	0.6113	0.0243	-0.258
Mof_H 	H 	0.601	0.6259	0.9804	0.056
Mof_C 	C 	0.65272	0.5815	0.09994	0.151
Mof_C 	C 	0.73559	0.5614	0.16289	-0.22
Mof_H 	H 	0.739	0.5419	0.2149	0.093
Mof_C 	C 	0.8114	0.5706	0.1473	0.107
Mof_H 	H 	0.8655	0.5558	0.1899	-0.061
Mof_C 	C 	0.56544	0.5197	0.16862	0.053
Mof_H 	H 	0.6141	0.479	0.2003	0.007
Mof_C 	C 	0.432	0.3128	0.30365	0.089
Mof_H 	H 	0.3839	0.2687	0.2967	-0.033
Mof_C 	C 	0.42549	0.3829	0.24133	-0.21
Mof_H 	H 	0.3735	0.3866	0.1944	0.06
Mof_C 	C 	0.49736	0.4477	0.24943	0.139
Mof_C 	C 	0.57194	0.4409	0.32317	-0.191
Mof_H 	H 	0.621	0.4841	0.3322	0.084
Mof_C 	C 	0.5721	0.3697	0.38215	0.075
Mof_H 	H 	0.6222	0.3662	0.4308	-0.034
Mof_C 	C 	0.44361	0.8192	0.81005	0.107
Mof_H 	H 	0.4958	0.8517	0.8126	-0.032
Mof_C 	C 	0.44037	0.7804	0.88224	-0.214
Mof_H 	H 	0.4895	0.7878	0.9313	0.051
Mof_C 	C 	0.36447	0.7307	0.88194	0.145
Mof_C 	C 	0.29449	0.7204	0.80507	-0.201
Mof_H 	H 	0.2422	0.6861	0.8002	0.087
Mof_C 	C 	0.30439	0.7621	0.7367	0.099
Mof_H 	H 	0.2572	0.7543	0.6863	-0.027
Mof_C 	C 	0.28745	0.6774	0.96411	0.068
Mof_H 	H 	0.235	0.6925	0.9196	-0.006
Mof_C 	C 	0.0998	0.5591	0.0939	0.095
Mof_H 	H 	0.0915	0.5107	0.1301	-0.063
Mof_C 	C 	0.18233	0.5635	0.08876	-0.256
Mof_H 	H 	0.2276	0.5189	0.1211	0.057
Mof_C 	C 	0.198	0.6345	0.03538	0.149
Mof_C 	C 	0.1273	0.6994	0.9909	-0.225
Mof_H 	H 	0.1342	0.7507	0.956	0.089
Mof_C 	C 	0.0463	0.6875	0.9986	0.081
Mof_H 	H 	0.999	0.7292	0.9658	-0.056
Mof_Cu	Cu	0.47472	0.82801	0.54906	0.791
Mof_Cu	Cu	0.38634	0.89591	0.63292	0.789
Mof_Cu	Cu	0.91992	0.88711	0.55857	0.804
Mof_N 	N 	0.81278	0.9003	0.5745	-0.3
Mof_N 	N 	0.57214	0.92105	0.60963	-0.299
Mof_N 	N 	0.49263	0.9845	0.68461	-0.29
Mof_N 	N 	0.50401	0.1948	0.87338	-0.265
Mof_N 	N 	0.37673	0.6871	0.23733	-0.245
Mof_N 	N 	0.36386	0.80622	0.4567	-0.291
Mof_N 	N 	0.28228	0.86	0.53287	-0.293
Mof_N 	N 	0.03229	0.8807	0.55068	-0.301
Mof_C 	C 	0.7335	0.881	0.5146	0.111
Mof_H 	H 	0.7323	0.8612	0.4633	-0.068
Mof_C 	C 	0.65402	0.8887	0.5243	-0.258
Mof_H 	H 	0.601	0.8741	0.4804	0.055
Mof_C 	C 	0.65272	0.9185	0.59994	0.151
Mof_C 	C 	0.73559	0.9386	0.66289	-0.22
Mof_H 	H 	0.739	0.9581	0.7149	0.093
Mof_C 	C 	0.8114	0.9294	0.6473	0.107
Mof_H 	H 	0.8655	0.9442	0.6899	-0.061
Mof_C 	C 	0.56544	0.9803	0.66862	0.053
Mof_H 	H 	0.6141	0.021	0.7003	0.007
Mof_C 	C 	0.432	0.1872	0.80365	0.088
Mof_H 	H 	0.3839	0.2313	0.7967	-0.033
Mof_C 	C 	0.42549	0.1171	0.74133	-0.209
Mof_H 	H 	0.3735	0.1134	0.6944	0.059
Mof_C 	C 	0.49736	0.0523	0.74943	0.138
Mof_C 	C 	0.57194	0.0591	0.82317	-0.191
Mof_H 	H 	0.621	0.0159	0.8322	0.083
Mof_C 	C 	0.5721	0.1303	0.88215	0.075
Mof_H 	H 	0.6222	0.1338	0.9308	-0.033
Mof_C 	C 	0.44361	0.6808	0.31005	0.107
Mof_H 	H 	0.4958	0.6483	0.3126	-0.032
Mof_C 	C 	0.44037	0.7196	0.38224	-0.214
Mof_H 	H 	0.4895	0.7122	0.4313	0.05
Mof_C 	C 	0.36447	0.7693	0.38194	0.145
Mof_C 	C 	0.29449	0.7796	0.30507	-0.201
Mof_H 	H 	0.2422	0.8139	0.3002	0.087
Mof_C 	C 	0.30439	0.7379	0.2367	0.099
Mof_H 	H 	0.2572	0.7457	0.1863	-0.026
Mof_C 	C 	0.28745	0.8226	0.46411	0.069
Mof_H 	H 	0.235	0.8075	0.4196	-0.006
Mof_C 	C 	0.0998	0.9409	0.5939	0.095
Mof_H 	H 	0.0915	0.9893	0.6301	-0.063
Mof_C 	C 	0.18233	0.9365	0.58876	-0.257
Mof_H 	H 	0.2276	0.9811	0.6211	0.058
Mof_C 	C 	0.198	0.8655	0.53538	0.149
Mof_C 	C 	0.1273	0.8006	0.4909	-0.228
Mof_H 	H 	0.1342	0.7493	0.456	0.09
Mof_C 	C 	0.0463	0.8125	0.4986	0.091
Mof_H 	H 	0.999	0.7708	0.4658	-0.062
Mof_Cu	Cu	0.52528	0.32801	0.95094	0.791
Mof_Cu	Cu	0.61366	0.39591	0.86708	0.789
Mof_Cu	Cu	0.08008	0.38711	0.94143	0.804
Mof_N 	N 	0.18722	0.4003	0.9255	-0.299
Mof_N 	N 	0.42786	0.42105	0.89037	-0.299
Mof_N 	N 	0.50737	0.4845	0.81539	-0.29
Mof_N 	N 	0.49599	0.6948	0.62662	-0.265
Mof_N 	N 	0.62327	0.1871	0.26267	-0.245
Mof_N 	N 	0.63614	0.30622	0.0433	-0.291
Mof_N 	N 	0.71772	0.36	0.96713	-0.292
Mof_N 	N 	0.96771	0.3807	0.94932	-0.299
Mof_C 	C 	0.2665	0.381	0.9854	0.108
Mof_H 	H 	0.2677	0.3612	0.0367	-0.066
Mof_C 	C 	0.34598	0.3887	0.9757	-0.258
Mof_H 	H 	0.399	0.3741	0.0196	0.056
Mof_C 	C 	0.34728	0.4185	0.90006	0.151
Mof_C 	C 	0.26441	0.4386	0.83711	-0.22
Mof_H 	H 	0.261	0.4581	0.7851	0.093
Mof_C 	C 	0.1886	0.4294	0.8527	0.107
Mof_H 	H 	0.1345	0.4442	0.8101	-0.061
Mof_C 	C 	0.43456	0.4803	0.83138	0.053
Mof_H 	H 	0.3859	0.521	0.7997	0.007
Mof_C 	C 	0.568	0.6872	0.69635	0.089
Mof_H 	H 	0.6161	0.7313	0.7033	-0.033
Mof_C 	C 	0.57451	0.6171	0.75867	-0.21
Mof_H 	H 	0.6265	0.6134	0.8056	0.06
Mof_C 	C 	0.50264	0.5523	0.75057	0.139
Mof_C 	C 	0.42806	0.5591	0.67683	-0.191
Mof_H 	H 	0.379	0.5159	0.6678	0.084
Mof_C 	C 	0.4279	0.6303	0.61785	0.075
Mof_H 	H 	0.3778	0.6338	0.5692	-0.034
Mof_C 	C 	0.55639	0.1808	0.18995	0.107
Mof_H 	H 	0.5042	0.1483	0.1874	-0.032
Mof_C 	C 	0.55963	0.2196	0.11776	-0.214
Mof_H 	H 	0.5105	0.2122	0.0687	0.051
Mof_C 	C 	0.63553	0.2693	0.11806	0.145
Mof_C 	C 	0.70551	0.2796	0.19493	-0.201
Mof_H 	H 	0.7578	0.3139	0.1998	0.087
Mof_C 	C 	0.69561	0.2379	0.2633	0.099
Mof_H 	H 	0.7428	0.2457	0.3137	-0.027
Mof_C 	C 	0.71255	0.3226	0.03589	0.068
Mof_H 	H 	0.765	0.3075	0.0804	-0.006
Mof_C 	C 	0.9002	0.4409	0.9061	0.095
Mof_H 	H 	0.9085	0.4893	0.8699	-0.063
Mof_C 	C 	0.81767	0.4365	0.91124	-0.256
Mof_H 	H 	0.7724	0.4811	0.8789	0.057
Mof_C 	C 	0.802	0.3655	0.96462	0.149
Mof_C 	C 	0.8727	0.3006	0.0091	-0.225
Mof_H 	H 	0.8658	0.2493	0.044	0.089
Mof_C 	C 	0.9537	0.3125	0.0014	0.081
Mof_H 	H 	0.001	0.2708	0.0342	-0.056
_end
