data_functionalizedCrystal
_audit_creation_method	'EQeq! by Chris Wilmer'
_symmetry_space_group_name_H-M	'P1'
_symmetry_Int_Tables_number	1
_symmetry_cell_setting	triclinic
loop_
_symmetry_equiv_pos_as_xyz
  x,y,z
_cell_length_a	21.156
_cell_length_b	8.726
_cell_length_c	15.847
_cell_angle_alpha	90
_cell_angle_beta	90
_cell_angle_gamma	90
loop_
_atom_site_label
_atom_site_type_symbol
_atom_site_fract_x
_atom_site_fract_y
_atom_site_fract_z
_atom_site_charge
Mof_O 	O 	0.98353	0.7755	0.87587	-0.334
Mof_O 	O 	0.92914	0.9037	0.78063	-0.336
Mof_C 	C 	0.94139	0.8741	0.85752	0.283
Mof_N 	N 	0.57052	0.5716	0.23478	-0.237
Mof_N 	N 	0.74672	0.2437	0.10909	-0.132
Mof_N 	N 	0.76565	0.229	0.24986	-0.082
Mof_C 	C 	0.90602	0.9524	0.92642	-0.054
Mof_C 	C 	0.92207	0.926	0.01044	0.002
Mof_H 	H 	0.9555	0.861	0.0234	0.068
Mof_C 	C 	0.83765	0.0914	0.05553	0.008
Mof_C 	C 	0.79899	0.1623	0.12195	0.127
Mof_C 	C 	0.72822	0.2813	0.18875	0.089
Mof_C 	C 	0.85578	0.0484	0.90744	-0.001
Mof_H 	H 	0.8451	0.067	0.8514	0.051
Mof_C 	C 	0.67293	0.377	0.20521	0.065
Mof_N 	N 	0.81079	0.1533	0.20501	-0.178
Mof_H 	H 	0.8425	0.1061	0.2269	0.147
Mof_C 	C 	0.88838	0.9961	0.07468	-0.058
Mof_H 	H 	0.8997	0.9794	0.1306	0.073
Mof_C 	C 	0.82135	0.1169	0.9718	-0.062
Mof_H 	H 	0.7873	0.18	0.9588	0.065
Mof_C 	C 	0.6572	0.422	0.28644	-0.132
Mof_H 	H 	0.6807	0.3883	0.3324	0.086
Mof_C 	C 	0.60579	0.5182	0.29792	0.088
Mof_H 	H 	0.5954	0.5471	0.3527	-0.001
Mof_C 	C 	0.63562	0.43	0.13947	-0.127
Mof_H 	H 	0.6443	0.4008	0.0842	0.088
Mof_C 	C 	0.58556	0.5263	0.15647	0.075
Mof_H 	H 	0.5611	0.5613	0.1116	0.004
Mof_O 	O 	0.01647	0.7755	0.62413	-0.416
Mof_O 	O 	0.07086	0.9037	0.71937	-0.38
Mof_C 	C 	0.05861	0.8741	0.64248	0.292
Mof_N 	N 	0.42948	0.5716	0.26522	-0.238
Mof_N 	N 	0.25328	0.2437	0.39091	-0.133
Mof_N 	N 	0.23435	0.229	0.25014	-0.083
Mof_C 	C 	0.09398	0.9524	0.57358	-0.092
Mof_C 	C 	0.07793	0.926	0.48956	0.013
Mof_H 	H 	0.0445	0.861	0.4766	0.026
Mof_C 	C 	0.16235	0.0914	0.44447	0.016
Mof_C 	C 	0.20101	0.1623	0.37805	0.12
Mof_C 	C 	0.27178	0.2813	0.31125	0.089
Mof_C 	C 	0.14422	0.0484	0.59256	0.013
Mof_H 	H 	0.1549	0.067	0.6486	0.041
Mof_C 	C 	0.32707	0.377	0.29479	0.065
Mof_N 	N 	0.18921	0.1533	0.29499	-0.176
Mof_H 	H 	0.1575	0.1061	0.2731	0.144
Mof_C 	C 	0.11162	0.9961	0.42532	-0.087
Mof_H 	H 	0.1003	0.9794	0.3694	0.064
Mof_C 	C 	0.17865	0.1169	0.5282	-0.082
Mof_H 	H 	0.2127	0.18	0.5412	0.07
Mof_C 	C 	0.3428	0.422	0.21356	-0.131
Mof_H 	H 	0.3193	0.3883	0.1676	0.085
Mof_C 	C 	0.39421	0.5182	0.20208	0.088
Mof_H 	H 	0.4046	0.5471	0.1473	-0.001
Mof_C 	C 	0.36438	0.43	0.36053	-0.127
Mof_H 	H 	0.3557	0.4008	0.4158	0.087
Mof_C 	C 	0.41444	0.5263	0.34353	0.075
Mof_H 	H 	0.4389	0.5613	0.3884	0.004
Mof_O 	O 	0.48353	0.7755	0.12413	-0.381
Mof_O 	O 	0.42914	0.9037	0.21937	-0.363
Mof_C 	C 	0.44139	0.8741	0.14248	0.287
Mof_N 	N 	0.07052	0.5716	0.76522	-0.249
Mof_N 	N 	0.24672	0.2437	0.89091	-0.133
Mof_N 	N 	0.26565	0.229	0.75014	-0.083
Mof_C 	C 	0.40602	0.9524	0.07358	-0.074
Mof_C 	C 	0.42207	0.926	0.98956	0.008
Mof_H 	H 	0.4555	0.861	0.9766	0.047
Mof_C 	C 	0.33765	0.0914	0.94447	0.012
Mof_C 	C 	0.29899	0.1623	0.87805	0.123
Mof_C 	C 	0.22822	0.2813	0.81125	0.088
Mof_C 	C 	0.35578	0.0484	0.09256	0.006
Mof_H 	H 	0.3451	0.067	0.1486	0.046
Mof_C 	C 	0.17293	0.377	0.79479	0.066
Mof_N 	N 	0.31079	0.1533	0.79499	-0.177
Mof_H 	H 	0.3425	0.1061	0.7731	0.146
Mof_C 	C 	0.38838	0.9961	0.92532	-0.073
Mof_H 	H 	0.3997	0.9794	0.8694	0.068
Mof_C 	C 	0.32135	0.1169	0.0282	-0.072
Mof_H 	H 	0.2873	0.18	0.0412	0.067
Mof_C 	C 	0.1572	0.422	0.71356	-0.136
Mof_H 	H 	0.1807	0.3883	0.6676	0.085
Mof_C 	C 	0.10579	0.5182	0.70208	0.085
Mof_H 	H 	0.0954	0.5471	0.6473	-0.008
Mof_C 	C 	0.13562	0.43	0.86053	-0.134
Mof_H 	H 	0.1443	0.4008	0.9158	0.087
Mof_C 	C 	0.08556	0.5263	0.84353	0.074
Mof_H 	H 	0.0611	0.5613	0.8884	-0.016
Mof_O 	O 	0.51647	0.7755	0.37587	-0.381
Mof_O 	O 	0.57086	0.9037	0.28063	-0.363
Mof_C 	C 	0.55861	0.8741	0.35752	0.287
Mof_N 	N 	0.92948	0.5716	0.73478	-0.218
Mof_N 	N 	0.75328	0.2437	0.60909	-0.133
Mof_N 	N 	0.73435	0.229	0.74986	-0.083
Mof_C 	C 	0.59398	0.9524	0.42642	-0.075
Mof_C 	C 	0.57793	0.926	0.51044	0.009
Mof_H 	H 	0.5445	0.861	0.5234	0.047
Mof_C 	C 	0.66235	0.0914	0.55553	0.012
Mof_C 	C 	0.70101	0.1623	0.62195	0.123
Mof_C 	C 	0.77178	0.2813	0.68875	0.09
Mof_C 	C 	0.64422	0.0484	0.40744	0.007
Mof_H 	H 	0.6549	0.067	0.3514	0.045
Mof_C 	C 	0.82707	0.377	0.70521	0.064
Mof_N 	N 	0.68921	0.1533	0.70501	-0.177
Mof_H 	H 	0.6575	0.1061	0.7269	0.146
Mof_C 	C 	0.61162	0.9961	0.57468	-0.073
Mof_H 	H 	0.6003	0.9794	0.6306	0.068
Mof_C 	C 	0.67865	0.1169	0.4718	-0.073
Mof_H 	H 	0.7127	0.18	0.4588	0.067
Mof_C 	C 	0.8428	0.422	0.78644	-0.126
Mof_H 	H 	0.8193	0.3883	0.8324	0.086
Mof_C 	C 	0.89421	0.5182	0.79792	0.09
Mof_H 	H 	0.9046	0.5471	0.8527	0.008
Mof_C 	C 	0.86438	0.43	0.63947	-0.12
Mof_H 	H 	0.8557	0.4008	0.5842	0.088
Mof_C 	C 	0.91444	0.5263	0.65647	0.077
Mof_H 	H 	0.9389	0.5613	0.6116	0.026
Mof_Ni	Ni	0.5	0.73025	0.25	1.096
Mof_Ni	Ni	2.10638e-33	0.73025	0.75	1.063
Mof_O 	O 	0.51647	0.2245	0.87587	-0.381
Mof_O 	O 	0.57086	0.0963	0.78063	-0.363
Mof_C 	C 	0.55861	0.1259	0.85752	0.287
Mof_N 	N 	0.92948	0.4284	0.23478	-0.219
Mof_N 	N 	0.75328	0.7563	0.10909	-0.133
Mof_N 	N 	0.73435	0.771	0.24986	-0.083
Mof_C 	C 	0.59398	0.0476	0.92642	-0.074
Mof_C 	C 	0.57793	0.074	0.01044	0.008
Mof_H 	H 	0.5445	0.139	0.0234	0.047
Mof_C 	C 	0.66235	0.9086	0.05553	0.012
Mof_C 	C 	0.70101	0.8377	0.12195	0.123
Mof_C 	C 	0.77178	0.7187	0.18875	0.09
Mof_C 	C 	0.64422	0.9516	0.90744	0.006
Mof_H 	H 	0.6549	0.933	0.8514	0.045
Mof_C 	C 	0.82707	0.623	0.20521	0.064
Mof_N 	N 	0.68921	0.8467	0.20501	-0.177
Mof_H 	H 	0.6575	0.8939	0.2269	0.146
Mof_C 	C 	0.61162	0.0039	0.07468	-0.073
Mof_H 	H 	0.6003	0.0206	0.1306	0.068
Mof_C 	C 	0.67865	0.8831	0.9718	-0.073
Mof_H 	H 	0.7127	0.82	0.9588	0.067
Mof_C 	C 	0.8428	0.578	0.28644	-0.126
Mof_H 	H 	0.8193	0.6117	0.3324	0.086
Mof_C 	C 	0.89421	0.4818	0.29792	0.09
Mof_H 	H 	0.9046	0.4529	0.3527	0.008
Mof_C 	C 	0.86438	0.57	0.13947	-0.12
Mof_H 	H 	0.8557	0.5992	0.0842	0.088
Mof_C 	C 	0.91444	0.4737	0.15647	0.077
Mof_H 	H 	0.9389	0.4387	0.1116	0.026
Mof_O 	O 	0.48353	0.2245	0.62413	-0.381
Mof_O 	O 	0.42914	0.0963	0.71937	-0.363
Mof_C 	C 	0.44139	0.1259	0.64248	0.287
Mof_N 	N 	0.07052	0.4284	0.26522	-0.249
Mof_N 	N 	0.24672	0.7563	0.39091	-0.133
Mof_N 	N 	0.26565	0.771	0.25014	-0.083
Mof_C 	C 	0.40602	0.0476	0.57358	-0.075
Mof_C 	C 	0.42207	0.074	0.48956	0.009
Mof_H 	H 	0.4555	0.139	0.4766	0.047
Mof_C 	C 	0.33765	0.9086	0.44447	0.012
Mof_C 	C 	0.29899	0.8377	0.37805	0.123
Mof_C 	C 	0.22822	0.7187	0.31125	0.088
Mof_C 	C 	0.35578	0.9516	0.59256	0.007
Mof_H 	H 	0.3451	0.933	0.6486	0.045
Mof_C 	C 	0.17293	0.623	0.29479	0.066
Mof_N 	N 	0.31079	0.8467	0.29499	-0.177
Mof_H 	H 	0.3425	0.8939	0.2731	0.146
Mof_C 	C 	0.38838	0.0039	0.42532	-0.073
Mof_H 	H 	0.3997	0.0206	0.3694	0.068
Mof_C 	C 	0.32135	0.8831	0.5282	-0.073
Mof_H 	H 	0.2873	0.82	0.5412	0.068
Mof_C 	C 	0.1572	0.578	0.21356	-0.136
Mof_H 	H 	0.1807	0.6117	0.1676	0.085
Mof_C 	C 	0.10579	0.4818	0.20208	0.085
Mof_H 	H 	0.0954	0.4529	0.1473	-0.008
Mof_C 	C 	0.13562	0.57	0.36053	-0.134
Mof_H 	H 	0.1443	0.5992	0.4158	0.087
Mof_C 	C 	0.08556	0.4737	0.34353	0.074
Mof_H 	H 	0.0611	0.4387	0.3884	-0.016
Mof_O 	O 	0.01647	0.2245	0.12413	-0.415
Mof_O 	O 	0.07086	0.0963	0.21937	-0.38
Mof_C 	C 	0.05861	0.1259	0.14248	0.292
Mof_N 	N 	0.42948	0.4284	0.76522	-0.238
Mof_N 	N 	0.25328	0.7563	0.89091	-0.133
Mof_N 	N 	0.23435	0.771	0.75014	-0.083
Mof_C 	C 	0.09398	0.0476	0.07358	-0.091
Mof_C 	C 	0.07793	0.074	0.98956	0.011
Mof_H 	H 	0.0445	0.139	0.9766	0.027
Mof_C 	C 	0.16235	0.9086	0.94447	0.014
Mof_C 	C 	0.20101	0.8377	0.87805	0.12
Mof_C 	C 	0.27178	0.7187	0.81125	0.089
Mof_C 	C 	0.14422	0.9516	0.09256	0.012
Mof_H 	H 	0.1549	0.933	0.1486	0.041
Mof_C 	C 	0.32707	0.623	0.79479	0.065
Mof_N 	N 	0.18921	0.8467	0.79499	-0.176
Mof_H 	H 	0.1575	0.8939	0.7731	0.145
Mof_C 	C 	0.11162	0.0039	0.92532	-0.086
Mof_H 	H 	0.1003	0.0206	0.8694	0.063
Mof_C 	C 	0.17865	0.8831	0.0282	-0.08
Mof_H 	H 	0.2127	0.82	0.0412	0.069
Mof_C 	C 	0.3428	0.578	0.71356	-0.131
Mof_H 	H 	0.3193	0.6117	0.6676	0.085
Mof_C 	C 	0.39421	0.4818	0.70208	0.088
Mof_H 	H 	0.4046	0.4529	0.6473	-0.001
Mof_C 	C 	0.36438	0.57	0.86053	-0.127
Mof_H 	H 	0.3557	0.5992	0.9158	0.087
Mof_C 	C 	0.41444	0.4737	0.84353	0.075
Mof_H 	H 	0.4389	0.4387	0.8884	0.004
Mof_O 	O 	0.98353	0.2245	0.37587	-0.335
Mof_O 	O 	0.92914	0.0963	0.28063	-0.338
Mof_C 	C 	0.94139	0.1259	0.35752	0.282
Mof_N 	N 	0.57052	0.4284	0.73478	-0.238
Mof_N 	N 	0.74672	0.7563	0.60909	-0.133
Mof_N 	N 	0.76565	0.771	0.74986	-0.083
Mof_C 	C 	0.90602	0.0476	0.42642	-0.056
Mof_C 	C 	0.92207	0.074	0.51044	0.005
Mof_H 	H 	0.9555	0.139	0.5234	0.068
Mof_C 	C 	0.83765	0.9086	0.55553	0.009
Mof_C 	C 	0.79899	0.8377	0.62195	0.126
Mof_C 	C 	0.72822	0.7187	0.68875	0.089
Mof_C 	C 	0.85578	0.9516	0.40744	0
Mof_H 	H 	0.8451	0.933	0.3514	0.05
Mof_C 	C 	0.67293	0.623	0.70521	0.065
Mof_N 	N 	0.81079	0.8467	0.70501	-0.177
Mof_H 	H 	0.8425	0.8939	0.7269	0.147
Mof_C 	C 	0.88838	0.0039	0.57468	-0.059
Mof_H 	H 	0.8997	0.0206	0.6306	0.074
Mof_C 	C 	0.82135	0.8831	0.4718	-0.064
Mof_H 	H 	0.7873	0.82	0.4588	0.065
Mof_C 	C 	0.6572	0.578	0.78644	-0.132
Mof_H 	H 	0.6807	0.6117	0.8324	0.086
Mof_C 	C 	0.60579	0.4818	0.79792	0.088
Mof_H 	H 	0.5954	0.4529	0.8527	-0.001
Mof_C 	C 	0.63562	0.57	0.63947	-0.127
Mof_H 	H 	0.6443	0.5992	0.5842	0.088
Mof_C 	C 	0.58556	0.4737	0.65647	0.075
Mof_H 	H 	0.5611	0.4387	0.6116	0.004
Mof_Ni	Ni	-1.45509e-33	0.26975	0.25	1.064
Mof_Ni	Ni	0.5	0.26975	0.75	1.096
_end
