data_functionalizedCrystal
_audit_creation_method	'EQeq! by Chris Wilmer'
_symmetry_space_group_name_H-M	'P1'
_symmetry_Int_Tables_number	1
_symmetry_cell_setting	triclinic
loop_
_symmetry_equiv_pos_as_xyz
  x,y,z
_cell_length_a	26.5086
_cell_length_b	26.5086
_cell_length_c	5.1903
_cell_angle_alpha	90
_cell_angle_beta	90
_cell_angle_gamma	90
loop_
_atom_site_label
_atom_site_type_symbol
_atom_site_fract_x
_atom_site_fract_y
_atom_site_fract_z
_atom_site_charge
Mof_Zn	Zn	0.2726	0.21425	0.92088	1.229
Mof_O 	O 	0.22163	0.25317	0.0952	-0.805
Mof_H 	H 	0.2009	0.2641	0.9834	0.299
Mof_N 	N 	0.25079	0.14162	0.904	-0.26
Mof_C 	C 	0.26753	0.10427	0.04	0.065
Mof_H 	H 	0.2935	0.1076	0.1593	0.005
Mof_N 	N 	0.24392	0.0601	0.9931	-0.122
Mof_C 	C 	0.21236	0.12213	0.7505	0.039
Mof_O 	O 	0.27774	0.83342	0.3684	-0.537
Mof_C 	C 	0.18351	0.144	0.5659	-0.116
Mof_H 	H 	0.1875	0.178	0.5265	0.036
Mof_O 	O 	0.32	0.8714	0.669	-0.215
Mof_C 	C 	0.14797	0.11521	0.4365	0.011
Mof_C 	C 	0.1179	0.13597	0.2352	-0.039
Mof_H 	H 	0.1216	0.1698	0.1908	0.037
Mof_C 	C 	0.08352	0.1066	0.106	-0.098
Mof_H 	H 	0.0646	0.1202	0.9719	0.068
Mof_C 	C 	0.0771	0.0565	0.1764	0.028
Mof_H 	H 	0.0528	0.0373	0.0923	0.008
Mof_C 	C 	0.10508	0.03502	0.3639	-0.124
Mof_H 	H 	0.0997	0.0013	0.4058	0.075
Mof_C 	C 	0.1424	0.06266	0.498	0.076
Mof_C 	C 	0.17215	0.04042	0.6842	-0.147
Mof_H 	H 	0.1683	0.0065	0.7254	0.089
Mof_C 	C 	0.20763	0.06968	0.8075	0.082
Mof_C 	C 	0.25733	0.01244	0.1028	0.035
Mof_C 	C 	0.2845	0.92112	0.3173	-0.144
Mof_C 	C 	0.3056	0.0048	0.171	0.655
Mof_H 	H 	0.3285	0.0313	0.1579	-0.186
Mof_C 	C 	0.3217	0.959	0.257	-0.643
Mof_H 	H 	0.356	0.9524	0.2775	0.271
Mof_C 	C 	0.2374	0.9302	0.25	-0.961
Mof_H 	H 	0.2135	0.9046	0.2642	0.349
Mof_C 	C 	0.2228	0.9773	0.1594	0.747
Mof_H 	H 	0.1887	0.9845	0.1378	-0.237
Mof_C 	C 	0.2984	0.8712	0.4403	0.441
Mof_O 	O 	0.3462	0.8674	0.5	-0.207
Mof_C 	C 	0.274	0.0122	0.348	-0.776
Mof_H 	H 	0.2759	0.042	0.4423	0.313
Mof_C 	C 	0.2888	0.9651	0.459	0.627
Mof_H 	H 	0.3012	0.964	0.6268	-0.174
Mof_C 	C 	0.2655	0.9224	0.084	0.945
Mof_H 	H 	0.2602	0.8922	0.997	-0.268
Mof_C 	C 	0.2529	0.9672	0.965	-0.788
Mof_H 	H 	0.2417	0.9673	0.7947	0.315
Mof_Zn	Zn	0.7726	0.71425	0.42088	1.229
Mof_O 	O 	0.72163	0.75317	0.5952	-0.804
Mof_H 	H 	0.7009	0.7641	0.4834	0.301
Mof_N 	N 	0.75079	0.64162	0.404	-0.275
Mof_C 	C 	0.76753	0.60427	0.54	0.118
Mof_H 	H 	0.7935	0.6076	0.6593	-0.016
Mof_N 	N 	0.74392	0.5601	0.4931	-0.18
Mof_C 	C 	0.71236	0.62213	0.2505	0.044
Mof_O 	O 	0.77774	0.33342	0.8684	-0.542
Mof_C 	C 	0.68351	0.644	0.0659	-0.128
Mof_H 	H 	0.6875	0.678	0.0265	0.04
Mof_O 	O 	0.82	0.3714	0.169	-0.243
Mof_C 	C 	0.64797	0.61521	0.9365	0.028
Mof_C 	C 	0.6179	0.63597	0.7352	-0.07
Mof_H 	H 	0.6216	0.6698	0.6908	0.05
Mof_C 	C 	0.58352	0.6066	0.606	-0.044
Mof_H 	H 	0.5646	0.6202	0.4719	0.041
Mof_C 	C 	0.5771	0.5565	0.6764	-0.005
Mof_H 	H 	0.5528	0.5373	0.5923	0.027
Mof_C 	C 	0.60508	0.53502	0.8639	-0.108
Mof_H 	H 	0.5997	0.5013	0.9058	0.068
Mof_C 	C 	0.6424	0.56266	0.998	0.063
Mof_C 	C 	0.67215	0.54042	0.1842	-0.152
Mof_H 	H 	0.6683	0.5065	0.2254	0.081
Mof_C 	C 	0.70763	0.56968	0.3075	0.085
Mof_C 	C 	0.75733	0.51244	0.6028	0.233
Mof_C 	C 	0.7845	0.42112	0.8173	-0.228
Mof_C 	C 	0.8056	0.5048	0.671	-0.142
Mof_H 	H 	0.8285	0.5313	0.6579	0.09
Mof_C 	C 	0.8217	0.459	0.757	0.069
Mof_H 	H 	0.856	0.4524	0.7775	0.027
Mof_C 	C 	0.7374	0.4302	0.75	0.031
Mof_H 	H 	0.7135	0.4046	0.7642	0.019
Mof_C 	C 	0.7228	0.4773	0.6594	-0.12
Mof_H 	H 	0.6887	0.4845	0.6378	0.071
Mof_C 	C 	0.7984	0.3712	0.9403	0.493
Mof_O 	O 	0.8462	0.3674	-0	-0.213
Mof_C 	C 	0.774	0.5122	0.848	-0.139
Mof_H 	H 	0.7759	0.542	0.9423	0.083
Mof_C 	C 	0.7888	0.4651	0.959	0.077
Mof_H 	H 	0.8012	0.464	0.1268	0.015
Mof_C 	C 	0.7655	0.4224	0.584	0.125
Mof_H 	H 	0.7602	0.3922	0.497	-0.008
Mof_C 	C 	0.7529	0.4672	0.465	-0.167
Mof_H 	H 	0.7417	0.4673	0.2947	0.087
Mof_Zn	Zn	0.7274	0.78575	0.92088	1.23
Mof_O 	O 	0.77837	0.74683	0.0952	-0.804
Mof_H 	H 	0.7991	0.7359	0.9834	0.3
Mof_N 	N 	0.74921	0.85838	0.904	-0.259
Mof_C 	C 	0.73247	0.89573	0.04	0.065
Mof_H 	H 	0.7065	0.8924	0.1593	0.005
Mof_N 	N 	0.75608	0.9399	0.9931	-0.122
Mof_C 	C 	0.78764	0.87787	0.7505	0.039
Mof_O 	O 	0.72226	0.16658	0.3684	-0.537
Mof_C 	C 	0.81649	0.856	0.5659	-0.116
Mof_H 	H 	0.8125	0.822	0.5265	0.036
Mof_O 	O 	0.68	0.1286	0.669	-0.215
Mof_C 	C 	0.85203	0.88479	0.4365	0.011
Mof_C 	C 	0.8821	0.86403	0.2352	-0.039
Mof_H 	H 	0.8784	0.8302	0.1908	0.037
Mof_C 	C 	0.91648	0.8934	0.106	-0.098
Mof_H 	H 	0.9354	0.8798	0.9719	0.068
Mof_C 	C 	0.9229	0.9435	0.1764	0.028
Mof_H 	H 	0.9472	0.9627	0.0923	0.008
Mof_C 	C 	0.89492	0.96498	0.3639	-0.124
Mof_H 	H 	0.9003	0.9987	0.4058	0.075
Mof_C 	C 	0.8576	0.93734	0.498	0.076
Mof_C 	C 	0.82785	0.95958	0.6842	-0.147
Mof_H 	H 	0.8317	0.9935	0.7254	0.089
Mof_C 	C 	0.79237	0.93032	0.8075	0.082
Mof_C 	C 	0.74267	0.98756	0.1028	0.035
Mof_C 	C 	0.7155	0.07888	0.3173	-0.144
Mof_C 	C 	0.6944	0.9952	0.171	0.655
Mof_H 	H 	0.6715	0.9687	0.1579	-0.186
Mof_C 	C 	0.6783	0.041	0.257	-0.643
Mof_H 	H 	0.644	0.0476	0.2775	0.271
Mof_C 	C 	0.7626	0.0698	0.25	-0.961
Mof_H 	H 	0.7865	0.0954	0.2642	0.349
Mof_C 	C 	0.7772	0.0227	0.1594	0.747
Mof_H 	H 	0.8113	0.0155	0.1378	-0.237
Mof_C 	C 	0.7016	0.1288	0.4403	0.441
Mof_O 	O 	0.6538	0.1326	0.5	-0.207
Mof_C 	C 	0.726	0.9878	0.348	-0.776
Mof_H 	H 	0.7241	0.958	0.4423	0.313
Mof_C 	C 	0.7112	0.0349	0.459	0.627
Mof_H 	H 	0.6988	0.036	0.6268	-0.174
Mof_C 	C 	0.7345	0.0776	0.084	0.945
Mof_H 	H 	0.7398	0.1078	0.997	-0.268
Mof_C 	C 	0.7471	0.0328	0.965	-0.788
Mof_H 	H 	0.7583	0.0327	0.7947	0.315
Mof_Zn	Zn	0.2274	0.28575	0.42088	1.229
Mof_O 	O 	0.27837	0.24683	0.5952	-0.804
Mof_H 	H 	0.2991	0.2359	0.4834	0.301
Mof_N 	N 	0.24921	0.35838	0.404	-0.275
Mof_C 	C 	0.23247	0.39573	0.54	0.118
Mof_H 	H 	0.2065	0.3924	0.6593	-0.016
Mof_N 	N 	0.25608	0.4399	0.4931	-0.18
Mof_C 	C 	0.28764	0.37787	0.2505	0.044
Mof_O 	O 	0.22226	0.66658	0.8684	-0.542
Mof_C 	C 	0.31649	0.356	0.0659	-0.128
Mof_H 	H 	0.3125	0.322	0.0265	0.04
Mof_O 	O 	0.18	0.6286	0.169	-0.243
Mof_C 	C 	0.35203	0.38479	0.9365	0.028
Mof_C 	C 	0.3821	0.36403	0.7352	-0.07
Mof_H 	H 	0.3784	0.3302	0.6908	0.05
Mof_C 	C 	0.41648	0.3934	0.606	-0.044
Mof_H 	H 	0.4354	0.3798	0.4719	0.041
Mof_C 	C 	0.4229	0.4435	0.6764	-0.005
Mof_H 	H 	0.4472	0.4627	0.5923	0.027
Mof_C 	C 	0.39492	0.46498	0.8639	-0.108
Mof_H 	H 	0.4003	0.4987	0.9058	0.068
Mof_C 	C 	0.3576	0.43734	0.998	0.063
Mof_C 	C 	0.32785	0.45958	0.1842	-0.152
Mof_H 	H 	0.3317	0.4935	0.2254	0.081
Mof_C 	C 	0.29237	0.43032	0.3075	0.085
Mof_C 	C 	0.24267	0.48756	0.6028	0.233
Mof_C 	C 	0.2155	0.57888	0.8173	-0.228
Mof_C 	C 	0.1944	0.4952	0.671	-0.142
Mof_H 	H 	0.1715	0.4687	0.6579	0.09
Mof_C 	C 	0.1783	0.541	0.757	0.069
Mof_H 	H 	0.144	0.5476	0.7775	0.027
Mof_C 	C 	0.2626	0.5698	0.75	0.031
Mof_H 	H 	0.2865	0.5954	0.7642	0.019
Mof_C 	C 	0.2772	0.5227	0.6594	-0.12
Mof_H 	H 	0.3113	0.5155	0.6378	0.071
Mof_C 	C 	0.2016	0.6288	0.9403	0.493
Mof_O 	O 	0.1538	0.6326	-0	-0.213
Mof_C 	C 	0.226	0.4878	0.848	-0.139
Mof_H 	H 	0.2241	0.458	0.9423	0.083
Mof_C 	C 	0.2112	0.5349	0.959	0.077
Mof_H 	H 	0.1988	0.536	0.1268	0.015
Mof_C 	C 	0.2345	0.5776	0.584	0.125
Mof_H 	H 	0.2398	0.6078	0.497	-0.008
Mof_C 	C 	0.2471	0.5328	0.465	-0.167
Mof_H 	H 	0.2583	0.5327	0.2947	0.087
Mof_Zn	Zn	0.21425	0.7274	0.07912	1.221
Mof_O 	O 	0.25317	0.77837	0.9048	-0.759
Mof_H 	H 	0.2641	0.7991	0.0166	0.265
Mof_N 	N 	0.14162	0.74921	0.096	-0.292
Mof_C 	C 	0.10427	0.73247	0.96	0.151
Mof_H 	H 	0.1076	0.7065	0.8407	-0.025
Mof_N 	N 	0.0601	0.75608	0.0069	-0.192
Mof_C 	C 	0.12213	0.78764	0.2495	0.055
Mof_O 	O 	0.83342	0.72226	0.6316	-0.544
Mof_C 	C 	0.144	0.81649	0.4341	-0.161
Mof_H 	H 	0.178	0.8125	0.4735	0.047
Mof_O 	O 	0.8714	0.68	0.331	-0.237
Mof_C 	C 	0.11521	0.85203	0.5635	0.072
Mof_C 	C 	0.13597	0.8821	0.7648	-0.146
Mof_H 	H 	0.1698	0.8784	0.8092	0.081
Mof_C 	C 	0.1066	0.91648	0.894	0.071
Mof_H 	H 	0.1202	0.9354	0.0281	-0.011
Mof_C 	C 	0.0565	0.9229	0.8236	-0.089
Mof_H 	H 	0.0373	0.9472	0.9077	0.063
Mof_C 	C 	0.03502	0.89492	0.6361	-0.045
Mof_H 	H 	0.0013	0.9003	0.5942	0.044
Mof_C 	C 	0.06266	0.8576	0.502	0.015
Mof_C 	C 	0.04042	0.82785	0.3158	-0.122
Mof_H 	H 	0.0065	0.8317	0.2746	0.069
Mof_C 	C 	0.06968	0.79237	0.1925	0.066
Mof_C 	C 	0.01244	0.74267	0.8972	0.25
Mof_C 	C 	0.92112	0.7155	0.6827	-0.227
Mof_C 	C 	0.0048	0.6944	0.829	-0.162
Mof_H 	H 	0.0313	0.6715	0.8421	0.097
Mof_C 	C 	0.959	0.6783	0.743	0.085
Mof_H 	H 	0.9524	0.644	0.7225	0.02
Mof_C 	C 	0.9302	0.7626	0.75	0.043
Mof_H 	H 	0.9046	0.7865	0.7358	0.014
Mof_C 	C 	0.9773	0.7772	0.8406	-0.13
Mof_H 	H 	0.9845	0.8113	0.8622	0.077
Mof_C 	C 	0.8712	0.7016	0.5597	0.478
Mof_O 	O 	0.8674	0.6538	0.5	-0.204
Mof_C 	C 	0.0122	0.726	0.652	-0.13
Mof_H 	H 	0.042	0.7241	0.5577	0.08
Mof_C 	C 	0.9651	0.7112	0.541	0.06
Mof_H 	H 	0.964	0.6988	0.3732	0.022
Mof_C 	C 	0.9224	0.7345	0.916	0.116
Mof_H 	H 	0.8922	0.7398	0.003	-0.002
Mof_C 	C 	0.9672	0.7471	0.035	-0.17
Mof_H 	H 	0.9673	0.7583	0.2053	0.089
Mof_Zn	Zn	0.71425	0.2274	0.57912	1.228
Mof_O 	O 	0.75317	0.27837	0.4048	-0.81
Mof_H 	H 	0.7641	0.2991	0.5166	0.302
Mof_N 	N 	0.64162	0.24921	0.596	-0.274
Mof_C 	C 	0.60427	0.23247	0.46	0.118
Mof_H 	H 	0.6076	0.2065	0.3407	-0.019
Mof_N 	N 	0.5601	0.25608	0.5069	-0.174
Mof_C 	C 	0.62213	0.28764	0.7495	0.041
Mof_O 	O 	0.33342	0.22226	0.1316	-0.539
Mof_C 	C 	0.644	0.31649	0.9341	-0.096
Mof_H 	H 	0.678	0.3125	0.9735	0.036
Mof_O 	O 	0.3714	0.18	0.831	-0.216
Mof_C 	C 	0.61521	0.35203	0.0635	0.005
Mof_C 	C 	0.63597	0.3821	0.2648	-0.063
Mof_H 	H 	0.6698	0.3784	0.3092	0.044
Mof_C 	C 	0.6066	0.41648	0.394	-0.046
Mof_H 	H 	0.6202	0.4354	0.5281	0.042
Mof_C 	C 	0.5565	0.4229	0.3236	-0.012
Mof_H 	H 	0.5373	0.4472	0.4077	0.029
Mof_C 	C 	0.53502	0.39492	0.1361	-0.097
Mof_H 	H 	0.5013	0.4003	0.0942	0.059
Mof_C 	C 	0.56266	0.3576	0.002	0.04
Mof_C 	C 	0.54042	0.32785	0.8158	-0.121
Mof_H 	H 	0.5065	0.3317	0.7746	0.075
Mof_C 	C 	0.56968	0.29237	0.6925	0.081
Mof_C 	C 	0.51244	0.24267	0.3972	0.208
Mof_C 	C 	0.42112	0.2155	0.1827	-0.197
Mof_C 	C 	0.5048	0.1944	0.329	-0.072
Mof_H 	H 	0.5313	0.1715	0.3421	0.064
Mof_C 	C 	0.459	0.1783	0.243	0.016
Mof_H 	H 	0.4524	0.144	0.2225	0.041
Mof_C 	C 	0.4302	0.2626	0.25	-0.126
Mof_H 	H 	0.4046	0.2865	0.2358	0.07
Mof_C 	C 	0.4773	0.2772	0.3406	0.015
Mof_H 	H 	0.4845	0.3113	0.3622	0.023
Mof_C 	C 	0.3712	0.2016	0.0597	0.456
Mof_O 	O 	0.3674	0.1538	-0	-0.215
Mof_C 	C 	0.5122	0.226	0.152	-0.175
Mof_H 	H 	0.542	0.2241	0.0577	0.087
Mof_C 	C 	0.4651	0.2112	0.041	0.064
Mof_H 	H 	0.464	0.1988	0.8732	0.034
Mof_C 	C 	0.4224	0.2345	0.416	0.258
Mof_H 	H 	0.3922	0.2398	0.503	-0.053
Mof_C 	C 	0.4672	0.2471	0.535	-0.276
Mof_H 	H 	0.4673	0.2583	0.7053	0.131
Mof_Zn	Zn	0.78575	0.2726	0.07912	1.221
Mof_O 	O 	0.74683	0.22163	0.9048	-0.759
Mof_H 	H 	0.7359	0.2009	0.0166	0.265
Mof_N 	N 	0.85838	0.25079	0.096	-0.292
Mof_C 	C 	0.89573	0.26753	0.96	0.151
Mof_H 	H 	0.8924	0.2935	0.8407	-0.025
Mof_N 	N 	0.9399	0.24392	0.0069	-0.192
Mof_C 	C 	0.87787	0.21236	0.2495	0.055
Mof_O 	O 	0.16658	0.27774	0.6316	-0.544
Mof_C 	C 	0.856	0.18351	0.4341	-0.161
Mof_H 	H 	0.822	0.1875	0.4735	0.047
Mof_O 	O 	0.1286	0.32	0.331	-0.237
Mof_C 	C 	0.88479	0.14797	0.5635	0.072
Mof_C 	C 	0.86403	0.1179	0.7648	-0.146
Mof_H 	H 	0.8302	0.1216	0.8092	0.081
Mof_C 	C 	0.8934	0.08352	0.894	0.071
Mof_H 	H 	0.8798	0.0646	0.0281	-0.011
Mof_C 	C 	0.9435	0.0771	0.8236	-0.089
Mof_H 	H 	0.9627	0.0528	0.9077	0.063
Mof_C 	C 	0.96498	0.10508	0.6361	-0.045
Mof_H 	H 	0.9987	0.0997	0.5942	0.044
Mof_C 	C 	0.93734	0.1424	0.502	0.015
Mof_C 	C 	0.95958	0.17215	0.3158	-0.122
Mof_H 	H 	0.9935	0.1683	0.2746	0.069
Mof_C 	C 	0.93032	0.20763	0.1925	0.066
Mof_C 	C 	0.98756	0.25733	0.8972	0.25
Mof_C 	C 	0.07888	0.2845	0.6827	-0.227
Mof_C 	C 	0.9952	0.3056	0.829	-0.162
Mof_H 	H 	0.9687	0.3285	0.8421	0.097
Mof_C 	C 	0.041	0.3217	0.743	0.085
Mof_H 	H 	0.0476	0.356	0.7225	0.02
Mof_C 	C 	0.0698	0.2374	0.75	0.043
Mof_H 	H 	0.0954	0.2135	0.7358	0.014
Mof_C 	C 	0.0227	0.2228	0.8406	-0.13
Mof_H 	H 	0.0155	0.1887	0.8622	0.077
Mof_C 	C 	0.1288	0.2984	0.5597	0.478
Mof_O 	O 	0.1326	0.3462	0.5	-0.204
Mof_C 	C 	0.9878	0.274	0.652	-0.13
Mof_H 	H 	0.958	0.2759	0.5577	0.08
Mof_C 	C 	0.0349	0.2888	0.541	0.06
Mof_H 	H 	0.036	0.3012	0.3732	0.022
Mof_C 	C 	0.0776	0.2655	0.916	0.116
Mof_H 	H 	0.1078	0.2602	0.003	-0.002
Mof_C 	C 	0.0328	0.2529	0.035	-0.17
Mof_H 	H 	0.0327	0.2417	0.2053	0.089
Mof_Zn	Zn	0.28575	0.7726	0.57912	1.228
Mof_O 	O 	0.24683	0.72163	0.4048	-0.81
Mof_H 	H 	0.2359	0.7009	0.5166	0.302
Mof_N 	N 	0.35838	0.75079	0.596	-0.274
Mof_C 	C 	0.39573	0.76753	0.46	0.118
Mof_H 	H 	0.3924	0.7935	0.3407	-0.019
Mof_N 	N 	0.4399	0.74392	0.5069	-0.174
Mof_C 	C 	0.37787	0.71236	0.7495	0.041
Mof_O 	O 	0.66658	0.77774	0.1316	-0.539
Mof_C 	C 	0.356	0.68351	0.9341	-0.096
Mof_H 	H 	0.322	0.6875	0.9735	0.036
Mof_O 	O 	0.6286	0.82	0.831	-0.216
Mof_C 	C 	0.38479	0.64797	0.0635	0.005
Mof_C 	C 	0.36403	0.6179	0.2648	-0.063
Mof_H 	H 	0.3302	0.6216	0.3092	0.044
Mof_C 	C 	0.3934	0.58352	0.394	-0.046
Mof_H 	H 	0.3798	0.5646	0.5281	0.042
Mof_C 	C 	0.4435	0.5771	0.3236	-0.012
Mof_H 	H 	0.4627	0.5528	0.4077	0.029
Mof_C 	C 	0.46498	0.60508	0.1361	-0.097
Mof_H 	H 	0.4987	0.5997	0.0942	0.059
Mof_C 	C 	0.43734	0.6424	0.002	0.04
Mof_C 	C 	0.45958	0.67215	0.8158	-0.121
Mof_H 	H 	0.4935	0.6683	0.7746	0.075
Mof_C 	C 	0.43032	0.70763	0.6925	0.081
Mof_C 	C 	0.48756	0.75733	0.3972	0.208
Mof_C 	C 	0.57888	0.7845	0.1827	-0.197
Mof_C 	C 	0.4952	0.8056	0.329	-0.072
Mof_H 	H 	0.4687	0.8285	0.3421	0.064
Mof_C 	C 	0.541	0.8217	0.243	0.016
Mof_H 	H 	0.5476	0.856	0.2225	0.041
Mof_C 	C 	0.5698	0.7374	0.25	-0.126
Mof_H 	H 	0.5954	0.7135	0.2358	0.07
Mof_C 	C 	0.5227	0.7228	0.3406	0.015
Mof_H 	H 	0.5155	0.6887	0.3622	0.023
Mof_C 	C 	0.6288	0.7984	0.0597	0.456
Mof_O 	O 	0.6326	0.8462	-0	-0.215
Mof_C 	C 	0.4878	0.774	0.152	-0.175
Mof_H 	H 	0.458	0.7759	0.0577	0.087
Mof_C 	C 	0.5349	0.7888	0.041	0.064
Mof_H 	H 	0.536	0.8012	0.8732	0.034
Mof_C 	C 	0.5776	0.7655	0.416	0.258
Mof_H 	H 	0.6078	0.7602	0.503	-0.053
Mof_C 	C 	0.5328	0.7529	0.535	-0.276
Mof_H 	H 	0.5327	0.7417	0.7053	0.131
_end
