data_functionalizedCrystal
_audit_creation_method	'EQeq! by Chris Wilmer'
_symmetry_space_group_name_H-M	'P1'
_symmetry_Int_Tables_number	1
_symmetry_cell_setting	triclinic
loop_
_symmetry_equiv_pos_as_xyz
  x,y,z
_cell_length_a	19.522
_cell_length_b	19.522
_cell_length_c	33.791
_cell_angle_alpha	90
_cell_angle_beta	90
_cell_angle_gamma	90
loop_
_atom_site_label
_atom_site_type_symbol
_atom_site_fract_x
_atom_site_fract_y
_atom_site_fract_z
_atom_site_charge
Mof_Cd	Cd	0.64422	0.1579	0.74915	0.342
Mof_Cd	Cd	0.35578	0.8421	0.74915	0.342
Mof_Cd	Cd	0.8421	0.64422	0.24915	0.342
Mof_Cd	Cd	0.1579	0.35578	0.24915	0.342
Mof_Cd	Cd	0.35578	0.8421	0.25085	0.342
Mof_Cd	Cd	0.64422	0.1579	0.25085	0.342
Mof_Cd	Cd	0.1579	0.35578	0.75085	0.342
Mof_Cd	Cd	0.8421	0.64422	0.75085	0.342
Mof_Cd	Cd	0.67136	0.37773	-0	0.338
Mof_Cd	Cd	0.32864	0.62227	-0	0.338
Mof_Cd	Cd	0.62227	0.67136	0.5	0.339
Mof_Cd	Cd	0.37773	0.32864	0.5	0.339
Mof_Cd	Cd	0.89128	0.17985	0.5	0.338
Mof_Cd	Cd	0.10872	0.82015	0.5	0.338
Mof_Cd	Cd	0.82015	0.89128	-0	0.336
Mof_Cd	Cd	0.17985	0.10872	-0	0.336
Mof_H 	H 	0.506	0.3554	0.9657	0.107
Mof_H 	H 	0.5407	0.0922	0.8171	0.106
Mof_H 	H 	0.596	0.0479	0.6823	0.107
Mof_H 	H 	0.8613	0.0186	0.5358	0.105
Mof_H 	H 	0.4787	0.1524	0.7266	0.111
Mof_H 	H 	0.4702	0.4013	0.5655	0.107
Mof_H 	H 	0.6409	0.9932	0.7761	0.108
Mof_H 	H 	0.8992	0.9767	0.9324	0.109
Mof_H 	H 	0.7142	0.2665	0.9399	0.217
Mof_H 	H 	0.6914	0.2213	0.9032	0.211
Mof_H 	H 	0.7097	0.2996	0.8972	0.208
Mof_H 	H 	0.408	0.3334	0.9209	0.214
Mof_H 	H 	0.4276	0.3039	0.8787	0.212
Mof_H 	H 	0.4122	0.2532	0.9143	0.215
Mof_H 	H 	0.6082	0.3038	0.7835	0.213
Mof_H 	H 	0.5673	0.3399	0.8182	0.204
Mof_H 	H 	0.6451	0.3192	0.8243	0.203
Mof_H 	H 	0.547	0.0804	0.9055	0.188
Mof_H 	H 	0.4881	0.134	0.9145	0.195
Mof_H 	H 	0.477	0.0769	0.8818	0.183
Mof_H 	H 	0.8042	0.1323	0.7149	0.188
Mof_H 	H 	0.8392	0.1209	0.6731	0.189
Mof_H 	H 	0.7954	0.1877	0.6811	0.185
Mof_H 	H 	0.5687	0.0343	0.6058	0.185
Mof_H 	H 	0.6346	0.0192	0.5799	0.196
Mof_H 	H 	0.6095	0.965	0.6116	0.183
Mof_H 	H 	0.8059	0.2257	0.6034	0.197
Mof_H 	H 	0.7806	0.2311	0.559	0.206
Mof_H 	H 	0.7282	0.2114	0.5929	0.199
Mof_H 	H 	0.7576	0.924	0.5831	0.2
Mof_H 	H 	0.8387	0.9232	0.5805	0.196
Mof_H 	H 	0.8022	0.94	0.6212	0.193
Mof_H 	H 	0.6659	0.2501	0.6739	0.196
Mof_H 	H 	0.6377	0.2499	0.6299	0.188
Mof_H 	H 	0.6254	0.3144	0.6574	0.185
Mof_H 	H 	0.3555	0.2177	0.6891	0.198
Mof_H 	H 	0.3667	0.1838	0.647	0.187
Mof_H 	H 	0.3728	0.1386	0.6858	0.195
Mof_H 	H 	0.4517	0.1743	0.5402	0.186
Mof_H 	H 	0.4776	0.1498	0.5823	0.183
Mof_H 	H 	0.399	0.1659	0.5755	0.178
Mof_H 	H 	0.5063	0.4454	0.6283	0.18
Mof_H 	H 	0.4783	0.4005	0.6638	0.188
Mof_H 	H 	0.5554	0.3929	0.65	0.183
Mof_H 	H 	0.7317	0.179	0.843	0.191
Mof_H 	H 	0.7953	0.1382	0.86	0.19
Mof_H 	H 	0.7943	0.1611	0.8151	0.188
Mof_H 	H 	0.6959	0.8712	0.8089	0.205
Mof_H 	H 	0.6927	0.8839	0.8552	0.2
Mof_H 	H 	0.6261	0.8933	0.829	0.205
Mof_H 	H 	0.6585	0.0097	0.9429	0.185
Mof_H 	H 	0.6477	0.953	0.9099	0.18
Mof_H 	H 	0.6738	0.9318	0.9526	0.19
Mof_H 	H 	0.9369	0.9833	0.8606	0.193
Mof_H 	H 	0.8815	0.0116	0.8305	0.2
Mof_H 	H 	0.916	0.0617	0.8615	0.191
Mof_H 	H 	0.494	0.6446	0.9657	0.108
Mof_H 	H 	0.4593	0.9078	0.8171	0.107
Mof_H 	H 	0.404	0.9521	0.6823	0.107
Mof_H 	H 	0.1387	0.9814	0.5358	0.105
Mof_H 	H 	0.5213	0.8476	0.7266	0.111
Mof_H 	H 	0.5298	0.5987	0.5655	0.107
Mof_H 	H 	0.3591	0.0068	0.7761	0.108
Mof_H 	H 	0.1008	0.0233	0.9324	0.109
Mof_H 	H 	0.2858	0.7335	0.9399	0.217
Mof_H 	H 	0.3086	0.7787	0.9032	0.211
Mof_H 	H 	0.2903	0.7004	0.8972	0.208
Mof_H 	H 	0.592	0.6666	0.9209	0.214
Mof_H 	H 	0.5724	0.6961	0.8787	0.212
Mof_H 	H 	0.5878	0.7468	0.9143	0.215
Mof_H 	H 	0.3918	0.6962	0.7835	0.213
Mof_H 	H 	0.4327	0.6601	0.8182	0.204
Mof_H 	H 	0.3549	0.6808	0.8243	0.203
Mof_H 	H 	0.453	0.9196	0.9055	0.188
Mof_H 	H 	0.5119	0.866	0.9145	0.195
Mof_H 	H 	0.523	0.9231	0.8818	0.183
Mof_H 	H 	0.1958	0.8677	0.7149	0.188
Mof_H 	H 	0.1608	0.8791	0.6731	0.189
Mof_H 	H 	0.2046	0.8123	0.6811	0.185
Mof_H 	H 	0.4313	0.9657	0.6058	0.185
Mof_H 	H 	0.3654	0.9808	0.5799	0.196
Mof_H 	H 	0.3905	0.035	0.6116	0.183
Mof_H 	H 	0.1941	0.7743	0.6034	0.197
Mof_H 	H 	0.2194	0.7689	0.559	0.206
Mof_H 	H 	0.2718	0.7886	0.5929	0.199
Mof_H 	H 	0.2424	0.076	0.5831	0.2
Mof_H 	H 	0.1613	0.0768	0.5805	0.196
Mof_H 	H 	0.1978	0.06	0.6212	0.193
Mof_H 	H 	0.3341	0.7499	0.6739	0.196
Mof_H 	H 	0.3623	0.7501	0.6299	0.188
Mof_H 	H 	0.3746	0.6856	0.6574	0.185
Mof_H 	H 	0.6445	0.7823	0.6891	0.198
Mof_H 	H 	0.6333	0.8162	0.647	0.187
Mof_H 	H 	0.6272	0.8614	0.6858	0.195
Mof_H 	H 	0.5483	0.8257	0.5402	0.186
Mof_H 	H 	0.5224	0.8502	0.5823	0.183
Mof_H 	H 	0.601	0.8341	0.5755	0.178
Mof_H 	H 	0.4937	0.5546	0.6283	0.18
Mof_H 	H 	0.5217	0.5995	0.6638	0.188
Mof_H 	H 	0.4446	0.6071	0.65	0.183
Mof_H 	H 	0.2683	0.821	0.843	0.191
Mof_H 	H 	0.2047	0.8618	0.86	0.19
Mof_H 	H 	0.2057	0.8389	0.8151	0.188
Mof_H 	H 	0.3041	0.1288	0.8089	0.205
Mof_H 	H 	0.3073	0.1161	0.8552	0.2
Mof_H 	H 	0.3739	0.1067	0.829	0.205
Mof_H 	H 	0.3415	0.9903	0.9429	0.185
Mof_H 	H 	0.3523	0.047	0.9099	0.18
Mof_H 	H 	0.3262	0.0682	0.9526	0.19
Mof_H 	H 	0.0631	0.0167	0.8606	0.193
Mof_H 	H 	0.1185	0.9884	0.8305	0.2
Mof_H 	H 	0.084	0.9383	0.8615	0.191
Mof_H 	H 	0.6446	0.506	0.4657	0.108
Mof_H 	H 	0.9078	0.5407	0.3171	0.107
Mof_H 	H 	0.9521	0.596	0.1823	0.107
Mof_H 	H 	0.9814	0.8613	0.0358	0.105
Mof_H 	H 	0.8476	0.4787	0.2266	0.111
Mof_H 	H 	0.5987	0.4702	0.0655	0.106
Mof_H 	H 	0.0068	0.6409	0.2761	0.108
Mof_H 	H 	0.0233	0.8992	0.4324	0.109
Mof_H 	H 	0.7335	0.7142	0.4399	0.216
Mof_H 	H 	0.7787	0.6914	0.4032	0.21
Mof_H 	H 	0.7004	0.7097	0.3972	0.208
Mof_H 	H 	0.6666	0.408	0.4209	0.213
Mof_H 	H 	0.6961	0.4276	0.3787	0.212
Mof_H 	H 	0.7468	0.4122	0.4143	0.215
Mof_H 	H 	0.6962	0.6082	0.2835	0.213
Mof_H 	H 	0.6601	0.5673	0.3182	0.204
Mof_H 	H 	0.6808	0.6451	0.3243	0.203
Mof_H 	H 	0.9196	0.547	0.4055	0.188
Mof_H 	H 	0.866	0.4881	0.4145	0.195
Mof_H 	H 	0.9231	0.477	0.3818	0.183
Mof_H 	H 	0.8677	0.8042	0.2149	0.188
Mof_H 	H 	0.8791	0.8392	0.1731	0.189
Mof_H 	H 	0.8123	0.7954	0.1811	0.185
Mof_H 	H 	0.9657	0.5687	0.1058	0.184
Mof_H 	H 	0.9808	0.6346	0.0799	0.196
Mof_H 	H 	0.035	0.6095	0.1116	0.183
Mof_H 	H 	0.7743	0.8059	0.1034	0.197
Mof_H 	H 	0.7689	0.7806	0.059	0.206
Mof_H 	H 	0.7886	0.7282	0.0929	0.199
Mof_H 	H 	0.076	0.7576	0.0831	0.2
Mof_H 	H 	0.0768	0.8387	0.0805	0.196
Mof_H 	H 	0.06	0.8022	0.1212	0.193
Mof_H 	H 	0.7499	0.6659	0.1739	0.196
Mof_H 	H 	0.7501	0.6377	0.1299	0.188
Mof_H 	H 	0.6856	0.6254	0.1574	0.185
Mof_H 	H 	0.7823	0.3555	0.1891	0.198
Mof_H 	H 	0.8162	0.3667	0.147	0.187
Mof_H 	H 	0.8614	0.3728	0.1858	0.195
Mof_H 	H 	0.8257	0.4517	0.0402	0.185
Mof_H 	H 	0.8502	0.4776	0.0823	0.182
Mof_H 	H 	0.8341	0.399	0.0755	0.178
Mof_H 	H 	0.5546	0.5063	0.1283	0.18
Mof_H 	H 	0.5995	0.4783	0.1638	0.188
Mof_H 	H 	0.6071	0.5554	0.15	0.183
Mof_H 	H 	0.821	0.7317	0.343	0.191
Mof_H 	H 	0.8618	0.7953	0.36	0.19
Mof_H 	H 	0.8389	0.7943	0.3151	0.188
Mof_H 	H 	0.1288	0.6959	0.3089	0.205
Mof_H 	H 	0.1161	0.6927	0.3552	0.2
Mof_H 	H 	0.1067	0.6261	0.329	0.205
Mof_H 	H 	0.9903	0.6585	0.4429	0.184
Mof_H 	H 	0.047	0.6477	0.4099	0.179
Mof_H 	H 	0.0682	0.6738	0.4526	0.189
Mof_H 	H 	0.0167	0.9369	0.3606	0.193
Mof_H 	H 	0.9884	0.8815	0.3305	0.2
Mof_H 	H 	0.9383	0.916	0.3615	0.191
Mof_H 	H 	0.3554	0.494	0.4657	0.108
Mof_H 	H 	0.0922	0.4593	0.3171	0.107
Mof_H 	H 	0.0479	0.404	0.1823	0.107
Mof_H 	H 	0.0186	0.1387	0.0358	0.105
Mof_H 	H 	0.1524	0.5213	0.2266	0.111
Mof_H 	H 	0.4013	0.5298	0.0655	0.106
Mof_H 	H 	0.9932	0.3591	0.2761	0.108
Mof_H 	H 	0.9767	0.1008	0.4324	0.109
Mof_H 	H 	0.2665	0.2858	0.4399	0.216
Mof_H 	H 	0.2213	0.3086	0.4032	0.21
Mof_H 	H 	0.2996	0.2903	0.3972	0.208
Mof_H 	H 	0.3334	0.592	0.4209	0.213
Mof_H 	H 	0.3039	0.5724	0.3787	0.212
Mof_H 	H 	0.2532	0.5878	0.4143	0.215
Mof_H 	H 	0.3038	0.3918	0.2835	0.213
Mof_H 	H 	0.3399	0.4327	0.3182	0.204
Mof_H 	H 	0.3192	0.3549	0.3243	0.203
Mof_H 	H 	0.0804	0.453	0.4055	0.188
Mof_H 	H 	0.134	0.5119	0.4145	0.195
Mof_H 	H 	0.0769	0.523	0.3818	0.183
Mof_H 	H 	0.1323	0.1958	0.2149	0.188
Mof_H 	H 	0.1209	0.1608	0.1731	0.189
Mof_H 	H 	0.1877	0.2046	0.1811	0.185
Mof_H 	H 	0.0343	0.4313	0.1058	0.184
Mof_H 	H 	0.0192	0.3654	0.0799	0.196
Mof_H 	H 	0.965	0.3905	0.1116	0.183
Mof_H 	H 	0.2257	0.1941	0.1034	0.197
Mof_H 	H 	0.2311	0.2194	0.059	0.206
Mof_H 	H 	0.2114	0.2718	0.0929	0.199
Mof_H 	H 	0.924	0.2424	0.0831	0.2
Mof_H 	H 	0.9232	0.1613	0.0805	0.196
Mof_H 	H 	0.94	0.1978	0.1212	0.193
Mof_H 	H 	0.2501	0.3341	0.1739	0.196
Mof_H 	H 	0.2499	0.3623	0.1299	0.188
Mof_H 	H 	0.3144	0.3746	0.1574	0.185
Mof_H 	H 	0.2177	0.6445	0.1891	0.198
Mof_H 	H 	0.1838	0.6333	0.147	0.187
Mof_H 	H 	0.1386	0.6272	0.1858	0.195
Mof_H 	H 	0.1743	0.5483	0.0402	0.185
Mof_H 	H 	0.1498	0.5224	0.0823	0.182
Mof_H 	H 	0.1659	0.601	0.0755	0.178
Mof_H 	H 	0.4454	0.4937	0.1283	0.18
Mof_H 	H 	0.4005	0.5217	0.1638	0.188
Mof_H 	H 	0.3929	0.4446	0.15	0.183
Mof_H 	H 	0.179	0.2683	0.343	0.191
Mof_H 	H 	0.1382	0.2047	0.36	0.19
Mof_H 	H 	0.1611	0.2057	0.3151	0.188
Mof_H 	H 	0.8712	0.3041	0.3089	0.205
Mof_H 	H 	0.8839	0.3073	0.3552	0.2
Mof_H 	H 	0.8933	0.3739	0.329	0.205
Mof_H 	H 	0.0097	0.3415	0.4429	0.184
Mof_H 	H 	0.953	0.3523	0.4099	0.179
Mof_H 	H 	0.9318	0.3262	0.4526	0.189
Mof_H 	H 	0.9833	0.0631	0.3606	0.193
Mof_H 	H 	0.0116	0.1185	0.3305	0.2
Mof_H 	H 	0.0617	0.084	0.3615	0.191
Mof_H 	H 	0.494	0.6446	0.0343	0.107
Mof_H 	H 	0.4593	0.9078	0.1829	0.107
Mof_H 	H 	0.404	0.9521	0.3177	0.107
Mof_H 	H 	0.1387	0.9814	0.4642	0.105
Mof_H 	H 	0.5213	0.8476	0.2734	0.111
Mof_H 	H 	0.5298	0.5987	0.4345	0.107
Mof_H 	H 	0.3591	0.0068	0.2239	0.108
Mof_H 	H 	0.1008	0.0233	0.0676	0.109
Mof_H 	H 	0.2858	0.7335	0.0601	0.216
Mof_H 	H 	0.3086	0.7787	0.0968	0.21
Mof_H 	H 	0.2903	0.7004	0.1028	0.207
Mof_H 	H 	0.592	0.6666	0.0791	0.213
Mof_H 	H 	0.5724	0.6961	0.1213	0.212
Mof_H 	H 	0.5878	0.7468	0.0857	0.215
Mof_H 	H 	0.3918	0.6962	0.2165	0.213
Mof_H 	H 	0.4327	0.6601	0.1818	0.204
Mof_H 	H 	0.3549	0.6808	0.1757	0.203
Mof_H 	H 	0.453	0.9196	0.0945	0.188
Mof_H 	H 	0.5119	0.866	0.0855	0.194
Mof_H 	H 	0.523	0.9231	0.1182	0.182
Mof_H 	H 	0.1958	0.8677	0.2851	0.188
Mof_H 	H 	0.1608	0.8791	0.3269	0.189
Mof_H 	H 	0.2046	0.8123	0.3189	0.185
Mof_H 	H 	0.4313	0.9657	0.3942	0.185
Mof_H 	H 	0.3654	0.9808	0.4201	0.196
Mof_H 	H 	0.3905	0.035	0.3884	0.183
Mof_H 	H 	0.1941	0.7743	0.3966	0.197
Mof_H 	H 	0.2194	0.7689	0.441	0.206
Mof_H 	H 	0.2718	0.7886	0.4071	0.199
Mof_H 	H 	0.2424	0.076	0.4169	0.2
Mof_H 	H 	0.1613	0.0768	0.4195	0.196
Mof_H 	H 	0.1978	0.06	0.3788	0.193
Mof_H 	H 	0.3341	0.7499	0.3261	0.196
Mof_H 	H 	0.3623	0.7501	0.3701	0.188
Mof_H 	H 	0.3746	0.6856	0.3426	0.185
Mof_H 	H 	0.6445	0.7823	0.3109	0.198
Mof_H 	H 	0.6333	0.8162	0.353	0.187
Mof_H 	H 	0.6272	0.8614	0.3142	0.195
Mof_H 	H 	0.5483	0.8257	0.4598	0.186
Mof_H 	H 	0.5224	0.8502	0.4177	0.183
Mof_H 	H 	0.601	0.8341	0.4245	0.178
Mof_H 	H 	0.4937	0.5546	0.3717	0.18
Mof_H 	H 	0.5217	0.5995	0.3362	0.188
Mof_H 	H 	0.4446	0.6071	0.35	0.183
Mof_H 	H 	0.2683	0.821	0.157	0.191
Mof_H 	H 	0.2047	0.8618	0.14	0.19
Mof_H 	H 	0.2057	0.8389	0.1849	0.188
Mof_H 	H 	0.3041	0.1288	0.1911	0.205
Mof_H 	H 	0.3073	0.1161	0.1448	0.2
Mof_H 	H 	0.3739	0.1067	0.171	0.205
Mof_H 	H 	0.3415	0.9903	0.0571	0.183
Mof_H 	H 	0.3523	0.047	0.0901	0.179
Mof_H 	H 	0.3262	0.0682	0.0474	0.189
Mof_H 	H 	0.0631	0.0167	0.1394	0.193
Mof_H 	H 	0.1185	0.9884	0.1695	0.2
Mof_H 	H 	0.084	0.9383	0.1385	0.191
Mof_H 	H 	0.506	0.3554	0.0343	0.107
Mof_H 	H 	0.5407	0.0922	0.1829	0.107
Mof_H 	H 	0.596	0.0479	0.3177	0.107
Mof_H 	H 	0.8613	0.0186	0.4642	0.105
Mof_H 	H 	0.4787	0.1524	0.2734	0.111
Mof_H 	H 	0.4702	0.4013	0.4345	0.107
Mof_H 	H 	0.6409	0.9932	0.2239	0.108
Mof_H 	H 	0.8992	0.9767	0.0676	0.109
Mof_H 	H 	0.7142	0.2665	0.0601	0.216
Mof_H 	H 	0.6914	0.2213	0.0968	0.21
Mof_H 	H 	0.7097	0.2996	0.1028	0.207
Mof_H 	H 	0.408	0.3334	0.0791	0.213
Mof_H 	H 	0.4276	0.3039	0.1213	0.212
Mof_H 	H 	0.4122	0.2532	0.0857	0.215
Mof_H 	H 	0.6082	0.3038	0.2165	0.213
Mof_H 	H 	0.5673	0.3399	0.1818	0.204
Mof_H 	H 	0.6451	0.3192	0.1757	0.203
Mof_H 	H 	0.547	0.0804	0.0945	0.188
Mof_H 	H 	0.4881	0.134	0.0855	0.194
Mof_H 	H 	0.477	0.0769	0.1182	0.182
Mof_H 	H 	0.8042	0.1323	0.2851	0.188
Mof_H 	H 	0.8392	0.1209	0.3269	0.189
Mof_H 	H 	0.7954	0.1877	0.3189	0.185
Mof_H 	H 	0.5687	0.0343	0.3942	0.185
Mof_H 	H 	0.6346	0.0192	0.4201	0.196
Mof_H 	H 	0.6095	0.965	0.3884	0.183
Mof_H 	H 	0.8059	0.2257	0.3966	0.197
Mof_H 	H 	0.7806	0.2311	0.441	0.206
Mof_H 	H 	0.7282	0.2114	0.4071	0.199
Mof_H 	H 	0.7576	0.924	0.4169	0.2
Mof_H 	H 	0.8387	0.9232	0.4195	0.196
Mof_H 	H 	0.8022	0.94	0.3788	0.193
Mof_H 	H 	0.6659	0.2501	0.3261	0.196
Mof_H 	H 	0.6377	0.2499	0.3701	0.188
Mof_H 	H 	0.6254	0.3144	0.3426	0.185
Mof_H 	H 	0.3555	0.2177	0.3109	0.198
Mof_H 	H 	0.3667	0.1838	0.353	0.187
Mof_H 	H 	0.3728	0.1386	0.3142	0.195
Mof_H 	H 	0.4517	0.1743	0.4598	0.186
Mof_H 	H 	0.4776	0.1498	0.4177	0.183
Mof_H 	H 	0.399	0.1659	0.4245	0.178
Mof_H 	H 	0.5063	0.4454	0.3717	0.18
Mof_H 	H 	0.4783	0.4005	0.3362	0.188
Mof_H 	H 	0.5554	0.3929	0.35	0.183
Mof_H 	H 	0.7317	0.179	0.157	0.191
Mof_H 	H 	0.7953	0.1382	0.14	0.19
Mof_H 	H 	0.7943	0.1611	0.1849	0.188
Mof_H 	H 	0.6959	0.8712	0.1911	0.205
Mof_H 	H 	0.6927	0.8839	0.1448	0.2
Mof_H 	H 	0.6261	0.8933	0.171	0.205
Mof_H 	H 	0.6585	0.0097	0.0571	0.183
Mof_H 	H 	0.6477	0.953	0.0901	0.179
Mof_H 	H 	0.6738	0.9318	0.0474	0.189
Mof_H 	H 	0.9369	0.9833	0.1394	0.193
Mof_H 	H 	0.8815	0.0116	0.1695	0.2
Mof_H 	H 	0.916	0.0617	0.1385	0.191
Mof_H 	H 	0.3554	0.494	0.5343	0.108
Mof_H 	H 	0.0922	0.4593	0.6829	0.107
Mof_H 	H 	0.0479	0.404	0.8177	0.107
Mof_H 	H 	0.0186	0.1387	0.9642	0.106
Mof_H 	H 	0.1524	0.5213	0.7734	0.111
Mof_H 	H 	0.4013	0.5298	0.9345	0.107
Mof_H 	H 	0.9932	0.3591	0.7239	0.108
Mof_H 	H 	0.9767	0.1008	0.5676	0.109
Mof_H 	H 	0.2665	0.2858	0.5601	0.216
Mof_H 	H 	0.2213	0.3086	0.5968	0.21
Mof_H 	H 	0.2996	0.2903	0.6028	0.208
Mof_H 	H 	0.3334	0.592	0.5791	0.213
Mof_H 	H 	0.3039	0.5724	0.6213	0.212
Mof_H 	H 	0.2532	0.5878	0.5857	0.215
Mof_H 	H 	0.3038	0.3918	0.7165	0.213
Mof_H 	H 	0.3399	0.4327	0.6818	0.204
Mof_H 	H 	0.3192	0.3549	0.6757	0.203
Mof_H 	H 	0.0804	0.453	0.5945	0.188
Mof_H 	H 	0.134	0.5119	0.5855	0.195
Mof_H 	H 	0.0769	0.523	0.6182	0.183
Mof_H 	H 	0.1323	0.1958	0.7851	0.188
Mof_H 	H 	0.1209	0.1608	0.8269	0.189
Mof_H 	H 	0.1877	0.2046	0.8189	0.185
Mof_H 	H 	0.0343	0.4313	0.8942	0.185
Mof_H 	H 	0.0192	0.3654	0.9201	0.197
Mof_H 	H 	0.965	0.3905	0.8884	0.183
Mof_H 	H 	0.2257	0.1941	0.8966	0.197
Mof_H 	H 	0.2311	0.2194	0.941	0.207
Mof_H 	H 	0.2114	0.2718	0.9071	0.199
Mof_H 	H 	0.924	0.2424	0.9169	0.201
Mof_H 	H 	0.9232	0.1613	0.9195	0.196
Mof_H 	H 	0.94	0.1978	0.8788	0.193
Mof_H 	H 	0.2501	0.3341	0.8261	0.196
Mof_H 	H 	0.2499	0.3623	0.8701	0.188
Mof_H 	H 	0.3144	0.3746	0.8426	0.185
Mof_H 	H 	0.2177	0.6445	0.8109	0.198
Mof_H 	H 	0.1838	0.6333	0.853	0.187
Mof_H 	H 	0.1386	0.6272	0.8142	0.195
Mof_H 	H 	0.1743	0.5483	0.9598	0.187
Mof_H 	H 	0.1498	0.5224	0.9177	0.183
Mof_H 	H 	0.1659	0.601	0.9245	0.178
Mof_H 	H 	0.4454	0.4937	0.8717	0.18
Mof_H 	H 	0.4005	0.5217	0.8362	0.188
Mof_H 	H 	0.3929	0.4446	0.85	0.183
Mof_H 	H 	0.179	0.2683	0.657	0.191
Mof_H 	H 	0.1382	0.2047	0.64	0.19
Mof_H 	H 	0.1611	0.2057	0.6849	0.188
Mof_H 	H 	0.8712	0.3041	0.6911	0.205
Mof_H 	H 	0.8839	0.3073	0.6448	0.2
Mof_H 	H 	0.8933	0.3739	0.671	0.205
Mof_H 	H 	0.0097	0.3415	0.5571	0.184
Mof_H 	H 	0.953	0.3523	0.5901	0.179
Mof_H 	H 	0.9318	0.3262	0.5474	0.189
Mof_H 	H 	0.9833	0.0631	0.6394	0.193
Mof_H 	H 	0.0116	0.1185	0.6695	0.2
Mof_H 	H 	0.0617	0.084	0.6385	0.191
Mof_H 	H 	0.6446	0.506	0.5343	0.108
Mof_H 	H 	0.9078	0.5407	0.6829	0.107
Mof_H 	H 	0.9521	0.596	0.8177	0.107
Mof_H 	H 	0.9814	0.8613	0.9642	0.106
Mof_H 	H 	0.8476	0.4787	0.7734	0.111
Mof_H 	H 	0.5987	0.4702	0.9345	0.107
Mof_H 	H 	0.0068	0.6409	0.7239	0.108
Mof_H 	H 	0.0233	0.8992	0.5676	0.109
Mof_H 	H 	0.7335	0.7142	0.5601	0.216
Mof_H 	H 	0.7787	0.6914	0.5968	0.21
Mof_H 	H 	0.7004	0.7097	0.6028	0.208
Mof_H 	H 	0.6666	0.408	0.5791	0.213
Mof_H 	H 	0.6961	0.4276	0.6213	0.212
Mof_H 	H 	0.7468	0.4122	0.5857	0.215
Mof_H 	H 	0.6962	0.6082	0.7165	0.213
Mof_H 	H 	0.6601	0.5673	0.6818	0.204
Mof_H 	H 	0.6808	0.6451	0.6757	0.203
Mof_H 	H 	0.9196	0.547	0.5945	0.188
Mof_H 	H 	0.866	0.4881	0.5855	0.195
Mof_H 	H 	0.9231	0.477	0.6182	0.183
Mof_H 	H 	0.8677	0.8042	0.7851	0.188
Mof_H 	H 	0.8791	0.8392	0.8269	0.189
Mof_H 	H 	0.8123	0.7954	0.8189	0.185
Mof_H 	H 	0.9657	0.5687	0.8942	0.185
Mof_H 	H 	0.9808	0.6346	0.9201	0.197
Mof_H 	H 	0.035	0.6095	0.8884	0.183
Mof_H 	H 	0.7743	0.8059	0.8966	0.197
Mof_H 	H 	0.7689	0.7806	0.941	0.207
Mof_H 	H 	0.7886	0.7282	0.9071	0.199
Mof_H 	H 	0.076	0.7576	0.9169	0.201
Mof_H 	H 	0.0768	0.8387	0.9195	0.196
Mof_H 	H 	0.06	0.8022	0.8788	0.193
Mof_H 	H 	0.7499	0.6659	0.8261	0.196
Mof_H 	H 	0.7501	0.6377	0.8701	0.188
Mof_H 	H 	0.6856	0.6254	0.8426	0.185
Mof_H 	H 	0.7823	0.3555	0.8109	0.198
Mof_H 	H 	0.8162	0.3667	0.853	0.187
Mof_H 	H 	0.8614	0.3728	0.8142	0.195
Mof_H 	H 	0.8257	0.4517	0.9598	0.187
Mof_H 	H 	0.8502	0.4776	0.9177	0.183
Mof_H 	H 	0.8341	0.399	0.9245	0.178
Mof_H 	H 	0.5546	0.5063	0.8717	0.18
Mof_H 	H 	0.5995	0.4783	0.8362	0.188
Mof_H 	H 	0.6071	0.5554	0.85	0.183
Mof_H 	H 	0.821	0.7317	0.657	0.191
Mof_H 	H 	0.8618	0.7953	0.64	0.19
Mof_H 	H 	0.8389	0.7943	0.6849	0.188
Mof_H 	H 	0.1288	0.6959	0.6911	0.205
Mof_H 	H 	0.1161	0.6927	0.6448	0.2
Mof_H 	H 	0.1067	0.6261	0.671	0.205
Mof_H 	H 	0.9903	0.6585	0.5571	0.184
Mof_H 	H 	0.047	0.6477	0.5901	0.179
Mof_H 	H 	0.0682	0.6738	0.5474	0.189
Mof_H 	H 	0.0167	0.9369	0.6394	0.193
Mof_H 	H 	0.9884	0.8815	0.6695	0.2
Mof_H 	H 	0.9383	0.916	0.6385	0.191
Mof_C 	C 	0.6893	0.2665	0.915	-0.678
Mof_C 	C 	0.6179	0.2849	0.9223	0.252
Mof_C 	C 	0.5595	0.2669	0.8996	-0.155
Mof_C 	C 	0.5041	0.2982	0.918	0.262
Mof_C 	C 	0.4319	0.2971	0.9071	-0.692
Mof_C 	C 	0.6022	0.3061	0.8119	-0.654
Mof_C 	C 	0.5808	0.2388	0.8269	0.236
Mof_C 	C 	0.5587	0.2209	0.8646	-0.147
Mof_C 	C 	0.5391	0.1546	0.863	0.227
Mof_C 	C 	0.5102	0.1073	0.8939	-0.617
Mof_C 	C 	0.7993	0.1391	0.6866	-0.598
Mof_C 	C 	0.7359	0.1027	0.6722	0.204
Mof_C 	C 	0.7235	0.0752	0.6341	-0.123
Mof_C 	C 	0.658	0.0472	0.6367	0.213
Mof_C 	C 	0.6138	0.0134	0.6057	-0.612
Mof_C 	C 	0.775	0.2067	0.5838	-0.643
Mof_C 	C 	0.791	0.1332	0.5778	0.235
Mof_C 	C 	0.7694	0.076	0.5991	-0.154
Mof_C 	C 	0.7992	0.019	0.5825	0.236
Mof_C 	C 	0.7994	0.9452	0.5927	-0.642
Mof_C 	C 	0.6287	0.2649	0.6568	-0.607
Mof_C 	C 	0.5631	0.2343	0.6709	0.219
Mof_C 	C 	0.4994	0.2365	0.6525	-0.143
Mof_C 	C 	0.4558	0.1995	0.6768	0.229
Mof_C 	C 	0.3812	0.1835	0.6745	-0.63
Mof_C 	C 	0.4453	0.1791	0.5685	-0.589
Mof_C 	C 	0.4573	0.2527	0.5803	0.201
Mof_C 	C 	0.4815	0.2753	0.6168	-0.128
Mof_C 	C 	0.4882	0.3464	0.6126	0.217
Mof_C 	C 	0.5089	0.4011	0.6412	-0.608
Mof_C 	C 	0.7665	0.1452	0.837	-0.616
Mof_C 	C 	0.7328	0.0788	0.8259	0.215
Mof_C 	C 	0.7357	0.0154	0.8455	-0.141
Mof_C 	C 	0.6931	0.972	0.8234	0.238
Mof_C 	C 	0.6754	0.8987	0.8297	-0.66
Mof_C 	C 	0.6757	0.9669	0.9323	-0.593
Mof_C 	C 	0.7491	0.9762	0.9189	0.202
Mof_C 	C 	0.774	0.998	0.882	-0.14
Mof_C 	C 	0.8445	0.9998	0.8859	0.233
Mof_C 	C 	0.8995	0.0155	0.8571	-0.646
Mof_C 	C 	0.7238	0.3033	0.7368	0.036
Mof_C 	C 	0.3107	0.7335	0.915	-0.678
Mof_C 	C 	0.3821	0.7151	0.9223	0.252
Mof_C 	C 	0.4405	0.7331	0.8996	-0.155
Mof_C 	C 	0.4959	0.7018	0.918	0.262
Mof_C 	C 	0.5681	0.7029	0.9071	-0.692
Mof_C 	C 	0.3978	0.6939	0.8119	-0.654
Mof_C 	C 	0.4192	0.7612	0.8269	0.236
Mof_C 	C 	0.4413	0.7791	0.8646	-0.147
Mof_C 	C 	0.4609	0.8454	0.863	0.227
Mof_C 	C 	0.4898	0.8927	0.8939	-0.617
Mof_C 	C 	0.2007	0.8609	0.6866	-0.598
Mof_C 	C 	0.2641	0.8973	0.6722	0.204
Mof_C 	C 	0.2765	0.9248	0.6341	-0.123
Mof_C 	C 	0.342	0.9528	0.6367	0.213
Mof_C 	C 	0.3862	0.9866	0.6057	-0.612
Mof_C 	C 	0.225	0.7933	0.5838	-0.643
Mof_C 	C 	0.209	0.8668	0.5778	0.235
Mof_C 	C 	0.2306	0.924	0.5991	-0.154
Mof_C 	C 	0.2008	0.981	0.5825	0.236
Mof_C 	C 	0.2006	0.0548	0.5927	-0.642
Mof_C 	C 	0.3713	0.7351	0.6568	-0.607
Mof_C 	C 	0.4369	0.7657	0.6709	0.219
Mof_C 	C 	0.5006	0.7635	0.6525	-0.143
Mof_C 	C 	0.5442	0.8005	0.6768	0.229
Mof_C 	C 	0.6188	0.8165	0.6745	-0.63
Mof_C 	C 	0.5547	0.8209	0.5685	-0.589
Mof_C 	C 	0.5427	0.7473	0.5803	0.201
Mof_C 	C 	0.5185	0.7247	0.6168	-0.128
Mof_C 	C 	0.5118	0.6536	0.6126	0.217
Mof_C 	C 	0.4911	0.5989	0.6412	-0.608
Mof_C 	C 	0.2335	0.8548	0.837	-0.616
Mof_C 	C 	0.2672	0.9212	0.8259	0.215
Mof_C 	C 	0.2643	0.9846	0.8455	-0.141
Mof_C 	C 	0.3069	0.028	0.8234	0.238
Mof_C 	C 	0.3246	0.1013	0.8297	-0.66
Mof_C 	C 	0.3243	0.0331	0.9323	-0.593
Mof_C 	C 	0.2509	0.0238	0.9189	0.202
Mof_C 	C 	0.226	0.002	0.882	-0.14
Mof_C 	C 	0.1555	0.0002	0.8859	0.233
Mof_C 	C 	0.1005	0.9845	0.8571	-0.646
Mof_C 	C 	0.2762	0.6967	0.7368	0.036
Mof_C 	C 	0.7335	0.6893	0.415	-0.677
Mof_C 	C 	0.7151	0.6179	0.4223	0.251
Mof_C 	C 	0.7331	0.5595	0.3996	-0.154
Mof_C 	C 	0.7018	0.5041	0.418	0.262
Mof_C 	C 	0.7029	0.4319	0.4071	-0.691
Mof_C 	C 	0.6939	0.6022	0.3119	-0.654
Mof_C 	C 	0.7612	0.5808	0.3269	0.236
Mof_C 	C 	0.7791	0.5587	0.3646	-0.147
Mof_C 	C 	0.8454	0.5391	0.363	0.226
Mof_C 	C 	0.8927	0.5102	0.3939	-0.616
Mof_C 	C 	0.8609	0.7993	0.1866	-0.598
Mof_C 	C 	0.8973	0.7359	0.1722	0.204
Mof_C 	C 	0.9248	0.7235	0.1341	-0.124
Mof_C 	C 	0.9528	0.658	0.1367	0.212
Mof_C 	C 	0.9866	0.6138	0.1057	-0.611
Mof_C 	C 	0.7933	0.775	0.0838	-0.642
Mof_C 	C 	0.8668	0.791	0.0778	0.235
Mof_C 	C 	0.924	0.7694	0.0991	-0.154
Mof_C 	C 	0.981	0.7992	0.0825	0.236
Mof_C 	C 	0.0548	0.7994	0.0927	-0.642
Mof_C 	C 	0.7351	0.6287	0.1568	-0.607
Mof_C 	C 	0.7657	0.5631	0.1709	0.219
Mof_C 	C 	0.7635	0.4994	0.1525	-0.143
Mof_C 	C 	0.8005	0.4558	0.1768	0.229
Mof_C 	C 	0.8165	0.3812	0.1745	-0.63
Mof_C 	C 	0.8209	0.4453	0.0685	-0.588
Mof_C 	C 	0.7473	0.4573	0.0803	0.201
Mof_C 	C 	0.7247	0.4815	0.1168	-0.128
Mof_C 	C 	0.6536	0.4882	0.1126	0.217
Mof_C 	C 	0.5989	0.5089	0.1412	-0.608
Mof_C 	C 	0.8548	0.7665	0.337	-0.616
Mof_C 	C 	0.9212	0.7328	0.3259	0.215
Mof_C 	C 	0.9846	0.7357	0.3455	-0.141
Mof_C 	C 	0.028	0.6931	0.3234	0.238
Mof_C 	C 	0.1013	0.6754	0.3297	-0.66
Mof_C 	C 	0.0331	0.6757	0.4323	-0.592
Mof_C 	C 	0.0238	0.7491	0.4189	0.201
Mof_C 	C 	0.002	0.774	0.382	-0.139
Mof_C 	C 	0.0002	0.8445	0.3859	0.233
Mof_C 	C 	0.9845	0.8995	0.3571	-0.646
Mof_C 	C 	0.6967	0.7238	0.2368	0.036
Mof_C 	C 	0.2665	0.3107	0.415	-0.677
Mof_C 	C 	0.2849	0.3821	0.4223	0.251
Mof_C 	C 	0.2669	0.4405	0.3996	-0.154
Mof_C 	C 	0.2982	0.4959	0.418	0.262
Mof_C 	C 	0.2971	0.5681	0.4071	-0.691
Mof_C 	C 	0.3061	0.3978	0.3119	-0.654
Mof_C 	C 	0.2388	0.4192	0.3269	0.236
Mof_C 	C 	0.2209	0.4413	0.3646	-0.147
Mof_C 	C 	0.1546	0.4609	0.363	0.226
Mof_C 	C 	0.1073	0.4898	0.3939	-0.616
Mof_C 	C 	0.1391	0.2007	0.1866	-0.598
Mof_C 	C 	0.1027	0.2641	0.1722	0.204
Mof_C 	C 	0.0752	0.2765	0.1341	-0.124
Mof_C 	C 	0.0472	0.342	0.1367	0.212
Mof_C 	C 	0.0134	0.3862	0.1057	-0.611
Mof_C 	C 	0.2067	0.225	0.0838	-0.642
Mof_C 	C 	0.1332	0.209	0.0778	0.235
Mof_C 	C 	0.076	0.2306	0.0991	-0.154
Mof_C 	C 	0.019	0.2008	0.0825	0.236
Mof_C 	C 	0.9452	0.2006	0.0927	-0.642
Mof_C 	C 	0.2649	0.3713	0.1568	-0.607
Mof_C 	C 	0.2343	0.4369	0.1709	0.219
Mof_C 	C 	0.2365	0.5006	0.1525	-0.143
Mof_C 	C 	0.1995	0.5442	0.1768	0.229
Mof_C 	C 	0.1835	0.6188	0.1745	-0.63
Mof_C 	C 	0.1791	0.5547	0.0685	-0.588
Mof_C 	C 	0.2527	0.5427	0.0803	0.201
Mof_C 	C 	0.2753	0.5185	0.1168	-0.128
Mof_C 	C 	0.3464	0.5118	0.1126	0.217
Mof_C 	C 	0.4011	0.4911	0.1412	-0.608
Mof_C 	C 	0.1452	0.2335	0.337	-0.616
Mof_C 	C 	0.0788	0.2672	0.3259	0.215
Mof_C 	C 	0.0154	0.2643	0.3455	-0.141
Mof_C 	C 	0.972	0.3069	0.3234	0.238
Mof_C 	C 	0.8987	0.3246	0.3297	-0.66
Mof_C 	C 	0.9669	0.3243	0.4323	-0.592
Mof_C 	C 	0.9762	0.2509	0.4189	0.201
Mof_C 	C 	0.998	0.226	0.382	-0.139
Mof_C 	C 	0.9998	0.1555	0.3859	0.233
Mof_C 	C 	0.0155	0.1005	0.3571	-0.646
Mof_C 	C 	0.3033	0.2762	0.2368	0.036
Mof_C 	C 	0.3107	0.7335	0.085	-0.676
Mof_C 	C 	0.3821	0.7151	0.0777	0.251
Mof_C 	C 	0.4405	0.7331	0.1004	-0.154
Mof_C 	C 	0.4959	0.7018	0.082	0.262
Mof_C 	C 	0.5681	0.7029	0.0929	-0.691
Mof_C 	C 	0.3978	0.6939	0.1881	-0.654
Mof_C 	C 	0.4192	0.7612	0.1731	0.236
Mof_C 	C 	0.4413	0.7791	0.1354	-0.148
Mof_C 	C 	0.4609	0.8454	0.137	0.226
Mof_C 	C 	0.4898	0.8927	0.1061	-0.616
Mof_C 	C 	0.2007	0.8609	0.3134	-0.598
Mof_C 	C 	0.2641	0.8973	0.3278	0.204
Mof_C 	C 	0.2765	0.9248	0.3659	-0.123
Mof_C 	C 	0.342	0.9528	0.3633	0.213
Mof_C 	C 	0.3862	0.9866	0.3943	-0.612
Mof_C 	C 	0.225	0.7933	0.4162	-0.643
Mof_C 	C 	0.209	0.8668	0.4222	0.235
Mof_C 	C 	0.2306	0.924	0.4009	-0.154
Mof_C 	C 	0.2008	0.981	0.4175	0.236
Mof_C 	C 	0.2006	0.0548	0.4073	-0.642
Mof_C 	C 	0.3713	0.7351	0.3432	-0.607
Mof_C 	C 	0.4369	0.7657	0.3291	0.219
Mof_C 	C 	0.5006	0.7635	0.3475	-0.143
Mof_C 	C 	0.5442	0.8005	0.3232	0.229
Mof_C 	C 	0.6188	0.8165	0.3255	-0.63
Mof_C 	C 	0.5547	0.8209	0.4315	-0.589
Mof_C 	C 	0.5427	0.7473	0.4197	0.201
Mof_C 	C 	0.5185	0.7247	0.3832	-0.128
Mof_C 	C 	0.5118	0.6536	0.3874	0.217
Mof_C 	C 	0.4911	0.5989	0.3588	-0.608
Mof_C 	C 	0.2335	0.8548	0.163	-0.616
Mof_C 	C 	0.2672	0.9212	0.1741	0.215
Mof_C 	C 	0.2643	0.9846	0.1545	-0.141
Mof_C 	C 	0.3069	0.028	0.1766	0.238
Mof_C 	C 	0.3246	0.1013	0.1703	-0.66
Mof_C 	C 	0.3243	0.0331	0.0677	-0.592
Mof_C 	C 	0.2509	0.0238	0.0811	0.201
Mof_C 	C 	0.226	0.002	0.118	-0.139
Mof_C 	C 	0.1555	0.0002	0.1141	0.233
Mof_C 	C 	0.1005	0.9845	0.1429	-0.646
Mof_C 	C 	0.2762	0.6967	0.2632	0.036
Mof_C 	C 	0.6893	0.2665	0.085	-0.676
Mof_C 	C 	0.6179	0.2849	0.0777	0.251
Mof_C 	C 	0.5595	0.2669	0.1004	-0.154
Mof_C 	C 	0.5041	0.2982	0.082	0.262
Mof_C 	C 	0.4319	0.2971	0.0929	-0.691
Mof_C 	C 	0.6022	0.3061	0.1881	-0.654
Mof_C 	C 	0.5808	0.2388	0.1731	0.236
Mof_C 	C 	0.5587	0.2209	0.1354	-0.148
Mof_C 	C 	0.5391	0.1546	0.137	0.226
Mof_C 	C 	0.5102	0.1073	0.1061	-0.616
Mof_C 	C 	0.7993	0.1391	0.3134	-0.598
Mof_C 	C 	0.7359	0.1027	0.3278	0.204
Mof_C 	C 	0.7235	0.0752	0.3659	-0.123
Mof_C 	C 	0.658	0.0472	0.3633	0.213
Mof_C 	C 	0.6138	0.0134	0.3943	-0.612
Mof_C 	C 	0.775	0.2067	0.4162	-0.643
Mof_C 	C 	0.791	0.1332	0.4222	0.235
Mof_C 	C 	0.7694	0.076	0.4009	-0.154
Mof_C 	C 	0.7992	0.019	0.4175	0.236
Mof_C 	C 	0.7994	0.9452	0.4073	-0.642
Mof_C 	C 	0.6287	0.2649	0.3432	-0.607
Mof_C 	C 	0.5631	0.2343	0.3291	0.219
Mof_C 	C 	0.4994	0.2365	0.3475	-0.143
Mof_C 	C 	0.4558	0.1995	0.3232	0.229
Mof_C 	C 	0.3812	0.1835	0.3255	-0.63
Mof_C 	C 	0.4453	0.1791	0.4315	-0.589
Mof_C 	C 	0.4573	0.2527	0.4197	0.201
Mof_C 	C 	0.4815	0.2753	0.3832	-0.128
Mof_C 	C 	0.4882	0.3464	0.3874	0.217
Mof_C 	C 	0.5089	0.4011	0.3588	-0.608
Mof_C 	C 	0.7665	0.1452	0.163	-0.616
Mof_C 	C 	0.7328	0.0788	0.1741	0.215
Mof_C 	C 	0.7357	0.0154	0.1545	-0.141
Mof_C 	C 	0.6931	0.972	0.1766	0.238
Mof_C 	C 	0.6754	0.8987	0.1703	-0.66
Mof_C 	C 	0.6757	0.9669	0.0677	-0.592
Mof_C 	C 	0.7491	0.9762	0.0811	0.201
Mof_C 	C 	0.774	0.998	0.118	-0.139
Mof_C 	C 	0.8445	0.9998	0.1141	0.233
Mof_C 	C 	0.8995	0.0155	0.1429	-0.646
Mof_C 	C 	0.7238	0.3033	0.2632	0.036
Mof_C 	C 	0.2665	0.3107	0.585	-0.677
Mof_C 	C 	0.2849	0.3821	0.5777	0.251
Mof_C 	C 	0.2669	0.4405	0.6004	-0.154
Mof_C 	C 	0.2982	0.4959	0.582	0.262
Mof_C 	C 	0.2971	0.5681	0.5929	-0.691
Mof_C 	C 	0.3061	0.3978	0.6881	-0.654
Mof_C 	C 	0.2388	0.4192	0.6731	0.236
Mof_C 	C 	0.2209	0.4413	0.6354	-0.147
Mof_C 	C 	0.1546	0.4609	0.637	0.226
Mof_C 	C 	0.1073	0.4898	0.6061	-0.616
Mof_C 	C 	0.1391	0.2007	0.8134	-0.598
Mof_C 	C 	0.1027	0.2641	0.8278	0.204
Mof_C 	C 	0.0752	0.2765	0.8659	-0.123
Mof_C 	C 	0.0472	0.342	0.8633	0.213
Mof_C 	C 	0.0134	0.3862	0.8943	-0.612
Mof_C 	C 	0.2067	0.225	0.9162	-0.644
Mof_C 	C 	0.1332	0.209	0.9222	0.235
Mof_C 	C 	0.076	0.2306	0.9009	-0.155
Mof_C 	C 	0.019	0.2008	0.9175	0.236
Mof_C 	C 	0.9452	0.2006	0.9073	-0.643
Mof_C 	C 	0.2649	0.3713	0.8432	-0.607
Mof_C 	C 	0.2343	0.4369	0.8291	0.219
Mof_C 	C 	0.2365	0.5006	0.8475	-0.143
Mof_C 	C 	0.1995	0.5442	0.8232	0.229
Mof_C 	C 	0.1835	0.6188	0.8255	-0.63
Mof_C 	C 	0.1791	0.5547	0.9315	-0.59
Mof_C 	C 	0.2527	0.5427	0.9197	0.202
Mof_C 	C 	0.2753	0.5185	0.8832	-0.128
Mof_C 	C 	0.3464	0.5118	0.8874	0.217
Mof_C 	C 	0.4011	0.4911	0.8588	-0.608
Mof_C 	C 	0.1452	0.2335	0.663	-0.616
Mof_C 	C 	0.0788	0.2672	0.6741	0.215
Mof_C 	C 	0.0154	0.2643	0.6545	-0.141
Mof_C 	C 	0.972	0.3069	0.6766	0.238
Mof_C 	C 	0.8987	0.3246	0.6703	-0.66
Mof_C 	C 	0.9669	0.3243	0.5677	-0.592
Mof_C 	C 	0.9762	0.2509	0.5811	0.201
Mof_C 	C 	0.998	0.226	0.618	-0.139
Mof_C 	C 	0.9998	0.1555	0.6141	0.233
Mof_C 	C 	0.0155	0.1005	0.6429	-0.646
Mof_C 	C 	0.3033	0.2762	0.7632	0.036
Mof_C 	C 	0.7335	0.6893	0.585	-0.677
Mof_C 	C 	0.7151	0.6179	0.5777	0.251
Mof_C 	C 	0.7331	0.5595	0.6004	-0.154
Mof_C 	C 	0.7018	0.5041	0.582	0.262
Mof_C 	C 	0.7029	0.4319	0.5929	-0.691
Mof_C 	C 	0.6939	0.6022	0.6881	-0.654
Mof_C 	C 	0.7612	0.5808	0.6731	0.236
Mof_C 	C 	0.7791	0.5587	0.6354	-0.147
Mof_C 	C 	0.8454	0.5391	0.637	0.226
Mof_C 	C 	0.8927	0.5102	0.6061	-0.616
Mof_C 	C 	0.8609	0.7993	0.8134	-0.598
Mof_C 	C 	0.8973	0.7359	0.8278	0.204
Mof_C 	C 	0.9248	0.7235	0.8659	-0.123
Mof_C 	C 	0.9528	0.658	0.8633	0.213
Mof_C 	C 	0.9866	0.6138	0.8943	-0.612
Mof_C 	C 	0.7933	0.775	0.9162	-0.644
Mof_C 	C 	0.8668	0.791	0.9222	0.235
Mof_C 	C 	0.924	0.7694	0.9009	-0.155
Mof_C 	C 	0.981	0.7992	0.9175	0.236
Mof_C 	C 	0.0548	0.7994	0.9073	-0.643
Mof_C 	C 	0.7351	0.6287	0.8432	-0.607
Mof_C 	C 	0.7657	0.5631	0.8291	0.219
Mof_C 	C 	0.7635	0.4994	0.8475	-0.143
Mof_C 	C 	0.8005	0.4558	0.8232	0.229
Mof_C 	C 	0.8165	0.3812	0.8255	-0.63
Mof_C 	C 	0.8209	0.4453	0.9315	-0.59
Mof_C 	C 	0.7473	0.4573	0.9197	0.202
Mof_C 	C 	0.7247	0.4815	0.8832	-0.128
Mof_C 	C 	0.6536	0.4882	0.8874	0.217
Mof_C 	C 	0.5989	0.5089	0.8588	-0.608
Mof_C 	C 	0.8548	0.7665	0.663	-0.616
Mof_C 	C 	0.9212	0.7328	0.6741	0.215
Mof_C 	C 	0.9846	0.7357	0.6545	-0.141
Mof_C 	C 	0.028	0.6931	0.6766	0.238
Mof_C 	C 	0.1013	0.6754	0.6703	-0.66
Mof_C 	C 	0.0331	0.6757	0.5677	-0.592
Mof_C 	C 	0.0238	0.7491	0.5811	0.201
Mof_C 	C 	0.002	0.774	0.618	-0.139
Mof_C 	C 	0.0002	0.8445	0.6141	0.233
Mof_C 	C 	0.9845	0.8995	0.6429	-0.646
Mof_C 	C 	0.6967	0.7238	0.7632	0.036
Mof_C 	C 	0.8267	0.3144	-0	0.039
Mof_C 	C 	0.1733	0.6856	-0	0.039
Mof_C 	C 	0.6856	0.8267	0.5	0.04
Mof_C 	C 	0.3144	0.1733	0.5	0.04
Mof_C 	C 	0.8255	0.3353	0.5	0.045
Mof_C 	C 	0.1745	0.6647	0.5	0.045
Mof_C 	C 	0.6647	0.8255	-0	0.045
Mof_C 	C 	0.3353	0.1745	-0	0.045
Mof_S 	S 	0.73821	0.38063	0.72304	-0.111
Mof_S 	S 	0.26179	0.61937	0.72304	-0.111
Mof_S 	S 	0.61937	0.73821	0.22304	-0.111
Mof_S 	S 	0.38063	0.26179	0.22304	-0.111
Mof_S 	S 	0.26179	0.61937	0.27696	-0.111
Mof_S 	S 	0.73821	0.38063	0.27696	-0.111
Mof_S 	S 	0.38063	0.26179	0.77696	-0.111
Mof_S 	S 	0.61937	0.73821	0.77696	-0.111
Mof_S 	S 	0.9104	0.3012	-0	-0.12
Mof_S 	S 	0.0896	0.6988	-0	-0.12
Mof_S 	S 	0.6988	0.9104	0.5	-0.118
Mof_S 	S 	0.3012	0.0896	0.5	-0.118
Mof_S 	S 	0.8111	0.4193	0.5	-0.12
Mof_S 	S 	0.1889	0.5807	0.5	-0.12
Mof_S 	S 	0.5807	0.8111	-0	-0.121
Mof_S 	S 	0.4193	0.1889	-0	-0.121
Mof_N 	N 	0.5989	0.3252	0.95211	-0.146
Mof_N 	N 	0.5306	0.3318	0.94911	-0.208
Mof_N 	N 	0.5748	0.1851	0.80159	-0.148
Mof_N 	N 	0.5493	0.1335	0.82537	-0.202
Mof_N 	N 	0.6827	0.0939	0.69533	-0.145
Mof_N 	N 	0.636	0.0601	0.67351	-0.2
Mof_N 	N 	0.8315	0.1129	0.54734	-0.141
Mof_N 	N 	0.8367	0.0442	0.55135	-0.199
Mof_N 	N 	0.5605	0.1968	0.70474	-0.14
Mof_N 	N 	0.4947	0.1771	0.70725	-0.201
Mof_N 	N 	0.4511	0.3039	0.55465	-0.143
Mof_N 	N 	0.47	0.3602	0.57545	-0.202
Mof_N 	N 	0.6928	0.0743	0.79407	-0.142
Mof_N 	N 	0.6691	0.009	0.79384	-0.209
Mof_N 	N 	0.8005	0.9653	0.94454	-0.141
Mof_N 	N 	0.8579	0.98	0.92292	-0.207
Mof_N 	N 	0.7172	0.246	0.747	-0.175
Mof_N 	N 	0.4011	0.6748	0.95211	-0.146
Mof_N 	N 	0.4694	0.6682	0.94911	-0.208
Mof_N 	N 	0.4252	0.8149	0.80159	-0.148
Mof_N 	N 	0.4507	0.8665	0.82537	-0.202
Mof_N 	N 	0.3173	0.9061	0.69533	-0.145
Mof_N 	N 	0.364	0.9399	0.67351	-0.2
Mof_N 	N 	0.1685	0.8871	0.54734	-0.141
Mof_N 	N 	0.1633	0.9558	0.55135	-0.199
Mof_N 	N 	0.4395	0.8032	0.70474	-0.14
Mof_N 	N 	0.5053	0.8229	0.70725	-0.201
Mof_N 	N 	0.5489	0.6961	0.55465	-0.143
Mof_N 	N 	0.53	0.6398	0.57545	-0.202
Mof_N 	N 	0.3072	0.9257	0.79407	-0.142
Mof_N 	N 	0.3309	0.991	0.79384	-0.209
Mof_N 	N 	0.1995	0.0347	0.94454	-0.141
Mof_N 	N 	0.1421	0.02	0.92292	-0.207
Mof_N 	N 	0.2828	0.754	0.747	-0.175
Mof_N 	N 	0.6748	0.5989	0.45211	-0.146
Mof_N 	N 	0.6682	0.5306	0.44911	-0.208
Mof_N 	N 	0.8149	0.5748	0.30159	-0.148
Mof_N 	N 	0.8665	0.5493	0.32537	-0.202
Mof_N 	N 	0.9061	0.6827	0.19533	-0.145
Mof_N 	N 	0.9399	0.636	0.17351	-0.2
Mof_N 	N 	0.8871	0.8315	0.04734	-0.142
Mof_N 	N 	0.9558	0.8367	0.05135	-0.199
Mof_N 	N 	0.8032	0.5605	0.20474	-0.14
Mof_N 	N 	0.8229	0.4947	0.20725	-0.201
Mof_N 	N 	0.6961	0.4511	0.05465	-0.143
Mof_N 	N 	0.6398	0.47	0.07545	-0.202
Mof_N 	N 	0.9257	0.6928	0.29407	-0.142
Mof_N 	N 	0.991	0.6691	0.29384	-0.209
Mof_N 	N 	0.0347	0.8005	0.44454	-0.142
Mof_N 	N 	0.02	0.8579	0.42292	-0.207
Mof_N 	N 	0.754	0.7172	0.247	-0.175
Mof_N 	N 	0.3252	0.4011	0.45211	-0.146
Mof_N 	N 	0.3318	0.4694	0.44911	-0.208
Mof_N 	N 	0.1851	0.4252	0.30159	-0.148
Mof_N 	N 	0.1335	0.4507	0.32537	-0.202
Mof_N 	N 	0.0939	0.3173	0.19533	-0.145
Mof_N 	N 	0.0601	0.364	0.17351	-0.2
Mof_N 	N 	0.1129	0.1685	0.04734	-0.142
Mof_N 	N 	0.0442	0.1633	0.05135	-0.199
Mof_N 	N 	0.1968	0.4395	0.20474	-0.14
Mof_N 	N 	0.1771	0.5053	0.20725	-0.201
Mof_N 	N 	0.3039	0.5489	0.05465	-0.143
Mof_N 	N 	0.3602	0.53	0.07545	-0.202
Mof_N 	N 	0.0743	0.3072	0.29407	-0.142
Mof_N 	N 	0.009	0.3309	0.29384	-0.209
Mof_N 	N 	0.9653	0.1995	0.44454	-0.142
Mof_N 	N 	0.98	0.1421	0.42292	-0.207
Mof_N 	N 	0.246	0.2828	0.247	-0.175
Mof_N 	N 	0.4011	0.6748	0.04789	-0.146
Mof_N 	N 	0.4694	0.6682	0.05089	-0.208
Mof_N 	N 	0.4252	0.8149	0.19841	-0.148
Mof_N 	N 	0.4507	0.8665	0.17463	-0.202
Mof_N 	N 	0.3173	0.9061	0.30467	-0.145
Mof_N 	N 	0.364	0.9399	0.32649	-0.2
Mof_N 	N 	0.1685	0.8871	0.45266	-0.141
Mof_N 	N 	0.1633	0.9558	0.44865	-0.199
Mof_N 	N 	0.4395	0.8032	0.29526	-0.14
Mof_N 	N 	0.5053	0.8229	0.29275	-0.201
Mof_N 	N 	0.5489	0.6961	0.44535	-0.143
Mof_N 	N 	0.53	0.6398	0.42455	-0.202
Mof_N 	N 	0.3072	0.9257	0.20593	-0.142
Mof_N 	N 	0.3309	0.991	0.20616	-0.209
Mof_N 	N 	0.1995	0.0347	0.05546	-0.142
Mof_N 	N 	0.1421	0.02	0.07708	-0.207
Mof_N 	N 	0.2828	0.754	0.253	-0.175
Mof_N 	N 	0.5989	0.3252	0.04789	-0.146
Mof_N 	N 	0.5306	0.3318	0.05089	-0.208
Mof_N 	N 	0.5748	0.1851	0.19841	-0.148
Mof_N 	N 	0.5493	0.1335	0.17463	-0.202
Mof_N 	N 	0.6827	0.0939	0.30467	-0.145
Mof_N 	N 	0.636	0.0601	0.32649	-0.2
Mof_N 	N 	0.8315	0.1129	0.45266	-0.141
Mof_N 	N 	0.8367	0.0442	0.44865	-0.199
Mof_N 	N 	0.5605	0.1968	0.29526	-0.14
Mof_N 	N 	0.4947	0.1771	0.29275	-0.201
Mof_N 	N 	0.4511	0.3039	0.44535	-0.143
Mof_N 	N 	0.47	0.3602	0.42455	-0.202
Mof_N 	N 	0.6928	0.0743	0.20593	-0.142
Mof_N 	N 	0.6691	0.009	0.20616	-0.209
Mof_N 	N 	0.8005	0.9653	0.05546	-0.142
Mof_N 	N 	0.8579	0.98	0.07708	-0.207
Mof_N 	N 	0.7172	0.246	0.253	-0.175
Mof_N 	N 	0.3252	0.4011	0.54789	-0.146
Mof_N 	N 	0.3318	0.4694	0.55089	-0.208
Mof_N 	N 	0.1851	0.4252	0.69841	-0.148
Mof_N 	N 	0.1335	0.4507	0.67463	-0.202
Mof_N 	N 	0.0939	0.3173	0.80467	-0.145
Mof_N 	N 	0.0601	0.364	0.82649	-0.2
Mof_N 	N 	0.1129	0.1685	0.95266	-0.141
Mof_N 	N 	0.0442	0.1633	0.94865	-0.199
Mof_N 	N 	0.1968	0.4395	0.79526	-0.14
Mof_N 	N 	0.1771	0.5053	0.79275	-0.201
Mof_N 	N 	0.3039	0.5489	0.94535	-0.143
Mof_N 	N 	0.3602	0.53	0.92455	-0.202
Mof_N 	N 	0.0743	0.3072	0.70593	-0.142
Mof_N 	N 	0.009	0.3309	0.70616	-0.209
Mof_N 	N 	0.9653	0.1995	0.55546	-0.142
Mof_N 	N 	0.98	0.1421	0.57708	-0.207
Mof_N 	N 	0.246	0.2828	0.753	-0.175
Mof_N 	N 	0.6748	0.5989	0.54789	-0.146
Mof_N 	N 	0.6682	0.5306	0.55089	-0.208
Mof_N 	N 	0.8149	0.5748	0.69841	-0.148
Mof_N 	N 	0.8665	0.5493	0.67463	-0.202
Mof_N 	N 	0.9061	0.6827	0.80467	-0.145
Mof_N 	N 	0.9399	0.636	0.82649	-0.2
Mof_N 	N 	0.8871	0.8315	0.95266	-0.141
Mof_N 	N 	0.9558	0.8367	0.94865	-0.199
Mof_N 	N 	0.8032	0.5605	0.79526	-0.14
Mof_N 	N 	0.8229	0.4947	0.79275	-0.201
Mof_N 	N 	0.6961	0.4511	0.94535	-0.143
Mof_N 	N 	0.6398	0.47	0.92455	-0.202
Mof_N 	N 	0.9257	0.6928	0.70593	-0.142
Mof_N 	N 	0.991	0.6691	0.70616	-0.209
Mof_N 	N 	0.0347	0.8005	0.55546	-0.142
Mof_N 	N 	0.02	0.8579	0.57708	-0.207
Mof_N 	N 	0.754	0.7172	0.753	-0.175
Mof_N 	N 	0.7664	0.3193	-0	-0.179
Mof_N 	N 	0.2336	0.6807	-0	-0.179
Mof_N 	N 	0.6807	0.7664	0.5	-0.178
Mof_N 	N 	0.3193	0.2336	0.5	-0.178
Mof_N 	N 	0.8403	0.2797	0.5	-0.188
Mof_N 	N 	0.1597	0.7203	0.5	-0.188
Mof_N 	N 	0.7203	0.8403	-0	-0.188
Mof_N 	N 	0.2797	0.1597	-0	-0.188
_end
