data_functionalizedCrystal
_audit_creation_method	'EQeq! by Chris Wilmer'
_symmetry_space_group_name_H-M	'P1'
_symmetry_Int_Tables_number	1
_symmetry_cell_setting	triclinic
loop_
_symmetry_equiv_pos_as_xyz
  x,y,z
_cell_length_a	6.6008
_cell_length_b	12.825
_cell_length_c	13.31
_cell_angle_alpha	90
_cell_angle_beta	103.63
_cell_angle_gamma	90
loop_
_atom_site_label
_atom_site_type_symbol
_atom_site_fract_x
_atom_site_fract_y
_atom_site_fract_z
_atom_site_charge
Mof_Lu	Lu	0.26093	0.07619	0.70552	2.834
Mof_Lu	Lu	0.23907	0.57619	0.29448	2.848
Mof_Lu	Lu	0.73907	0.92381	0.29448	2.835
Mof_Lu	Lu	0.76093	0.42381	0.70552	2.849
Mof_H 	H 	0.1245	0.0577	0.9712	-0.026
Mof_H 	H 	0.0941	0.3674	0.9887	-0.016
Mof_H 	H 	0.2528	0.1909	0.2413	-0.024
Mof_H 	H 	0.3755	0.5577	0.0288	-0.018
Mof_H 	H 	0.4059	0.8674	0.0113	-0.014
Mof_H 	H 	0.2472	0.6909	0.7587	-0.023
Mof_H 	H 	0.8755	0.9423	0.0288	-0.026
Mof_H 	H 	0.9059	0.6326	0.0113	-0.016
Mof_H 	H 	0.7472	0.8091	0.7587	-0.024
Mof_H 	H 	0.6245	0.4423	0.9712	-0.018
Mof_H 	H 	0.5941	0.1326	0.9887	-0.014
Mof_H 	H 	0.7528	0.3091	0.2413	-0.023
Mof_C 	C 	0.1372	0.1179	0.0111	0.196
Mof_C 	C 	0.097	0.2134	0.961	-0.314
Mof_C 	C 	0.1203	0.3023	0.0199	0.197
Mof_C 	C 	0.1833	0.2938	0.1263	-0.191
Mof_C 	C 	0.2147	0.196	0.1696	0.133
Mof_C 	C 	0.0248	0.2231	0.846	0.661
Mof_C 	C 	0.212	0.3905	0.1904	0.357
Mof_C 	C 	0.8991	0.0059	0.5195	0.298
Mof_C 	C 	0.3628	0.6179	0.9889	0.184
Mof_C 	C 	0.403	0.7134	0.039	-0.305
Mof_C 	C 	0.3797	0.8023	0.9801	0.193
Mof_C 	C 	0.3167	0.7938	0.8737	-0.188
Mof_C 	C 	0.2853	0.696	0.8304	0.132
Mof_C 	C 	0.4752	0.7231	0.154	0.662
Mof_C 	C 	0.288	0.8905	0.8096	0.356
Mof_C 	C 	0.6009	0.5059	0.4805	0.294
Mof_C 	C 	0.8628	0.8821	0.9889	0.196
Mof_C 	C 	0.903	0.7866	0.039	-0.314
Mof_C 	C 	0.8797	0.6977	0.9801	0.197
Mof_C 	C 	0.8167	0.7062	0.8737	-0.191
Mof_C 	C 	0.7853	0.804	0.8304	0.133
Mof_C 	C 	0.9752	0.7769	0.154	0.661
Mof_C 	C 	0.788	0.6095	0.8096	0.357
Mof_C 	C 	0.1009	0.9941	0.4805	0.298
Mof_C 	C 	0.6372	0.3821	0.0111	0.184
Mof_C 	C 	0.597	0.2866	0.961	-0.305
Mof_C 	C 	0.6203	0.1977	0.0199	0.193
Mof_C 	C 	0.6833	0.2062	0.1263	-0.188
Mof_C 	C 	0.7147	0.304	0.1696	0.132
Mof_C 	C 	0.5248	0.2769	0.846	0.662
Mof_C 	C 	0.712	0.1095	0.1904	0.356
Mof_C 	C 	0.3991	0.4941	0.5195	0.294
Mof_N 	N 	0.1934	0.1083	0.1145	-0.184
Mof_N 	N 	0.3066	0.6083	0.8855	-0.182
Mof_N 	N 	0.8066	0.8917	0.8855	-0.184
Mof_N 	N 	0.6934	0.3917	0.1145	-0.182
Mof_O 	O 	0.0291	0.1437	0.7883	-0.749
Mof_O 	O 	0.9575	0.3096	0.8138	-0.801
Mof_O 	O 	0.167	0.4783	0.1455	-0.57
Mof_O 	O 	0.2779	0.3868	0.2874	-0.544
Mof_O 	O 	0.9209	0.0452	0.6079	-0.612
Mof_O 	O 	0.7347	0.9767	0.4612	-0.658
Mof_O 	O 	0.4709	0.6437	0.2117	-0.748
Mof_O 	O 	0.5425	0.8096	0.1862	-0.803
Mof_O 	O 	0.333	0.9783	0.8545	-0.565
Mof_O 	O 	0.2221	0.8868	0.7126	-0.54
Mof_O 	O 	0.5791	0.5452	0.3921	-0.615
Mof_O 	O 	0.7653	0.4767	0.5388	-0.656
Mof_O 	O 	0.9709	0.8563	0.2117	-0.749
Mof_O 	O 	0.0425	0.6904	0.1862	-0.801
Mof_O 	O 	0.833	0.5217	0.8545	-0.57
Mof_O 	O 	0.7221	0.6132	0.7126	-0.544
Mof_O 	O 	0.0791	0.9548	0.3921	-0.612
Mof_O 	O 	0.2653	0.0233	0.5388	-0.658
Mof_O 	O 	0.5291	0.3563	0.7883	-0.748
Mof_O 	O 	0.4575	0.1904	0.8138	-0.803
Mof_O 	O 	0.667	0.0217	0.1455	-0.565
Mof_O 	O 	0.7779	0.1132	0.2874	-0.54
Mof_O 	O 	0.4209	0.4548	0.6079	-0.615
Mof_O 	O 	0.2347	0.5233	0.4612	-0.656
_end
