data_functionalizedCrystal
_audit_creation_method	'EQeq! by Chris Wilmer'
_symmetry_space_group_name_H-M	'P1'
_symmetry_Int_Tables_number	1
_symmetry_cell_setting	triclinic
loop_
_symmetry_equiv_pos_as_xyz
  x,y,z
_cell_length_a	14.4098
_cell_length_b	21.2942
_cell_length_c	20.9128
_cell_angle_alpha	90
_cell_angle_beta	90
_cell_angle_gamma	90
loop_
_atom_site_label
_atom_site_type_symbol
_atom_site_fract_x
_atom_site_fract_y
_atom_site_fract_z
_atom_site_charge
Mof_Re	Re	0.90428	0.63924	0.44141	0.428
Mof_S 	S 	0.86977	0.7376	0.48887	-0.3
Mof_N 	N 	0.8532	0.6574	0.6521	-0.225
Mof_N 	N 	0.7317	0.6713	0.3463	-0.127
Mof_N 	N 	0.8806	0.5075	0.3656	-0.138
Mof_N 	N 	0.7326	0.5831	0.5245	-0.249
Mof_N 	N 	0.8531	0.8094	0.321	-0.224
Mof_C 	C 	0.9045	0.6695	0.6119	-0.044
Mof_C 	C 	0.7926	0.6594	0.3793	-0.064
Mof_C 	C 	0.888	0.5518	0.3942	-0.059
Mof_C 	C 	0.7929	0.6036	0.4973	-0.048
Mof_C 	C 	0.905	0.7876	0.3562	-0.051
Mof_Re	Re	0.40428	0.13924	0.44141	0.445
Mof_S 	S 	0.36977	0.2376	0.48887	-0.297
Mof_N 	N 	0.3532	0.1574	0.6521	-0.23
Mof_N 	N 	0.2317	0.1713	0.3463	-0.127
Mof_N 	N 	0.3806	0.0075	0.3656	-0.168
Mof_N 	N 	0.2326	0.0831	0.5245	-0.253
Mof_N 	N 	0.3531	0.3094	0.321	-0.225
Mof_C 	C 	0.4045	0.1695	0.6119	-0.043
Mof_C 	C 	0.2926	0.1594	0.3793	-0.066
Mof_C 	C 	0.388	0.0518	0.3942	-0.072
Mof_C 	C 	0.2929	0.1036	0.4973	-0.061
Mof_C 	C 	0.405	0.2876	0.3562	-0.05
Mof_Re	Re	0.09572	0.36076	0.94141	0.467
Mof_S 	S 	0.13023	0.2624	0.98887	-0.228
Mof_N 	N 	0.1468	0.3426	0.1521	-0.228
Mof_N 	N 	0.2683	0.3287	0.8463	-0.119
Mof_N 	N 	0.1194	0.4925	0.8656	-0.132
Mof_N 	N 	0.2674	0.4169	0.0245	-0.298
Mof_N 	N 	0.1469	0.1906	0.821	-0.22
Mof_C 	C 	0.0955	0.3305	0.1119	-0.037
Mof_C 	C 	0.2074	0.3406	0.8793	-0.061
Mof_C 	C 	0.112	0.4482	0.8942	-0.042
Mof_C 	C 	0.2071	0.3964	0.9973	0.047
Mof_C 	C 	0.095	0.2124	0.8562	-0.047
Mof_Re	Re	0.59572	0.86076	0.94141	0.465
Mof_S 	S 	0.63023	0.7624	0.98887	-0.228
Mof_N 	N 	0.6468	0.8426	0.1521	-0.226
Mof_N 	N 	0.7683	0.8287	0.8463	-0.111
Mof_N 	N 	0.6194	0.9925	0.8656	-0.094
Mof_N 	N 	0.7674	0.9169	0.0245	-0.244
Mof_N 	N 	0.6469	0.6906	0.821	-0.223
Mof_C 	C 	0.5955	0.8305	0.1119	-0.026
Mof_C 	C 	0.7074	0.8406	0.8793	-0.049
Mof_C 	C 	0.612	0.9482	0.8942	-0.017
Mof_C 	C 	0.7071	0.8964	0.9973	0.063
Mof_C 	C 	0.595	0.7124	0.8562	-0.047
Mof_Re	Re	0.09572	0.63924	0.05859	0.418
Mof_S 	S 	0.13023	0.7376	0.01113	-0.356
Mof_N 	N 	0.1468	0.6574	0.8479	-0.223
Mof_N 	N 	0.2683	0.6713	0.1537	-0.129
Mof_N 	N 	0.1194	0.5075	0.1344	-0.135
Mof_N 	N 	0.2674	0.5831	0.9755	-0.171
Mof_N 	N 	0.1469	0.8094	0.179	-0.225
Mof_C 	C 	0.0955	0.6695	0.8881	-0.026
Mof_C 	C 	0.2074	0.6594	0.1207	-0.061
Mof_C 	C 	0.112	0.5518	0.1058	-0.059
Mof_C 	C 	0.2071	0.6036	0.0027	-0.137
Mof_C 	C 	0.095	0.7876	0.1438	-0.038
Mof_Re	Re	0.59572	0.13924	0.05859	0.42
Mof_S 	S 	0.63023	0.2376	0.01113	-0.36
Mof_N 	N 	0.6468	0.1574	0.8479	-0.225
Mof_N 	N 	0.7683	0.1713	0.1537	-0.13
Mof_N 	N 	0.6194	0.0075	0.1344	-0.167
Mof_N 	N 	0.7674	0.0831	0.9755	-0.157
Mof_N 	N 	0.6469	0.3094	0.179	-0.225
Mof_C 	C 	0.5955	0.1695	0.8881	-0.037
Mof_C 	C 	0.7074	0.1594	0.1207	-0.061
Mof_C 	C 	0.612	0.0518	0.1058	-0.076
Mof_C 	C 	0.7071	0.1036	0.0027	-0.152
Mof_C 	C 	0.595	0.2876	0.1438	-0.048
Mof_Re	Re	0.90428	0.36076	0.55859	0.427
Mof_S 	S 	0.86977	0.2624	0.51113	-0.305
Mof_N 	N 	0.8532	0.3426	0.3479	-0.225
Mof_N 	N 	0.7317	0.3287	0.6537	-0.125
Mof_N 	N 	0.8806	0.4925	0.6344	-0.138
Mof_N 	N 	0.7326	0.4169	0.4755	-0.248
Mof_N 	N 	0.8531	0.1906	0.679	-0.221
Mof_C 	C 	0.9045	0.3305	0.3881	-0.045
Mof_C 	C 	0.7926	0.3406	0.6207	-0.063
Mof_C 	C 	0.888	0.4482	0.6058	-0.059
Mof_C 	C 	0.7929	0.3964	0.5027	-0.047
Mof_C 	C 	0.905	0.2124	0.6438	-0.061
Mof_Re	Re	0.40428	0.86076	0.55859	0.441
Mof_S 	S 	0.36977	0.7624	0.51113	-0.297
Mof_N 	N 	0.3532	0.8426	0.3479	-0.224
Mof_N 	N 	0.2317	0.8287	0.6537	-0.115
Mof_N 	N 	0.3806	0.9925	0.6344	-0.097
Mof_N 	N 	0.2326	0.9169	0.4755	-0.213
Mof_N 	N 	0.3531	0.6906	0.679	-0.226
Mof_C 	C 	0.4045	0.8305	0.3881	-0.023
Mof_C 	C 	0.2926	0.8406	0.6207	-0.053
Mof_C 	C 	0.388	0.9482	0.6058	-0.029
Mof_C 	C 	0.2929	0.8964	0.5027	-0.028
Mof_C 	C 	0.405	0.7124	0.6438	-0.049
Mof_Re	Re	0.09572	0.36076	0.55859	0.442
Mof_S 	S 	0.13023	0.2624	0.51113	-0.299
Mof_N 	N 	0.1468	0.3426	0.3479	-0.226
Mof_N 	N 	0.2683	0.3287	0.6537	-0.124
Mof_N 	N 	0.1194	0.4925	0.6344	-0.134
Mof_N 	N 	0.2674	0.4169	0.4755	-0.248
Mof_N 	N 	0.1469	0.1906	0.679	-0.222
Mof_C 	C 	0.0955	0.3305	0.3881	-0.033
Mof_C 	C 	0.2074	0.3406	0.6207	-0.063
Mof_C 	C 	0.112	0.4482	0.6058	-0.053
Mof_C 	C 	0.2071	0.3964	0.5027	-0.048
Mof_C 	C 	0.095	0.2124	0.6438	-0.049
Mof_Re	Re	0.59572	0.86076	0.55859	0.441
Mof_S 	S 	0.63023	0.7624	0.51113	-0.296
Mof_N 	N 	0.6468	0.8426	0.3479	-0.224
Mof_N 	N 	0.7683	0.8287	0.6537	-0.116
Mof_N 	N 	0.6194	0.9925	0.6344	-0.096
Mof_N 	N 	0.7674	0.9169	0.4755	-0.197
Mof_N 	N 	0.6469	0.6906	0.679	-0.225
Mof_C 	C 	0.5955	0.8305	0.3881	-0.023
Mof_C 	C 	0.7074	0.8406	0.6207	-0.051
Mof_C 	C 	0.612	0.9482	0.6058	-0.027
Mof_C 	C 	0.7071	0.8964	0.5027	-0.027
Mof_C 	C 	0.595	0.7124	0.6438	-0.049
Mof_Re	Re	0.90428	0.63924	0.05859	0.403
Mof_S 	S 	0.86977	0.7376	0.01113	-0.363
Mof_N 	N 	0.8532	0.6574	0.8479	-0.223
Mof_N 	N 	0.7317	0.6713	0.1537	-0.129
Mof_N 	N 	0.8806	0.5075	0.1344	-0.138
Mof_N 	N 	0.7326	0.5831	0.9755	-0.171
Mof_N 	N 	0.8531	0.8094	0.179	-0.224
Mof_C 	C 	0.9045	0.6695	0.8881	-0.038
Mof_C 	C 	0.7926	0.6594	0.1207	-0.06
Mof_C 	C 	0.888	0.5518	0.1058	-0.065
Mof_C 	C 	0.7929	0.6036	0.0027	-0.137
Mof_C 	C 	0.905	0.7876	0.1438	-0.05
Mof_Re	Re	0.40428	0.13924	0.05859	0.42
Mof_S 	S 	0.36977	0.2376	0.01113	-0.361
Mof_N 	N 	0.3532	0.1574	0.8479	-0.226
Mof_N 	N 	0.2317	0.1713	0.1537	-0.129
Mof_N 	N 	0.3806	0.0075	0.1344	-0.169
Mof_N 	N 	0.2326	0.0831	0.9755	-0.174
Mof_N 	N 	0.3531	0.3094	0.179	-0.226
Mof_C 	C 	0.4045	0.1695	0.8881	-0.037
Mof_C 	C 	0.2926	0.1594	0.1207	-0.062
Mof_C 	C 	0.388	0.0518	0.1058	-0.078
Mof_C 	C 	0.2929	0.1036	0.0027	-0.152
Mof_C 	C 	0.405	0.2876	0.1438	-0.048
Mof_Re	Re	0.90428	0.36076	0.94141	0.452
Mof_S 	S 	0.86977	0.2624	0.98887	-0.234
Mof_N 	N 	0.8532	0.3426	0.1521	-0.228
Mof_N 	N 	0.7317	0.3287	0.8463	-0.119
Mof_N 	N 	0.8806	0.4925	0.8656	-0.135
Mof_N 	N 	0.7326	0.4169	0.0245	-0.299
Mof_N 	N 	0.8531	0.1906	0.821	-0.219
Mof_C 	C 	0.9045	0.3305	0.1119	-0.049
Mof_C 	C 	0.7926	0.3406	0.8793	-0.061
Mof_C 	C 	0.888	0.4482	0.8942	-0.048
Mof_C 	C 	0.7929	0.3964	0.9973	0.048
Mof_C 	C 	0.905	0.2124	0.8562	-0.058
Mof_Re	Re	0.40428	0.86076	0.94141	0.465
Mof_S 	S 	0.36977	0.7624	0.98887	-0.229
Mof_N 	N 	0.3532	0.8426	0.1521	-0.227
Mof_N 	N 	0.2317	0.8287	0.8463	-0.11
Mof_N 	N 	0.3806	0.9925	0.8656	-0.095
Mof_N 	N 	0.2326	0.9169	0.0245	-0.26
Mof_N 	N 	0.3531	0.6906	0.821	-0.224
Mof_C 	C 	0.4045	0.8305	0.1119	-0.027
Mof_C 	C 	0.2926	0.8406	0.8793	-0.051
Mof_C 	C 	0.388	0.9482	0.8942	-0.019
Mof_C 	C 	0.2929	0.8964	0.9973	0.061
Mof_C 	C 	0.405	0.7124	0.8562	-0.046
Mof_Re	Re	0.09572	0.63924	0.44141	0.442
Mof_S 	S 	0.13023	0.7376	0.48887	-0.295
Mof_N 	N 	0.1468	0.6574	0.6521	-0.227
Mof_N 	N 	0.2683	0.6713	0.3463	-0.127
Mof_N 	N 	0.1194	0.5075	0.3656	-0.135
Mof_N 	N 	0.2674	0.5831	0.5245	-0.248
Mof_N 	N 	0.1469	0.8094	0.321	-0.225
Mof_C 	C 	0.0955	0.6695	0.6119	-0.031
Mof_C 	C 	0.2074	0.6594	0.3793	-0.064
Mof_C 	C 	0.112	0.5518	0.3942	-0.053
Mof_C 	C 	0.2071	0.6036	0.4973	-0.048
Mof_C 	C 	0.095	0.7876	0.3562	-0.04
Mof_Re	Re	0.59572	0.13924	0.44141	0.446
Mof_S 	S 	0.63023	0.2376	0.48887	-0.296
Mof_N 	N 	0.6468	0.1574	0.6521	-0.229
Mof_N 	N 	0.7683	0.1713	0.3463	-0.128
Mof_N 	N 	0.6194	0.0075	0.3656	-0.167
Mof_N 	N 	0.7674	0.0831	0.5245	-0.237
Mof_N 	N 	0.6469	0.3094	0.321	-0.225
Mof_C 	C 	0.5955	0.1695	0.6119	-0.042
Mof_C 	C 	0.7074	0.1594	0.3793	-0.064
Mof_C 	C 	0.612	0.0518	0.3942	-0.07
Mof_C 	C 	0.7071	0.1036	0.4973	-0.06
Mof_C 	C 	0.595	0.2876	0.3562	-0.05
Mof_Re	Re	2.65443e-32	0.69405	0.5405	0.447
Mof_Re	Re	1.80298e-32	0.74952	0.42165	0.45
Mof_S 	S 	1.37206e-32	0.66211	0.35266	-0.272
Mof_S 	S 	-5.05894e-33	0.58398	0.51618	-0.265
Mof_N 	N 	3.39547e-33	0.8215	0.624	-0.134
Mof_N 	N 	1.82597e-32	0.8951	0.4639	-0.332
Mof_C 	C 	1.89688e-32	0.778	0.5942	-0.046
Mof_C 	C 	1.81923e-32	0.8424	0.4515	-0.042
Mof_Re	Re	0.5	0.19405	0.5405	0.439
Mof_Re	Re	0.5	0.24952	0.42165	0.438
Mof_S 	S 	0.5	0.16211	0.35266	-0.288
Mof_S 	S 	0.5	0.08398	0.51618	-0.329
Mof_N 	N 	0.5	0.3215	0.624	-0.157
Mof_N 	N 	0.5	0.3951	0.4639	-0.402
Mof_C 	C 	0.5	0.278	0.5942	-0.056
Mof_C 	C 	0.5	0.3424	0.4515	-0.053
Mof_Re	Re	-1.25482e-33	0.30595	0.0405	0.365
Mof_Re	Re	2.07506e-32	0.25048	0.92165	0.453
Mof_S 	S 	4.63972e-33	0.33789	0.85266	-0.275
Mof_S 	S 	7.21816e-33	0.41602	0.01618	-0.339
Mof_N 	N 	2.64167e-33	0.1785	0.124	-0.154
Mof_N 	N 	-1.04904e-32	0.1049	0.9639	-0.328
Mof_C 	C 	8.38031e-33	0.222	0.0942	-0.066
Mof_C 	C 	-1.05579e-32	0.1576	0.9515	-0.038
Mof_Re	Re	0.5	0.80595	0.0405	0.349
Mof_Re	Re	0.5	0.75048	0.92165	0.438
Mof_S 	S 	0.5	0.83789	0.85266	-0.279
Mof_S 	S 	0.5	0.91602	0.01618	-0.289
Mof_N 	N 	0.5	0.6785	0.124	-0.159
Mof_N 	N 	0.5	0.6049	0.9639	-0.36
Mof_C 	C 	0.5	0.722	0.0942	-0.072
Mof_C 	C 	0.5	0.6576	0.9515	-0.039
Mof_Re	Re	-1.05144e-32	0.69405	0.9595	0.525
Mof_Re	Re	1.22279e-32	0.74952	0.07835	0.45
Mof_S 	S 	6.70254e-33	0.66211	0.14734	-0.269
Mof_S 	S 	-1.0382e-32	0.58398	0.98382	-0.189
Mof_N 	N 	4.76672e-33	0.8215	0.876	-0.125
Mof_N 	N 	6.88169e-34	0.8951	0.0361	-0.316
Mof_C 	C 	2.06643e-32	0.778	0.9058	-0.028
Mof_C 	C 	1.24738e-33	0.8424	0.0485	-0.055
Mof_Re	Re	0.5	0.19405	0.9595	0.522
Mof_Re	Re	0.5	0.24952	0.07835	0.437
Mof_S 	S 	0.5	0.16211	0.14734	-0.284
Mof_S 	S 	0.5	0.08398	0.98382	-0.247
Mof_N 	N 	0.5	0.3215	0.876	-0.147
Mof_N 	N 	0.5	0.3951	0.0361	-0.387
Mof_C 	C 	0.5	0.278	0.9058	-0.036
Mof_C 	C 	0.5	0.3424	0.0485	-0.067
Mof_Re	Re	1.03681e-32	0.30595	0.4595	0.447
Mof_Re	Re	3.14707e-33	0.25048	0.57835	0.451
Mof_S 	S 	-4.34524e-33	0.33789	0.64734	-0.271
Mof_S 	S 	2.63269e-33	0.41602	0.48382	-0.265
Mof_N 	N 	5.97985e-33	0.1785	0.376	-0.154
Mof_N 	N 	-1.28183e-32	0.1049	0.5361	-0.37
Mof_C 	C 	2.20815e-33	0.222	0.4058	-0.05
Mof_C 	C 	-4.88308e-33	0.1576	0.5485	-0.053
Mof_Re	Re	0.5	0.80595	0.4595	0.429
Mof_Re	Re	0.5	0.75048	0.57835	0.436
Mof_S 	S 	0.5	0.83789	0.64734	-0.275
Mof_S 	S 	0.5	0.91602	0.48382	-0.217
Mof_N 	N 	0.5	0.6785	0.376	-0.159
Mof_N 	N 	0.5	0.6049	0.5361	-0.402
Mof_C 	C 	0.5	0.722	0.4058	-0.057
Mof_C 	C 	0.5	0.6576	0.5485	-0.053
Mof_Tb	Tb	0.7628	0.64081	0.75	1.133
Mof_Tb	Tb	0.2628	0.14081	0.75	1.078
Mof_Tb	Tb	0.2372	0.35919	0.25	1.128
Mof_Tb	Tb	0.7372	0.85919	0.25	1.215
Mof_Tb	Tb	0.2372	0.64081	0.75	1.142
Mof_Tb	Tb	0.7372	0.14081	0.75	1.074
Mof_Tb	Tb	0.7628	0.35919	0.25	1.119
Mof_Tb	Tb	0.2628	0.85919	0.25	1.219
Mof_K 	K 	0.9143	0	0.5	1.031
Mof_K 	K 	0.4143	0.5	0.5	1.367
Mof_K 	K 	0.0857	0	-0	1.165
Mof_K 	K 	0.5857	0.5	-0	1.237
Mof_K 	K 	0.0857	0	0.5	1.289
Mof_K 	K 	0.5857	0.5	0.5	1.363
Mof_K 	K 	0.9143	0	-0	0.907
Mof_K 	K 	0.4143	0.5	-0	1.242
_end
