data_functionalizedCrystal
_audit_creation_method	'EQeq! by Chris Wilmer'
_symmetry_space_group_name_H-M	'P1'
_symmetry_Int_Tables_number	1
_symmetry_cell_setting	triclinic
loop_
_symmetry_equiv_pos_as_xyz
  x,y,z
_cell_length_a	28.132
_cell_length_b	12.615
_cell_length_c	24.746
_cell_angle_alpha	90
_cell_angle_beta	120.026
_cell_angle_gamma	90
loop_
_atom_site_label
_atom_site_type_symbol
_atom_site_fract_x
_atom_site_fract_y
_atom_site_fract_z
_atom_site_charge
Mof_C 	C 	0.32665	0.3983	0.4785	0.086
Mof_H 	H 	0.3223	0.4503	0.5023	-0.027
Mof_C 	C 	0.32122	0.2536	0.4322	0.008
Mof_H 	H 	0.312	0.1845	0.4176	0
Mof_C 	C 	0.3525	0.3192	0.42	-0.016
Mof_H 	H 	0.3686	0.3041	0.396	0.035
Mof_C 	C 	0.38162	0.5098	0.4455	-0.117
Mof_H 	H 	0.3734	0.5662	0.4663	0.062
Mof_H 	H 	0.3656	0.5293	0.4019	0.063
Mof_C 	C 	0.44295	0.5018	0.4739	0.055
Mof_C 	C 	0.47668	0.4681	0.5348	-0.068
Mof_H 	H 	0.4611	0.4459	0.5583	0.052
Mof_C 	C 	0.46695	0.5332	0.439	-0.073
Mof_H 	H 	0.4449	0.5551	0.3978	0.046
Mof_C 	C 	0.17325	0.4521	0.4644	0.01
Mof_H 	H 	0.1782	0.4594	0.5043	-0.001
Mof_C 	C 	0.1791	0.394	0.3876	0.084
Mof_H 	H 	0.1885	0.353	0.3632	-0.027
Mof_C 	C 	0.1413	0.5155	0.4153	-0.017
Mof_H 	H 	0.1206	0.5731	0.415	0.035
Mof_C 	C 	0.118	0.5217	0.303	-0.122
Mof_H 	H 	0.1274	0.4796	0.2768	0.061
Mof_H 	H 	0.1307	0.5935	0.304	0.062
Mof_C 	C 	0.028	0.427	0.2626	-0.071
Mof_H 	H 	0.0468	0.363	0.2711	0.049
Mof_C 	C 	0.0568	0.522	0.2755	0.057
Mof_C 	C 	0.0282	0.6157	0.263	-0.075
Mof_H 	H 	0.047	0.6797	0.272	0.048
Mof_N 	N 	0.30506	0.3036	0.46918	-0.255
Mof_N 	N 	0.35578	0.4119	0.44972	-0.109
Mof_N 	N 	0.19691	0.3765	0.44689	-0.258
Mof_N 	N 	0.14582	0.4778	0.36673	-0.109
Mof_C 	C 	0.82665	0.8983	0.4785	0.085
Mof_H 	H 	0.8223	0.9503	0.5023	-0.029
Mof_C 	C 	0.82122	0.7536	0.4322	0.007
Mof_H 	H 	0.812	0.6845	0.4176	-0.001
Mof_C 	C 	0.8525	0.8192	0.42	-0.017
Mof_H 	H 	0.8686	0.8041	0.396	0.033
Mof_C 	C 	0.88162	0.0098	0.4455	-0.119
Mof_H 	H 	0.8734	0.0662	0.4663	0.062
Mof_H 	H 	0.8656	0.0293	0.4019	0.062
Mof_C 	C 	0.94295	0.0018	0.4739	0.058
Mof_C 	C 	0.97668	0.9681	0.5348	-0.074
Mof_H 	H 	0.9611	0.9459	0.5583	0.054
Mof_C 	C 	0.96695	0.0332	0.439	-0.077
Mof_H 	H 	0.9449	0.0551	0.3978	0.048
Mof_C 	C 	0.67325	0.9521	0.4644	0.007
Mof_H 	H 	0.6782	0.9594	0.5043	-0
Mof_C 	C 	0.6791	0.894	0.3876	0.084
Mof_H 	H 	0.6885	0.853	0.3632	-0.028
Mof_C 	C 	0.6413	0.0155	0.4153	-0.013
Mof_H 	H 	0.6206	0.0731	0.415	0.034
Mof_C 	C 	0.618	0.0217	0.303	-0.118
Mof_H 	H 	0.6274	0.9796	0.2768	0.059
Mof_H 	H 	0.6307	0.0935	0.304	0.062
Mof_C 	C 	0.528	0.927	0.2626	-0.073
Mof_H 	H 	0.5468	0.863	0.2711	0.05
Mof_C 	C 	0.5568	0.022	0.2755	0.057
Mof_C 	C 	0.5282	0.1157	0.263	-0.075
Mof_H 	H 	0.547	0.1797	0.272	0.048
Mof_N 	N 	0.80506	0.8036	0.46918	-0.255
Mof_N 	N 	0.85578	0.9119	0.44972	-0.109
Mof_N 	N 	0.69691	0.8765	0.44689	-0.258
Mof_N 	N 	0.64582	0.9778	0.36673	-0.11
Mof_C 	C 	0.67335	0.3983	0.0215	0.035
Mof_H 	H 	0.6777	0.4503	0.9977	0.011
Mof_C 	C 	0.67878	0.2536	0.0678	0.004
Mof_H 	H 	0.688	0.1845	0.0824	-0.003
Mof_C 	C 	0.6475	0.3192	0.08	-0.016
Mof_H 	H 	0.6314	0.3041	0.104	0.031
Mof_C 	C 	0.61838	0.5098	0.0545	-0.073
Mof_H 	H 	0.6266	0.5662	0.0337	0.042
Mof_H 	H 	0.6344	0.5293	0.0981	0.048
Mof_C 	C 	0.55705	0.5018	0.0261	-0.041
Mof_C 	C 	0.52332	0.4681	0.9652	0.044
Mof_H 	H 	0.5389	0.4459	0.9417	0.021
Mof_C 	C 	0.53305	0.5332	0.061	0.013
Mof_H 	H 	0.5551	0.5551	0.1022	0.016
Mof_C 	C 	0.82675	0.4521	0.0356	-0.057
Mof_H 	H 	0.8218	0.4594	0.9957	0.041
Mof_C 	C 	0.8209	0.394	0.1124	0.083
Mof_H 	H 	0.8115	0.353	0.1368	-0.028
Mof_C 	C 	0.8587	0.5155	0.0847	0.013
Mof_H 	H 	0.8794	0.5731	0.085	0.018
Mof_C 	C 	0.882	0.5217	0.197	-0.12
Mof_H 	H 	0.8726	0.4796	0.2232	0.061
Mof_H 	H 	0.8693	0.5935	0.196	0.061
Mof_C 	C 	0.972	0.427	0.2374	-0.07
Mof_H 	H 	0.9532	0.363	0.2289	0.049
Mof_C 	C 	0.9432	0.522	0.2245	0.055
Mof_C 	C 	0.9718	0.6157	0.237	-0.073
Mof_H 	H 	0.953	0.6797	0.228	0.047
Mof_N 	N 	0.69494	0.3036	0.03082	-0.25
Mof_N 	N 	0.64422	0.4119	0.05028	-0.109
Mof_N 	N 	0.80309	0.3765	0.05311	-0.252
Mof_N 	N 	0.85418	0.4778	0.13327	-0.114
Mof_C 	C 	0.17335	0.8983	0.0215	0.036
Mof_H 	H 	0.1777	0.9503	0.9977	0.01
Mof_C 	C 	0.17878	0.7536	0.0678	0.004
Mof_H 	H 	0.188	0.6845	0.0824	-0.003
Mof_C 	C 	0.1475	0.8192	0.08	-0.016
Mof_H 	H 	0.1314	0.8041	0.104	0.031
Mof_C 	C 	0.11838	0.0098	0.0545	-0.076
Mof_H 	H 	0.1266	0.0662	0.0337	0.043
Mof_H 	H 	0.1344	0.0293	0.0981	0.049
Mof_C 	C 	0.05705	0.0018	0.0261	-0.033
Mof_C 	C 	0.02332	0.9681	0.9652	0.036
Mof_H 	H 	0.0389	0.9459	0.9417	0.023
Mof_C 	C 	0.03305	0.0332	0.061	0.007
Mof_H 	H 	0.0551	0.0551	0.1022	0.018
Mof_C 	C 	0.32675	0.9521	0.0356	-0.059
Mof_H 	H 	0.3218	0.9594	0.9957	0.041
Mof_C 	C 	0.3209	0.894	0.1124	0.083
Mof_H 	H 	0.3115	0.853	0.1368	-0.028
Mof_C 	C 	0.3587	0.0155	0.0847	0.016
Mof_H 	H 	0.3794	0.0731	0.085	0.017
Mof_C 	C 	0.382	0.0217	0.197	-0.116
Mof_H 	H 	0.3726	0.9796	0.2232	0.059
Mof_H 	H 	0.3693	0.0935	0.196	0.06
Mof_C 	C 	0.472	0.927	0.2374	-0.07
Mof_H 	H 	0.4532	0.863	0.2289	0.049
Mof_C 	C 	0.4432	0.022	0.2245	0.055
Mof_C 	C 	0.4718	0.1157	0.237	-0.073
Mof_H 	H 	0.453	0.1797	0.228	0.047
Mof_N 	N 	0.19494	0.8036	0.03082	-0.25
Mof_N 	N 	0.14422	0.9119	0.05028	-0.109
Mof_N 	N 	0.30309	0.8765	0.05311	-0.252
Mof_N 	N 	0.35418	0.9778	0.13327	-0.116
Mof_C 	C 	0.67335	0.6017	0.5215	0.085
Mof_H 	H 	0.6777	0.5497	0.4977	-0.029
Mof_C 	C 	0.67878	0.7464	0.5678	0.007
Mof_H 	H 	0.688	0.8155	0.5824	-0.001
Mof_C 	C 	0.6475	0.6808	0.58	-0.017
Mof_H 	H 	0.6314	0.6959	0.604	0.034
Mof_C 	C 	0.61838	0.4902	0.5545	-0.119
Mof_H 	H 	0.6266	0.4338	0.5337	0.062
Mof_H 	H 	0.6344	0.4707	0.5981	0.063
Mof_C 	C 	0.55705	0.4982	0.5261	0.055
Mof_C 	C 	0.52332	0.5319	0.4652	-0.07
Mof_H 	H 	0.5389	0.5541	0.4417	0.052
Mof_C 	C 	0.53305	0.4668	0.561	-0.074
Mof_H 	H 	0.5551	0.4449	0.6022	0.048
Mof_C 	C 	0.82675	0.5479	0.5356	0.01
Mof_H 	H 	0.8218	0.5406	0.4957	-0.001
Mof_C 	C 	0.8209	0.606	0.6124	0.084
Mof_H 	H 	0.8115	0.647	0.6368	-0.027
Mof_C 	C 	0.8587	0.4845	0.5847	-0.017
Mof_H 	H 	0.8794	0.4269	0.585	0.035
Mof_C 	C 	0.882	0.4783	0.697	-0.123
Mof_H 	H 	0.8726	0.5204	0.7232	0.063
Mof_H 	H 	0.8693	0.4065	0.696	0.064
Mof_C 	C 	0.972	0.573	0.7374	-0.069
Mof_H 	H 	0.9532	0.637	0.7289	0.05
Mof_C 	C 	0.9432	0.478	0.7245	0.058
Mof_C 	C 	0.9718	0.3843	0.737	-0.073
Mof_H 	H 	0.953	0.3203	0.728	0.049
Mof_N 	N 	0.69494	0.6964	0.53082	-0.255
Mof_N 	N 	0.64422	0.5881	0.55028	-0.109
Mof_N 	N 	0.80309	0.6235	0.55311	-0.258
Mof_N 	N 	0.85418	0.5222	0.63327	-0.108
Mof_C 	C 	0.17335	0.1017	0.5215	0.085
Mof_H 	H 	0.1777	0.0497	0.4977	-0.028
Mof_C 	C 	0.17878	0.2464	0.5678	0.007
Mof_H 	H 	0.188	0.3155	0.5824	-0.001
Mof_C 	C 	0.1475	0.1808	0.58	-0.016
Mof_H 	H 	0.1314	0.1959	0.604	0.034
Mof_C 	C 	0.11838	0.9902	0.5545	-0.118
Mof_H 	H 	0.1266	0.9338	0.5337	0.061
Mof_H 	H 	0.1344	0.9707	0.5981	0.062
Mof_C 	C 	0.05705	0.9982	0.5261	0.05
Mof_C 	C 	0.02332	0.0319	0.4652	-0.064
Mof_H 	H 	0.0389	0.0541	0.4417	0.05
Mof_C 	C 	0.03305	0.9668	0.561	-0.07
Mof_H 	H 	0.0551	0.9449	0.6022	0.046
Mof_C 	C 	0.32675	0.0479	0.5356	0.014
Mof_H 	H 	0.3218	0.0406	0.4957	-0.002
Mof_C 	C 	0.3209	0.106	0.6124	0.084
Mof_H 	H 	0.3115	0.147	0.6368	-0.027
Mof_C 	C 	0.3587	0.9845	0.5847	-0.022
Mof_H 	H 	0.3794	0.9269	0.585	0.036
Mof_C 	C 	0.382	0.9783	0.697	-0.127
Mof_H 	H 	0.3726	0.0204	0.7232	0.066
Mof_H 	H 	0.3693	0.9065	0.696	0.065
Mof_C 	C 	0.472	0.073	0.7374	-0.068
Mof_H 	H 	0.4532	0.137	0.7289	0.05
Mof_C 	C 	0.4432	0.978	0.7245	0.057
Mof_C 	C 	0.4718	0.8843	0.737	-0.072
Mof_H 	H 	0.453	0.8203	0.728	0.049
Mof_N 	N 	0.19494	0.1964	0.53082	-0.255
Mof_N 	N 	0.14422	0.0881	0.55028	-0.108
Mof_N 	N 	0.30309	0.1235	0.55311	-0.258
Mof_N 	N 	0.35418	0.0222	0.63327	-0.106
Mof_C 	C 	0.32665	0.6017	0.9785	0.135
Mof_H 	H 	0.3223	0.5497	0.0023	-0.067
Mof_C 	C 	0.32122	0.7464	0.9322	0.011
Mof_H 	H 	0.312	0.8155	0.9176	0.001
Mof_C 	C 	0.3525	0.6808	0.92	-0.017
Mof_H 	H 	0.3686	0.6959	0.896	0.037
Mof_C 	C 	0.38162	0.4902	0.9455	-0.164
Mof_H 	H 	0.3734	0.4338	0.9663	0.082
Mof_H 	H 	0.3656	0.4707	0.9019	0.076
Mof_C 	C 	0.44295	0.4982	0.9739	0.15
Mof_C 	C 	0.47668	0.5319	0.0348	-0.182
Mof_H 	H 	0.4611	0.5541	0.0583	0.083
Mof_C 	C 	0.46695	0.4668	0.939	-0.16
Mof_H 	H 	0.4449	0.4449	0.8978	0.079
Mof_C 	C 	0.17325	0.5479	0.9644	0.078
Mof_H 	H 	0.1782	0.5406	0.0043	-0.042
Mof_C 	C 	0.1791	0.606	0.8876	0.085
Mof_H 	H 	0.1885	0.647	0.8632	-0.026
Mof_C 	C 	0.1413	0.4845	0.9153	-0.048
Mof_H 	H 	0.1206	0.4269	0.915	0.052
Mof_C 	C 	0.118	0.4783	0.803	-0.125
Mof_H 	H 	0.1274	0.5204	0.7768	0.063
Mof_H 	H 	0.1307	0.4065	0.804	0.066
Mof_C 	C 	0.028	0.573	0.7626	-0.071
Mof_H 	H 	0.0468	0.637	0.7711	0.051
Mof_C 	C 	0.0568	0.478	0.7755	0.06
Mof_C 	C 	0.0282	0.3843	0.763	-0.074
Mof_H 	H 	0.047	0.3203	0.772	0.05
Mof_N 	N 	0.30506	0.6964	0.96918	-0.256
Mof_N 	N 	0.35578	0.5881	0.94972	-0.109
Mof_N 	N 	0.19691	0.6235	0.94689	-0.261
Mof_N 	N 	0.14582	0.5222	0.86673	-0.103
Mof_C 	C 	0.82665	0.1017	0.9785	0.135
Mof_H 	H 	0.8223	0.0497	0.0023	-0.066
Mof_C 	C 	0.82122	0.2464	0.9322	0.011
Mof_H 	H 	0.812	0.3155	0.9176	0.001
Mof_C 	C 	0.8525	0.1808	0.92	-0.017
Mof_H 	H 	0.8686	0.1959	0.896	0.037
Mof_C 	C 	0.88162	0.9902	0.9455	-0.162
Mof_H 	H 	0.8734	0.9338	0.9663	0.081
Mof_H 	H 	0.8656	0.9707	0.9019	0.075
Mof_C 	C 	0.94295	0.9982	0.9739	0.143
Mof_C 	C 	0.97668	0.0319	0.0348	-0.174
Mof_H 	H 	0.9611	0.0541	0.0583	0.081
Mof_C 	C 	0.96695	0.9668	0.939	-0.154
Mof_H 	H 	0.9449	0.9449	0.8978	0.076
Mof_C 	C 	0.67325	0.0479	0.9644	0.082
Mof_H 	H 	0.6782	0.0406	0.0043	-0.043
Mof_C 	C 	0.6791	0.106	0.8876	0.085
Mof_H 	H 	0.6885	0.147	0.8632	-0.025
Mof_C 	C 	0.6413	0.9845	0.9153	-0.053
Mof_H 	H 	0.6206	0.9269	0.915	0.053
Mof_C 	C 	0.618	0.9783	0.803	-0.13
Mof_H 	H 	0.6274	0.0204	0.7768	0.066
Mof_H 	H 	0.6307	0.9065	0.804	0.067
Mof_C 	C 	0.528	0.073	0.7626	-0.07
Mof_H 	H 	0.5468	0.137	0.7711	0.052
Mof_C 	C 	0.5568	0.978	0.7755	0.06
Mof_C 	C 	0.5282	0.8843	0.763	-0.075
Mof_H 	H 	0.547	0.8203	0.772	0.05
Mof_N 	N 	0.80506	0.1964	0.96918	-0.256
Mof_N 	N 	0.85578	0.0881	0.94972	-0.108
Mof_N 	N 	0.69691	0.1235	0.94689	-0.261
Mof_N 	N 	0.64582	0.0222	0.86673	-0.1
Mof_Co	Co	0.25	0.25	0.5	1.068
Mof_Co	Co	0.75	0.25	-0	1.057
Mof_Co	Co	0.75	0.75	0.5	1.068
Mof_Co	Co	0.25	0.75	-0	1.057
_end
