# CIF file generated by openbabel 3.1.0, see https://openbabel.org
data_I
_chemical_name_common 'IGAHED02_clean'
_cell_length_a 6.9104
_cell_length_b 7.4253
_cell_length_c 8.2544
_cell_angle_alpha 90.397
_cell_angle_beta 109.835
_cell_angle_gamma 93.137
_space_group_name_H-M_alt 'P 1'
_space_group_name_Hall 'P 1'
loop_
    _symmetry_equiv_pos_as_xyz
    x,y,z
loop_
    _atom_site_label
    _atom_site_type_symbol
    _atom_site_fract_x
    _atom_site_fract_y
    _atom_site_fract_z
    _atom_site_occupancy
    Co1      Co       0.00000    0.50000    0.00000    1.000
    Co2      Co       0.50000    0.00000    0.00000    1.000
    H1       H        0.44200    0.79500    0.54700    1.000
    H2       H        0.55800    0.20500    0.45300    1.000
    C1       C        0.53560    0.56810    0.66650    1.000
    C2       C        0.58040    0.39210    0.64200    1.000
    C3       C        0.45610    0.67450    0.52420    1.000
    C4       C        0.64800    0.25950    0.78470    1.000
    C5       C        0.57450    0.65700    0.83960    1.000
    C6       C        0.46440    0.43190    0.33350    1.000
    C7       C        0.41960    0.60790    0.35800    1.000
    C8       C        0.54390    0.32550    0.47580    1.000
    C9       C        0.35200    0.74050    0.21530    1.000
    C10      C        0.42550    0.34300    0.16040    1.000
    O1       O        0.44410    0.76190    0.85030    1.000
    O2       O        0.73700    0.62950    0.96230    1.000
    O3       O        0.82930    0.26820    0.88840    1.000
    O4       O        0.51170    0.14300    0.78770    1.000
    O5       O        0.55590    0.23810    0.14970    1.000
    O6       O        0.26300    0.37050    0.03770    1.000
    O7       O        0.17070    0.73180    0.11160    1.000
    O8       O        0.48830    0.85700    0.21230    1.000
