data_functionalizedCrystal
_audit_creation_method	'EQeq! by Chris Wilmer'
_symmetry_space_group_name_H-M	'P1'
_symmetry_Int_Tables_number	1
_symmetry_cell_setting	triclinic
loop_
_symmetry_equiv_pos_as_xyz
  x,y,z
_cell_length_a	16.4166
_cell_length_b	16.4166
_cell_length_c	16.4166
_cell_angle_alpha	96.0643
_cell_angle_beta	116.563
_cell_angle_gamma	116.563
loop_
_atom_site_label
_atom_site_type_symbol
_atom_site_fract_x
_atom_site_fract_y
_atom_site_fract_z
_atom_site_charge
Mof_H 	H 	0.5046	0.4615	0.1977	0.08
Mof_H 	H 	0.4428	0.4742	0.302	0.046
Mof_H 	H 	0.532	0.6269	0.4213	0.089
Mof_H 	H 	0.6812	0.7591	0.4423	0.006
Mof_Pb	Pb	0.82508	0.84658	0.33106	0.719
Mof_C 	C 	0.6843	0.5164	0.0059	0.272
Mof_C 	C 	0.6975	0.5751	0.091	-0.02
Mof_C 	C 	0.7685	0.6752	0.1459	-0.016
Mof_C 	C 	0.6701	0.6085	0.201	0.088
Mof_C 	C 	0.8471	0.7596	0.1393	0.289
Mof_C 	C 	0.6292	0.6054	0.2636	0.056
Mof_C 	C 	0.5395	0.5213	0.2474	-0.099
Mof_C 	C 	0.5023	0.5292	0.3095	0.047
Mof_C 	C 	0.556	0.6198	0.381	-0.126
Mof_C 	C 	0.6448	0.6991	0.3923	0.093
Mof_N 	N 	0.6353	0.533	0.1251	-0.153
Mof_N 	N 	0.7507	0.6947	0.2166	-0.156
Mof_N 	N 	0.682	0.6954	0.3364	-0.156
Mof_O 	O 	0.6197	0.4279	0.9664	-0.288
Mof_O 	O 	0.7453	0.5645	0.975	-0.187
Mof_O 	O 	0.8644	0.7452	0.0742	-0.251
Mof_O 	O 	0.8911	0.8431	0.2008	-0.335
Mof_H 	H 	0.9954	0.1931	0.9569	0.074
Mof_H 	H 	0.0572	0.3592	0.0314	0.059
Mof_H 	H 	0.968	0.3893	0.0949	0.081
Mof_H 	H 	0.8188	0.2611	0.0779	0.009
Mof_Pb	Pb	0.67492	0.00598	0.0215	0.719
Mof_C 	C 	0.8157	0.8216	0.8321	0.277
Mof_C 	C 	0.8025	0.8935	0.8776	-0.02
Mof_C 	C 	0.7315	0.8774	0.9067	-0.014
Mof_C 	C 	0.8299	0.0309	0.9384	0.089
Mof_C 	C 	0.6529	0.7922	0.9125	0.289
Mof_C 	C 	0.8708	0.1344	0.9762	0.053
Mof_C 	C 	0.9605	0.2079	0.9818	-0.08
Mof_C 	C 	0.9977	0.3072	0.0269	0.018
Mof_C 	C 	0.944	0.325	0.0638	-0.109
Mof_C 	C 	0.8552	0.2475	0.0543	0.082
Mof_N 	N 	0.8647	0.9898	0.8977	-0.152
Mof_N 	N 	0.7493	0.9659	0.944	-0.155
Mof_N 	N 	0.818	0.1544	0.0134	-0.154
Mof_O 	O 	0.8803	0.8467	0.8082	-0.289
Mof_O 	O 	0.7547	0.7297	0.8192	-0.19
Mof_O 	O 	0.6356	0.7098	0.8808	-0.248
Mof_O 	O 	0.6089	0.8097	0.952	-0.333
Mof_H 	H 	0.7362	0.1977	0.1931	0.079
Mof_H 	H 	0.8278	0.302	0.3592	0.045
Mof_H 	H 	0.7944	0.4213	0.3893	0.089
Mof_H 	H 	0.6832	0.4423	0.2611	0.006
Mof_Pb	Pb	0.48448	0.33106	0.00598	0.721
Mof_C 	C 	0.4895	0.0059	0.8216	0.276
Mof_C 	C 	0.5159	0.091	0.8935	-0.021
Mof_C 	C 	0.4707	0.1459	0.8774	-0.015
Mof_C 	C 	0.5925	0.201	0.0309	0.088
Mof_C 	C 	0.3797	0.1393	0.7922	0.289
Mof_C 	C 	0.6582	0.2636	0.1344	0.056
Mof_C 	C 	0.7261	0.2474	0.2079	-0.099
Mof_C 	C 	0.7803	0.3095	0.3072	0.047
Mof_C 	C 	0.7612	0.381	0.325	-0.126
Mof_C 	C 	0.6932	0.3923	0.2475	0.092
Mof_N 	N 	0.5921	0.1251	0.9898	-0.152
Mof_N 	N 	0.5219	0.2166	0.9659	-0.156
Mof_N 	N 	0.641	0.3364	0.1544	-0.156
Mof_O 	O 	0.5385	0.9664	0.8467	-0.289
Mof_O 	O 	0.4105	0.975	0.7297	-0.19
Mof_O 	O 	0.329	0.0742	0.7098	-0.249
Mof_O 	O 	0.3577	0.2008	0.8097	-0.335
Mof_H 	H 	0.7638	0.9569	0.4615	0.08
Mof_H 	H 	0.6722	0.0314	0.4742	0.046
Mof_H 	H 	0.7056	0.0949	0.6269	0.089
Mof_H 	H 	0.8168	0.0779	0.7591	0.006
Mof_Pb	Pb	0.01552	0.0215	0.84658	0.713
Mof_C 	C 	0.0105	0.8321	0.5164	0.276
Mof_C 	C 	0.9841	0.8776	0.5751	-0.019
Mof_C 	C 	0.0293	0.9067	0.6752	-0.018
Mof_C 	C 	0.9075	0.9384	0.6085	0.088
Mof_C 	C 	0.1203	0.9125	0.7596	0.29
Mof_C 	C 	0.8418	0.9762	0.6054	0.057
Mof_C 	C 	0.7739	0.9818	0.5213	-0.099
Mof_C 	C 	0.7197	0.0269	0.5292	0.047
Mof_C 	C 	0.7388	0.0638	0.6198	-0.126
Mof_C 	C 	0.8068	0.0543	0.6991	0.093
Mof_N 	N 	0.9079	0.8977	0.533	-0.153
Mof_N 	N 	0.9781	0.944	0.6947	-0.154
Mof_N 	N 	0.859	0.0134	0.6954	-0.155
Mof_O 	O 	0.9615	0.8082	0.4279	-0.291
Mof_O 	O 	0.0895	0.8192	0.5645	-0.19
Mof_O 	O 	0.171	0.8808	0.7452	-0.249
Mof_O 	O 	0.1423	0.952	0.8431	-0.335
Mof_H 	H 	0.4954	0.5385	0.8023	0.08
Mof_H 	H 	0.5572	0.5258	0.698	0.046
Mof_H 	H 	0.468	0.3731	0.5787	0.089
Mof_H 	H 	0.3188	0.2409	0.5577	0.006
Mof_Pb	Pb	0.17492	0.15342	0.66894	0.719
Mof_C 	C 	0.3157	0.4836	0.9941	0.272
Mof_C 	C 	0.3025	0.4249	0.909	-0.02
Mof_C 	C 	0.2315	0.3248	0.8541	-0.016
Mof_C 	C 	0.3299	0.3915	0.799	0.088
Mof_C 	C 	0.1529	0.2404	0.8607	0.289
Mof_C 	C 	0.3708	0.3946	0.7364	0.056
Mof_C 	C 	0.4605	0.4787	0.7526	-0.099
Mof_C 	C 	0.4977	0.4708	0.6905	0.047
Mof_C 	C 	0.444	0.3802	0.619	-0.126
Mof_C 	C 	0.3552	0.3009	0.6077	0.093
Mof_N 	N 	0.3647	0.467	0.8749	-0.153
Mof_N 	N 	0.2493	0.3053	0.7834	-0.156
Mof_N 	N 	0.318	0.3046	0.6636	-0.156
Mof_O 	O 	0.3803	0.5721	0.0336	-0.288
Mof_O 	O 	0.2547	0.4355	0.025	-0.187
Mof_O 	O 	0.1356	0.2548	0.9258	-0.251
Mof_O 	O 	0.1089	0.1569	0.7992	-0.335
Mof_H 	H 	0.0046	0.8069	0.0431	0.074
Mof_H 	H 	0.9428	0.6408	0.9686	0.059
Mof_H 	H 	0.032	0.6107	0.9051	0.081
Mof_H 	H 	0.1812	0.7389	0.9221	0.009
Mof_Pb	Pb	0.32508	0.99402	0.9785	0.719
Mof_C 	C 	0.1843	0.1784	0.1679	0.277
Mof_C 	C 	0.1975	0.1065	0.1224	-0.02
Mof_C 	C 	0.2685	0.1226	0.0933	-0.014
Mof_C 	C 	0.1701	0.9691	0.0616	0.089
Mof_C 	C 	0.3471	0.2078	0.0875	0.289
Mof_C 	C 	0.1292	0.8656	0.0238	0.053
Mof_C 	C 	0.0395	0.7921	0.0182	-0.08
Mof_C 	C 	0.0023	0.6928	0.9731	0.018
Mof_C 	C 	0.056	0.675	0.9362	-0.109
Mof_C 	C 	0.1448	0.7525	0.9457	0.082
Mof_N 	N 	0.1353	0.0102	0.1023	-0.152
Mof_N 	N 	0.2507	0.0341	0.056	-0.155
Mof_N 	N 	0.182	0.8456	0.9866	-0.154
Mof_O 	O 	0.1197	0.1533	0.1918	-0.289
Mof_O 	O 	0.2453	0.2703	0.1808	-0.19
Mof_O 	O 	0.3644	0.2902	0.1192	-0.248
Mof_O 	O 	0.3911	0.1903	0.048	-0.333
Mof_H 	H 	0.2638	0.8023	0.8069	0.079
Mof_H 	H 	0.1722	0.698	0.6408	0.045
Mof_H 	H 	0.2056	0.5787	0.6107	0.089
Mof_H 	H 	0.3168	0.5577	0.7389	0.006
Mof_Pb	Pb	0.51552	0.66894	0.99402	0.721
Mof_C 	C 	0.5105	0.9941	0.1784	0.276
Mof_C 	C 	0.4841	0.909	0.1065	-0.021
Mof_C 	C 	0.5293	0.8541	0.1226	-0.015
Mof_C 	C 	0.4075	0.799	0.9691	0.088
Mof_C 	C 	0.6203	0.8607	0.2078	0.289
Mof_C 	C 	0.3418	0.7364	0.8656	0.056
Mof_C 	C 	0.2739	0.7526	0.7921	-0.099
Mof_C 	C 	0.2197	0.6905	0.6928	0.047
Mof_C 	C 	0.2388	0.619	0.675	-0.126
Mof_C 	C 	0.3068	0.6077	0.7525	0.092
Mof_N 	N 	0.4079	0.8749	0.0102	-0.152
Mof_N 	N 	0.4781	0.7834	0.0341	-0.156
Mof_N 	N 	0.359	0.6636	0.8456	-0.156
Mof_O 	O 	0.4615	0.0336	0.1533	-0.289
Mof_O 	O 	0.5895	0.025	0.2703	-0.19
Mof_O 	O 	0.671	0.9258	0.2902	-0.249
Mof_O 	O 	0.6423	0.7992	0.1903	-0.335
Mof_H 	H 	0.2362	0.0431	0.5385	0.08
Mof_H 	H 	0.3278	0.9686	0.5258	0.046
Mof_H 	H 	0.2944	0.9051	0.3731	0.089
Mof_H 	H 	0.1832	0.9221	0.2409	0.006
Mof_Pb	Pb	0.98448	0.9785	0.15342	0.713
Mof_C 	C 	0.9895	0.1679	0.4836	0.276
Mof_C 	C 	0.0159	0.1224	0.4249	-0.019
Mof_C 	C 	0.9707	0.0933	0.3248	-0.018
Mof_C 	C 	0.0925	0.0616	0.3915	0.088
Mof_C 	C 	0.8797	0.0875	0.2404	0.29
Mof_C 	C 	0.1582	0.0238	0.3946	0.057
Mof_C 	C 	0.2261	0.0182	0.4787	-0.099
Mof_C 	C 	0.2803	0.9731	0.4708	0.047
Mof_C 	C 	0.2612	0.9362	0.3802	-0.126
Mof_C 	C 	0.1932	0.9457	0.3009	0.093
Mof_N 	N 	0.0921	0.1023	0.467	-0.153
Mof_N 	N 	0.0219	0.056	0.3053	-0.154
Mof_N 	N 	0.141	0.9866	0.3046	-0.155
Mof_O 	O 	0.0385	0.1918	0.5721	-0.291
Mof_O 	O 	0.9105	0.1808	0.4355	-0.19
Mof_O 	O 	0.829	0.1192	0.2548	-0.249
Mof_O 	O 	0.8577	0.048	0.1569	-0.335
_end
