data_functionalizedCrystal
_audit_creation_method	'EQeq! by Chris Wilmer'
_symmetry_space_group_name_H-M	'P1'
_symmetry_Int_Tables_number	1
_symmetry_cell_setting	triclinic
loop_
_symmetry_equiv_pos_as_xyz
  x,y,z
_cell_length_a	8.3911
_cell_length_b	10.5518
_cell_length_c	17.4632
_cell_angle_alpha	98.993
_cell_angle_beta	97.112
_cell_angle_gamma	100.424
loop_
_atom_site_label
_atom_site_type_symbol
_atom_site_fract_x
_atom_site_fract_y
_atom_site_fract_z
_atom_site_charge
Mof_Sm	Sm	0.52136	0.13786	0.29643	2.589
Mof_Sm	Sm	0.03463	0.19085	0.23747	2.61
Mof_C 	C 	0.0259	0.4417	0.19563	0.34
Mof_C 	C 	0.0276	0.5714	0.1714	-0.137
Mof_C 	C 	0.1226	0.6848	0.21756	0.09
Mof_H 	H 	0.184	0.6803	0.2648	0.029
Mof_C 	C 	0.1277	0.8055	0.19442	-0.185
Mof_C 	C 	0.0347	0.8113	0.1243	0.106
Mof_H 	H 	0.0354	0.8918	0.1088	-0.008
Mof_C 	C 	0.9403	0.6978	0.0769	-0.167
Mof_H 	H 	0.8798	0.7021	0.0294	0.099
Mof_C 	C 	0.9366	0.5786	0.1008	0.081
Mof_H 	H 	0.8728	0.5027	0.0693	0.016
Mof_C 	C 	0.2413	0.9227	0.24236	0.437
Mof_C 	C 	0.8391	0.0017	0.35876	0.596
Mof_C 	C 	0.8725	0.9061	0.41111	-0.275
Mof_C 	C 	0.998	0.8378	0.4022	0.16
Mof_H 	H 	0.0618	0.8502	0.363	-0.013
Mof_C 	C 	0.0278	0.7518	0.4512	-0.216
Mof_H 	H 	0.1101	0.7047	0.444	0.115
Mof_C 	C 	0.9373	0.7344	0.511	0.168
Mof_H 	H 	0.9595	0.6769	0.5443	-0.038
Mof_C 	C 	0.8128	0.8033	0.52119	-0.258
Mof_C 	C 	0.7802	0.8871	0.47042	0.198
Mof_H 	H 	0.6949	0.9314	0.4762	-0.014
Mof_C 	C 	0.7187	0.791	0.58747	0.518
Mof_C 	C 	0.6883	0.9999	0.13666	0.594
Mof_C 	C 	0.5984	0.9059	0.06496	-0.297
Mof_C 	C 	0.4344	0.8485	0.0626	0.202
Mof_H 	H 	0.3837	0.8659	0.1064	-0.041
Mof_C 	C 	0.3469	0.7664	0.9961	-0.26
Mof_H 	H 	0.2378	0.7276	0.9952	0.135
Mof_C 	C 	0.4204	0.7412	0.9303	0.195
Mof_H 	H 	0.3598	0.6874	0.8849	-0.029
Mof_C 	C 	0.5836	0.7955	0.93178	-0.276
Mof_C 	C 	0.6726	0.879	0.99947	0.209
Mof_H 	H 	0.7822	0.9168	0.0005	-0.03
Mof_C 	C 	0.6606	0.7705	0.85978	0.513
Mof_C 	C 	0.7858	0.3723	0.3378	0.601
Mof_H 	H 	0.8669	0.4482	0.3512	-0.167
Mof_O 	O 	0.1248	0.4349	0.25617	-0.444
Mof_O 	O 	0.9286	0.3426	0.15765	-0.455
Mof_O 	O 	0.3586	0.9101	0.29022	-0.48
Mof_O 	O 	0.2254	0.0374	0.23106	-0.696
Mof_O 	O 	0.8376	0.0455	0.14082	-0.607
Mof_O 	O 	0.6047	0.0289	0.18983	-0.659
Mof_O 	O 	0.8135	0.7875	0.86806	-0.569
Mof_O 	O 	0.5674	0.7325	0.79343	-0.603
Mof_O 	O 	0.71	0.0457	0.36471	-0.625
Mof_O 	O 	0.9389	0.0311	0.31374	-0.605
Mof_O 	O 	0.5898	0.835	0.58519	-0.575
Mof_O 	O 	0.7721	0.7394	0.64359	-0.621
Mof_O 	O 	0.8169	0.2739	0.29827	-0.733
Mof_O 	O 	0.6514	0.374	0.36017	-0.52
Mof_Sm	Sm	0.47864	0.86214	0.70357	2.59
Mof_Sm	Sm	0.96537	0.80915	0.76253	2.611
Mof_C 	C 	0.9741	0.5583	0.80437	0.341
Mof_C 	C 	0.9724	0.4286	0.8286	-0.136
Mof_C 	C 	0.8774	0.3152	0.78244	0.09
Mof_H 	H 	0.816	0.3197	0.7352	0.029
Mof_C 	C 	0.8723	0.1945	0.80558	-0.185
Mof_C 	C 	0.9653	0.1887	0.8757	0.106
Mof_H 	H 	0.9646	0.1082	0.8912	-0.008
Mof_C 	C 	0.0597	0.3022	0.9231	-0.167
Mof_H 	H 	0.1202	0.2979	0.9706	0.099
Mof_C 	C 	0.0634	0.4214	0.8992	0.081
Mof_H 	H 	0.1272	0.4973	0.9307	0.016
Mof_C 	C 	0.7587	0.0773	0.75764	0.437
Mof_C 	C 	0.1609	0.9983	0.64124	0.596
Mof_C 	C 	0.1275	0.0939	0.58889	-0.275
Mof_C 	C 	0.002	0.1622	0.5978	0.16
Mof_H 	H 	0.9382	0.1498	0.637	-0.013
Mof_C 	C 	0.9722	0.2482	0.5488	-0.216
Mof_H 	H 	0.8899	0.2953	0.556	0.115
Mof_C 	C 	0.0627	0.2656	0.489	0.168
Mof_H 	H 	0.0405	0.3231	0.4557	-0.038
Mof_C 	C 	0.1872	0.1967	0.47881	-0.258
Mof_C 	C 	0.2198	0.1129	0.52958	0.198
Mof_H 	H 	0.3051	0.0686	0.5238	-0.014
Mof_C 	C 	0.2813	0.209	0.41253	0.518
Mof_C 	C 	0.3117	0.0001	0.86334	0.594
Mof_C 	C 	0.4016	0.0941	0.93504	-0.297
Mof_C 	C 	0.5656	0.1515	0.9374	0.202
Mof_H 	H 	0.6163	0.1341	0.8936	-0.041
Mof_C 	C 	0.6531	0.2336	0.0039	-0.26
Mof_H 	H 	0.7622	0.2724	0.0048	0.135
Mof_C 	C 	0.5796	0.2588	0.0697	0.195
Mof_H 	H 	0.6402	0.3126	0.1151	-0.029
Mof_C 	C 	0.4164	0.2045	0.06822	-0.276
Mof_C 	C 	0.3274	0.121	0.00053	0.209
Mof_H 	H 	0.2178	0.0832	0.9995	-0.03
Mof_C 	C 	0.3394	0.2295	0.14022	0.513
Mof_C 	C 	0.2142	0.6277	0.6622	0.601
Mof_H 	H 	0.1331	0.5518	0.6488	-0.167
Mof_O 	O 	0.8752	0.5651	0.74383	-0.444
Mof_O 	O 	0.0714	0.6574	0.84235	-0.455
Mof_O 	O 	0.6414	0.0899	0.70978	-0.48
Mof_O 	O 	0.7746	0.9626	0.76894	-0.696
Mof_O 	O 	0.1624	0.9545	0.85918	-0.607
Mof_O 	O 	0.3953	0.9711	0.81017	-0.659
Mof_O 	O 	0.1865	0.2125	0.13194	-0.569
Mof_O 	O 	0.4326	0.2675	0.20657	-0.603
Mof_O 	O 	0.29	0.9543	0.63529	-0.625
Mof_O 	O 	0.0611	0.9689	0.68626	-0.605
Mof_O 	O 	0.4102	0.165	0.41481	-0.575
Mof_O 	O 	0.2279	0.2606	0.35641	-0.621
Mof_O 	O 	0.1831	0.7261	0.70173	-0.733
Mof_O 	O 	0.3486	0.626	0.63983	-0.52
_end
