# CIF file generated by openbabel 3.1.0, see https://openbabel.org
data_I
_chemical_name_common 'image0'
_cell_length_a 28.9589
_cell_length_b 28.9589
_cell_length_c 14.5653
_cell_angle_alpha 90
_cell_angle_beta 90
_cell_angle_gamma 120
_space_group_name_H-M_alt 'P 1'
_space_group_name_Hall 'P 1'
loop_
    _symmetry_equiv_pos_as_xyz
    x,y,z
loop_
    _atom_site_label
    _atom_site_type_symbol
    _atom_site_fract_x
    _atom_site_fract_y
    _atom_site_fract_z
    _atom_site_occupancy
    Ag1      Ag       0.60166    0.06353    0.74324    1.000
    C1       C        0.70250    0.11460    0.60830    1.000
    N1       N        0.79136    0.20348    0.87670    1.000
    N2       N        0.65483    0.06975    0.62210    1.000
    C2       C        0.72775    0.16557    0.75590    1.000
    N3       N        0.69089    0.12840    0.81200    1.000
    C3       C        0.77770    0.20186    0.78730    1.000
    H1       H        0.80320    0.22650    0.74540    1.000
    C4       C        0.71250    0.16430    0.65730    1.000
    H2       H        0.74140    0.19560    0.62540    1.000
    H3       H        0.67990    0.16720    0.65410    1.000
    N4       N        0.73122    0.06960    0.50570    1.000
    C5       C        0.75480    0.16650    0.93150    1.000
    H4       H        0.76310    0.16650    0.99460    1.000
    C6       C        0.74030    0.11370    0.55070    1.000
    H5       H        0.77360    0.14540    0.54290    1.000
    C7       C        0.70580    0.12870    0.90060    1.000
    H6       H        0.68170    0.10200    0.94170    1.000
    C8       C        0.68340    0.02630    0.51840    1.000
    H7       H        0.67490    0.99470    0.48580    1.000
    C9       C        0.64620    0.02620    0.57750    1.000
    H8       H        0.61340    0.99400    0.58660    1.000
    Ag2      Ag       0.26833    0.39686    0.07657    1.000
    C10      C        0.36917    0.44793    0.94163    1.000
    N5       N        0.45803    0.53681    0.21003    1.000
    N6       N        0.32150    0.40308    0.95543    1.000
    C11      C        0.39442    0.49890    0.08923    1.000
    N7       N        0.35756    0.46173    0.14533    1.000
    C12      C        0.44437    0.53519    0.12063    1.000
    H9       H        0.46987    0.55983    0.07873    1.000
    C13      C        0.37917    0.49763    0.99063    1.000
    H10      H        0.40807    0.52893    0.95873    1.000
    H11      H        0.34657    0.50053    0.98743    1.000
    N8       N        0.39789    0.40293    0.83903    1.000
    C14      C        0.42147    0.49983    0.26483    1.000
    H12      H        0.42977    0.49983    0.32793    1.000
    C15      C        0.40697    0.44703    0.88403    1.000
    H13      H        0.44027    0.47873    0.87623    1.000
    C16      C        0.37247    0.46203    0.23393    1.000
    H14      H        0.34837    0.43533    0.27503    1.000
    C17      C        0.35007    0.35963    0.85173    1.000
    H15      H        0.34157    0.32803    0.81913    1.000
    C18      C        0.31287    0.35953    0.91083    1.000
    H16      H        0.28007    0.32733    0.91993    1.000
    Ag3      Ag       0.93499    0.73020    0.40991    1.000
    C19      C        0.03583    0.78127    0.27497    1.000
    N9       N        0.12469    0.87015    0.54337    1.000
    N10      N        0.98816    0.73642    0.28877    1.000
    C20      C        0.06108    0.83224    0.42257    1.000
    N11      N        0.02422    0.79507    0.47867    1.000
    C21      C        0.11103    0.86853    0.45397    1.000
    H17      H        0.13653    0.89317    0.41207    1.000
    C22      C        0.04583    0.83097    0.32397    1.000
    H18      H        0.07473    0.86227    0.29207    1.000
    H19      H        0.01323    0.83387    0.32077    1.000
    N12      N        0.06455    0.73627    0.17237    1.000
    C23      C        0.08813    0.83317    0.59817    1.000
    H20      H        0.09643    0.83317    0.66127    1.000
    C24      C        0.07363    0.78037    0.21737    1.000
    H21      H        0.10693    0.81207    0.20957    1.000
    C25      C        0.03913    0.79537    0.56727    1.000
    H22      H        0.01503    0.76867    0.60837    1.000
    C26      C        0.01673    0.69297    0.18507    1.000
    H23      H        0.00823    0.66137    0.15247    1.000
    C27      C        0.97953    0.69287    0.24417    1.000
    H24      H        0.94673    0.66067    0.25327    1.000
    Ag4      Ag       0.93647    0.53813    0.74324    1.000
    C28      C        0.88540    0.58790    0.60830    1.000
    N13      N        0.79652    0.58788    0.87670    1.000
    N14      N        0.93025    0.58508    0.62210    1.000
    C29      C        0.83443    0.56218    0.75590    1.000
    N15      N        0.87160    0.56249    0.81200    1.000
    C30      C        0.79814    0.57584    0.78730    1.000
    H25      H        0.77350    0.57670    0.74540    1.000
    C31      C        0.83570    0.54820    0.65730    1.000
    H26      H        0.80440    0.54580    0.62540    1.000
    H27      H        0.83280    0.51270    0.65410    1.000
    N16      N        0.93040    0.66162    0.50570    1.000
    C32      C        0.83350    0.58830    0.93150    1.000
    H28      H        0.83350    0.59660    0.99460    1.000
    C33      C        0.88630    0.62660    0.55070    1.000
    H29      H        0.85460    0.62820    0.54290    1.000
    C34      C        0.87130    0.57710    0.90060    1.000
    H30      H        0.89800    0.57970    0.94170    1.000
    C35      C        0.97370    0.65710    0.51840    1.000
    H31      H        0.00530    0.68020    0.48580    1.000
    C36      C        0.97380    0.62000    0.57750    1.000
    H32      H        0.00600    0.61940    0.58660    1.000
    Ag5      Ag       0.60314    0.87146    0.07657    1.000
    C37      C        0.55207    0.92123    0.94163    1.000
    N17      N        0.46319    0.92121    0.21003    1.000
    N18      N        0.59692    0.91841    0.95543    1.000
    C38      C        0.50110    0.89551    0.08923    1.000
    N19      N        0.53827    0.89582    0.14533    1.000
    C39      C        0.46481    0.90917    0.12063    1.000
    H33      H        0.44017    0.91003    0.07873    1.000
    C40      C        0.50237    0.88153    0.99063    1.000
    H34      H        0.47107    0.87913    0.95873    1.000
    H35      H        0.49947    0.84603    0.98743    1.000
    N20      N        0.59707    0.99495    0.83903    1.000
    C41      C        0.50017    0.92163    0.26483    1.000
    H36      H        0.50017    0.92993    0.32793    1.000
    C42      C        0.55297    0.95993    0.88403    1.000
    H37      H        0.52127    0.96153    0.87623    1.000
    C43      C        0.53797    0.91043    0.23393    1.000
    H38      H        0.56467    0.91303    0.27503    1.000
    C44      C        0.64037    0.99043    0.85173    1.000
    H39      H        0.67197    0.01353    0.81913    1.000
    C45      C        0.64047    0.95333    0.91083    1.000
    H40      H        0.67267    0.95273    0.91993    1.000
    Ag6      Ag       0.26980    0.20480    0.40991    1.000
    C46      C        0.21873    0.25457    0.27497    1.000
    N21      N        0.12985    0.25455    0.54337    1.000
    N22      N        0.26358    0.25175    0.28877    1.000
    C47      C        0.16776    0.22885    0.42257    1.000
    N23      N        0.20493    0.22916    0.47867    1.000
    C48      C        0.13147    0.24251    0.45397    1.000
    H41      H        0.10683    0.24337    0.41207    1.000
    C49      C        0.16903    0.21487    0.32397    1.000
    H42      H        0.13773    0.21247    0.29207    1.000
    H43      H        0.16613    0.17937    0.32077    1.000
    N24      N        0.26373    0.32829    0.17237    1.000
    C50      C        0.16683    0.25497    0.59817    1.000
    H44      H        0.16683    0.26327    0.66127    1.000
    C51      C        0.21963    0.29327    0.21737    1.000
    H45      H        0.18793    0.29487    0.20957    1.000
    C52      C        0.20463    0.24377    0.56727    1.000
    H46      H        0.23133    0.24637    0.60837    1.000
    C53      C        0.30703    0.32377    0.18507    1.000
    H47      H        0.33863    0.34687    0.15247    1.000
    C54      C        0.30713    0.28667    0.24417    1.000
    H48      H        0.33933    0.28607    0.25327    1.000
    Ag7      Ag       0.46187    0.39834    0.74324    1.000
    C55      C        0.41210    0.29750    0.60830    1.000
    N25      N        0.41212    0.20864    0.87670    1.000
    N26      N        0.41492    0.34517    0.62210    1.000
    C56      C        0.43782    0.27225    0.75590    1.000
    N27      N        0.43751    0.30911    0.81200    1.000
    C57      C        0.42416    0.22230    0.78730    1.000
    H49      H        0.42330    0.19680    0.74540    1.000
    C58      C        0.45180    0.28750    0.65730    1.000
    H50      H        0.45420    0.25860    0.62540    1.000
    H51      H        0.48730    0.32010    0.65410    1.000
    N28      N        0.33838    0.26878    0.50570    1.000
    C59      C        0.41170    0.24520    0.93150    1.000
    H52      H        0.40340    0.23690    0.99460    1.000
    C60      C        0.37340    0.25970    0.55070    1.000
    H53      H        0.37180    0.22640    0.54290    1.000
    C61      C        0.42290    0.29420    0.90060    1.000
    H54      H        0.42030    0.31830    0.94170    1.000
    C62      C        0.34290    0.31660    0.51840    1.000
    H55      H        0.31980    0.32510    0.48580    1.000
    C63      C        0.38000    0.35380    0.57750    1.000
    H56      H        0.38060    0.38660    0.58660    1.000
    Ag8      Ag       0.12854    0.73167    0.07657    1.000
    C64      C        0.07877    0.63083    0.94163    1.000
    N29      N        0.07879    0.54197    0.21003    1.000
    N30      N        0.08159    0.67850    0.95543    1.000
    C65      C        0.10449    0.60558    0.08923    1.000
    N31      N        0.10418    0.64244    0.14533    1.000
    C66      C        0.09083    0.55563    0.12063    1.000
    H57      H        0.08997    0.53013    0.07873    1.000
    C67      C        0.11847    0.62083    0.99063    1.000
    H58      H        0.12087    0.59193    0.95873    1.000
    H59      H        0.15397    0.65343    0.98743    1.000
    N32      N        0.00505    0.60211    0.83903    1.000
    C68      C        0.07837    0.57853    0.26483    1.000
    H60      H        0.07007    0.57023    0.32793    1.000
    C69      C        0.04007    0.59303    0.88403    1.000
    H61      H        0.03847    0.55973    0.87623    1.000
    C70      C        0.08957    0.62753    0.23393    1.000
    H62      H        0.08697    0.65163    0.27503    1.000
    C71      C        0.00957    0.64993    0.85173    1.000
    H63      H        0.98647    0.65843    0.81913    1.000
    C72      C        0.04667    0.68713    0.91083    1.000
    H64      H        0.04727    0.71993    0.91993    1.000
    Ag9      Ag       0.79520    0.06501    0.40991    1.000
    C73      C        0.74543    0.96417    0.27497    1.000
    N33      N        0.74545    0.87531    0.54337    1.000
    N34      N        0.74825    0.01184    0.28877    1.000
    C74      C        0.77115    0.93892    0.42257    1.000
    N35      N        0.77084    0.97578    0.47867    1.000
    C75      C        0.75749    0.88897    0.45397    1.000
    H65      H        0.75663    0.86347    0.41207    1.000
    C76      C        0.78513    0.95417    0.32397    1.000
    H66      H        0.78753    0.92527    0.29207    1.000
    H67      H        0.82063    0.98677    0.32077    1.000
    N36      N        0.67171    0.93545    0.17237    1.000
    C77      C        0.74503    0.91187    0.59817    1.000
    H68      H        0.73673    0.90357    0.66127    1.000
    C78      C        0.70673    0.92637    0.21737    1.000
    H69      H        0.70513    0.89307    0.20957    1.000
    C79      C        0.75623    0.96087    0.56727    1.000
    H70      H        0.75363    0.98497    0.60837    1.000
    C80      C        0.67623    0.98327    0.18507    1.000
    H71      H        0.65313    0.99177    0.15247    1.000
    C81      C        0.71333    0.02047    0.24417    1.000
    H72      H        0.71393    0.05327    0.25327    1.000
    Ag10     Ag       0.39834    0.93647    0.25676    1.000
    C82      C        0.29750    0.88540    0.39170    1.000
    N37      N        0.20864    0.79652    0.12330    1.000
    N38      N        0.34517    0.93025    0.37790    1.000
    C83      C        0.27225    0.83443    0.24410    1.000
    N39      N        0.30911    0.87160    0.18800    1.000
    C84      C        0.22230    0.79814    0.21270    1.000
    H73      H        0.19680    0.77350    0.25460    1.000
    C85      C        0.28750    0.83570    0.34270    1.000
    H74      H        0.25860    0.80440    0.37460    1.000
    H75      H        0.32010    0.83280    0.34590    1.000
    N40      N        0.26878    0.93040    0.49430    1.000
    C86      C        0.24520    0.83350    0.06850    1.000
    H76      H        0.23690    0.83350    0.00540    1.000
    C87      C        0.25970    0.88630    0.44930    1.000
    H77      H        0.22640    0.85460    0.45710    1.000
    C88      C        0.29420    0.87130    0.09940    1.000
    H78      H        0.31830    0.89800    0.05830    1.000
    C89      C        0.31660    0.97370    0.48160    1.000
    H79      H        0.32510    0.00530    0.51420    1.000
    C90      C        0.35380    0.97380    0.42250    1.000
    H80      H        0.38660    0.00600    0.41340    1.000
    Ag11     Ag       0.06501    0.26980    0.59009    1.000
    C91      C        0.96417    0.21873    0.72503    1.000
    N41      N        0.87531    0.12985    0.45663    1.000
    N42      N        0.01184    0.26358    0.71123    1.000
    C92      C        0.93892    0.16776    0.57743    1.000
    N43      N        0.97578    0.20493    0.52133    1.000
    C93      C        0.88897    0.13147    0.54603    1.000
    H81      H        0.86347    0.10683    0.58793    1.000
    C94      C        0.95417    0.16903    0.67603    1.000
    H82      H        0.92527    0.13773    0.70793    1.000
    H83      H        0.98677    0.16613    0.67923    1.000
    N44      N        0.93545    0.26373    0.82763    1.000
    C95      C        0.91187    0.16683    0.40183    1.000
    H84      H        0.90357    0.16683    0.33873    1.000
    C96      C        0.92637    0.21963    0.78263    1.000
    H85      H        0.89307    0.18793    0.79043    1.000
    C97      C        0.96087    0.20463    0.43273    1.000
    H86      H        0.98497    0.23133    0.39163    1.000
    C98      C        0.98327    0.30703    0.81493    1.000
    H87      H        0.99177    0.33863    0.84753    1.000
    C99      C        0.02047    0.30713    0.75583    1.000
    H88      H        0.05327    0.33933    0.74673    1.000
    Ag12     Ag       0.73167    0.60314    0.92343    1.000
    C100     C        0.63083    0.55207    0.05837    1.000
    N45      N        0.54197    0.46319    0.78997    1.000
    N46      N        0.67850    0.59692    0.04457    1.000
    C101     C        0.60558    0.50110    0.91077    1.000
    N47      N        0.64244    0.53827    0.85467    1.000
    C102     C        0.55563    0.46481    0.87937    1.000
    H89      H        0.53013    0.44017    0.92127    1.000
    C103     C        0.62083    0.50237    0.00937    1.000
    H90      H        0.59193    0.47107    0.04127    1.000
    H91      H        0.65343    0.49947    0.01257    1.000
    N48      N        0.60211    0.59707    0.16097    1.000
    C104     C        0.57853    0.50017    0.73517    1.000
    H92      H        0.57023    0.50017    0.67207    1.000
    C105     C        0.59303    0.55297    0.11597    1.000
    H93      H        0.55973    0.52127    0.12377    1.000
    C106     C        0.62753    0.53797    0.76607    1.000
    H94      H        0.65163    0.56467    0.72497    1.000
    C107     C        0.64993    0.64037    0.14827    1.000
    H95      H        0.65843    0.67197    0.18087    1.000
    C108     C        0.68713    0.64047    0.08917    1.000
    H96      H        0.71993    0.67267    0.08007    1.000
    Ag13     Ag       0.06353    0.46187    0.25676    1.000
    C109     C        0.11460    0.41210    0.39170    1.000
    N49      N        0.20348    0.41212    0.12330    1.000
    N50      N        0.06975    0.41492    0.37790    1.000
    C110     C        0.16557    0.43782    0.24410    1.000
    N51      N        0.12840    0.43751    0.18800    1.000
    C111     C        0.20186    0.42416    0.21270    1.000
    H97      H        0.22650    0.42330    0.25460    1.000
    C112     C        0.16430    0.45180    0.34270    1.000
    H98      H        0.19560    0.45420    0.37460    1.000
    H99      H        0.16720    0.48730    0.34590    1.000
    N52      N        0.06960    0.33838    0.49430    1.000
    C113     C        0.16650    0.41170    0.06850    1.000
    H100     H        0.16650    0.40340    0.00540    1.000
    C114     C        0.11370    0.37340    0.44930    1.000
    H101     H        0.14540    0.37180    0.45710    1.000
    C115     C        0.12870    0.42290    0.09940    1.000
    H102     H        0.10200    0.42030    0.05830    1.000
    C116     C        0.02630    0.34290    0.48160    1.000
    H103     H        0.99470    0.31980    0.51420    1.000
    C117     C        0.02620    0.38000    0.42250    1.000
    H104     H        0.99400    0.38060    0.41340    1.000
    Ag14     Ag       0.73020    0.79520    0.59009    1.000
    C118     C        0.78127    0.74543    0.72503    1.000
    N53      N        0.87015    0.74545    0.45663    1.000
    N54      N        0.73642    0.74825    0.71123    1.000
    C119     C        0.83224    0.77115    0.57743    1.000
    N55      N        0.79507    0.77084    0.52133    1.000
    C120     C        0.86853    0.75749    0.54603    1.000
    H105     H        0.89317    0.75663    0.58793    1.000
    C121     C        0.83097    0.78513    0.67603    1.000
    H106     H        0.86227    0.78753    0.70793    1.000
    H107     H        0.83387    0.82063    0.67923    1.000
    N56      N        0.73627    0.67171    0.82763    1.000
    C122     C        0.83317    0.74503    0.40183    1.000
    H108     H        0.83317    0.73673    0.33873    1.000
    C123     C        0.78037    0.70673    0.78263    1.000
    H109     H        0.81207    0.70513    0.79043    1.000
    C124     C        0.79537    0.75623    0.43273    1.000
    H110     H        0.76867    0.75363    0.39163    1.000
    C125     C        0.69297    0.67623    0.81493    1.000
    H111     H        0.66137    0.65313    0.84753    1.000
    C126     C        0.69287    0.71333    0.75583    1.000
    H112     H        0.66067    0.71393    0.74673    1.000
    Ag15     Ag       0.39686    0.12854    0.92343    1.000
    C127     C        0.44793    0.07877    0.05837    1.000
    N57      N        0.53681    0.07879    0.78997    1.000
    N58      N        0.40308    0.08159    0.04457    1.000
    C128     C        0.49890    0.10449    0.91077    1.000
    N59      N        0.46173    0.10418    0.85467    1.000
    C129     C        0.53519    0.09083    0.87937    1.000
    H113     H        0.55983    0.08997    0.92127    1.000
    C130     C        0.49763    0.11847    0.00937    1.000
    H114     H        0.52893    0.12087    0.04127    1.000
    H115     H        0.50053    0.15397    0.01257    1.000
    N60      N        0.40293    0.00505    0.16097    1.000
    C131     C        0.49983    0.07837    0.73517    1.000
    H116     H        0.49983    0.07007    0.67207    1.000
    C132     C        0.44703    0.04007    0.11597    1.000
    H117     H        0.47873    0.03847    0.12377    1.000
    C133     C        0.46203    0.08957    0.76607    1.000
    H118     H        0.43533    0.08697    0.72497    1.000
    C134     C        0.35963    0.00957    0.14827    1.000
    H119     H        0.32803    0.98647    0.18087    1.000
    C135     C        0.35953    0.04667    0.08917    1.000
    H120     H        0.32733    0.04727    0.08007    1.000
    Ag16     Ag       0.53813    0.60166    0.25676    1.000
    C136     C        0.58790    0.70250    0.39170    1.000
    N61      N        0.58788    0.79136    0.12330    1.000
    N62      N        0.58508    0.65483    0.37790    1.000
    C137     C        0.56218    0.72775    0.24410    1.000
    N63      N        0.56249    0.69089    0.18800    1.000
    C138     C        0.57584    0.77770    0.21270    1.000
    H121     H        0.57670    0.80320    0.25460    1.000
    C139     C        0.54820    0.71250    0.34270    1.000
    H122     H        0.54580    0.74140    0.37460    1.000
    H123     H        0.51270    0.67990    0.34590    1.000
    N64      N        0.66162    0.73122    0.49430    1.000
    C140     C        0.58830    0.75480    0.06850    1.000
    H124     H        0.59660    0.76310    0.00540    1.000
    C141     C        0.62660    0.74030    0.44930    1.000
    H125     H        0.62820    0.77360    0.45710    1.000
    C142     C        0.57710    0.70580    0.09940    1.000
    H126     H        0.57970    0.68170    0.05830    1.000
    C143     C        0.65710    0.68340    0.48160    1.000
    H127     H        0.68020    0.67490    0.51420    1.000
    C144     C        0.62000    0.64620    0.42250    1.000
    H128     H        0.61940    0.61340    0.41340    1.000
    Ag17     Ag       0.20480    0.93499    0.59009    1.000
    C145     C        0.25457    0.03583    0.72503    1.000
    N65      N        0.25455    0.12469    0.45663    1.000
    N66      N        0.25175    0.98816    0.71123    1.000
    C146     C        0.22885    0.06108    0.57743    1.000
    N67      N        0.22916    0.02422    0.52133    1.000
    C147     C        0.24251    0.11103    0.54603    1.000
    H129     H        0.24337    0.13653    0.58793    1.000
    C148     C        0.21487    0.04583    0.67603    1.000
    H130     H        0.21247    0.07473    0.70793    1.000
    H131     H        0.17937    0.01323    0.67923    1.000
    N68      N        0.32829    0.06455    0.82763    1.000
    C149     C        0.25497    0.08813    0.40183    1.000
    H132     H        0.26327    0.09643    0.33873    1.000
    C150     C        0.29327    0.07363    0.78263    1.000
    H133     H        0.29487    0.10693    0.79043    1.000
    C151     C        0.24377    0.03913    0.43273    1.000
    H134     H        0.24637    0.01503    0.39163    1.000
    C152     C        0.32377    0.01673    0.81493    1.000
    H135     H        0.34687    0.00823    0.84753    1.000
    C153     C        0.28667    0.97953    0.75583    1.000
    H136     H        0.28607    0.94673    0.74673    1.000
    Ag18     Ag       0.87146    0.26833    0.92343    1.000
    C154     C        0.92123    0.36917    0.05837    1.000
    N69      N        0.92121    0.45803    0.78997    1.000
    N70      N        0.91841    0.32150    0.04457    1.000
    C155     C        0.89551    0.39442    0.91077    1.000
    N71      N        0.89582    0.35756    0.85467    1.000
    C156     C        0.90917    0.44437    0.87937    1.000
    H137     H        0.91003    0.46987    0.92127    1.000
    C157     C        0.88153    0.37917    0.00937    1.000
    H138     H        0.87913    0.40807    0.04127    1.000
    H139     H        0.84603    0.34657    0.01257    1.000
    N72      N        0.99495    0.39789    0.16097    1.000
    C158     C        0.92163    0.42147    0.73517    1.000
    H140     H        0.92993    0.42977    0.67207    1.000
    C159     C        0.95993    0.40697    0.11597    1.000
    H141     H        0.96153    0.44027    0.12377    1.000
    C160     C        0.91043    0.37247    0.76607    1.000
    H142     H        0.91303    0.34837    0.72497    1.000
    C161     C        0.99043    0.35007    0.14827    1.000
    H143     H        0.01353    0.34157    0.18087    1.000
    C162     C        0.95333    0.31287    0.08917    1.000
    H144     H        0.95273    0.28007    0.08007    1.000
