data_functionalizedCrystal
_audit_creation_method	'EQeq! by Chris Wilmer'
_symmetry_space_group_name_H-M	'P1'
_symmetry_Int_Tables_number	1
_symmetry_cell_setting	triclinic
loop_
_symmetry_equiv_pos_as_xyz
  x,y,z
_cell_length_a	15.338
_cell_length_b	22.1
_cell_length_c	16.425
_cell_angle_alpha	90
_cell_angle_beta	102.64
_cell_angle_gamma	90
loop_
_atom_site_label
_atom_site_type_symbol
_atom_site_fract_x
_atom_site_fract_y
_atom_site_fract_z
_atom_site_charge
Mof_Mn	Mn	0.45457	0.49178	0.63591	1.009
Mof_O 	O 	0.3705	0.55813	0.67	-0.404
Mof_O 	O 	0.2335	0.5387	0.6023	-0.257
Mof_O 	O 	0.62427	0.57487	0.31838	-0.384
Mof_O 	O 	0.57584	0.55111	0.18423	-0.418
Mof_O 	O 	0.00971	0.93654	0.08083	-0.379
Mof_O 	O 	0.07965	0.94096	0.97654	-0.359
Mof_O 	O 	0.0968	0.71739	0.89786	-0.221
Mof_O 	O 	0.92675	0.7172	0.1007	-0.221
Mof_C 	C 	0.1668	0.6324	0.6816	0.096
Mof_H 	H 	0.1307	0.6152	0.6345	0.021
Mof_C 	C 	0.1315	0.6755	0.7252	-0.171
Mof_H 	H 	0.0725	0.6879	0.707	0.107
Mof_C 	C 	0.1848	0.70053	0.79725	0.135
Mof_C 	C 	0.2722	0.68246	0.8228	-0.171
Mof_H 	H 	0.3078	0.6991	0.8707	0.101
Mof_C 	C 	0.3077	0.63916	0.7773	0.09
Mof_H 	H 	0.367	0.6271	0.7948	0.015
Mof_C 	C 	0.2546	0.6142	0.706	-0.152
Mof_C 	C 	0.7364	0.68813	0.1192	-0.179
Mof_H 	H 	0.7253	0.7047	0.0659	0.105
Mof_C 	C 	0.6755	0.6475	0.1399	0.107
Mof_H 	H 	0.6245	0.6368	0.1005	0.008
Mof_C 	C 	0.69091	0.62316	0.21909	-0.169
Mof_C 	C 	0.7667	0.63936	0.27608	0.105
Mof_H 	H 	0.7773	0.6234	0.3297	0.017
Mof_C 	C 	0.8278	0.67936	0.2547	-0.183
Mof_H 	H 	0.8794	0.6895	0.2937	0.107
Mof_C 	C 	0.8123	0.70418	0.1757	0.146
Mof_C 	C 	0.0139	0.72092	0.001	-0.296
Mof_H 	H 	0.0087	0.6791	0.9967	0.162
Mof_C 	C 	0.9746	0.75231	0.05711	0.258
Mof_C 	C 	0.98415	0.81454	0.06572	-0.219
Mof_H 	H 	0.9591	0.8353	0.1042	0.121
Mof_C 	C 	0.03173	0.84533	0.01591	0.049
Mof_C 	C 	0.07017	0.81508	0.95796	-0.218
Mof_H 	H 	0.1013	0.8363	0.9244	0.126
Mof_C 	C 	0.061	0.7526	0.95146	0.259
Mof_C 	C 	0.2913	0.5665	0.6562	0.395
Mof_C 	C 	0.6242	0.57962	0.242	0.417
Mof_C 	C 	0.03976	0.91296	0.0248	0.355
Mof_C 	C 	0.1471	0.74803	0.846	-0.072
Mof_H 	H 	0.1952	0.7713	0.8801	0.062
Mof_H 	H 	0.1087	0.7755	0.8081	0.06
Mof_C 	C 	0.8765	0.74896	0.1516	-0.076
Mof_H 	H 	0.844	0.7824	0.1207	0.059
Mof_H 	H 	0.9163	0.765	0.2011	0.059
Mof_Mn	Mn	0.95457	0.99178	0.63591	1.008
Mof_O 	O 	0.8705	0.05813	0.67	-0.405
Mof_O 	O 	0.7335	0.0387	0.6023	-0.258
Mof_O 	O 	0.12427	0.07487	0.31838	-0.385
Mof_O 	O 	0.07584	0.05111	0.18423	-0.418
Mof_O 	O 	0.50971	0.43654	0.08083	-0.381
Mof_O 	O 	0.57965	0.44096	0.97654	-0.356
Mof_O 	O 	0.5968	0.21739	0.89786	-0.222
Mof_O 	O 	0.42675	0.2172	0.1007	-0.222
Mof_C 	C 	0.6668	0.1324	0.6816	0.096
Mof_H 	H 	0.6307	0.1152	0.6345	0.022
Mof_C 	C 	0.6315	0.1755	0.7252	-0.171
Mof_H 	H 	0.5725	0.1879	0.707	0.107
Mof_C 	C 	0.6848	0.20053	0.79725	0.135
Mof_C 	C 	0.7722	0.18246	0.8228	-0.171
Mof_H 	H 	0.8078	0.1991	0.8707	0.102
Mof_C 	C 	0.8077	0.13916	0.7773	0.09
Mof_H 	H 	0.867	0.1271	0.7948	0.015
Mof_C 	C 	0.7546	0.1142	0.706	-0.152
Mof_C 	C 	0.2364	0.18813	0.1192	-0.179
Mof_H 	H 	0.2253	0.2047	0.0659	0.105
Mof_C 	C 	0.1755	0.1475	0.1399	0.107
Mof_H 	H 	0.1245	0.1368	0.1005	0.008
Mof_C 	C 	0.19091	0.12316	0.21909	-0.169
Mof_C 	C 	0.2667	0.13936	0.27608	0.105
Mof_H 	H 	0.2773	0.1234	0.3297	0.017
Mof_C 	C 	0.3278	0.17936	0.2547	-0.182
Mof_H 	H 	0.3794	0.1895	0.2937	0.107
Mof_C 	C 	0.3123	0.20418	0.1757	0.145
Mof_C 	C 	0.5139	0.22092	0.001	-0.312
Mof_H 	H 	0.5087	0.1791	0.9967	0.169
Mof_C 	C 	0.4746	0.25231	0.05711	0.265
Mof_C 	C 	0.48415	0.31454	0.06572	-0.22
Mof_H 	H 	0.4591	0.3353	0.1042	0.122
Mof_C 	C 	0.53173	0.34533	0.01591	0.047
Mof_C 	C 	0.57017	0.31508	0.95796	-0.217
Mof_H 	H 	0.6013	0.3363	0.9244	0.126
Mof_C 	C 	0.561	0.2526	0.95146	0.267
Mof_C 	C 	0.7913	0.0665	0.6562	0.395
Mof_C 	C 	0.1242	0.07962	0.242	0.417
Mof_C 	C 	0.53976	0.41296	0.0248	0.351
Mof_C 	C 	0.6471	0.24803	0.846	-0.071
Mof_H 	H 	0.6952	0.2713	0.8801	0.062
Mof_H 	H 	0.6087	0.2755	0.8081	0.06
Mof_C 	C 	0.3765	0.24896	0.1516	-0.075
Mof_H 	H 	0.344	0.2824	0.1207	0.059
Mof_H 	H 	0.4163	0.265	0.2011	0.059
Mof_Mn	Mn	0.54543	0.49178	0.86409	1.007
Mof_O 	O 	0.6295	0.55813	0.83	-0.405
Mof_O 	O 	0.7665	0.5387	0.8977	-0.258
Mof_O 	O 	0.37573	0.57487	0.18162	-0.385
Mof_O 	O 	0.42416	0.55111	0.31577	-0.419
Mof_O 	O 	0.99029	0.93654	0.41917	-0.381
Mof_O 	O 	0.92035	0.94096	0.52346	-0.356
Mof_O 	O 	0.9032	0.71739	0.60214	-0.222
Mof_O 	O 	0.07325	0.7172	0.3993	-0.221
Mof_C 	C 	0.8332	0.6324	0.8184	0.096
Mof_H 	H 	0.8693	0.6152	0.8655	0.022
Mof_C 	C 	0.8685	0.6755	0.7748	-0.171
Mof_H 	H 	0.9275	0.6879	0.793	0.108
Mof_C 	C 	0.8152	0.70053	0.70275	0.135
Mof_C 	C 	0.7278	0.68246	0.6772	-0.171
Mof_H 	H 	0.6922	0.6991	0.6293	0.102
Mof_C 	C 	0.6923	0.63916	0.7227	0.09
Mof_H 	H 	0.633	0.6271	0.7052	0.015
Mof_C 	C 	0.7454	0.6142	0.794	-0.152
Mof_C 	C 	0.2636	0.68813	0.3808	-0.179
Mof_H 	H 	0.2747	0.7047	0.4341	0.105
Mof_C 	C 	0.3245	0.6475	0.3601	0.107
Mof_H 	H 	0.3755	0.6368	0.3995	0.008
Mof_C 	C 	0.30909	0.62316	0.28091	-0.169
Mof_C 	C 	0.2333	0.63936	0.22392	0.105
Mof_H 	H 	0.2227	0.6234	0.1703	0.017
Mof_C 	C 	0.1722	0.67936	0.2453	-0.183
Mof_H 	H 	0.1206	0.6895	0.2063	0.108
Mof_C 	C 	0.1877	0.70418	0.3243	0.146
Mof_C 	C 	0.9861	0.72092	0.499	-0.308
Mof_H 	H 	0.9913	0.6791	0.5033	0.167
Mof_C 	C 	0.0254	0.75231	0.44289	0.263
Mof_C 	C 	0.01585	0.81454	0.43428	-0.219
Mof_H 	H 	0.0409	0.8353	0.3958	0.122
Mof_C 	C 	0.96827	0.84533	0.48409	0.047
Mof_C 	C 	0.92983	0.81508	0.54204	-0.216
Mof_H 	H 	0.8987	0.8363	0.5756	0.126
Mof_C 	C 	0.939	0.7526	0.54854	0.264
Mof_C 	C 	0.7087	0.5665	0.8438	0.395
Mof_C 	C 	0.3758	0.57962	0.258	0.417
Mof_C 	C 	0.96024	0.91296	0.4752	0.352
Mof_C 	C 	0.8529	0.74803	0.654	-0.072
Mof_H 	H 	0.8048	0.7713	0.6199	0.062
Mof_H 	H 	0.8913	0.7755	0.6919	0.06
Mof_C 	C 	0.1235	0.74896	0.3484	-0.076
Mof_H 	H 	0.156	0.7824	0.3793	0.059
Mof_H 	H 	0.0837	0.765	0.2989	0.059
Mof_Mn	Mn	0.04543	0.99178	0.86409	1.005
Mof_O 	O 	0.1295	0.05813	0.83	-0.404
Mof_O 	O 	0.2665	0.0387	0.8977	-0.257
Mof_O 	O 	0.87573	0.07487	0.18162	-0.385
Mof_O 	O 	0.92416	0.05111	0.31577	-0.419
Mof_O 	O 	0.49029	0.43654	0.41917	-0.381
Mof_O 	O 	0.42035	0.44096	0.52346	-0.356
Mof_O 	O 	0.4032	0.21739	0.60214	-0.222
Mof_O 	O 	0.57325	0.2172	0.3993	-0.221
Mof_C 	C 	0.3332	0.1324	0.8184	0.096
Mof_H 	H 	0.3693	0.1152	0.8655	0.022
Mof_C 	C 	0.3685	0.1755	0.7748	-0.171
Mof_H 	H 	0.4275	0.1879	0.793	0.107
Mof_C 	C 	0.3152	0.20053	0.70275	0.135
Mof_C 	C 	0.2278	0.18246	0.6772	-0.171
Mof_H 	H 	0.1922	0.1991	0.6293	0.101
Mof_C 	C 	0.1923	0.13916	0.7227	0.09
Mof_H 	H 	0.133	0.1271	0.7052	0.015
Mof_C 	C 	0.2454	0.1142	0.794	-0.152
Mof_C 	C 	0.7636	0.18813	0.3808	-0.179
Mof_H 	H 	0.7747	0.2047	0.4341	0.105
Mof_C 	C 	0.8245	0.1475	0.3601	0.107
Mof_H 	H 	0.8755	0.1368	0.3995	0.008
Mof_C 	C 	0.80909	0.12316	0.28091	-0.169
Mof_C 	C 	0.7333	0.13936	0.22392	0.105
Mof_H 	H 	0.7227	0.1234	0.1703	0.017
Mof_C 	C 	0.6722	0.17936	0.2453	-0.183
Mof_H 	H 	0.6206	0.1895	0.2063	0.107
Mof_C 	C 	0.6877	0.20418	0.3243	0.146
Mof_C 	C 	0.4861	0.22092	0.499	-0.308
Mof_H 	H 	0.4913	0.1791	0.5033	0.167
Mof_C 	C 	0.5254	0.25231	0.44289	0.263
Mof_C 	C 	0.51585	0.31454	0.43428	-0.219
Mof_H 	H 	0.5409	0.3353	0.3958	0.122
Mof_C 	C 	0.46827	0.34533	0.48409	0.047
Mof_C 	C 	0.42983	0.31508	0.54204	-0.217
Mof_H 	H 	0.3987	0.3363	0.5756	0.126
Mof_C 	C 	0.439	0.2526	0.54854	0.264
Mof_C 	C 	0.2087	0.0665	0.8438	0.395
Mof_C 	C 	0.8758	0.07962	0.258	0.417
Mof_C 	C 	0.46024	0.41296	0.4752	0.352
Mof_C 	C 	0.3529	0.24803	0.654	-0.071
Mof_H 	H 	0.3048	0.2713	0.6199	0.062
Mof_H 	H 	0.3913	0.2755	0.6919	0.06
Mof_C 	C 	0.6235	0.24896	0.3484	-0.076
Mof_H 	H 	0.656	0.2824	0.3793	0.059
Mof_H 	H 	0.5837	0.265	0.2989	0.059
Mof_Mn	Mn	0.54543	0.50822	0.36409	1.008
Mof_O 	O 	0.6295	0.44187	0.33	-0.405
Mof_O 	O 	0.7665	0.4613	0.3977	-0.258
Mof_O 	O 	0.37573	0.42513	0.68162	-0.385
Mof_O 	O 	0.42416	0.44889	0.81577	-0.419
Mof_O 	O 	0.99029	0.06346	0.91917	-0.38
Mof_O 	O 	0.92035	0.05904	0.02346	-0.359
Mof_O 	O 	0.9032	0.28261	0.10214	-0.221
Mof_O 	O 	0.07325	0.2828	0.8993	-0.221
Mof_C 	C 	0.8332	0.3676	0.3184	0.096
Mof_H 	H 	0.8693	0.3848	0.3655	0.021
Mof_C 	C 	0.8685	0.3245	0.2748	-0.171
Mof_H 	H 	0.9275	0.3121	0.293	0.107
Mof_C 	C 	0.8152	0.29947	0.20275	0.135
Mof_C 	C 	0.7278	0.31754	0.1772	-0.171
Mof_H 	H 	0.6922	0.3009	0.1293	0.101
Mof_C 	C 	0.6923	0.36084	0.2227	0.09
Mof_H 	H 	0.633	0.3729	0.2052	0.015
Mof_C 	C 	0.7454	0.3858	0.294	-0.152
Mof_C 	C 	0.2636	0.31187	0.8808	-0.179
Mof_H 	H 	0.2747	0.2953	0.9341	0.105
Mof_C 	C 	0.3245	0.3525	0.8601	0.107
Mof_H 	H 	0.3755	0.3632	0.8995	0.008
Mof_C 	C 	0.30909	0.37684	0.78091	-0.169
Mof_C 	C 	0.2333	0.36064	0.72392	0.105
Mof_H 	H 	0.2227	0.3766	0.6703	0.017
Mof_C 	C 	0.1722	0.32064	0.7453	-0.183
Mof_H 	H 	0.1206	0.3105	0.7063	0.107
Mof_C 	C 	0.1877	0.29582	0.8243	0.146
Mof_C 	C 	0.9861	0.27908	0.999	-0.296
Mof_H 	H 	0.9913	0.3209	0.0033	0.162
Mof_C 	C 	0.0254	0.24769	0.94289	0.258
Mof_C 	C 	0.01585	0.18546	0.93428	-0.219
Mof_H 	H 	0.0409	0.1647	0.8958	0.121
Mof_C 	C 	0.96827	0.15467	0.98409	0.049
Mof_C 	C 	0.92983	0.18492	0.04204	-0.218
Mof_H 	H 	0.8987	0.1637	0.0756	0.126
Mof_C 	C 	0.939	0.2474	0.04854	0.259
Mof_C 	C 	0.7087	0.4335	0.3438	0.395
Mof_C 	C 	0.3758	0.42038	0.758	0.417
Mof_C 	C 	0.96024	0.08704	0.9752	0.355
Mof_C 	C 	0.8529	0.25197	0.154	-0.072
Mof_H 	H 	0.8048	0.2287	0.1199	0.062
Mof_H 	H 	0.8913	0.2245	0.1919	0.06
Mof_C 	C 	0.1235	0.25104	0.8484	-0.076
Mof_H 	H 	0.156	0.2176	0.8793	0.059
Mof_H 	H 	0.0837	0.235	0.7989	0.059
Mof_Mn	Mn	0.04543	0.00822	0.36409	1.008
Mof_O 	O 	0.1295	0.94187	0.33	-0.405
Mof_O 	O 	0.2665	0.9613	0.3977	-0.258
Mof_O 	O 	0.87573	0.92513	0.68162	-0.385
Mof_O 	O 	0.92416	0.94889	0.81577	-0.418
Mof_O 	O 	0.49029	0.56346	0.91917	-0.381
Mof_O 	O 	0.42035	0.55904	0.02346	-0.356
Mof_O 	O 	0.4032	0.78261	0.10214	-0.222
Mof_O 	O 	0.57325	0.7828	0.8993	-0.222
Mof_C 	C 	0.3332	0.8676	0.3184	0.096
Mof_H 	H 	0.3693	0.8848	0.3655	0.022
Mof_C 	C 	0.3685	0.8245	0.2748	-0.171
Mof_H 	H 	0.4275	0.8121	0.293	0.107
Mof_C 	C 	0.3152	0.79947	0.20275	0.135
Mof_C 	C 	0.2278	0.81754	0.1772	-0.171
Mof_H 	H 	0.1922	0.8009	0.1293	0.102
Mof_C 	C 	0.1923	0.86084	0.2227	0.09
Mof_H 	H 	0.133	0.8729	0.2052	0.015
Mof_C 	C 	0.2454	0.8858	0.294	-0.152
Mof_C 	C 	0.7636	0.81187	0.8808	-0.179
Mof_H 	H 	0.7747	0.7953	0.9341	0.105
Mof_C 	C 	0.8245	0.8525	0.8601	0.107
Mof_H 	H 	0.8755	0.8632	0.8995	0.008
Mof_C 	C 	0.80909	0.87684	0.78091	-0.169
Mof_C 	C 	0.7333	0.86064	0.72392	0.105
Mof_H 	H 	0.7227	0.8766	0.6703	0.017
Mof_C 	C 	0.6722	0.82064	0.7453	-0.182
Mof_H 	H 	0.6206	0.8105	0.7063	0.107
Mof_C 	C 	0.6877	0.79582	0.8243	0.145
Mof_C 	C 	0.4861	0.77908	0.999	-0.312
Mof_H 	H 	0.4913	0.8209	0.0033	0.169
Mof_C 	C 	0.5254	0.74769	0.94289	0.265
Mof_C 	C 	0.51585	0.68546	0.93428	-0.22
Mof_H 	H 	0.5409	0.6647	0.8958	0.122
Mof_C 	C 	0.46827	0.65467	0.98409	0.047
Mof_C 	C 	0.42983	0.68492	0.04204	-0.217
Mof_H 	H 	0.3987	0.6637	0.0756	0.126
Mof_C 	C 	0.439	0.7474	0.04854	0.267
Mof_C 	C 	0.2087	0.9335	0.3438	0.395
Mof_C 	C 	0.8758	0.92038	0.758	0.417
Mof_C 	C 	0.46024	0.58704	0.9752	0.351
Mof_C 	C 	0.3529	0.75197	0.154	-0.071
Mof_H 	H 	0.3048	0.7287	0.1199	0.062
Mof_H 	H 	0.3913	0.7245	0.1919	0.06
Mof_C 	C 	0.6235	0.75104	0.8484	-0.075
Mof_H 	H 	0.656	0.7176	0.8793	0.059
Mof_H 	H 	0.5837	0.735	0.7989	0.059
Mof_Mn	Mn	0.45457	0.50822	0.13591	1.007
Mof_O 	O 	0.3705	0.44187	0.17	-0.405
Mof_O 	O 	0.2335	0.4613	0.1023	-0.258
Mof_O 	O 	0.62427	0.42513	0.81838	-0.385
Mof_O 	O 	0.57584	0.44889	0.68423	-0.419
Mof_O 	O 	0.00971	0.06346	0.58083	-0.381
Mof_O 	O 	0.07965	0.05904	0.47654	-0.356
Mof_O 	O 	0.0968	0.28261	0.39786	-0.222
Mof_O 	O 	0.92675	0.2828	0.6007	-0.221
Mof_C 	C 	0.1668	0.3676	0.1816	0.096
Mof_H 	H 	0.1307	0.3848	0.1345	0.022
Mof_C 	C 	0.1315	0.3245	0.2252	-0.171
Mof_H 	H 	0.0725	0.3121	0.207	0.108
Mof_C 	C 	0.1848	0.29947	0.29725	0.135
Mof_C 	C 	0.2722	0.31754	0.3228	-0.171
Mof_H 	H 	0.3078	0.3009	0.3707	0.102
Mof_C 	C 	0.3077	0.36084	0.2773	0.09
Mof_H 	H 	0.367	0.3729	0.2948	0.015
Mof_C 	C 	0.2546	0.3858	0.206	-0.152
Mof_C 	C 	0.7364	0.31187	0.6192	-0.179
Mof_H 	H 	0.7253	0.2953	0.5659	0.105
Mof_C 	C 	0.6755	0.3525	0.6399	0.107
Mof_H 	H 	0.6245	0.3632	0.6005	0.008
Mof_C 	C 	0.69091	0.37684	0.71909	-0.169
Mof_C 	C 	0.7667	0.36064	0.77608	0.105
Mof_H 	H 	0.7773	0.3766	0.8297	0.017
Mof_C 	C 	0.8278	0.32064	0.7547	-0.183
Mof_H 	H 	0.8794	0.3105	0.7937	0.108
Mof_C 	C 	0.8123	0.29582	0.6757	0.146
Mof_C 	C 	0.0139	0.27908	0.501	-0.308
Mof_H 	H 	0.0087	0.3209	0.4967	0.167
Mof_C 	C 	0.9746	0.24769	0.55711	0.263
Mof_C 	C 	0.98415	0.18546	0.56572	-0.219
Mof_H 	H 	0.9591	0.1647	0.6042	0.122
Mof_C 	C 	0.03173	0.15467	0.51591	0.047
Mof_C 	C 	0.07017	0.18492	0.45796	-0.216
Mof_H 	H 	0.1013	0.1637	0.4244	0.126
Mof_C 	C 	0.061	0.2474	0.45146	0.264
Mof_C 	C 	0.2913	0.4335	0.1562	0.395
Mof_C 	C 	0.6242	0.42038	0.742	0.417
Mof_C 	C 	0.03976	0.08704	0.5248	0.352
Mof_C 	C 	0.1471	0.25197	0.346	-0.072
Mof_H 	H 	0.1952	0.2287	0.3801	0.062
Mof_H 	H 	0.1087	0.2245	0.3081	0.06
Mof_C 	C 	0.8765	0.25104	0.6516	-0.076
Mof_H 	H 	0.844	0.2176	0.6207	0.059
Mof_H 	H 	0.9163	0.235	0.7011	0.059
Mof_Mn	Mn	0.95457	0.00822	0.13591	1.005
Mof_O 	O 	0.8705	0.94187	0.17	-0.404
Mof_O 	O 	0.7335	0.9613	0.1023	-0.257
Mof_O 	O 	0.12427	0.92513	0.81838	-0.385
Mof_O 	O 	0.07584	0.94889	0.68423	-0.419
Mof_O 	O 	0.50971	0.56346	0.58083	-0.381
Mof_O 	O 	0.57965	0.55904	0.47654	-0.356
Mof_O 	O 	0.5968	0.78261	0.39786	-0.222
Mof_O 	O 	0.42675	0.7828	0.6007	-0.221
Mof_C 	C 	0.6668	0.8676	0.1816	0.096
Mof_H 	H 	0.6307	0.8848	0.1345	0.022
Mof_C 	C 	0.6315	0.8245	0.2252	-0.171
Mof_H 	H 	0.5725	0.8121	0.207	0.107
Mof_C 	C 	0.6848	0.79947	0.29725	0.135
Mof_C 	C 	0.7722	0.81754	0.3228	-0.171
Mof_H 	H 	0.8078	0.8009	0.3707	0.101
Mof_C 	C 	0.8077	0.86084	0.2773	0.09
Mof_H 	H 	0.867	0.8729	0.2948	0.015
Mof_C 	C 	0.7546	0.8858	0.206	-0.152
Mof_C 	C 	0.2364	0.81187	0.6192	-0.179
Mof_H 	H 	0.2253	0.7953	0.5659	0.105
Mof_C 	C 	0.1755	0.8525	0.6399	0.107
Mof_H 	H 	0.1245	0.8632	0.6005	0.008
Mof_C 	C 	0.19091	0.87684	0.71909	-0.169
Mof_C 	C 	0.2667	0.86064	0.77608	0.105
Mof_H 	H 	0.2773	0.8766	0.8297	0.017
Mof_C 	C 	0.3278	0.82064	0.7547	-0.183
Mof_H 	H 	0.3794	0.8105	0.7937	0.107
Mof_C 	C 	0.3123	0.79582	0.6757	0.146
Mof_C 	C 	0.5139	0.77908	0.501	-0.308
Mof_H 	H 	0.5087	0.8209	0.4967	0.167
Mof_C 	C 	0.4746	0.74769	0.55711	0.263
Mof_C 	C 	0.48415	0.68546	0.56572	-0.219
Mof_H 	H 	0.4591	0.6647	0.6042	0.122
Mof_C 	C 	0.53173	0.65467	0.51591	0.047
Mof_C 	C 	0.57017	0.68492	0.45796	-0.217
Mof_H 	H 	0.6013	0.6637	0.4244	0.126
Mof_C 	C 	0.561	0.7474	0.45146	0.264
Mof_C 	C 	0.7913	0.9335	0.1562	0.395
Mof_C 	C 	0.1242	0.92038	0.742	0.417
Mof_C 	C 	0.53976	0.58704	0.5248	0.352
Mof_C 	C 	0.6471	0.75197	0.346	-0.071
Mof_H 	H 	0.6952	0.7287	0.3801	0.062
Mof_H 	H 	0.6087	0.7245	0.3081	0.06
Mof_C 	C 	0.3765	0.75104	0.6516	-0.076
Mof_H 	H 	0.344	0.7176	0.6207	0.059
Mof_H 	H 	0.4163	0.735	0.7011	0.059
_end
