data_functionalizedCrystal
_audit_creation_method	'EQeq! by Chris Wilmer'
_symmetry_space_group_name_H-M	'P1'
_symmetry_Int_Tables_number	1
_symmetry_cell_setting	triclinic
loop_
_symmetry_equiv_pos_as_xyz
  x,y,z
_cell_length_a	50.8198
_cell_length_b	50.8198
_cell_length_c	50.8198
_cell_angle_alpha	60
_cell_angle_beta	60
_cell_angle_gamma	60
loop_
_atom_site_label
_atom_site_type_symbol
_atom_site_fract_x
_atom_site_fract_y
_atom_site_fract_z
_atom_site_charge
Mof_Zn	Zn	0.34719	0.54899	0.16253	1.188
Mof_Zn	Zn	0.04899	0.84719	0.94129	1.188
Mof_Zn	Zn	0.66253	0.94129	0.84719	1.188
Mof_Zn	Zn	0.44129	0.16253	0.54899	1.188
Mof_Zn	Zn	0.34719	0.16253	0.94129	1.188
Mof_Zn	Zn	0.04899	0.94129	0.16253	1.188
Mof_Zn	Zn	0.66253	0.84719	0.54899	1.188
Mof_Zn	Zn	0.44129	0.54899	0.84719	1.188
Mof_Zn	Zn	0.34719	0.94129	0.54899	1.188
Mof_Zn	Zn	0.04899	0.16253	0.84719	1.188
Mof_Zn	Zn	0.66253	0.54899	0.94129	1.188
Mof_Zn	Zn	0.44129	0.84719	0.16253	1.188
Mof_Zn	Zn	0.54899	0.34719	0.66253	1.188
Mof_Zn	Zn	0.84719	0.04899	0.44129	1.188
Mof_Zn	Zn	0.94129	0.66253	0.34719	1.188
Mof_Zn	Zn	0.16253	0.44129	0.04899	1.188
Mof_Zn	Zn	0.16253	0.34719	0.44129	1.188
Mof_Zn	Zn	0.94129	0.04899	0.66253	1.188
Mof_Zn	Zn	0.84719	0.66253	0.04899	1.188
Mof_Zn	Zn	0.54899	0.44129	0.34719	1.188
Mof_Zn	Zn	0.94129	0.34719	0.04899	1.188
Mof_Zn	Zn	0.16253	0.04899	0.34719	1.188
Mof_Zn	Zn	0.54899	0.66253	0.44129	1.188
Mof_Zn	Zn	0.84719	0.44129	0.66253	1.188
Mof_H 	H 	0.5481	0.5453	0.0979	0.138
Mof_H 	H 	0.4147	0.5481	0.1163	0.016
Mof_H 	H 	0.5674	0.539	0.0028	-0.005
Mof_H 	H 	0.5234	0.4336	0.2822	-0.002
Mof_H 	H 	0.4479	0.5023	0.3151	-0.007
Mof_H 	H 	0.4709	0.5221	0.1649	0.031
Mof_H 	H 	0.5196	0.5352	0.0438	0.152
Mof_H 	H 	0.3779	0.5279	0.2101	0.005
Mof_H 	H 	0.4268	0.516	0.2774	0.146
Mof_H 	H 	0.5011	0.4463	0.2447	0.117
Mof_H 	H 	0.594	0.5516	0.0558	-0.016
Mof_H 	H 	0.5025	0.5317	0.1209	0.161
Mof_H 	H 	0.4664	0.4832	0.2162	0.167
Mof_H 	H 	0.0453	0.0481	0.8087	0.138
Mof_H 	H 	0.0481	0.9147	0.9209	0.016
Mof_H 	H 	0.039	0.0674	0.8908	-0.005
Mof_H 	H 	0.9336	0.0234	0.7608	-0.002
Mof_H 	H 	0.0023	0.9479	0.7347	-0.007
Mof_H 	H 	0.0221	0.9709	0.8421	0.031
Mof_H 	H 	0.0352	0.0196	0.9014	0.152
Mof_H 	H 	0.0279	0.8779	0.8841	0.005
Mof_H 	H 	0.016	0.9268	0.7798	0.145
Mof_H 	H 	0.9463	0.0011	0.8079	0.116
Mof_H 	H 	0.0516	0.094	0.7986	-0.016
Mof_H 	H 	0.0317	0.0025	0.8449	0.161
Mof_H 	H 	0.9832	0.9664	0.8342	0.167
Mof_H 	H 	0.5979	0.8087	0.0481	0.138
Mof_H 	H 	0.6163	0.9209	0.9147	0.016
Mof_H 	H 	0.5028	0.8908	0.0674	-0.005
Mof_H 	H 	0.7822	0.7608	0.0234	-0.002
Mof_H 	H 	0.8151	0.7347	0.9479	-0.007
Mof_H 	H 	0.6649	0.8421	0.9709	0.031
Mof_H 	H 	0.5438	0.9014	0.0196	0.152
Mof_H 	H 	0.7101	0.8841	0.8779	0.005
Mof_H 	H 	0.7774	0.7798	0.9268	0.146
Mof_H 	H 	0.7447	0.8079	0.0011	0.116
Mof_H 	H 	0.5558	0.7986	0.094	-0.016
Mof_H 	H 	0.6209	0.8449	0.0025	0.161
Mof_H 	H 	0.7162	0.8342	0.9664	0.167
Mof_H 	H 	0.3087	0.0979	0.5453	0.138
Mof_H 	H 	0.4209	0.1163	0.5481	0.016
Mof_H 	H 	0.3908	0.0028	0.539	-0.004
Mof_H 	H 	0.2608	0.2822	0.4336	-0.002
Mof_H 	H 	0.2347	0.3151	0.5023	-0.007
Mof_H 	H 	0.3421	0.1649	0.5221	0.031
Mof_H 	H 	0.4014	0.0438	0.5352	0.152
Mof_H 	H 	0.3841	0.2101	0.5279	0.005
Mof_H 	H 	0.2798	0.2774	0.516	0.146
Mof_H 	H 	0.3079	0.2447	0.4463	0.117
Mof_H 	H 	0.2986	0.0558	0.5516	-0.016
Mof_H 	H 	0.3449	0.1209	0.5317	0.161
Mof_H 	H 	0.3342	0.2162	0.4832	0.167
Mof_H 	H 	0.5481	0.0979	0.8087	0.139
Mof_H 	H 	0.4147	0.1163	0.9209	0.017
Mof_H 	H 	0.5674	0.0028	0.8908	-0.004
Mof_H 	H 	0.5234	0.2822	0.7608	-0.001
Mof_H 	H 	0.4479	0.3151	0.7347	-0.006
Mof_H 	H 	0.4709	0.1649	0.8421	0.032
Mof_H 	H 	0.5196	0.0438	0.9014	0.153
Mof_H 	H 	0.3779	0.2101	0.8841	0.006
Mof_H 	H 	0.4268	0.2774	0.7798	0.147
Mof_H 	H 	0.5011	0.2447	0.8079	0.118
Mof_H 	H 	0.594	0.0558	0.7986	-0.015
Mof_H 	H 	0.5025	0.1209	0.8449	0.162
Mof_H 	H 	0.4664	0.2162	0.8342	0.168
Mof_H 	H 	0.0453	0.8087	0.0979	0.139
Mof_H 	H 	0.0481	0.9209	0.1163	0.017
Mof_H 	H 	0.039	0.8908	0.0028	-0.003
Mof_H 	H 	0.9336	0.7608	0.2822	-0.001
Mof_H 	H 	0.0023	0.7347	0.3151	-0.006
Mof_H 	H 	0.0221	0.8421	0.1649	0.032
Mof_H 	H 	0.0352	0.9014	0.0438	0.153
Mof_H 	H 	0.0279	0.8841	0.2101	0.006
Mof_H 	H 	0.016	0.7798	0.2774	0.147
Mof_H 	H 	0.9463	0.8079	0.2447	0.118
Mof_H 	H 	0.0516	0.7986	0.0558	-0.015
Mof_H 	H 	0.0317	0.8449	0.1209	0.162
Mof_H 	H 	0.9832	0.8342	0.2162	0.168
Mof_H 	H 	0.5979	0.0481	0.5453	0.139
Mof_H 	H 	0.6163	0.9147	0.5481	0.017
Mof_H 	H 	0.5028	0.0674	0.539	-0.004
Mof_H 	H 	0.7822	0.0234	0.4336	-0.001
Mof_H 	H 	0.8151	0.9479	0.5023	-0.006
Mof_H 	H 	0.6649	0.9709	0.5221	0.032
Mof_H 	H 	0.5438	0.0196	0.5352	0.153
Mof_H 	H 	0.7101	0.8779	0.5279	0.006
Mof_H 	H 	0.7774	0.9268	0.516	0.147
Mof_H 	H 	0.7447	0.0011	0.4463	0.117
Mof_H 	H 	0.5558	0.094	0.5516	-0.015
Mof_H 	H 	0.6209	0.0025	0.5317	0.162
Mof_H 	H 	0.7162	0.9664	0.4832	0.168
Mof_H 	H 	0.3087	0.5453	0.0481	0.139
Mof_H 	H 	0.4209	0.5481	0.9147	0.017
Mof_H 	H 	0.3908	0.539	0.0674	-0.004
Mof_H 	H 	0.2608	0.4336	0.0234	-0.001
Mof_H 	H 	0.2347	0.5023	0.9479	-0.006
Mof_H 	H 	0.3421	0.5221	0.9709	0.032
Mof_H 	H 	0.4014	0.5352	0.0196	0.153
Mof_H 	H 	0.3841	0.5279	0.8779	0.006
Mof_H 	H 	0.2798	0.516	0.9268	0.147
Mof_H 	H 	0.3079	0.4463	0.0011	0.118
Mof_H 	H 	0.2986	0.5516	0.094	-0.015
Mof_H 	H 	0.3449	0.5317	0.0025	0.162
Mof_H 	H 	0.3342	0.4832	0.9664	0.168
Mof_H 	H 	0.5481	0.8087	0.5453	0.139
Mof_H 	H 	0.4147	0.9209	0.5481	0.017
Mof_H 	H 	0.5674	0.8908	0.539	-0.004
Mof_H 	H 	0.5234	0.7608	0.4336	-0.001
Mof_H 	H 	0.4479	0.7347	0.5023	-0.006
Mof_H 	H 	0.4709	0.8421	0.5221	0.032
Mof_H 	H 	0.5196	0.9014	0.5352	0.153
Mof_H 	H 	0.3779	0.8841	0.5279	0.006
Mof_H 	H 	0.4268	0.7798	0.516	0.147
Mof_H 	H 	0.5011	0.8079	0.4463	0.118
Mof_H 	H 	0.594	0.7986	0.5516	-0.015
Mof_H 	H 	0.5025	0.8449	0.5317	0.162
Mof_H 	H 	0.4664	0.8342	0.4832	0.168
Mof_H 	H 	0.0453	0.0979	0.0481	0.139
Mof_H 	H 	0.0481	0.1163	0.9147	0.017
Mof_H 	H 	0.039	0.0028	0.0674	-0.003
Mof_H 	H 	0.9336	0.2822	0.0234	-0.001
Mof_H 	H 	0.0023	0.3151	0.9479	-0.006
Mof_H 	H 	0.0221	0.1649	0.9709	0.032
Mof_H 	H 	0.0352	0.0438	0.0196	0.153
Mof_H 	H 	0.0279	0.2101	0.8779	0.006
Mof_H 	H 	0.016	0.2774	0.9268	0.146
Mof_H 	H 	0.9463	0.2447	0.0011	0.117
Mof_H 	H 	0.0516	0.0558	0.094	-0.015
Mof_H 	H 	0.0317	0.1209	0.0025	0.162
Mof_H 	H 	0.9832	0.2162	0.9664	0.168
Mof_H 	H 	0.5979	0.5453	0.8087	0.139
Mof_H 	H 	0.6163	0.5481	0.9209	0.017
Mof_H 	H 	0.5028	0.539	0.8908	-0.004
Mof_H 	H 	0.7822	0.4336	0.7608	-0.001
Mof_H 	H 	0.8151	0.5023	0.7347	-0.006
Mof_H 	H 	0.6649	0.5221	0.8421	0.032
Mof_H 	H 	0.5438	0.5352	0.9014	0.153
Mof_H 	H 	0.7101	0.5279	0.8841	0.006
Mof_H 	H 	0.7774	0.516	0.7798	0.147
Mof_H 	H 	0.7447	0.4463	0.8079	0.118
Mof_H 	H 	0.5558	0.5516	0.7986	-0.015
Mof_H 	H 	0.6209	0.5317	0.8449	0.162
Mof_H 	H 	0.7162	0.4832	0.8342	0.168
Mof_H 	H 	0.3087	0.0481	0.0979	0.139
Mof_H 	H 	0.4209	0.9147	0.1163	0.017
Mof_H 	H 	0.3908	0.0674	0.0028	-0.004
Mof_H 	H 	0.2608	0.0234	0.2822	-0.001
Mof_H 	H 	0.2347	0.9479	0.3151	-0.006
Mof_H 	H 	0.3421	0.9709	0.1649	0.032
Mof_H 	H 	0.4014	0.0196	0.0438	0.153
Mof_H 	H 	0.3841	0.8779	0.2101	0.006
Mof_H 	H 	0.2798	0.9268	0.2774	0.147
Mof_H 	H 	0.3079	0.0011	0.2447	0.118
Mof_H 	H 	0.2986	0.094	0.0558	-0.015
Mof_H 	H 	0.3449	0.0025	0.1209	0.162
Mof_H 	H 	0.3342	0.9664	0.2162	0.168
Mof_H 	H 	0.5453	0.5481	0.5979	0.139
Mof_H 	H 	0.5481	0.4147	0.6163	0.017
Mof_H 	H 	0.539	0.5674	0.5028	-0.004
Mof_H 	H 	0.4336	0.5234	0.7822	-0.001
Mof_H 	H 	0.5023	0.4479	0.8151	-0.006
Mof_H 	H 	0.5221	0.4709	0.6649	0.032
Mof_H 	H 	0.5352	0.5196	0.5438	0.153
Mof_H 	H 	0.5279	0.3779	0.7101	0.006
Mof_H 	H 	0.516	0.4268	0.7774	0.147
Mof_H 	H 	0.4463	0.5011	0.7447	0.118
Mof_H 	H 	0.5516	0.594	0.5558	-0.015
Mof_H 	H 	0.5317	0.5025	0.6209	0.162
Mof_H 	H 	0.4832	0.4664	0.7162	0.168
Mof_H 	H 	0.0481	0.0453	0.3087	0.139
Mof_H 	H 	0.9147	0.0481	0.4209	0.017
Mof_H 	H 	0.0674	0.039	0.3908	-0.003
Mof_H 	H 	0.0234	0.9336	0.2608	-0.001
Mof_H 	H 	0.9479	0.0023	0.2347	-0.006
Mof_H 	H 	0.9709	0.0221	0.3421	0.032
Mof_H 	H 	0.0196	0.0352	0.4014	0.153
Mof_H 	H 	0.8779	0.0279	0.3841	0.006
Mof_H 	H 	0.9268	0.016	0.2798	0.146
Mof_H 	H 	0.0011	0.9463	0.3079	0.117
Mof_H 	H 	0.094	0.0516	0.2986	-0.015
Mof_H 	H 	0.0025	0.0317	0.3449	0.162
Mof_H 	H 	0.9664	0.9832	0.3342	0.168
Mof_H 	H 	0.8087	0.5979	0.5481	0.139
Mof_H 	H 	0.9209	0.6163	0.4147	0.017
Mof_H 	H 	0.8908	0.5028	0.5674	-0.004
Mof_H 	H 	0.7608	0.7822	0.5234	-0.001
Mof_H 	H 	0.7347	0.8151	0.4479	-0.006
Mof_H 	H 	0.8421	0.6649	0.4709	0.032
Mof_H 	H 	0.9014	0.5438	0.5196	0.153
Mof_H 	H 	0.8841	0.7101	0.3779	0.006
Mof_H 	H 	0.7798	0.7774	0.4268	0.147
Mof_H 	H 	0.8079	0.7447	0.5011	0.118
Mof_H 	H 	0.7986	0.5558	0.594	-0.015
Mof_H 	H 	0.8449	0.6209	0.5025	0.162
Mof_H 	H 	0.8342	0.7162	0.4664	0.168
Mof_H 	H 	0.0979	0.3087	0.0453	0.139
Mof_H 	H 	0.1163	0.4209	0.0481	0.017
Mof_H 	H 	0.0028	0.3908	0.039	-0.003
Mof_H 	H 	0.2822	0.2608	0.9336	-0.001
Mof_H 	H 	0.3151	0.2347	0.0023	-0.006
Mof_H 	H 	0.1649	0.3421	0.0221	0.032
Mof_H 	H 	0.0438	0.4014	0.0352	0.153
Mof_H 	H 	0.2101	0.3841	0.0279	0.006
Mof_H 	H 	0.2774	0.2798	0.016	0.147
Mof_H 	H 	0.2447	0.3079	0.9463	0.118
Mof_H 	H 	0.0558	0.2986	0.0516	-0.015
Mof_H 	H 	0.1209	0.3449	0.0317	0.162
Mof_H 	H 	0.2162	0.3342	0.9832	0.168
Mof_H 	H 	0.0979	0.5481	0.3087	0.139
Mof_H 	H 	0.1163	0.4147	0.4209	0.017
Mof_H 	H 	0.0028	0.5674	0.3908	-0.004
Mof_H 	H 	0.2822	0.5234	0.2608	-0.001
Mof_H 	H 	0.3151	0.4479	0.2347	-0.006
Mof_H 	H 	0.1649	0.4709	0.3421	0.032
Mof_H 	H 	0.0438	0.5196	0.4014	0.153
Mof_H 	H 	0.2101	0.3779	0.3841	0.006
Mof_H 	H 	0.2774	0.4268	0.2798	0.147
Mof_H 	H 	0.2447	0.5011	0.3079	0.118
Mof_H 	H 	0.0558	0.594	0.2986	-0.015
Mof_H 	H 	0.1209	0.5025	0.3449	0.162
Mof_H 	H 	0.2162	0.4664	0.3342	0.168
Mof_H 	H 	0.8087	0.0453	0.5979	0.139
Mof_H 	H 	0.9209	0.0481	0.6163	0.017
Mof_H 	H 	0.8908	0.039	0.5028	-0.004
Mof_H 	H 	0.7608	0.9336	0.7822	-0.001
Mof_H 	H 	0.7347	0.0023	0.8151	-0.006
Mof_H 	H 	0.8421	0.0221	0.6649	0.032
Mof_H 	H 	0.9014	0.0352	0.5438	0.153
Mof_H 	H 	0.8841	0.0279	0.7101	0.006
Mof_H 	H 	0.7798	0.016	0.7774	0.147
Mof_H 	H 	0.8079	0.9463	0.7447	0.118
Mof_H 	H 	0.7986	0.0516	0.5558	-0.015
Mof_H 	H 	0.8449	0.0317	0.6209	0.162
Mof_H 	H 	0.8342	0.9832	0.7162	0.168
Mof_H 	H 	0.0481	0.5979	0.0453	0.139
Mof_H 	H 	0.9147	0.6163	0.0481	0.017
Mof_H 	H 	0.0674	0.5028	0.039	-0.003
Mof_H 	H 	0.0234	0.7822	0.9336	-0.001
Mof_H 	H 	0.9479	0.8151	0.0023	-0.006
Mof_H 	H 	0.9709	0.6649	0.0221	0.032
Mof_H 	H 	0.0196	0.5438	0.0352	0.153
Mof_H 	H 	0.8779	0.7101	0.0279	0.006
Mof_H 	H 	0.9268	0.7774	0.016	0.146
Mof_H 	H 	0.0011	0.7447	0.9463	0.117
Mof_H 	H 	0.094	0.5558	0.0516	-0.015
Mof_H 	H 	0.0025	0.6209	0.0317	0.162
Mof_H 	H 	0.9664	0.7162	0.9832	0.168
Mof_H 	H 	0.5453	0.3087	0.5481	0.139
Mof_H 	H 	0.5481	0.4209	0.4147	0.017
Mof_H 	H 	0.539	0.3908	0.5674	-0.004
Mof_H 	H 	0.4336	0.2608	0.5234	-0.001
Mof_H 	H 	0.5023	0.2347	0.4479	-0.006
Mof_H 	H 	0.5221	0.3421	0.4709	0.032
Mof_H 	H 	0.5352	0.4014	0.5196	0.153
Mof_H 	H 	0.5279	0.3841	0.3779	0.006
Mof_H 	H 	0.516	0.2798	0.4268	0.147
Mof_H 	H 	0.4463	0.3079	0.5011	0.118
Mof_H 	H 	0.5516	0.2986	0.594	-0.015
Mof_H 	H 	0.5317	0.3449	0.5025	0.162
Mof_H 	H 	0.4832	0.3342	0.4664	0.168
Mof_H 	H 	0.8087	0.5481	0.0453	0.139
Mof_H 	H 	0.9209	0.4147	0.0481	0.017
Mof_H 	H 	0.8908	0.5674	0.039	-0.004
Mof_H 	H 	0.7608	0.5234	0.9336	-0.001
Mof_H 	H 	0.7347	0.4479	0.0023	-0.006
Mof_H 	H 	0.8421	0.4709	0.0221	0.032
Mof_H 	H 	0.9014	0.5196	0.0352	0.153
Mof_H 	H 	0.8841	0.3779	0.0279	0.006
Mof_H 	H 	0.7798	0.4268	0.016	0.147
Mof_H 	H 	0.8079	0.5011	0.9463	0.118
Mof_H 	H 	0.7986	0.594	0.0516	-0.015
Mof_H 	H 	0.8449	0.5025	0.0317	0.162
Mof_H 	H 	0.8342	0.4664	0.9832	0.168
Mof_H 	H 	0.0979	0.0453	0.5481	0.139
Mof_H 	H 	0.1163	0.0481	0.4147	0.017
Mof_H 	H 	0.0028	0.039	0.5674	-0.003
Mof_H 	H 	0.2822	0.9336	0.5234	-0.001
Mof_H 	H 	0.3151	0.0023	0.4479	-0.006
Mof_H 	H 	0.1649	0.0221	0.4709	0.032
Mof_H 	H 	0.0438	0.0352	0.5196	0.153
Mof_H 	H 	0.2101	0.0279	0.3779	0.006
Mof_H 	H 	0.2774	0.016	0.4268	0.147
Mof_H 	H 	0.2447	0.9463	0.5011	0.118
Mof_H 	H 	0.0558	0.0516	0.594	-0.015
Mof_H 	H 	0.1209	0.0317	0.5025	0.162
Mof_H 	H 	0.2162	0.9832	0.4664	0.168
Mof_H 	H 	0.5453	0.5979	0.3087	0.139
Mof_H 	H 	0.5481	0.6163	0.4209	0.017
Mof_H 	H 	0.539	0.5028	0.3908	-0.004
Mof_H 	H 	0.4336	0.7822	0.2608	-0.001
Mof_H 	H 	0.5023	0.8151	0.2347	-0.006
Mof_H 	H 	0.5221	0.6649	0.3421	0.032
Mof_H 	H 	0.5352	0.5438	0.4014	0.153
Mof_H 	H 	0.5279	0.7101	0.3841	0.006
Mof_H 	H 	0.516	0.7774	0.2798	0.147
Mof_H 	H 	0.4463	0.7447	0.3079	0.118
Mof_H 	H 	0.5516	0.5558	0.2986	-0.015
Mof_H 	H 	0.5317	0.6209	0.3449	0.162
Mof_H 	H 	0.4832	0.7162	0.3342	0.168
Mof_H 	H 	0.0481	0.3087	0.5979	0.139
Mof_H 	H 	0.9147	0.4209	0.6163	0.017
Mof_H 	H 	0.0674	0.3908	0.5028	-0.004
Mof_H 	H 	0.0234	0.2608	0.7822	-0.001
Mof_H 	H 	0.9479	0.2347	0.8151	-0.006
Mof_H 	H 	0.9709	0.3421	0.6649	0.032
Mof_H 	H 	0.0196	0.4014	0.5438	0.153
Mof_H 	H 	0.8779	0.3841	0.7101	0.006
Mof_H 	H 	0.9268	0.2798	0.7774	0.147
Mof_H 	H 	0.0011	0.3079	0.7447	0.118
Mof_H 	H 	0.094	0.2986	0.5558	-0.015
Mof_H 	H 	0.0025	0.3449	0.6209	0.162
Mof_H 	H 	0.9664	0.3342	0.7162	0.168
Mof_C 	C 	0.55162	0.54454	0.07846	-0.282
Mof_C 	C 	0.41719	0.54169	0.13575	0.061
Mof_C 	C 	0.48754	0.467	0.3023	-0.176
Mof_C 	C 	0.58552	0.54588	0.02428	-0.21
Mof_C 	C 	0.44681	0.53585	0.13531	-0.101
Mof_C 	C 	0.47335	0.53939	0.10377	0.263
Mof_C 	C 	0.52878	0.53996	0.07562	0.256
Mof_C 	C 	0.4249	0.52264	0.19304	-0.098
Mof_C 	C 	0.46223	0.48377	0.25635	0.247
Mof_C 	C 	0.5633	0.5408	0.0219	0.172
Mof_C 	C 	0.50389	0.45009	0.28141	0.129
Mof_C 	C 	0.45913	0.49113	0.30067	0.149
Mof_C 	C 	0.50279	0.46055	0.32523	0.356
Mof_C 	C 	0.45099	0.52613	0.16457	0.028
Mof_C 	C 	0.42512	0.5149	0.22522	0.259
Mof_C 	C 	0.53464	0.53816	0.04648	-0.264
Mof_C 	C 	0.3956	0.52952	0.19114	0.052
Mof_C 	C 	0.61602	0.5484	0.99798	0.366
Mof_C 	C 	0.44647	0.49941	0.27789	-0.259
Mof_C 	C 	0.49063	0.45819	0.25841	-0.238
Mof_C 	C 	0.57928	0.54788	0.05348	0.17
Mof_C 	C 	0.04454	0.05162	0.82538	-0.282
Mof_C 	C 	0.04169	0.91719	0.90537	0.061
Mof_C 	C 	0.967	0.98754	0.74316	-0.175
Mof_C 	C 	0.04588	0.08552	0.84432	-0.21
Mof_C 	C 	0.03585	0.94681	0.88203	-0.101
Mof_C 	C 	0.03939	0.97335	0.88349	0.263
Mof_C 	C 	0.03996	0.02878	0.85564	0.256
Mof_C 	C 	0.02264	0.9249	0.85942	-0.098
Mof_C 	C 	0.98377	0.96223	0.79765	0.247
Mof_C 	C 	0.0408	0.0633	0.874	0.172
Mof_C 	C 	0.95009	0.00389	0.76461	0.128
Mof_C 	C 	0.99113	0.95913	0.74907	0.149
Mof_C 	C 	0.96055	0.00279	0.71143	0.356
Mof_C 	C 	0.02613	0.95099	0.85831	0.027
Mof_C 	C 	0.0149	0.92512	0.83476	0.258
Mof_C 	C 	0.03816	0.03464	0.88072	-0.263
Mof_C 	C 	0.02952	0.8956	0.88374	0.052
Mof_C 	C 	0.0484	0.11602	0.8376	0.366
Mof_C 	C 	0.99941	0.94647	0.77623	-0.259
Mof_C 	C 	0.95819	0.99063	0.79277	-0.237
Mof_C 	C 	0.04788	0.07928	0.81936	0.17
Mof_C 	C 	0.57846	0.82538	0.05162	-0.282
Mof_C 	C 	0.63575	0.90537	0.91719	0.061
Mof_C 	C 	0.8023	0.74316	0.98754	-0.175
Mof_C 	C 	0.52428	0.84432	0.08552	-0.21
Mof_C 	C 	0.63531	0.88203	0.94681	-0.101
Mof_C 	C 	0.60377	0.88349	0.97335	0.263
Mof_C 	C 	0.57562	0.85564	0.02878	0.256
Mof_C 	C 	0.69304	0.85942	0.9249	-0.098
Mof_C 	C 	0.75635	0.79765	0.96223	0.247
Mof_C 	C 	0.5219	0.874	0.0633	0.172
Mof_C 	C 	0.78141	0.76461	0.00389	0.129
Mof_C 	C 	0.80067	0.74907	0.95913	0.149
Mof_C 	C 	0.82523	0.71143	0.00279	0.356
Mof_C 	C 	0.66457	0.85831	0.95099	0.028
Mof_C 	C 	0.72522	0.83476	0.92512	0.259
Mof_C 	C 	0.54648	0.88072	0.03464	-0.263
Mof_C 	C 	0.69114	0.88374	0.8956	0.052
Mof_C 	C 	0.49798	0.8376	0.11602	0.366
Mof_C 	C 	0.77789	0.77623	0.94647	-0.259
Mof_C 	C 	0.75841	0.79277	0.99063	-0.238
Mof_C 	C 	0.55348	0.81936	0.07928	0.17
Mof_C 	C 	0.32538	0.07846	0.54454	-0.282
Mof_C 	C 	0.40537	0.13575	0.54169	0.061
Mof_C 	C 	0.24316	0.3023	0.467	-0.176
Mof_C 	C 	0.34432	0.02428	0.54588	-0.21
Mof_C 	C 	0.38203	0.13531	0.53585	-0.101
Mof_C 	C 	0.38349	0.10377	0.53939	0.263
Mof_C 	C 	0.35564	0.07562	0.53996	0.256
Mof_C 	C 	0.35942	0.19304	0.52264	-0.098
Mof_C 	C 	0.29765	0.25635	0.48377	0.247
Mof_C 	C 	0.374	0.0219	0.5408	0.172
Mof_C 	C 	0.26461	0.28141	0.45009	0.129
Mof_C 	C 	0.24907	0.30067	0.49113	0.149
Mof_C 	C 	0.21143	0.32523	0.46055	0.356
Mof_C 	C 	0.35831	0.16457	0.52613	0.028
Mof_C 	C 	0.33476	0.22522	0.5149	0.259
Mof_C 	C 	0.38072	0.04648	0.53816	-0.263
Mof_C 	C 	0.38374	0.19114	0.52952	0.052
Mof_C 	C 	0.3376	0.99798	0.5484	0.366
Mof_C 	C 	0.27623	0.27789	0.49941	-0.259
Mof_C 	C 	0.29277	0.25841	0.45819	-0.238
Mof_C 	C 	0.31936	0.05348	0.54788	0.17
Mof_C 	C 	0.55162	0.07846	0.82538	-0.282
Mof_C 	C 	0.41719	0.13575	0.90537	0.061
Mof_C 	C 	0.48754	0.3023	0.74316	-0.176
Mof_C 	C 	0.58552	0.02428	0.84432	-0.21
Mof_C 	C 	0.44681	0.13531	0.88203	-0.101
Mof_C 	C 	0.47335	0.10377	0.88349	0.263
Mof_C 	C 	0.52878	0.07562	0.85564	0.256
Mof_C 	C 	0.4249	0.19304	0.85942	-0.098
Mof_C 	C 	0.46223	0.25635	0.79765	0.247
Mof_C 	C 	0.5633	0.0219	0.874	0.172
Mof_C 	C 	0.50389	0.28141	0.76461	0.129
Mof_C 	C 	0.45913	0.30067	0.74907	0.149
Mof_C 	C 	0.50279	0.32523	0.71143	0.356
Mof_C 	C 	0.45099	0.16457	0.85831	0.028
Mof_C 	C 	0.42512	0.22522	0.83476	0.259
Mof_C 	C 	0.53464	0.04648	0.88072	-0.264
Mof_C 	C 	0.3956	0.19114	0.88374	0.052
Mof_C 	C 	0.61602	0.99798	0.8376	0.366
Mof_C 	C 	0.44647	0.27789	0.77623	-0.259
Mof_C 	C 	0.49063	0.25841	0.79277	-0.238
Mof_C 	C 	0.57928	0.05348	0.81936	0.17
Mof_C 	C 	0.04454	0.82538	0.07846	-0.282
Mof_C 	C 	0.04169	0.90537	0.13575	0.061
Mof_C 	C 	0.967	0.74316	0.3023	-0.176
Mof_C 	C 	0.04588	0.84432	0.02428	-0.21
Mof_C 	C 	0.03585	0.88203	0.13531	-0.101
Mof_C 	C 	0.03939	0.88349	0.10377	0.263
Mof_C 	C 	0.03996	0.85564	0.07562	0.256
Mof_C 	C 	0.02264	0.85942	0.19304	-0.098
Mof_C 	C 	0.98377	0.79765	0.25635	0.247
Mof_C 	C 	0.0408	0.874	0.0219	0.172
Mof_C 	C 	0.95009	0.76461	0.28141	0.129
Mof_C 	C 	0.99113	0.74907	0.30067	0.149
Mof_C 	C 	0.96055	0.71143	0.32523	0.356
Mof_C 	C 	0.02613	0.85831	0.16457	0.028
Mof_C 	C 	0.0149	0.83476	0.22522	0.259
Mof_C 	C 	0.03816	0.88072	0.04648	-0.263
Mof_C 	C 	0.02952	0.88374	0.19114	0.052
Mof_C 	C 	0.0484	0.8376	0.99798	0.365
Mof_C 	C 	0.99941	0.77623	0.27789	-0.259
Mof_C 	C 	0.95819	0.79277	0.25841	-0.238
Mof_C 	C 	0.04788	0.81936	0.05348	0.17
Mof_C 	C 	0.57846	0.05162	0.54454	-0.282
Mof_C 	C 	0.63575	0.91719	0.54169	0.061
Mof_C 	C 	0.8023	0.98754	0.467	-0.175
Mof_C 	C 	0.52428	0.08552	0.54588	-0.21
Mof_C 	C 	0.63531	0.94681	0.53585	-0.101
Mof_C 	C 	0.60377	0.97335	0.53939	0.263
Mof_C 	C 	0.57562	0.02878	0.53996	0.256
Mof_C 	C 	0.69304	0.9249	0.52264	-0.098
Mof_C 	C 	0.75635	0.96223	0.48377	0.247
Mof_C 	C 	0.5219	0.0633	0.5408	0.172
Mof_C 	C 	0.78141	0.00389	0.45009	0.128
Mof_C 	C 	0.80067	0.95913	0.49113	0.149
Mof_C 	C 	0.82523	0.00279	0.46055	0.356
Mof_C 	C 	0.66457	0.95099	0.52613	0.028
Mof_C 	C 	0.72522	0.92512	0.5149	0.259
Mof_C 	C 	0.54648	0.03464	0.53816	-0.263
Mof_C 	C 	0.69114	0.8956	0.52952	0.052
Mof_C 	C 	0.49798	0.11602	0.5484	0.366
Mof_C 	C 	0.77789	0.94647	0.49941	-0.259
Mof_C 	C 	0.75841	0.99063	0.45819	-0.238
Mof_C 	C 	0.55348	0.07928	0.54788	0.17
Mof_C 	C 	0.32538	0.54454	0.05162	-0.282
Mof_C 	C 	0.40537	0.54169	0.91719	0.061
Mof_C 	C 	0.24316	0.467	0.98754	-0.176
Mof_C 	C 	0.34432	0.54588	0.08552	-0.21
Mof_C 	C 	0.38203	0.53585	0.94681	-0.101
Mof_C 	C 	0.38349	0.53939	0.97335	0.263
Mof_C 	C 	0.35564	0.53996	0.02878	0.256
Mof_C 	C 	0.35942	0.52264	0.9249	-0.098
Mof_C 	C 	0.29765	0.48377	0.96223	0.247
Mof_C 	C 	0.374	0.5408	0.0633	0.172
Mof_C 	C 	0.26461	0.45009	0.00389	0.129
Mof_C 	C 	0.24907	0.49113	0.95913	0.149
Mof_C 	C 	0.21143	0.46055	0.00279	0.356
Mof_C 	C 	0.35831	0.52613	0.95099	0.028
Mof_C 	C 	0.33476	0.5149	0.92512	0.259
Mof_C 	C 	0.38072	0.53816	0.03464	-0.263
Mof_C 	C 	0.38374	0.52952	0.8956	0.052
Mof_C 	C 	0.3376	0.5484	0.11602	0.366
Mof_C 	C 	0.27623	0.49941	0.94647	-0.259
Mof_C 	C 	0.29277	0.45819	0.99063	-0.238
Mof_C 	C 	0.31936	0.54788	0.07928	0.17
Mof_C 	C 	0.55162	0.82538	0.54454	-0.282
Mof_C 	C 	0.41719	0.90537	0.54169	0.061
Mof_C 	C 	0.48754	0.74316	0.467	-0.176
Mof_C 	C 	0.58552	0.84432	0.54588	-0.21
Mof_C 	C 	0.44681	0.88203	0.53585	-0.101
Mof_C 	C 	0.47335	0.88349	0.53939	0.263
Mof_C 	C 	0.52878	0.85564	0.53996	0.256
Mof_C 	C 	0.4249	0.85942	0.52264	-0.098
Mof_C 	C 	0.46223	0.79765	0.48377	0.247
Mof_C 	C 	0.5633	0.874	0.5408	0.172
Mof_C 	C 	0.50389	0.76461	0.45009	0.129
Mof_C 	C 	0.45913	0.74907	0.49113	0.149
Mof_C 	C 	0.50279	0.71143	0.46055	0.356
Mof_C 	C 	0.45099	0.85831	0.52613	0.028
Mof_C 	C 	0.42512	0.83476	0.5149	0.259
Mof_C 	C 	0.53464	0.88072	0.53816	-0.263
Mof_C 	C 	0.3956	0.88374	0.52952	0.052
Mof_C 	C 	0.61602	0.8376	0.5484	0.366
Mof_C 	C 	0.44647	0.77623	0.49941	-0.259
Mof_C 	C 	0.49063	0.79277	0.45819	-0.238
Mof_C 	C 	0.57928	0.81936	0.54788	0.17
Mof_C 	C 	0.04454	0.07846	0.05162	-0.282
Mof_C 	C 	0.04169	0.13575	0.91719	0.061
Mof_C 	C 	0.967	0.3023	0.98754	-0.175
Mof_C 	C 	0.04588	0.02428	0.08552	-0.21
Mof_C 	C 	0.03585	0.13531	0.94681	-0.101
Mof_C 	C 	0.03939	0.10377	0.97335	0.263
Mof_C 	C 	0.03996	0.07562	0.02878	0.256
Mof_C 	C 	0.02264	0.19304	0.9249	-0.098
Mof_C 	C 	0.98377	0.25635	0.96223	0.247
Mof_C 	C 	0.0408	0.0219	0.0633	0.172
Mof_C 	C 	0.95009	0.28141	0.00389	0.128
Mof_C 	C 	0.99113	0.30067	0.95913	0.149
Mof_C 	C 	0.96055	0.32523	0.00279	0.356
Mof_C 	C 	0.02613	0.16457	0.95099	0.027
Mof_C 	C 	0.0149	0.22522	0.92512	0.259
Mof_C 	C 	0.03816	0.04648	0.03464	-0.263
Mof_C 	C 	0.02952	0.19114	0.8956	0.052
Mof_C 	C 	0.0484	0.99798	0.11602	0.366
Mof_C 	C 	0.99941	0.27789	0.94647	-0.259
Mof_C 	C 	0.95819	0.25841	0.99063	-0.237
Mof_C 	C 	0.04788	0.05348	0.07928	0.17
Mof_C 	C 	0.57846	0.54454	0.82538	-0.282
Mof_C 	C 	0.63575	0.54169	0.90537	0.061
Mof_C 	C 	0.8023	0.467	0.74316	-0.176
Mof_C 	C 	0.52428	0.54588	0.84432	-0.21
Mof_C 	C 	0.63531	0.53585	0.88203	-0.101
Mof_C 	C 	0.60377	0.53939	0.88349	0.263
Mof_C 	C 	0.57562	0.53996	0.85564	0.256
Mof_C 	C 	0.69304	0.52264	0.85942	-0.098
Mof_C 	C 	0.75635	0.48377	0.79765	0.247
Mof_C 	C 	0.5219	0.5408	0.874	0.172
Mof_C 	C 	0.78141	0.45009	0.76461	0.129
Mof_C 	C 	0.80067	0.49113	0.74907	0.149
Mof_C 	C 	0.82523	0.46055	0.71143	0.356
Mof_C 	C 	0.66457	0.52613	0.85831	0.028
Mof_C 	C 	0.72522	0.5149	0.83476	0.259
Mof_C 	C 	0.54648	0.53816	0.88072	-0.263
Mof_C 	C 	0.69114	0.52952	0.88374	0.052
Mof_C 	C 	0.49798	0.5484	0.8376	0.366
Mof_C 	C 	0.77789	0.49941	0.77623	-0.259
Mof_C 	C 	0.75841	0.45819	0.79277	-0.238
Mof_C 	C 	0.55348	0.54788	0.81936	0.17
Mof_C 	C 	0.32538	0.05162	0.07846	-0.282
Mof_C 	C 	0.40537	0.91719	0.13575	0.061
Mof_C 	C 	0.24316	0.98754	0.3023	-0.176
Mof_C 	C 	0.34432	0.08552	0.02428	-0.21
Mof_C 	C 	0.38203	0.94681	0.13531	-0.101
Mof_C 	C 	0.38349	0.97335	0.10377	0.263
Mof_C 	C 	0.35564	0.02878	0.07562	0.256
Mof_C 	C 	0.35942	0.9249	0.19304	-0.098
Mof_C 	C 	0.29765	0.96223	0.25635	0.247
Mof_C 	C 	0.374	0.0633	0.0219	0.172
Mof_C 	C 	0.26461	0.00389	0.28141	0.129
Mof_C 	C 	0.24907	0.95913	0.30067	0.149
Mof_C 	C 	0.21143	0.00279	0.32523	0.356
Mof_C 	C 	0.35831	0.95099	0.16457	0.028
Mof_C 	C 	0.33476	0.92512	0.22522	0.259
Mof_C 	C 	0.38072	0.03464	0.04648	-0.263
Mof_C 	C 	0.38374	0.8956	0.19114	0.052
Mof_C 	C 	0.3376	0.11602	0.99798	0.366
Mof_C 	C 	0.27623	0.94647	0.27789	-0.259
Mof_C 	C 	0.29277	0.99063	0.25841	-0.238
Mof_C 	C 	0.31936	0.07928	0.05348	0.17
Mof_C 	C 	0.54454	0.55162	0.57846	-0.282
Mof_C 	C 	0.54169	0.41719	0.63575	0.061
Mof_C 	C 	0.467	0.48754	0.8023	-0.176
Mof_C 	C 	0.54588	0.58552	0.52428	-0.21
Mof_C 	C 	0.53585	0.44681	0.63531	-0.101
Mof_C 	C 	0.53939	0.47335	0.60377	0.263
Mof_C 	C 	0.53996	0.52878	0.57562	0.256
Mof_C 	C 	0.52264	0.4249	0.69304	-0.098
Mof_C 	C 	0.48377	0.46223	0.75635	0.247
Mof_C 	C 	0.5408	0.5633	0.5219	0.172
Mof_C 	C 	0.45009	0.50389	0.78141	0.129
Mof_C 	C 	0.49113	0.45913	0.80067	0.149
Mof_C 	C 	0.46055	0.50279	0.82523	0.356
Mof_C 	C 	0.52613	0.45099	0.66457	0.028
Mof_C 	C 	0.5149	0.42512	0.72522	0.259
Mof_C 	C 	0.53816	0.53464	0.54648	-0.263
Mof_C 	C 	0.52952	0.3956	0.69114	0.052
Mof_C 	C 	0.5484	0.61602	0.49798	0.366
Mof_C 	C 	0.49941	0.44647	0.77789	-0.259
Mof_C 	C 	0.45819	0.49063	0.75841	-0.238
Mof_C 	C 	0.54788	0.57928	0.55348	0.17
Mof_C 	C 	0.05162	0.04454	0.32538	-0.282
Mof_C 	C 	0.91719	0.04169	0.40537	0.061
Mof_C 	C 	0.98754	0.967	0.24316	-0.175
Mof_C 	C 	0.08552	0.04588	0.34432	-0.21
Mof_C 	C 	0.94681	0.03585	0.38203	-0.101
Mof_C 	C 	0.97335	0.03939	0.38349	0.263
Mof_C 	C 	0.02878	0.03996	0.35564	0.256
Mof_C 	C 	0.9249	0.02264	0.35942	-0.098
Mof_C 	C 	0.96223	0.98377	0.29765	0.247
Mof_C 	C 	0.0633	0.0408	0.374	0.172
Mof_C 	C 	0.00389	0.95009	0.26461	0.129
Mof_C 	C 	0.95913	0.99113	0.24907	0.149
Mof_C 	C 	0.00279	0.96055	0.21143	0.356
Mof_C 	C 	0.95099	0.02613	0.35831	0.027
Mof_C 	C 	0.92512	0.0149	0.33476	0.258
Mof_C 	C 	0.03464	0.03816	0.38072	-0.263
Mof_C 	C 	0.8956	0.02952	0.38374	0.052
Mof_C 	C 	0.11602	0.0484	0.3376	0.366
Mof_C 	C 	0.94647	0.99941	0.27623	-0.259
Mof_C 	C 	0.99063	0.95819	0.29277	-0.238
Mof_C 	C 	0.07928	0.04788	0.31936	0.17
Mof_C 	C 	0.82538	0.57846	0.55162	-0.282
Mof_C 	C 	0.90537	0.63575	0.41719	0.061
Mof_C 	C 	0.74316	0.8023	0.48754	-0.176
Mof_C 	C 	0.84432	0.52428	0.58552	-0.21
Mof_C 	C 	0.88203	0.63531	0.44681	-0.101
Mof_C 	C 	0.88349	0.60377	0.47335	0.263
Mof_C 	C 	0.85564	0.57562	0.52878	0.256
Mof_C 	C 	0.85942	0.69304	0.4249	-0.098
Mof_C 	C 	0.79765	0.75635	0.46223	0.247
Mof_C 	C 	0.874	0.5219	0.5633	0.172
Mof_C 	C 	0.76461	0.78141	0.50389	0.129
Mof_C 	C 	0.74907	0.80067	0.45913	0.149
Mof_C 	C 	0.71143	0.82523	0.50279	0.356
Mof_C 	C 	0.85831	0.66457	0.45099	0.028
Mof_C 	C 	0.83476	0.72522	0.42512	0.259
Mof_C 	C 	0.88072	0.54648	0.53464	-0.263
Mof_C 	C 	0.88374	0.69114	0.3956	0.052
Mof_C 	C 	0.8376	0.49798	0.61602	0.366
Mof_C 	C 	0.77623	0.77789	0.44647	-0.259
Mof_C 	C 	0.79277	0.75841	0.49063	-0.238
Mof_C 	C 	0.81936	0.55348	0.57928	0.17
Mof_C 	C 	0.07846	0.32538	0.04454	-0.282
Mof_C 	C 	0.13575	0.40537	0.04169	0.061
Mof_C 	C 	0.3023	0.24316	0.967	-0.176
Mof_C 	C 	0.02428	0.34432	0.04588	-0.21
Mof_C 	C 	0.13531	0.38203	0.03585	-0.101
Mof_C 	C 	0.10377	0.38349	0.03939	0.263
Mof_C 	C 	0.07562	0.35564	0.03996	0.256
Mof_C 	C 	0.19304	0.35942	0.02264	-0.098
Mof_C 	C 	0.25635	0.29765	0.98377	0.247
Mof_C 	C 	0.0219	0.374	0.0408	0.172
Mof_C 	C 	0.28141	0.26461	0.95009	0.129
Mof_C 	C 	0.30067	0.24907	0.99113	0.149
Mof_C 	C 	0.32523	0.21143	0.96055	0.356
Mof_C 	C 	0.16457	0.35831	0.02613	0.028
Mof_C 	C 	0.22522	0.33476	0.0149	0.259
Mof_C 	C 	0.04648	0.38072	0.03816	-0.263
Mof_C 	C 	0.19114	0.38374	0.02952	0.052
Mof_C 	C 	0.99798	0.3376	0.0484	0.365
Mof_C 	C 	0.27789	0.27623	0.99941	-0.259
Mof_C 	C 	0.25841	0.29277	0.95819	-0.238
Mof_C 	C 	0.05348	0.31936	0.04788	0.17
Mof_C 	C 	0.07846	0.55162	0.32538	-0.282
Mof_C 	C 	0.13575	0.41719	0.40537	0.061
Mof_C 	C 	0.3023	0.48754	0.24316	-0.176
Mof_C 	C 	0.02428	0.58552	0.34432	-0.21
Mof_C 	C 	0.13531	0.44681	0.38203	-0.101
Mof_C 	C 	0.10377	0.47335	0.38349	0.263
Mof_C 	C 	0.07562	0.52878	0.35564	0.256
Mof_C 	C 	0.19304	0.4249	0.35942	-0.098
Mof_C 	C 	0.25635	0.46223	0.29765	0.247
Mof_C 	C 	0.0219	0.5633	0.374	0.172
Mof_C 	C 	0.28141	0.50389	0.26461	0.129
Mof_C 	C 	0.30067	0.45913	0.24907	0.149
Mof_C 	C 	0.32523	0.50279	0.21143	0.356
Mof_C 	C 	0.16457	0.45099	0.35831	0.028
Mof_C 	C 	0.22522	0.42512	0.33476	0.259
Mof_C 	C 	0.04648	0.53464	0.38072	-0.263
Mof_C 	C 	0.19114	0.3956	0.38374	0.052
Mof_C 	C 	0.99798	0.61602	0.3376	0.366
Mof_C 	C 	0.27789	0.44647	0.27623	-0.259
Mof_C 	C 	0.25841	0.49063	0.29277	-0.238
Mof_C 	C 	0.05348	0.57928	0.31936	0.17
Mof_C 	C 	0.82538	0.04454	0.57846	-0.282
Mof_C 	C 	0.90537	0.04169	0.63575	0.061
Mof_C 	C 	0.74316	0.967	0.8023	-0.176
Mof_C 	C 	0.84432	0.04588	0.52428	-0.21
Mof_C 	C 	0.88203	0.03585	0.63531	-0.101
Mof_C 	C 	0.88349	0.03939	0.60377	0.263
Mof_C 	C 	0.85564	0.03996	0.57562	0.256
Mof_C 	C 	0.85942	0.02264	0.69304	-0.098
Mof_C 	C 	0.79765	0.98377	0.75635	0.247
Mof_C 	C 	0.874	0.0408	0.5219	0.172
Mof_C 	C 	0.76461	0.95009	0.78141	0.129
Mof_C 	C 	0.74907	0.99113	0.80067	0.149
Mof_C 	C 	0.71143	0.96055	0.82523	0.356
Mof_C 	C 	0.85831	0.02613	0.66457	0.027
Mof_C 	C 	0.83476	0.0149	0.72522	0.259
Mof_C 	C 	0.88072	0.03816	0.54648	-0.263
Mof_C 	C 	0.88374	0.02952	0.69114	0.052
Mof_C 	C 	0.8376	0.0484	0.49798	0.366
Mof_C 	C 	0.77623	0.99941	0.77789	-0.259
Mof_C 	C 	0.79277	0.95819	0.75841	-0.238
Mof_C 	C 	0.81936	0.04788	0.55348	0.17
Mof_C 	C 	0.05162	0.57846	0.04454	-0.282
Mof_C 	C 	0.91719	0.63575	0.04169	0.061
Mof_C 	C 	0.98754	0.8023	0.967	-0.175
Mof_C 	C 	0.08552	0.52428	0.04588	-0.21
Mof_C 	C 	0.94681	0.63531	0.03585	-0.101
Mof_C 	C 	0.97335	0.60377	0.03939	0.263
Mof_C 	C 	0.02878	0.57562	0.03996	0.256
Mof_C 	C 	0.9249	0.69304	0.02264	-0.098
Mof_C 	C 	0.96223	0.75635	0.98377	0.247
Mof_C 	C 	0.0633	0.5219	0.0408	0.172
Mof_C 	C 	0.00389	0.78141	0.95009	0.128
Mof_C 	C 	0.95913	0.80067	0.99113	0.149
Mof_C 	C 	0.00279	0.82523	0.96055	0.355
Mof_C 	C 	0.95099	0.66457	0.02613	0.027
Mof_C 	C 	0.92512	0.72522	0.0149	0.258
Mof_C 	C 	0.03464	0.54648	0.03816	-0.263
Mof_C 	C 	0.8956	0.69114	0.02952	0.052
Mof_C 	C 	0.11602	0.49798	0.0484	0.366
Mof_C 	C 	0.94647	0.77789	0.99941	-0.259
Mof_C 	C 	0.99063	0.75841	0.95819	-0.237
Mof_C 	C 	0.07928	0.55348	0.04788	0.17
Mof_C 	C 	0.54454	0.32538	0.55162	-0.282
Mof_C 	C 	0.54169	0.40537	0.41719	0.061
Mof_C 	C 	0.467	0.24316	0.48754	-0.176
Mof_C 	C 	0.54588	0.34432	0.58552	-0.21
Mof_C 	C 	0.53585	0.38203	0.44681	-0.101
Mof_C 	C 	0.53939	0.38349	0.47335	0.263
Mof_C 	C 	0.53996	0.35564	0.52878	0.256
Mof_C 	C 	0.52264	0.35942	0.4249	-0.098
Mof_C 	C 	0.48377	0.29765	0.46223	0.247
Mof_C 	C 	0.5408	0.374	0.5633	0.172
Mof_C 	C 	0.45009	0.26461	0.50389	0.129
Mof_C 	C 	0.49113	0.24907	0.45913	0.149
Mof_C 	C 	0.46055	0.21143	0.50279	0.356
Mof_C 	C 	0.52613	0.35831	0.45099	0.028
Mof_C 	C 	0.5149	0.33476	0.42512	0.259
Mof_C 	C 	0.53816	0.38072	0.53464	-0.263
Mof_C 	C 	0.52952	0.38374	0.3956	0.052
Mof_C 	C 	0.5484	0.3376	0.61602	0.366
Mof_C 	C 	0.49941	0.27623	0.44647	-0.259
Mof_C 	C 	0.45819	0.29277	0.49063	-0.238
Mof_C 	C 	0.54788	0.31936	0.57928	0.17
Mof_C 	C 	0.82538	0.55162	0.04454	-0.282
Mof_C 	C 	0.90537	0.41719	0.04169	0.061
Mof_C 	C 	0.74316	0.48754	0.967	-0.176
Mof_C 	C 	0.84432	0.58552	0.04588	-0.21
Mof_C 	C 	0.88203	0.44681	0.03585	-0.101
Mof_C 	C 	0.88349	0.47335	0.03939	0.263
Mof_C 	C 	0.85564	0.52878	0.03996	0.256
Mof_C 	C 	0.85942	0.4249	0.02264	-0.098
Mof_C 	C 	0.79765	0.46223	0.98377	0.247
Mof_C 	C 	0.874	0.5633	0.0408	0.172
Mof_C 	C 	0.76461	0.50389	0.95009	0.129
Mof_C 	C 	0.74907	0.45913	0.99113	0.149
Mof_C 	C 	0.71143	0.50279	0.96055	0.356
Mof_C 	C 	0.85831	0.45099	0.02613	0.027
Mof_C 	C 	0.83476	0.42512	0.0149	0.259
Mof_C 	C 	0.88072	0.53464	0.03816	-0.263
Mof_C 	C 	0.88374	0.3956	0.02952	0.052
Mof_C 	C 	0.8376	0.61602	0.0484	0.366
Mof_C 	C 	0.77623	0.44647	0.99941	-0.259
Mof_C 	C 	0.79277	0.49063	0.95819	-0.238
Mof_C 	C 	0.81936	0.57928	0.04788	0.17
Mof_C 	C 	0.07846	0.04454	0.55162	-0.282
Mof_C 	C 	0.13575	0.04169	0.41719	0.061
Mof_C 	C 	0.3023	0.967	0.48754	-0.176
Mof_C 	C 	0.02428	0.04588	0.58552	-0.21
Mof_C 	C 	0.13531	0.03585	0.44681	-0.101
Mof_C 	C 	0.10377	0.03939	0.47335	0.263
Mof_C 	C 	0.07562	0.03996	0.52878	0.256
Mof_C 	C 	0.19304	0.02264	0.4249	-0.098
Mof_C 	C 	0.25635	0.98377	0.46223	0.247
Mof_C 	C 	0.0219	0.0408	0.5633	0.172
Mof_C 	C 	0.28141	0.95009	0.50389	0.129
Mof_C 	C 	0.30067	0.99113	0.45913	0.149
Mof_C 	C 	0.32523	0.96055	0.50279	0.356
Mof_C 	C 	0.16457	0.02613	0.45099	0.028
Mof_C 	C 	0.22522	0.0149	0.42512	0.259
Mof_C 	C 	0.04648	0.03816	0.53464	-0.263
Mof_C 	C 	0.19114	0.02952	0.3956	0.052
Mof_C 	C 	0.99798	0.0484	0.61602	0.366
Mof_C 	C 	0.27789	0.99941	0.44647	-0.259
Mof_C 	C 	0.25841	0.95819	0.49063	-0.238
Mof_C 	C 	0.05348	0.04788	0.57928	0.17
Mof_C 	C 	0.54454	0.57846	0.32538	-0.282
Mof_C 	C 	0.54169	0.63575	0.40537	0.061
Mof_C 	C 	0.467	0.8023	0.24316	-0.176
Mof_C 	C 	0.54588	0.52428	0.34432	-0.21
Mof_C 	C 	0.53585	0.63531	0.38203	-0.101
Mof_C 	C 	0.53939	0.60377	0.38349	0.263
Mof_C 	C 	0.53996	0.57562	0.35564	0.256
Mof_C 	C 	0.52264	0.69304	0.35942	-0.098
Mof_C 	C 	0.48377	0.75635	0.29765	0.247
Mof_C 	C 	0.5408	0.5219	0.374	0.172
Mof_C 	C 	0.45009	0.78141	0.26461	0.129
Mof_C 	C 	0.49113	0.80067	0.24907	0.149
Mof_C 	C 	0.46055	0.82523	0.21143	0.356
Mof_C 	C 	0.52613	0.66457	0.35831	0.028
Mof_C 	C 	0.5149	0.72522	0.33476	0.259
Mof_C 	C 	0.53816	0.54648	0.38072	-0.263
Mof_C 	C 	0.52952	0.69114	0.38374	0.052
Mof_C 	C 	0.5484	0.49798	0.3376	0.366
Mof_C 	C 	0.49941	0.77789	0.27623	-0.259
Mof_C 	C 	0.45819	0.75841	0.29277	-0.238
Mof_C 	C 	0.54788	0.55348	0.31936	0.17
Mof_C 	C 	0.05162	0.32538	0.57846	-0.282
Mof_C 	C 	0.91719	0.40537	0.63575	0.061
Mof_C 	C 	0.98754	0.24316	0.8023	-0.176
Mof_C 	C 	0.08552	0.34432	0.52428	-0.21
Mof_C 	C 	0.94681	0.38203	0.63531	-0.101
Mof_C 	C 	0.97335	0.38349	0.60377	0.263
Mof_C 	C 	0.02878	0.35564	0.57562	0.256
Mof_C 	C 	0.9249	0.35942	0.69304	-0.098
Mof_C 	C 	0.96223	0.29765	0.75635	0.247
Mof_C 	C 	0.0633	0.374	0.5219	0.172
Mof_C 	C 	0.00389	0.26461	0.78141	0.129
Mof_C 	C 	0.95913	0.24907	0.80067	0.149
Mof_C 	C 	0.00279	0.21143	0.82523	0.356
Mof_C 	C 	0.95099	0.35831	0.66457	0.028
Mof_C 	C 	0.92512	0.33476	0.72522	0.259
Mof_C 	C 	0.03464	0.38072	0.54648	-0.263
Mof_C 	C 	0.8956	0.38374	0.69114	0.052
Mof_C 	C 	0.11602	0.3376	0.49798	0.366
Mof_C 	C 	0.94647	0.27623	0.77789	-0.259
Mof_C 	C 	0.99063	0.29277	0.75841	-0.238
Mof_C 	C 	0.07928	0.31936	0.55348	0.17
Mof_N 	N 	0.39149	0.53851	0.16293	-0.264
Mof_N 	N 	0.5012	0.53638	0.10276	-0.284
Mof_N 	N 	0.45306	0.49272	0.23022	-0.278
Mof_N 	N 	0.03851	0.89149	0.90707	-0.264
Mof_N 	N 	0.03638	0.0012	0.85966	-0.284
Mof_N 	N 	0.99272	0.95306	0.824	-0.278
Mof_N 	N 	0.66293	0.90707	0.89149	-0.264
Mof_N 	N 	0.60276	0.85966	0.0012	-0.284
Mof_N 	N 	0.73022	0.824	0.95306	-0.278
Mof_N 	N 	0.40707	0.16293	0.53851	-0.264
Mof_N 	N 	0.35966	0.10276	0.53638	-0.284
Mof_N 	N 	0.324	0.23022	0.49272	-0.278
Mof_N 	N 	0.39149	0.16293	0.90707	-0.264
Mof_N 	N 	0.5012	0.10276	0.85966	-0.284
Mof_N 	N 	0.45306	0.23022	0.824	-0.278
Mof_N 	N 	0.03851	0.90707	0.16293	-0.264
Mof_N 	N 	0.03638	0.85966	0.10276	-0.284
Mof_N 	N 	0.99272	0.824	0.23022	-0.278
Mof_N 	N 	0.66293	0.89149	0.53851	-0.264
Mof_N 	N 	0.60276	0.0012	0.53638	-0.284
Mof_N 	N 	0.73022	0.95306	0.49272	-0.278
Mof_N 	N 	0.40707	0.53851	0.89149	-0.264
Mof_N 	N 	0.35966	0.53638	0.0012	-0.284
Mof_N 	N 	0.324	0.49272	0.95306	-0.278
Mof_N 	N 	0.39149	0.90707	0.53851	-0.264
Mof_N 	N 	0.5012	0.85966	0.53638	-0.284
Mof_N 	N 	0.45306	0.824	0.49272	-0.278
Mof_N 	N 	0.03851	0.16293	0.89149	-0.264
Mof_N 	N 	0.03638	0.10276	0.0012	-0.284
Mof_N 	N 	0.99272	0.23022	0.95306	-0.278
Mof_N 	N 	0.66293	0.53851	0.90707	-0.264
Mof_N 	N 	0.60276	0.53638	0.85966	-0.284
Mof_N 	N 	0.73022	0.49272	0.824	-0.278
Mof_N 	N 	0.40707	0.89149	0.16293	-0.264
Mof_N 	N 	0.35966	0.0012	0.10276	-0.284
Mof_N 	N 	0.324	0.95306	0.23022	-0.278
Mof_N 	N 	0.53851	0.39149	0.66293	-0.264
Mof_N 	N 	0.53638	0.5012	0.60276	-0.284
Mof_N 	N 	0.49272	0.45306	0.73022	-0.278
Mof_N 	N 	0.89149	0.03851	0.40707	-0.264
Mof_N 	N 	0.0012	0.03638	0.35966	-0.284
Mof_N 	N 	0.95306	0.99272	0.324	-0.278
Mof_N 	N 	0.90707	0.66293	0.39149	-0.264
Mof_N 	N 	0.85966	0.60276	0.5012	-0.284
Mof_N 	N 	0.824	0.73022	0.45306	-0.278
Mof_N 	N 	0.16293	0.40707	0.03851	-0.264
Mof_N 	N 	0.10276	0.35966	0.03638	-0.284
Mof_N 	N 	0.23022	0.324	0.99272	-0.278
Mof_N 	N 	0.16293	0.39149	0.40707	-0.264
Mof_N 	N 	0.10276	0.5012	0.35966	-0.284
Mof_N 	N 	0.23022	0.45306	0.324	-0.278
Mof_N 	N 	0.90707	0.03851	0.66293	-0.264
Mof_N 	N 	0.85966	0.03638	0.60276	-0.284
Mof_N 	N 	0.824	0.99272	0.73022	-0.278
Mof_N 	N 	0.89149	0.66293	0.03851	-0.264
Mof_N 	N 	0.0012	0.60276	0.03638	-0.284
Mof_N 	N 	0.95306	0.73022	0.99272	-0.278
Mof_N 	N 	0.53851	0.40707	0.39149	-0.264
Mof_N 	N 	0.53638	0.35966	0.5012	-0.284
Mof_N 	N 	0.49272	0.324	0.45306	-0.278
Mof_N 	N 	0.90707	0.39149	0.03851	-0.264
Mof_N 	N 	0.85966	0.5012	0.03638	-0.284
Mof_N 	N 	0.824	0.45306	0.99272	-0.278
Mof_N 	N 	0.16293	0.03851	0.39149	-0.264
Mof_N 	N 	0.10276	0.03638	0.5012	-0.284
Mof_N 	N 	0.23022	0.99272	0.45306	-0.278
Mof_N 	N 	0.53851	0.66293	0.40707	-0.264
Mof_N 	N 	0.53638	0.60276	0.35966	-0.284
Mof_N 	N 	0.49272	0.73022	0.324	-0.278
Mof_N 	N 	0.89149	0.40707	0.66293	-0.264
Mof_N 	N 	0.0012	0.35966	0.60276	-0.284
Mof_N 	N 	0.95306	0.324	0.73022	-0.278
Mof_O 	O 	0.46755	0.54639	0.08015	-0.244
Mof_O 	O 	0.40228	0.52744	0.24444	-0.25
Mof_O 	O 	0.53087	0.43957	0.32281	-0.486
Mof_O 	O 	0.48775	0.47649	0.34371	-0.346
Mof_O 	O 	0.63834	0.54928	0.0019	-0.355
Mof_O 	O 	0.61978	0.54802	0.97162	-0.477
Mof_O 	O 	0.04639	0.96755	0.90591	-0.244
Mof_O 	O 	0.02744	0.90228	0.82584	-0.25
Mof_O 	O 	0.93957	0.03087	0.70675	-0.486
Mof_O 	O 	0.97649	0.98775	0.69205	-0.346
Mof_O 	O 	0.04928	0.13834	0.81048	-0.355
Mof_O 	O 	0.04802	0.11978	0.86058	-0.477
Mof_O 	O 	0.58015	0.90591	0.96755	-0.244
Mof_O 	O 	0.74444	0.82584	0.90228	-0.25
Mof_O 	O 	0.82281	0.70675	0.03087	-0.486
Mof_O 	O 	0.84371	0.69205	0.98775	-0.346
Mof_O 	O 	0.5019	0.81048	0.13834	-0.355
Mof_O 	O 	0.47162	0.86058	0.11978	-0.477
Mof_O 	O 	0.40591	0.08015	0.54639	-0.244
Mof_O 	O 	0.32584	0.24444	0.52744	-0.25
Mof_O 	O 	0.20675	0.32281	0.43957	-0.486
Mof_O 	O 	0.19205	0.34371	0.47649	-0.346
Mof_O 	O 	0.31048	0.0019	0.54928	-0.354
Mof_O 	O 	0.36058	0.97162	0.54802	-0.477
Mof_O 	O 	0.46755	0.08015	0.90591	-0.244
Mof_O 	O 	0.40228	0.24444	0.82584	-0.25
Mof_O 	O 	0.53087	0.32281	0.70675	-0.486
Mof_O 	O 	0.48775	0.34371	0.69205	-0.346
Mof_O 	O 	0.63834	0.0019	0.81048	-0.355
Mof_O 	O 	0.61978	0.97162	0.86058	-0.477
Mof_O 	O 	0.04639	0.90591	0.08015	-0.244
Mof_O 	O 	0.02744	0.82584	0.24444	-0.25
Mof_O 	O 	0.93957	0.70675	0.32281	-0.486
Mof_O 	O 	0.97649	0.69205	0.34371	-0.346
Mof_O 	O 	0.04928	0.81048	0.0019	-0.354
Mof_O 	O 	0.04802	0.86058	0.97162	-0.477
Mof_O 	O 	0.58015	0.96755	0.54639	-0.244
Mof_O 	O 	0.74444	0.90228	0.52744	-0.25
Mof_O 	O 	0.82281	0.03087	0.43957	-0.486
Mof_O 	O 	0.84371	0.98775	0.47649	-0.346
Mof_O 	O 	0.5019	0.13834	0.54928	-0.355
Mof_O 	O 	0.47162	0.11978	0.54802	-0.477
Mof_O 	O 	0.40591	0.54639	0.96755	-0.244
Mof_O 	O 	0.32584	0.52744	0.90228	-0.25
Mof_O 	O 	0.20675	0.43957	0.03087	-0.486
Mof_O 	O 	0.19205	0.47649	0.98775	-0.347
Mof_O 	O 	0.31048	0.54928	0.13834	-0.355
Mof_O 	O 	0.36058	0.54802	0.11978	-0.477
Mof_O 	O 	0.46755	0.90591	0.54639	-0.244
Mof_O 	O 	0.40228	0.82584	0.52744	-0.25
Mof_O 	O 	0.53087	0.70675	0.43957	-0.486
Mof_O 	O 	0.48775	0.69205	0.47649	-0.346
Mof_O 	O 	0.63834	0.81048	0.54928	-0.355
Mof_O 	O 	0.61978	0.86058	0.54802	-0.477
Mof_O 	O 	0.04639	0.08015	0.96755	-0.244
Mof_O 	O 	0.02744	0.24444	0.90228	-0.25
Mof_O 	O 	0.93957	0.32281	0.03087	-0.486
Mof_O 	O 	0.97649	0.34371	0.98775	-0.346
Mof_O 	O 	0.04928	0.0019	0.13834	-0.354
Mof_O 	O 	0.04802	0.97162	0.11978	-0.477
Mof_O 	O 	0.58015	0.54639	0.90591	-0.244
Mof_O 	O 	0.74444	0.52744	0.82584	-0.25
Mof_O 	O 	0.82281	0.43957	0.70675	-0.486
Mof_O 	O 	0.84371	0.47649	0.69205	-0.346
Mof_O 	O 	0.5019	0.54928	0.81048	-0.355
Mof_O 	O 	0.47162	0.54802	0.86058	-0.477
Mof_O 	O 	0.40591	0.96755	0.08015	-0.244
Mof_O 	O 	0.32584	0.90228	0.24444	-0.25
Mof_O 	O 	0.20675	0.03087	0.32281	-0.486
Mof_O 	O 	0.19205	0.98775	0.34371	-0.347
Mof_O 	O 	0.31048	0.13834	0.0019	-0.354
Mof_O 	O 	0.36058	0.11978	0.97162	-0.477
Mof_O 	O 	0.54639	0.46755	0.58015	-0.244
Mof_O 	O 	0.52744	0.40228	0.74444	-0.25
Mof_O 	O 	0.43957	0.53087	0.82281	-0.486
Mof_O 	O 	0.47649	0.48775	0.84371	-0.346
Mof_O 	O 	0.54928	0.63834	0.5019	-0.355
Mof_O 	O 	0.54802	0.61978	0.47162	-0.477
Mof_O 	O 	0.96755	0.04639	0.40591	-0.244
Mof_O 	O 	0.90228	0.02744	0.32584	-0.25
Mof_O 	O 	0.03087	0.93957	0.20675	-0.486
Mof_O 	O 	0.98775	0.97649	0.19205	-0.346
Mof_O 	O 	0.13834	0.04928	0.31048	-0.355
Mof_O 	O 	0.11978	0.04802	0.36058	-0.477
Mof_O 	O 	0.90591	0.58015	0.46755	-0.244
Mof_O 	O 	0.82584	0.74444	0.40228	-0.25
Mof_O 	O 	0.70675	0.82281	0.53087	-0.486
Mof_O 	O 	0.69205	0.84371	0.48775	-0.346
Mof_O 	O 	0.81048	0.5019	0.63834	-0.355
Mof_O 	O 	0.86058	0.47162	0.61978	-0.477
Mof_O 	O 	0.08015	0.40591	0.04639	-0.244
Mof_O 	O 	0.24444	0.32584	0.02744	-0.25
Mof_O 	O 	0.32281	0.20675	0.93957	-0.486
Mof_O 	O 	0.34371	0.19205	0.97649	-0.347
Mof_O 	O 	0.0019	0.31048	0.04928	-0.354
Mof_O 	O 	0.97162	0.36058	0.04802	-0.477
Mof_O 	O 	0.08015	0.46755	0.40591	-0.244
Mof_O 	O 	0.24444	0.40228	0.32584	-0.25
Mof_O 	O 	0.32281	0.53087	0.20675	-0.486
Mof_O 	O 	0.34371	0.48775	0.19205	-0.346
Mof_O 	O 	0.0019	0.63834	0.31048	-0.355
Mof_O 	O 	0.97162	0.61978	0.36058	-0.477
Mof_O 	O 	0.90591	0.04639	0.58015	-0.244
Mof_O 	O 	0.82584	0.02744	0.74444	-0.25
Mof_O 	O 	0.70675	0.93957	0.82281	-0.486
Mof_O 	O 	0.69205	0.97649	0.84371	-0.346
Mof_O 	O 	0.81048	0.04928	0.5019	-0.355
Mof_O 	O 	0.86058	0.04802	0.47162	-0.477
Mof_O 	O 	0.96755	0.58015	0.04639	-0.244
Mof_O 	O 	0.90228	0.74444	0.02744	-0.25
Mof_O 	O 	0.03087	0.82281	0.93957	-0.486
Mof_O 	O 	0.98775	0.84371	0.97649	-0.346
Mof_O 	O 	0.13834	0.5019	0.04928	-0.355
Mof_O 	O 	0.11978	0.47162	0.04802	-0.477
Mof_O 	O 	0.54639	0.40591	0.46755	-0.244
Mof_O 	O 	0.52744	0.32584	0.40228	-0.25
Mof_O 	O 	0.43957	0.20675	0.53087	-0.486
Mof_O 	O 	0.47649	0.19205	0.48775	-0.346
Mof_O 	O 	0.54928	0.31048	0.63834	-0.355
Mof_O 	O 	0.54802	0.36058	0.61978	-0.477
Mof_O 	O 	0.90591	0.46755	0.04639	-0.244
Mof_O 	O 	0.82584	0.40228	0.02744	-0.25
Mof_O 	O 	0.70675	0.53087	0.93957	-0.486
Mof_O 	O 	0.69205	0.48775	0.97649	-0.346
Mof_O 	O 	0.81048	0.63834	0.04928	-0.355
Mof_O 	O 	0.86058	0.61978	0.04802	-0.477
Mof_O 	O 	0.08015	0.04639	0.46755	-0.244
Mof_O 	O 	0.24444	0.02744	0.40228	-0.25
Mof_O 	O 	0.32281	0.93957	0.53087	-0.486
Mof_O 	O 	0.34371	0.97649	0.48775	-0.347
Mof_O 	O 	0.0019	0.04928	0.63834	-0.354
Mof_O 	O 	0.97162	0.04802	0.61978	-0.477
Mof_O 	O 	0.54639	0.58015	0.40591	-0.244
Mof_O 	O 	0.52744	0.74444	0.32584	-0.25
Mof_O 	O 	0.43957	0.82281	0.20675	-0.486
Mof_O 	O 	0.47649	0.84371	0.19205	-0.346
Mof_O 	O 	0.54928	0.5019	0.31048	-0.355
Mof_O 	O 	0.54802	0.47162	0.36058	-0.477
Mof_O 	O 	0.96755	0.40591	0.58015	-0.244
Mof_O 	O 	0.90228	0.32584	0.74444	-0.25
Mof_O 	O 	0.03087	0.20675	0.82281	-0.486
Mof_O 	O 	0.98775	0.19205	0.84371	-0.346
Mof_O 	O 	0.13834	0.31048	0.5019	-0.355
Mof_O 	O 	0.11978	0.36058	0.47162	-0.477
Mof_Zn	Zn	0.45101	0.65281	0.33747	1.189
Mof_Zn	Zn	0.15281	0.95101	0.55871	1.189
Mof_Zn	Zn	0.05871	0.33747	0.65281	1.189
Mof_Zn	Zn	0.83747	0.55871	0.95101	1.189
Mof_Zn	Zn	0.83747	0.65281	0.55871	1.189
Mof_Zn	Zn	0.05871	0.95101	0.33747	1.189
Mof_Zn	Zn	0.15281	0.33747	0.95101	1.189
Mof_Zn	Zn	0.45101	0.55871	0.65281	1.189
Mof_Zn	Zn	0.05871	0.65281	0.95101	1.189
Mof_Zn	Zn	0.83747	0.95101	0.65281	1.189
Mof_Zn	Zn	0.45101	0.33747	0.55871	1.189
Mof_Zn	Zn	0.15281	0.55871	0.33747	1.189
Mof_Zn	Zn	0.65281	0.45101	0.83747	1.189
Mof_Zn	Zn	0.95101	0.15281	0.05871	1.189
Mof_Zn	Zn	0.33747	0.05871	0.15281	1.189
Mof_Zn	Zn	0.55871	0.83747	0.45101	1.189
Mof_Zn	Zn	0.65281	0.83747	0.05871	1.189
Mof_Zn	Zn	0.95101	0.05871	0.83747	1.189
Mof_Zn	Zn	0.33747	0.15281	0.45101	1.189
Mof_Zn	Zn	0.55871	0.45101	0.15281	1.189
Mof_Zn	Zn	0.65281	0.05871	0.45101	1.189
Mof_Zn	Zn	0.95101	0.83747	0.15281	1.189
Mof_Zn	Zn	0.33747	0.45101	0.05871	1.189
Mof_Zn	Zn	0.55871	0.15281	0.83747	1.189
Mof_H 	H 	0.4547	0.4519	0.4021	0.139
Mof_H 	H 	0.4519	0.5853	0.3837	0.017
Mof_H 	H 	0.461	0.4326	0.4972	-0.004
Mof_H 	H 	0.5664	0.4766	0.2178	-0.001
Mof_H 	H 	0.4977	0.5521	0.1849	-0.006
Mof_H 	H 	0.4779	0.5291	0.3351	0.032
Mof_H 	H 	0.4648	0.4804	0.4562	0.153
Mof_H 	H 	0.4721	0.6221	0.2899	0.006
Mof_H 	H 	0.484	0.5732	0.2226	0.147
Mof_H 	H 	0.5537	0.4989	0.2553	0.118
Mof_H 	H 	0.4484	0.406	0.4442	-0.015
Mof_H 	H 	0.4683	0.4975	0.3791	0.162
Mof_H 	H 	0.5168	0.5336	0.2838	0.168
Mof_H 	H 	0.9519	0.9547	0.6913	0.139
Mof_H 	H 	0.0853	0.9519	0.5791	0.017
Mof_H 	H 	0.9326	0.961	0.6092	-0.003
Mof_H 	H 	0.9766	0.0664	0.7392	-0.001
Mof_H 	H 	0.0521	0.9977	0.7653	-0.006
Mof_H 	H 	0.0291	0.9779	0.6579	0.032
Mof_H 	H 	0.9804	0.9648	0.5986	0.153
Mof_H 	H 	0.1221	0.9721	0.6159	0.006
Mof_H 	H 	0.0732	0.984	0.7202	0.146
Mof_H 	H 	0.9989	0.0537	0.6921	0.117
Mof_H 	H 	0.906	0.9484	0.7014	-0.015
Mof_H 	H 	0.9975	0.9683	0.6551	0.162
Mof_H 	H 	0.0336	0.0168	0.6658	0.168
Mof_H 	H 	0.1913	0.4021	0.4519	0.139
Mof_H 	H 	0.0791	0.3837	0.5853	0.017
Mof_H 	H 	0.1092	0.4972	0.4326	-0.004
Mof_H 	H 	0.2392	0.2178	0.4766	-0.001
Mof_H 	H 	0.2653	0.1849	0.5521	-0.006
Mof_H 	H 	0.1579	0.3351	0.5291	0.032
Mof_H 	H 	0.0986	0.4562	0.4804	0.153
Mof_H 	H 	0.1159	0.2899	0.6221	0.006
Mof_H 	H 	0.2202	0.2226	0.5732	0.147
Mof_H 	H 	0.1921	0.2553	0.4989	0.118
Mof_H 	H 	0.2014	0.4442	0.406	-0.015
Mof_H 	H 	0.1551	0.3791	0.4975	0.162
Mof_H 	H 	0.1658	0.2838	0.5336	0.168
Mof_H 	H 	0.9021	0.6913	0.9547	0.139
Mof_H 	H 	0.8837	0.5791	0.9519	0.017
Mof_H 	H 	0.9972	0.6092	0.961	-0.003
Mof_H 	H 	0.7178	0.7392	0.0664	-0.001
Mof_H 	H 	0.6849	0.7653	0.9977	-0.006
Mof_H 	H 	0.8351	0.6579	0.9779	0.032
Mof_H 	H 	0.9562	0.5986	0.9648	0.153
Mof_H 	H 	0.7899	0.6159	0.9721	0.006
Mof_H 	H 	0.7226	0.7202	0.984	0.147
Mof_H 	H 	0.7553	0.6921	0.0537	0.118
Mof_H 	H 	0.9442	0.7014	0.9484	-0.015
Mof_H 	H 	0.8791	0.6551	0.9683	0.162
Mof_H 	H 	0.7838	0.6658	0.0168	0.168
Mof_H 	H 	0.9021	0.4519	0.6913	0.139
Mof_H 	H 	0.8837	0.5853	0.5791	0.017
Mof_H 	H 	0.9972	0.4326	0.6092	-0.004
Mof_H 	H 	0.7178	0.4766	0.7392	-0.001
Mof_H 	H 	0.6849	0.5521	0.7653	-0.006
Mof_H 	H 	0.8351	0.5291	0.6579	0.032
Mof_H 	H 	0.9562	0.4804	0.5986	0.153
Mof_H 	H 	0.7899	0.6221	0.6159	0.006
Mof_H 	H 	0.7226	0.5732	0.7202	0.147
Mof_H 	H 	0.7553	0.4989	0.6921	0.118
Mof_H 	H 	0.9442	0.406	0.7014	-0.015
Mof_H 	H 	0.8791	0.4975	0.6551	0.162
Mof_H 	H 	0.7838	0.5336	0.6658	0.168
Mof_H 	H 	0.1913	0.9547	0.4021	0.139
Mof_H 	H 	0.0791	0.9519	0.3837	0.017
Mof_H 	H 	0.1092	0.961	0.4972	-0.004
Mof_H 	H 	0.2392	0.0664	0.2178	-0.001
Mof_H 	H 	0.2653	0.9977	0.1849	-0.006
Mof_H 	H 	0.1579	0.9779	0.3351	0.032
Mof_H 	H 	0.0986	0.9648	0.4562	0.153
Mof_H 	H 	0.1159	0.9721	0.2899	0.006
Mof_H 	H 	0.2202	0.984	0.2226	0.147
Mof_H 	H 	0.1921	0.0537	0.2553	0.118
Mof_H 	H 	0.2014	0.9484	0.4442	-0.015
Mof_H 	H 	0.1551	0.9683	0.3791	0.162
Mof_H 	H 	0.1658	0.0168	0.2838	0.168
Mof_H 	H 	0.9519	0.4021	0.9547	0.139
Mof_H 	H 	0.0853	0.3837	0.9519	0.017
Mof_H 	H 	0.9326	0.4972	0.961	-0.003
Mof_H 	H 	0.9766	0.2178	0.0664	-0.001
Mof_H 	H 	0.0521	0.1849	0.9977	-0.006
Mof_H 	H 	0.0291	0.3351	0.9779	0.032
Mof_H 	H 	0.9804	0.4562	0.9648	0.153
Mof_H 	H 	0.1221	0.2899	0.9721	0.006
Mof_H 	H 	0.0732	0.2226	0.984	0.146
Mof_H 	H 	0.9989	0.2553	0.0537	0.117
Mof_H 	H 	0.906	0.4442	0.9484	-0.015
Mof_H 	H 	0.9975	0.3791	0.9683	0.162
Mof_H 	H 	0.0336	0.2838	0.0168	0.168
Mof_H 	H 	0.4547	0.6913	0.4519	0.139
Mof_H 	H 	0.4519	0.5791	0.5853	0.017
Mof_H 	H 	0.461	0.6092	0.4326	-0.004
Mof_H 	H 	0.5664	0.7392	0.4766	-0.001
Mof_H 	H 	0.4977	0.7653	0.5521	-0.006
Mof_H 	H 	0.4779	0.6579	0.5291	0.032
Mof_H 	H 	0.4648	0.5986	0.4804	0.153
Mof_H 	H 	0.4721	0.6159	0.6221	0.006
Mof_H 	H 	0.484	0.7202	0.5732	0.147
Mof_H 	H 	0.5537	0.6921	0.4989	0.118
Mof_H 	H 	0.4484	0.7014	0.406	-0.015
Mof_H 	H 	0.4683	0.6551	0.4975	0.162
Mof_H 	H 	0.5168	0.6658	0.5336	0.168
Mof_H 	H 	0.1913	0.4519	0.9547	0.139
Mof_H 	H 	0.0791	0.5853	0.9519	0.017
Mof_H 	H 	0.1092	0.4326	0.961	-0.004
Mof_H 	H 	0.2392	0.4766	0.0664	-0.001
Mof_H 	H 	0.2653	0.5521	0.9977	-0.006
Mof_H 	H 	0.1579	0.5291	0.9779	0.032
Mof_H 	H 	0.0986	0.4804	0.9648	0.153
Mof_H 	H 	0.1159	0.6221	0.9721	0.006
Mof_H 	H 	0.2202	0.5732	0.984	0.147
Mof_H 	H 	0.1921	0.4989	0.0537	0.118
Mof_H 	H 	0.2014	0.406	0.9484	-0.015
Mof_H 	H 	0.1551	0.4975	0.9683	0.162
Mof_H 	H 	0.1658	0.5336	0.0168	0.168
Mof_H 	H 	0.9021	0.9547	0.4519	0.139
Mof_H 	H 	0.8837	0.9519	0.5853	0.017
Mof_H 	H 	0.9972	0.961	0.4326	-0.003
Mof_H 	H 	0.7178	0.0664	0.4766	-0.001
Mof_H 	H 	0.6849	0.9977	0.5521	-0.006
Mof_H 	H 	0.8351	0.9779	0.5291	0.032
Mof_H 	H 	0.9562	0.9648	0.4804	0.153
Mof_H 	H 	0.7899	0.9721	0.6221	0.006
Mof_H 	H 	0.7226	0.984	0.5732	0.147
Mof_H 	H 	0.7553	0.0537	0.4989	0.118
Mof_H 	H 	0.9442	0.9484	0.406	-0.015
Mof_H 	H 	0.8791	0.9683	0.4975	0.162
Mof_H 	H 	0.7838	0.0168	0.5336	0.168
Mof_H 	H 	0.4547	0.4021	0.6913	0.139
Mof_H 	H 	0.4519	0.3837	0.5791	0.017
Mof_H 	H 	0.461	0.4972	0.6092	-0.004
Mof_H 	H 	0.5664	0.2178	0.7392	-0.001
Mof_H 	H 	0.4977	0.1849	0.7653	-0.006
Mof_H 	H 	0.4779	0.3351	0.6579	0.032
Mof_H 	H 	0.4648	0.4562	0.5986	0.153
Mof_H 	H 	0.4721	0.2899	0.6159	0.006
Mof_H 	H 	0.484	0.2226	0.7202	0.147
Mof_H 	H 	0.5537	0.2553	0.6921	0.118
Mof_H 	H 	0.4484	0.4442	0.7014	-0.015
Mof_H 	H 	0.4683	0.3791	0.6551	0.162
Mof_H 	H 	0.5168	0.2838	0.6658	0.168
Mof_H 	H 	0.9519	0.6913	0.4021	0.139
Mof_H 	H 	0.0853	0.5791	0.3837	0.017
Mof_H 	H 	0.9326	0.6092	0.4972	-0.004
Mof_H 	H 	0.9766	0.7392	0.2178	-0.001
Mof_H 	H 	0.0521	0.7653	0.1849	-0.006
Mof_H 	H 	0.0291	0.6579	0.3351	0.032
Mof_H 	H 	0.9804	0.5986	0.4562	0.153
Mof_H 	H 	0.1221	0.6159	0.2899	0.006
Mof_H 	H 	0.0732	0.7202	0.2226	0.147
Mof_H 	H 	0.9989	0.6921	0.2553	0.118
Mof_H 	H 	0.906	0.7014	0.4442	-0.015
Mof_H 	H 	0.9975	0.6551	0.3791	0.162
Mof_H 	H 	0.0336	0.6658	0.2838	0.168
Mof_H 	H 	0.4519	0.4547	0.9021	0.139
Mof_H 	H 	0.5853	0.4519	0.8837	0.017
Mof_H 	H 	0.4326	0.461	0.9972	-0.004
Mof_H 	H 	0.4766	0.5664	0.7178	-0.001
Mof_H 	H 	0.5521	0.4977	0.6849	-0.006
Mof_H 	H 	0.5291	0.4779	0.8351	0.032
Mof_H 	H 	0.4804	0.4648	0.9562	0.153
Mof_H 	H 	0.6221	0.4721	0.7899	0.006
Mof_H 	H 	0.5732	0.484	0.7226	0.147
Mof_H 	H 	0.4989	0.5537	0.7553	0.118
Mof_H 	H 	0.406	0.4484	0.9442	-0.015
Mof_H 	H 	0.4975	0.4683	0.8791	0.162
Mof_H 	H 	0.5336	0.5168	0.7838	0.168
Mof_H 	H 	0.9547	0.9519	0.1913	0.139
Mof_H 	H 	0.9519	0.0853	0.0791	0.017
Mof_H 	H 	0.961	0.9326	0.1092	-0.004
Mof_H 	H 	0.0664	0.9766	0.2392	-0.001
Mof_H 	H 	0.9977	0.0521	0.2653	-0.006
Mof_H 	H 	0.9779	0.0291	0.1579	0.032
Mof_H 	H 	0.9648	0.9804	0.0986	0.153
Mof_H 	H 	0.9721	0.1221	0.1159	0.006
Mof_H 	H 	0.984	0.0732	0.2202	0.146
Mof_H 	H 	0.0537	0.9989	0.1921	0.117
Mof_H 	H 	0.9484	0.906	0.2014	-0.015
Mof_H 	H 	0.9683	0.9975	0.1551	0.162
Mof_H 	H 	0.0168	0.0336	0.1658	0.168
Mof_H 	H 	0.4021	0.1913	0.9519	0.139
Mof_H 	H 	0.3837	0.0791	0.0853	0.017
Mof_H 	H 	0.4972	0.1092	0.9326	-0.004
Mof_H 	H 	0.2178	0.2392	0.9766	-0.001
Mof_H 	H 	0.1849	0.2653	0.0521	-0.006
Mof_H 	H 	0.3351	0.1579	0.0291	0.032
Mof_H 	H 	0.4562	0.0986	0.9804	0.153
Mof_H 	H 	0.2899	0.1159	0.1221	0.006
Mof_H 	H 	0.2226	0.2202	0.0732	0.147
Mof_H 	H 	0.2553	0.1921	0.9989	0.117
Mof_H 	H 	0.4442	0.2014	0.906	-0.015
Mof_H 	H 	0.3791	0.1551	0.9975	0.162
Mof_H 	H 	0.2838	0.1658	0.0336	0.168
Mof_H 	H 	0.6913	0.9021	0.4547	0.139
Mof_H 	H 	0.5791	0.8837	0.4519	0.017
Mof_H 	H 	0.6092	0.9972	0.461	-0.003
Mof_H 	H 	0.7392	0.7178	0.5664	-0.001
Mof_H 	H 	0.7653	0.6849	0.4977	-0.006
Mof_H 	H 	0.6579	0.8351	0.4779	0.032
Mof_H 	H 	0.5986	0.9562	0.4648	0.153
Mof_H 	H 	0.6159	0.7899	0.4721	0.006
Mof_H 	H 	0.7202	0.7226	0.484	0.147
Mof_H 	H 	0.6921	0.7553	0.5537	0.118
Mof_H 	H 	0.7014	0.9442	0.4484	-0.015
Mof_H 	H 	0.6551	0.8791	0.4683	0.162
Mof_H 	H 	0.6658	0.7838	0.5168	0.168
Mof_H 	H 	0.4519	0.9021	0.1913	0.139
Mof_H 	H 	0.5853	0.8837	0.0791	0.017
Mof_H 	H 	0.4326	0.9972	0.1092	-0.004
Mof_H 	H 	0.4766	0.7178	0.2392	-0.001
Mof_H 	H 	0.5521	0.6849	0.2653	-0.006
Mof_H 	H 	0.5291	0.8351	0.1579	0.032
Mof_H 	H 	0.4804	0.9562	0.0986	0.153
Mof_H 	H 	0.6221	0.7899	0.1159	0.006
Mof_H 	H 	0.5732	0.7226	0.2202	0.147
Mof_H 	H 	0.4989	0.7553	0.1921	0.118
Mof_H 	H 	0.406	0.9442	0.2014	-0.015
Mof_H 	H 	0.4975	0.8791	0.1551	0.162
Mof_H 	H 	0.5336	0.7838	0.1658	0.168
Mof_H 	H 	0.9547	0.1913	0.9021	0.139
Mof_H 	H 	0.9519	0.0791	0.8837	0.017
Mof_H 	H 	0.961	0.1092	0.9972	-0.003
Mof_H 	H 	0.0664	0.2392	0.7178	-0.001
Mof_H 	H 	0.9977	0.2653	0.6849	-0.006
Mof_H 	H 	0.9779	0.1579	0.8351	0.032
Mof_H 	H 	0.9648	0.0986	0.9562	0.153
Mof_H 	H 	0.9721	0.1159	0.7899	0.006
Mof_H 	H 	0.984	0.2202	0.7226	0.147
Mof_H 	H 	0.0537	0.1921	0.7553	0.118
Mof_H 	H 	0.9484	0.2014	0.9442	-0.015
Mof_H 	H 	0.9683	0.1551	0.8791	0.162
Mof_H 	H 	0.0168	0.1658	0.7838	0.168
Mof_H 	H 	0.4021	0.9519	0.4547	0.139
Mof_H 	H 	0.3837	0.0853	0.4519	0.017
Mof_H 	H 	0.4972	0.9326	0.461	-0.004
Mof_H 	H 	0.2178	0.9766	0.5664	-0.001
Mof_H 	H 	0.1849	0.0521	0.4977	-0.006
Mof_H 	H 	0.3351	0.0291	0.4779	0.032
Mof_H 	H 	0.4562	0.9804	0.4648	0.153
Mof_H 	H 	0.2899	0.1221	0.4721	0.006
Mof_H 	H 	0.2226	0.0732	0.484	0.147
Mof_H 	H 	0.2553	0.9989	0.5537	0.117
Mof_H 	H 	0.4442	0.906	0.4484	-0.015
Mof_H 	H 	0.3791	0.9975	0.4683	0.162
Mof_H 	H 	0.2838	0.0336	0.5168	0.168
Mof_H 	H 	0.6913	0.4547	0.9519	0.139
Mof_H 	H 	0.5791	0.4519	0.0853	0.017
Mof_H 	H 	0.6092	0.461	0.9326	-0.004
Mof_H 	H 	0.7392	0.5664	0.9766	-0.001
Mof_H 	H 	0.7653	0.4977	0.0521	-0.006
Mof_H 	H 	0.6579	0.4779	0.0291	0.032
Mof_H 	H 	0.5986	0.4648	0.9804	0.153
Mof_H 	H 	0.6159	0.4721	0.1221	0.006
Mof_H 	H 	0.7202	0.484	0.0732	0.147
Mof_H 	H 	0.6921	0.5537	0.9989	0.118
Mof_H 	H 	0.7014	0.4484	0.906	-0.015
Mof_H 	H 	0.6551	0.4683	0.9975	0.162
Mof_H 	H 	0.6658	0.5168	0.0336	0.168
Mof_H 	H 	0.4519	0.1913	0.4547	0.139
Mof_H 	H 	0.5853	0.0791	0.4519	0.017
Mof_H 	H 	0.4326	0.1092	0.461	-0.004
Mof_H 	H 	0.4766	0.2392	0.5664	-0.001
Mof_H 	H 	0.5521	0.2653	0.4977	-0.006
Mof_H 	H 	0.5291	0.1579	0.4779	0.032
Mof_H 	H 	0.4804	0.0986	0.4648	0.153
Mof_H 	H 	0.6221	0.1159	0.4721	0.006
Mof_H 	H 	0.5732	0.2202	0.484	0.147
Mof_H 	H 	0.4989	0.1921	0.5537	0.118
Mof_H 	H 	0.406	0.2014	0.4484	-0.015
Mof_H 	H 	0.4975	0.1551	0.4683	0.162
Mof_H 	H 	0.5336	0.1658	0.5168	0.168
Mof_H 	H 	0.9547	0.9021	0.9519	0.139
Mof_H 	H 	0.9519	0.8837	0.0853	0.017
Mof_H 	H 	0.961	0.9972	0.9326	-0.003
Mof_H 	H 	0.0664	0.7178	0.9766	-0.001
Mof_H 	H 	0.9977	0.6849	0.0521	-0.006
Mof_H 	H 	0.9779	0.8351	0.0291	0.032
Mof_H 	H 	0.9648	0.9562	0.9804	0.153
Mof_H 	H 	0.9721	0.7899	0.1221	0.006
Mof_H 	H 	0.984	0.7226	0.0732	0.146
Mof_H 	H 	0.0537	0.7553	0.9989	0.117
Mof_H 	H 	0.9484	0.9442	0.906	-0.015
Mof_H 	H 	0.9683	0.8791	0.9975	0.162
Mof_H 	H 	0.0168	0.7838	0.0336	0.168
Mof_H 	H 	0.4021	0.4547	0.1913	0.139
Mof_H 	H 	0.3837	0.4519	0.0791	0.017
Mof_H 	H 	0.4972	0.461	0.1092	-0.004
Mof_H 	H 	0.2178	0.5664	0.2392	-0.001
Mof_H 	H 	0.1849	0.4977	0.2653	-0.006
Mof_H 	H 	0.3351	0.4779	0.1579	0.032
Mof_H 	H 	0.4562	0.4648	0.0986	0.153
Mof_H 	H 	0.2899	0.4721	0.1159	0.006
Mof_H 	H 	0.2226	0.484	0.2202	0.147
Mof_H 	H 	0.2553	0.5537	0.1921	0.118
Mof_H 	H 	0.4442	0.4484	0.2014	-0.015
Mof_H 	H 	0.3791	0.4683	0.1551	0.162
Mof_H 	H 	0.2838	0.5168	0.1658	0.168
Mof_H 	H 	0.6913	0.9519	0.9021	0.139
Mof_H 	H 	0.5791	0.0853	0.8837	0.017
Mof_H 	H 	0.6092	0.9326	0.9972	-0.004
Mof_H 	H 	0.7392	0.9766	0.7178	-0.001
Mof_H 	H 	0.7653	0.0521	0.6849	-0.006
Mof_H 	H 	0.6579	0.0291	0.8351	0.032
Mof_H 	H 	0.5986	0.9804	0.9562	0.153
Mof_H 	H 	0.6159	0.1221	0.7899	0.006
Mof_H 	H 	0.7202	0.0732	0.7226	0.147
Mof_H 	H 	0.6921	0.9989	0.7553	0.118
Mof_H 	H 	0.7014	0.906	0.9442	-0.015
Mof_H 	H 	0.6551	0.9975	0.8791	0.162
Mof_H 	H 	0.6658	0.0336	0.7838	0.168
Mof_C 	C 	0.45546	0.44838	0.42154	-0.282
Mof_C 	C 	0.45831	0.58281	0.36425	0.061
Mof_C 	C 	0.533	0.51246	0.1977	-0.176
Mof_C 	C 	0.45412	0.41448	0.47572	-0.21
Mof_C 	C 	0.46415	0.55319	0.36469	-0.101
Mof_C 	C 	0.46061	0.52665	0.39623	0.263
Mof_C 	C 	0.46004	0.47122	0.42438	0.256
Mof_C 	C 	0.47736	0.5751	0.30696	-0.098
Mof_C 	C 	0.51623	0.53777	0.24365	0.247
Mof_C 	C 	0.4592	0.4367	0.4781	0.172
Mof_C 	C 	0.54991	0.49611	0.21859	0.129
Mof_C 	C 	0.50887	0.54087	0.19933	0.149
Mof_C 	C 	0.53945	0.49721	0.17477	0.356
Mof_C 	C 	0.47387	0.54901	0.33543	0.028
Mof_C 	C 	0.4851	0.57488	0.27478	0.259
Mof_C 	C 	0.46184	0.46536	0.45352	-0.263
Mof_C 	C 	0.47048	0.6044	0.30886	0.052
Mof_C 	C 	0.4516	0.38398	0.50202	0.366
Mof_C 	C 	0.50059	0.55353	0.22211	-0.259
Mof_C 	C 	0.54181	0.50937	0.24159	-0.238
Mof_C 	C 	0.45212	0.42072	0.44652	0.17
Mof_C 	C 	0.94838	0.95546	0.67462	-0.282
Mof_C 	C 	0.08281	0.95831	0.59463	0.061
Mof_C 	C 	0.01246	0.033	0.75684	-0.175
Mof_C 	C 	0.91448	0.95412	0.65568	-0.21
Mof_C 	C 	0.05319	0.96415	0.61797	-0.101
Mof_C 	C 	0.02665	0.96061	0.61651	0.263
Mof_C 	C 	0.97122	0.96004	0.64436	0.256
Mof_C 	C 	0.0751	0.97736	0.64058	-0.098
Mof_C 	C 	0.03777	0.01623	0.70235	0.247
Mof_C 	C 	0.9367	0.9592	0.626	0.172
Mof_C 	C 	0.99611	0.04991	0.73539	0.129
Mof_C 	C 	0.04087	0.00887	0.75093	0.149
Mof_C 	C 	0.99721	0.03945	0.78857	0.356
Mof_C 	C 	0.04901	0.97387	0.64169	0.027
Mof_C 	C 	0.07488	0.9851	0.66524	0.258
Mof_C 	C 	0.96536	0.96184	0.61928	-0.263
Mof_C 	C 	0.1044	0.97048	0.61626	0.052
Mof_C 	C 	0.88398	0.9516	0.6624	0.366
Mof_C 	C 	0.05353	0.00059	0.72377	-0.259
Mof_C 	C 	0.00937	0.04181	0.70723	-0.238
Mof_C 	C 	0.92072	0.95212	0.68064	0.17
Mof_C 	C 	0.17462	0.42154	0.44838	-0.282
Mof_C 	C 	0.09463	0.36425	0.58281	0.061
Mof_C 	C 	0.25684	0.1977	0.51246	-0.176
Mof_C 	C 	0.15568	0.47572	0.41448	-0.21
Mof_C 	C 	0.11797	0.36469	0.55319	-0.101
Mof_C 	C 	0.11651	0.39623	0.52665	0.263
Mof_C 	C 	0.14436	0.42438	0.47122	0.256
Mof_C 	C 	0.14058	0.30696	0.5751	-0.098
Mof_C 	C 	0.20235	0.24365	0.53777	0.247
Mof_C 	C 	0.126	0.4781	0.4367	0.172
Mof_C 	C 	0.23539	0.21859	0.49611	0.129
Mof_C 	C 	0.25093	0.19933	0.54087	0.149
Mof_C 	C 	0.28857	0.17477	0.49721	0.356
Mof_C 	C 	0.14169	0.33543	0.54901	0.028
Mof_C 	C 	0.16524	0.27478	0.57488	0.259
Mof_C 	C 	0.11928	0.45352	0.46536	-0.263
Mof_C 	C 	0.11626	0.30886	0.6044	0.052
Mof_C 	C 	0.1624	0.50202	0.38398	0.366
Mof_C 	C 	0.22377	0.22211	0.55353	-0.259
Mof_C 	C 	0.20723	0.24159	0.50937	-0.238
Mof_C 	C 	0.18064	0.44652	0.42072	0.17
Mof_C 	C 	0.92154	0.67462	0.95546	-0.282
Mof_C 	C 	0.86425	0.59463	0.95831	0.061
Mof_C 	C 	0.6977	0.75684	0.033	-0.176
Mof_C 	C 	0.97572	0.65568	0.95412	-0.21
Mof_C 	C 	0.86469	0.61797	0.96415	-0.101
Mof_C 	C 	0.89623	0.61651	0.96061	0.263
Mof_C 	C 	0.92438	0.64436	0.96004	0.256
Mof_C 	C 	0.80696	0.64058	0.97736	-0.098
Mof_C 	C 	0.74365	0.70235	0.01623	0.247
Mof_C 	C 	0.9781	0.626	0.9592	0.172
Mof_C 	C 	0.71859	0.73539	0.04991	0.129
Mof_C 	C 	0.69933	0.75093	0.00887	0.149
Mof_C 	C 	0.67477	0.78857	0.03945	0.356
Mof_C 	C 	0.83543	0.64169	0.97387	0.028
Mof_C 	C 	0.77478	0.66524	0.9851	0.259
Mof_C 	C 	0.95352	0.61928	0.96184	-0.263
Mof_C 	C 	0.80886	0.61626	0.97048	0.052
Mof_C 	C 	0.00202	0.6624	0.9516	0.365
Mof_C 	C 	0.72211	0.72377	0.00059	-0.259
Mof_C 	C 	0.74159	0.70723	0.04181	-0.238
Mof_C 	C 	0.94652	0.68064	0.95212	0.17
Mof_C 	C 	0.92154	0.44838	0.67462	-0.282
Mof_C 	C 	0.86425	0.58281	0.59463	0.061
Mof_C 	C 	0.6977	0.51246	0.75684	-0.176
Mof_C 	C 	0.97572	0.41448	0.65568	-0.21
Mof_C 	C 	0.86469	0.55319	0.61797	-0.101
Mof_C 	C 	0.89623	0.52665	0.61651	0.263
Mof_C 	C 	0.92438	0.47122	0.64436	0.256
Mof_C 	C 	0.80696	0.5751	0.64058	-0.098
Mof_C 	C 	0.74365	0.53777	0.70235	0.247
Mof_C 	C 	0.9781	0.4367	0.626	0.172
Mof_C 	C 	0.71859	0.49611	0.73539	0.129
Mof_C 	C 	0.69933	0.54087	0.75093	0.149
Mof_C 	C 	0.67477	0.49721	0.78857	0.356
Mof_C 	C 	0.83543	0.54901	0.64169	0.028
Mof_C 	C 	0.77478	0.57488	0.66524	0.259
Mof_C 	C 	0.95352	0.46536	0.61928	-0.263
Mof_C 	C 	0.80886	0.6044	0.61626	0.052
Mof_C 	C 	0.00202	0.38398	0.6624	0.366
Mof_C 	C 	0.72211	0.55353	0.72377	-0.259
Mof_C 	C 	0.74159	0.50937	0.70723	-0.238
Mof_C 	C 	0.94652	0.42072	0.68064	0.17
Mof_C 	C 	0.17462	0.95546	0.42154	-0.282
Mof_C 	C 	0.09463	0.95831	0.36425	0.061
Mof_C 	C 	0.25684	0.033	0.1977	-0.176
Mof_C 	C 	0.15568	0.95412	0.47572	-0.21
Mof_C 	C 	0.11797	0.96415	0.36469	-0.101
Mof_C 	C 	0.11651	0.96061	0.39623	0.263
Mof_C 	C 	0.14436	0.96004	0.42438	0.256
Mof_C 	C 	0.14058	0.97736	0.30696	-0.098
Mof_C 	C 	0.20235	0.01623	0.24365	0.247
Mof_C 	C 	0.126	0.9592	0.4781	0.172
Mof_C 	C 	0.23539	0.04991	0.21859	0.129
Mof_C 	C 	0.25093	0.00887	0.19933	0.149
Mof_C 	C 	0.28857	0.03945	0.17477	0.356
Mof_C 	C 	0.14169	0.97387	0.33543	0.027
Mof_C 	C 	0.16524	0.9851	0.27478	0.259
Mof_C 	C 	0.11928	0.96184	0.45352	-0.263
Mof_C 	C 	0.11626	0.97048	0.30886	0.052
Mof_C 	C 	0.1624	0.9516	0.50202	0.366
Mof_C 	C 	0.22377	0.00059	0.22211	-0.259
Mof_C 	C 	0.20723	0.04181	0.24159	-0.238
Mof_C 	C 	0.18064	0.95212	0.44652	0.17
Mof_C 	C 	0.94838	0.42154	0.95546	-0.282
Mof_C 	C 	0.08281	0.36425	0.95831	0.061
Mof_C 	C 	0.01246	0.1977	0.033	-0.175
Mof_C 	C 	0.91448	0.47572	0.95412	-0.21
Mof_C 	C 	0.05319	0.36469	0.96415	-0.101
Mof_C 	C 	0.02665	0.39623	0.96061	0.263
Mof_C 	C 	0.97122	0.42438	0.96004	0.256
Mof_C 	C 	0.0751	0.30696	0.97736	-0.098
Mof_C 	C 	0.03777	0.24365	0.01623	0.247
Mof_C 	C 	0.9367	0.4781	0.9592	0.172
Mof_C 	C 	0.99611	0.21859	0.04991	0.128
Mof_C 	C 	0.04087	0.19933	0.00887	0.149
Mof_C 	C 	0.99721	0.17477	0.03945	0.355
Mof_C 	C 	0.04901	0.33543	0.97387	0.027
Mof_C 	C 	0.07488	0.27478	0.9851	0.258
Mof_C 	C 	0.96536	0.45352	0.96184	-0.263
Mof_C 	C 	0.1044	0.30886	0.97048	0.052
Mof_C 	C 	0.88398	0.50202	0.9516	0.366
Mof_C 	C 	0.05353	0.22211	0.00059	-0.259
Mof_C 	C 	0.00937	0.24159	0.04181	-0.237
Mof_C 	C 	0.92072	0.44652	0.95212	0.17
Mof_C 	C 	0.45546	0.67462	0.44838	-0.282
Mof_C 	C 	0.45831	0.59463	0.58281	0.061
Mof_C 	C 	0.533	0.75684	0.51246	-0.176
Mof_C 	C 	0.45412	0.65568	0.41448	-0.21
Mof_C 	C 	0.46415	0.61797	0.55319	-0.101
Mof_C 	C 	0.46061	0.61651	0.52665	0.263
Mof_C 	C 	0.46004	0.64436	0.47122	0.256
Mof_C 	C 	0.47736	0.64058	0.5751	-0.098
Mof_C 	C 	0.51623	0.70235	0.53777	0.247
Mof_C 	C 	0.4592	0.626	0.4367	0.172
Mof_C 	C 	0.54991	0.73539	0.49611	0.129
Mof_C 	C 	0.50887	0.75093	0.54087	0.149
Mof_C 	C 	0.53945	0.78857	0.49721	0.356
Mof_C 	C 	0.47387	0.64169	0.54901	0.028
Mof_C 	C 	0.4851	0.66524	0.57488	0.259
Mof_C 	C 	0.46184	0.61928	0.46536	-0.263
Mof_C 	C 	0.47048	0.61626	0.6044	0.052
Mof_C 	C 	0.4516	0.6624	0.38398	0.366
Mof_C 	C 	0.50059	0.72377	0.55353	-0.259
Mof_C 	C 	0.54181	0.70723	0.50937	-0.238
Mof_C 	C 	0.45212	0.68064	0.42072	0.17
Mof_C 	C 	0.17462	0.44838	0.95546	-0.282
Mof_C 	C 	0.09463	0.58281	0.95831	0.061
Mof_C 	C 	0.25684	0.51246	0.033	-0.176
Mof_C 	C 	0.15568	0.41448	0.95412	-0.21
Mof_C 	C 	0.11797	0.55319	0.96415	-0.101
Mof_C 	C 	0.11651	0.52665	0.96061	0.263
Mof_C 	C 	0.14436	0.47122	0.96004	0.256
Mof_C 	C 	0.14058	0.5751	0.97736	-0.098
Mof_C 	C 	0.20235	0.53777	0.01623	0.247
Mof_C 	C 	0.126	0.4367	0.9592	0.172
Mof_C 	C 	0.23539	0.49611	0.04991	0.129
Mof_C 	C 	0.25093	0.54087	0.00887	0.149
Mof_C 	C 	0.28857	0.49721	0.03945	0.356
Mof_C 	C 	0.14169	0.54901	0.97387	0.027
Mof_C 	C 	0.16524	0.57488	0.9851	0.259
Mof_C 	C 	0.11928	0.46536	0.96184	-0.263
Mof_C 	C 	0.11626	0.6044	0.97048	0.052
Mof_C 	C 	0.1624	0.38398	0.9516	0.366
Mof_C 	C 	0.22377	0.55353	0.00059	-0.259
Mof_C 	C 	0.20723	0.50937	0.04181	-0.238
Mof_C 	C 	0.18064	0.42072	0.95212	0.17
Mof_C 	C 	0.92154	0.95546	0.44838	-0.282
Mof_C 	C 	0.86425	0.95831	0.58281	0.061
Mof_C 	C 	0.6977	0.033	0.51246	-0.176
Mof_C 	C 	0.97572	0.95412	0.41448	-0.21
Mof_C 	C 	0.86469	0.96415	0.55319	-0.101
Mof_C 	C 	0.89623	0.96061	0.52665	0.263
Mof_C 	C 	0.92438	0.96004	0.47122	0.256
Mof_C 	C 	0.80696	0.97736	0.5751	-0.098
Mof_C 	C 	0.74365	0.01623	0.53777	0.247
Mof_C 	C 	0.9781	0.9592	0.4367	0.172
Mof_C 	C 	0.71859	0.04991	0.49611	0.129
Mof_C 	C 	0.69933	0.00887	0.54087	0.149
Mof_C 	C 	0.67477	0.03945	0.49721	0.356
Mof_C 	C 	0.83543	0.97387	0.54901	0.028
Mof_C 	C 	0.77478	0.9851	0.57488	0.259
Mof_C 	C 	0.95352	0.96184	0.46536	-0.263
Mof_C 	C 	0.80886	0.97048	0.6044	0.052
Mof_C 	C 	0.00202	0.9516	0.38398	0.366
Mof_C 	C 	0.72211	0.00059	0.55353	-0.259
Mof_C 	C 	0.74159	0.04181	0.50937	-0.238
Mof_C 	C 	0.94652	0.95212	0.42072	0.17
Mof_C 	C 	0.45546	0.42154	0.67462	-0.282
Mof_C 	C 	0.45831	0.36425	0.59463	0.061
Mof_C 	C 	0.533	0.1977	0.75684	-0.176
Mof_C 	C 	0.45412	0.47572	0.65568	-0.21
Mof_C 	C 	0.46415	0.36469	0.61797	-0.101
Mof_C 	C 	0.46061	0.39623	0.61651	0.263
Mof_C 	C 	0.46004	0.42438	0.64436	0.256
Mof_C 	C 	0.47736	0.30696	0.64058	-0.098
Mof_C 	C 	0.51623	0.24365	0.70235	0.247
Mof_C 	C 	0.4592	0.4781	0.626	0.172
Mof_C 	C 	0.54991	0.21859	0.73539	0.129
Mof_C 	C 	0.50887	0.19933	0.75093	0.149
Mof_C 	C 	0.53945	0.17477	0.78857	0.356
Mof_C 	C 	0.47387	0.33543	0.64169	0.028
Mof_C 	C 	0.4851	0.27478	0.66524	0.259
Mof_C 	C 	0.46184	0.45352	0.61928	-0.263
Mof_C 	C 	0.47048	0.30886	0.61626	0.052
Mof_C 	C 	0.4516	0.50202	0.6624	0.366
Mof_C 	C 	0.50059	0.22211	0.72377	-0.259
Mof_C 	C 	0.54181	0.24159	0.70723	-0.238
Mof_C 	C 	0.45212	0.44652	0.68064	0.17
Mof_C 	C 	0.94838	0.67462	0.42154	-0.282
Mof_C 	C 	0.08281	0.59463	0.36425	0.061
Mof_C 	C 	0.01246	0.75684	0.1977	-0.176
Mof_C 	C 	0.91448	0.65568	0.47572	-0.21
Mof_C 	C 	0.05319	0.61797	0.36469	-0.101
Mof_C 	C 	0.02665	0.61651	0.39623	0.263
Mof_C 	C 	0.97122	0.64436	0.42438	0.256
Mof_C 	C 	0.0751	0.64058	0.30696	-0.098
Mof_C 	C 	0.03777	0.70235	0.24365	0.247
Mof_C 	C 	0.9367	0.626	0.4781	0.172
Mof_C 	C 	0.99611	0.73539	0.21859	0.129
Mof_C 	C 	0.04087	0.75093	0.19933	0.149
Mof_C 	C 	0.99721	0.78857	0.17477	0.356
Mof_C 	C 	0.04901	0.64169	0.33543	0.028
Mof_C 	C 	0.07488	0.66524	0.27478	0.259
Mof_C 	C 	0.96536	0.61928	0.45352	-0.263
Mof_C 	C 	0.1044	0.61626	0.30886	0.052
Mof_C 	C 	0.88398	0.6624	0.50202	0.366
Mof_C 	C 	0.05353	0.72377	0.22211	-0.259
Mof_C 	C 	0.00937	0.70723	0.24159	-0.238
Mof_C 	C 	0.92072	0.68064	0.44652	0.17
Mof_C 	C 	0.44838	0.45546	0.92154	-0.282
Mof_C 	C 	0.58281	0.45831	0.86425	0.061
Mof_C 	C 	0.51246	0.533	0.6977	-0.176
Mof_C 	C 	0.41448	0.45412	0.97572	-0.21
Mof_C 	C 	0.55319	0.46415	0.86469	-0.101
Mof_C 	C 	0.52665	0.46061	0.89623	0.263
Mof_C 	C 	0.47122	0.46004	0.92438	0.256
Mof_C 	C 	0.5751	0.47736	0.80696	-0.098
Mof_C 	C 	0.53777	0.51623	0.74365	0.247
Mof_C 	C 	0.4367	0.4592	0.9781	0.172
Mof_C 	C 	0.49611	0.54991	0.71859	0.129
Mof_C 	C 	0.54087	0.50887	0.69933	0.149
Mof_C 	C 	0.49721	0.53945	0.67477	0.356
Mof_C 	C 	0.54901	0.47387	0.83543	0.028
Mof_C 	C 	0.57488	0.4851	0.77478	0.259
Mof_C 	C 	0.46536	0.46184	0.95352	-0.264
Mof_C 	C 	0.6044	0.47048	0.80886	0.052
Mof_C 	C 	0.38398	0.4516	0.00202	0.366
Mof_C 	C 	0.55353	0.50059	0.72211	-0.259
Mof_C 	C 	0.50937	0.54181	0.74159	-0.238
Mof_C 	C 	0.42072	0.45212	0.94652	0.17
Mof_C 	C 	0.95546	0.94838	0.17462	-0.282
Mof_C 	C 	0.95831	0.08281	0.09463	0.061
Mof_C 	C 	0.033	0.01246	0.25684	-0.175
Mof_C 	C 	0.95412	0.91448	0.15568	-0.21
Mof_C 	C 	0.96415	0.05319	0.11797	-0.101
Mof_C 	C 	0.96061	0.02665	0.11651	0.263
Mof_C 	C 	0.96004	0.97122	0.14436	0.256
Mof_C 	C 	0.97736	0.0751	0.14058	-0.098
Mof_C 	C 	0.01623	0.03777	0.20235	0.247
Mof_C 	C 	0.9592	0.9367	0.126	0.172
Mof_C 	C 	0.04991	0.99611	0.23539	0.128
Mof_C 	C 	0.00887	0.04087	0.25093	0.149
Mof_C 	C 	0.03945	0.99721	0.28857	0.356
Mof_C 	C 	0.97387	0.04901	0.14169	0.027
Mof_C 	C 	0.9851	0.07488	0.16524	0.258
Mof_C 	C 	0.96184	0.96536	0.11928	-0.263
Mof_C 	C 	0.97048	0.1044	0.11626	0.052
Mof_C 	C 	0.9516	0.88398	0.1624	0.366
Mof_C 	C 	0.00059	0.05353	0.22377	-0.259
Mof_C 	C 	0.04181	0.00937	0.20723	-0.237
Mof_C 	C 	0.95212	0.92072	0.18064	0.17
Mof_C 	C 	0.42154	0.17462	0.94838	-0.282
Mof_C 	C 	0.36425	0.09463	0.08281	0.061
Mof_C 	C 	0.1977	0.25684	0.01246	-0.175
Mof_C 	C 	0.47572	0.15568	0.91448	-0.21
Mof_C 	C 	0.36469	0.11797	0.05319	-0.101
Mof_C 	C 	0.39623	0.11651	0.02665	0.263
Mof_C 	C 	0.42438	0.14436	0.97122	0.256
Mof_C 	C 	0.30696	0.14058	0.0751	-0.098
Mof_C 	C 	0.24365	0.20235	0.03777	0.247
Mof_C 	C 	0.4781	0.126	0.9367	0.172
Mof_C 	C 	0.21859	0.23539	0.99611	0.129
Mof_C 	C 	0.19933	0.25093	0.04087	0.149
Mof_C 	C 	0.17477	0.28857	0.99721	0.356
Mof_C 	C 	0.33543	0.14169	0.04901	0.028
Mof_C 	C 	0.27478	0.16524	0.07488	0.259
Mof_C 	C 	0.45352	0.11928	0.96536	-0.263
Mof_C 	C 	0.30886	0.11626	0.1044	0.052
Mof_C 	C 	0.50202	0.1624	0.88398	0.366
Mof_C 	C 	0.22211	0.22377	0.05353	-0.259
Mof_C 	C 	0.24159	0.20723	0.00937	-0.238
Mof_C 	C 	0.44652	0.18064	0.92072	0.17
Mof_C 	C 	0.67462	0.92154	0.45546	-0.282
Mof_C 	C 	0.59463	0.86425	0.45831	0.061
Mof_C 	C 	0.75684	0.6977	0.533	-0.176
Mof_C 	C 	0.65568	0.97572	0.45412	-0.21
Mof_C 	C 	0.61797	0.86469	0.46415	-0.101
Mof_C 	C 	0.61651	0.89623	0.46061	0.263
Mof_C 	C 	0.64436	0.92438	0.46004	0.256
Mof_C 	C 	0.64058	0.80696	0.47736	-0.098
Mof_C 	C 	0.70235	0.74365	0.51623	0.247
Mof_C 	C 	0.626	0.9781	0.4592	0.172
Mof_C 	C 	0.73539	0.71859	0.54991	0.129
Mof_C 	C 	0.75093	0.69933	0.50887	0.149
Mof_C 	C 	0.78857	0.67477	0.53945	0.356
Mof_C 	C 	0.64169	0.83543	0.47387	0.028
Mof_C 	C 	0.66524	0.77478	0.4851	0.259
Mof_C 	C 	0.61928	0.95352	0.46184	-0.263
Mof_C 	C 	0.61626	0.80886	0.47048	0.052
Mof_C 	C 	0.6624	0.00202	0.4516	0.366
Mof_C 	C 	0.72377	0.72211	0.50059	-0.259
Mof_C 	C 	0.70723	0.74159	0.54181	-0.238
Mof_C 	C 	0.68064	0.94652	0.45212	0.17
Mof_C 	C 	0.44838	0.92154	0.17462	-0.282
Mof_C 	C 	0.58281	0.86425	0.09463	0.061
Mof_C 	C 	0.51246	0.6977	0.25684	-0.176
Mof_C 	C 	0.41448	0.97572	0.15568	-0.21
Mof_C 	C 	0.55319	0.86469	0.11797	-0.101
Mof_C 	C 	0.52665	0.89623	0.11651	0.263
Mof_C 	C 	0.47122	0.92438	0.14436	0.256
Mof_C 	C 	0.5751	0.80696	0.14058	-0.098
Mof_C 	C 	0.53777	0.74365	0.20235	0.247
Mof_C 	C 	0.4367	0.9781	0.126	0.172
Mof_C 	C 	0.49611	0.71859	0.23539	0.129
Mof_C 	C 	0.54087	0.69933	0.25093	0.149
Mof_C 	C 	0.49721	0.67477	0.28857	0.356
Mof_C 	C 	0.54901	0.83543	0.14169	0.028
Mof_C 	C 	0.57488	0.77478	0.16524	0.259
Mof_C 	C 	0.46536	0.95352	0.11928	-0.264
Mof_C 	C 	0.6044	0.80886	0.11626	0.052
Mof_C 	C 	0.38398	0.00202	0.1624	0.366
Mof_C 	C 	0.55353	0.72211	0.22377	-0.259
Mof_C 	C 	0.50937	0.74159	0.20723	-0.238
Mof_C 	C 	0.42072	0.94652	0.18064	0.17
Mof_C 	C 	0.95546	0.17462	0.92154	-0.282
Mof_C 	C 	0.95831	0.09463	0.86425	0.061
Mof_C 	C 	0.033	0.25684	0.6977	-0.176
Mof_C 	C 	0.95412	0.15568	0.97572	-0.21
Mof_C 	C 	0.96415	0.11797	0.86469	-0.101
Mof_C 	C 	0.96061	0.11651	0.89623	0.263
Mof_C 	C 	0.96004	0.14436	0.92438	0.256
Mof_C 	C 	0.97736	0.14058	0.80696	-0.098
Mof_C 	C 	0.01623	0.20235	0.74365	0.247
Mof_C 	C 	0.9592	0.126	0.9781	0.172
Mof_C 	C 	0.04991	0.23539	0.71859	0.129
Mof_C 	C 	0.00887	0.25093	0.69933	0.149
Mof_C 	C 	0.03945	0.28857	0.67477	0.356
Mof_C 	C 	0.97387	0.14169	0.83543	0.028
Mof_C 	C 	0.9851	0.16524	0.77478	0.259
Mof_C 	C 	0.96184	0.11928	0.95352	-0.263
Mof_C 	C 	0.97048	0.11626	0.80886	0.052
Mof_C 	C 	0.9516	0.1624	0.00202	0.365
Mof_C 	C 	0.00059	0.22377	0.72211	-0.259
Mof_C 	C 	0.04181	0.20723	0.74159	-0.238
Mof_C 	C 	0.95212	0.18064	0.94652	0.17
Mof_C 	C 	0.42154	0.94838	0.45546	-0.282
Mof_C 	C 	0.36425	0.08281	0.45831	0.061
Mof_C 	C 	0.1977	0.01246	0.533	-0.175
Mof_C 	C 	0.47572	0.91448	0.45412	-0.21
Mof_C 	C 	0.36469	0.05319	0.46415	-0.101
Mof_C 	C 	0.39623	0.02665	0.46061	0.263
Mof_C 	C 	0.42438	0.97122	0.46004	0.256
Mof_C 	C 	0.30696	0.0751	0.47736	-0.098
Mof_C 	C 	0.24365	0.03777	0.51623	0.247
Mof_C 	C 	0.4781	0.9367	0.4592	0.172
Mof_C 	C 	0.21859	0.99611	0.54991	0.128
Mof_C 	C 	0.19933	0.04087	0.50887	0.149
Mof_C 	C 	0.17477	0.99721	0.53945	0.356
Mof_C 	C 	0.33543	0.04901	0.47387	0.028
Mof_C 	C 	0.27478	0.07488	0.4851	0.259
Mof_C 	C 	0.45352	0.96536	0.46184	-0.263
Mof_C 	C 	0.30886	0.1044	0.47048	0.052
Mof_C 	C 	0.50202	0.88398	0.4516	0.366
Mof_C 	C 	0.22211	0.05353	0.50059	-0.259
Mof_C 	C 	0.24159	0.00937	0.54181	-0.238
Mof_C 	C 	0.44652	0.92072	0.45212	0.17
Mof_C 	C 	0.67462	0.45546	0.94838	-0.282
Mof_C 	C 	0.59463	0.45831	0.08281	0.061
Mof_C 	C 	0.75684	0.533	0.01246	-0.176
Mof_C 	C 	0.65568	0.45412	0.91448	-0.21
Mof_C 	C 	0.61797	0.46415	0.05319	-0.101
Mof_C 	C 	0.61651	0.46061	0.02665	0.263
Mof_C 	C 	0.64436	0.46004	0.97122	0.256
Mof_C 	C 	0.64058	0.47736	0.0751	-0.098
Mof_C 	C 	0.70235	0.51623	0.03777	0.247
Mof_C 	C 	0.626	0.4592	0.9367	0.172
Mof_C 	C 	0.73539	0.54991	0.99611	0.129
Mof_C 	C 	0.75093	0.50887	0.04087	0.149
Mof_C 	C 	0.78857	0.53945	0.99721	0.356
Mof_C 	C 	0.64169	0.47387	0.04901	0.028
Mof_C 	C 	0.66524	0.4851	0.07488	0.259
Mof_C 	C 	0.61928	0.46184	0.96536	-0.263
Mof_C 	C 	0.61626	0.47048	0.1044	0.052
Mof_C 	C 	0.6624	0.4516	0.88398	0.366
Mof_C 	C 	0.72377	0.50059	0.05353	-0.259
Mof_C 	C 	0.70723	0.54181	0.00937	-0.238
Mof_C 	C 	0.68064	0.45212	0.92072	0.17
Mof_C 	C 	0.44838	0.17462	0.45546	-0.282
Mof_C 	C 	0.58281	0.09463	0.45831	0.061
Mof_C 	C 	0.51246	0.25684	0.533	-0.176
Mof_C 	C 	0.41448	0.15568	0.45412	-0.21
Mof_C 	C 	0.55319	0.11797	0.46415	-0.101
Mof_C 	C 	0.52665	0.11651	0.46061	0.263
Mof_C 	C 	0.47122	0.14436	0.46004	0.256
Mof_C 	C 	0.5751	0.14058	0.47736	-0.098
Mof_C 	C 	0.53777	0.20235	0.51623	0.247
Mof_C 	C 	0.4367	0.126	0.4592	0.172
Mof_C 	C 	0.49611	0.23539	0.54991	0.129
Mof_C 	C 	0.54087	0.25093	0.50887	0.149
Mof_C 	C 	0.49721	0.28857	0.53945	0.356
Mof_C 	C 	0.54901	0.14169	0.47387	0.028
Mof_C 	C 	0.57488	0.16524	0.4851	0.259
Mof_C 	C 	0.46536	0.11928	0.46184	-0.263
Mof_C 	C 	0.6044	0.11626	0.47048	0.052
Mof_C 	C 	0.38398	0.1624	0.4516	0.366
Mof_C 	C 	0.55353	0.22377	0.50059	-0.259
Mof_C 	C 	0.50937	0.20723	0.54181	-0.238
Mof_C 	C 	0.42072	0.18064	0.45212	0.17
Mof_C 	C 	0.95546	0.92154	0.94838	-0.282
Mof_C 	C 	0.95831	0.86425	0.08281	0.061
Mof_C 	C 	0.033	0.6977	0.01246	-0.175
Mof_C 	C 	0.95412	0.97572	0.91448	-0.21
Mof_C 	C 	0.96415	0.86469	0.05319	-0.101
Mof_C 	C 	0.96061	0.89623	0.02665	0.263
Mof_C 	C 	0.96004	0.92438	0.97122	0.256
Mof_C 	C 	0.97736	0.80696	0.0751	-0.098
Mof_C 	C 	0.01623	0.74365	0.03777	0.247
Mof_C 	C 	0.9592	0.9781	0.9367	0.172
Mof_C 	C 	0.04991	0.71859	0.99611	0.128
Mof_C 	C 	0.00887	0.69933	0.04087	0.149
Mof_C 	C 	0.03945	0.67477	0.99721	0.356
Mof_C 	C 	0.97387	0.83543	0.04901	0.027
Mof_C 	C 	0.9851	0.77478	0.07488	0.259
Mof_C 	C 	0.96184	0.95352	0.96536	-0.263
Mof_C 	C 	0.97048	0.80886	0.1044	0.052
Mof_C 	C 	0.9516	0.00202	0.88398	0.366
Mof_C 	C 	0.00059	0.72211	0.05353	-0.259
Mof_C 	C 	0.04181	0.74159	0.00937	-0.237
Mof_C 	C 	0.95212	0.94652	0.92072	0.17
Mof_C 	C 	0.42154	0.45546	0.17462	-0.282
Mof_C 	C 	0.36425	0.45831	0.09463	0.061
Mof_C 	C 	0.1977	0.533	0.25684	-0.176
Mof_C 	C 	0.47572	0.45412	0.15568	-0.21
Mof_C 	C 	0.36469	0.46415	0.11797	-0.101
Mof_C 	C 	0.39623	0.46061	0.11651	0.263
Mof_C 	C 	0.42438	0.46004	0.14436	0.256
Mof_C 	C 	0.30696	0.47736	0.14058	-0.098
Mof_C 	C 	0.24365	0.51623	0.20235	0.247
Mof_C 	C 	0.4781	0.4592	0.126	0.172
Mof_C 	C 	0.21859	0.54991	0.23539	0.129
Mof_C 	C 	0.19933	0.50887	0.25093	0.149
Mof_C 	C 	0.17477	0.53945	0.28857	0.356
Mof_C 	C 	0.33543	0.47387	0.14169	0.028
Mof_C 	C 	0.27478	0.4851	0.16524	0.259
Mof_C 	C 	0.45352	0.46184	0.11928	-0.263
Mof_C 	C 	0.30886	0.47048	0.11626	0.052
Mof_C 	C 	0.50202	0.4516	0.1624	0.366
Mof_C 	C 	0.22211	0.50059	0.22377	-0.259
Mof_C 	C 	0.24159	0.54181	0.20723	-0.238
Mof_C 	C 	0.44652	0.45212	0.18064	0.17
Mof_C 	C 	0.67462	0.94838	0.92154	-0.282
Mof_C 	C 	0.59463	0.08281	0.86425	0.061
Mof_C 	C 	0.75684	0.01246	0.6977	-0.176
Mof_C 	C 	0.65568	0.91448	0.97572	-0.21
Mof_C 	C 	0.61797	0.05319	0.86469	-0.101
Mof_C 	C 	0.61651	0.02665	0.89623	0.263
Mof_C 	C 	0.64436	0.97122	0.92438	0.256
Mof_C 	C 	0.64058	0.0751	0.80696	-0.098
Mof_C 	C 	0.70235	0.03777	0.74365	0.247
Mof_C 	C 	0.626	0.9367	0.9781	0.172
Mof_C 	C 	0.73539	0.99611	0.71859	0.129
Mof_C 	C 	0.75093	0.04087	0.69933	0.149
Mof_C 	C 	0.78857	0.99721	0.67477	0.356
Mof_C 	C 	0.64169	0.04901	0.83543	0.028
Mof_C 	C 	0.66524	0.07488	0.77478	0.259
Mof_C 	C 	0.61928	0.96536	0.95352	-0.263
Mof_C 	C 	0.61626	0.1044	0.80886	0.052
Mof_C 	C 	0.6624	0.88398	0.00202	0.366
Mof_C 	C 	0.72377	0.05353	0.72211	-0.259
Mof_C 	C 	0.70723	0.00937	0.74159	-0.238
Mof_C 	C 	0.68064	0.92072	0.94652	0.17
Mof_N 	N 	0.46149	0.60851	0.33707	-0.264
Mof_N 	N 	0.46362	0.4988	0.39724	-0.284
Mof_N 	N 	0.50728	0.54694	0.26978	-0.278
Mof_N 	N 	0.10851	0.96149	0.59293	-0.264
Mof_N 	N 	0.9988	0.96362	0.64034	-0.284
Mof_N 	N 	0.04694	0.00728	0.676	-0.278
Mof_N 	N 	0.09293	0.33707	0.60851	-0.264
Mof_N 	N 	0.14034	0.39724	0.4988	-0.284
Mof_N 	N 	0.176	0.26978	0.54694	-0.278
Mof_N 	N 	0.83707	0.59293	0.96149	-0.264
Mof_N 	N 	0.89724	0.64034	0.96362	-0.284
Mof_N 	N 	0.76978	0.676	0.00728	-0.278
Mof_N 	N 	0.83707	0.60851	0.59293	-0.264
Mof_N 	N 	0.89724	0.4988	0.64034	-0.284
Mof_N 	N 	0.76978	0.54694	0.676	-0.278
Mof_N 	N 	0.09293	0.96149	0.33707	-0.264
Mof_N 	N 	0.14034	0.96362	0.39724	-0.284
Mof_N 	N 	0.176	0.00728	0.26978	-0.278
Mof_N 	N 	0.10851	0.33707	0.96149	-0.264
Mof_N 	N 	0.9988	0.39724	0.96362	-0.284
Mof_N 	N 	0.04694	0.26978	0.00728	-0.278
Mof_N 	N 	0.46149	0.59293	0.60851	-0.264
Mof_N 	N 	0.46362	0.64034	0.4988	-0.284
Mof_N 	N 	0.50728	0.676	0.54694	-0.278
Mof_N 	N 	0.09293	0.60851	0.96149	-0.264
Mof_N 	N 	0.14034	0.4988	0.96362	-0.284
Mof_N 	N 	0.176	0.54694	0.00728	-0.278
Mof_N 	N 	0.83707	0.96149	0.60851	-0.264
Mof_N 	N 	0.89724	0.96362	0.4988	-0.284
Mof_N 	N 	0.76978	0.00728	0.54694	-0.278
Mof_N 	N 	0.46149	0.33707	0.59293	-0.264
Mof_N 	N 	0.46362	0.39724	0.64034	-0.284
Mof_N 	N 	0.50728	0.26978	0.676	-0.278
Mof_N 	N 	0.10851	0.59293	0.33707	-0.264
Mof_N 	N 	0.9988	0.64034	0.39724	-0.284
Mof_N 	N 	0.04694	0.676	0.26978	-0.278
Mof_N 	N 	0.60851	0.46149	0.83707	-0.264
Mof_N 	N 	0.4988	0.46362	0.89724	-0.284
Mof_N 	N 	0.54694	0.50728	0.76978	-0.278
Mof_N 	N 	0.96149	0.10851	0.09293	-0.264
Mof_N 	N 	0.96362	0.9988	0.14034	-0.284
Mof_N 	N 	0.00728	0.04694	0.176	-0.278
Mof_N 	N 	0.33707	0.09293	0.10851	-0.264
Mof_N 	N 	0.39724	0.14034	0.9988	-0.284
Mof_N 	N 	0.26978	0.176	0.04694	-0.278
Mof_N 	N 	0.59293	0.83707	0.46149	-0.264
Mof_N 	N 	0.64034	0.89724	0.46362	-0.284
Mof_N 	N 	0.676	0.76978	0.50728	-0.278
Mof_N 	N 	0.60851	0.83707	0.09293	-0.264
Mof_N 	N 	0.4988	0.89724	0.14034	-0.284
Mof_N 	N 	0.54694	0.76978	0.176	-0.278
Mof_N 	N 	0.96149	0.09293	0.83707	-0.264
Mof_N 	N 	0.96362	0.14034	0.89724	-0.284
Mof_N 	N 	0.00728	0.176	0.76978	-0.278
Mof_N 	N 	0.33707	0.10851	0.46149	-0.264
Mof_N 	N 	0.39724	0.9988	0.46362	-0.284
Mof_N 	N 	0.26978	0.04694	0.50728	-0.278
Mof_N 	N 	0.59293	0.46149	0.10851	-0.264
Mof_N 	N 	0.64034	0.46362	0.9988	-0.284
Mof_N 	N 	0.676	0.50728	0.04694	-0.278
Mof_N 	N 	0.60851	0.09293	0.46149	-0.264
Mof_N 	N 	0.4988	0.14034	0.46362	-0.284
Mof_N 	N 	0.54694	0.176	0.50728	-0.278
Mof_N 	N 	0.96149	0.83707	0.10851	-0.264
Mof_N 	N 	0.96362	0.89724	0.9988	-0.284
Mof_N 	N 	0.00728	0.76978	0.04694	-0.278
Mof_N 	N 	0.33707	0.46149	0.09293	-0.264
Mof_N 	N 	0.39724	0.46362	0.14034	-0.284
Mof_N 	N 	0.26978	0.50728	0.176	-0.278
Mof_N 	N 	0.59293	0.10851	0.83707	-0.264
Mof_N 	N 	0.64034	0.9988	0.89724	-0.284
Mof_N 	N 	0.676	0.04694	0.76978	-0.278
Mof_O 	O 	0.45361	0.53245	0.41985	-0.244
Mof_O 	O 	0.47256	0.59772	0.25556	-0.25
Mof_O 	O 	0.56043	0.46913	0.17719	-0.486
Mof_O 	O 	0.52351	0.51225	0.15629	-0.346
Mof_O 	O 	0.45072	0.36166	0.4981	-0.355
Mof_O 	O 	0.45198	0.38022	0.52838	-0.477
Mof_O 	O 	0.03245	0.95361	0.59409	-0.244
Mof_O 	O 	0.09772	0.97256	0.67416	-0.25
Mof_O 	O 	0.96913	0.06043	0.79325	-0.486
Mof_O 	O 	0.01225	0.02351	0.80795	-0.346
Mof_O 	O 	0.86166	0.95072	0.68952	-0.355
Mof_O 	O 	0.88022	0.95198	0.63942	-0.477
Mof_O 	O 	0.09409	0.41985	0.53245	-0.244
Mof_O 	O 	0.17416	0.25556	0.59772	-0.25
Mof_O 	O 	0.29325	0.17719	0.46913	-0.486
Mof_O 	O 	0.30795	0.15629	0.51225	-0.346
Mof_O 	O 	0.18952	0.4981	0.36166	-0.355
Mof_O 	O 	0.13942	0.52838	0.38022	-0.477
Mof_O 	O 	0.91985	0.59409	0.95361	-0.244
Mof_O 	O 	0.75556	0.67416	0.97256	-0.25
Mof_O 	O 	0.67719	0.79325	0.06043	-0.486
Mof_O 	O 	0.65629	0.80795	0.02351	-0.347
Mof_O 	O 	0.9981	0.68952	0.95072	-0.354
Mof_O 	O 	0.02838	0.63942	0.95198	-0.477
Mof_O 	O 	0.91985	0.53245	0.59409	-0.244
Mof_O 	O 	0.75556	0.59772	0.67416	-0.25
Mof_O 	O 	0.67719	0.46913	0.79325	-0.486
Mof_O 	O 	0.65629	0.51225	0.80795	-0.346
Mof_O 	O 	0.9981	0.36166	0.68952	-0.355
Mof_O 	O 	0.02838	0.38022	0.63942	-0.477
Mof_O 	O 	0.09409	0.95361	0.41985	-0.244
Mof_O 	O 	0.17416	0.97256	0.25556	-0.25
Mof_O 	O 	0.29325	0.06043	0.17719	-0.486
Mof_O 	O 	0.30795	0.02351	0.15629	-0.346
Mof_O 	O 	0.18952	0.95072	0.4981	-0.355
Mof_O 	O 	0.13942	0.95198	0.52838	-0.477
Mof_O 	O 	0.03245	0.41985	0.95361	-0.244
Mof_O 	O 	0.09772	0.25556	0.97256	-0.25
Mof_O 	O 	0.96913	0.17719	0.06043	-0.486
Mof_O 	O 	0.01225	0.15629	0.02351	-0.346
Mof_O 	O 	0.86166	0.4981	0.95072	-0.355
Mof_O 	O 	0.88022	0.52838	0.95198	-0.477
Mof_O 	O 	0.45361	0.59409	0.53245	-0.244
Mof_O 	O 	0.47256	0.67416	0.59772	-0.25
Mof_O 	O 	0.56043	0.79325	0.46913	-0.486
Mof_O 	O 	0.52351	0.80795	0.51225	-0.346
Mof_O 	O 	0.45072	0.68952	0.36166	-0.355
Mof_O 	O 	0.45198	0.63942	0.38022	-0.477
Mof_O 	O 	0.09409	0.53245	0.95361	-0.244
Mof_O 	O 	0.17416	0.59772	0.97256	-0.25
Mof_O 	O 	0.29325	0.46913	0.06043	-0.486
Mof_O 	O 	0.30795	0.51225	0.02351	-0.346
Mof_O 	O 	0.18952	0.36166	0.95072	-0.355
Mof_O 	O 	0.13942	0.38022	0.95198	-0.477
Mof_O 	O 	0.91985	0.95361	0.53245	-0.244
Mof_O 	O 	0.75556	0.97256	0.59772	-0.25
Mof_O 	O 	0.67719	0.06043	0.46913	-0.486
Mof_O 	O 	0.65629	0.02351	0.51225	-0.347
Mof_O 	O 	0.9981	0.95072	0.36166	-0.354
Mof_O 	O 	0.02838	0.95198	0.38022	-0.477
Mof_O 	O 	0.45361	0.41985	0.59409	-0.244
Mof_O 	O 	0.47256	0.25556	0.67416	-0.25
Mof_O 	O 	0.56043	0.17719	0.79325	-0.486
Mof_O 	O 	0.52351	0.15629	0.80795	-0.346
Mof_O 	O 	0.45072	0.4981	0.68952	-0.355
Mof_O 	O 	0.45198	0.52838	0.63942	-0.477
Mof_O 	O 	0.03245	0.59409	0.41985	-0.244
Mof_O 	O 	0.09772	0.67416	0.25556	-0.25
Mof_O 	O 	0.96913	0.79325	0.17719	-0.486
Mof_O 	O 	0.01225	0.80795	0.15629	-0.346
Mof_O 	O 	0.86166	0.68952	0.4981	-0.355
Mof_O 	O 	0.88022	0.63942	0.52838	-0.477
Mof_O 	O 	0.53245	0.45361	0.91985	-0.244
Mof_O 	O 	0.59772	0.47256	0.75556	-0.25
Mof_O 	O 	0.46913	0.56043	0.67719	-0.486
Mof_O 	O 	0.51225	0.52351	0.65629	-0.346
Mof_O 	O 	0.36166	0.45072	0.9981	-0.355
Mof_O 	O 	0.38022	0.45198	0.02838	-0.477
Mof_O 	O 	0.95361	0.03245	0.09409	-0.244
Mof_O 	O 	0.97256	0.09772	0.17416	-0.25
Mof_O 	O 	0.06043	0.96913	0.29325	-0.486
Mof_O 	O 	0.02351	0.01225	0.30795	-0.346
Mof_O 	O 	0.95072	0.86166	0.18952	-0.355
Mof_O 	O 	0.95198	0.88022	0.13942	-0.477
Mof_O 	O 	0.41985	0.09409	0.03245	-0.244
Mof_O 	O 	0.25556	0.17416	0.09772	-0.25
Mof_O 	O 	0.17719	0.29325	0.96913	-0.486
Mof_O 	O 	0.15629	0.30795	0.01225	-0.346
Mof_O 	O 	0.4981	0.18952	0.86166	-0.355
Mof_O 	O 	0.52838	0.13942	0.88022	-0.477
Mof_O 	O 	0.59409	0.91985	0.45361	-0.244
Mof_O 	O 	0.67416	0.75556	0.47256	-0.25
Mof_O 	O 	0.79325	0.67719	0.56043	-0.486
Mof_O 	O 	0.80795	0.65629	0.52351	-0.346
Mof_O 	O 	0.68952	0.9981	0.45072	-0.354
Mof_O 	O 	0.63942	0.02838	0.45198	-0.477
Mof_O 	O 	0.53245	0.91985	0.09409	-0.244
Mof_O 	O 	0.59772	0.75556	0.17416	-0.25
Mof_O 	O 	0.46913	0.67719	0.29325	-0.486
Mof_O 	O 	0.51225	0.65629	0.30795	-0.346
Mof_O 	O 	0.36166	0.9981	0.18952	-0.355
Mof_O 	O 	0.38022	0.02838	0.13942	-0.477
Mof_O 	O 	0.95361	0.09409	0.91985	-0.244
Mof_O 	O 	0.97256	0.17416	0.75556	-0.25
Mof_O 	O 	0.06043	0.29325	0.67719	-0.486
Mof_O 	O 	0.02351	0.30795	0.65629	-0.346
Mof_O 	O 	0.95072	0.18952	0.9981	-0.354
Mof_O 	O 	0.95198	0.13942	0.02838	-0.477
Mof_O 	O 	0.41985	0.03245	0.45361	-0.244
Mof_O 	O 	0.25556	0.09772	0.47256	-0.25
Mof_O 	O 	0.17719	0.96913	0.56043	-0.486
Mof_O 	O 	0.15629	0.01225	0.52351	-0.346
Mof_O 	O 	0.4981	0.86166	0.45072	-0.355
Mof_O 	O 	0.52838	0.88022	0.45198	-0.477
Mof_O 	O 	0.59409	0.45361	0.03245	-0.244
Mof_O 	O 	0.67416	0.47256	0.09772	-0.25
Mof_O 	O 	0.79325	0.56043	0.96913	-0.486
Mof_O 	O 	0.80795	0.52351	0.01225	-0.347
Mof_O 	O 	0.68952	0.45072	0.86166	-0.355
Mof_O 	O 	0.63942	0.45198	0.88022	-0.477
Mof_O 	O 	0.53245	0.09409	0.45361	-0.244
Mof_O 	O 	0.59772	0.17416	0.47256	-0.25
Mof_O 	O 	0.46913	0.29325	0.56043	-0.486
Mof_O 	O 	0.51225	0.30795	0.52351	-0.346
Mof_O 	O 	0.36166	0.18952	0.45072	-0.355
Mof_O 	O 	0.38022	0.13942	0.45198	-0.477
Mof_O 	O 	0.95361	0.91985	0.03245	-0.244
Mof_O 	O 	0.97256	0.75556	0.09772	-0.25
Mof_O 	O 	0.06043	0.67719	0.96913	-0.486
Mof_O 	O 	0.02351	0.65629	0.01225	-0.346
Mof_O 	O 	0.95072	0.9981	0.86166	-0.354
Mof_O 	O 	0.95198	0.02838	0.88022	-0.477
Mof_O 	O 	0.41985	0.45361	0.09409	-0.244
Mof_O 	O 	0.25556	0.47256	0.17416	-0.25
Mof_O 	O 	0.17719	0.56043	0.29325	-0.486
Mof_O 	O 	0.15629	0.52351	0.30795	-0.346
Mof_O 	O 	0.4981	0.45072	0.18952	-0.355
Mof_O 	O 	0.52838	0.45198	0.13942	-0.477
Mof_O 	O 	0.59409	0.03245	0.91985	-0.244
Mof_O 	O 	0.67416	0.09772	0.75556	-0.25
Mof_O 	O 	0.79325	0.96913	0.67719	-0.486
Mof_O 	O 	0.80795	0.01225	0.65629	-0.347
Mof_O 	O 	0.68952	0.86166	0.9981	-0.354
Mof_O 	O 	0.63942	0.88022	0.02838	-0.477
_end
