data_functionalizedCrystal
_audit_creation_method	'EQeq! by Chris Wilmer'
_symmetry_space_group_name_H-M	'P1'
_symmetry_Int_Tables_number	1
_symmetry_cell_setting	triclinic
loop_
_symmetry_equiv_pos_as_xyz
  x,y,z
_cell_length_a	10.128
_cell_length_b	12.648
_cell_length_c	15.467
_cell_angle_alpha	106.916
_cell_angle_beta	104.122
_cell_angle_gamma	104.247
loop_
_atom_site_label
_atom_site_type_symbol
_atom_site_fract_x
_atom_site_fract_y
_atom_site_fract_z
_atom_site_charge
Mof_Cd	Cd	0.53107	0.03352	0.14654	0.456
Mof_Cd	Cd	0.46893	0.96648	0.85346	0.456
Mof_H 	H 	0.7872	0.8757	0.8777	0.054
Mof_H 	H 	0.4782	0.2713	0.2409	0.026
Mof_H 	H 	0.8222	0.5599	0.3227	0.047
Mof_H 	H 	0.6079	0.2935	0.8147	0.046
Mof_H 	H 	0.8333	0.2393	0.2025	0.047
Mof_H 	H 	0.5423	0.2363	0.702	0.033
Mof_H 	H 	0.1667	0.7607	0.7975	0.047
Mof_H 	H 	0.1349	0.1831	0.7505	0.103
Mof_H 	H 	0.0148	0.3888	0.7457	0.019
Mof_H 	H 	0.9852	0.6112	0.2543	0.019
Mof_H 	H 	0.6299	0.5769	0.9841	0.121
Mof_H 	H 	0.9958	0.1003	0.1485	0.052
Mof_H 	H 	0.8651	0.8169	0.2495	0.103
Mof_H 	H 	0.3312	0.2854	0.7159	0.047
Mof_H 	H 	0.3522	0.1834	0.7502	0.05
Mof_H 	H 	0.8371	0.5988	0.9441	0.028
Mof_H 	H 	0.2162	0.901	0.13	0.047
Mof_H 	H 	0.6688	0.7146	0.2841	0.047
Mof_H 	H 	0.0689	0.8395	0.2059	0.021
Mof_H 	H 	0.7242	0.4159	0.0707	0.065
Mof_H 	H 	0.1629	0.4012	0.0559	0.028
Mof_H 	H 	0.9248	0.673	0.7286	0.019
Mof_H 	H 	0.2991	0.0152	0.4018	0.052
Mof_H 	H 	0.2979	0.9935	0.5451	0.053
Mof_H 	H 	0.7021	0.0065	0.4549	0.053
Mof_H 	H 	0.0588	0.5629	0.9592	0.05
Mof_H 	H 	0.2758	0.5841	0.9293	0.065
Mof_H 	H 	0.7884	0.3101	0.7512	0.105
Mof_H 	H 	0.2993	0.4034	0.2633	0.109
Mof_H 	H 	0.5218	0.7287	0.7591	0.026
Mof_H 	H 	0.7838	0.099	0.87	0.047
Mof_H 	H 	0.0752	0.327	0.2714	0.019
Mof_H 	H 	0.3701	0.4231	0.0159	0.121
Mof_H 	H 	0.1778	0.4401	0.6773	0.047
Mof_H 	H 	0.9311	0.1605	0.7941	0.021
Mof_H 	H 	0.7009	0.9848	0.5982	0.052
Mof_H 	H 	0.0042	0.8997	0.8515	0.052
Mof_H 	H 	0.4595	0.7659	0.0055	0.04
Mof_H 	H 	0.4169	0.5257	0.6935	0.071
Mof_H 	H 	0.5405	0.2341	0.9945	0.04
Mof_H 	H 	0.3921	0.7065	0.1853	0.046
Mof_H 	H 	0.7007	0.5966	0.7367	0.109
Mof_H 	H 	0.2128	0.1243	0.1223	0.054
Mof_H 	H 	0.2116	0.6899	0.2488	0.105
Mof_H 	H 	0.4577	0.7637	0.298	0.033
Mof_H 	H 	0.6478	0.8166	0.2498	0.05
Mof_H 	H 	0.5831	0.4743	0.3065	0.071
Mof_H 	H 	0.9412	0.4371	0.0408	0.05
Mof_C 	C 	0.3795	0.9959	0.5272	-0.028
Mof_C 	C 	0.859	0.7718	0.1883	-0.19
Mof_C 	C 	0.2722	0.3098	0.8773	0.22
Mof_C 	C 	0.5016	0.014	0.4139	-0.049
Mof_C 	C 	0.2812	0.372	0.9703	-0.188
Mof_C 	C 	0.157	0.3574	0.9944	0.037
Mof_C 	C 	0.2219	0.5215	0.7049	-0.032
Mof_C 	C 	0.0234	0.2787	0.9286	-0.043
Mof_C 	C 	0.6205	0.0041	0.4728	-0.028
Mof_C 	C 	0.1842	0.616	0.2526	-0.201
Mof_C 	C 	0.0486	0.5691	0.2568	0.044
Mof_C 	C 	0.9947	0.5391	0.7355	-0.046
Mof_C 	C 	0.7212	0.4452	0.7461	0.228
Mof_C 	C 	0.3929	0.2667	0.7636	-0.005
Mof_C 	C 	0.141	0.2282	0.8117	-0.19
Mof_C 	C 	0.9766	0.7213	0.0714	-0.043
Mof_C 	C 	0.8549	0.4089	0.2629	0.011
Mof_C 	C 	0.4586	0.7051	0.2416	0.02
Mof_C 	C 	0.0028	0.9409	0.9116	-0.016
Mof_C 	C 	0.7729	0.1639	0.9111	-0
Mof_C 	C 	0.4261	0.6945	0.7534	0.054
Mof_C 	C 	0.2172	0.7124	0.7757	0.007
Mof_C 	C 	0.2363	0.4458	0.2616	-0.194
Mof_C 	C 	0.898	0.5997	0.7334	0.044
Mof_C 	C 	0.6197	0.9907	0.5588	-0.03
Mof_C 	C 	0.5739	0.3055	0.2466	0.054
Mof_C 	C 	0.3803	0.0093	0.4412	-0.03
Mof_C 	C 	0.7278	0.6902	0.1227	0.22
Mof_C 	C 	0.4984	0.986	0.5861	-0.049
Mof_C 	C 	0.8728	0.9256	0.9275	-0.025
Mof_C 	C 	0.2622	0.6475	0.9702	-0.065
Mof_C 	C 	0.1314	0.0166	0.9836	-0.061
Mof_C 	C 	0.7378	0.3525	0.0298	-0.065
Mof_C 	C 	0.6364	0.4278	0.2863	-0.078
Mof_C 	C 	0.5003	0.0261	0.3195	0.276
Mof_C 	C 	0.4997	0.9739	0.6805	0.276
Mof_C 	C 	0.8158	0.384	0.7474	-0.201
Mof_C 	C 	0.7188	0.628	0.0297	-0.188
Mof_C 	C 	0.5414	0.2949	0.7584	0.02
Mof_C 	C 	0.7781	0.4785	0.2951	-0.032
Mof_C 	C 	0.2271	0.8361	0.0889	-0
Mof_C 	C 	0.9808	0.7852	0.1614	0.037
Mof_C 	C 	0.2788	0.5548	0.2539	0.228
Mof_C 	C 	0.843	0.6426	0.0056	0.037
Mof_C 	C 	0.1115	0.7307	0.0473	0.011
Mof_C 	C 	0.1272	0.0744	0.0725	-0.025
Mof_C 	C 	0.1451	0.5911	0.7371	0.011
Mof_C 	C 	0.1326	0.6357	0.9878	-0.04
Mof_C 	C 	0.102	0.4003	0.2666	0.044
Mof_C 	C 	0.9514	0.4309	0.7432	0.044
Mof_C 	C 	0.7259	0.971	0.033	0.3
Mof_C 	C 	0.8674	0.3643	0.0122	-0.04
Mof_C 	C 	0.0192	0.2148	0.8386	0.037
Mof_C 	C 	0.8686	0.9834	0.0164	-0.061
Mof_C 	C 	0.9972	0.0591	0.0884	-0.016
Mof_C 	C 	0.3713	0.7572	0.0157	0.044
Mof_C 	C 	0.7637	0.5542	0.7384	-0.194
Mof_C 	C 	0.6287	0.2428	0.9843	0.044
Mof_C 	C 	0.6071	0.7333	0.2364	-0.005
Mof_C 	C 	0.3636	0.5722	0.7137	-0.078
Mof_C 	C 	0.7828	0.2876	0.2243	0.007
Mof_C 	C 	0.2741	0.029	0.967	0.3
Mof_C 	C 	0.8885	0.2693	0.9527	0.011
Mof_C 	C 	0.0053	0.4609	0.2645	-0.046
Mof_N 	N 	0.3538	0.7639	0.7833	-0.126
Mof_N 	N 	0.6461	0.1505	0.9269	-0.13
Mof_N 	N 	0.3539	0.8495	0.0731	-0.13
Mof_N 	N 	0.6462	0.2361	0.2167	-0.126
Mof_O 	O 	0.7324	0.0208	0.1183	-0.278
Mof_O 	O 	0.5937	0.9412	0.7245	-0.263
Mof_O 	O 	0.4063	0.0588	0.2755	-0.263
Mof_O 	O 	0.4129	0.5914	0.2465	-0.231
Mof_O 	O 	0.3994	0.3343	0.8585	-0.22
Mof_O 	O 	0.6006	0.6657	0.1415	-0.22
Mof_O 	O 	0.39	0.0827	0.0372	-0.287
Mof_O 	O 	0.3999	0.9954	0.7114	-0.268
Mof_O 	O 	0.2676	0.9792	0.8817	-0.278
Mof_O 	O 	0.61	0.9173	0.9628	-0.287
Mof_O 	O 	0.5871	0.4086	0.7535	-0.231
Mof_O 	O 	0.6001	0.0046	0.2886	-0.268
_end
