data_functionalizedCrystal
_audit_creation_method	'EQeq! by Chris Wilmer'
_symmetry_space_group_name_H-M	'P1'
_symmetry_Int_Tables_number	1
_symmetry_cell_setting	triclinic
loop_
_symmetry_equiv_pos_as_xyz
  x,y,z
_cell_length_a	26.956
_cell_length_b	26.956
_cell_length_c	6.965
_cell_angle_alpha	90
_cell_angle_beta	90
_cell_angle_gamma	120
loop_
_atom_site_label
_atom_site_type_symbol
_atom_site_fract_x
_atom_site_fract_y
_atom_site_fract_z
_atom_site_charge
Mof_Cu	Cu	0.79043	0.67912	0.07219	0.929
Mof_O 	O 	0.82151	0.62811	0.0426	-0.478
Mof_O 	O 	0.763	0.7331	0.0807	-0.421
Mof_O 	O 	0.7205	0.7706	0.9147	-0.38
Mof_N 	N 	0.7596	0.6647	0.8166	-0.175
Mof_C 	C 	0.7793	0.5896	0.7343	-0.16
Mof_C 	C 	0.8067	0.5882	0.9066	0.286
Mof_C 	C 	0.8189	0.5438	0.9277	-0.3
Mof_H 	H 	0.8353	0.541	0.0415	0.151
Mof_C 	C 	0.8072	0.5044	0.7848	0.159
Mof_H 	H 	0.8157	0.4753	0.8035	-0.021
Mof_C 	C 	0.783	0.5074	0.6142	-0.201
Mof_H 	H 	0.7767	0.4814	0.5161	0.098
Mof_C 	C 	0.7686	0.5487	0.5903	0.081
Mof_H 	H 	0.7513	0.55	0.4764	0.004
Mof_C 	C 	0.759	0.6286	0.6969	0.058
Mof_H 	H 	0.7442	0.6275	0.5755	0.037
Mof_C 	C 	0.7362	0.7012	0.7614	-0.348
Mof_H 	H 	0.6965	0.6777	0.7225	0.138
Mof_H 	H 	0.7576	0.7252	0.6537	0.143
Mof_C 	C 	0.7402	0.7381	0.9298	0.416
Mof_Cu	Cu	0.4571	0.01245	0.40552	0.928
Mof_O 	O 	0.48818	0.96144	0.37593	-0.479
Mof_O 	O 	0.42967	0.06643	0.41403	-0.422
Mof_O 	O 	0.38717	0.10393	0.24803	-0.381
Mof_N 	N 	0.42627	0.99803	0.14993	-0.176
Mof_C 	C 	0.44597	0.92293	0.06763	-0.161
Mof_C 	C 	0.47337	0.92153	0.23993	0.285
Mof_C 	C 	0.48557	0.87713	0.26103	-0.301
Mof_H 	H 	0.50197	0.87433	0.37483	0.15
Mof_C 	C 	0.47387	0.83773	0.11813	0.158
Mof_H 	H 	0.48237	0.80863	0.13683	-0.022
Mof_C 	C 	0.44967	0.84073	0.94753	-0.202
Mof_H 	H 	0.44337	0.81473	0.84943	0.097
Mof_C 	C 	0.43527	0.88203	0.92363	0.08
Mof_H 	H 	0.41797	0.88333	0.80973	0.003
Mof_C 	C 	0.42567	0.96193	0.03023	0.057
Mof_H 	H 	0.41087	0.96083	0.90883	0.037
Mof_C 	C 	0.40287	0.03453	0.09473	-0.348
Mof_H 	H 	0.36317	0.01103	0.05583	0.138
Mof_H 	H 	0.42427	0.05853	0.98703	0.143
Mof_C 	C 	0.40687	0.07143	0.26313	0.416
Mof_Cu	Cu	0.12376	0.34579	0.73886	0.928
Mof_O 	O 	0.15484	0.29478	0.70927	-0.479
Mof_O 	O 	0.09633	0.39977	0.74737	-0.422
Mof_O 	O 	0.05383	0.43727	0.58137	-0.381
Mof_N 	N 	0.09293	0.33137	0.48327	-0.176
Mof_C 	C 	0.11263	0.25627	0.40097	-0.161
Mof_C 	C 	0.14003	0.25487	0.57327	0.285
Mof_C 	C 	0.15223	0.21047	0.59437	-0.301
Mof_H 	H 	0.16863	0.20767	0.70817	0.15
Mof_C 	C 	0.14053	0.17107	0.45147	0.158
Mof_H 	H 	0.14903	0.14197	0.47017	-0.022
Mof_C 	C 	0.11633	0.17407	0.28087	-0.202
Mof_H 	H 	0.11003	0.14807	0.18277	0.098
Mof_C 	C 	0.10193	0.21537	0.25697	0.08
Mof_H 	H 	0.08463	0.21667	0.14307	0.003
Mof_C 	C 	0.09233	0.29527	0.36357	0.057
Mof_H 	H 	0.07753	0.29417	0.24217	0.036
Mof_C 	C 	0.06953	0.36787	0.42807	-0.349
Mof_H 	H 	0.02983	0.34437	0.38917	0.138
Mof_H 	H 	0.09093	0.39187	0.32037	0.143
Mof_C 	C 	0.07353	0.40477	0.59647	0.416
Mof_Cu	Cu	0.32088	0.11131	0.07219	0.928
Mof_O 	O 	0.37189	0.1934	0.0426	-0.479
Mof_O 	O 	0.2669	0.0299	0.0807	-0.421
Mof_O 	O 	0.2294	0.9499	0.9147	-0.38
Mof_N 	N 	0.3353	0.0949	0.8166	-0.176
Mof_C 	C 	0.4104	0.1897	0.7343	-0.161
Mof_C 	C 	0.4118	0.2185	0.9066	0.285
Mof_C 	C 	0.4562	0.2751	0.9277	-0.301
Mof_H 	H 	0.459	0.2943	0.0415	0.15
Mof_C 	C 	0.4956	0.3028	0.7848	0.158
Mof_H 	H 	0.5247	0.3404	0.8035	-0.022
Mof_C 	C 	0.4926	0.2756	0.6142	-0.202
Mof_H 	H 	0.5186	0.2953	0.5161	0.097
Mof_C 	C 	0.4513	0.2199	0.5903	0.08
Mof_H 	H 	0.45	0.2013	0.4764	0.003
Mof_C 	C 	0.3714	0.1304	0.6969	0.057
Mof_H 	H 	0.3725	0.1167	0.5755	0.036
Mof_C 	C 	0.2988	0.035	0.7614	-0.349
Mof_H 	H 	0.3223	0.0188	0.7225	0.138
Mof_H 	H 	0.2748	0.0324	0.6537	0.143
Mof_C 	C 	0.2619	0.0021	0.9298	0.416
Mof_Cu	Cu	0.98755	0.44464	0.40552	0.928
Mof_O 	O 	0.03856	0.52673	0.37593	-0.479
Mof_O 	O 	0.93357	0.36323	0.41403	-0.422
Mof_O 	O 	0.89607	0.28323	0.24803	-0.38
Mof_N 	N 	0.00197	0.42823	0.14993	-0.176
Mof_C 	C 	0.07707	0.52303	0.06763	-0.161
Mof_C 	C 	0.07847	0.55183	0.23993	0.285
Mof_C 	C 	0.12287	0.60843	0.26103	-0.301
Mof_H 	H 	0.12567	0.62763	0.37483	0.15
Mof_C 	C 	0.16227	0.63613	0.11813	0.158
Mof_H 	H 	0.19137	0.67373	0.13683	-0.022
Mof_C 	C 	0.15927	0.60893	0.94753	-0.202
Mof_H 	H 	0.18527	0.62863	0.84943	0.097
Mof_C 	C 	0.11797	0.55323	0.92363	0.08
Mof_H 	H 	0.11667	0.53463	0.80973	0.003
Mof_C 	C 	0.03807	0.46373	0.03023	0.057
Mof_H 	H 	0.03917	0.45003	0.90883	0.036
Mof_C 	C 	0.96547	0.36833	0.09473	-0.348
Mof_H 	H 	0.98897	0.35213	0.05583	0.138
Mof_H 	H 	0.94147	0.36573	0.98703	0.142
Mof_C 	C 	0.92857	0.33543	0.26313	0.416
Mof_Cu	Cu	0.65421	0.77798	0.73886	0.928
Mof_O 	O 	0.70522	0.86007	0.70927	-0.479
Mof_O 	O 	0.60023	0.69657	0.74737	-0.422
Mof_O 	O 	0.56273	0.61657	0.58137	-0.381
Mof_N 	N 	0.66863	0.76157	0.48327	-0.176
Mof_C 	C 	0.74373	0.85637	0.40097	-0.161
Mof_C 	C 	0.74513	0.88517	0.57327	0.285
Mof_C 	C 	0.78953	0.94177	0.59437	-0.301
Mof_H 	H 	0.79233	0.96097	0.70817	0.15
Mof_C 	C 	0.82893	0.96947	0.45147	0.157
Mof_H 	H 	0.85803	0.00707	0.47017	-0.022
Mof_C 	C 	0.82593	0.94227	0.28087	-0.201
Mof_H 	H 	0.85193	0.96197	0.18277	0.097
Mof_C 	C 	0.78463	0.88657	0.25697	0.08
Mof_H 	H 	0.78333	0.86797	0.14307	0.004
Mof_C 	C 	0.70473	0.79707	0.36357	0.057
Mof_H 	H 	0.70583	0.78337	0.24217	0.036
Mof_C 	C 	0.63213	0.70167	0.42807	-0.349
Mof_H 	H 	0.65563	0.68547	0.38917	0.138
Mof_H 	H 	0.60813	0.69907	0.32037	0.143
Mof_C 	C 	0.59523	0.66877	0.59647	0.416
Mof_Cu	Cu	0.88869	0.20957	0.07219	0.928
Mof_O 	O 	0.8066	0.17849	0.0426	-0.479
Mof_O 	O 	0.9701	0.237	0.0807	-0.421
Mof_O 	O 	0.0501	0.2795	0.9147	-0.38
Mof_N 	N 	0.9051	0.2404	0.8166	-0.176
Mof_C 	C 	0.8103	0.2207	0.7343	-0.161
Mof_C 	C 	0.7815	0.1933	0.9066	0.285
Mof_C 	C 	0.7249	0.1811	0.9277	-0.301
Mof_H 	H 	0.7057	0.1647	0.0415	0.15
Mof_C 	C 	0.6972	0.1928	0.7848	0.158
Mof_H 	H 	0.6596	0.1843	0.8035	-0.022
Mof_C 	C 	0.7244	0.217	0.6142	-0.202
Mof_H 	H 	0.7047	0.2233	0.5161	0.097
Mof_C 	C 	0.7801	0.2314	0.5903	0.08
Mof_H 	H 	0.7987	0.2487	0.4764	0.003
Mof_C 	C 	0.8696	0.241	0.6969	0.057
Mof_H 	H 	0.8833	0.2558	0.5755	0.036
Mof_C 	C 	0.965	0.2638	0.7614	-0.349
Mof_H 	H 	0.9812	0.3035	0.7225	0.138
Mof_H 	H 	0.9676	0.2424	0.6537	0.143
Mof_C 	C 	0.9979	0.2598	0.9298	0.416
Mof_Cu	Cu	0.55536	0.5429	0.40552	0.928
Mof_O 	O 	0.47327	0.51182	0.37593	-0.479
Mof_O 	O 	0.63677	0.57033	0.41403	-0.422
Mof_O 	O 	0.71677	0.61283	0.24803	-0.381
Mof_N 	N 	0.57177	0.57373	0.14993	-0.176
Mof_C 	C 	0.47697	0.55403	0.06763	-0.161
Mof_C 	C 	0.44817	0.52663	0.23993	0.285
Mof_C 	C 	0.39157	0.51443	0.26103	-0.301
Mof_H 	H 	0.37237	0.49803	0.37483	0.15
Mof_C 	C 	0.36387	0.52613	0.11813	0.158
Mof_H 	H 	0.32627	0.51763	0.13683	-0.022
Mof_C 	C 	0.39107	0.55033	0.94753	-0.202
Mof_H 	H 	0.37137	0.55663	0.84943	0.097
Mof_C 	C 	0.44677	0.56473	0.92363	0.08
Mof_H 	H 	0.46537	0.58203	0.80973	0.003
Mof_C 	C 	0.53627	0.57433	0.03023	0.057
Mof_H 	H 	0.54997	0.58913	0.90883	0.036
Mof_C 	C 	0.63167	0.59713	0.09473	-0.349
Mof_H 	H 	0.64787	0.63683	0.05583	0.138
Mof_H 	H 	0.63427	0.57573	0.98703	0.143
Mof_C 	C 	0.66457	0.59313	0.26313	0.416
Mof_Cu	Cu	0.22202	0.87624	0.73886	0.928
Mof_O 	O 	0.13993	0.84516	0.70927	-0.479
Mof_O 	O 	0.30343	0.90367	0.74737	-0.422
Mof_O 	O 	0.38343	0.94617	0.58137	-0.381
Mof_N 	N 	0.23843	0.90707	0.48327	-0.176
Mof_C 	C 	0.14363	0.88737	0.40097	-0.162
Mof_C 	C 	0.11483	0.85997	0.57327	0.285
Mof_C 	C 	0.05823	0.84777	0.59437	-0.302
Mof_H 	H 	0.03903	0.83137	0.70817	0.151
Mof_C 	C 	0.03053	0.85947	0.45147	0.158
Mof_H 	H 	0.99293	0.85097	0.47017	-0.022
Mof_C 	C 	0.05773	0.88367	0.28087	-0.202
Mof_H 	H 	0.03803	0.88997	0.18277	0.098
Mof_C 	C 	0.11343	0.89807	0.25697	0.08
Mof_H 	H 	0.13203	0.91537	0.14307	0.003
Mof_C 	C 	0.20293	0.90767	0.36357	0.057
Mof_H 	H 	0.21663	0.92247	0.24217	0.036
Mof_C 	C 	0.29833	0.93047	0.42807	-0.349
Mof_H 	H 	0.31453	0.97017	0.38917	0.138
Mof_H 	H 	0.30093	0.90907	0.32037	0.143
Mof_C 	C 	0.33123	0.92647	0.59647	0.416
Mof_Cu	Cu	0.20957	0.32088	0.92781	0.928
Mof_O 	O 	0.17849	0.37189	0.9574	-0.479
Mof_O 	O 	0.237	0.2669	0.9193	-0.422
Mof_O 	O 	0.2795	0.2294	0.0853	-0.381
Mof_N 	N 	0.2404	0.3353	0.1834	-0.176
Mof_C 	C 	0.2207	0.4104	0.2657	-0.161
Mof_C 	C 	0.1933	0.4118	0.0934	0.285
Mof_C 	C 	0.1811	0.4562	0.0723	-0.301
Mof_H 	H 	0.1647	0.459	0.9585	0.15
Mof_C 	C 	0.1928	0.4956	0.2152	0.158
Mof_H 	H 	0.1843	0.5247	0.1965	-0.022
Mof_C 	C 	0.217	0.4926	0.3858	-0.202
Mof_H 	H 	0.2233	0.5186	0.4839	0.097
Mof_C 	C 	0.2314	0.4513	0.4097	0.08
Mof_H 	H 	0.2487	0.45	0.5236	0.003
Mof_C 	C 	0.241	0.3714	0.3031	0.057
Mof_H 	H 	0.2558	0.3725	0.4245	0.036
Mof_C 	C 	0.2638	0.2988	0.2386	-0.349
Mof_H 	H 	0.3035	0.3223	0.2775	0.138
Mof_H 	H 	0.2424	0.2748	0.3463	0.143
Mof_C 	C 	0.2598	0.2619	0.0702	0.416
Mof_Cu	Cu	0.87624	0.65421	0.26114	0.928
Mof_O 	O 	0.84516	0.70522	0.29073	-0.479
Mof_O 	O 	0.90367	0.60023	0.25263	-0.422
Mof_O 	O 	0.94617	0.56273	0.41863	-0.381
Mof_N 	N 	0.90707	0.66863	0.51673	-0.176
Mof_C 	C 	0.88737	0.74373	0.59903	-0.161
Mof_C 	C 	0.85997	0.74513	0.42673	0.285
Mof_C 	C 	0.84777	0.78953	0.40563	-0.301
Mof_H 	H 	0.83137	0.79233	0.29183	0.15
Mof_C 	C 	0.85947	0.82893	0.54853	0.158
Mof_H 	H 	0.85097	0.85803	0.52983	-0.022
Mof_C 	C 	0.88367	0.82593	0.71913	-0.202
Mof_H 	H 	0.88997	0.85193	0.81723	0.098
Mof_C 	C 	0.89807	0.78463	0.74303	0.08
Mof_H 	H 	0.91537	0.78333	0.85693	0.003
Mof_C 	C 	0.90767	0.70473	0.63643	0.057
Mof_H 	H 	0.92247	0.70583	0.75783	0.036
Mof_C 	C 	0.93047	0.63213	0.57193	-0.349
Mof_H 	H 	0.97017	0.65563	0.61083	0.138
Mof_H 	H 	0.90907	0.60813	0.67963	0.143
Mof_C 	C 	0.92647	0.59523	0.40353	0.416
Mof_Cu	Cu	0.5429	0.98755	0.59448	0.928
Mof_O 	O 	0.51182	0.03856	0.62407	-0.479
Mof_O 	O 	0.57033	0.93357	0.58597	-0.422
Mof_O 	O 	0.61283	0.89607	0.75197	-0.381
Mof_N 	N 	0.57373	0.00197	0.85007	-0.176
Mof_C 	C 	0.55403	0.07707	0.93237	-0.161
Mof_C 	C 	0.52663	0.07847	0.76007	0.285
Mof_C 	C 	0.51443	0.12287	0.73897	-0.301
Mof_H 	H 	0.49803	0.12567	0.62517	0.15
Mof_C 	C 	0.52613	0.16227	0.88187	0.158
Mof_H 	H 	0.51763	0.19137	0.86317	-0.022
Mof_C 	C 	0.55033	0.15927	0.05247	-0.202
Mof_H 	H 	0.55663	0.18527	0.15057	0.097
Mof_C 	C 	0.56473	0.11797	0.07637	0.08
Mof_H 	H 	0.58203	0.11667	0.19027	0.003
Mof_C 	C 	0.57433	0.03807	0.96977	0.057
Mof_H 	H 	0.58913	0.03917	0.09117	0.037
Mof_C 	C 	0.59713	0.96547	0.90527	-0.348
Mof_H 	H 	0.63683	0.98897	0.94417	0.138
Mof_H 	H 	0.57573	0.94147	0.01297	0.143
Mof_C 	C 	0.59313	0.92857	0.73687	0.416
Mof_Cu	Cu	0.67912	0.88869	0.92781	0.928
Mof_O 	O 	0.62811	0.8066	0.9574	-0.479
Mof_O 	O 	0.7331	0.9701	0.9193	-0.421
Mof_O 	O 	0.7706	0.0501	0.0853	-0.38
Mof_N 	N 	0.6647	0.9051	0.1834	-0.176
Mof_C 	C 	0.5896	0.8103	0.2657	-0.161
Mof_C 	C 	0.5882	0.7815	0.0934	0.285
Mof_C 	C 	0.5438	0.7249	0.0723	-0.301
Mof_H 	H 	0.541	0.7057	0.9585	0.15
Mof_C 	C 	0.5044	0.6972	0.2152	0.158
Mof_H 	H 	0.4753	0.6596	0.1965	-0.022
Mof_C 	C 	0.5074	0.7244	0.3858	-0.202
Mof_H 	H 	0.4814	0.7047	0.4839	0.097
Mof_C 	C 	0.5487	0.7801	0.4097	0.08
Mof_H 	H 	0.55	0.7987	0.5236	0.003
Mof_C 	C 	0.6286	0.8696	0.3031	0.057
Mof_H 	H 	0.6275	0.8833	0.4245	0.036
Mof_C 	C 	0.7012	0.965	0.2386	-0.349
Mof_H 	H 	0.6777	0.9812	0.2775	0.138
Mof_H 	H 	0.7252	0.9676	0.3463	0.143
Mof_C 	C 	0.7381	0.9979	0.0702	0.416
Mof_Cu	Cu	0.34579	0.22202	0.26114	0.928
Mof_O 	O 	0.29478	0.13993	0.29073	-0.479
Mof_O 	O 	0.39977	0.30343	0.25263	-0.422
Mof_O 	O 	0.43727	0.38343	0.41863	-0.381
Mof_N 	N 	0.33137	0.23843	0.51673	-0.176
Mof_C 	C 	0.25627	0.14363	0.59903	-0.161
Mof_C 	C 	0.25487	0.11483	0.42673	0.285
Mof_C 	C 	0.21047	0.05823	0.40563	-0.301
Mof_H 	H 	0.20767	0.03903	0.29183	0.15
Mof_C 	C 	0.17107	0.03053	0.54853	0.157
Mof_H 	H 	0.14197	0.99293	0.52983	-0.022
Mof_C 	C 	0.17407	0.05773	0.71913	-0.201
Mof_H 	H 	0.14807	0.03803	0.81723	0.097
Mof_C 	C 	0.21537	0.11343	0.74303	0.08
Mof_H 	H 	0.21667	0.13203	0.85693	0.004
Mof_C 	C 	0.29527	0.20293	0.63643	0.057
Mof_H 	H 	0.29417	0.21663	0.75783	0.036
Mof_C 	C 	0.36787	0.29833	0.57193	-0.349
Mof_H 	H 	0.34437	0.31453	0.61083	0.138
Mof_H 	H 	0.39187	0.30093	0.67963	0.143
Mof_C 	C 	0.40477	0.33123	0.40353	0.416
Mof_Cu	Cu	0.01245	0.55536	0.59448	0.928
Mof_O 	O 	0.96144	0.47327	0.62407	-0.479
Mof_O 	O 	0.06643	0.63677	0.58597	-0.422
Mof_O 	O 	0.10393	0.71677	0.75197	-0.38
Mof_N 	N 	0.99803	0.57177	0.85007	-0.176
Mof_C 	C 	0.92293	0.47697	0.93237	-0.161
Mof_C 	C 	0.92153	0.44817	0.76007	0.285
Mof_C 	C 	0.87713	0.39157	0.73897	-0.301
Mof_H 	H 	0.87433	0.37237	0.62517	0.15
Mof_C 	C 	0.83773	0.36387	0.88187	0.158
Mof_H 	H 	0.80863	0.32627	0.86317	-0.022
Mof_C 	C 	0.84073	0.39107	0.05247	-0.202
Mof_H 	H 	0.81473	0.37137	0.15057	0.097
Mof_C 	C 	0.88203	0.44677	0.07637	0.08
Mof_H 	H 	0.88333	0.46537	0.19027	0.003
Mof_C 	C 	0.96193	0.53627	0.96977	0.057
Mof_H 	H 	0.96083	0.54997	0.09117	0.036
Mof_C 	C 	0.03453	0.63167	0.90527	-0.348
Mof_H 	H 	0.01103	0.64787	0.94417	0.138
Mof_H 	H 	0.05853	0.63427	0.01297	0.142
Mof_C 	C 	0.07143	0.66457	0.73687	0.416
Mof_Cu	Cu	0.11131	0.79043	0.92781	0.928
Mof_O 	O 	0.1934	0.82151	0.9574	-0.479
Mof_O 	O 	0.0299	0.763	0.9193	-0.421
Mof_O 	O 	0.9499	0.7205	0.0853	-0.38
Mof_N 	N 	0.0949	0.7596	0.1834	-0.176
Mof_C 	C 	0.1897	0.7793	0.2657	-0.161
Mof_C 	C 	0.2185	0.8067	0.0934	0.285
Mof_C 	C 	0.2751	0.8189	0.0723	-0.301
Mof_H 	H 	0.2943	0.8353	0.9585	0.15
Mof_C 	C 	0.3028	0.8072	0.2152	0.158
Mof_H 	H 	0.3404	0.8157	0.1965	-0.022
Mof_C 	C 	0.2756	0.783	0.3858	-0.202
Mof_H 	H 	0.2953	0.7767	0.4839	0.097
Mof_C 	C 	0.2199	0.7686	0.4097	0.08
Mof_H 	H 	0.2013	0.7513	0.5236	0.003
Mof_C 	C 	0.1304	0.759	0.3031	0.057
Mof_H 	H 	0.1167	0.7442	0.4245	0.036
Mof_C 	C 	0.035	0.7362	0.2386	-0.349
Mof_H 	H 	0.0188	0.6965	0.2775	0.138
Mof_H 	H 	0.0324	0.7576	0.3463	0.143
Mof_C 	C 	0.0021	0.7402	0.0702	0.416
Mof_Cu	Cu	0.77798	0.12376	0.26114	0.928
Mof_O 	O 	0.86007	0.15484	0.29073	-0.479
Mof_O 	O 	0.69657	0.09633	0.25263	-0.422
Mof_O 	O 	0.61657	0.05383	0.41863	-0.381
Mof_N 	N 	0.76157	0.09293	0.51673	-0.176
Mof_C 	C 	0.85637	0.11263	0.59903	-0.162
Mof_C 	C 	0.88517	0.14003	0.42673	0.285
Mof_C 	C 	0.94177	0.15223	0.40563	-0.302
Mof_H 	H 	0.96097	0.16863	0.29183	0.151
Mof_C 	C 	0.96947	0.14053	0.54853	0.158
Mof_H 	H 	0.00707	0.14903	0.52983	-0.022
Mof_C 	C 	0.94227	0.11633	0.71913	-0.202
Mof_H 	H 	0.96197	0.11003	0.81723	0.098
Mof_C 	C 	0.88657	0.10193	0.74303	0.08
Mof_H 	H 	0.86797	0.08463	0.85693	0.003
Mof_C 	C 	0.79707	0.09233	0.63643	0.057
Mof_H 	H 	0.78337	0.07753	0.75783	0.036
Mof_C 	C 	0.70167	0.06953	0.57193	-0.349
Mof_H 	H 	0.68547	0.02983	0.61083	0.138
Mof_H 	H 	0.69907	0.09093	0.67963	0.143
Mof_C 	C 	0.66877	0.07353	0.40353	0.416
Mof_Cu	Cu	0.44464	0.4571	0.59448	0.928
Mof_O 	O 	0.52673	0.48818	0.62407	-0.479
Mof_O 	O 	0.36323	0.42967	0.58597	-0.422
Mof_O 	O 	0.28323	0.38717	0.75197	-0.381
Mof_N 	N 	0.42823	0.42627	0.85007	-0.176
Mof_C 	C 	0.52303	0.44597	0.93237	-0.161
Mof_C 	C 	0.55183	0.47337	0.76007	0.285
Mof_C 	C 	0.60843	0.48557	0.73897	-0.301
Mof_H 	H 	0.62763	0.50197	0.62517	0.15
Mof_C 	C 	0.63613	0.47387	0.88187	0.158
Mof_H 	H 	0.67373	0.48237	0.86317	-0.022
Mof_C 	C 	0.60893	0.44967	0.05247	-0.202
Mof_H 	H 	0.62863	0.44337	0.15057	0.097
Mof_C 	C 	0.55323	0.43527	0.07637	0.08
Mof_H 	H 	0.53463	0.41797	0.19027	0.003
Mof_C 	C 	0.46373	0.42567	0.96977	0.057
Mof_H 	H 	0.45003	0.41087	0.09117	0.036
Mof_C 	C 	0.36833	0.40287	0.90527	-0.349
Mof_H 	H 	0.35213	0.36317	0.94417	0.138
Mof_H 	H 	0.36573	0.42427	0.01297	0.143
Mof_C 	C 	0.33543	0.40687	0.73687	0.416
_end
