data_functionalizedCrystal
_audit_creation_method	'EQeq! by Chris Wilmer'
_symmetry_space_group_name_H-M	'P1'
_symmetry_Int_Tables_number	1
_symmetry_cell_setting	triclinic
loop_
_symmetry_equiv_pos_as_xyz
  x,y,z
_cell_length_a	6.6318
_cell_length_b	18.3719
_cell_length_c	8.4126
_cell_angle_alpha	90
_cell_angle_beta	90
_cell_angle_gamma	90
loop_
_atom_site_label
_atom_site_type_symbol
_atom_site_fract_x
_atom_site_fract_y
_atom_site_fract_z
_atom_site_charge
Mof_O 	O 	0.9856	0.0501	0.4301	-0.166
Mof_O 	O 	0.6654	0.0951	0.2271	-0.401
Mof_O 	O 	0.3202	0.2571	0.8453	-0.558
Mof_C 	C 	0.2344	0.2436	0.9747	0.703
Mof_H 	H 	0.2132	0.283	0.0459	-0.237
Mof_O 	O 	0.1753	0.1826	0.0166	-0.536
Mof_O 	O 	0.4856	0.5501	0.4301	-0.547
Mof_O 	O 	0.1654	0.5951	0.2271	-0.445
Mof_O 	O 	0.8202	0.7571	0.8453	-0.432
Mof_C 	C 	0.7344	0.7436	0.9747	0.704
Mof_H 	H 	0.7132	0.783	0.0459	-0.187
Mof_O 	O 	0.6753	0.6826	0.0166	-0.517
Mof_O 	O 	0.0144	0.9499	0.9301	-0.646
Mof_O 	O 	0.3346	0.9049	0.7271	-0.425
Mof_O 	O 	0.6798	0.7429	0.3453	-0.493
Mof_C 	C 	0.7656	0.7564	0.4747	0.59
Mof_H 	H 	0.7868	0.717	0.5459	-0.126
Mof_O 	O 	0.8247	0.8174	0.5166	-0.399
Mof_O 	O 	0.5144	0.4499	0.9301	-0.504
Mof_O 	O 	0.8346	0.4049	0.7271	-0.304
Mof_O 	O 	0.1798	0.2429	0.3453	-0.529
Mof_C 	C 	0.2656	0.2564	0.4747	0.59
Mof_H 	H 	0.2868	0.217	0.5459	-0.177
Mof_O 	O 	0.3247	0.3174	0.5166	-0.508
Mof_O 	O 	0.0144	0.0501	0.0699	-0.715
Mof_O 	O 	0.3346	0.0951	0.2729	-0.449
Mof_O 	O 	0.6798	0.2571	0.6547	-0.496
Mof_C 	C 	0.7656	0.2436	0.5253	0.593
Mof_H 	H 	0.7868	0.283	0.4541	-0.131
Mof_O 	O 	0.8247	0.1826	0.4834	-0.406
Mof_O 	O 	0.5144	0.5501	0.0699	-0.531
Mof_O 	O 	0.8346	0.5951	0.2729	-0.308
Mof_O 	O 	0.1798	0.7571	0.6547	-0.527
Mof_C 	C 	0.2656	0.7436	0.5253	0.589
Mof_H 	H 	0.2868	0.783	0.4541	-0.176
Mof_O 	O 	0.3247	0.6826	0.4834	-0.506
Mof_O 	O 	0.9856	0.9499	0.5699	-0.119
Mof_O 	O 	0.6654	0.9049	0.7729	-0.369
Mof_O 	O 	0.3202	0.7429	0.1547	-0.505
Mof_C 	C 	0.2344	0.7564	0.0253	0.472
Mof_H 	H 	0.2132	0.717	0.9541	-0.126
Mof_O 	O 	0.1753	0.8174	0.9834	-0.427
Mof_O 	O 	0.4856	0.4499	0.5699	-0.548
Mof_O 	O 	0.1654	0.4049	0.7729	-0.436
Mof_O 	O 	0.8202	0.2429	0.1547	-0.381
Mof_C 	C 	0.7344	0.2564	0.0253	0.459
Mof_H 	H 	0.7132	0.217	0.9541	-0.071
Mof_O 	O 	0.6753	0.3174	0.9834	-0.405
Mof_Er	Er	1.04247e-32	0.14293	0.25	1.823
Mof_Er	Er	0.5	0.64293	0.25	2.251
Mof_Er	Er	2.81955e-32	0.85707	0.75	1.83
Mof_Er	Er	0.5	0.35707	0.75	2.258
Mof_C 	C 	0.0756	-3.07854e-33	0.5	-0.043
Mof_H 	H 	0.2188	-3.07854e-33	0.5	0.041
Mof_C 	C 	0.5756	0.5	0.5	0.688
Mof_H 	H 	0.7188	0.5	0.5	-0.142
Mof_C 	C 	0.9244	0	-0	1.03
Mof_H 	H 	0.7812	0	-0	-0.27
Mof_C 	C 	0.4244	0.5	-0	0.643
Mof_H 	H 	0.2812	0.5	-0	-0.186
Mof_C 	C 	0.5	0.1266	0.25	0.533
Mof_H 	H 	0.5	0.1783	0.25	-0.146
Mof_C 	C 	1.65817e-32	0.6266	0.25	0.324
Mof_H 	H 	-8.04657e-33	0.6783	0.25	-0.143
Mof_C 	C 	0.5	0.8734	0.75	0.534
Mof_H 	H 	0.5	0.8217	0.75	-0.14
Mof_C 	C 	2.81955e-32	0.3734	0.75	0.324
Mof_H 	H 	3.56715e-33	0.3217	0.75	-0.14
_end
