data_functionalizedCrystal
_audit_creation_method	'EQeq! by Chris Wilmer'
_symmetry_space_group_name_H-M	'P1'
_symmetry_Int_Tables_number	1
_symmetry_cell_setting	triclinic
loop_
_symmetry_equiv_pos_as_xyz
  x,y,z
_cell_length_a	10.888
_cell_length_b	12.822
_cell_length_c	13.4783
_cell_angle_alpha	118.402
_cell_angle_beta	109.353
_cell_angle_gamma	90
loop_
_atom_site_label
_atom_site_type_symbol
_atom_site_fract_x
_atom_site_fract_y
_atom_site_fract_z
_atom_site_charge
Mof_Cd	Cd	0.75	0.92086	-0	0.31
Mof_Cd	Cd	0.25	0.07914	-0	0.314
Mof_H 	H 	0.8929	0.7844	0.14	0.015
Mof_H 	H 	0.8796	0.7102	0.2628	0.068
Mof_H 	H 	0.6994	0.733	0.3258	0.058
Mof_H 	H 	0.5586	0.9009	0.1356	0.023
Mof_H 	H 	0.4092	0.8074	0.2012	0.023
Mof_H 	H 	0.4959	0.9302	0.323	0.031
Mof_H 	H 	0.5353	0.7544	0.5174	0.131
Mof_H 	H 	0.4193	0.7997	0.6452	-0.013
Mof_H 	H 	0.2352	0.8912	0.6188	0.106
Mof_H 	H 	0.2873	0.8942	0.3346	0.121
Mof_H 	H 	0.1008	0.9766	0.392	0.064
Mof_H 	H 	0.6071	0.6444	0.86	0.031
Mof_H 	H 	0.6204	0.4474	0.7372	0.073
Mof_H 	H 	0.8006	0.4072	0.6742	0.06
Mof_H 	H 	0.9414	0.7653	0.8644	0.037
Mof_H 	H 	0.0908	0.6062	0.7988	0.038
Mof_H 	H 	0.0041	0.6072	0.677	0.035
Mof_H 	H 	0.9647	0.237	0.4826	0.126
Mof_H 	H 	0.0807	0.1545	0.3548	-0.009
Mof_H 	H 	0.2648	0.2724	0.3812	0.105
Mof_H 	H 	0.2127	0.5596	0.6654	0.123
Mof_H 	H 	0.3992	0.5846	0.608	0.066
Mof_H 	H 	0.1071	0.2156	0.86	0.032
Mof_H 	H 	0.1204	0.2898	0.7372	0.073
Mof_H 	H 	0.3006	0.267	0.6742	0.062
Mof_H 	H 	0.4414	0.0991	0.8644	0.04
Mof_H 	H 	0.5908	0.1926	0.7988	0.038
Mof_H 	H 	0.5041	0.0698	0.677	0.037
Mof_H 	H 	0.4647	0.2456	0.4826	0.132
Mof_H 	H 	0.5807	0.2003	0.3548	-0.013
Mof_H 	H 	0.7648	0.1088	0.3812	0.107
Mof_H 	H 	0.7127	0.1058	0.6654	0.125
Mof_H 	H 	0.8992	0.0234	0.608	0.066
Mof_H 	H 	0.3929	0.3556	0.14	0.016
Mof_H 	H 	0.3796	0.5526	0.2628	0.069
Mof_H 	H 	0.1994	0.5928	0.3258	0.06
Mof_H 	H 	0.0586	0.2347	0.1356	0.026
Mof_H 	H 	0.9092	0.3938	0.2012	0.024
Mof_H 	H 	0.9959	0.3928	0.323	0.032
Mof_H 	H 	0.0353	0.763	0.5174	0.134
Mof_H 	H 	0.9193	0.8455	0.6452	-0.016
Mof_H 	H 	0.7352	0.7276	0.6188	0.107
Mof_H 	H 	0.7873	0.4404	0.3346	0.123
Mof_H 	H 	0.6008	0.4154	0.392	0.066
Mof_C 	C 	0.8193	0.79356	0.16452	0.047
Mof_C 	C 	0.8123	0.7495	0.2378	-0.081
Mof_C 	C 	0.706	0.7629	0.275	-0.017
Mof_C 	C 	0.6096	0.82076	0.23692	-0.006
Mof_C 	C 	0.6247	0.8616	0.1624	0.009
Mof_C 	C 	0.4924	0.84243	0.27426	0.028
Mof_C 	C 	0.4217	0.82048	0.41536	0.27
Mof_C 	C 	0.4608	0.7922	0.5068	-0.254
Mof_C 	C 	0.3918	0.81874	0.58208	0.141
Mof_C 	C 	0.2825	0.873	0.5664	-0.204
Mof_C 	C 	0.242	0.90102	0.47364	0.158
Mof_C 	C 	0.3132	0.87478	0.39756	-0.26
Mof_C 	C 	0.1248	0.95514	0.45348	-0.062
Mof_C 	C 	0.9088	0.01694	0.87548	0.085
Mof_C 	C 	0.6807	0.62904	0.83548	0.054
Mof_C 	C 	0.6877	0.5117	0.7622	-0.073
Mof_C 	C 	0.794	0.4879	0.725	-0.016
Mof_C 	C 	0.8904	0.58384	0.76308	0.002
Mof_C 	C 	0.8753	0.6992	0.8376	0.015
Mof_C 	C 	0.0076	0.56817	0.72574	0.022
Mof_C 	C 	0.0783	0.40512	0.58464	0.266
Mof_C 	C 	0.0392	0.2854	0.4932	-0.242
Mof_C 	C 	0.1082	0.23666	0.41792	0.134
Mof_C 	C 	0.2175	0.3066	0.4336	-0.198
Mof_C 	C 	0.258	0.42738	0.52636	0.157
Mof_C 	C 	0.1868	0.47722	0.60244	-0.255
Mof_C 	C 	0.3752	0.50166	0.54652	-0.06
Mof_C 	C 	0.5912	0.14146	0.12452	0.07
Mof_C 	C 	0.1807	0.20644	0.83548	0.054
Mof_C 	C 	0.1877	0.2505	0.7622	-0.071
Mof_C 	C 	0.294	0.2371	0.725	-0.018
Mof_C 	C 	0.3904	0.17924	0.76308	0.007
Mof_C 	C 	0.3753	0.1384	0.8376	0.014
Mof_C 	C 	0.5076	0.15757	0.72574	0.018
Mof_C 	C 	0.5783	0.17952	0.58464	0.271
Mof_C 	C 	0.5392	0.2078	0.4932	-0.253
Mof_C 	C 	0.6082	0.18126	0.41792	0.142
Mof_C 	C 	0.7175	0.127	0.4336	-0.203
Mof_C 	C 	0.758	0.09898	0.52636	0.161
Mof_C 	C 	0.6868	0.12522	0.60244	-0.259
Mof_C 	C 	0.8752	0.04486	0.54652	-0.061
Mof_C 	C 	0.0912	0.98306	0.12452	0.061
Mof_C 	C 	0.3193	0.37096	0.16452	0.047
Mof_C 	C 	0.3123	0.4883	0.2378	-0.079
Mof_C 	C 	0.206	0.5121	0.275	-0.019
Mof_C 	C 	0.1096	0.41616	0.23692	-0.002
Mof_C 	C 	0.1247	0.3008	0.1624	0.008
Mof_C 	C 	0.9924	0.43183	0.27426	0.024
Mof_C 	C 	0.9217	0.59488	0.41536	0.273
Mof_C 	C 	0.9608	0.7146	0.5068	-0.26
Mof_C 	C 	0.8918	0.76334	0.58208	0.145
Mof_C 	C 	0.7825	0.6934	0.5664	-0.206
Mof_C 	C 	0.742	0.57262	0.47364	0.161
Mof_C 	C 	0.8132	0.52278	0.39756	-0.262
Mof_C 	C 	0.6248	0.49834	0.45348	-0.063
Mof_C 	C 	0.4088	0.85854	0.87548	0.087
Mof_S 	S 	0.74787	0.98271	0.83304	-0.072
Mof_S 	S 	0.75213	0.14967	0.16696	-0.096
Mof_S 	S 	0.25213	0.01729	0.16696	-0.088
Mof_S 	S 	0.24787	0.85033	0.83304	-0.07
Mof_N 	N 	0.7266	0.84902	0.12604	-0.141
Mof_N 	N 	0.0541	0.97403	0.51706	-0.073
Mof_N 	N 	0.0219	0.03912	0.90204	-0.136
Mof_N 	N 	0.7734	0.72298	0.87396	-0.124
Mof_N 	N 	0.4459	0.45697	0.48294	-0.071
Mof_N 	N 	0.4781	0.13708	0.09796	-0.16
Mof_N 	N 	0.2734	0.15098	0.87396	-0.123
Mof_N 	N 	0.9459	0.02597	0.48294	-0.07
Mof_N 	N 	0.9781	0.96088	0.09796	-0.159
Mof_N 	N 	0.2266	0.27702	0.12604	-0.14
Mof_N 	N 	0.5541	0.54303	0.51706	-0.071
Mof_N 	N 	0.5219	0.86292	0.90204	-0.141
Mof_O 	O 	0.4962	0.7872	0.3442	-0.25
Mof_O 	O 	0.0038	0.443	0.6558	-0.243
Mof_O 	O 	0.5038	0.2128	0.6558	-0.244
Mof_O 	O 	0.9962	0.557	0.3442	-0.251
_end
