data_functionalizedCrystal
_audit_creation_method	'EQeq! by Chris Wilmer'
_symmetry_space_group_name_H-M	'P1'
_symmetry_Int_Tables_number	1
_symmetry_cell_setting	triclinic
loop_
_symmetry_equiv_pos_as_xyz
  x,y,z
_cell_length_a	8.5303
_cell_length_b	9.0531
_cell_length_c	11.9918
_cell_angle_alpha	90
_cell_angle_beta	90
_cell_angle_gamma	90
loop_
_atom_site_label
_atom_site_type_symbol
_atom_site_fract_x
_atom_site_fract_y
_atom_site_fract_z
_atom_site_charge
Mof_Mn	Mn	0.24916	0.25	0.75	1.065
Mof_Mn	Mn	0.25084	0.25	0.25	1.056
Mof_Mn	Mn	0.75084	0.75	0.25	1.057
Mof_Mn	Mn	0.74916	0.75	0.75	1.066
Mof_H 	H 	0.4178	0.5645	0.768	-0.112
Mof_H 	H 	0.0822	0.9355	0.268	-0.112
Mof_H 	H 	0.0822	0.5645	0.232	-0.122
Mof_H 	H 	0.25	0.2926	0.5	-0.108
Mof_H 	H 	0.75	0.7074	0.5	-0.108
Mof_H 	H 	0.9178	0.0645	0.732	-0.107
Mof_H 	H 	0.4178	0.9355	0.732	-0.114
Mof_H 	H 	0.5822	0.0645	0.268	-0.118
Mof_H 	H 	0.9178	0.4355	0.768	-0.111
Mof_H 	H 	0.25	0.2074	-0	-0.091
Mof_H 	H 	0.75	0.7926	-0	-0.092
Mof_H 	H 	0.5822	0.4355	0.232	-0.122
Mof_C 	C 	0.75	0.6899	-0	0.393
Mof_C 	C 	0.98122	0.01555	0.78312	0.487
Mof_C 	C 	0.51878	0.01555	0.21688	0.513
Mof_C 	C 	0.25	0.3101	-0	0.388
Mof_C 	C 	0.51878	0.48445	0.28312	0.514
Mof_C 	C 	0.01878	0.98445	0.21688	0.491
Mof_C 	C 	0.98122	0.48445	0.71688	0.51
Mof_C 	C 	0.01878	0.51555	0.28312	0.512
Mof_C 	C 	0.75	0.8101	0.5	0.502
Mof_C 	C 	0.25	0.1899	0.5	0.502
Mof_C 	C 	0.48122	0.51555	0.71688	0.514
Mof_C 	C 	0.48122	0.98445	0.78312	0.511
Mof_O 	O 	0.75545	0.87083	0.40768	-0.373
Mof_O 	O 	0.74455	0.87083	0.59232	-0.375
Mof_O 	O 	0.59623	0.58387	0.68019	-0.384
Mof_O 	O 	0.90377	0.58387	0.31981	-0.385
Mof_O 	O 	0.90377	0.91613	0.18019	-0.382
Mof_O 	O 	0.09623	0.41613	0.68019	-0.381
Mof_O 	O 	0.55652	0.6121	0.30856	-0.369
Mof_O 	O 	0.09623	0.08387	0.81981	-0.358
Mof_O 	O 	0.24455	0.12917	0.59232	-0.374
Mof_O 	O 	0.44348	0.1121	0.80856	-0.354
Mof_O 	O 	0.25545	0.37083	0.09232	-0.358
Mof_O 	O 	0.24455	0.37083	0.90768	-0.303
Mof_O 	O 	0.05652	0.1121	0.19144	-0.365
Mof_O 	O 	0.94348	0.6121	0.69144	-0.365
Mof_O 	O 	0.44348	0.3879	0.69144	-0.366
Mof_O 	O 	0.05652	0.3879	0.30856	-0.368
Mof_O 	O 	0.55652	0.8879	0.19144	-0.374
Mof_O 	O 	0.74455	0.62917	0.90768	-0.306
Mof_O 	O 	0.94348	0.8879	0.80856	-0.344
Mof_O 	O 	0.59623	0.91613	0.81981	-0.37
Mof_O 	O 	0.40377	0.08387	0.18019	-0.392
Mof_O 	O 	0.25545	0.12917	0.40768	-0.373
Mof_O 	O 	0.40377	0.41613	0.31981	-0.386
Mof_O 	O 	0.75545	0.62917	0.09232	-0.359
_end
