data_functionalizedCrystal
_audit_creation_method	'EQeq! by Chris Wilmer'
_symmetry_space_group_name_H-M	'P1'
_symmetry_Int_Tables_number	1
_symmetry_cell_setting	triclinic
loop_
_symmetry_equiv_pos_as_xyz
  x,y,z
_cell_length_a	36.768
_cell_length_b	21.228
_cell_length_c	19.238
_cell_angle_alpha	90
_cell_angle_beta	90
_cell_angle_gamma	90
loop_
_atom_site_label
_atom_site_type_symbol
_atom_site_fract_x
_atom_site_fract_y
_atom_site_fract_z
_atom_site_charge
Mof_C 	C 	0.97283	0.1477	0.33	-0.035
Mof_C 	C 	0.00176	0.1849	0.3487	-0.034
Mof_H 	H 	0.9991	0.2285	0.3498	0.063
Mof_C 	C 	0.0349	0.1581	0.3657	-0.024
Mof_H 	H 	0.0541	0.1838	0.3791	0.038
Mof_C 	C 	0.03966	0.09494	0.3631	-0.045
Mof_C 	C 	0.01115	0.0575	0.3433	-0.028
Mof_H 	H 	0.0143	0.0141	0.3404	0.055
Mof_C 	C 	0.97749	0.0839	0.3274	-0.033
Mof_H 	H 	0.9581	0.0581	0.3151	0.045
Mof_C 	C 	0.07615	0.06444	0.3749	0.223
Mof_C 	C 	0.9382	0.1811	0.309	0.225
Mof_C 	C 	0.13456	0.08122	0.43647	0.102
Mof_C 	C 	0.15635	0.13029	0.46105	-0.038
Mof_H 	H 	0.147	0.1709	0.4634	0.044
Mof_C 	C 	0.19158	0.11914	0.48183	-0.151
Mof_C 	C 	0.20571	0.05839	0.47934	0.03
Mof_H 	H 	0.2294	0.0505	0.4939	0.035
Mof_C 	C 	0.18413	0.00976	0.45503	-0.058
Mof_C 	C 	0.1486	0.02057	0.43289	-0.086
Mof_H 	H 	0.1345	0.9876	0.4159	0.097
Mof_C 	C 	0.21466	0.17326	0.5071	0.534
Mof_C 	C 	0.19846	0.94362	0.45318	0.309
Mof_C 	C 	0.87404	0.17762	0.293	0.11
Mof_C 	C 	0.84918	0.17841	0.34685	-0.051
Mof_H 	H 	0.8543	0.1581	0.3885	0.069
Mof_C 	C 	0.81659	0.20984	0.33799	-0.13
Mof_C 	C 	0.80936	0.2405	0.27565	0.037
Mof_H 	H 	0.7877	0.2626	0.2703	0.017
Mof_C 	C 	0.83369	0.23859	0.22226	-0.07
Mof_C 	C 	0.86661	0.2072	0.23101	-0.073
Mof_H 	H 	0.8835	0.2061	0.1951	0.08
Mof_C 	C 	0.8256	0.2715	0.1546	0.336
Mof_C 	C 	0.79057	0.21372	0.397	0.491
Mof_C 	C 	0.46545	0.8524	0.7213	-0.046
Mof_C 	C 	0.48261	0.7994	0.7358	-0.032
Mof_H 	H 	0.4712	0.7612	0.7269	0.058
Mof_C 	C 	0.48204	0.9052	0.7363	-0.033
Mof_H 	H 	0.4702	0.9433	0.7289	0.034
Mof_C 	C 	0.42739	0.848	0.6915	0.228
Mof_C 	C 	0.37969	0.90765	0.6304	0.113
Mof_C 	C 	0.35896	0.85714	0.6083	-0.072
Mof_H 	H 	0.3664	0.8162	0.6178	0.09
Mof_C 	C 	0.32686	0.86785	0.57192	-0.109
Mof_C 	C 	0.31531	0.92829	0.55722	0.017
Mof_H 	H 	0.2939	0.9348	0.5326	0.038
Mof_C 	C 	0.33598	0.9794	0.57954	-0.064
Mof_C 	C 	0.36811	0.96881	0.6167	-0.093
Mof_H 	H 	0.3818	0.0028	0.6323	0.073
Mof_C 	C 	0.3049	0.81126	0.54944	0.48
Mof_C 	C 	0.325	0.04575	0.56363	0.331
Mof_N 	N 	0.90822	0.14741	0.30486	-0.23
Mof_H 	H 	0.9093	0.1052	0.3093	0.124
Mof_N 	N 	0.09845	0.09652	0.41728	-0.225
Mof_H 	H 	0.0893	0.132	0.4359	0.115
Mof_N 	N 	0.41341	0.90019	0.6655	-0.232
Mof_H 	H 	0.4269	0.9353	0.6706	0.115
Mof_O 	O 	0.20185	0.2272	0.503	-0.583
Mof_O 	O 	0.24508	0.16067	0.53117	-0.565
Mof_O 	O 	0.22876	0.93293	0.47955	-0.435
Mof_O 	O 	0.17981	0.90077	0.42546	-0.439
Mof_O 	O 	0.8489	0.27338	0.10844	-0.428
Mof_O 	O 	0.79473	0.29573	0.14629	-0.441
Mof_O 	O 	0.76283	0.24686	0.38653	-0.57
Mof_O 	O 	0.7981	0.18412	0.45114	-0.51
Mof_O 	O 	0.93914	0.2375	0.2967	-0.226
Mof_O 	O 	0.0836	0.01519	0.3466	-0.234
Mof_O 	O 	0.3006	0.05573	0.52049	-0.452
Mof_O 	O 	0.34076	0.08984	0.59267	-0.443
Mof_O 	O 	0.27927	0.82043	0.50788	-0.575
Mof_O 	O 	0.31369	0.759	0.57361	-0.512
Mof_O 	O 	0.41175	0.79821	0.6925	-0.244
Mof_Tb	Tb	0.22853	0.82431	0.43886	1.997
Mof_Tb	Tb	0.1932	0.32968	0.46965	1.893
Mof_C 	C 	0.47283	0.6477	0.33	-0.035
Mof_C 	C 	0.50176	0.6849	0.3487	-0.034
Mof_H 	H 	0.4991	0.7285	0.3498	0.063
Mof_C 	C 	0.5349	0.6581	0.3657	-0.024
Mof_H 	H 	0.5541	0.6838	0.3791	0.038
Mof_C 	C 	0.53966	0.59494	0.3631	-0.045
Mof_C 	C 	0.51115	0.5575	0.3433	-0.028
Mof_H 	H 	0.5143	0.5141	0.3404	0.056
Mof_C 	C 	0.47749	0.5839	0.3274	-0.033
Mof_H 	H 	0.4581	0.5581	0.3151	0.045
Mof_C 	C 	0.57615	0.56444	0.3749	0.223
Mof_C 	C 	0.4382	0.6811	0.309	0.225
Mof_C 	C 	0.63456	0.58122	0.43647	0.102
Mof_C 	C 	0.65635	0.63029	0.46105	-0.038
Mof_H 	H 	0.647	0.6709	0.4634	0.044
Mof_C 	C 	0.69158	0.61914	0.48183	-0.151
Mof_C 	C 	0.70571	0.55839	0.47934	0.03
Mof_H 	H 	0.7294	0.5505	0.4939	0.035
Mof_C 	C 	0.68413	0.50976	0.45503	-0.058
Mof_C 	C 	0.6486	0.52057	0.43289	-0.086
Mof_H 	H 	0.6345	0.4876	0.4159	0.097
Mof_C 	C 	0.71466	0.67326	0.5071	0.534
Mof_C 	C 	0.69846	0.44362	0.45318	0.309
Mof_C 	C 	0.37404	0.67762	0.293	0.11
Mof_C 	C 	0.34918	0.67841	0.34685	-0.051
Mof_H 	H 	0.3543	0.6581	0.3885	0.069
Mof_C 	C 	0.31659	0.70984	0.33799	-0.13
Mof_C 	C 	0.30936	0.7405	0.27565	0.037
Mof_H 	H 	0.2877	0.7626	0.2703	0.017
Mof_C 	C 	0.33369	0.73859	0.22226	-0.07
Mof_C 	C 	0.36661	0.7072	0.23101	-0.073
Mof_H 	H 	0.3835	0.7061	0.1951	0.08
Mof_C 	C 	0.3256	0.7715	0.1546	0.336
Mof_C 	C 	0.29057	0.71372	0.397	0.491
Mof_C 	C 	0.96545	0.3524	0.7213	-0.047
Mof_C 	C 	0.98261	0.2994	0.7358	-0.032
Mof_H 	H 	0.9712	0.2612	0.7269	0.058
Mof_C 	C 	0.98204	0.4052	0.7363	-0.032
Mof_H 	H 	0.9702	0.4433	0.7289	0.034
Mof_C 	C 	0.92739	0.348	0.6915	0.228
Mof_C 	C 	0.87969	0.40765	0.6304	0.113
Mof_C 	C 	0.85896	0.35714	0.6083	-0.072
Mof_H 	H 	0.8664	0.3162	0.6178	0.09
Mof_C 	C 	0.82686	0.36785	0.57192	-0.109
Mof_C 	C 	0.81531	0.42829	0.55722	0.017
Mof_H 	H 	0.7939	0.4348	0.5326	0.038
Mof_C 	C 	0.83598	0.4794	0.57954	-0.064
Mof_C 	C 	0.86811	0.46881	0.6167	-0.094
Mof_H 	H 	0.8818	0.5028	0.6323	0.074
Mof_C 	C 	0.8049	0.31126	0.54944	0.48
Mof_C 	C 	0.825	0.54575	0.56363	0.331
Mof_N 	N 	0.40822	0.64741	0.30486	-0.23
Mof_H 	H 	0.4093	0.6052	0.3093	0.124
Mof_N 	N 	0.59845	0.59652	0.41728	-0.225
Mof_H 	H 	0.5893	0.632	0.4359	0.115
Mof_N 	N 	0.91341	0.40019	0.6655	-0.232
Mof_H 	H 	0.9269	0.4353	0.6706	0.115
Mof_O 	O 	0.70185	0.7272	0.503	-0.583
Mof_O 	O 	0.74508	0.66067	0.53117	-0.565
Mof_O 	O 	0.72876	0.43293	0.47955	-0.435
Mof_O 	O 	0.67981	0.40077	0.42546	-0.438
Mof_O 	O 	0.3489	0.77338	0.10844	-0.428
Mof_O 	O 	0.29473	0.79573	0.14629	-0.441
Mof_O 	O 	0.26283	0.74686	0.38653	-0.57
Mof_O 	O 	0.2981	0.68412	0.45114	-0.51
Mof_O 	O 	0.43914	0.7375	0.2967	-0.226
Mof_O 	O 	0.5836	0.51519	0.3466	-0.234
Mof_O 	O 	0.8006	0.55573	0.52049	-0.452
Mof_O 	O 	0.84076	0.58984	0.59267	-0.443
Mof_O 	O 	0.77927	0.32043	0.50788	-0.575
Mof_O 	O 	0.81369	0.259	0.57361	-0.512
Mof_O 	O 	0.91175	0.29821	0.6925	-0.244
Mof_Tb	Tb	0.72853	0.32431	0.43886	1.997
Mof_Tb	Tb	0.6932	0.82968	0.46965	1.893
Mof_C 	C 	0.02717	0.1477	0.17	-0.035
Mof_C 	C 	0.99824	0.1849	0.1513	-0.034
Mof_H 	H 	0.0009	0.2285	0.1502	0.063
Mof_C 	C 	0.9651	0.1581	0.1343	-0.024
Mof_H 	H 	0.9459	0.1838	0.1209	0.038
Mof_C 	C 	0.96034	0.09494	0.1369	-0.045
Mof_C 	C 	0.98885	0.0575	0.1567	-0.028
Mof_H 	H 	0.9857	0.0141	0.1596	0.056
Mof_C 	C 	0.02251	0.0839	0.1726	-0.033
Mof_H 	H 	0.0419	0.0581	0.1849	0.045
Mof_C 	C 	0.92385	0.06444	0.1251	0.223
Mof_C 	C 	0.0618	0.1811	0.191	0.225
Mof_C 	C 	0.86544	0.08122	0.06353	0.102
Mof_C 	C 	0.84365	0.13029	0.03895	-0.038
Mof_H 	H 	0.853	0.1709	0.0366	0.044
Mof_C 	C 	0.80842	0.11914	0.01817	-0.15
Mof_C 	C 	0.79429	0.05839	0.02066	0.029
Mof_H 	H 	0.7706	0.0505	0.0061	0.036
Mof_C 	C 	0.81587	0.00976	0.04497	-0.057
Mof_C 	C 	0.8514	0.02057	0.06711	-0.085
Mof_H 	H 	0.8655	0.9876	0.0841	0.096
Mof_C 	C 	0.78534	0.17326	0.9929	0.533
Mof_C 	C 	0.80154	0.94362	0.04682	0.308
Mof_C 	C 	0.12596	0.17762	0.207	0.11
Mof_C 	C 	0.15082	0.17841	0.15315	-0.051
Mof_H 	H 	0.1457	0.1581	0.1115	0.069
Mof_C 	C 	0.18341	0.20984	0.16201	-0.13
Mof_C 	C 	0.19064	0.2405	0.22435	0.037
Mof_H 	H 	0.2123	0.2626	0.2297	0.017
Mof_C 	C 	0.16631	0.23859	0.27774	-0.07
Mof_C 	C 	0.13339	0.2072	0.26899	-0.073
Mof_H 	H 	0.1165	0.2061	0.3049	0.08
Mof_C 	C 	0.1744	0.2715	0.3454	0.336
Mof_C 	C 	0.20943	0.21372	0.103	0.491
Mof_C 	C 	0.53455	0.8524	0.7787	-0.046
Mof_C 	C 	0.51739	0.7994	0.7642	-0.032
Mof_H 	H 	0.5288	0.7612	0.7731	0.058
Mof_C 	C 	0.51796	0.9052	0.7637	-0.033
Mof_H 	H 	0.5298	0.9433	0.7711	0.035
Mof_C 	C 	0.57261	0.848	0.8085	0.228
Mof_C 	C 	0.62031	0.90765	0.8696	0.113
Mof_C 	C 	0.64104	0.85714	0.8917	-0.072
Mof_H 	H 	0.6336	0.8162	0.8822	0.09
Mof_C 	C 	0.67314	0.86785	0.92808	-0.109
Mof_C 	C 	0.68469	0.92829	0.94278	0.017
Mof_H 	H 	0.7061	0.9348	0.9674	0.039
Mof_C 	C 	0.66402	0.9794	0.92046	-0.063
Mof_C 	C 	0.63189	0.96881	0.8833	-0.092
Mof_H 	H 	0.6182	0.0028	0.8677	0.072
Mof_C 	C 	0.6951	0.81126	0.95056	0.48
Mof_C 	C 	0.675	0.04575	0.93637	0.33
Mof_N 	N 	0.09178	0.14741	0.19514	-0.23
Mof_H 	H 	0.0907	0.1052	0.1907	0.125
Mof_N 	N 	0.90155	0.09652	0.08272	-0.225
Mof_H 	H 	0.9107	0.132	0.0641	0.115
Mof_N 	N 	0.58659	0.90019	0.8345	-0.232
Mof_H 	H 	0.5731	0.9353	0.8294	0.115
Mof_O 	O 	0.79815	0.2272	0.997	-0.583
Mof_O 	O 	0.75492	0.16067	0.96883	-0.565
Mof_O 	O 	0.77124	0.93293	0.02045	-0.436
Mof_O 	O 	0.82019	0.90077	0.07454	-0.438
Mof_O 	O 	0.1511	0.27338	0.39156	-0.428
Mof_O 	O 	0.20527	0.29573	0.35371	-0.441
Mof_O 	O 	0.23717	0.24686	0.11347	-0.57
Mof_O 	O 	0.2019	0.18412	0.04886	-0.509
Mof_O 	O 	0.06086	0.2375	0.2033	-0.226
Mof_O 	O 	0.9164	0.01519	0.1534	-0.233
Mof_O 	O 	0.6994	0.05573	0.97951	-0.452
Mof_O 	O 	0.65924	0.08984	0.90733	-0.443
Mof_O 	O 	0.72073	0.82043	0.99212	-0.574
Mof_O 	O 	0.68631	0.759	0.92639	-0.512
Mof_O 	O 	0.58825	0.79821	0.8075	-0.244
Mof_Tb	Tb	0.77147	0.82431	0.06114	1.996
Mof_Tb	Tb	0.8068	0.32968	0.03035	1.894
Mof_C 	C 	0.52717	0.6477	0.17	-0.035
Mof_C 	C 	0.49824	0.6849	0.1513	-0.034
Mof_H 	H 	0.5009	0.7285	0.1502	0.063
Mof_C 	C 	0.4651	0.6581	0.1343	-0.024
Mof_H 	H 	0.4459	0.6838	0.1209	0.038
Mof_C 	C 	0.46034	0.59494	0.1369	-0.045
Mof_C 	C 	0.48885	0.5575	0.1567	-0.028
Mof_H 	H 	0.4857	0.5141	0.1596	0.056
Mof_C 	C 	0.52251	0.5839	0.1726	-0.033
Mof_H 	H 	0.5419	0.5581	0.1849	0.045
Mof_C 	C 	0.42385	0.56444	0.1251	0.223
Mof_C 	C 	0.5618	0.6811	0.191	0.225
Mof_C 	C 	0.36544	0.58122	0.06353	0.102
Mof_C 	C 	0.34365	0.63029	0.03895	-0.038
Mof_H 	H 	0.353	0.6709	0.0366	0.044
Mof_C 	C 	0.30842	0.61914	0.01817	-0.151
Mof_C 	C 	0.29429	0.55839	0.02066	0.03
Mof_H 	H 	0.2706	0.5505	0.0061	0.035
Mof_C 	C 	0.31587	0.50976	0.04497	-0.058
Mof_C 	C 	0.3514	0.52057	0.06711	-0.086
Mof_H 	H 	0.3655	0.4876	0.0841	0.097
Mof_C 	C 	0.28534	0.67326	0.9929	0.534
Mof_C 	C 	0.30154	0.44362	0.04682	0.309
Mof_C 	C 	0.62596	0.67762	0.207	0.11
Mof_C 	C 	0.65082	0.67841	0.15315	-0.051
Mof_H 	H 	0.6457	0.6581	0.1115	0.069
Mof_C 	C 	0.68341	0.70984	0.16201	-0.13
Mof_C 	C 	0.69064	0.7405	0.22435	0.037
Mof_H 	H 	0.7123	0.7626	0.2297	0.017
Mof_C 	C 	0.66631	0.73859	0.27774	-0.07
Mof_C 	C 	0.63339	0.7072	0.26899	-0.073
Mof_H 	H 	0.6165	0.7061	0.3049	0.08
Mof_C 	C 	0.6744	0.7715	0.3454	0.336
Mof_C 	C 	0.70943	0.71372	0.103	0.491
Mof_C 	C 	0.03455	0.3524	0.7787	-0.046
Mof_C 	C 	0.01739	0.2994	0.7642	-0.032
Mof_H 	H 	0.0288	0.2612	0.7731	0.058
Mof_C 	C 	0.01796	0.4052	0.7637	-0.033
Mof_H 	H 	0.0298	0.4433	0.7711	0.035
Mof_C 	C 	0.07261	0.348	0.8085	0.227
Mof_C 	C 	0.12031	0.40765	0.8696	0.113
Mof_C 	C 	0.14104	0.35714	0.8917	-0.072
Mof_H 	H 	0.1336	0.3162	0.8822	0.09
Mof_C 	C 	0.17314	0.36785	0.92808	-0.109
Mof_C 	C 	0.18469	0.42829	0.94278	0.017
Mof_H 	H 	0.2061	0.4348	0.9674	0.038
Mof_C 	C 	0.16402	0.4794	0.92046	-0.064
Mof_C 	C 	0.13189	0.46881	0.8833	-0.094
Mof_H 	H 	0.1182	0.5028	0.8677	0.074
Mof_C 	C 	0.1951	0.31126	0.95056	0.48
Mof_C 	C 	0.175	0.54575	0.93637	0.331
Mof_N 	N 	0.59178	0.64741	0.19514	-0.23
Mof_H 	H 	0.5907	0.6052	0.1907	0.124
Mof_N 	N 	0.40155	0.59652	0.08272	-0.225
Mof_H 	H 	0.4107	0.632	0.0641	0.115
Mof_N 	N 	0.08659	0.40019	0.8345	-0.232
Mof_H 	H 	0.0731	0.4353	0.8294	0.115
Mof_O 	O 	0.29815	0.7272	0.997	-0.582
Mof_O 	O 	0.25492	0.66067	0.96883	-0.565
Mof_O 	O 	0.27124	0.43293	0.02045	-0.435
Mof_O 	O 	0.32019	0.40077	0.07454	-0.438
Mof_O 	O 	0.6511	0.77338	0.39156	-0.428
Mof_O 	O 	0.70527	0.79573	0.35371	-0.441
Mof_O 	O 	0.73717	0.74686	0.11347	-0.57
Mof_O 	O 	0.7019	0.68412	0.04886	-0.51
Mof_O 	O 	0.56086	0.7375	0.2033	-0.226
Mof_O 	O 	0.4164	0.51519	0.1534	-0.234
Mof_O 	O 	0.1994	0.55573	0.97951	-0.452
Mof_O 	O 	0.15924	0.58984	0.90733	-0.443
Mof_O 	O 	0.22073	0.32043	0.99212	-0.575
Mof_O 	O 	0.18631	0.259	0.92639	-0.512
Mof_O 	O 	0.08825	0.29821	0.8075	-0.244
Mof_Tb	Tb	0.27147	0.32431	0.06114	1.998
Mof_Tb	Tb	0.3068	0.82968	0.03035	1.892
Mof_C 	C 	0.02717	0.8523	0.67	-0.035
Mof_C 	C 	0.99824	0.8151	0.6513	-0.034
Mof_H 	H 	0.0009	0.7715	0.6502	0.063
Mof_C 	C 	0.9651	0.8419	0.6343	-0.024
Mof_H 	H 	0.9459	0.8162	0.6209	0.038
Mof_C 	C 	0.96034	0.90506	0.6369	-0.045
Mof_C 	C 	0.98885	0.9425	0.6567	-0.028
Mof_H 	H 	0.9857	0.9859	0.6596	0.055
Mof_C 	C 	0.02251	0.9161	0.6726	-0.033
Mof_H 	H 	0.0419	0.9419	0.6849	0.045
Mof_C 	C 	0.92385	0.93556	0.6251	0.223
Mof_C 	C 	0.0618	0.8189	0.691	0.225
Mof_C 	C 	0.86544	0.91878	0.56353	0.102
Mof_C 	C 	0.84365	0.86971	0.53895	-0.038
Mof_H 	H 	0.853	0.8291	0.5366	0.044
Mof_C 	C 	0.80842	0.88086	0.51817	-0.151
Mof_C 	C 	0.79429	0.94161	0.52066	0.03
Mof_H 	H 	0.7706	0.9495	0.5061	0.035
Mof_C 	C 	0.81587	0.99024	0.54497	-0.058
Mof_C 	C 	0.8514	0.97943	0.56711	-0.086
Mof_H 	H 	0.8655	0.0124	0.5841	0.097
Mof_C 	C 	0.78534	0.82674	0.4929	0.534
Mof_C 	C 	0.80154	0.05638	0.54682	0.309
Mof_C 	C 	0.12596	0.82238	0.707	0.11
Mof_C 	C 	0.15082	0.82159	0.65315	-0.051
Mof_H 	H 	0.1457	0.8419	0.6115	0.069
Mof_C 	C 	0.18341	0.79016	0.66201	-0.13
Mof_C 	C 	0.19064	0.7595	0.72435	0.037
Mof_H 	H 	0.2123	0.7374	0.7297	0.017
Mof_C 	C 	0.16631	0.76141	0.77774	-0.07
Mof_C 	C 	0.13339	0.7928	0.76899	-0.073
Mof_H 	H 	0.1165	0.7939	0.8049	0.08
Mof_C 	C 	0.1744	0.7285	0.8454	0.336
Mof_C 	C 	0.20943	0.78628	0.603	0.491
Mof_C 	C 	0.53455	0.1476	0.2787	-0.046
Mof_C 	C 	0.51739	0.2006	0.2642	-0.032
Mof_H 	H 	0.5288	0.2388	0.2731	0.058
Mof_C 	C 	0.51796	0.0948	0.2637	-0.033
Mof_H 	H 	0.5298	0.0567	0.2711	0.034
Mof_C 	C 	0.57261	0.152	0.3085	0.228
Mof_C 	C 	0.62031	0.09235	0.3696	0.113
Mof_C 	C 	0.64104	0.14286	0.3917	-0.072
Mof_H 	H 	0.6336	0.1838	0.3822	0.09
Mof_C 	C 	0.67314	0.13215	0.42808	-0.109
Mof_C 	C 	0.68469	0.07171	0.44278	0.017
Mof_H 	H 	0.7061	0.0652	0.4674	0.038
Mof_C 	C 	0.66402	0.0206	0.42046	-0.064
Mof_C 	C 	0.63189	0.03119	0.3833	-0.093
Mof_H 	H 	0.6182	0.9972	0.3677	0.073
Mof_C 	C 	0.6951	0.18874	0.45056	0.48
Mof_C 	C 	0.675	0.95425	0.43637	0.331
Mof_N 	N 	0.09178	0.85259	0.69514	-0.23
Mof_H 	H 	0.0907	0.8948	0.6907	0.124
Mof_N 	N 	0.90155	0.90348	0.58272	-0.225
Mof_H 	H 	0.9107	0.868	0.5641	0.115
Mof_N 	N 	0.58659	0.09981	0.3345	-0.232
Mof_H 	H 	0.5731	0.0647	0.3294	0.115
Mof_O 	O 	0.79815	0.7728	0.497	-0.583
Mof_O 	O 	0.75492	0.83933	0.46883	-0.565
Mof_O 	O 	0.77124	0.06707	0.52045	-0.435
Mof_O 	O 	0.82019	0.09923	0.57454	-0.439
Mof_O 	O 	0.1511	0.72662	0.89156	-0.428
Mof_O 	O 	0.20527	0.70427	0.85371	-0.441
Mof_O 	O 	0.23717	0.75314	0.61347	-0.57
Mof_O 	O 	0.2019	0.81588	0.54886	-0.51
Mof_O 	O 	0.06086	0.7625	0.7033	-0.226
Mof_O 	O 	0.9164	0.98481	0.6534	-0.234
Mof_O 	O 	0.6994	0.94427	0.47951	-0.452
Mof_O 	O 	0.65924	0.91016	0.40733	-0.443
Mof_O 	O 	0.72073	0.17957	0.49212	-0.575
Mof_O 	O 	0.68631	0.241	0.42639	-0.512
Mof_O 	O 	0.58825	0.20179	0.3075	-0.244
Mof_Tb	Tb	0.77147	0.17569	0.56114	1.997
Mof_Tb	Tb	0.8068	0.67032	0.53035	1.893
Mof_C 	C 	0.52717	0.3523	0.67	-0.035
Mof_C 	C 	0.49824	0.3151	0.6513	-0.034
Mof_H 	H 	0.5009	0.2715	0.6502	0.063
Mof_C 	C 	0.4651	0.3419	0.6343	-0.024
Mof_H 	H 	0.4459	0.3162	0.6209	0.038
Mof_C 	C 	0.46034	0.40506	0.6369	-0.045
Mof_C 	C 	0.48885	0.4425	0.6567	-0.028
Mof_H 	H 	0.4857	0.4859	0.6596	0.056
Mof_C 	C 	0.52251	0.4161	0.6726	-0.033
Mof_H 	H 	0.5419	0.4419	0.6849	0.045
Mof_C 	C 	0.42385	0.43556	0.6251	0.223
Mof_C 	C 	0.5618	0.3189	0.691	0.225
Mof_C 	C 	0.36544	0.41878	0.56353	0.102
Mof_C 	C 	0.34365	0.36971	0.53895	-0.038
Mof_H 	H 	0.353	0.3291	0.5366	0.044
Mof_C 	C 	0.30842	0.38086	0.51817	-0.151
Mof_C 	C 	0.29429	0.44161	0.52066	0.03
Mof_H 	H 	0.2706	0.4495	0.5061	0.035
Mof_C 	C 	0.31587	0.49024	0.54497	-0.058
Mof_C 	C 	0.3514	0.47943	0.56711	-0.086
Mof_H 	H 	0.3655	0.5124	0.5841	0.097
Mof_C 	C 	0.28534	0.32674	0.4929	0.534
Mof_C 	C 	0.30154	0.55638	0.54682	0.309
Mof_C 	C 	0.62596	0.32238	0.707	0.11
Mof_C 	C 	0.65082	0.32159	0.65315	-0.051
Mof_H 	H 	0.6457	0.3419	0.6115	0.069
Mof_C 	C 	0.68341	0.29016	0.66201	-0.13
Mof_C 	C 	0.69064	0.2595	0.72435	0.037
Mof_H 	H 	0.7123	0.2374	0.7297	0.017
Mof_C 	C 	0.66631	0.26141	0.77774	-0.07
Mof_C 	C 	0.63339	0.2928	0.76899	-0.073
Mof_H 	H 	0.6165	0.2939	0.8049	0.08
Mof_C 	C 	0.6744	0.2285	0.8454	0.336
Mof_C 	C 	0.70943	0.28628	0.603	0.491
Mof_C 	C 	0.03455	0.6476	0.2787	-0.047
Mof_C 	C 	0.01739	0.7006	0.2642	-0.032
Mof_H 	H 	0.0288	0.7388	0.2731	0.058
Mof_C 	C 	0.01796	0.5948	0.2637	-0.032
Mof_H 	H 	0.0298	0.5567	0.2711	0.034
Mof_C 	C 	0.07261	0.652	0.3085	0.228
Mof_C 	C 	0.12031	0.59235	0.3696	0.113
Mof_C 	C 	0.14104	0.64286	0.3917	-0.072
Mof_H 	H 	0.1336	0.6838	0.3822	0.09
Mof_C 	C 	0.17314	0.63215	0.42808	-0.109
Mof_C 	C 	0.18469	0.57171	0.44278	0.017
Mof_H 	H 	0.2061	0.5652	0.4674	0.038
Mof_C 	C 	0.16402	0.5206	0.42046	-0.064
Mof_C 	C 	0.13189	0.53119	0.3833	-0.094
Mof_H 	H 	0.1182	0.4972	0.3677	0.074
Mof_C 	C 	0.1951	0.68874	0.45056	0.48
Mof_C 	C 	0.175	0.45425	0.43637	0.331
Mof_N 	N 	0.59178	0.35259	0.69514	-0.23
Mof_H 	H 	0.5907	0.3948	0.6907	0.124
Mof_N 	N 	0.40155	0.40348	0.58272	-0.225
Mof_H 	H 	0.4107	0.368	0.5641	0.115
Mof_N 	N 	0.08659	0.59981	0.3345	-0.232
Mof_H 	H 	0.0731	0.5647	0.3294	0.115
Mof_O 	O 	0.29815	0.2728	0.497	-0.583
Mof_O 	O 	0.25492	0.33933	0.46883	-0.565
Mof_O 	O 	0.27124	0.56707	0.52045	-0.435
Mof_O 	O 	0.32019	0.59923	0.57454	-0.438
Mof_O 	O 	0.6511	0.22662	0.89156	-0.428
Mof_O 	O 	0.70527	0.20427	0.85371	-0.441
Mof_O 	O 	0.73717	0.25314	0.61347	-0.57
Mof_O 	O 	0.7019	0.31588	0.54886	-0.51
Mof_O 	O 	0.56086	0.2625	0.7033	-0.226
Mof_O 	O 	0.4164	0.48481	0.6534	-0.234
Mof_O 	O 	0.1994	0.44427	0.47951	-0.452
Mof_O 	O 	0.15924	0.41016	0.40733	-0.443
Mof_O 	O 	0.22073	0.67957	0.49212	-0.575
Mof_O 	O 	0.18631	0.741	0.42639	-0.512
Mof_O 	O 	0.08825	0.70179	0.3075	-0.244
Mof_Tb	Tb	0.27147	0.67569	0.56114	1.997
Mof_Tb	Tb	0.3068	0.17032	0.53035	1.893
Mof_C 	C 	0.97283	0.8523	0.83	-0.035
Mof_C 	C 	0.00176	0.8151	0.8487	-0.034
Mof_H 	H 	0.9991	0.7715	0.8498	0.063
Mof_C 	C 	0.0349	0.8419	0.8657	-0.024
Mof_H 	H 	0.0541	0.8162	0.8791	0.038
Mof_C 	C 	0.03966	0.90506	0.8631	-0.045
Mof_C 	C 	0.01115	0.9425	0.8433	-0.028
Mof_H 	H 	0.0143	0.9859	0.8404	0.056
Mof_C 	C 	0.97749	0.9161	0.8274	-0.033
Mof_H 	H 	0.9581	0.9419	0.8151	0.045
Mof_C 	C 	0.07615	0.93556	0.8749	0.223
Mof_C 	C 	0.9382	0.8189	0.809	0.225
Mof_C 	C 	0.13456	0.91878	0.93647	0.102
Mof_C 	C 	0.15635	0.86971	0.96105	-0.038
Mof_H 	H 	0.147	0.8291	0.9634	0.044
Mof_C 	C 	0.19158	0.88086	0.98183	-0.15
Mof_C 	C 	0.20571	0.94161	0.97934	0.029
Mof_H 	H 	0.2294	0.9495	0.9939	0.036
Mof_C 	C 	0.18413	0.99024	0.95503	-0.057
Mof_C 	C 	0.1486	0.97943	0.93289	-0.085
Mof_H 	H 	0.1345	0.0124	0.9159	0.096
Mof_C 	C 	0.21466	0.82674	0.0071	0.533
Mof_C 	C 	0.19846	0.05638	0.95318	0.308
Mof_C 	C 	0.87404	0.82238	0.793	0.11
Mof_C 	C 	0.84918	0.82159	0.84685	-0.051
Mof_H 	H 	0.8543	0.8419	0.8885	0.069
Mof_C 	C 	0.81659	0.79016	0.83799	-0.13
Mof_C 	C 	0.80936	0.7595	0.77565	0.037
Mof_H 	H 	0.7877	0.7374	0.7703	0.017
Mof_C 	C 	0.83369	0.76141	0.72226	-0.07
Mof_C 	C 	0.86661	0.7928	0.73101	-0.073
Mof_H 	H 	0.8835	0.7939	0.6951	0.08
Mof_C 	C 	0.8256	0.7285	0.6546	0.336
Mof_C 	C 	0.79057	0.78628	0.897	0.491
Mof_C 	C 	0.46545	0.1476	0.2213	-0.046
Mof_C 	C 	0.48261	0.2006	0.2358	-0.032
Mof_H 	H 	0.4712	0.2388	0.2269	0.058
Mof_C 	C 	0.48204	0.0948	0.2363	-0.033
Mof_H 	H 	0.4702	0.0567	0.2289	0.035
Mof_C 	C 	0.42739	0.152	0.1915	0.228
Mof_C 	C 	0.37969	0.09235	0.1304	0.113
Mof_C 	C 	0.35896	0.14286	0.1083	-0.072
Mof_H 	H 	0.3664	0.1838	0.1178	0.09
Mof_C 	C 	0.32686	0.13215	0.07192	-0.109
Mof_C 	C 	0.31531	0.07171	0.05722	0.017
Mof_H 	H 	0.2939	0.0652	0.0326	0.039
Mof_C 	C 	0.33598	0.0206	0.07954	-0.063
Mof_C 	C 	0.36811	0.03119	0.1167	-0.092
Mof_H 	H 	0.3818	0.9972	0.1323	0.072
Mof_C 	C 	0.3049	0.18874	0.04944	0.48
Mof_C 	C 	0.325	0.95425	0.06363	0.33
Mof_N 	N 	0.90822	0.85259	0.80486	-0.23
Mof_H 	H 	0.9093	0.8948	0.8093	0.125
Mof_N 	N 	0.09845	0.90348	0.91728	-0.225
Mof_H 	H 	0.0893	0.868	0.9359	0.115
Mof_N 	N 	0.41341	0.09981	0.1655	-0.232
Mof_H 	H 	0.4269	0.0647	0.1706	0.115
Mof_O 	O 	0.20185	0.7728	0.003	-0.583
Mof_O 	O 	0.24508	0.83933	0.03117	-0.565
Mof_O 	O 	0.22876	0.06707	0.97955	-0.436
Mof_O 	O 	0.17981	0.09923	0.92546	-0.438
Mof_O 	O 	0.8489	0.72662	0.60844	-0.428
Mof_O 	O 	0.79473	0.70427	0.64629	-0.441
Mof_O 	O 	0.76283	0.75314	0.88653	-0.57
Mof_O 	O 	0.7981	0.81588	0.95114	-0.509
Mof_O 	O 	0.93914	0.7625	0.7967	-0.226
Mof_O 	O 	0.0836	0.98481	0.8466	-0.233
Mof_O 	O 	0.3006	0.94427	0.02049	-0.452
Mof_O 	O 	0.34076	0.91016	0.09267	-0.443
Mof_O 	O 	0.27927	0.17957	0.00788	-0.574
Mof_O 	O 	0.31369	0.241	0.07361	-0.512
Mof_O 	O 	0.41175	0.20179	0.1925	-0.244
Mof_Tb	Tb	0.22853	0.17569	0.93886	1.996
Mof_Tb	Tb	0.1932	0.67032	0.96965	1.894
Mof_C 	C 	0.47283	0.3523	0.83	-0.035
Mof_C 	C 	0.50176	0.3151	0.8487	-0.034
Mof_H 	H 	0.4991	0.2715	0.8498	0.063
Mof_C 	C 	0.5349	0.3419	0.8657	-0.024
Mof_H 	H 	0.5541	0.3162	0.8791	0.038
Mof_C 	C 	0.53966	0.40506	0.8631	-0.045
Mof_C 	C 	0.51115	0.4425	0.8433	-0.028
Mof_H 	H 	0.5143	0.4859	0.8404	0.056
Mof_C 	C 	0.47749	0.4161	0.8274	-0.033
Mof_H 	H 	0.4581	0.4419	0.8151	0.045
Mof_C 	C 	0.57615	0.43556	0.8749	0.223
Mof_C 	C 	0.4382	0.3189	0.809	0.225
Mof_C 	C 	0.63456	0.41878	0.93647	0.102
Mof_C 	C 	0.65635	0.36971	0.96105	-0.038
Mof_H 	H 	0.647	0.3291	0.9634	0.044
Mof_C 	C 	0.69158	0.38086	0.98183	-0.151
Mof_C 	C 	0.70571	0.44161	0.97934	0.03
Mof_H 	H 	0.7294	0.4495	0.9939	0.035
Mof_C 	C 	0.68413	0.49024	0.95503	-0.058
Mof_C 	C 	0.6486	0.47943	0.93289	-0.086
Mof_H 	H 	0.6345	0.5124	0.9159	0.097
Mof_C 	C 	0.71466	0.32674	0.0071	0.534
Mof_C 	C 	0.69846	0.55638	0.95318	0.309
Mof_C 	C 	0.37404	0.32238	0.793	0.11
Mof_C 	C 	0.34918	0.32159	0.84685	-0.051
Mof_H 	H 	0.3543	0.3419	0.8885	0.069
Mof_C 	C 	0.31659	0.29016	0.83799	-0.13
Mof_C 	C 	0.30936	0.2595	0.77565	0.037
Mof_H 	H 	0.2877	0.2374	0.7703	0.017
Mof_C 	C 	0.33369	0.26141	0.72226	-0.07
Mof_C 	C 	0.36661	0.2928	0.73101	-0.073
Mof_H 	H 	0.3835	0.2939	0.6951	0.08
Mof_C 	C 	0.3256	0.2285	0.6546	0.336
Mof_C 	C 	0.29057	0.28628	0.897	0.491
Mof_C 	C 	0.96545	0.6476	0.2213	-0.046
Mof_C 	C 	0.98261	0.7006	0.2358	-0.032
Mof_H 	H 	0.9712	0.7388	0.2269	0.058
Mof_C 	C 	0.98204	0.5948	0.2363	-0.033
Mof_H 	H 	0.9702	0.5567	0.2289	0.035
Mof_C 	C 	0.92739	0.652	0.1915	0.227
Mof_C 	C 	0.87969	0.59235	0.1304	0.113
Mof_C 	C 	0.85896	0.64286	0.1083	-0.072
Mof_H 	H 	0.8664	0.6838	0.1178	0.09
Mof_C 	C 	0.82686	0.63215	0.07192	-0.109
Mof_C 	C 	0.81531	0.57171	0.05722	0.017
Mof_H 	H 	0.7939	0.5652	0.0326	0.038
Mof_C 	C 	0.83598	0.5206	0.07954	-0.064
Mof_C 	C 	0.86811	0.53119	0.1167	-0.094
Mof_H 	H 	0.8818	0.4972	0.1323	0.074
Mof_C 	C 	0.8049	0.68874	0.04944	0.48
Mof_C 	C 	0.825	0.45425	0.06363	0.331
Mof_N 	N 	0.40822	0.35259	0.80486	-0.23
Mof_H 	H 	0.4093	0.3948	0.8093	0.124
Mof_N 	N 	0.59845	0.40348	0.91728	-0.225
Mof_H 	H 	0.5893	0.368	0.9359	0.115
Mof_N 	N 	0.91341	0.59981	0.1655	-0.232
Mof_H 	H 	0.9269	0.5647	0.1706	0.115
Mof_O 	O 	0.70185	0.2728	0.003	-0.582
Mof_O 	O 	0.74508	0.33933	0.03117	-0.565
Mof_O 	O 	0.72876	0.56707	0.97955	-0.435
Mof_O 	O 	0.67981	0.59923	0.92546	-0.438
Mof_O 	O 	0.3489	0.22662	0.60844	-0.428
Mof_O 	O 	0.29473	0.20427	0.64629	-0.441
Mof_O 	O 	0.26283	0.25314	0.88653	-0.57
Mof_O 	O 	0.2981	0.31588	0.95114	-0.51
Mof_O 	O 	0.43914	0.2625	0.7967	-0.226
Mof_O 	O 	0.5836	0.48481	0.8466	-0.234
Mof_O 	O 	0.8006	0.44427	0.02049	-0.452
Mof_O 	O 	0.84076	0.41016	0.09267	-0.443
Mof_O 	O 	0.77927	0.67957	0.00788	-0.575
Mof_O 	O 	0.81369	0.741	0.07361	-0.512
Mof_O 	O 	0.91175	0.70179	0.1925	-0.244
Mof_Tb	Tb	0.72853	0.67569	0.93886	1.998
Mof_Tb	Tb	0.6932	0.17032	0.96965	1.892
_end
