# CIF file generated by openbabel 3.1.0, see https://openbabel.org
data_I
_chemical_name_common 'image0'
_cell_length_a 6.5678
_cell_length_b 16.4055
_cell_length_c 13.1687
_cell_angle_alpha 90
_cell_angle_beta 90
_cell_angle_gamma 90
_space_group_name_H-M_alt 'P 1'
_space_group_name_Hall 'P 1'
loop_
    _symmetry_equiv_pos_as_xyz
    x,y,z
loop_
    _atom_site_label
    _atom_site_type_symbol
    _atom_site_fract_x
    _atom_site_fract_y
    _atom_site_fract_z
    _atom_site_occupancy
    O1       O        0.16940    0.16805    0.84015    1.000
    C1       C        0.80680    0.02980    0.95910    1.000
    O2       O        0.66940    0.66805    0.34015    1.000
    C2       C        0.30680    0.52980    0.45910    1.000
    O3       O        0.83060    0.33195    0.84015    1.000
    C3       C        0.19320    0.47020    0.95910    1.000
    O4       O        0.33060    0.83195    0.34015    1.000
    C4       C        0.69320    0.97020    0.45910    1.000
    O5       O        0.83060    0.66805    0.15985    1.000
    C5       C        0.19320    0.52980    0.04090    1.000
    O6       O        0.33060    0.16805    0.65985    1.000
    C6       C        0.69320    0.02980    0.54090    1.000
    O7       O        0.16940    0.83195    0.15985    1.000
    C7       C        0.80680    0.97020    0.04090    1.000
    O8       O        0.66940    0.33195    0.65985    1.000
    C8       C        0.30680    0.47020    0.54090    1.000
    O9       O        0.83060    0.83195    0.15985    1.000
    C9       C        0.19320    0.97020    0.04090    1.000
    O10      O        0.33060    0.33195    0.65985    1.000
    C10      C        0.69320    0.47020    0.54090    1.000
    O11      O        0.16940    0.66805    0.15985    1.000
    C11      C        0.80680    0.52980    0.04090    1.000
    O12      O        0.66940    0.16805    0.65985    1.000
    C12      C        0.30680    0.02980    0.54090    1.000
    O13      O        0.16940    0.33195    0.84015    1.000
    C13      C        0.80680    0.47020    0.95910    1.000
    O14      O        0.66940    0.83195    0.34015    1.000
    C14      C        0.30680    0.97020    0.45910    1.000
    O15      O        0.83060    0.16805    0.84015    1.000
    C15      C        0.19320    0.02980    0.95910    1.000
    O16      O        0.33060    0.66805    0.34015    1.000
    C16      C        0.69320    0.52980    0.45910    1.000
    Al1      Al       0.25000    0.25000    0.75000    1.000
    Al2      Al       0.75000    0.25000    0.75000    1.000
    Al3      Al       0.75000    0.75000    0.25000    1.000
    Al4      Al       0.25000    0.75000    0.25000    1.000
    F1       F        0.00000    0.25000    0.69390    1.000
    F2       F        0.50000    0.75000    0.19390    1.000
    F3       F        0.00000    0.75000    0.30610    1.000
    F4       F        0.50000    0.25000    0.80610    1.000
    C17      C        0.00000    0.06440    0.94790    1.000
    C18      C        0.00000    0.13760    0.86980    1.000
    C19      C        0.50000    0.56440    0.44790    1.000
    C20      C        0.50000    0.63760    0.36980    1.000
    C21      C        0.00000    0.43560    0.94790    1.000
    C22      C        0.00000    0.36240    0.86980    1.000
    C23      C        0.50000    0.93560    0.44790    1.000
    C24      C        0.50000    0.86240    0.36980    1.000
    C25      C        0.00000    0.56440    0.05210    1.000
    C26      C        0.00000    0.63760    0.13020    1.000
    C27      C        0.50000    0.06440    0.55210    1.000
    C28      C        0.50000    0.13760    0.63020    1.000
    C29      C        0.00000    0.93560    0.05210    1.000
    C30      C        0.00000    0.86240    0.13020    1.000
    C31      C        0.50000    0.43560    0.55210    1.000
    C32      C        0.50000    0.36240    0.63020    1.000
