data_functionalizedCrystal
_audit_creation_method	'EQeq! by Chris Wilmer'
_symmetry_space_group_name_H-M	'P1'
_symmetry_Int_Tables_number	1
_symmetry_cell_setting	triclinic
loop_
_symmetry_equiv_pos_as_xyz
  x,y,z
_cell_length_a	13.926
_cell_length_b	16.59
_cell_length_c	16.181
_cell_angle_alpha	90
_cell_angle_beta	110.296
_cell_angle_gamma	90
loop_
_atom_site_label
_atom_site_type_symbol
_atom_site_fract_x
_atom_site_fract_y
_atom_site_fract_z
_atom_site_charge
Mof_Cd	Cd	0.29152	0.49907	0.14202	0.501
Mof_Cd	Cd	0.41891	0.50416	0.3735	0.495
Mof_O 	O 	0.26894	0.57761	0.3172	-0.276
Mof_O 	O 	0.16677	0.55185	0.17982	-0.305
Mof_O 	O 	0.83909	0.62677	0.36021	-0.292
Mof_O 	O 	0.69717	0.90443	0.23198	-0.269
Mof_O 	O 	0.54441	0.87243	0.13729	-0.245
Mof_O 	O 	0.4761	0.51847	0.25054	-0.258
Mof_O 	O 	0.38976	0.614	0.16068	-0.242
Mof_O 	O 	0.34638	0.3906	0.08587	-0.245
Mof_O 	O 	0.17953	0.39858	0.05386	-0.234
Mof_O 	O 	0.49016	0.1178	0.08315	-0.245
Mof_O 	O 	0.3929	0.01991	0.0038	-0.26
Mof_O 	O 	0.03597	0.14084	0.8991	-0.301
Mof_O 	O 	0.9342	0.092	0.49139	-0.486
Mof_H 	H 	0.9045	0.0821	0.4391	0.319
Mof_O 	O 	0.77977	0.0669	0.49827	-0.299
Mof_C 	C 	0.181	0.57138	0.2587	0.363
Mof_C 	C 	0.0985	0.5962	0.3709	0.182
Mof_H 	H 	0.1626	0.5912	0.4145	-0.007
Mof_C 	C 	0.0144	0.6098	0.395	-0.299
Mof_H 	H 	0.0214	0.6128	0.4542	0.17
Mof_C 	C 	0.92	0.6187	0.3305	0.325
Mof_C 	C 	0.9093	0.6148	0.2426	-0.304
Mof_H 	H 	0.8454	0.6224	0.1993	0.15
Mof_C 	C 	0.9936	0.5997	0.2191	0.177
Mof_H 	H 	0.9863	0.5959	0.1598	-0.006
Mof_C 	C 	0.09	0.5899	0.2836	-0.198
Mof_C 	C 	0.7454	0.6568	0.3037	0.24
Mof_C 	C 	0.737	0.7369	0.2779	-0.187
Mof_H 	H 	0.7944	0.7701	0.2945	0.116
Mof_C 	C 	0.6418	0.7669	0.2271	0.037
Mof_C 	C 	0.5571	0.717	0.2054	-0.088
Mof_H 	H 	0.4935	0.7368	0.1705	0.102
Mof_C 	C 	0.5657	0.6375	0.235	0.041
Mof_C 	C 	0.6613	0.6069	0.284	-0.183
Mof_H 	H 	0.6685	0.5536	0.3031	0.127
Mof_C 	C 	0.628	0.8536	0.198	0.256
Mof_C 	C 	0.471	0.5872	0.2149	0.264
Mof_C 	C 	0.2575	0.3621	0.0527	0.252
Mof_C 	C 	0.2444	0.2791	0.0135	0.043
Mof_C 	C 	0.1468	0.2493	0.9676	-0.191
Mof_H 	H 	0.0898	0.2823	0.9565	0.133
Mof_C 	C 	0.1355	0.1704	0.9387	0.247
Mof_C 	C 	0.2191	0.1192	0.9561	-0.186
Mof_H 	H 	0.2103	0.0661	0.9365	0.122
Mof_C 	C 	0.3162	0.1487	0.00342	0.039
Mof_C 	C 	0.3287	0.2287	0.0307	-0.091
Mof_H 	H 	0.394	0.2486	0.0606	0.1
Mof_C 	C 	0.4054	0.0923	0.0307	0.257
Mof_C 	C 	0.9998	0.1286	0.8088	0.336
Mof_C 	C 	0.8975	0.1078	0.7717	-0.307
Mof_H 	H 	0.8572	0.1029	0.8069	0.164
Mof_C 	C 	0.8562	0.0947	0.6828	0.2
Mof_H 	H 	0.7876	0.0803	0.6578	-0.012
Mof_C 	C 	0.9149	0.1025	0.6294	-0.224
Mof_C 	C 	0.0174	0.1217	0.6679	0.204
Mof_H 	H 	0.0583	0.1254	0.6333	0.005
Mof_C 	C 	0.0593	0.1356	0.7573	-0.324
Mof_H 	H 	0.128	0.1497	0.7827	0.159
Mof_C 	C 	0.8694	0.0857	0.5341	0.439
Mof_Cd	Cd	0.70848	0.99907	0.35798	0.502
Mof_Cd	Cd	0.58109	0.00416	0.1265	0.496
Mof_O 	O 	0.73106	0.07761	0.1828	-0.277
Mof_O 	O 	0.83323	0.05185	0.32018	-0.306
Mof_O 	O 	0.16091	0.12677	0.13979	-0.293
Mof_O 	O 	0.30283	0.40443	0.26802	-0.269
Mof_O 	O 	0.45559	0.37243	0.36271	-0.245
Mof_O 	O 	0.5239	0.01847	0.24946	-0.258
Mof_O 	O 	0.61024	0.114	0.33932	-0.242
Mof_O 	O 	0.65362	0.8906	0.41413	-0.245
Mof_O 	O 	0.82047	0.89858	0.44614	-0.234
Mof_O 	O 	0.50984	0.6178	0.41685	-0.245
Mof_O 	O 	0.6071	0.51991	0.4962	-0.26
Mof_O 	O 	0.96403	0.64084	0.6009	-0.297
Mof_O 	O 	0.0658	0.592	0.00861	-0.483
Mof_H 	H 	0.0955	0.5821	0.0609	0.318
Mof_O 	O 	0.22023	0.5669	0.00173	-0.296
Mof_C 	C 	0.819	0.07138	0.2413	0.364
Mof_C 	C 	0.9015	0.0962	0.1291	0.187
Mof_H 	H 	0.8374	0.0912	0.0855	-0.009
Mof_C 	C 	0.9856	0.1098	0.105	-0.307
Mof_H 	H 	0.9786	0.1128	0.0458	0.172
Mof_C 	C 	0.08	0.1187	0.1695	0.33
Mof_C 	C 	0.0907	0.1148	0.2574	-0.31
Mof_H 	H 	0.1546	0.1224	0.3007	0.152
Mof_C 	C 	0.0064	0.0997	0.2809	0.183
Mof_H 	H 	0.0137	0.0959	0.3402	-0.008
Mof_C 	C 	0.91	0.0899	0.2164	-0.204
Mof_C 	C 	0.2546	0.1568	0.1963	0.24
Mof_C 	C 	0.263	0.2369	0.2221	-0.187
Mof_H 	H 	0.2056	0.2701	0.2055	0.116
Mof_C 	C 	0.3582	0.2669	0.2729	0.038
Mof_C 	C 	0.4429	0.217	0.2946	-0.088
Mof_H 	H 	0.5065	0.2368	0.3295	0.102
Mof_C 	C 	0.4343	0.1375	0.265	0.041
Mof_C 	C 	0.3387	0.1069	0.216	-0.183
Mof_H 	H 	0.3315	0.0536	0.1969	0.127
Mof_C 	C 	0.372	0.3536	0.302	0.256
Mof_C 	C 	0.529	0.0872	0.2851	0.264
Mof_C 	C 	0.7425	0.8621	0.4473	0.252
Mof_C 	C 	0.7556	0.7791	0.4865	0.04
Mof_C 	C 	0.8532	0.7493	0.5324	-0.188
Mof_H 	H 	0.9102	0.7823	0.5435	0.133
Mof_C 	C 	0.8645	0.6704	0.5613	0.245
Mof_C 	C 	0.7809	0.6192	0.5439	-0.184
Mof_H 	H 	0.7897	0.5661	0.5635	0.121
Mof_C 	C 	0.6838	0.6487	0.49658	0.037
Mof_C 	C 	0.6713	0.7287	0.4693	-0.089
Mof_H 	H 	0.606	0.7486	0.4394	0.099
Mof_C 	C 	0.5946	0.5923	0.4693	0.258
Mof_C 	C 	0.0002	0.6286	0.6912	0.328
Mof_C 	C 	0.1025	0.6078	0.7283	-0.303
Mof_H 	H 	0.1428	0.6029	0.6931	0.162
Mof_C 	C 	0.1438	0.5947	0.8172	0.197
Mof_H 	H 	0.2124	0.5803	0.8422	-0.011
Mof_C 	C 	0.0851	0.6025	0.8706	-0.224
Mof_C 	C 	0.9826	0.6217	0.8321	0.203
Mof_H 	H 	0.9417	0.6254	0.8667	0.006
Mof_C 	C 	0.9407	0.6356	0.7427	-0.317
Mof_H 	H 	0.872	0.6497	0.7173	0.156
Mof_C 	C 	0.1306	0.5857	0.9659	0.435
Mof_Cd	Cd	0.70848	0.50093	0.85798	0.502
Mof_Cd	Cd	0.58109	0.49584	0.6265	0.496
Mof_O 	O 	0.73106	0.42239	0.6828	-0.276
Mof_O 	O 	0.83323	0.44815	0.82018	-0.305
Mof_O 	O 	0.16091	0.37323	0.63979	-0.292
Mof_O 	O 	0.30283	0.09557	0.76802	-0.269
Mof_O 	O 	0.45559	0.12757	0.86271	-0.245
Mof_O 	O 	0.5239	0.48153	0.74946	-0.258
Mof_O 	O 	0.61024	0.386	0.83932	-0.242
Mof_O 	O 	0.65362	0.6094	0.91413	-0.245
Mof_O 	O 	0.82047	0.60142	0.94614	-0.234
Mof_O 	O 	0.50984	0.8822	0.91685	-0.245
Mof_O 	O 	0.6071	0.98009	0.9962	-0.26
Mof_O 	O 	0.96403	0.85916	0.1009	-0.301
Mof_O 	O 	0.0658	0.908	0.50861	-0.486
Mof_H 	H 	0.0955	0.9179	0.5609	0.319
Mof_O 	O 	0.22023	0.9331	0.50173	-0.299
Mof_C 	C 	0.819	0.42862	0.7413	0.363
Mof_C 	C 	0.9015	0.4038	0.6291	0.182
Mof_H 	H 	0.8374	0.4088	0.5855	-0.007
Mof_C 	C 	0.9856	0.3902	0.605	-0.299
Mof_H 	H 	0.9786	0.3872	0.5458	0.17
Mof_C 	C 	0.08	0.3813	0.6695	0.325
Mof_C 	C 	0.0907	0.3852	0.7574	-0.304
Mof_H 	H 	0.1546	0.3776	0.8007	0.15
Mof_C 	C 	0.0064	0.4003	0.7809	0.177
Mof_H 	H 	0.0137	0.4041	0.8402	-0.006
Mof_C 	C 	0.91	0.4101	0.7164	-0.198
Mof_C 	C 	0.2546	0.3432	0.6963	0.24
Mof_C 	C 	0.263	0.2631	0.7221	-0.187
Mof_H 	H 	0.2056	0.2299	0.7055	0.116
Mof_C 	C 	0.3582	0.2331	0.7729	0.037
Mof_C 	C 	0.4429	0.283	0.7946	-0.088
Mof_H 	H 	0.5065	0.2632	0.8295	0.102
Mof_C 	C 	0.4343	0.3625	0.765	0.041
Mof_C 	C 	0.3387	0.3931	0.716	-0.183
Mof_H 	H 	0.3315	0.4464	0.6969	0.127
Mof_C 	C 	0.372	0.1464	0.802	0.256
Mof_C 	C 	0.529	0.4128	0.7851	0.264
Mof_C 	C 	0.7425	0.6379	0.9473	0.252
Mof_C 	C 	0.7556	0.7209	0.9865	0.043
Mof_C 	C 	0.8532	0.7507	0.0324	-0.191
Mof_H 	H 	0.9102	0.7177	0.0435	0.133
Mof_C 	C 	0.8645	0.8296	0.0613	0.247
Mof_C 	C 	0.7809	0.8808	0.0439	-0.186
Mof_H 	H 	0.7897	0.9339	0.0635	0.122
Mof_C 	C 	0.6838	0.8513	0.99658	0.039
Mof_C 	C 	0.6713	0.7713	0.9693	-0.091
Mof_H 	H 	0.606	0.7514	0.9394	0.1
Mof_C 	C 	0.5946	0.9077	0.9693	0.257
Mof_C 	C 	0.0002	0.8714	0.1912	0.336
Mof_C 	C 	0.1025	0.8922	0.2283	-0.307
Mof_H 	H 	0.1428	0.8971	0.1931	0.164
Mof_C 	C 	0.1438	0.9053	0.3172	0.2
Mof_H 	H 	0.2124	0.9197	0.3422	-0.012
Mof_C 	C 	0.0851	0.8975	0.3706	-0.224
Mof_C 	C 	0.9826	0.8783	0.3321	0.204
Mof_H 	H 	0.9417	0.8746	0.3667	0.005
Mof_C 	C 	0.9407	0.8644	0.2427	-0.324
Mof_H 	H 	0.872	0.8503	0.2173	0.159
Mof_C 	C 	0.1306	0.9143	0.4659	0.439
Mof_Cd	Cd	0.29152	0.00093	0.64202	0.502
Mof_Cd	Cd	0.41891	0.99584	0.8735	0.496
Mof_O 	O 	0.26894	0.92239	0.8172	-0.277
Mof_O 	O 	0.16677	0.94815	0.67982	-0.306
Mof_O 	O 	0.83909	0.87323	0.86021	-0.293
Mof_O 	O 	0.69717	0.59557	0.73198	-0.269
Mof_O 	O 	0.54441	0.62757	0.63729	-0.245
Mof_O 	O 	0.4761	0.98153	0.75054	-0.258
Mof_O 	O 	0.38976	0.886	0.66068	-0.242
Mof_O 	O 	0.34638	0.1094	0.58587	-0.245
Mof_O 	O 	0.17953	0.10142	0.55386	-0.234
Mof_O 	O 	0.49016	0.3822	0.58315	-0.245
Mof_O 	O 	0.3929	0.48009	0.5038	-0.26
Mof_O 	O 	0.03597	0.35916	0.3991	-0.297
Mof_O 	O 	0.9342	0.408	0.99139	-0.483
Mof_H 	H 	0.9045	0.4179	0.9391	0.318
Mof_O 	O 	0.77977	0.4331	0.99827	-0.296
Mof_C 	C 	0.181	0.92862	0.7587	0.364
Mof_C 	C 	0.0985	0.9038	0.8709	0.187
Mof_H 	H 	0.1626	0.9088	0.9145	-0.009
Mof_C 	C 	0.0144	0.8902	0.895	-0.307
Mof_H 	H 	0.0214	0.8872	0.9542	0.172
Mof_C 	C 	0.92	0.8813	0.8305	0.33
Mof_C 	C 	0.9093	0.8852	0.7426	-0.31
Mof_H 	H 	0.8454	0.8776	0.6993	0.152
Mof_C 	C 	0.9936	0.9003	0.7191	0.183
Mof_H 	H 	0.9863	0.9041	0.6598	-0.008
Mof_C 	C 	0.09	0.9101	0.7836	-0.204
Mof_C 	C 	0.7454	0.8432	0.8037	0.24
Mof_C 	C 	0.737	0.7631	0.7779	-0.187
Mof_H 	H 	0.7944	0.7299	0.7945	0.116
Mof_C 	C 	0.6418	0.7331	0.7271	0.038
Mof_C 	C 	0.5571	0.783	0.7054	-0.088
Mof_H 	H 	0.4935	0.7632	0.6705	0.102
Mof_C 	C 	0.5657	0.8625	0.735	0.041
Mof_C 	C 	0.6613	0.8931	0.784	-0.183
Mof_H 	H 	0.6685	0.9464	0.8031	0.127
Mof_C 	C 	0.628	0.6464	0.698	0.256
Mof_C 	C 	0.471	0.9128	0.7149	0.264
Mof_C 	C 	0.2575	0.1379	0.5527	0.252
Mof_C 	C 	0.2444	0.2209	0.5135	0.04
Mof_C 	C 	0.1468	0.2507	0.4676	-0.188
Mof_H 	H 	0.0898	0.2177	0.4565	0.133
Mof_C 	C 	0.1355	0.3296	0.4387	0.245
Mof_C 	C 	0.2191	0.3808	0.4561	-0.184
Mof_H 	H 	0.2103	0.4339	0.4365	0.121
Mof_C 	C 	0.3162	0.3513	0.50342	0.037
Mof_C 	C 	0.3287	0.2713	0.5307	-0.089
Mof_H 	H 	0.394	0.2514	0.5606	0.099
Mof_C 	C 	0.4054	0.4077	0.5307	0.258
Mof_C 	C 	0.9998	0.3714	0.3088	0.328
Mof_C 	C 	0.8975	0.3922	0.2717	-0.303
Mof_H 	H 	0.8572	0.3971	0.3069	0.162
Mof_C 	C 	0.8562	0.4053	0.1828	0.197
Mof_H 	H 	0.7876	0.4197	0.1578	-0.011
Mof_C 	C 	0.9149	0.3975	0.1294	-0.224
Mof_C 	C 	0.0174	0.3783	0.1679	0.203
Mof_H 	H 	0.0583	0.3746	0.1333	0.006
Mof_C 	C 	0.0593	0.3644	0.2573	-0.317
Mof_H 	H 	0.128	0.3503	0.2827	0.156
Mof_C 	C 	0.8694	0.4143	0.0341	0.435
_end
