data_functionalizedCrystal
_audit_creation_method	'EQeq! by Chris Wilmer'
_symmetry_space_group_name_H-M	'P1'
_symmetry_Int_Tables_number	1
_symmetry_cell_setting	triclinic
loop_
_symmetry_equiv_pos_as_xyz
  x,y,z
_cell_length_a	32.8195
_cell_length_b	32.8195
_cell_length_c	19.0793
_cell_angle_alpha	90
_cell_angle_beta	90
_cell_angle_gamma	120
loop_
_atom_site_label
_atom_site_type_symbol
_atom_site_fract_x
_atom_site_fract_y
_atom_site_fract_z
_atom_site_charge
Mof_Co	Co	0.51848	0.04872	0.19288	1.168
Mof_Co	Co	0.48262	0.0217	0.67425	1.166
Mof_O 	O 	0.51989	0.07242	0.09391	-0.405
Mof_O 	O 	0.5441	0.14782	0.1113	-0.276
Mof_O 	O 	0.51187	0.01809	0.84706	-0.417
Mof_O 	O 	0.49325	0.0562	0.7666	-0.443
Mof_O 	O 	0.5925	0.25651	0.9166	-0.185
Mof_O 	O 	0.5705	0.23037	0.8091	-0.198
Mof_O 	O 	0.58291	0.05366	0.19872	-0.436
Mof_O 	O 	0.5865	0.02792	0.30629	-0.416
Mof_O 	O 	0.79429	0.13876	0.10284	-0.37
Mof_O 	O 	0.7273	0.12047	0.05309	-0.342
Mof_C 	C 	0.5327	0.12075	0.9955	-0.1
Mof_C 	C 	0.51966	0.08399	0.9486	0.056
Mof_C 	C 	0.52099	0.0919	0.8767	-0.102
Mof_C 	C 	0.53666	0.13729	0.8519	0.028
Mof_C 	C 	0.55174	0.17495	0.8981	-0.071
Mof_C 	C 	0.549	0.1663	0.9697	0.038
Mof_C 	C 	0.532	0.11314	0.0734	0.355
Mof_C 	C 	0.5732	0.22474	0.8727	0.312
Mof_C 	C 	0.5075	0.05207	0.8259	0.38
Mof_C 	C 	0.65729	0.07728	0.2481	-0.115
Mof_C 	C 	0.67923	0.0911	0.1829	0.048
Mof_C 	C 	0.7281	0.1133	0.1777	-0.094
Mof_C 	C 	0.75514	0.12596	0.2386	0.05
Mof_C 	C 	0.7335	0.1144	0.3041	-0.128
Mof_C 	C 	0.68436	0.0882	0.30797	0.064
Mof_C 	C 	0.60425	0.05087	0.25166	0.382
Mof_C 	C 	0.75101	0.12488	0.10747	0.306
Mof_H 	H 	0.5089	0.0515	0.972	0.052
Mof_H 	H 	0.5389	0.1418	0.809	0.054
Mof_H 	H 	0.558	0.191	0.005	0.062
Mof_H 	H 	0.6609	0.0847	0.142	0.053
Mof_H 	H 	0.7883	0.1428	0.235	0.033
Mof_H 	H 	0.6697	0.0798	0.353	0.044
Mof_C 	C 	0.76162	0.1327	0.3698	0.349
Mof_O 	O 	0.74264	0.11965	0.42803	-0.371
Mof_O 	O 	0.80436	0.16559	0.36552	-0.543
Mof_Co	Co	0.18514	0.38205	0.52621	1.169
Mof_Co	Co	0.14929	0.35503	0.00758	1.167
Mof_O 	O 	0.18656	0.40575	0.42724	-0.404
Mof_O 	O 	0.21077	0.48115	0.44463	-0.275
Mof_O 	O 	0.17854	0.35142	0.18039	-0.415
Mof_O 	O 	0.15992	0.38953	0.09993	-0.442
Mof_O 	O 	0.25917	0.58984	0.24993	-0.184
Mof_O 	O 	0.23717	0.5637	0.14243	-0.197
Mof_O 	O 	0.24958	0.38699	0.53205	-0.435
Mof_O 	O 	0.25317	0.36125	0.63962	-0.415
Mof_O 	O 	0.46096	0.47209	0.43617	-0.369
Mof_O 	O 	0.39397	0.4538	0.38642	-0.342
Mof_C 	C 	0.19937	0.45408	0.32883	-0.099
Mof_C 	C 	0.18633	0.41732	0.28193	0.057
Mof_C 	C 	0.18766	0.42523	0.21003	-0.102
Mof_C 	C 	0.20333	0.47062	0.18523	0.028
Mof_C 	C 	0.21841	0.50828	0.23143	-0.071
Mof_C 	C 	0.21567	0.49963	0.30303	0.038
Mof_C 	C 	0.19867	0.44647	0.40673	0.354
Mof_C 	C 	0.23987	0.55807	0.20603	0.312
Mof_C 	C 	0.17417	0.3854	0.15923	0.38
Mof_C 	C 	0.32396	0.41061	0.58143	-0.115
Mof_C 	C 	0.3459	0.42443	0.51623	0.048
Mof_C 	C 	0.39477	0.44663	0.51103	-0.094
Mof_C 	C 	0.42181	0.45929	0.57193	0.051
Mof_C 	C 	0.40017	0.44773	0.63743	-0.128
Mof_C 	C 	0.35103	0.42153	0.6413	0.064
Mof_C 	C 	0.27092	0.3842	0.58499	0.382
Mof_C 	C 	0.41768	0.45821	0.4408	0.306
Mof_H 	H 	0.17557	0.38483	0.30533	0.052
Mof_H 	H 	0.20557	0.47513	0.14233	0.054
Mof_H 	H 	0.22467	0.52433	0.33833	0.061
Mof_H 	H 	0.32757	0.41803	0.47533	0.053
Mof_H 	H 	0.45497	0.47613	0.56833	0.033
Mof_H 	H 	0.33637	0.41313	0.68633	0.044
Mof_C 	C 	0.42829	0.46603	0.70313	0.349
Mof_O 	O 	0.40931	0.45298	0.76136	-0.371
Mof_O 	O 	0.47103	0.49892	0.69885	-0.543
Mof_Co	Co	0.85181	0.71539	0.85955	1.169
Mof_Co	Co	0.81595	0.68837	0.34092	1.167
Mof_O 	O 	0.85322	0.73909	0.76058	-0.404
Mof_O 	O 	0.87743	0.81449	0.77797	-0.275
Mof_O 	O 	0.8452	0.68476	0.51373	-0.415
Mof_O 	O 	0.82658	0.72287	0.43327	-0.442
Mof_O 	O 	0.92583	0.92318	0.58327	-0.184
Mof_O 	O 	0.90383	0.89704	0.47577	-0.197
Mof_O 	O 	0.91624	0.72033	0.86539	-0.435
Mof_O 	O 	0.91983	0.69459	0.97296	-0.415
Mof_O 	O 	0.12762	0.80543	0.76951	-0.369
Mof_O 	O 	0.06063	0.78714	0.71976	-0.342
Mof_C 	C 	0.86603	0.78742	0.66217	-0.099
Mof_C 	C 	0.85299	0.75066	0.61527	0.057
Mof_C 	C 	0.85432	0.75857	0.54337	-0.102
Mof_C 	C 	0.86999	0.80396	0.51857	0.028
Mof_C 	C 	0.88507	0.84162	0.56477	-0.071
Mof_C 	C 	0.88233	0.83297	0.63637	0.038
Mof_C 	C 	0.86533	0.77981	0.74007	0.354
Mof_C 	C 	0.90653	0.89141	0.53937	0.312
Mof_C 	C 	0.84083	0.71874	0.49257	0.38
Mof_C 	C 	0.99062	0.74395	0.91477	-0.118
Mof_C 	C 	0.01256	0.75777	0.84957	0.051
Mof_C 	C 	0.06143	0.77997	0.84437	-0.095
Mof_C 	C 	0.08847	0.79263	0.90527	0.051
Mof_C 	C 	0.06683	0.78107	0.97077	-0.129
Mof_C 	C 	0.01769	0.75487	0.97464	0.067
Mof_C 	C 	0.93758	0.71754	0.91833	0.383
Mof_C 	C 	0.08434	0.79155	0.77414	0.306
Mof_H 	H 	0.84223	0.71817	0.63867	0.052
Mof_H 	H 	0.87223	0.80847	0.47567	0.054
Mof_H 	H 	0.89133	0.85767	0.67167	0.061
Mof_H 	H 	0.99423	0.75137	0.80867	0.052
Mof_H 	H 	0.12163	0.80947	0.90167	0.033
Mof_H 	H 	0.00303	0.74647	0.01967	0.043
Mof_C 	C 	0.09495	0.79937	0.03647	0.349
Mof_O 	O 	0.07597	0.78632	0.0947	-0.371
Mof_O 	O 	0.13769	0.83226	0.03219	-0.543
Mof_Co	Co	0.95128	0.46976	0.19288	1.169
Mof_Co	Co	0.9783	0.46092	0.67425	1.167
Mof_O 	O 	0.92758	0.44747	0.09391	-0.404
Mof_O 	O 	0.85218	0.39628	0.1113	-0.275
Mof_O 	O 	0.98191	0.49378	0.84706	-0.416
Mof_O 	O 	0.9438	0.43705	0.7666	-0.442
Mof_O 	O 	0.74349	0.33599	0.9166	-0.184
Mof_O 	O 	0.76963	0.34013	0.8091	-0.197
Mof_O 	O 	0.94634	0.52925	0.19872	-0.435
Mof_O 	O 	0.97208	0.55858	0.30629	-0.415
Mof_O 	O 	0.86124	0.65553	0.10284	-0.369
Mof_O 	O 	0.87953	0.60683	0.05309	-0.342
Mof_C 	C 	0.87925	0.41195	0.9955	-0.099
Mof_C 	C 	0.91601	0.43567	0.9486	0.057
Mof_C 	C 	0.9081	0.42909	0.8767	-0.102
Mof_C 	C 	0.86271	0.39937	0.8519	0.028
Mof_C 	C 	0.82505	0.37679	0.8981	-0.071
Mof_C 	C 	0.8337	0.3827	0.9697	0.037
Mof_C 	C 	0.88686	0.41886	0.0734	0.355
Mof_C 	C 	0.77526	0.34846	0.8727	0.312
Mof_C 	C 	0.94793	0.45543	0.8259	0.38
Mof_C 	C 	0.92272	0.58001	0.2481	-0.115
Mof_C 	C 	0.9089	0.58813	0.1829	0.048
Mof_C 	C 	0.8867	0.6148	0.1777	-0.094
Mof_C 	C 	0.87404	0.62918	0.2386	0.051
Mof_C 	C 	0.8856	0.6191	0.3041	-0.128
Mof_C 	C 	0.9118	0.59616	0.30797	0.064
Mof_C 	C 	0.94913	0.55338	0.25166	0.382
Mof_C 	C 	0.87512	0.62613	0.10747	0.306
Mof_H 	H 	0.9485	0.4574	0.972	0.052
Mof_H 	H 	0.8582	0.3971	0.809	0.054
Mof_H 	H 	0.809	0.367	0.005	0.062
Mof_H 	H 	0.9153	0.5762	0.142	0.053
Mof_H 	H 	0.8572	0.6455	0.235	0.033
Mof_H 	H 	0.9202	0.5899	0.353	0.044
Mof_C 	C 	0.8673	0.62892	0.3698	0.349
Mof_O 	O 	0.88035	0.62299	0.42803	-0.371
Mof_O 	O 	0.83441	0.63877	0.36552	-0.543
Mof_Co	Co	0.61795	0.80309	0.52621	1.169
Mof_Co	Co	0.64497	0.79425	0.00758	1.167
Mof_O 	O 	0.59425	0.7808	0.42724	-0.404
Mof_O 	O 	0.51885	0.72961	0.44463	-0.275
Mof_O 	O 	0.64858	0.82711	0.18039	-0.415
Mof_O 	O 	0.61047	0.77038	0.09993	-0.442
Mof_O 	O 	0.41016	0.66932	0.24993	-0.184
Mof_O 	O 	0.4363	0.67346	0.14243	-0.197
Mof_O 	O 	0.61301	0.86258	0.53205	-0.435
Mof_O 	O 	0.63875	0.89191	0.63962	-0.415
Mof_O 	O 	0.52791	0.98886	0.43617	-0.369
Mof_O 	O 	0.5462	0.94016	0.38642	-0.342
Mof_C 	C 	0.54592	0.74528	0.32883	-0.099
Mof_C 	C 	0.58268	0.769	0.28193	0.057
Mof_C 	C 	0.57477	0.76242	0.21003	-0.102
Mof_C 	C 	0.52938	0.7327	0.18523	0.028
Mof_C 	C 	0.49172	0.71012	0.23143	-0.071
Mof_C 	C 	0.50037	0.71603	0.30303	0.038
Mof_C 	C 	0.55353	0.75219	0.40673	0.354
Mof_C 	C 	0.44193	0.68179	0.20603	0.312
Mof_C 	C 	0.6146	0.78876	0.15923	0.38
Mof_C 	C 	0.58939	0.91334	0.58143	-0.115
Mof_C 	C 	0.57557	0.92146	0.51623	0.048
Mof_C 	C 	0.55337	0.94813	0.51103	-0.094
Mof_C 	C 	0.54071	0.96251	0.57193	0.051
Mof_C 	C 	0.55227	0.95243	0.63743	-0.128
Mof_C 	C 	0.57847	0.92949	0.6413	0.064
Mof_C 	C 	0.6158	0.88671	0.58499	0.382
Mof_C 	C 	0.54179	0.95946	0.4408	0.306
Mof_H 	H 	0.61517	0.79073	0.30533	0.052
Mof_H 	H 	0.52487	0.73043	0.14233	0.054
Mof_H 	H 	0.47567	0.70033	0.33833	0.061
Mof_H 	H 	0.58197	0.90953	0.47533	0.053
Mof_H 	H 	0.52387	0.97883	0.56833	0.033
Mof_H 	H 	0.58687	0.92323	0.68633	0.044
Mof_C 	C 	0.53397	0.96225	0.70313	0.349
Mof_O 	O 	0.54702	0.95632	0.76136	-0.371
Mof_O 	O 	0.50108	0.9721	0.69885	-0.543
Mof_Co	Co	0.28461	0.13642	0.85955	1.169
Mof_Co	Co	0.31163	0.12759	0.34092	1.167
Mof_O 	O 	0.26091	0.11414	0.76058	-0.404
Mof_O 	O 	0.18551	0.06295	0.77797	-0.275
Mof_O 	O 	0.31524	0.16045	0.51373	-0.415
Mof_O 	O 	0.27713	0.10372	0.43327	-0.442
Mof_O 	O 	0.07682	0.00266	0.58327	-0.184
Mof_O 	O 	0.10296	0.0068	0.47577	-0.197
Mof_O 	O 	0.27967	0.19592	0.86539	-0.435
Mof_O 	O 	0.30541	0.22525	0.97296	-0.415
Mof_O 	O 	0.19457	0.3222	0.76951	-0.369
Mof_O 	O 	0.21286	0.2735	0.71976	-0.342
Mof_C 	C 	0.21258	0.07862	0.66217	-0.099
Mof_C 	C 	0.24934	0.10234	0.61527	0.057
Mof_C 	C 	0.24143	0.09576	0.54337	-0.102
Mof_C 	C 	0.19604	0.06604	0.51857	0.028
Mof_C 	C 	0.15838	0.04346	0.56477	-0.071
Mof_C 	C 	0.16703	0.04937	0.63637	0.038
Mof_C 	C 	0.22019	0.08553	0.74007	0.354
Mof_C 	C 	0.10859	0.01513	0.53937	0.312
Mof_C 	C 	0.28126	0.1221	0.49257	0.38
Mof_C 	C 	0.25605	0.24668	0.91477	-0.115
Mof_C 	C 	0.24223	0.2548	0.84957	0.048
Mof_C 	C 	0.22003	0.28147	0.84437	-0.094
Mof_C 	C 	0.20737	0.29585	0.90527	0.05
Mof_C 	C 	0.21893	0.28577	0.97077	-0.128
Mof_C 	C 	0.24513	0.26283	0.97464	0.064
Mof_C 	C 	0.28246	0.22005	0.91833	0.382
Mof_C 	C 	0.20845	0.2928	0.77414	0.306
Mof_H 	H 	0.28183	0.12407	0.63867	0.052
Mof_H 	H 	0.19153	0.06377	0.47567	0.054
Mof_H 	H 	0.14233	0.03367	0.67167	0.061
Mof_H 	H 	0.24863	0.24287	0.80867	0.053
Mof_H 	H 	0.19053	0.31217	0.90167	0.033
Mof_H 	H 	0.25353	0.25657	0.01967	0.044
Mof_C 	C 	0.20063	0.29559	0.03647	0.349
Mof_O 	O 	0.21368	0.28966	0.0947	-0.371
Mof_O 	O 	0.16774	0.30544	0.03219	-0.543
Mof_Co	Co	0.53024	0.48152	0.19288	1.169
Mof_Co	Co	0.53908	0.51738	0.67425	1.167
Mof_O 	O 	0.55253	0.48011	0.09391	-0.404
Mof_O 	O 	0.60372	0.4559	0.1113	-0.275
Mof_O 	O 	0.50622	0.48813	0.84706	-0.415
Mof_O 	O 	0.56295	0.50675	0.7666	-0.442
Mof_O 	O 	0.66401	0.4075	0.9166	-0.184
Mof_O 	O 	0.65987	0.4295	0.8091	-0.197
Mof_O 	O 	0.47075	0.41709	0.19872	-0.435
Mof_O 	O 	0.44142	0.4135	0.30629	-0.415
Mof_O 	O 	0.34447	0.20571	0.10284	-0.369
Mof_O 	O 	0.39317	0.2727	0.05309	-0.342
Mof_C 	C 	0.58805	0.4673	0.9955	-0.099
Mof_C 	C 	0.56433	0.48034	0.9486	0.057
Mof_C 	C 	0.57091	0.47901	0.8767	-0.102
Mof_C 	C 	0.60063	0.46334	0.8519	0.028
Mof_C 	C 	0.62321	0.44826	0.8981	-0.071
Mof_C 	C 	0.6173	0.451	0.9697	0.038
Mof_C 	C 	0.58114	0.468	0.0734	0.354
Mof_C 	C 	0.65154	0.4268	0.8727	0.312
Mof_C 	C 	0.54457	0.4925	0.8259	0.38
Mof_C 	C 	0.41999	0.34271	0.2481	-0.115
Mof_C 	C 	0.41187	0.32077	0.1829	0.048
Mof_C 	C 	0.3852	0.2719	0.1777	-0.094
Mof_C 	C 	0.37082	0.24486	0.2386	0.051
Mof_C 	C 	0.3809	0.2665	0.3041	-0.128
Mof_C 	C 	0.40384	0.31564	0.30797	0.064
Mof_C 	C 	0.44662	0.39575	0.25166	0.382
Mof_C 	C 	0.37387	0.24899	0.10747	0.306
Mof_H 	H 	0.5426	0.4911	0.972	0.052
Mof_H 	H 	0.6029	0.4611	0.809	0.054
Mof_H 	H 	0.633	0.442	0.005	0.062
Mof_H 	H 	0.4238	0.3391	0.142	0.053
Mof_H 	H 	0.3545	0.2117	0.235	0.033
Mof_H 	H 	0.4101	0.3303	0.353	0.044
Mof_C 	C 	0.37108	0.23838	0.3698	0.349
Mof_O 	O 	0.37701	0.25736	0.42803	-0.371
Mof_O 	O 	0.36123	0.19564	0.36552	-0.543
Mof_Co	Co	0.19691	0.81486	0.52621	1.169
Mof_Co	Co	0.20575	0.85071	0.00758	1.167
Mof_O 	O 	0.2192	0.81344	0.42724	-0.404
Mof_O 	O 	0.27039	0.78923	0.44463	-0.275
Mof_O 	O 	0.17289	0.82146	0.18039	-0.415
Mof_O 	O 	0.22962	0.84008	0.09993	-0.442
Mof_O 	O 	0.33068	0.74083	0.24993	-0.184
Mof_O 	O 	0.32654	0.76283	0.14243	-0.197
Mof_O 	O 	0.13742	0.75042	0.53205	-0.435
Mof_O 	O 	0.10809	0.74683	0.63962	-0.415
Mof_O 	O 	0.01114	0.53904	0.43617	-0.369
Mof_O 	O 	0.05984	0.60603	0.38642	-0.342
Mof_C 	C 	0.25472	0.80063	0.32883	-0.099
Mof_C 	C 	0.231	0.81367	0.28193	0.057
Mof_C 	C 	0.23758	0.81234	0.21003	-0.102
Mof_C 	C 	0.2673	0.79667	0.18523	0.028
Mof_C 	C 	0.28988	0.78159	0.23143	-0.071
Mof_C 	C 	0.28397	0.78433	0.30303	0.038
Mof_C 	C 	0.24781	0.80133	0.40673	0.354
Mof_C 	C 	0.31821	0.76013	0.20603	0.312
Mof_C 	C 	0.21124	0.82583	0.15923	0.38
Mof_C 	C 	0.08666	0.67604	0.58143	-0.115
Mof_C 	C 	0.07854	0.6541	0.51623	0.048
Mof_C 	C 	0.05187	0.60523	0.51103	-0.094
Mof_C 	C 	0.03749	0.57819	0.57193	0.051
Mof_C 	C 	0.04757	0.59983	0.63743	-0.128
Mof_C 	C 	0.07051	0.64897	0.6413	0.064
Mof_C 	C 	0.11329	0.72908	0.58499	0.382
Mof_C 	C 	0.04054	0.58232	0.4408	0.306
Mof_H 	H 	0.20927	0.82443	0.30533	0.052
Mof_H 	H 	0.26957	0.79443	0.14233	0.054
Mof_H 	H 	0.29967	0.77533	0.33833	0.061
Mof_H 	H 	0.09047	0.67243	0.47533	0.053
Mof_H 	H 	0.02117	0.54503	0.56833	0.033
Mof_H 	H 	0.07677	0.66363	0.68633	0.044
Mof_C 	C 	0.03775	0.57171	0.70313	0.349
Mof_O 	O 	0.04368	0.59069	0.76136	-0.371
Mof_O 	O 	0.0279	0.52897	0.69885	-0.543
Mof_Co	Co	0.86358	0.14819	0.85955	1.169
Mof_Co	Co	0.87241	0.18405	0.34092	1.167
Mof_O 	O 	0.88586	0.14678	0.76058	-0.404
Mof_O 	O 	0.93705	0.12257	0.77797	-0.276
Mof_O 	O 	0.83955	0.1548	0.51373	-0.415
Mof_O 	O 	0.89628	0.17342	0.43327	-0.442
Mof_O 	O 	0.99734	0.07417	0.58327	-0.184
Mof_O 	O 	0.9932	0.09617	0.47577	-0.197
Mof_O 	O 	0.80408	0.08376	0.86539	-0.435
Mof_O 	O 	0.77475	0.08017	0.97296	-0.416
Mof_O 	O 	0.6778	0.87238	0.76951	-0.369
Mof_O 	O 	0.7265	0.93937	0.71976	-0.342
Mof_C 	C 	0.92138	0.13397	0.66217	-0.099
Mof_C 	C 	0.89766	0.14701	0.61527	0.057
Mof_C 	C 	0.90424	0.14568	0.54337	-0.102
Mof_C 	C 	0.93396	0.13001	0.51857	0.028
Mof_C 	C 	0.95654	0.11493	0.56477	-0.071
Mof_C 	C 	0.95063	0.11767	0.63637	0.038
Mof_C 	C 	0.91447	0.13467	0.74007	0.354
Mof_C 	C 	0.98487	0.09347	0.53937	0.312
Mof_C 	C 	0.8779	0.15917	0.49257	0.38
Mof_C 	C 	0.75332	0.00938	0.91477	-0.118
Mof_C 	C 	0.7452	0.98744	0.84957	0.051
Mof_C 	C 	0.71853	0.93857	0.84437	-0.095
Mof_C 	C 	0.70415	0.91153	0.90527	0.052
Mof_C 	C 	0.71423	0.93317	0.97077	-0.129
Mof_C 	C 	0.73717	0.98231	0.97464	0.066
Mof_C 	C 	0.77995	0.06242	0.91833	0.383
Mof_C 	C 	0.7072	0.91566	0.77414	0.306
Mof_H 	H 	0.87593	0.15777	0.63867	0.052
Mof_H 	H 	0.93623	0.12777	0.47567	0.054
Mof_H 	H 	0.96633	0.10867	0.67167	0.061
Mof_H 	H 	0.75713	0.00577	0.80867	0.051
Mof_H 	H 	0.68783	0.87837	0.90167	0.033
Mof_H 	H 	0.74343	0.99697	0.01967	0.043
Mof_C 	C 	0.70441	0.90505	0.03647	0.349
Mof_O 	O 	0.71034	0.92403	0.0947	-0.371
Mof_O 	O 	0.69456	0.86231	0.03219	-0.543
Mof_Co	Co	0.48152	0.95128	0.80712	1.169
Mof_Co	Co	0.51738	0.9783	0.32575	1.167
Mof_O 	O 	0.48011	0.92758	0.90609	-0.404
Mof_O 	O 	0.4559	0.85218	0.8887	-0.275
Mof_O 	O 	0.48813	0.98191	0.15294	-0.416
Mof_O 	O 	0.50675	0.9438	0.2334	-0.442
Mof_O 	O 	0.4075	0.74349	0.0834	-0.184
Mof_O 	O 	0.4295	0.76963	0.1909	-0.197
Mof_O 	O 	0.41709	0.94634	0.80128	-0.435
Mof_O 	O 	0.4135	0.97208	0.69371	-0.415
Mof_O 	O 	0.20571	0.86124	0.89716	-0.369
Mof_O 	O 	0.2727	0.87953	0.94691	-0.341
Mof_C 	C 	0.4673	0.87925	0.0045	-0.099
Mof_C 	C 	0.48034	0.91601	0.0514	0.057
Mof_C 	C 	0.47901	0.9081	0.1233	-0.102
Mof_C 	C 	0.46334	0.86271	0.1481	0.028
Mof_C 	C 	0.44826	0.82505	0.1019	-0.071
Mof_C 	C 	0.451	0.8337	0.0303	0.038
Mof_C 	C 	0.468	0.88686	0.9266	0.355
Mof_C 	C 	0.4268	0.77526	0.1273	0.312
Mof_C 	C 	0.4925	0.94793	0.1741	0.38
Mof_C 	C 	0.34271	0.92272	0.7519	-0.115
Mof_C 	C 	0.32077	0.9089	0.8171	0.048
Mof_C 	C 	0.2719	0.8867	0.8223	-0.094
Mof_C 	C 	0.24486	0.87404	0.7614	0.05
Mof_C 	C 	0.2665	0.8856	0.6959	-0.128
Mof_C 	C 	0.31564	0.9118	0.69203	0.064
Mof_C 	C 	0.39575	0.94913	0.74834	0.382
Mof_C 	C 	0.24899	0.87512	0.89253	0.306
Mof_H 	H 	0.4911	0.9485	0.028	0.052
Mof_H 	H 	0.4611	0.8582	0.191	0.054
Mof_H 	H 	0.442	0.809	0.995	0.062
Mof_H 	H 	0.3391	0.9153	0.858	0.053
Mof_H 	H 	0.2117	0.8572	0.765	0.033
Mof_H 	H 	0.3303	0.9202	0.647	0.044
Mof_C 	C 	0.23838	0.8673	0.6302	0.349
Mof_O 	O 	0.25736	0.88035	0.57197	-0.371
Mof_O 	O 	0.19564	0.83441	0.63448	-0.543
Mof_Co	Co	0.14819	0.28461	0.14045	1.169
Mof_Co	Co	0.18405	0.31163	0.65908	1.167
Mof_O 	O 	0.14678	0.26091	0.23942	-0.404
Mof_O 	O 	0.12257	0.18551	0.22203	-0.275
Mof_O 	O 	0.1548	0.31524	0.48627	-0.415
Mof_O 	O 	0.17342	0.27713	0.56673	-0.442
Mof_O 	O 	0.07417	0.07682	0.41673	-0.184
Mof_O 	O 	0.09617	0.10296	0.52423	-0.197
Mof_O 	O 	0.08376	0.27967	0.13461	-0.435
Mof_O 	O 	0.08017	0.30541	0.02704	-0.415
Mof_O 	O 	0.87238	0.19457	0.23049	-0.369
Mof_O 	O 	0.93937	0.21286	0.28024	-0.342
Mof_C 	C 	0.13397	0.21258	0.33783	-0.099
Mof_C 	C 	0.14701	0.24934	0.38473	0.057
Mof_C 	C 	0.14568	0.24143	0.45663	-0.102
Mof_C 	C 	0.13001	0.19604	0.48143	0.028
Mof_C 	C 	0.11493	0.15838	0.43523	-0.071
Mof_C 	C 	0.11767	0.16703	0.36363	0.038
Mof_C 	C 	0.13467	0.22019	0.25993	0.354
Mof_C 	C 	0.09347	0.10859	0.46063	0.312
Mof_C 	C 	0.15917	0.28126	0.50743	0.38
Mof_C 	C 	0.00938	0.25605	0.08523	-0.118
Mof_C 	C 	0.98744	0.24223	0.15043	0.051
Mof_C 	C 	0.93857	0.22003	0.15563	-0.095
Mof_C 	C 	0.91153	0.20737	0.09473	0.051
Mof_C 	C 	0.93317	0.21893	0.02923	-0.129
Mof_C 	C 	0.98231	0.24513	0.02536	0.067
Mof_C 	C 	0.06242	0.28246	0.08167	0.383
Mof_C 	C 	0.91566	0.20845	0.22586	0.306
Mof_H 	H 	0.15777	0.28183	0.36133	0.052
Mof_H 	H 	0.12777	0.19153	0.52433	0.054
Mof_H 	H 	0.10867	0.14233	0.32833	0.061
Mof_H 	H 	0.00577	0.24863	0.19133	0.052
Mof_H 	H 	0.87837	0.19053	0.09833	0.033
Mof_H 	H 	0.99697	0.25353	0.98033	0.043
Mof_C 	C 	0.90505	0.20063	0.96353	0.349
Mof_O 	O 	0.92403	0.21368	0.9053	-0.371
Mof_O 	O 	0.86231	0.16774	0.96781	-0.543
Mof_Co	Co	0.81486	0.61795	0.47379	1.169
Mof_Co	Co	0.85071	0.64497	0.99242	1.167
Mof_O 	O 	0.81344	0.59425	0.57276	-0.404
Mof_O 	O 	0.78923	0.51885	0.55537	-0.275
Mof_O 	O 	0.82146	0.64858	0.81961	-0.415
Mof_O 	O 	0.84008	0.61047	0.90007	-0.442
Mof_O 	O 	0.74083	0.41016	0.75007	-0.184
Mof_O 	O 	0.76283	0.4363	0.85757	-0.197
Mof_O 	O 	0.75042	0.61301	0.46795	-0.435
Mof_O 	O 	0.74683	0.63875	0.36038	-0.415
Mof_O 	O 	0.53904	0.52791	0.56383	-0.369
Mof_O 	O 	0.60603	0.5462	0.61358	-0.342
Mof_C 	C 	0.80063	0.54592	0.67117	-0.099
Mof_C 	C 	0.81367	0.58268	0.71807	0.057
Mof_C 	C 	0.81234	0.57477	0.78997	-0.102
Mof_C 	C 	0.79667	0.52938	0.81477	0.028
Mof_C 	C 	0.78159	0.49172	0.76857	-0.071
Mof_C 	C 	0.78433	0.50037	0.69697	0.038
Mof_C 	C 	0.80133	0.55353	0.59327	0.354
Mof_C 	C 	0.76013	0.44193	0.79397	0.312
Mof_C 	C 	0.82583	0.6146	0.84077	0.38
Mof_C 	C 	0.67604	0.58939	0.41857	-0.115
Mof_C 	C 	0.6541	0.57557	0.48377	0.048
Mof_C 	C 	0.60523	0.55337	0.48897	-0.094
Mof_C 	C 	0.57819	0.54071	0.42807	0.051
Mof_C 	C 	0.59983	0.55227	0.36257	-0.128
Mof_C 	C 	0.64897	0.57847	0.3587	0.064
Mof_C 	C 	0.72908	0.6158	0.41501	0.382
Mof_C 	C 	0.58232	0.54179	0.5592	0.306
Mof_H 	H 	0.82443	0.61517	0.69467	0.052
Mof_H 	H 	0.79443	0.52487	0.85767	0.054
Mof_H 	H 	0.77533	0.47567	0.66167	0.061
Mof_H 	H 	0.67243	0.58197	0.52467	0.053
Mof_H 	H 	0.54503	0.52387	0.43167	0.033
Mof_H 	H 	0.66363	0.58687	0.31367	0.044
Mof_C 	C 	0.57171	0.53397	0.29687	0.349
Mof_O 	O 	0.59069	0.54702	0.23864	-0.371
Mof_O 	O 	0.52897	0.50108	0.30115	-0.543
Mof_Co	Co	0.04872	0.53024	0.80712	1.169
Mof_Co	Co	0.0217	0.53908	0.32575	1.167
Mof_O 	O 	0.07242	0.55253	0.90609	-0.404
Mof_O 	O 	0.14782	0.60372	0.8887	-0.275
Mof_O 	O 	0.01809	0.50622	0.15294	-0.416
Mof_O 	O 	0.0562	0.56295	0.2334	-0.442
Mof_O 	O 	0.25651	0.66401	0.0834	-0.184
Mof_O 	O 	0.23037	0.65987	0.1909	-0.197
Mof_O 	O 	0.05366	0.47075	0.80128	-0.435
Mof_O 	O 	0.02792	0.44142	0.69371	-0.415
Mof_O 	O 	0.13876	0.34447	0.89716	-0.369
Mof_O 	O 	0.12047	0.39317	0.94691	-0.342
Mof_C 	C 	0.12075	0.58805	0.0045	-0.099
Mof_C 	C 	0.08399	0.56433	0.0514	0.057
Mof_C 	C 	0.0919	0.57091	0.1233	-0.102
Mof_C 	C 	0.13729	0.60063	0.1481	0.028
Mof_C 	C 	0.17495	0.62321	0.1019	-0.071
Mof_C 	C 	0.1663	0.6173	0.0303	0.037
Mof_C 	C 	0.11314	0.58114	0.9266	0.355
Mof_C 	C 	0.22474	0.65154	0.1273	0.312
Mof_C 	C 	0.05207	0.54457	0.1741	0.38
Mof_C 	C 	0.07728	0.41999	0.7519	-0.115
Mof_C 	C 	0.0911	0.41187	0.8171	0.048
Mof_C 	C 	0.1133	0.3852	0.8223	-0.094
Mof_C 	C 	0.12596	0.37082	0.7614	0.051
Mof_C 	C 	0.1144	0.3809	0.6959	-0.128
Mof_C 	C 	0.0882	0.40384	0.69203	0.064
Mof_C 	C 	0.05087	0.44662	0.74834	0.382
Mof_C 	C 	0.12488	0.37387	0.89253	0.306
Mof_H 	H 	0.0515	0.5426	0.028	0.052
Mof_H 	H 	0.1418	0.6029	0.191	0.054
Mof_H 	H 	0.191	0.633	0.995	0.062
Mof_H 	H 	0.0847	0.4238	0.858	0.053
Mof_H 	H 	0.1428	0.3545	0.765	0.033
Mof_H 	H 	0.0798	0.4101	0.647	0.044
Mof_C 	C 	0.1327	0.37108	0.6302	0.349
Mof_O 	O 	0.11965	0.37701	0.57197	-0.371
Mof_O 	O 	0.16559	0.36123	0.63448	-0.543
Mof_Co	Co	0.71539	0.86358	0.14045	1.169
Mof_Co	Co	0.68837	0.87241	0.65908	1.167
Mof_O 	O 	0.73909	0.88586	0.23942	-0.404
Mof_O 	O 	0.81449	0.93705	0.22203	-0.275
Mof_O 	O 	0.68476	0.83955	0.48627	-0.415
Mof_O 	O 	0.72287	0.89628	0.56673	-0.442
Mof_O 	O 	0.92318	0.99734	0.41673	-0.184
Mof_O 	O 	0.89704	0.9932	0.52423	-0.197
Mof_O 	O 	0.72033	0.80408	0.13461	-0.435
Mof_O 	O 	0.69459	0.77475	0.02704	-0.415
Mof_O 	O 	0.80543	0.6778	0.23049	-0.369
Mof_O 	O 	0.78714	0.7265	0.28024	-0.342
Mof_C 	C 	0.78742	0.92138	0.33783	-0.099
Mof_C 	C 	0.75066	0.89766	0.38473	0.057
Mof_C 	C 	0.75857	0.90424	0.45663	-0.102
Mof_C 	C 	0.80396	0.93396	0.48143	0.028
Mof_C 	C 	0.84162	0.95654	0.43523	-0.071
Mof_C 	C 	0.83297	0.95063	0.36363	0.038
Mof_C 	C 	0.77981	0.91447	0.25993	0.354
Mof_C 	C 	0.89141	0.98487	0.46063	0.312
Mof_C 	C 	0.71874	0.8779	0.50743	0.38
Mof_C 	C 	0.74395	0.75332	0.08523	-0.115
Mof_C 	C 	0.75777	0.7452	0.15043	0.048
Mof_C 	C 	0.77997	0.71853	0.15563	-0.094
Mof_C 	C 	0.79263	0.70415	0.09473	0.05
Mof_C 	C 	0.78107	0.71423	0.02923	-0.128
Mof_C 	C 	0.75487	0.73717	0.02536	0.064
Mof_C 	C 	0.71754	0.77995	0.08167	0.382
Mof_C 	C 	0.79155	0.7072	0.22586	0.306
Mof_H 	H 	0.71817	0.87593	0.36133	0.052
Mof_H 	H 	0.80847	0.93623	0.52433	0.054
Mof_H 	H 	0.85767	0.96633	0.32833	0.061
Mof_H 	H 	0.75137	0.75713	0.19133	0.053
Mof_H 	H 	0.80947	0.68783	0.09833	0.033
Mof_H 	H 	0.74647	0.74343	0.98033	0.044
Mof_C 	C 	0.79937	0.70441	0.96353	0.349
Mof_O 	O 	0.78632	0.71034	0.9053	-0.371
Mof_O 	O 	0.83226	0.69456	0.96781	-0.543
Mof_Co	Co	0.38205	0.19691	0.47379	1.169
Mof_Co	Co	0.35503	0.20575	0.99242	1.167
Mof_O 	O 	0.40575	0.2192	0.57276	-0.404
Mof_O 	O 	0.48115	0.27039	0.55537	-0.275
Mof_O 	O 	0.35142	0.17289	0.81961	-0.415
Mof_O 	O 	0.38953	0.22962	0.90007	-0.442
Mof_O 	O 	0.58984	0.33068	0.75007	-0.184
Mof_O 	O 	0.5637	0.32654	0.85757	-0.197
Mof_O 	O 	0.38699	0.13742	0.46795	-0.435
Mof_O 	O 	0.36125	0.10809	0.36038	-0.415
Mof_O 	O 	0.47209	0.01114	0.56383	-0.369
Mof_O 	O 	0.4538	0.05984	0.61358	-0.342
Mof_C 	C 	0.45408	0.25472	0.67117	-0.099
Mof_C 	C 	0.41732	0.231	0.71807	0.057
Mof_C 	C 	0.42523	0.23758	0.78997	-0.102
Mof_C 	C 	0.47062	0.2673	0.81477	0.028
Mof_C 	C 	0.50828	0.28988	0.76857	-0.071
Mof_C 	C 	0.49963	0.28397	0.69697	0.038
Mof_C 	C 	0.44647	0.24781	0.59327	0.354
Mof_C 	C 	0.55807	0.31821	0.79397	0.312
Mof_C 	C 	0.3854	0.21124	0.84077	0.38
Mof_C 	C 	0.41061	0.08666	0.41857	-0.115
Mof_C 	C 	0.42443	0.07854	0.48377	0.048
Mof_C 	C 	0.44663	0.05187	0.48897	-0.094
Mof_C 	C 	0.45929	0.03749	0.42807	0.051
Mof_C 	C 	0.44773	0.04757	0.36257	-0.128
Mof_C 	C 	0.42153	0.07051	0.3587	0.064
Mof_C 	C 	0.3842	0.11329	0.41501	0.382
Mof_C 	C 	0.45821	0.04054	0.5592	0.306
Mof_H 	H 	0.38483	0.20927	0.69467	0.052
Mof_H 	H 	0.47513	0.26957	0.85767	0.054
Mof_H 	H 	0.52433	0.29967	0.66167	0.061
Mof_H 	H 	0.41803	0.09047	0.52467	0.053
Mof_H 	H 	0.47613	0.02117	0.43167	0.033
Mof_H 	H 	0.41313	0.07677	0.31367	0.044
Mof_C 	C 	0.46603	0.03775	0.29687	0.349
Mof_O 	O 	0.45298	0.04368	0.23864	-0.371
Mof_O 	O 	0.49892	0.0279	0.30115	-0.543
Mof_Co	Co	0.46976	0.51848	0.80712	1.169
Mof_Co	Co	0.46092	0.48262	0.32575	1.167
Mof_O 	O 	0.44747	0.51989	0.90609	-0.404
Mof_O 	O 	0.39628	0.5441	0.8887	-0.275
Mof_O 	O 	0.49378	0.51187	0.15294	-0.415
Mof_O 	O 	0.43705	0.49325	0.2334	-0.442
Mof_O 	O 	0.33599	0.5925	0.0834	-0.184
Mof_O 	O 	0.34013	0.5705	0.1909	-0.197
Mof_O 	O 	0.52925	0.58291	0.80128	-0.435
Mof_O 	O 	0.55858	0.5865	0.69371	-0.415
Mof_O 	O 	0.65553	0.79429	0.89716	-0.369
Mof_O 	O 	0.60683	0.7273	0.94691	-0.342
Mof_C 	C 	0.41195	0.5327	0.0045	-0.099
Mof_C 	C 	0.43567	0.51966	0.0514	0.057
Mof_C 	C 	0.42909	0.52099	0.1233	-0.102
Mof_C 	C 	0.39937	0.53666	0.1481	0.028
Mof_C 	C 	0.37679	0.55174	0.1019	-0.071
Mof_C 	C 	0.3827	0.549	0.0303	0.038
Mof_C 	C 	0.41886	0.532	0.9266	0.354
Mof_C 	C 	0.34846	0.5732	0.1273	0.312
Mof_C 	C 	0.45543	0.5075	0.1741	0.38
Mof_C 	C 	0.58001	0.65729	0.7519	-0.115
Mof_C 	C 	0.58813	0.67923	0.8171	0.048
Mof_C 	C 	0.6148	0.7281	0.8223	-0.094
Mof_C 	C 	0.62918	0.75514	0.7614	0.051
Mof_C 	C 	0.6191	0.7335	0.6959	-0.128
Mof_C 	C 	0.59616	0.68436	0.69203	0.064
Mof_C 	C 	0.55338	0.60425	0.74834	0.382
Mof_C 	C 	0.62613	0.75101	0.89253	0.306
Mof_H 	H 	0.4574	0.5089	0.028	0.052
Mof_H 	H 	0.3971	0.5389	0.191	0.054
Mof_H 	H 	0.367	0.558	0.995	0.062
Mof_H 	H 	0.5762	0.6609	0.858	0.053
Mof_H 	H 	0.6455	0.7883	0.765	0.033
Mof_H 	H 	0.5899	0.6697	0.647	0.044
Mof_C 	C 	0.62892	0.76162	0.6302	0.349
Mof_O 	O 	0.62299	0.74264	0.57197	-0.371
Mof_O 	O 	0.63877	0.80436	0.63448	-0.543
Mof_Co	Co	0.13642	0.85181	0.14045	1.169
Mof_Co	Co	0.12759	0.81595	0.65908	1.167
Mof_O 	O 	0.11414	0.85322	0.23942	-0.404
Mof_O 	O 	0.06295	0.87743	0.22203	-0.276
Mof_O 	O 	0.16045	0.8452	0.48627	-0.415
Mof_O 	O 	0.10372	0.82658	0.56673	-0.442
Mof_O 	O 	0.00266	0.92583	0.41673	-0.184
Mof_O 	O 	0.0068	0.90383	0.52423	-0.197
Mof_O 	O 	0.19592	0.91624	0.13461	-0.435
Mof_O 	O 	0.22525	0.91983	0.02704	-0.416
Mof_O 	O 	0.3222	0.12762	0.23049	-0.369
Mof_O 	O 	0.2735	0.06063	0.28024	-0.342
Mof_C 	C 	0.07862	0.86603	0.33783	-0.099
Mof_C 	C 	0.10234	0.85299	0.38473	0.057
Mof_C 	C 	0.09576	0.85432	0.45663	-0.102
Mof_C 	C 	0.06604	0.86999	0.48143	0.028
Mof_C 	C 	0.04346	0.88507	0.43523	-0.071
Mof_C 	C 	0.04937	0.88233	0.36363	0.038
Mof_C 	C 	0.08553	0.86533	0.25993	0.354
Mof_C 	C 	0.01513	0.90653	0.46063	0.312
Mof_C 	C 	0.1221	0.84083	0.50743	0.38
Mof_C 	C 	0.24668	0.99062	0.08523	-0.118
Mof_C 	C 	0.2548	0.01256	0.15043	0.051
Mof_C 	C 	0.28147	0.06143	0.15563	-0.095
Mof_C 	C 	0.29585	0.08847	0.09473	0.052
Mof_C 	C 	0.28577	0.06683	0.02923	-0.129
Mof_C 	C 	0.26283	0.01769	0.02536	0.066
Mof_C 	C 	0.22005	0.93758	0.08167	0.383
Mof_C 	C 	0.2928	0.08434	0.22586	0.306
Mof_H 	H 	0.12407	0.84223	0.36133	0.052
Mof_H 	H 	0.06377	0.87223	0.52433	0.054
Mof_H 	H 	0.03367	0.89133	0.32833	0.061
Mof_H 	H 	0.24287	0.99423	0.19133	0.051
Mof_H 	H 	0.31217	0.12163	0.09833	0.033
Mof_H 	H 	0.25657	0.00303	0.98033	0.043
Mof_C 	C 	0.29559	0.09495	0.96353	0.349
Mof_O 	O 	0.28966	0.07597	0.9053	-0.371
Mof_O 	O 	0.30544	0.13769	0.96781	-0.543
Mof_Co	Co	0.80309	0.18514	0.47379	1.169
Mof_Co	Co	0.79425	0.14929	0.99242	1.167
Mof_O 	O 	0.7808	0.18656	0.57276	-0.404
Mof_O 	O 	0.72961	0.21077	0.55537	-0.275
Mof_O 	O 	0.82711	0.17854	0.81961	-0.415
Mof_O 	O 	0.77038	0.15992	0.90007	-0.442
Mof_O 	O 	0.66932	0.25917	0.75007	-0.184
Mof_O 	O 	0.67346	0.23717	0.85757	-0.197
Mof_O 	O 	0.86258	0.24958	0.46795	-0.435
Mof_O 	O 	0.89191	0.25317	0.36038	-0.415
Mof_O 	O 	0.98886	0.46096	0.56383	-0.369
Mof_O 	O 	0.94016	0.39397	0.61358	-0.342
Mof_C 	C 	0.74528	0.19937	0.67117	-0.099
Mof_C 	C 	0.769	0.18633	0.71807	0.057
Mof_C 	C 	0.76242	0.18766	0.78997	-0.102
Mof_C 	C 	0.7327	0.20333	0.81477	0.028
Mof_C 	C 	0.71012	0.21841	0.76857	-0.071
Mof_C 	C 	0.71603	0.21567	0.69697	0.038
Mof_C 	C 	0.75219	0.19867	0.59327	0.354
Mof_C 	C 	0.68179	0.23987	0.79397	0.312
Mof_C 	C 	0.78876	0.17417	0.84077	0.38
Mof_C 	C 	0.91334	0.32396	0.41857	-0.115
Mof_C 	C 	0.92146	0.3459	0.48377	0.048
Mof_C 	C 	0.94813	0.39477	0.48897	-0.094
Mof_C 	C 	0.96251	0.42181	0.42807	0.051
Mof_C 	C 	0.95243	0.40017	0.36257	-0.128
Mof_C 	C 	0.92949	0.35103	0.3587	0.064
Mof_C 	C 	0.88671	0.27092	0.41501	0.382
Mof_C 	C 	0.95946	0.41768	0.5592	0.306
Mof_H 	H 	0.79073	0.17557	0.69467	0.052
Mof_H 	H 	0.73043	0.20557	0.85767	0.054
Mof_H 	H 	0.70033	0.22467	0.66167	0.061
Mof_H 	H 	0.90953	0.32757	0.52467	0.053
Mof_H 	H 	0.97883	0.45497	0.43167	0.033
Mof_H 	H 	0.92323	0.33637	0.31367	0.044
Mof_C 	C 	0.96225	0.42829	0.29687	0.349
Mof_O 	O 	0.95632	0.40931	0.23864	-0.371
Mof_O 	O 	0.9721	0.47103	0.30115	-0.543
_end
