# CIF file generated by openbabel 3.1.0, see https://openbabel.org
data_I
_chemical_name_common 'image0'
_cell_length_a 15.645
_cell_length_b 15.645
_cell_length_c 19.75
_cell_angle_alpha 90
_cell_angle_beta 90
_cell_angle_gamma 90
_space_group_name_H-M_alt 'P 1'
_space_group_name_Hall 'P 1'
loop_
    _symmetry_equiv_pos_as_xyz
    x,y,z
loop_
    _atom_site_label
    _atom_site_type_symbol
    _atom_site_fract_x
    _atom_site_fract_y
    _atom_site_fract_z
    _atom_site_occupancy
    N1       N        0.06777    0.18031    0.04619    1.000
    C1       C        0.02823    0.14756    0.99136    1.000
    H1       H        0.96890    0.15030    0.98920    1.000
    C2       C        0.07165    0.11020    0.93849    1.000
    H2       H        0.04200    0.08800    0.90170    1.000
    C3       C        0.15991    0.10613    0.94066    1.000
    H3       H        0.19030    0.08220    0.90490    1.000
    C4       C        0.20261    0.13821    0.99702    1.000
    C5       C        0.15343    0.17433    0.04816    1.000
    H4       H        0.18150    0.19570    0.08610    1.000
    N2       N        0.56777    0.68031    0.54619    1.000
    C6       C        0.52823    0.64756    0.49136    1.000
    H5       H        0.46890    0.65030    0.48920    1.000
    C7       C        0.57165    0.61020    0.43849    1.000
    H6       H        0.54200    0.58800    0.40170    1.000
    C8       C        0.65991    0.60613    0.44066    1.000
    H7       H        0.69030    0.58220    0.40490    1.000
    C9       C        0.70261    0.63821    0.49702    1.000
    C10      C        0.65343    0.67433    0.54816    1.000
    H8       H        0.68150    0.69570    0.58610    1.000
    N3       N        0.43223    0.81969    0.54619    1.000
    C11      C        0.47177    0.85244    0.49136    1.000
    H9       H        0.53110    0.84970    0.48920    1.000
    C12      C        0.42835    0.88980    0.43849    1.000
    H10      H        0.45800    0.91200    0.40170    1.000
    C13      C        0.34009    0.89387    0.44066    1.000
    H11      H        0.30970    0.91780    0.40490    1.000
    C14      C        0.29739    0.86179    0.49702    1.000
    C15      C        0.34657    0.82567    0.54816    1.000
    H12      H        0.31850    0.80430    0.58610    1.000
    N4       N        0.93223    0.31969    0.04619    1.000
    C16      C        0.97177    0.35244    0.99136    1.000
    H13      H        0.03110    0.34970    0.98920    1.000
    C17      C        0.92835    0.38980    0.93849    1.000
    H14      H        0.95800    0.41200    0.90170    1.000
    C18      C        0.84009    0.39387    0.94066    1.000
    H15      H        0.80970    0.41780    0.90490    1.000
    C19      C        0.79739    0.36179    0.99702    1.000
    C20      C        0.84657    0.32567    0.04816    1.000
    H16      H        0.81850    0.30430    0.08610    1.000
    N5       N        0.06969    0.81777    0.29619    1.000
    C21      C        0.10244    0.77823    0.24136    1.000
    H17      H        0.09970    0.71890    0.23920    1.000
    C22      C        0.13980    0.82165    0.18849    1.000
    H18      H        0.16200    0.79200    0.15170    1.000
    C23      C        0.14387    0.90991    0.19066    1.000
    H19      H        0.16780    0.94030    0.15490    1.000
    C24      C        0.11179    0.95261    0.24702    1.000
    C25      C        0.07567    0.90343    0.29816    1.000
    H20      H        0.05430    0.93150    0.33610    1.000
    N6       N        0.56969    0.31777    0.79619    1.000
    C26      C        0.60244    0.27823    0.74136    1.000
    H21      H        0.59970    0.21890    0.73920    1.000
    C27      C        0.63980    0.32165    0.68849    1.000
    H22      H        0.66200    0.29200    0.65170    1.000
    C28      C        0.64387    0.40991    0.69066    1.000
    H23      H        0.66780    0.44030    0.65490    1.000
    C29      C        0.61179    0.45261    0.74702    1.000
    C30      C        0.57567    0.40343    0.79816    1.000
    H24      H        0.55430    0.43150    0.83610    1.000
    N7       N        0.43031    0.18223    0.79619    1.000
    C31      C        0.39756    0.22177    0.74136    1.000
    H25      H        0.40030    0.28110    0.73920    1.000
    C32      C        0.36020    0.17835    0.68849    1.000
    H26      H        0.33800    0.20800    0.65170    1.000
    C33      C        0.35613    0.09009    0.69066    1.000
    H27      H        0.33220    0.05970    0.65490    1.000
    C34      C        0.38821    0.04739    0.74702    1.000
    C35      C        0.42433    0.09657    0.79816    1.000
    H28      H        0.44570    0.06850    0.83610    1.000
    N8       N        0.93031    0.68223    0.29619    1.000
    C36      C        0.89756    0.72177    0.24136    1.000
    H29      H        0.90030    0.78110    0.23920    1.000
    C37      C        0.86020    0.67835    0.18849    1.000
    H30      H        0.83800    0.70800    0.15170    1.000
    C38      C        0.85613    0.59009    0.19066    1.000
    H31      H        0.83220    0.55970    0.15490    1.000
    C39      C        0.88821    0.54739    0.24702    1.000
    C40      C        0.92433    0.59657    0.29816    1.000
    H32      H        0.94570    0.56850    0.33610    1.000
    N9       N        0.43223    0.18031    0.95381    1.000
    C41      C        0.47177    0.14756    0.00864    1.000
    H33      H        0.53110    0.15030    0.01080    1.000
    C42      C        0.42835    0.11020    0.06151    1.000
    H34      H        0.45800    0.08800    0.09830    1.000
    C43      C        0.34009    0.10613    0.05934    1.000
    H35      H        0.30970    0.08220    0.09510    1.000
    C44      C        0.29739    0.13821    0.00298    1.000
    C45      C        0.34657    0.17433    0.95184    1.000
    H36      H        0.31850    0.19570    0.91390    1.000
    N10      N        0.93223    0.68031    0.45381    1.000
    C46      C        0.97177    0.64756    0.50864    1.000
    H37      H        0.03110    0.65030    0.51080    1.000
    C47      C        0.92835    0.61020    0.56151    1.000
    H38      H        0.95800    0.58800    0.59830    1.000
    C48      C        0.84009    0.60613    0.55934    1.000
    H39      H        0.80970    0.58220    0.59510    1.000
    C49      C        0.79739    0.63821    0.50298    1.000
    C50      C        0.84657    0.67433    0.45184    1.000
    H40      H        0.81850    0.69570    0.41390    1.000
    N11      N        0.06777    0.81969    0.45381    1.000
    C51      C        0.02823    0.85244    0.50864    1.000
    H41      H        0.96890    0.84970    0.51080    1.000
    C52      C        0.07165    0.88980    0.56151    1.000
    H42      H        0.04200    0.91200    0.59830    1.000
    C53      C        0.15991    0.89387    0.55934    1.000
    H43      H        0.19030    0.91780    0.59510    1.000
    C54      C        0.20261    0.86179    0.50298    1.000
    C55      C        0.15343    0.82567    0.45184    1.000
    H44      H        0.18150    0.80430    0.41390    1.000
    N12      N        0.56777    0.31969    0.95381    1.000
    C56      C        0.52823    0.35244    0.00864    1.000
    H45      H        0.46890    0.34970    0.01080    1.000
    C57      C        0.57165    0.38980    0.06151    1.000
    H46      H        0.54200    0.41200    0.09830    1.000
    C58      C        0.65991    0.39387    0.05934    1.000
    H47      H        0.69030    0.41780    0.09510    1.000
    C59      C        0.70261    0.36179    0.00298    1.000
    C60      C        0.65343    0.32567    0.95184    1.000
    H48      H        0.68150    0.30430    0.91390    1.000
    N13      N        0.43031    0.81777    0.70381    1.000
    C61      C        0.39756    0.77823    0.75864    1.000
    H49      H        0.40030    0.71890    0.76080    1.000
    C62      C        0.36020    0.82165    0.81151    1.000
    H50      H        0.33800    0.79200    0.84830    1.000
    C63      C        0.35613    0.90991    0.80934    1.000
    H51      H        0.33220    0.94030    0.84510    1.000
    C64      C        0.38821    0.95261    0.75298    1.000
    C65      C        0.42433    0.90343    0.70184    1.000
    H52      H        0.44570    0.93150    0.66390    1.000
    N14      N        0.93031    0.31777    0.20381    1.000
    C66      C        0.89756    0.27823    0.25864    1.000
    H53      H        0.90030    0.21890    0.26080    1.000
    C67      C        0.86020    0.32165    0.31151    1.000
    H54      H        0.83800    0.29200    0.34830    1.000
    C68      C        0.85613    0.40991    0.30934    1.000
    H55      H        0.83220    0.44030    0.34510    1.000
    C69      C        0.88821    0.45261    0.25298    1.000
    C70      C        0.92433    0.40343    0.20184    1.000
    H56      H        0.94570    0.43150    0.16390    1.000
    N15      N        0.06969    0.18223    0.20381    1.000
    C71      C        0.10244    0.22177    0.25864    1.000
    H57      H        0.09970    0.28110    0.26080    1.000
    C72      C        0.13980    0.17835    0.31151    1.000
    H58      H        0.16200    0.20800    0.34830    1.000
    C73      C        0.14387    0.09009    0.30934    1.000
    H59      H        0.16780    0.05970    0.34510    1.000
    C74      C        0.11179    0.04739    0.25298    1.000
    C75      C        0.07567    0.09657    0.20184    1.000
    H60      H        0.05430    0.06850    0.16390    1.000
    N16      N        0.56969    0.68223    0.70381    1.000
    C76      C        0.60244    0.72177    0.75864    1.000
    H61      H        0.59970    0.78110    0.76080    1.000
    C77      C        0.63980    0.67835    0.81151    1.000
    H62      H        0.66200    0.70800    0.84830    1.000
    C78      C        0.64387    0.59009    0.80934    1.000
    H63      H        0.66780    0.55970    0.84510    1.000
    C79      C        0.61179    0.54739    0.75298    1.000
    C80      C        0.57567    0.59657    0.70184    1.000
    H64      H        0.55430    0.56850    0.66390    1.000
    Co1      Co       0.00000    0.25000    0.12500    1.000
    Co2      Co       0.50000    0.75000    0.62500    1.000
    Co3      Co       0.00000    0.75000    0.37500    1.000
    Co4      Co       0.50000    0.25000    0.87500    1.000
    N17      N        0.93223    0.81969    0.95381    1.000
    C81      C        0.97177    0.85244    0.00864    1.000
    H65      H        0.03110    0.84970    0.01080    1.000
    C82      C        0.92835    0.88980    0.06151    1.000
    H66      H        0.95800    0.91200    0.09830    1.000
    C83      C        0.84009    0.89387    0.05934    1.000
    H67      H        0.80970    0.91780    0.09510    1.000
    C84      C        0.79739    0.86179    0.00298    1.000
    C85      C        0.84657    0.82567    0.95184    1.000
    H68      H        0.81850    0.80430    0.91390    1.000
    N18      N        0.43223    0.31969    0.45381    1.000
    C86      C        0.47177    0.35244    0.50864    1.000
    H69      H        0.53110    0.34970    0.51080    1.000
    C87      C        0.42835    0.38980    0.56151    1.000
    H70      H        0.45800    0.41200    0.59830    1.000
    C88      C        0.34009    0.39387    0.55934    1.000
    H71      H        0.30970    0.41780    0.59510    1.000
    C89      C        0.29739    0.36179    0.50298    1.000
    C90      C        0.34657    0.32567    0.45184    1.000
    H72      H        0.31850    0.30430    0.41390    1.000
    N19      N        0.56777    0.18031    0.45381    1.000
    C91      C        0.52823    0.14756    0.50864    1.000
    H73      H        0.46890    0.15030    0.51080    1.000
    C92      C        0.57165    0.11020    0.56151    1.000
    H74      H        0.54200    0.08800    0.59830    1.000
    C93      C        0.65991    0.10613    0.55934    1.000
    H75      H        0.69030    0.08220    0.59510    1.000
    C94      C        0.70261    0.13821    0.50298    1.000
    C95      C        0.65343    0.17433    0.45184    1.000
    H76      H        0.68150    0.19570    0.41390    1.000
    N20      N        0.06777    0.68031    0.95381    1.000
    C96      C        0.02823    0.64756    0.00864    1.000
    H77      H        0.96890    0.65030    0.01080    1.000
    C97      C        0.07165    0.61020    0.06151    1.000
    H78      H        0.04200    0.58800    0.09830    1.000
    C98      C        0.15991    0.60613    0.05934    1.000
    H79      H        0.19030    0.58220    0.09510    1.000
    C99      C        0.20261    0.63821    0.00298    1.000
    C100     C        0.15343    0.67433    0.95184    1.000
    H80      H        0.18150    0.69570    0.91390    1.000
    N21      N        0.93031    0.18223    0.70381    1.000
    C101     C        0.89756    0.22177    0.75864    1.000
    H81      H        0.90030    0.28110    0.76080    1.000
    C102     C        0.86020    0.17835    0.81151    1.000
    H82      H        0.83800    0.20800    0.84830    1.000
    C103     C        0.85613    0.09009    0.80934    1.000
    H83      H        0.83220    0.05970    0.84510    1.000
    C104     C        0.88821    0.04739    0.75298    1.000
    C105     C        0.92433    0.09657    0.70184    1.000
    H84      H        0.94570    0.06850    0.66390    1.000
    N22      N        0.43031    0.68223    0.20381    1.000
    C106     C        0.39756    0.72177    0.25864    1.000
    H85      H        0.40030    0.78110    0.26080    1.000
    C107     C        0.36020    0.67835    0.31151    1.000
    H86      H        0.33800    0.70800    0.34830    1.000
    C108     C        0.35613    0.59009    0.30934    1.000
    H87      H        0.33220    0.55970    0.34510    1.000
    C109     C        0.38821    0.54739    0.25298    1.000
    C110     C        0.42433    0.59657    0.20184    1.000
    H88      H        0.44570    0.56850    0.16390    1.000
    N23      N        0.56969    0.81777    0.20381    1.000
    C111     C        0.60244    0.77823    0.25864    1.000
    H89      H        0.59970    0.71890    0.26080    1.000
    C112     C        0.63980    0.82165    0.31151    1.000
    H90      H        0.66200    0.79200    0.34830    1.000
    C113     C        0.64387    0.90991    0.30934    1.000
    H91      H        0.66780    0.94030    0.34510    1.000
    C114     C        0.61179    0.95261    0.25298    1.000
    C115     C        0.57567    0.90343    0.20184    1.000
    H92      H        0.55430    0.93150    0.16390    1.000
    N24      N        0.06969    0.31777    0.70381    1.000
    C116     C        0.10244    0.27823    0.75864    1.000
    H93      H        0.09970    0.21890    0.76080    1.000
    C117     C        0.13980    0.32165    0.81151    1.000
    H94      H        0.16200    0.29200    0.84830    1.000
    C118     C        0.14387    0.40991    0.80934    1.000
    H95      H        0.16780    0.44030    0.84510    1.000
    C119     C        0.11179    0.45261    0.75298    1.000
    C120     C        0.07567    0.40343    0.70184    1.000
    H96      H        0.05430    0.43150    0.66390    1.000
    N25      N        0.56777    0.81969    0.04619    1.000
    C121     C        0.52823    0.85244    0.99136    1.000
    H97      H        0.46890    0.84970    0.98920    1.000
    C122     C        0.57165    0.88980    0.93849    1.000
    H98      H        0.54200    0.91200    0.90170    1.000
    C123     C        0.65991    0.89387    0.94066    1.000
    H99      H        0.69030    0.91780    0.90490    1.000
    C124     C        0.70261    0.86179    0.99702    1.000
    C125     C        0.65343    0.82567    0.04816    1.000
    H100     H        0.68150    0.80430    0.08610    1.000
    N26      N        0.06777    0.31969    0.54619    1.000
    C126     C        0.02823    0.35244    0.49136    1.000
    H101     H        0.96890    0.34970    0.48920    1.000
    C127     C        0.07165    0.38980    0.43849    1.000
    H102     H        0.04200    0.41200    0.40170    1.000
    C128     C        0.15991    0.39387    0.44066    1.000
    H103     H        0.19030    0.41780    0.40490    1.000
    C129     C        0.20261    0.36179    0.49702    1.000
    C130     C        0.15343    0.32567    0.54816    1.000
    H104     H        0.18150    0.30430    0.58610    1.000
    N27      N        0.93223    0.18031    0.54619    1.000
    C131     C        0.97177    0.14756    0.49136    1.000
    H105     H        0.03110    0.15030    0.48920    1.000
    C132     C        0.92835    0.11020    0.43849    1.000
    H106     H        0.95800    0.08800    0.40170    1.000
    C133     C        0.84009    0.10613    0.44066    1.000
    H107     H        0.80970    0.08220    0.40490    1.000
    C134     C        0.79739    0.13821    0.49702    1.000
    C135     C        0.84657    0.17433    0.54816    1.000
    H108     H        0.81850    0.19570    0.58610    1.000
    N28      N        0.43223    0.68031    0.04619    1.000
    C136     C        0.47177    0.64756    0.99136    1.000
    H109     H        0.53110    0.65030    0.98920    1.000
    C137     C        0.42835    0.61020    0.93849    1.000
    H110     H        0.45800    0.58800    0.90170    1.000
    C138     C        0.34009    0.60613    0.94066    1.000
    H111     H        0.30970    0.58220    0.90490    1.000
    C139     C        0.29739    0.63821    0.99702    1.000
    C140     C        0.34657    0.67433    0.04816    1.000
    H112     H        0.31850    0.69570    0.08610    1.000
    N29      N        0.56969    0.18223    0.29619    1.000
    C141     C        0.60244    0.22177    0.24136    1.000
    H113     H        0.59970    0.28110    0.23920    1.000
    C142     C        0.63980    0.17835    0.18849    1.000
    H114     H        0.66200    0.20800    0.15170    1.000
    C143     C        0.64387    0.09009    0.19066    1.000
    H115     H        0.66780    0.05970    0.15490    1.000
    C144     C        0.61179    0.04739    0.24702    1.000
    C145     C        0.57567    0.09657    0.29816    1.000
    H116     H        0.55430    0.06850    0.33610    1.000
    N30      N        0.06969    0.68223    0.79619    1.000
    C146     C        0.10244    0.72177    0.74136    1.000
    H117     H        0.09970    0.78110    0.73920    1.000
    C147     C        0.13980    0.67835    0.68849    1.000
    H118     H        0.16200    0.70800    0.65170    1.000
    C148     C        0.14387    0.59009    0.69066    1.000
    H119     H        0.16780    0.55970    0.65490    1.000
    C149     C        0.11179    0.54739    0.74702    1.000
    C150     C        0.07567    0.59657    0.79816    1.000
    H120     H        0.05430    0.56850    0.83610    1.000
    N31      N        0.93031    0.81777    0.79619    1.000
    C151     C        0.89756    0.77823    0.74136    1.000
    H121     H        0.90030    0.71890    0.73920    1.000
    C152     C        0.86020    0.82165    0.68849    1.000
    H122     H        0.83800    0.79200    0.65170    1.000
    C153     C        0.85613    0.90991    0.69066    1.000
    H123     H        0.83220    0.94030    0.65490    1.000
    C154     C        0.88821    0.95261    0.74702    1.000
    C155     C        0.92433    0.90343    0.79816    1.000
    H124     H        0.94570    0.93150    0.83610    1.000
    N32      N        0.43031    0.31777    0.29619    1.000
    C156     C        0.39756    0.27823    0.24136    1.000
    H125     H        0.40030    0.21890    0.23920    1.000
    C157     C        0.36020    0.32165    0.18849    1.000
    H126     H        0.33800    0.29200    0.15170    1.000
    C158     C        0.35613    0.40991    0.19066    1.000
    H127     H        0.33220    0.44030    0.15490    1.000
    C159     C        0.38821    0.45261    0.24702    1.000
    C160     C        0.42433    0.40343    0.29816    1.000
    H128     H        0.44570    0.43150    0.33610    1.000
    Co5      Co       0.00000    0.75000    0.87500    1.000
    Co6      Co       0.50000    0.25000    0.37500    1.000
    Co7      Co       0.00000    0.25000    0.62500    1.000
    Co8      Co       0.50000    0.75000    0.12500    1.000
