data_functionalizedCrystal
_audit_creation_method	'EQeq! by Chris Wilmer'
_symmetry_space_group_name_H-M	'P1'
_symmetry_Int_Tables_number	1
_symmetry_cell_setting	triclinic
loop_
_symmetry_equiv_pos_as_xyz
  x,y,z
_cell_length_a	35.3657
_cell_length_b	35.3657
_cell_length_c	20.224
_cell_angle_alpha	90
_cell_angle_beta	90
_cell_angle_gamma	120
loop_
_atom_site_label
_atom_site_type_symbol
_atom_site_fract_x
_atom_site_fract_y
_atom_site_fract_z
_atom_site_charge
Mof_O 	O 	0.30285	0.11256	0.24098	-0.404
Mof_O 	O 	0.27831	0.10028	0.13578	-0.407
Mof_C 	C 	0.27838	0.08882	0.1941	0.367
Mof_C 	C 	0.24609	0.04229	0.2124	-0.127
Mof_C 	C 	0.21895	0.01322	0.1633	0.074
Mof_H 	H 	0.2202	0.0228	0.1201	0.026
Mof_C 	C 	0.19021	0.96985	0.18	-0.157
Mof_H 	H 	0.1714	0.9508	0.1481	0.104
Mof_C 	C 	0.1892	0.9549	0.2422	0.123
Mof_C 	C 	0.21618	0.98334	0.2912	-0.153
Mof_H 	H 	0.2152	0.9735	0.3342	0.09
Mof_C 	C 	0.24511	0.02758	0.2742	0.073
Mof_H 	H 	0.2637	0.0467	0.3062	0.025
Mof_C 	C 	0.16078	0.90791	0.2616	-0.068
Mof_C 	C 	0.17908	0.88747	0.297	-0.043
Mof_H 	H 	0.2082	0.904	0.3094	0.047
Mof_C 	C 	0.0385	0.9187	0.2007	-0.008
Mof_C 	C 	0.0932	0.9495	0.2989	-0.02
Mof_O 	O 	0.96952	0.44589	0.57431	-0.405
Mof_O 	O 	0.94498	0.43361	0.46911	-0.408
Mof_C 	C 	0.94505	0.42215	0.52743	0.366
Mof_C 	C 	0.91276	0.37562	0.54573	-0.128
Mof_C 	C 	0.88562	0.34655	0.49663	0.073
Mof_H 	H 	0.88687	0.35613	0.45343	0.025
Mof_C 	C 	0.85688	0.30318	0.51333	-0.158
Mof_H 	H 	0.83807	0.28413	0.48143	0.103
Mof_C 	C 	0.85587	0.28823	0.57553	0.122
Mof_C 	C 	0.88285	0.31667	0.62453	-0.154
Mof_H 	H 	0.88187	0.30683	0.66753	0.089
Mof_C 	C 	0.91178	0.36091	0.60753	0.072
Mof_H 	H 	0.93037	0.38003	0.63953	0.024
Mof_C 	C 	0.82745	0.24124	0.59493	-0.069
Mof_C 	C 	0.84575	0.2208	0.63033	-0.043
Mof_H 	H 	0.87487	0.23733	0.64273	0.047
Mof_C 	C 	0.70517	0.25203	0.53403	-0.008
Mof_C 	C 	0.75987	0.28283	0.63223	-0.02
Mof_O 	O 	0.63618	0.77923	0.90765	-0.405
Mof_O 	O 	0.61164	0.76695	0.80245	-0.408
Mof_C 	C 	0.61171	0.75549	0.86077	0.366
Mof_C 	C 	0.57942	0.70896	0.87907	-0.128
Mof_C 	C 	0.55228	0.67989	0.82997	0.073
Mof_H 	H 	0.55353	0.68947	0.78677	0.025
Mof_C 	C 	0.52354	0.63652	0.84667	-0.158
Mof_H 	H 	0.50473	0.61747	0.81477	0.103
Mof_C 	C 	0.52253	0.62157	0.90887	0.122
Mof_C 	C 	0.54951	0.65001	0.95787	-0.154
Mof_H 	H 	0.54853	0.64017	0.00087	0.089
Mof_C 	C 	0.57844	0.69425	0.94087	0.072
Mof_H 	H 	0.59703	0.71337	0.97287	0.024
Mof_C 	C 	0.49411	0.57458	0.92827	-0.069
Mof_C 	C 	0.51241	0.55414	0.96367	-0.043
Mof_H 	H 	0.54153	0.57067	0.97607	0.047
Mof_C 	C 	0.37183	0.58537	0.86737	-0.008
Mof_C 	C 	0.42653	0.61617	0.96557	-0.02
Mof_O 	O 	0.88744	0.19029	0.24098	-0.405
Mof_O 	O 	0.89972	0.17803	0.13578	-0.408
Mof_C 	C 	0.91118	0.18956	0.1941	0.366
Mof_C 	C 	0.95771	0.2038	0.2124	-0.128
Mof_C 	C 	0.98678	0.20573	0.1633	0.073
Mof_H 	H 	0.9772	0.1974	0.1201	0.025
Mof_C 	C 	0.03015	0.22036	0.18	-0.158
Mof_H 	H 	0.0492	0.2206	0.1481	0.103
Mof_C 	C 	0.0451	0.2343	0.2422	0.122
Mof_C 	C 	0.01666	0.23284	0.2912	-0.154
Mof_H 	H 	0.0265	0.2417	0.3342	0.089
Mof_C 	C 	0.97242	0.21753	0.2742	0.072
Mof_H 	H 	0.9533	0.217	0.3062	0.024
Mof_C 	C 	0.09209	0.25287	0.2616	-0.069
Mof_C 	C 	0.11253	0.29161	0.297	-0.043
Mof_H 	H 	0.096	0.3042	0.3094	0.047
Mof_C 	C 	0.0813	0.1198	0.2007	-0.008
Mof_C 	C 	0.0505	0.1437	0.2989	-0.02
Mof_O 	O 	0.55411	0.52362	0.57431	-0.405
Mof_O 	O 	0.56639	0.51136	0.46911	-0.408
Mof_C 	C 	0.57785	0.52289	0.52743	0.366
Mof_C 	C 	0.62438	0.53713	0.54573	-0.128
Mof_C 	C 	0.65345	0.53906	0.49663	0.073
Mof_H 	H 	0.64387	0.53073	0.45343	0.025
Mof_C 	C 	0.69682	0.55369	0.51333	-0.158
Mof_H 	H 	0.71587	0.55393	0.48143	0.103
Mof_C 	C 	0.71177	0.56763	0.57553	0.122
Mof_C 	C 	0.68333	0.56617	0.62453	-0.154
Mof_H 	H 	0.69317	0.57503	0.66753	0.089
Mof_C 	C 	0.63909	0.55086	0.60753	0.072
Mof_H 	H 	0.61997	0.55033	0.63953	0.024
Mof_C 	C 	0.75876	0.5862	0.59493	-0.069
Mof_C 	C 	0.7792	0.62494	0.63033	-0.043
Mof_H 	H 	0.76267	0.63753	0.64273	0.047
Mof_C 	C 	0.74797	0.45313	0.53403	-0.008
Mof_C 	C 	0.71717	0.47703	0.63223	-0.02
Mof_O 	O 	0.22077	0.85696	0.90765	-0.405
Mof_O 	O 	0.23305	0.8447	0.80245	-0.408
Mof_C 	C 	0.24451	0.85623	0.86077	0.366
Mof_C 	C 	0.29104	0.87047	0.87907	-0.128
Mof_C 	C 	0.32011	0.8724	0.82997	0.073
Mof_H 	H 	0.31053	0.86407	0.78677	0.025
Mof_C 	C 	0.36348	0.88703	0.84667	-0.158
Mof_H 	H 	0.38253	0.88727	0.81477	0.103
Mof_C 	C 	0.37843	0.90097	0.90887	0.122
Mof_C 	C 	0.34999	0.89951	0.95787	-0.154
Mof_H 	H 	0.35983	0.90837	0.00087	0.089
Mof_C 	C 	0.30575	0.8842	0.94087	0.072
Mof_H 	H 	0.28663	0.88367	0.97287	0.024
Mof_C 	C 	0.42542	0.91954	0.92827	-0.069
Mof_C 	C 	0.44586	0.95828	0.96367	-0.043
Mof_H 	H 	0.42933	0.97087	0.97607	0.047
Mof_C 	C 	0.41463	0.78647	0.86737	-0.008
Mof_C 	C 	0.38383	0.81037	0.96557	-0.02
Mof_O 	O 	0.80971	0.69715	0.24098	-0.405
Mof_O 	O 	0.82197	0.72169	0.13578	-0.408
Mof_C 	C 	0.81044	0.72162	0.1941	0.366
Mof_C 	C 	0.7962	0.75391	0.2124	-0.128
Mof_C 	C 	0.79427	0.78105	0.1633	0.073
Mof_H 	H 	0.8026	0.7798	0.1201	0.025
Mof_C 	C 	0.77964	0.80979	0.18	-0.158
Mof_H 	H 	0.7794	0.8286	0.1481	0.103
Mof_C 	C 	0.7657	0.8108	0.2422	0.122
Mof_C 	C 	0.76716	0.78382	0.2912	-0.154
Mof_H 	H 	0.7583	0.7848	0.3342	0.089
Mof_C 	C 	0.78247	0.75489	0.2742	0.072
Mof_H 	H 	0.783	0.7363	0.3062	0.024
Mof_C 	C 	0.74713	0.83922	0.2616	-0.069
Mof_C 	C 	0.70839	0.82092	0.297	-0.043
Mof_H 	H 	0.6958	0.7918	0.3094	0.047
Mof_C 	C 	0.8802	0.9615	0.2007	-0.008
Mof_C 	C 	0.8563	0.9068	0.2989	-0.02
Mof_O 	O 	0.47638	0.03048	0.57431	-0.405
Mof_O 	O 	0.48864	0.05502	0.46911	-0.408
Mof_C 	C 	0.47711	0.05495	0.52743	0.366
Mof_C 	C 	0.46287	0.08724	0.54573	-0.128
Mof_C 	C 	0.46094	0.11438	0.49663	0.073
Mof_H 	H 	0.46927	0.11313	0.45343	0.025
Mof_C 	C 	0.44631	0.14312	0.51333	-0.158
Mof_H 	H 	0.44607	0.16193	0.48143	0.103
Mof_C 	C 	0.43237	0.14413	0.57553	0.122
Mof_C 	C 	0.43383	0.11715	0.62453	-0.154
Mof_H 	H 	0.42497	0.11813	0.66753	0.089
Mof_C 	C 	0.44914	0.08822	0.60753	0.072
Mof_H 	H 	0.44967	0.06963	0.63953	0.024
Mof_C 	C 	0.4138	0.17255	0.59493	-0.069
Mof_C 	C 	0.37506	0.15425	0.63033	-0.043
Mof_H 	H 	0.36247	0.12513	0.64273	0.047
Mof_C 	C 	0.54687	0.29483	0.53403	-0.008
Mof_C 	C 	0.52297	0.24013	0.63223	-0.02
Mof_O 	O 	0.14304	0.36382	0.90765	-0.405
Mof_O 	O 	0.1553	0.38836	0.80245	-0.408
Mof_C 	C 	0.14377	0.38829	0.86077	0.366
Mof_C 	C 	0.12953	0.42058	0.87907	-0.128
Mof_C 	C 	0.1276	0.44772	0.82997	0.073
Mof_H 	H 	0.13593	0.44647	0.78677	0.025
Mof_C 	C 	0.11297	0.47646	0.84667	-0.158
Mof_H 	H 	0.11273	0.49527	0.81477	0.103
Mof_C 	C 	0.09903	0.47747	0.90887	0.122
Mof_C 	C 	0.10049	0.45049	0.95787	-0.154
Mof_H 	H 	0.09163	0.45147	0.00087	0.089
Mof_C 	C 	0.1158	0.42156	0.94087	0.072
Mof_H 	H 	0.11633	0.40297	0.97287	0.024
Mof_C 	C 	0.08046	0.50589	0.92827	-0.069
Mof_C 	C 	0.04172	0.48759	0.96367	-0.043
Mof_H 	H 	0.02913	0.45847	0.97607	0.047
Mof_C 	C 	0.21353	0.62817	0.86737	-0.008
Mof_C 	C 	0.18963	0.57347	0.96557	-0.02
Mof_O 	O 	0.11256	0.30285	0.75902	-0.405
Mof_O 	O 	0.10028	0.27831	0.86422	-0.408
Mof_C 	C 	0.08882	0.27838	0.8059	0.366
Mof_C 	C 	0.04229	0.24609	0.7876	-0.128
Mof_C 	C 	0.01322	0.21895	0.8367	0.073
Mof_H 	H 	0.0228	0.2202	0.8799	0.025
Mof_C 	C 	0.96985	0.19021	0.82	-0.158
Mof_H 	H 	0.9508	0.1714	0.8519	0.103
Mof_C 	C 	0.9549	0.1892	0.7578	0.122
Mof_C 	C 	0.98334	0.21618	0.7088	-0.154
Mof_H 	H 	0.9735	0.2152	0.6658	0.089
Mof_C 	C 	0.02758	0.24511	0.7258	0.072
Mof_H 	H 	0.0467	0.2637	0.6938	0.024
Mof_C 	C 	0.90791	0.16078	0.7384	-0.069
Mof_C 	C 	0.88747	0.17908	0.703	-0.043
Mof_H 	H 	0.904	0.2082	0.6906	0.047
Mof_C 	C 	0.9187	0.0385	0.7993	-0.008
Mof_C 	C 	0.9495	0.0932	0.7011	-0.02
Mof_O 	O 	0.77923	0.63618	0.09235	-0.405
Mof_O 	O 	0.76695	0.61164	0.19755	-0.408
Mof_C 	C 	0.75549	0.61171	0.13923	0.366
Mof_C 	C 	0.70896	0.57942	0.12093	-0.128
Mof_C 	C 	0.67989	0.55228	0.17003	0.073
Mof_H 	H 	0.68947	0.55353	0.21323	0.025
Mof_C 	C 	0.63652	0.52354	0.15333	-0.158
Mof_H 	H 	0.61747	0.50473	0.18523	0.103
Mof_C 	C 	0.62157	0.52253	0.09113	0.122
Mof_C 	C 	0.65001	0.54951	0.04213	-0.154
Mof_H 	H 	0.64017	0.54853	0.99913	0.089
Mof_C 	C 	0.69425	0.57844	0.05913	0.072
Mof_H 	H 	0.71337	0.59703	0.02713	0.024
Mof_C 	C 	0.57458	0.49411	0.07173	-0.069
Mof_C 	C 	0.55414	0.51241	0.03633	-0.043
Mof_H 	H 	0.57067	0.54153	0.02393	0.047
Mof_C 	C 	0.58537	0.37183	0.13263	-0.008
Mof_C 	C 	0.61617	0.42653	0.03443	-0.02
Mof_O 	O 	0.44589	0.96952	0.42569	-0.405
Mof_O 	O 	0.43361	0.94498	0.53089	-0.408
Mof_C 	C 	0.42215	0.94505	0.47257	0.366
Mof_C 	C 	0.37562	0.91276	0.45427	-0.128
Mof_C 	C 	0.34655	0.88562	0.50337	0.073
Mof_H 	H 	0.35613	0.88687	0.54657	0.025
Mof_C 	C 	0.30318	0.85688	0.48667	-0.158
Mof_H 	H 	0.28413	0.83807	0.51857	0.103
Mof_C 	C 	0.28823	0.85587	0.42447	0.122
Mof_C 	C 	0.31667	0.88285	0.37547	-0.154
Mof_H 	H 	0.30683	0.88187	0.33247	0.089
Mof_C 	C 	0.36091	0.91178	0.39247	0.072
Mof_H 	H 	0.38003	0.93037	0.36047	0.024
Mof_C 	C 	0.24124	0.82745	0.40507	-0.069
Mof_C 	C 	0.2208	0.84575	0.36967	-0.043
Mof_H 	H 	0.23733	0.87487	0.35727	0.047
Mof_C 	C 	0.25203	0.70517	0.46597	-0.008
Mof_C 	C 	0.28283	0.75987	0.36777	-0.02
Mof_O 	O 	0.19029	0.88744	0.75902	-0.405
Mof_O 	O 	0.17803	0.89972	0.86422	-0.408
Mof_C 	C 	0.18956	0.91118	0.8059	0.366
Mof_C 	C 	0.2038	0.95771	0.7876	-0.128
Mof_C 	C 	0.20573	0.98678	0.8367	0.073
Mof_H 	H 	0.1974	0.9772	0.8799	0.025
Mof_C 	C 	0.22036	0.03015	0.82	-0.158
Mof_H 	H 	0.2206	0.0492	0.8519	0.103
Mof_C 	C 	0.2343	0.0451	0.7578	0.122
Mof_C 	C 	0.23284	0.01666	0.7088	-0.154
Mof_H 	H 	0.2417	0.0265	0.6658	0.089
Mof_C 	C 	0.21753	0.97242	0.7258	0.072
Mof_H 	H 	0.217	0.9533	0.6938	0.024
Mof_C 	C 	0.25287	0.09209	0.7384	-0.069
Mof_C 	C 	0.29161	0.11253	0.703	-0.043
Mof_H 	H 	0.3042	0.096	0.6906	0.047
Mof_C 	C 	0.1198	0.0813	0.7993	-0.008
Mof_C 	C 	0.1437	0.0505	0.7011	-0.02
Mof_O 	O 	0.85696	0.22077	0.09235	-0.405
Mof_O 	O 	0.8447	0.23305	0.19755	-0.408
Mof_C 	C 	0.85623	0.24451	0.13923	0.366
Mof_C 	C 	0.87047	0.29104	0.12093	-0.128
Mof_C 	C 	0.8724	0.32011	0.17003	0.073
Mof_H 	H 	0.86407	0.31053	0.21323	0.025
Mof_C 	C 	0.88703	0.36348	0.15333	-0.158
Mof_H 	H 	0.88727	0.38253	0.18523	0.103
Mof_C 	C 	0.90097	0.37843	0.09113	0.122
Mof_C 	C 	0.89951	0.34999	0.04213	-0.154
Mof_H 	H 	0.90837	0.35983	0.99913	0.089
Mof_C 	C 	0.8842	0.30575	0.05913	0.072
Mof_H 	H 	0.88367	0.28663	0.02713	0.024
Mof_C 	C 	0.91954	0.42542	0.07173	-0.069
Mof_C 	C 	0.95828	0.44586	0.03633	-0.043
Mof_H 	H 	0.97087	0.42933	0.02393	0.047
Mof_C 	C 	0.78647	0.41463	0.13263	-0.008
Mof_C 	C 	0.81037	0.38383	0.03443	-0.02
Mof_O 	O 	0.52362	0.55411	0.42569	-0.405
Mof_O 	O 	0.51136	0.56639	0.53089	-0.408
Mof_C 	C 	0.52289	0.57785	0.47257	0.366
Mof_C 	C 	0.53713	0.62438	0.45427	-0.128
Mof_C 	C 	0.53906	0.65345	0.50337	0.073
Mof_H 	H 	0.53073	0.64387	0.54657	0.025
Mof_C 	C 	0.55369	0.69682	0.48667	-0.158
Mof_H 	H 	0.55393	0.71587	0.51857	0.103
Mof_C 	C 	0.56763	0.71177	0.42447	0.122
Mof_C 	C 	0.56617	0.68333	0.37547	-0.154
Mof_H 	H 	0.57503	0.69317	0.33247	0.089
Mof_C 	C 	0.55086	0.63909	0.39247	0.072
Mof_H 	H 	0.55033	0.61997	0.36047	0.024
Mof_C 	C 	0.5862	0.75876	0.40507	-0.069
Mof_C 	C 	0.62494	0.7792	0.36967	-0.043
Mof_H 	H 	0.63753	0.76267	0.35727	0.047
Mof_C 	C 	0.45313	0.74797	0.46597	-0.008
Mof_C 	C 	0.47703	0.71717	0.36777	-0.02
Mof_O 	O 	0.69715	0.80971	0.75902	-0.405
Mof_O 	O 	0.72169	0.82197	0.86422	-0.408
Mof_C 	C 	0.72162	0.81044	0.8059	0.366
Mof_C 	C 	0.75391	0.7962	0.7876	-0.128
Mof_C 	C 	0.78105	0.79427	0.8367	0.073
Mof_H 	H 	0.7798	0.8026	0.8799	0.025
Mof_C 	C 	0.80979	0.77964	0.82	-0.158
Mof_H 	H 	0.8286	0.7794	0.8519	0.103
Mof_C 	C 	0.8108	0.7657	0.7578	0.122
Mof_C 	C 	0.78382	0.76716	0.7088	-0.154
Mof_H 	H 	0.7848	0.7583	0.6658	0.089
Mof_C 	C 	0.75489	0.78247	0.7258	0.072
Mof_H 	H 	0.7363	0.783	0.6938	0.024
Mof_C 	C 	0.83922	0.74713	0.7384	-0.069
Mof_C 	C 	0.82092	0.70839	0.703	-0.043
Mof_H 	H 	0.7918	0.6958	0.6906	0.047
Mof_C 	C 	0.9615	0.8802	0.7993	-0.008
Mof_C 	C 	0.9068	0.8563	0.7011	-0.02
Mof_O 	O 	0.36382	0.14304	0.09235	-0.405
Mof_O 	O 	0.38836	0.1553	0.19755	-0.408
Mof_C 	C 	0.38829	0.14377	0.13923	0.366
Mof_C 	C 	0.42058	0.12953	0.12093	-0.128
Mof_C 	C 	0.44772	0.1276	0.17003	0.073
Mof_H 	H 	0.44647	0.13593	0.21323	0.025
Mof_C 	C 	0.47646	0.11297	0.15333	-0.158
Mof_H 	H 	0.49527	0.11273	0.18523	0.103
Mof_C 	C 	0.47747	0.09903	0.09113	0.122
Mof_C 	C 	0.45049	0.10049	0.04213	-0.154
Mof_H 	H 	0.45147	0.09163	0.99913	0.089
Mof_C 	C 	0.42156	0.1158	0.05913	0.072
Mof_H 	H 	0.40297	0.11633	0.02713	0.024
Mof_C 	C 	0.50589	0.08046	0.07173	-0.069
Mof_C 	C 	0.48759	0.04172	0.03633	-0.043
Mof_H 	H 	0.45847	0.02913	0.02393	0.047
Mof_C 	C 	0.62817	0.21353	0.13263	-0.008
Mof_C 	C 	0.57347	0.18963	0.03443	-0.02
Mof_O 	O 	0.03048	0.47638	0.42569	-0.405
Mof_O 	O 	0.05502	0.48864	0.53089	-0.408
Mof_C 	C 	0.05495	0.47711	0.47257	0.366
Mof_C 	C 	0.08724	0.46287	0.45427	-0.128
Mof_C 	C 	0.11438	0.46094	0.50337	0.073
Mof_H 	H 	0.11313	0.46927	0.54657	0.025
Mof_C 	C 	0.14312	0.44631	0.48667	-0.158
Mof_H 	H 	0.16193	0.44607	0.51857	0.103
Mof_C 	C 	0.14413	0.43237	0.42447	0.122
Mof_C 	C 	0.11715	0.43383	0.37547	-0.154
Mof_H 	H 	0.11813	0.42497	0.33247	0.089
Mof_C 	C 	0.08822	0.44914	0.39247	0.072
Mof_H 	H 	0.06963	0.44967	0.36047	0.024
Mof_C 	C 	0.17255	0.4138	0.40507	-0.069
Mof_C 	C 	0.15425	0.37506	0.36967	-0.043
Mof_H 	H 	0.12513	0.36247	0.35727	0.047
Mof_C 	C 	0.29483	0.54687	0.46597	-0.008
Mof_C 	C 	0.24013	0.52297	0.36777	-0.02
Mof_O 	O 	0.69715	0.88744	0.75902	-0.405
Mof_O 	O 	0.72169	0.89972	0.86422	-0.408
Mof_C 	C 	0.72162	0.91118	0.8059	0.366
Mof_C 	C 	0.75391	0.95771	0.7876	-0.128
Mof_C 	C 	0.78105	0.98678	0.8367	0.073
Mof_H 	H 	0.7798	0.9772	0.8799	0.025
Mof_C 	C 	0.80979	0.03015	0.82	-0.158
Mof_H 	H 	0.8286	0.0492	0.8519	0.103
Mof_C 	C 	0.8108	0.0451	0.7578	0.122
Mof_C 	C 	0.78382	0.01666	0.7088	-0.154
Mof_H 	H 	0.7848	0.0265	0.6658	0.089
Mof_C 	C 	0.75489	0.97242	0.7258	0.072
Mof_H 	H 	0.7363	0.9533	0.6938	0.024
Mof_C 	C 	0.83922	0.09209	0.7384	-0.069
Mof_C 	C 	0.82092	0.11253	0.703	-0.043
Mof_H 	H 	0.7918	0.096	0.6906	0.047
Mof_C 	C 	0.9615	0.0813	0.7993	-0.008
Mof_C 	C 	0.9068	0.0505	0.7011	-0.02
Mof_O 	O 	0.36382	0.22077	0.09235	-0.405
Mof_O 	O 	0.38836	0.23305	0.19755	-0.408
Mof_C 	C 	0.38829	0.24451	0.13923	0.366
Mof_C 	C 	0.42058	0.29104	0.12093	-0.128
Mof_C 	C 	0.44772	0.32011	0.17003	0.073
Mof_H 	H 	0.44647	0.31053	0.21323	0.025
Mof_C 	C 	0.47646	0.36348	0.15333	-0.158
Mof_H 	H 	0.49527	0.38253	0.18523	0.103
Mof_C 	C 	0.47747	0.37843	0.09113	0.122
Mof_C 	C 	0.45049	0.34999	0.04213	-0.154
Mof_H 	H 	0.45147	0.35983	0.99913	0.089
Mof_C 	C 	0.42156	0.30575	0.05913	0.072
Mof_H 	H 	0.40297	0.28663	0.02713	0.024
Mof_C 	C 	0.50589	0.42542	0.07173	-0.069
Mof_C 	C 	0.48759	0.44586	0.03633	-0.043
Mof_H 	H 	0.45847	0.42933	0.02393	0.047
Mof_C 	C 	0.62817	0.41463	0.13263	-0.008
Mof_C 	C 	0.57347	0.38383	0.03443	-0.02
Mof_O 	O 	0.03048	0.55411	0.42569	-0.405
Mof_O 	O 	0.05502	0.56639	0.53089	-0.408
Mof_C 	C 	0.05495	0.57785	0.47257	0.366
Mof_C 	C 	0.08724	0.62438	0.45427	-0.128
Mof_C 	C 	0.11438	0.65345	0.50337	0.073
Mof_H 	H 	0.11313	0.64387	0.54657	0.025
Mof_C 	C 	0.14312	0.69682	0.48667	-0.158
Mof_H 	H 	0.16193	0.71587	0.51857	0.103
Mof_C 	C 	0.14413	0.71177	0.42447	0.122
Mof_C 	C 	0.11715	0.68333	0.37547	-0.154
Mof_H 	H 	0.11813	0.69317	0.33247	0.089
Mof_C 	C 	0.08822	0.63909	0.39247	0.072
Mof_H 	H 	0.06963	0.61997	0.36047	0.024
Mof_C 	C 	0.17255	0.75876	0.40507	-0.069
Mof_C 	C 	0.15425	0.7792	0.36967	-0.043
Mof_H 	H 	0.12513	0.76267	0.35727	0.047
Mof_C 	C 	0.29483	0.74797	0.46597	-0.008
Mof_C 	C 	0.24013	0.71717	0.36777	-0.02
Mof_O 	O 	0.11256	0.80971	0.75902	-0.405
Mof_O 	O 	0.10028	0.82197	0.86422	-0.408
Mof_C 	C 	0.08882	0.81044	0.8059	0.366
Mof_C 	C 	0.04229	0.7962	0.7876	-0.128
Mof_C 	C 	0.01322	0.79427	0.8367	0.073
Mof_H 	H 	0.0228	0.8026	0.8799	0.025
Mof_C 	C 	0.96985	0.77964	0.82	-0.158
Mof_H 	H 	0.9508	0.7794	0.8519	0.103
Mof_C 	C 	0.9549	0.7657	0.7578	0.122
Mof_C 	C 	0.98334	0.76716	0.7088	-0.154
Mof_H 	H 	0.9735	0.7583	0.6658	0.089
Mof_C 	C 	0.02758	0.78247	0.7258	0.072
Mof_H 	H 	0.0467	0.783	0.6938	0.024
Mof_C 	C 	0.90791	0.74713	0.7384	-0.069
Mof_C 	C 	0.88747	0.70839	0.703	-0.043
Mof_H 	H 	0.904	0.6958	0.6906	0.047
Mof_C 	C 	0.9187	0.8802	0.7993	-0.008
Mof_C 	C 	0.9495	0.8563	0.7011	-0.02
Mof_O 	O 	0.77923	0.14304	0.09235	-0.405
Mof_O 	O 	0.76695	0.1553	0.19755	-0.408
Mof_C 	C 	0.75549	0.14377	0.13923	0.366
Mof_C 	C 	0.70896	0.12953	0.12093	-0.128
Mof_C 	C 	0.67989	0.1276	0.17003	0.073
Mof_H 	H 	0.68947	0.13593	0.21323	0.025
Mof_C 	C 	0.63652	0.11297	0.15333	-0.158
Mof_H 	H 	0.61747	0.11273	0.18523	0.103
Mof_C 	C 	0.62157	0.09903	0.09113	0.122
Mof_C 	C 	0.65001	0.10049	0.04213	-0.154
Mof_H 	H 	0.64017	0.09163	0.99913	0.089
Mof_C 	C 	0.69425	0.1158	0.05913	0.072
Mof_H 	H 	0.71337	0.11633	0.02713	0.024
Mof_C 	C 	0.57458	0.08046	0.07173	-0.069
Mof_C 	C 	0.55414	0.04172	0.03633	-0.043
Mof_H 	H 	0.57067	0.02913	0.02393	0.047
Mof_C 	C 	0.58537	0.21353	0.13263	-0.008
Mof_C 	C 	0.61617	0.18963	0.03443	-0.02
Mof_O 	O 	0.44589	0.47638	0.42569	-0.405
Mof_O 	O 	0.43361	0.48864	0.53089	-0.408
Mof_C 	C 	0.42215	0.47711	0.47257	0.366
Mof_C 	C 	0.37562	0.46287	0.45427	-0.128
Mof_C 	C 	0.34655	0.46094	0.50337	0.073
Mof_H 	H 	0.35613	0.46927	0.54657	0.025
Mof_C 	C 	0.30318	0.44631	0.48667	-0.158
Mof_H 	H 	0.28413	0.44607	0.51857	0.103
Mof_C 	C 	0.28823	0.43237	0.42447	0.122
Mof_C 	C 	0.31667	0.43383	0.37547	-0.154
Mof_H 	H 	0.30683	0.42497	0.33247	0.089
Mof_C 	C 	0.36091	0.44914	0.39247	0.072
Mof_H 	H 	0.38003	0.44967	0.36047	0.024
Mof_C 	C 	0.24124	0.4138	0.40507	-0.069
Mof_C 	C 	0.2208	0.37506	0.36967	-0.043
Mof_H 	H 	0.23733	0.36247	0.35727	0.047
Mof_C 	C 	0.25203	0.54687	0.46597	-0.008
Mof_C 	C 	0.28283	0.52297	0.36777	-0.02
Mof_O 	O 	0.19029	0.30285	0.75902	-0.405
Mof_O 	O 	0.17803	0.27831	0.86422	-0.408
Mof_C 	C 	0.18956	0.27838	0.8059	0.366
Mof_C 	C 	0.2038	0.24609	0.7876	-0.128
Mof_C 	C 	0.20573	0.21895	0.8367	0.073
Mof_H 	H 	0.1974	0.2202	0.8799	0.025
Mof_C 	C 	0.22036	0.19021	0.82	-0.158
Mof_H 	H 	0.2206	0.1714	0.8519	0.103
Mof_C 	C 	0.2343	0.1892	0.7578	0.122
Mof_C 	C 	0.23284	0.21618	0.7088	-0.154
Mof_H 	H 	0.2417	0.2152	0.6658	0.089
Mof_C 	C 	0.21753	0.24511	0.7258	0.072
Mof_H 	H 	0.217	0.2637	0.6938	0.024
Mof_C 	C 	0.25287	0.16078	0.7384	-0.069
Mof_C 	C 	0.29161	0.17908	0.703	-0.043
Mof_H 	H 	0.3042	0.2082	0.6906	0.047
Mof_C 	C 	0.1198	0.0385	0.7993	-0.008
Mof_C 	C 	0.1437	0.0932	0.7011	-0.02
Mof_O 	O 	0.85696	0.63618	0.09235	-0.405
Mof_O 	O 	0.8447	0.61164	0.19755	-0.408
Mof_C 	C 	0.85623	0.61171	0.13923	0.366
Mof_C 	C 	0.87047	0.57942	0.12093	-0.128
Mof_C 	C 	0.8724	0.55228	0.17003	0.073
Mof_H 	H 	0.86407	0.55353	0.21323	0.025
Mof_C 	C 	0.88703	0.52354	0.15333	-0.158
Mof_H 	H 	0.88727	0.50473	0.18523	0.103
Mof_C 	C 	0.90097	0.52253	0.09113	0.122
Mof_C 	C 	0.89951	0.54951	0.04213	-0.154
Mof_H 	H 	0.90837	0.54853	0.99913	0.089
Mof_C 	C 	0.8842	0.57844	0.05913	0.072
Mof_H 	H 	0.88367	0.59703	0.02713	0.024
Mof_C 	C 	0.91954	0.49411	0.07173	-0.069
Mof_C 	C 	0.95828	0.51241	0.03633	-0.043
Mof_H 	H 	0.97087	0.54153	0.02393	0.047
Mof_C 	C 	0.78647	0.37183	0.13263	-0.008
Mof_C 	C 	0.81037	0.42653	0.03443	-0.02
Mof_O 	O 	0.52362	0.96952	0.42569	-0.405
Mof_O 	O 	0.51136	0.94498	0.53089	-0.408
Mof_C 	C 	0.52289	0.94505	0.47257	0.366
Mof_C 	C 	0.53713	0.91276	0.45427	-0.128
Mof_C 	C 	0.53906	0.88562	0.50337	0.073
Mof_H 	H 	0.53073	0.88687	0.54657	0.025
Mof_C 	C 	0.55369	0.85688	0.48667	-0.158
Mof_H 	H 	0.55393	0.83807	0.51857	0.103
Mof_C 	C 	0.56763	0.85587	0.42447	0.122
Mof_C 	C 	0.56617	0.88285	0.37547	-0.154
Mof_H 	H 	0.57503	0.88187	0.33247	0.089
Mof_C 	C 	0.55086	0.91178	0.39247	0.072
Mof_H 	H 	0.55033	0.93037	0.36047	0.024
Mof_C 	C 	0.5862	0.82745	0.40507	-0.069
Mof_C 	C 	0.62494	0.84575	0.36967	-0.043
Mof_H 	H 	0.63753	0.87487	0.35727	0.047
Mof_C 	C 	0.45313	0.70517	0.46597	-0.008
Mof_C 	C 	0.47703	0.75987	0.36777	-0.02
Mof_O 	O 	0.88744	0.69715	0.24098	-0.405
Mof_O 	O 	0.89972	0.72169	0.13578	-0.408
Mof_C 	C 	0.91118	0.72162	0.1941	0.366
Mof_C 	C 	0.95771	0.75391	0.2124	-0.128
Mof_C 	C 	0.98678	0.78105	0.1633	0.073
Mof_H 	H 	0.9772	0.7798	0.1201	0.025
Mof_C 	C 	0.03015	0.80979	0.18	-0.158
Mof_H 	H 	0.0492	0.8286	0.1481	0.103
Mof_C 	C 	0.0451	0.8108	0.2422	0.122
Mof_C 	C 	0.01666	0.78382	0.2912	-0.154
Mof_H 	H 	0.0265	0.7848	0.3342	0.089
Mof_C 	C 	0.97242	0.75489	0.2742	0.072
Mof_H 	H 	0.9533	0.7363	0.3062	0.024
Mof_C 	C 	0.09209	0.83922	0.2616	-0.069
Mof_C 	C 	0.11253	0.82092	0.297	-0.043
Mof_H 	H 	0.096	0.7918	0.3094	0.047
Mof_C 	C 	0.0813	0.9615	0.2007	-0.008
Mof_C 	C 	0.0505	0.9068	0.2989	-0.02
Mof_O 	O 	0.55411	0.03048	0.57431	-0.405
Mof_O 	O 	0.56639	0.05502	0.46911	-0.408
Mof_C 	C 	0.57785	0.05495	0.52743	0.366
Mof_C 	C 	0.62438	0.08724	0.54573	-0.128
Mof_C 	C 	0.65345	0.11438	0.49663	0.073
Mof_H 	H 	0.64387	0.11313	0.45343	0.025
Mof_C 	C 	0.69682	0.14312	0.51333	-0.158
Mof_H 	H 	0.71587	0.16193	0.48143	0.103
Mof_C 	C 	0.71177	0.14413	0.57553	0.122
Mof_C 	C 	0.68333	0.11715	0.62453	-0.154
Mof_H 	H 	0.69317	0.11813	0.66753	0.089
Mof_C 	C 	0.63909	0.08822	0.60753	0.072
Mof_H 	H 	0.61997	0.06963	0.63953	0.024
Mof_C 	C 	0.75876	0.17255	0.59493	-0.069
Mof_C 	C 	0.7792	0.15425	0.63033	-0.043
Mof_H 	H 	0.76267	0.12513	0.64273	0.047
Mof_C 	C 	0.74797	0.29483	0.53403	-0.008
Mof_C 	C 	0.71717	0.24013	0.63223	-0.02
Mof_O 	O 	0.22077	0.36382	0.90765	-0.405
Mof_O 	O 	0.23305	0.38836	0.80245	-0.408
Mof_C 	C 	0.24451	0.38829	0.86077	0.366
Mof_C 	C 	0.29104	0.42058	0.87907	-0.128
Mof_C 	C 	0.32011	0.44772	0.82997	0.073
Mof_H 	H 	0.31053	0.44647	0.78677	0.025
Mof_C 	C 	0.36348	0.47646	0.84667	-0.158
Mof_H 	H 	0.38253	0.49527	0.81477	0.103
Mof_C 	C 	0.37843	0.47747	0.90887	0.122
Mof_C 	C 	0.34999	0.45049	0.95787	-0.154
Mof_H 	H 	0.35983	0.45147	0.00087	0.089
Mof_C 	C 	0.30575	0.42156	0.94087	0.072
Mof_H 	H 	0.28663	0.40297	0.97287	0.024
Mof_C 	C 	0.42542	0.50589	0.92827	-0.069
Mof_C 	C 	0.44586	0.48759	0.96367	-0.043
Mof_H 	H 	0.42933	0.45847	0.97607	0.047
Mof_C 	C 	0.41463	0.62817	0.86737	-0.008
Mof_C 	C 	0.38383	0.57347	0.96557	-0.02
Mof_O 	O 	0.80971	0.11256	0.24098	-0.405
Mof_O 	O 	0.82197	0.10028	0.13578	-0.408
Mof_C 	C 	0.81044	0.08882	0.1941	0.366
Mof_C 	C 	0.7962	0.04229	0.2124	-0.128
Mof_C 	C 	0.79427	0.01322	0.1633	0.073
Mof_H 	H 	0.8026	0.0228	0.1201	0.025
Mof_C 	C 	0.77964	0.96985	0.18	-0.158
Mof_H 	H 	0.7794	0.9508	0.1481	0.103
Mof_C 	C 	0.7657	0.9549	0.2422	0.122
Mof_C 	C 	0.76716	0.98334	0.2912	-0.154
Mof_H 	H 	0.7583	0.9735	0.3342	0.089
Mof_C 	C 	0.78247	0.02758	0.2742	0.072
Mof_H 	H 	0.783	0.0467	0.3062	0.024
Mof_C 	C 	0.74713	0.90791	0.2616	-0.069
Mof_C 	C 	0.70839	0.88747	0.297	-0.043
Mof_H 	H 	0.6958	0.904	0.3094	0.047
Mof_C 	C 	0.8802	0.9187	0.2007	-0.008
Mof_C 	C 	0.8563	0.9495	0.2989	-0.02
Mof_O 	O 	0.47638	0.44589	0.57431	-0.405
Mof_O 	O 	0.48864	0.43361	0.46911	-0.408
Mof_C 	C 	0.47711	0.42215	0.52743	0.366
Mof_C 	C 	0.46287	0.37562	0.54573	-0.128
Mof_C 	C 	0.46094	0.34655	0.49663	0.073
Mof_H 	H 	0.46927	0.35613	0.45343	0.025
Mof_C 	C 	0.44631	0.30318	0.51333	-0.158
Mof_H 	H 	0.44607	0.28413	0.48143	0.103
Mof_C 	C 	0.43237	0.28823	0.57553	0.122
Mof_C 	C 	0.43383	0.31667	0.62453	-0.154
Mof_H 	H 	0.42497	0.30683	0.66753	0.089
Mof_C 	C 	0.44914	0.36091	0.60753	0.072
Mof_H 	H 	0.44967	0.38003	0.63953	0.024
Mof_C 	C 	0.4138	0.24124	0.59493	-0.069
Mof_C 	C 	0.37506	0.2208	0.63033	-0.043
Mof_H 	H 	0.36247	0.23733	0.64273	0.047
Mof_C 	C 	0.54687	0.25203	0.53403	-0.008
Mof_C 	C 	0.52297	0.28283	0.63223	-0.02
Mof_O 	O 	0.14304	0.77923	0.90765	-0.405
Mof_O 	O 	0.1553	0.76695	0.80245	-0.408
Mof_C 	C 	0.14377	0.75549	0.86077	0.366
Mof_C 	C 	0.12953	0.70896	0.87907	-0.128
Mof_C 	C 	0.1276	0.67989	0.82997	0.073
Mof_H 	H 	0.13593	0.68947	0.78677	0.025
Mof_C 	C 	0.11297	0.63652	0.84667	-0.158
Mof_H 	H 	0.11273	0.61747	0.81477	0.103
Mof_C 	C 	0.09903	0.62157	0.90887	0.122
Mof_C 	C 	0.10049	0.65001	0.95787	-0.154
Mof_H 	H 	0.09163	0.64017	0.00087	0.089
Mof_C 	C 	0.1158	0.69425	0.94087	0.072
Mof_H 	H 	0.11633	0.71337	0.97287	0.024
Mof_C 	C 	0.08046	0.57458	0.92827	-0.069
Mof_C 	C 	0.04172	0.55414	0.96367	-0.043
Mof_H 	H 	0.02913	0.57067	0.97607	0.047
Mof_C 	C 	0.21353	0.58537	0.86737	-0.008
Mof_C 	C 	0.18963	0.61617	0.96557	-0.02
Mof_O 	O 	0.30285	0.19029	0.24098	-0.405
Mof_O 	O 	0.27831	0.17803	0.13578	-0.408
Mof_C 	C 	0.27838	0.18956	0.1941	0.366
Mof_C 	C 	0.24609	0.2038	0.2124	-0.128
Mof_C 	C 	0.21895	0.20573	0.1633	0.073
Mof_H 	H 	0.2202	0.1974	0.1201	0.025
Mof_C 	C 	0.19021	0.22036	0.18	-0.158
Mof_H 	H 	0.1714	0.2206	0.1481	0.103
Mof_C 	C 	0.1892	0.2343	0.2422	0.122
Mof_C 	C 	0.21618	0.23284	0.2912	-0.154
Mof_H 	H 	0.2152	0.2417	0.3342	0.089
Mof_C 	C 	0.24511	0.21753	0.2742	0.072
Mof_H 	H 	0.2637	0.217	0.3062	0.024
Mof_C 	C 	0.16078	0.25287	0.2616	-0.069
Mof_C 	C 	0.17908	0.29161	0.297	-0.043
Mof_H 	H 	0.2082	0.3042	0.3094	0.047
Mof_C 	C 	0.0385	0.1198	0.2007	-0.008
Mof_C 	C 	0.0932	0.1437	0.2989	-0.02
Mof_O 	O 	0.96952	0.52362	0.57431	-0.405
Mof_O 	O 	0.94498	0.51136	0.46911	-0.408
Mof_C 	C 	0.94505	0.52289	0.52743	0.366
Mof_C 	C 	0.91276	0.53713	0.54573	-0.128
Mof_C 	C 	0.88562	0.53906	0.49663	0.073
Mof_H 	H 	0.88687	0.53073	0.45343	0.025
Mof_C 	C 	0.85688	0.55369	0.51333	-0.158
Mof_H 	H 	0.83807	0.55393	0.48143	0.103
Mof_C 	C 	0.85587	0.56763	0.57553	0.122
Mof_C 	C 	0.88285	0.56617	0.62453	-0.154
Mof_H 	H 	0.88187	0.57503	0.66753	0.089
Mof_C 	C 	0.91178	0.55086	0.60753	0.072
Mof_H 	H 	0.93037	0.55033	0.63953	0.024
Mof_C 	C 	0.82745	0.5862	0.59493	-0.069
Mof_C 	C 	0.84575	0.62494	0.63033	-0.043
Mof_H 	H 	0.87487	0.63753	0.64273	0.047
Mof_C 	C 	0.70517	0.45313	0.53403	-0.008
Mof_C 	C 	0.75987	0.47703	0.63223	-0.02
Mof_O 	O 	0.63618	0.85696	0.90765	-0.405
Mof_O 	O 	0.61164	0.8447	0.80245	-0.408
Mof_C 	C 	0.61171	0.85623	0.86077	0.366
Mof_C 	C 	0.57942	0.87047	0.87907	-0.128
Mof_C 	C 	0.55228	0.8724	0.82997	0.073
Mof_H 	H 	0.55353	0.86407	0.78677	0.025
Mof_C 	C 	0.52354	0.88703	0.84667	-0.158
Mof_H 	H 	0.50473	0.88727	0.81477	0.103
Mof_C 	C 	0.52253	0.90097	0.90887	0.122
Mof_C 	C 	0.54951	0.89951	0.95787	-0.154
Mof_H 	H 	0.54853	0.90837	0.00087	0.089
Mof_C 	C 	0.57844	0.8842	0.94087	0.072
Mof_H 	H 	0.59703	0.88367	0.97287	0.024
Mof_C 	C 	0.49411	0.91954	0.92827	-0.069
Mof_C 	C 	0.51241	0.95828	0.96367	-0.043
Mof_H 	H 	0.54153	0.97087	0.97607	0.047
Mof_C 	C 	0.37183	0.78647	0.86737	-0.008
Mof_C 	C 	0.42653	0.81037	0.96557	-0.02
Mof_Cu	Cu	0.31916	0.15958	0.10496	0.904
Mof_Cu	Cu	0.98583	0.49291	0.43829	0.905
Mof_Cu	Cu	0.65249	0.82625	0.77163	0.904
Mof_Cu	Cu	0.84042	0.15958	0.10496	0.904
Mof_Cu	Cu	0.50709	0.49291	0.43829	0.904
Mof_Cu	Cu	0.17375	0.82625	0.77163	0.904
Mof_Cu	Cu	0.84042	0.68084	0.10496	0.904
Mof_Cu	Cu	0.50709	0.01417	0.43829	0.905
Mof_Cu	Cu	0.17375	0.34751	0.77163	0.904
Mof_Cu	Cu	0.15958	0.31916	0.89504	0.904
Mof_Cu	Cu	0.82625	0.65249	0.22837	0.904
Mof_Cu	Cu	0.49291	0.98583	0.56171	0.905
Mof_Cu	Cu	0.15958	0.84042	0.89504	0.904
Mof_Cu	Cu	0.82625	0.17375	0.22837	0.904
Mof_Cu	Cu	0.49291	0.50709	0.56171	0.904
Mof_Cu	Cu	0.68084	0.84042	0.89504	0.904
Mof_Cu	Cu	0.34751	0.17375	0.22837	0.904
Mof_Cu	Cu	0.01417	0.50709	0.56171	0.905
Mof_O 	O 	0.09785	0.90215	0.2054	-0.229
Mof_C 	C 	0.15634	0.84366	0.3148	0.008
Mof_C 	C 	0.11684	0.88316	0.2434	0.141
Mof_C 	C 	0.0779	0.9221	0.2386	0.119
Mof_O 	O 	0.76452	0.23548	0.53873	-0.229
Mof_C 	C 	0.82301	0.17699	0.64813	0.008
Mof_C 	C 	0.78351	0.21649	0.57673	0.141
Mof_C 	C 	0.74457	0.25543	0.57193	0.119
Mof_O 	O 	0.43118	0.56882	0.87207	-0.229
Mof_C 	C 	0.48967	0.51033	0.98147	0.008
Mof_C 	C 	0.45017	0.54983	0.91007	0.141
Mof_C 	C 	0.41123	0.58877	0.90527	0.119
Mof_O 	O 	0.09785	0.1957	0.2054	-0.229
Mof_C 	C 	0.15634	0.31268	0.3148	0.008
Mof_C 	C 	0.11684	0.23368	0.2434	0.141
Mof_C 	C 	0.0779	0.1558	0.2386	0.119
Mof_O 	O 	0.76452	0.52903	0.53873	-0.229
Mof_C 	C 	0.82301	0.64601	0.64813	0.008
Mof_C 	C 	0.78351	0.56701	0.57673	0.141
Mof_C 	C 	0.74457	0.48913	0.57193	0.119
Mof_O 	O 	0.43118	0.86237	0.87207	-0.229
Mof_C 	C 	0.48967	0.97935	0.98147	0.008
Mof_C 	C 	0.45017	0.90035	0.91007	0.141
Mof_C 	C 	0.41123	0.82247	0.90527	0.119
Mof_O 	O 	0.8043	0.90215	0.2054	-0.229
Mof_C 	C 	0.68732	0.84366	0.3148	0.008
Mof_C 	C 	0.76632	0.88316	0.2434	0.141
Mof_C 	C 	0.8442	0.9221	0.2386	0.119
Mof_O 	O 	0.47097	0.23548	0.53873	-0.229
Mof_C 	C 	0.35399	0.17699	0.64813	0.008
Mof_C 	C 	0.43299	0.21649	0.57673	0.141
Mof_C 	C 	0.51087	0.25543	0.57193	0.119
Mof_O 	O 	0.13763	0.56882	0.87207	-0.229
Mof_C 	C 	0.02065	0.51033	0.98147	0.008
Mof_C 	C 	0.09965	0.54983	0.91007	0.141
Mof_C 	C 	0.17753	0.58877	0.90527	0.119
Mof_O 	O 	0.90215	0.09785	0.7946	-0.229
Mof_C 	C 	0.84366	0.15634	0.6852	0.008
Mof_C 	C 	0.88316	0.11684	0.7566	0.141
Mof_C 	C 	0.9221	0.0779	0.7614	0.119
Mof_O 	O 	0.56882	0.43118	0.12793	-0.229
Mof_C 	C 	0.51033	0.48967	0.01853	0.008
Mof_C 	C 	0.54983	0.45017	0.08993	0.141
Mof_C 	C 	0.58877	0.41123	0.09473	0.119
Mof_O 	O 	0.23548	0.76452	0.46127	-0.229
Mof_C 	C 	0.17699	0.82301	0.35187	0.008
Mof_C 	C 	0.21649	0.78351	0.42327	0.141
Mof_C 	C 	0.25543	0.74457	0.42807	0.119
Mof_O 	O 	0.1957	0.09785	0.7946	-0.229
Mof_C 	C 	0.31268	0.15634	0.6852	0.008
Mof_C 	C 	0.23368	0.11684	0.7566	0.141
Mof_C 	C 	0.1558	0.0779	0.7614	0.119
Mof_O 	O 	0.86237	0.43118	0.12793	-0.229
Mof_C 	C 	0.97935	0.48967	0.01853	0.008
Mof_C 	C 	0.90035	0.45017	0.08993	0.141
Mof_C 	C 	0.82247	0.41123	0.09473	0.119
Mof_O 	O 	0.52903	0.76452	0.46127	-0.229
Mof_C 	C 	0.64601	0.82301	0.35187	0.008
Mof_C 	C 	0.56701	0.78351	0.42327	0.141
Mof_C 	C 	0.48913	0.74457	0.42807	0.119
Mof_O 	O 	0.90215	0.8043	0.7946	-0.229
Mof_C 	C 	0.84366	0.68732	0.6852	0.008
Mof_C 	C 	0.88316	0.76632	0.7566	0.141
Mof_C 	C 	0.9221	0.8442	0.7614	0.119
Mof_O 	O 	0.56882	0.13763	0.12793	-0.229
Mof_C 	C 	0.51033	0.02065	0.01853	0.008
Mof_C 	C 	0.54983	0.09965	0.08993	0.141
Mof_C 	C 	0.58877	0.17753	0.09473	0.119
Mof_O 	O 	0.23548	0.47097	0.46127	-0.229
Mof_C 	C 	0.17699	0.35399	0.35187	0.008
Mof_C 	C 	0.21649	0.43299	0.42327	0.141
Mof_C 	C 	0.25543	0.51087	0.42807	0.119
_end
