# CIF file generated by openbabel 3.1.0, see https://openbabel.org
data_I
_chemical_name_common 'image0'
_cell_length_a 19.5042
_cell_length_b 15.2014
_cell_length_c 6.5693
_cell_angle_alpha 90
_cell_angle_beta 104.18
_cell_angle_gamma 90
_space_group_name_H-M_alt 'P 1'
_space_group_name_Hall 'P 1'
loop_
    _symmetry_equiv_pos_as_xyz
    x,y,z
loop_
    _atom_site_label
    _atom_site_type_symbol
    _atom_site_fract_x
    _atom_site_fract_y
    _atom_site_fract_z
    _atom_site_occupancy
    Al1      Al       0.50030    0.24370    0.51080    1.000
    O1       O        0.49990    0.30250    0.26510    1.000
    O2       O        0.99560    0.55210    0.23840    1.000
    O3       O        0.91590    0.06960    0.87220    1.000
    O4       O        0.93550    0.08900    0.54930    1.000
    O5       O        0.55730    0.15890    0.44510    1.000
    O6       O        0.58250    0.18480    0.14100    1.000
    C1       C        0.81980    0.10662    0.58950    1.000
    C2       C        0.77270    0.10664    0.71540    1.000
    C3       C        0.70070    0.12479    0.62810    1.000
    C4       C        0.67570    0.14239    0.41760    1.000
    C5       C        0.72300    0.14221    0.29360    1.000
    C6       C        0.79480    0.12424    0.38110    1.000
    C7       C        0.89540    0.08731    0.67500    1.000
    C8       C        0.60090    0.16242    0.33010    1.000
    H1       H        0.78950    0.09399    0.86510    1.000
    H2       H        0.66720    0.12510    0.71860    1.000
    H3       H        0.70620    0.15493    0.14440    1.000
    H4       H        0.82830    0.12390    0.29140    1.000
    O7       O        0.41410    0.30640    0.86650    1.000
    O8       O        0.44240    0.34660    0.56720    1.000
    O9       O        0.06320    0.41690    0.45680    1.000
    O10      O        0.08610    0.42970    0.14010    1.000
    C9       C        0.32370    0.35710    0.58960    1.000
    C10      C        0.27500    0.34440    0.70670    1.000
    C11      C        0.20280    0.36360    0.62200    1.000
    C12      C        0.17990    0.39517    0.42140    1.000
    C13      C        0.22870    0.40830    0.30190    1.000
    C14      C        0.30100    0.38900    0.38750    1.000
    C15      C        0.39850    0.33603    0.67850    1.000
    C16      C        0.10480    0.41529    0.33560    1.000
    H5       H        0.29080    0.32170    0.84910    1.000
    H6       H        0.16810    0.35450    0.70660    1.000
    H7       H        0.21270    0.43100    0.15920    1.000
    H8       H        0.33610    0.39790    0.30330    1.000
    H9       H        0.49500    0.36060    0.27900    1.000
    H10      H        0.99300    0.61020    0.24500    1.000
    Al2      Al       0.49970    0.74370    0.98920    1.000
    O11      O        0.50010    0.80250    0.23490    1.000
    O12      O        0.00440    0.05210    0.26160    1.000
    O13      O        0.08410    0.56960    0.62780    1.000
    O14      O        0.06450    0.58900    0.95070    1.000
    O15      O        0.44270    0.65890    0.05490    1.000
    O16      O        0.41750    0.68480    0.35900    1.000
    C17      C        0.18020    0.60662    0.91050    1.000
    C18      C        0.22730    0.60664    0.78460    1.000
    C19      C        0.29930    0.62479    0.87190    1.000
    C20      C        0.32430    0.64239    0.08240    1.000
    C21      C        0.27700    0.64221    0.20640    1.000
    C22      C        0.20520    0.62424    0.11890    1.000
    C23      C        0.10460    0.58731    0.82500    1.000
    C24      C        0.39910    0.66242    0.16990    1.000
    H11      H        0.21050    0.59399    0.63490    1.000
    H12      H        0.33280    0.62510    0.78140    1.000
    H13      H        0.29380    0.65493    0.35560    1.000
    H14      H        0.17170    0.62390    0.20860    1.000
    O17      O        0.58590    0.80640    0.63350    1.000
    O18      O        0.55760    0.84660    0.93280    1.000
    O19      O        0.93680    0.91690    0.04320    1.000
    O20      O        0.91390    0.92970    0.35990    1.000
    C25      C        0.67630    0.85710    0.91040    1.000
    C26      C        0.72500    0.84440    0.79330    1.000
    C27      C        0.79720    0.86360    0.87800    1.000
    C28      C        0.82010    0.89517    0.07860    1.000
    C29      C        0.77130    0.90830    0.19810    1.000
    C30      C        0.69900    0.88900    0.11250    1.000
    C31      C        0.60150    0.83603    0.82150    1.000
    C32      C        0.89520    0.91529    0.16440    1.000
    H15      H        0.70920    0.82170    0.65090    1.000
    H16      H        0.83190    0.85450    0.79340    1.000
    H17      H        0.78730    0.93100    0.34080    1.000
    H18      H        0.66390    0.89790    0.19670    1.000
    H19      H        0.50500    0.86060    0.22100    1.000
    H20      H        0.00700    0.11020    0.25500    1.000
    Al3      Al       0.49970    0.75630    0.48920    1.000
    O21      O        0.50010    0.69750    0.73490    1.000
    O22      O        0.00440    0.44790    0.76160    1.000
    O23      O        0.08410    0.93040    0.12780    1.000
    O24      O        0.06450    0.91100    0.45070    1.000
    O25      O        0.44270    0.84110    0.55490    1.000
    O26      O        0.41750    0.81520    0.85900    1.000
    C33      C        0.18020    0.89338    0.41050    1.000
    C34      C        0.22730    0.89336    0.28460    1.000
    C35      C        0.29930    0.87521    0.37190    1.000
    C36      C        0.32430    0.85761    0.58240    1.000
    C37      C        0.27700    0.85779    0.70640    1.000
    C38      C        0.20520    0.87576    0.61890    1.000
    C39      C        0.10460    0.91269    0.32500    1.000
    C40      C        0.39910    0.83758    0.66990    1.000
    H21      H        0.21050    0.90601    0.13490    1.000
    H22      H        0.33280    0.87490    0.28140    1.000
    H23      H        0.29380    0.84507    0.85560    1.000
    H24      H        0.17170    0.87610    0.70860    1.000
    O27      O        0.58590    0.69360    0.13350    1.000
    O28      O        0.55760    0.65340    0.43280    1.000
    O29      O        0.93680    0.58310    0.54320    1.000
    O30      O        0.91390    0.57030    0.85990    1.000
    C41      C        0.67630    0.64290    0.41040    1.000
    C42      C        0.72500    0.65560    0.29330    1.000
    C43      C        0.79720    0.63640    0.37800    1.000
    C44      C        0.82010    0.60483    0.57860    1.000
    C45      C        0.77130    0.59170    0.69810    1.000
    C46      C        0.69900    0.61100    0.61250    1.000
    C47      C        0.60150    0.66397    0.32150    1.000
    C48      C        0.89520    0.58471    0.66440    1.000
    H25      H        0.70920    0.67830    0.15090    1.000
    H26      H        0.83190    0.64550    0.29340    1.000
    H27      H        0.78730    0.56900    0.84080    1.000
    H28      H        0.66390    0.60210    0.69670    1.000
    H29      H        0.50500    0.63940    0.72100    1.000
    H30      H        0.00700    0.38980    0.75500    1.000
    Al4      Al       0.50030    0.25630    0.01080    1.000
    O31      O        0.49990    0.19750    0.76510    1.000
    O32      O        0.99560    0.94790    0.73840    1.000
    O33      O        0.91590    0.43040    0.37220    1.000
    O34      O        0.93550    0.41100    0.04930    1.000
    O35      O        0.55730    0.34110    0.94510    1.000
    O36      O        0.58250    0.31520    0.64100    1.000
    C49      C        0.81980    0.39338    0.08950    1.000
    C50      C        0.77270    0.39336    0.21540    1.000
    C51      C        0.70070    0.37521    0.12810    1.000
    C52      C        0.67570    0.35761    0.91760    1.000
    C53      C        0.72300    0.35779    0.79360    1.000
    C54      C        0.79480    0.37576    0.88110    1.000
    C55      C        0.89540    0.41269    0.17500    1.000
    C56      C        0.60090    0.33758    0.83010    1.000
    H31      H        0.78950    0.40601    0.36510    1.000
    H32      H        0.66720    0.37490    0.21860    1.000
    H33      H        0.70620    0.34507    0.64440    1.000
    H34      H        0.82830    0.37610    0.79140    1.000
    O37      O        0.41410    0.19360    0.36650    1.000
    O38      O        0.44240    0.15340    0.06720    1.000
    O39      O        0.06320    0.08310    0.95680    1.000
    O40      O        0.08610    0.07030    0.64010    1.000
    C57      C        0.32370    0.14290    0.08960    1.000
    C58      C        0.27500    0.15560    0.20670    1.000
    C59      C        0.20280    0.13640    0.12200    1.000
    C60      C        0.17990    0.10483    0.92140    1.000
    C61      C        0.22870    0.09170    0.80190    1.000
    C62      C        0.30100    0.11100    0.88750    1.000
    C63      C        0.39850    0.16397    0.17850    1.000
    C64      C        0.10480    0.08471    0.83560    1.000
    H35      H        0.29080    0.17830    0.34910    1.000
    H36      H        0.16810    0.14550    0.20660    1.000
    H37      H        0.21270    0.06900    0.65920    1.000
    H38      H        0.33610    0.10210    0.80330    1.000
    H39      H        0.49500    0.13940    0.77900    1.000
    H40      H        0.99300    0.88980    0.74500    1.000
    Al5      Al       0.00000    0.50000    0.00000    1.000
    Al6      Al       0.00000    0.00000    0.50000    1.000
    Al7      Al       0.00000    0.50000    0.50000    1.000
    Al8      Al       0.00000    0.00000    0.00000    1.000
