data_functionalizedCrystal
_audit_creation_method	'EQeq! by Chris Wilmer'
_symmetry_space_group_name_H-M	'P1'
_symmetry_Int_Tables_number	1
_symmetry_cell_setting	triclinic
loop_
_symmetry_equiv_pos_as_xyz
  x,y,z
_cell_length_a	22.071
_cell_length_b	22.071
_cell_length_c	22.071
_cell_angle_alpha	90
_cell_angle_beta	90
_cell_angle_gamma	90
loop_
_atom_site_label
_atom_site_type_symbol
_atom_site_fract_x
_atom_site_fract_y
_atom_site_fract_z
_atom_site_charge
Mof_C 	C 	0.49826	0.00048	0.3364	-0.232
Mof_C 	C 	0.44337	0.00434	0.36827	0.036
Mof_C 	C 	0.44438	0.00585	0.43214	-0.079
Mof_C 	C 	0.49963	0.00089	0.46537	-0.091
Mof_C 	C 	0.55396	0.99572	0.43108	0.061
Mof_C 	C 	0.55358	0.99681	0.36741	0.167
Mof_C 	C 	0.50071	0.0009	0.53471	-0.091
Mof_C 	C 	0.55595	0.00593	0.56794	-0.079
Mof_C 	C 	0.55695	0.00445	0.63182	0.044
Mof_C 	C 	0.50207	0.00056	0.66368	-0.234
Mof_C 	C 	0.44675	0.99682	0.63267	0.169
Mof_C 	C 	0.44638	0.99569	0.569	0.06
Mof_H 	H 	0.49805	0.00029	0.28723	0.045
Mof_H 	H 	0.40145	0.01133	0.45479	0.01
Mof_H 	H 	0.59741	0.99034	0.4527	0.072
Mof_H 	H 	0.59887	0.01145	0.54528	0.016
Mof_H 	H 	0.50228	0.0004	0.71285	0.054
Mof_H 	H 	0.40294	0.99025	0.54739	0.07
Mof_C 	C 	0.33499	0.50032	0.00019	-0.177
Mof_C 	C 	0.36671	0.44528	0.00366	0.067
Mof_C 	C 	0.43058	0.44605	0.00493	-0.095
Mof_C 	C 	0.46409	0.50115	0.00029	-0.014
Mof_C 	C 	0.42996	0.55574	0.99561	-0.016
Mof_C 	C 	0.36614	0.55569	0.99678	0.124
Mof_C 	C 	0.53356	0.5017	0.00022	-0.086
Mof_C 	C 	0.56717	0.55676	0.00482	-0.008
Mof_C 	C 	0.63107	0.55737	0.0035	-0.101
Mof_C 	C 	0.66263	0.50227	0.99999	0.069
Mof_C 	C 	0.63137	0.44705	0.99658	-0.032
Mof_C 	C 	0.56763	0.44708	0.99548	0.062
Mof_H 	H 	0.2858	0.50007	0.00014	0.052
Mof_H 	H 	0.45303	0.40298	0.00999	0.033
Mof_H 	H 	0.45191	0.59908	0.99059	0.069
Mof_H 	H 	0.5448	0.59988	0.00988	0.018
Mof_H 	H 	0.7118	0.50223	0.9999	0.045
Mof_H 	H 	0.54582	0.40369	0.99046	0.041
Mof_C 	C 	0.00029	0.33393	0.50004	-0.178
Mof_C 	C 	0.00399	0.36539	0.44488	0.064
Mof_C 	C 	0.00527	0.42919	0.44523	-0.088
Mof_C 	C 	0.00022	0.46294	0.50002	-0.032
Mof_C 	C 	0.9952	0.4292	0.55482	-0.007
Mof_C 	C 	0.99656	0.36541	0.55519	0.12
Mof_C 	C 	0.00018	0.53228	0.50001	-0.037
Mof_C 	C 	0.00532	0.56607	0.55479	-0.073
Mof_C 	C 	0.00398	0.62982	0.55505	0.044
Mof_C 	C 	9e-05	0.66123	0.5	-0.155
Mof_C 	C 	0.99624	0.62981	0.44495	0.108
Mof_C 	C 	0.99499	0.56605	0.44523	-0
Mof_H 	H 	0.00032	0.28474	0.50005	0.047
Mof_H 	H 	0.01068	0.45144	0.40207	0.032
Mof_H 	H 	0.98976	0.45145	0.59797	0.064
Mof_H 	H 	0.01084	0.54405	0.59801	0.033
Mof_H 	H 	6e-05	0.71037	0.49999	0.061
Mof_H 	H 	0.9895	0.54402	0.402	0.06
Mof_O 	O 	0.8435	0.00275	0.91838	-0.7
Mof_O 	O 	0.15686	0.99763	0.9191	-0.564
Mof_O 	O 	0.99798	0.08141	0.84334	-0.645
Mof_O 	O 	0.00258	0.91891	0.8434	-0.645
Mof_O 	O 	0.00223	0.84399	0.91618	-0.644
Mof_O 	O 	0.99817	0.15648	0.91598	-0.558
Mof_O 	O 	0.08421	0.99794	0.84401	-0.552
Mof_O 	O 	0.91637	0.00242	0.84356	-0.684
Mof_Zr	Zr	0.00023	0.00023	0.89296	3.207
Mof_O 	O 	0.05509	0.94532	0.94523	-1.229
Mof_O 	O 	0.94531	0.05531	0.94498	-1.263
Mof_C 	C 	0.86005	0.00389	0.86201	0.544
Mof_C 	C 	0.1404	0.9963	0.86274	0.436
Mof_C 	C 	0.99669	0.1378	0.85974	0.454
Mof_C 	C 	0.00372	0.86254	0.85994	0.504
Mof_H 	H 	0.08097	0.08084	0.91947	0.298
Mof_O 	O 	0.05508	0.055	0.94533	-1.541
Mof_H 	H 	0.91944	0.91966	0.91916	0.35
Mof_O 	O 	0.94529	0.94548	0.94509	-1.403
Mof_O 	O 	0.15684	0.00239	0.08164	-0.743
Mof_O 	O 	0.84347	0.99785	0.08095	-0.606
Mof_O 	O 	0.08155	0.15705	0.00229	-0.703
Mof_O 	O 	0.08117	0.84351	0.99771	-0.63
Mof_O 	O 	0.91854	0.84362	0.00206	-0.667
Mof_O 	O 	0.91907	0.15705	0.99775	-0.598
Mof_O 	O 	0.00246	0.08134	0.15674	-0.719
Mof_O 	O 	0.99763	0.91886	0.15661	-0.579
Mof_O 	O 	0.00243	0.15644	0.08412	-0.683
Mof_O 	O 	0.99769	0.84397	0.0838	-0.597
Mof_O 	O 	0.15654	0.08432	0.00229	-0.692
Mof_O 	O 	0.84399	0.08441	0.99774	-0.61
Mof_O 	O 	0.84367	0.91644	0.00174	-0.63
Mof_O 	O 	0.15632	0.9161	0.99815	-0.538
Mof_O 	O 	0.08397	0.00219	0.15646	-0.73
Mof_O 	O 	0.91611	0.99802	0.15604	-0.525
Mof_Zr	Zr	0.10732	0.00022	0.00027	3.208
Mof_Zr	Zr	0.89302	0.00036	0.99977	3.227
Mof_Zr	Zr	0.00029	0.10739	4e-05	3.216
Mof_Zr	Zr	0.99996	0.89317	-0	3.235
Mof_Zr	Zr	9e-05	0.00018	0.10708	3.208
Mof_O 	O 	0.94503	0.94536	0.05485	-1.238
Mof_O 	O 	0.05515	0.05522	0.05511	-1.333
Mof_C 	C 	0.14029	0.00353	0.13802	0.56
Mof_C 	C 	0.85993	0.99648	0.13731	0.44
Mof_C 	C 	0.13796	0.14064	0.00355	0.49
Mof_C 	C 	0.13759	0.85986	0.9966	0.449
Mof_C 	C 	0.86214	0.86012	0.00308	0.505
Mof_C 	C 	0.86267	0.14065	0.99646	0.455
Mof_C 	C 	0.00385	0.13774	0.14035	0.494
Mof_C 	C 	0.99632	0.86249	0.14005	0.451
Mof_H 	H 	0.91952	0.08091	0.08059	0.302
Mof_O 	O 	0.94537	0.05505	0.05471	-1.533
Mof_H 	H 	0.08065	0.91947	0.08077	0.317
Mof_O 	O 	0.05486	0.94536	0.05487	-1.493
Mof_C 	C 	0.29074	0.00768	0.26576	0.25
Mof_C 	C 	0.23104	0.0007	0.28713	-0.598
Mof_C 	C 	0.18161	0.99998	0.24638	0.559
Mof_C 	C 	0.19109	0.00597	0.18344	-0.462
Mof_C 	C 	0.25128	0.01354	0.16296	0.197
Mof_C 	C 	0.30013	0.01435	0.20344	-0.254
Mof_C 	C 	0.34322	0.00701	0.30618	-0.14
Mof_C 	C 	0.38936	0.00612	0.33659	-0.01
Mof_H 	H 	0.22267	0.99542	0.33519	0.277
Mof_H 	H 	0.13622	0.9941	0.26403	-0.05
Mof_H 	H 	0.2611	0.01869	0.11518	-0.034
Mof_H 	H 	0.34563	0.01982	0.18581	0.066
Mof_C 	C 	0.70899	0.99205	0.26346	0.19
Mof_C 	C 	0.70056	0.98075	0.20172	-0.089
Mof_C 	C 	0.74973	0.98138	0.16177	0.034
Mof_C 	C 	0.80913	0.99342	0.18233	0.02
Mof_C 	C 	0.81772	0.00369	0.24478	-0.093
Mof_C 	C 	0.76796	0.00319	0.28499	-0.21
Mof_C 	C 	0.65624	0.99332	0.30315	-0.008
Mof_C 	C 	0.61018	0.99459	0.3334	0.009
Mof_H 	H 	0.65558	0.97194	0.18412	0.075
Mof_H 	H 	0.74082	0.97265	0.11432	0.055
Mof_H 	H 	0.86254	0.01311	0.26235	0.035
Mof_H 	H 	0.77543	0.01205	0.33267	0.047
Mof_C 	C 	0.7096	0.00807	0.73429	0.237
Mof_C 	C 	0.7003	0.01544	0.79655	-0.229
Mof_C 	C 	0.74915	0.01467	0.83701	0.187
Mof_C 	C 	0.80927	0.00644	0.81659	-0.416
Mof_C 	C 	0.81869	0.99981	0.7537	0.522
Mof_C 	C 	0.76924	0.00048	0.71296	-0.548
Mof_C 	C 	0.6571	0.00729	0.6939	-0.12
Mof_C 	C 	0.61096	0.00631	0.66349	-0.008
Mof_H 	H 	0.65484	0.0214	0.81413	0.077
Mof_H 	H 	0.73941	0.02035	0.88475	-0.005
Mof_H 	H 	0.86402	0.9934	0.73609	-0.023
Mof_H 	H 	0.77755	0.99465	0.66496	0.272
Mof_C 	C 	0.29134	0.99192	0.73659	0.2
Mof_C 	C 	0.29973	0.9804	0.7983	-0.084
Mof_C 	C 	0.25055	0.981	0.83824	0.035
Mof_C 	C 	0.19119	0.99322	0.81771	0.034
Mof_C 	C 	0.18262	0.0037	0.75528	-0.108
Mof_C 	C 	0.23239	0.00323	0.71508	-0.22
Mof_C 	C 	0.34409	0.99325	0.69692	-0.008
Mof_C 	C 	0.39015	0.99455	0.66667	0.013
Mof_H 	H 	0.34469	0.97146	0.81587	0.09
Mof_H 	H 	0.25944	0.97211	0.88567	0.077
Mof_H 	H 	0.13782	0.01327	0.73774	0.013
Mof_H 	H 	0.22494	0.01227	0.66743	0.035
Mof_C 	C 	0.26474	0.29208	0.00728	-0.039
Mof_C 	C 	0.20248	0.30084	0.01525	-0.081
Mof_C 	C 	0.16239	0.25166	0.01467	0.048
Mof_C 	C 	0.18315	0.1917	0.00602	-0.224
Mof_C 	C 	0.24605	0.18281	0.99881	0.116
Mof_C 	C 	0.28643	0.23259	0.9993	-0.011
Mof_C 	C 	0.30476	0.34493	0.00639	-0.016
Mof_C 	C 	0.33496	0.39124	0.0054	-0.064
Mof_H 	H 	0.1846	0.34613	0.02156	0.031
Mof_H 	H 	0.11463	0.26105	0.02083	0.013
Mof_H 	H 	0.26393	0.13763	0.99205	0.021
Mof_H 	H 	0.33444	0.22466	0.99302	0.049
Mof_C 	C 	0.26391	0.70843	0.99276	0.123
Mof_C 	C 	0.28561	0.76769	0.00209	-0.144
Mof_C 	C 	0.24538	0.81752	0.00253	-0.035
Mof_C 	C 	0.18265	0.80884	0.99393	-0.038
Mof_C 	C 	0.16188	0.74912	0.98383	0.035
Mof_C 	C 	0.20185	0.69988	0.9833	-0.081
Mof_C 	C 	0.30374	0.65557	0.99384	-0.005
Mof_C 	C 	0.33399	0.60938	0.99494	-0.014
Mof_H 	H 	0.3335	0.77537	0.00952	0.056
Mof_H 	H 	0.2632	0.86254	0.01042	0.049
Mof_H 	H 	0.11424	0.73998	0.97652	0.046
Mof_H 	H 	0.18402	0.65473	0.97591	0.062
Mof_C 	C 	0.73423	0.70967	0.00674	0.164
Mof_C 	C 	0.79662	0.70017	0.01271	-0.161
Mof_C 	C 	0.83716	0.74899	0.01203	0.123
Mof_C 	C 	0.8167	0.80929	0.00529	-0.274
Mof_C 	C 	0.75371	0.81888	0.99995	0.301
Mof_C 	C 	0.7129	0.76948	0.00056	-0.329
Mof_C 	C 	0.69367	0.65726	0.00608	-0.103
Mof_C 	C 	0.66306	0.61123	0.0052	0.04
Mof_H 	H 	0.81424	0.6546	0.01757	0.069
Mof_H 	H 	0.88498	0.73907	0.01662	0.021
Mof_H 	H 	0.73604	0.86434	0.99472	0.019
Mof_H 	H 	0.6648	0.77797	0.99583	0.18
Mof_C 	C 	0.73587	0.29159	0.99263	0.136
Mof_C 	C 	0.71426	0.23215	0.00084	-0.159
Mof_C 	C 	0.7547	0.1825	0.00134	-0.029
Mof_C 	C 	0.81753	0.19157	0.99393	-0.054
Mof_C 	C 	0.83822	0.2515	0.98502	0.045
Mof_C 	C 	0.79805	0.30055	0.98442	-0.088
Mof_C 	C 	0.69578	0.34422	0.99358	-0.045
Mof_C 	C 	0.66533	0.39025	0.99462	0.038
Mof_H 	H 	0.66628	0.22416	0.0073	0.039
Mof_H 	H 	0.73693	0.13731	0.0083	0.01
Mof_H 	H 	0.88594	0.26093	0.97868	0.063
Mof_H 	H 	0.8158	0.34587	0.97794	0.075
Mof_C 	C 	0.00818	0.26385	0.2918	-0.044
Mof_C 	C 	0.01853	0.2019	0.30015	-0.083
Mof_C 	C 	0.01787	0.16202	0.25088	0.049
Mof_C 	C 	0.00676	0.18276	0.19134	-0.233
Mof_C 	C 	0.99736	0.24539	0.18282	0.125
Mof_C 	C 	0.9979	0.28555	0.2327	-0.006
Mof_C 	C 	0.00707	0.30351	0.34474	-0.016
Mof_C 	C 	0.00593	0.33356	0.39104	-0.065
Mof_H 	H 	0.02665	0.1841	0.34518	0.025
Mof_H 	H 	0.02588	0.11445	0.25984	0.005
Mof_H 	H 	0.98867	0.26316	0.13793	0.029
Mof_H 	H 	0.98977	0.33335	0.2252	0.053
Mof_C 	C 	0.99239	0.26391	0.7083	0.124
Mof_C 	C 	0.98193	0.20199	0.69996	-0.087
Mof_C 	C 	0.98257	0.16211	0.74924	0.035
Mof_C 	C 	0.99379	0.18283	0.80877	-0.047
Mof_C 	C 	0.00332	0.24544	0.81727	-0.037
Mof_C 	C 	0.00279	0.2856	0.76738	-0.152
Mof_C 	C 	0.99351	0.30356	0.65535	-0.011
Mof_C 	C 	0.99464	0.33359	0.60904	-0.015
Mof_H 	H 	0.97371	0.18419	0.65494	0.057
Mof_H 	H 	0.97446	0.11456	0.74029	0.035
Mof_H 	H 	0.01209	0.2632	0.86214	0.038
Mof_H 	H 	0.01101	0.33339	0.77487	0.051
Mof_C 	C 	0.00795	0.73483	0.70995	0.147
Mof_C 	C 	0.0156	0.79701	0.70046	-0.149
Mof_C 	C 	0.01483	0.83754	0.74921	0.12
Mof_C 	C 	0.00632	0.81718	0.80929	-0.264
Mof_C 	C 	0.99943	0.75437	0.81886	0.285
Mof_C 	C 	0.00011	0.71358	0.76955	-0.313
Mof_C 	C 	0.00711	0.69437	0.65768	-0.067
Mof_C 	C 	0.00607	0.66371	0.61183	-0.009
Mof_H 	H 	0.02177	0.81446	0.65499	0.076
Mof_H 	H 	0.02073	0.88525	0.73942	0.035
Mof_H 	H 	0.9928	0.73687	0.86421	0.012
Mof_H 	H 	0.99406	0.6656	0.7779	0.168
Mof_C 	C 	0.99211	0.73479	0.29004	0.126
Mof_C 	C 	0.00017	0.71355	0.23046	-0.149
Mof_C 	C 	0.00081	0.75434	0.18114	-0.031
Mof_C 	C 	0.99369	0.81712	0.19069	-0.043
Mof_C 	C 	0.98495	0.83746	0.25074	0.043
Mof_C 	C 	0.98421	0.79694	0.29949	-0.077
Mof_C 	C 	0.99302	0.69434	0.34231	-0.011
Mof_C 	C 	0.9941	0.66368	0.38817	-0
Mof_H 	H 	0.00642	0.6656	0.22213	0.041
Mof_H 	H 	0.00764	0.73686	0.13582	0.02
Mof_H 	H 	0.97886	0.88515	0.26051	0.074
Mof_H 	H 	0.97787	0.81437	0.34495	0.082
_end
