# CIF file generated by openbabel 3.1.0, see https://openbabel.org
data_I
_chemical_name_common 'GEDLIM_clean'
_cell_length_a 12.8842
_cell_length_b 14.5956
_cell_length_c 14.5956
_cell_angle_alpha 90
_cell_angle_beta 90
_cell_angle_gamma 90
_space_group_name_H-M_alt 'P 1'
_space_group_name_Hall 'P 1'
loop_
    _symmetry_equiv_pos_as_xyz
    x,y,z
loop_
    _atom_site_label
    _atom_site_type_symbol
    _atom_site_fract_x
    _atom_site_fract_y
    _atom_site_fract_z
    _atom_site_occupancy
    Zn1      Zn       0.00000    0.50000    0.00000    1.000
    Zn2      Zn       0.50000    0.00000    0.50000    1.000
    H1       H        0.97840    0.19170    0.18860    1.000
    H2       H        0.86200    0.09850    0.27030    1.000
    H3       H        0.62310    0.24370    0.16880    1.000
    H4       H        0.73650    0.33800    0.09040    1.000
    H5       H        0.56360    0.05780    0.17880    1.000
    H6       H        0.78730    0.09570    0.44300    1.000
    H7       H        0.74780    0.19510    0.41680    1.000
    H8       H        0.69190    0.13940    0.49580    1.000
    H9       H        0.97840    0.80830    0.81140    1.000
    H10      H        0.86200    0.90150    0.72970    1.000
    H11      H        0.62310    0.75630    0.83120    1.000
    H12      H        0.73650    0.66200    0.90960    1.000
    H13      H        0.56360    0.94220    0.82120    1.000
    H14      H        0.78730    0.90430    0.55700    1.000
    H15      H        0.74780    0.80490    0.58320    1.000
    H16      H        0.69190    0.86060    0.50420    1.000
    H17      H        0.47840    0.69170    0.31140    1.000
    H18      H        0.36200    0.59850    0.22970    1.000
    H19      H        0.12310    0.74370    0.33120    1.000
    H20      H        0.23650    0.83800    0.40960    1.000
    H21      H        0.06360    0.55780    0.32120    1.000
    H22      H        0.28730    0.59570    0.05700    1.000
    H23      H        0.24780    0.69510    0.08320    1.000
    H24      H        0.19190    0.63940    0.00420    1.000
    H25      H        0.47840    0.30830    0.68860    1.000
    H26      H        0.36200    0.40150    0.77030    1.000
    H27      H        0.12310    0.25630    0.66880    1.000
    H28      H        0.23650    0.16200    0.59040    1.000
    H29      H        0.06360    0.44220    0.67880    1.000
    H30      H        0.28730    0.40430    0.94300    1.000
    H31      H        0.24780    0.30490    0.91680    1.000
    H32      H        0.19190    0.36060    0.99580    1.000
    C1       C        0.94450    0.33530    0.08020    1.000
    C2       C        0.86990    0.27340    0.12890    1.000
    C3       C        0.90660    0.20230    0.18420    1.000
    C4       C        0.83760    0.14650    0.23330    1.000
    C5       C        0.73230    0.16420    0.22560    1.000
    C6       C        0.69500    0.23370    0.17280    1.000
    C7       C        0.76250    0.28910    0.12540    1.000
    C8       C        0.57880    0.06070    0.24170    1.000
    C9       C        0.65530    0.09470    0.36950    1.000
    C10      C        0.72660    0.13460    0.43700    1.000
    C11      C        0.94450    0.66470    0.91980    1.000
    C12      C        0.86990    0.72660    0.87110    1.000
    C13      C        0.90660    0.79770    0.81580    1.000
    C14      C        0.83760    0.85350    0.76670    1.000
    C15      C        0.73230    0.83580    0.77440    1.000
    C16      C        0.69500    0.76630    0.82720    1.000
    C17      C        0.76250    0.71090    0.87460    1.000
    C18      C        0.57880    0.93930    0.75830    1.000
    C19      C        0.65530    0.90530    0.63050    1.000
    C20      C        0.72660    0.86540    0.56300    1.000
    C21      C        0.44450    0.83530    0.41980    1.000
    C22      C        0.36990    0.77340    0.37110    1.000
    C23      C        0.40660    0.70230    0.31580    1.000
    C24      C        0.33760    0.64650    0.26670    1.000
    C25      C        0.23230    0.66420    0.27440    1.000
    C26      C        0.19500    0.73370    0.32720    1.000
    C27      C        0.26250    0.78910    0.37460    1.000
    C28      C        0.07880    0.56070    0.25830    1.000
    C29      C        0.15530    0.59470    0.13050    1.000
    C30      C        0.22660    0.63460    0.06300    1.000
    C31      C        0.44450    0.16470    0.58020    1.000
    C32      C        0.36990    0.22660    0.62890    1.000
    C33      C        0.40660    0.29770    0.68420    1.000
    C34      C        0.33760    0.35350    0.73330    1.000
    C35      C        0.23230    0.33580    0.72560    1.000
    C36      C        0.19500    0.26630    0.67280    1.000
    C37      C        0.26250    0.21090    0.62540    1.000
    C38      C        0.07880    0.43930    0.74170    1.000
    C39      C        0.15530    0.40530    0.86950    1.000
    C40      C        0.22660    0.36540    0.93700    1.000
    N1       N        0.52400    0.01980    0.30480    1.000
    N2       N        0.57400    0.04170    0.38620    1.000
    N3       N        0.66050    0.10830    0.27750    1.000
    N4       N        0.52400    0.98020    0.69520    1.000
    N5       N        0.57400    0.95830    0.61380    1.000
    N6       N        0.66050    0.89170    0.72250    1.000
    N7       N        0.02400    0.51980    0.19520    1.000
    N8       N        0.07400    0.54170    0.11380    1.000
    N9       N        0.16050    0.60830    0.22250    1.000
    N10      N        0.02400    0.48020    0.80480    1.000
    N11      N        0.07400    0.45830    0.88620    1.000
    N12      N        0.16050    0.39170    0.77750    1.000
    O1       O        0.90270    0.40430    0.04010    1.000
    O2       O        0.03920    0.31810    0.08000    1.000
    O3       O        0.90270    0.59570    0.95990    1.000
    O4       O        0.03920    0.68190    0.92000    1.000
    O5       O        0.40270    0.90430    0.45990    1.000
    O6       O        0.53920    0.81810    0.42000    1.000
    O7       O        0.40270    0.09570    0.54010    1.000
    O8       O        0.53920    0.18190    0.58000    1.000
    Zn3      Zn       0.00000    0.00000    0.50000    1.000
    Zn4      Zn       0.50000    0.50000    0.00000    1.000
    H33      H        0.97840    0.81140    0.19170    1.000
    H34      H        0.86200    0.72970    0.09850    1.000
    H35      H        0.62310    0.83120    0.24370    1.000
    H36      H        0.73650    0.90960    0.33800    1.000
    H37      H        0.56360    0.82120    0.05780    1.000
    H38      H        0.78730    0.55700    0.09570    1.000
    H39      H        0.74780    0.58320    0.19510    1.000
    H40      H        0.69190    0.50420    0.13940    1.000
    H41      H        0.97840    0.18860    0.80830    1.000
    H42      H        0.86200    0.27030    0.90150    1.000
    H43      H        0.62310    0.16880    0.75630    1.000
    H44      H        0.73650    0.09040    0.66200    1.000
    H45      H        0.56360    0.17880    0.94220    1.000
    H46      H        0.78730    0.44300    0.90430    1.000
    H47      H        0.74780    0.41680    0.80490    1.000
    H48      H        0.69190    0.49580    0.86060    1.000
    H49      H        0.47840    0.31140    0.30830    1.000
    H50      H        0.36200    0.22970    0.40150    1.000
    H51      H        0.12310    0.33120    0.25630    1.000
    H52      H        0.23650    0.40960    0.16200    1.000
    H53      H        0.06360    0.32120    0.44220    1.000
    H54      H        0.28730    0.05700    0.40430    1.000
    H55      H        0.24780    0.08320    0.30490    1.000
    H56      H        0.19190    0.00420    0.36060    1.000
    H57      H        0.47840    0.68860    0.69170    1.000
    H58      H        0.36200    0.77030    0.59850    1.000
    H59      H        0.12310    0.66880    0.74370    1.000
    H60      H        0.23650    0.59040    0.83800    1.000
    H61      H        0.06360    0.67880    0.55780    1.000
    H62      H        0.28730    0.94300    0.59570    1.000
    H63      H        0.24780    0.91680    0.69510    1.000
    H64      H        0.19190    0.99580    0.63940    1.000
    C41      C        0.94450    0.91980    0.33530    1.000
    C42      C        0.86990    0.87110    0.27340    1.000
    C43      C        0.90660    0.81580    0.20230    1.000
    C44      C        0.83760    0.76670    0.14650    1.000
    C45      C        0.73230    0.77440    0.16420    1.000
    C46      C        0.69500    0.82720    0.23370    1.000
    C47      C        0.76250    0.87460    0.28910    1.000
    C48      C        0.57880    0.75830    0.06070    1.000
    C49      C        0.65530    0.63050    0.09470    1.000
    C50      C        0.72660    0.56300    0.13460    1.000
    C51      C        0.94450    0.08020    0.66470    1.000
    C52      C        0.86990    0.12890    0.72660    1.000
    C53      C        0.90660    0.18420    0.79770    1.000
    C54      C        0.83760    0.23330    0.85350    1.000
    C55      C        0.73230    0.22560    0.83580    1.000
    C56      C        0.69500    0.17280    0.76630    1.000
    C57      C        0.76250    0.12540    0.71090    1.000
    C58      C        0.57880    0.24170    0.93930    1.000
    C59      C        0.65530    0.36950    0.90530    1.000
    C60      C        0.72660    0.43700    0.86540    1.000
    C61      C        0.44450    0.41980    0.16470    1.000
    C62      C        0.36990    0.37110    0.22660    1.000
    C63      C        0.40660    0.31580    0.29770    1.000
    C64      C        0.33760    0.26670    0.35350    1.000
    C65      C        0.23230    0.27440    0.33580    1.000
    C66      C        0.19500    0.32720    0.26630    1.000
    C67      C        0.26250    0.37460    0.21090    1.000
    C68      C        0.07880    0.25830    0.43930    1.000
    C69      C        0.15530    0.13050    0.40530    1.000
    C70      C        0.22660    0.06300    0.36540    1.000
    C71      C        0.44450    0.58020    0.83530    1.000
    C72      C        0.36990    0.62890    0.77340    1.000
    C73      C        0.40660    0.68420    0.70230    1.000
    C74      C        0.33760    0.73330    0.64650    1.000
    C75      C        0.23230    0.72560    0.66420    1.000
    C76      C        0.19500    0.67280    0.73370    1.000
    C77      C        0.26250    0.62540    0.78910    1.000
    C78      C        0.07880    0.74170    0.56070    1.000
    C79      C        0.15530    0.86950    0.59470    1.000
    C80      C        0.22660    0.93700    0.63460    1.000
    N13      N        0.52400    0.69520    0.01980    1.000
    N14      N        0.57400    0.61380    0.04170    1.000
    N15      N        0.66050    0.72250    0.10830    1.000
    N16      N        0.52400    0.30480    0.98020    1.000
    N17      N        0.57400    0.38620    0.95830    1.000
    N18      N        0.66050    0.27750    0.89170    1.000
    N19      N        0.02400    0.19520    0.48020    1.000
    N20      N        0.07400    0.11380    0.45830    1.000
    N21      N        0.16050    0.22250    0.39170    1.000
    N22      N        0.02400    0.80480    0.51980    1.000
    N23      N        0.07400    0.88620    0.54170    1.000
    N24      N        0.16050    0.77750    0.60830    1.000
    O9       O        0.90270    0.95990    0.40430    1.000
    O10      O        0.03920    0.92000    0.31810    1.000
    O11      O        0.90270    0.04010    0.59570    1.000
    O12      O        0.03920    0.08000    0.68190    1.000
    O13      O        0.40270    0.45990    0.09570    1.000
    O14      O        0.53920    0.42000    0.18190    1.000
    O15      O        0.40270    0.54010    0.90430    1.000
    O16      O        0.53920    0.58000    0.81810    1.000
