data_functionalizedCrystal
_audit_creation_method	'EQeq! by Chris Wilmer'
_symmetry_space_group_name_H-M	'P1'
_symmetry_Int_Tables_number	1
_symmetry_cell_setting	triclinic
loop_
_symmetry_equiv_pos_as_xyz
  x,y,z
_cell_length_a	14.139
_cell_length_b	20.5709
_cell_length_c	9.9284
_cell_angle_alpha	90
_cell_angle_beta	95.786
_cell_angle_gamma	90
loop_
_atom_site_label
_atom_site_type_symbol
_atom_site_fract_x
_atom_site_fract_y
_atom_site_fract_z
_atom_site_charge
Mof_Cu	Cu	0.18983	0.73564	0.69532	0.91
Mof_C 	C 	0.01719	0.81783	0.2193	0.364
Mof_C 	C 	0.9405	0.85022	0.2903	-0.202
Mof_C 	C 	0.94749	0.85433	0.4302	0.176
Mof_H 	H 	0.9984	0.8348	0.4815	-0.011
Mof_C 	C 	0.87934	0.88721	0.4944	-0.297
Mof_H 	H 	0.884	0.889	0.5884	0.153
Mof_C 	C 	0.80441	0.91741	0.419	0.324
Mof_C 	C 	0.79395	0.91097	0.2803	-0.307
Mof_H 	H 	0.7413	0.9286	0.2294	0.152
Mof_C 	C 	0.86265	0.87804	0.2172	0.175
Mof_H 	H 	0.8562	0.8746	0.1233	-0.018
Mof_C 	C 	0.1544	0.87792	0.6438	0.017
Mof_H 	H 	0.1956	0.8804	0.5766	0.031
Mof_C 	C 	0.1015	0.92732	0.6846	-0.009
Mof_H 	H 	0.1002	0.9698	0.6524	0.043
Mof_C 	C 	0.0753	0.84044	0.8006	0.088
Mof_H 	H 	0.0516	0.813	0.8636	0.018
Mof_C 	C 	0.9839	0.9395	0.8576	-0.046
Mof_H 	H 	0.9453	0.9676	0.7959	0.049
Mof_H 	H 	0.9418	0.9095	0.8977	0.057
Mof_C 	C 	0.035	0.97891	0.9646	-0.106
Mof_H 	H 	0.0806	0.0066	0.9256	0.067
Mof_H 	H 	0.0697	0.9506	0.0304	0.072
Mof_C 	C 	0.29389	0.63311	0.5657	0.078
Mof_H 	H 	0.3154	0.6628	0.505	0.027
Mof_C 	C 	0.22451	0.59065	0.7282	-0.013
Mof_H 	H 	0.1883	0.5864	0.8008	0.041
Mof_C 	C 	0.26998	0.54128	0.6713	0.037
Mof_C 	C 	0.47069	0.5196	0.5457	-0.108
Mof_H 	H 	0.4637	0.495	0.6274	0.072
Mof_H 	H 	0.504	0.5596	0.5717	0.072
Mof_C 	C 	0.37356	0.53569	0.4766	-0.046
Mof_H 	H 	0.3807	0.5631	0.3987	0.06
Mof_H 	H 	0.3424	0.4958	0.4442	0.049
Mof_C 	C 	0.35491	0.80349	0.6705	0.372
Mof_C 	C 	0.42157	0.84103	0.5904	-0.211
Mof_C 	C 	0.49254	0.87904	0.6556	0.187
Mof_H 	H 	0.4997	0.8805	0.7497	-0.02
Mof_C 	C 	0.5532	0.91497	0.584	-0.311
Mof_H 	H 	0.6008	0.9402	0.6295	0.158
Mof_C 	C 	0.54264	0.91308	0.4446	0.334
Mof_C 	C 	0.47194	0.87535	0.3773	-0.308
Mof_H 	H 	0.4647	0.8742	0.2832	0.156
Mof_C 	C 	0.41237	0.83944	0.4497	0.192
Mof_H 	H 	0.3654	0.8138	0.404	-0.023
Mof_C 	C 	0.66995	0.98757	0.4237	0.264
Mof_H 	H 	0.695	0.0142	0.3549	-0.036
Mof_H 	H 	0.6424	0.0164	0.4865	-0.031
Mof_N 	N 	0.13761	0.82323	0.7175	-0.213
Mof_N 	N 	0.05042	0.9028	0.7821	-0.115
Mof_N 	N 	0.23988	0.64796	0.6626	-0.207
Mof_N 	N 	0.31338	0.56924	0.5671	-0.12
Mof_O 	O 	0.09171	0.80135	0.29597	-0.403
Mof_O 	O 	0.00676	0.80997	0.0961	-0.309
Mof_O 	O 	0.74464	0.95239	0.49341	-0.303
Mof_O 	O 	0.36471	0.80562	0.7947	-0.305
Mof_O 	O 	0.28952	0.7726	0.599	-0.408
Mof_O 	O 	0.5985	0.94669	0.36203	-0.306
Mof_Cu	Cu	0.81016	0.23564	0.80468	0.909
Mof_C 	C 	0.98281	0.31783	0.2807	0.361
Mof_C 	C 	0.0595	0.35022	0.2097	-0.2
Mof_C 	C 	0.05251	0.35433	0.0698	0.173
Mof_H 	H 	0.0016	0.3348	0.0185	-0.009
Mof_C 	C 	0.12066	0.38721	0.0056	-0.294
Mof_H 	H 	0.116	0.389	0.9116	0.151
Mof_C 	C 	0.19559	0.41741	0.081	0.323
Mof_C 	C 	0.20605	0.41097	0.2197	-0.306
Mof_H 	H 	0.2587	0.4286	0.2706	0.152
Mof_C 	C 	0.13735	0.37804	0.2828	0.173
Mof_H 	H 	0.1438	0.3746	0.3767	-0.017
Mof_C 	C 	0.8456	0.37792	0.8562	0.017
Mof_H 	H 	0.8044	0.3804	0.9234	0.031
Mof_C 	C 	0.8985	0.42732	0.8154	-0.009
Mof_H 	H 	0.8998	0.4698	0.8476	0.043
Mof_C 	C 	0.9247	0.34044	0.6994	0.088
Mof_H 	H 	0.9484	0.313	0.6364	0.018
Mof_C 	C 	0.0161	0.4395	0.6424	-0.046
Mof_H 	H 	0.0547	0.4676	0.7041	0.049
Mof_H 	H 	0.0582	0.4095	0.6023	0.057
Mof_C 	C 	0.965	0.47891	0.5354	-0.107
Mof_H 	H 	0.9194	0.5066	0.5744	0.069
Mof_H 	H 	0.9303	0.4506	0.4696	0.072
Mof_C 	C 	0.70611	0.13311	0.9343	0.078
Mof_H 	H 	0.6846	0.1628	0.995	0.026
Mof_C 	C 	0.77549	0.09065	0.7718	-0.013
Mof_H 	H 	0.8117	0.0864	0.6992	0.041
Mof_C 	C 	0.73002	0.04128	0.8287	0.037
Mof_C 	C 	0.52931	0.0196	0.9543	-0.109
Mof_H 	H 	0.5363	0.995	0.8726	0.073
Mof_H 	H 	0.496	0.0596	0.9283	0.073
Mof_C 	C 	0.62644	0.03569	0.0234	-0.045
Mof_H 	H 	0.6193	0.0631	0.1013	0.06
Mof_H 	H 	0.6576	0.9958	0.0558	0.049
Mof_C 	C 	0.64509	0.30349	0.8295	0.372
Mof_C 	C 	0.57843	0.34103	0.9096	-0.211
Mof_C 	C 	0.50746	0.37904	0.8444	0.187
Mof_H 	H 	0.5003	0.3805	0.7503	-0.021
Mof_C 	C 	0.4468	0.41497	0.916	-0.312
Mof_H 	H 	0.3992	0.4402	0.8705	0.158
Mof_C 	C 	0.45736	0.41308	0.0554	0.334
Mof_C 	C 	0.52806	0.37535	0.1227	-0.308
Mof_H 	H 	0.5353	0.3742	0.2168	0.156
Mof_C 	C 	0.58763	0.33944	0.0503	0.192
Mof_H 	H 	0.6346	0.3138	0.096	-0.023
Mof_C 	C 	0.33005	0.48757	0.0763	0.265
Mof_H 	H 	0.305	0.5142	0.1451	-0.037
Mof_H 	H 	0.3576	0.5164	0.0135	-0.032
Mof_N 	N 	0.86239	0.32323	0.7825	-0.213
Mof_N 	N 	0.94958	0.4028	0.7179	-0.115
Mof_N 	N 	0.76012	0.14796	0.8374	-0.207
Mof_N 	N 	0.68662	0.06924	0.9329	-0.12
Mof_O 	O 	0.90829	0.30135	0.20403	-0.403
Mof_O 	O 	0.99324	0.30997	0.4039	-0.309
Mof_O 	O 	0.25536	0.45239	0.00659	-0.303
Mof_O 	O 	0.63529	0.30562	0.7053	-0.305
Mof_O 	O 	0.71048	0.2726	0.901	-0.408
Mof_O 	O 	0.4015	0.44669	0.13797	-0.306
Mof_Cu	Cu	0.81016	0.26436	0.30468	0.909
Mof_C 	C 	0.98281	0.18217	0.7807	0.363
Mof_C 	C 	0.0595	0.14978	0.7097	-0.203
Mof_C 	C 	0.05251	0.14567	0.5698	0.175
Mof_H 	H 	0.0016	0.1652	0.5185	-0.011
Mof_C 	C 	0.12066	0.11279	0.5056	-0.297
Mof_H 	H 	0.116	0.111	0.4116	0.153
Mof_C 	C 	0.19559	0.08259	0.581	0.324
Mof_C 	C 	0.20605	0.08903	0.7197	-0.307
Mof_H 	H 	0.2587	0.0714	0.7706	0.152
Mof_C 	C 	0.13735	0.12196	0.7828	0.175
Mof_H 	H 	0.1438	0.1254	0.8767	-0.018
Mof_C 	C 	0.8456	0.12208	0.3562	0.017
Mof_H 	H 	0.8044	0.1196	0.4234	0.031
Mof_C 	C 	0.8985	0.07268	0.3154	-0.009
Mof_H 	H 	0.8998	0.0302	0.3476	0.043
Mof_C 	C 	0.9247	0.15956	0.1994	0.088
Mof_H 	H 	0.9484	0.187	0.1364	0.018
Mof_C 	C 	0.0161	0.0605	0.1424	-0.046
Mof_H 	H 	0.0547	0.0324	0.2041	0.049
Mof_H 	H 	0.0582	0.0905	0.1023	0.057
Mof_C 	C 	0.965	0.02109	0.0354	-0.106
Mof_H 	H 	0.9194	0.9934	0.0744	0.067
Mof_H 	H 	0.9303	0.0494	0.9696	0.072
Mof_C 	C 	0.70611	0.36689	0.4343	0.078
Mof_H 	H 	0.6846	0.3372	0.495	0.027
Mof_C 	C 	0.77549	0.40935	0.2718	-0.013
Mof_H 	H 	0.8117	0.4136	0.1992	0.041
Mof_C 	C 	0.73002	0.45872	0.3287	0.037
Mof_C 	C 	0.52931	0.4804	0.4543	-0.108
Mof_H 	H 	0.5363	0.505	0.3726	0.072
Mof_H 	H 	0.496	0.4404	0.4283	0.072
Mof_C 	C 	0.62644	0.46431	0.5234	-0.046
Mof_H 	H 	0.6193	0.4369	0.6013	0.06
Mof_H 	H 	0.6576	0.5042	0.5558	0.049
Mof_C 	C 	0.64509	0.19651	0.3295	0.372
Mof_C 	C 	0.57843	0.15897	0.4096	-0.211
Mof_C 	C 	0.50746	0.12096	0.3444	0.187
Mof_H 	H 	0.5003	0.1195	0.2503	-0.02
Mof_C 	C 	0.4468	0.08503	0.416	-0.311
Mof_H 	H 	0.3992	0.0598	0.3705	0.158
Mof_C 	C 	0.45736	0.08692	0.5554	0.334
Mof_C 	C 	0.52806	0.12465	0.6227	-0.308
Mof_H 	H 	0.5353	0.1258	0.7168	0.156
Mof_C 	C 	0.58763	0.16056	0.5503	0.192
Mof_H 	H 	0.6346	0.1862	0.596	-0.023
Mof_C 	C 	0.33005	0.01243	0.5763	0.264
Mof_H 	H 	0.305	0.9858	0.6451	-0.036
Mof_H 	H 	0.3576	0.9836	0.5135	-0.031
Mof_N 	N 	0.86239	0.17677	0.2825	-0.213
Mof_N 	N 	0.94958	0.0972	0.2179	-0.115
Mof_N 	N 	0.76012	0.35204	0.3374	-0.207
Mof_N 	N 	0.68662	0.43076	0.4329	-0.12
Mof_O 	O 	0.90829	0.19865	0.70403	-0.403
Mof_O 	O 	0.99324	0.19003	0.9039	-0.309
Mof_O 	O 	0.25536	0.04761	0.50659	-0.303
Mof_O 	O 	0.63529	0.19438	0.2053	-0.305
Mof_O 	O 	0.71048	0.2274	0.401	-0.408
Mof_O 	O 	0.4015	0.05331	0.63797	-0.306
Mof_Cu	Cu	0.18983	0.76436	0.19532	0.909
Mof_C 	C 	0.01719	0.68217	0.7193	0.361
Mof_C 	C 	0.9405	0.64978	0.7903	-0.2
Mof_C 	C 	0.94749	0.64567	0.9302	0.173
Mof_H 	H 	0.9984	0.6652	0.9815	-0.009
Mof_C 	C 	0.87934	0.61279	0.9944	-0.294
Mof_H 	H 	0.884	0.611	0.0884	0.151
Mof_C 	C 	0.80441	0.58259	0.919	0.323
Mof_C 	C 	0.79395	0.58903	0.7803	-0.306
Mof_H 	H 	0.7413	0.5714	0.7294	0.152
Mof_C 	C 	0.86265	0.62196	0.7172	0.173
Mof_H 	H 	0.8562	0.6254	0.6233	-0.017
Mof_C 	C 	0.1544	0.62208	0.1438	0.017
Mof_H 	H 	0.1956	0.6196	0.0766	0.031
Mof_C 	C 	0.1015	0.57268	0.1846	-0.009
Mof_H 	H 	0.1002	0.5302	0.1524	0.043
Mof_C 	C 	0.0753	0.65956	0.3006	0.088
Mof_H 	H 	0.0516	0.687	0.3636	0.018
Mof_C 	C 	0.9839	0.5605	0.3576	-0.046
Mof_H 	H 	0.9453	0.5324	0.2959	0.049
Mof_H 	H 	0.9418	0.5905	0.3977	0.057
Mof_C 	C 	0.035	0.52109	0.4646	-0.107
Mof_H 	H 	0.0806	0.4934	0.4256	0.069
Mof_H 	H 	0.0697	0.5494	0.5304	0.072
Mof_C 	C 	0.29389	0.86689	0.0657	0.078
Mof_H 	H 	0.3154	0.8372	0.005	0.026
Mof_C 	C 	0.22451	0.90935	0.2282	-0.013
Mof_H 	H 	0.1883	0.9136	0.3008	0.041
Mof_C 	C 	0.26998	0.95872	0.1713	0.037
Mof_C 	C 	0.47069	0.9804	0.0457	-0.109
Mof_H 	H 	0.4637	0.005	0.1274	0.073
Mof_H 	H 	0.504	0.9404	0.0717	0.073
Mof_C 	C 	0.37356	0.96431	0.9766	-0.045
Mof_H 	H 	0.3807	0.9369	0.8987	0.06
Mof_H 	H 	0.3424	0.0042	0.9442	0.049
Mof_C 	C 	0.35491	0.69651	0.1705	0.372
Mof_C 	C 	0.42157	0.65897	0.0904	-0.211
Mof_C 	C 	0.49254	0.62096	0.1556	0.187
Mof_H 	H 	0.4997	0.6195	0.2497	-0.021
Mof_C 	C 	0.5532	0.58503	0.084	-0.312
Mof_H 	H 	0.6008	0.5598	0.1295	0.158
Mof_C 	C 	0.54264	0.58692	0.9446	0.334
Mof_C 	C 	0.47194	0.62465	0.8773	-0.308
Mof_H 	H 	0.4647	0.6258	0.7832	0.156
Mof_C 	C 	0.41237	0.66056	0.9497	0.192
Mof_H 	H 	0.3654	0.6862	0.904	-0.023
Mof_C 	C 	0.66995	0.51243	0.9237	0.265
Mof_H 	H 	0.695	0.4858	0.8549	-0.037
Mof_H 	H 	0.6424	0.4836	0.9865	-0.032
Mof_N 	N 	0.13761	0.67677	0.2175	-0.213
Mof_N 	N 	0.05042	0.5972	0.2821	-0.115
Mof_N 	N 	0.23988	0.85204	0.1626	-0.207
Mof_N 	N 	0.31338	0.93076	0.0671	-0.12
Mof_O 	O 	0.09171	0.69865	0.79597	-0.403
Mof_O 	O 	0.00676	0.69003	0.5961	-0.309
Mof_O 	O 	0.74464	0.54761	0.99341	-0.303
Mof_O 	O 	0.36471	0.69438	0.2947	-0.305
Mof_O 	O 	0.28952	0.7274	0.099	-0.408
Mof_O 	O 	0.5985	0.55331	0.86203	-0.306
_end
