data_functionalizedCrystal
_audit_creation_method	'EQeq! by Chris Wilmer'
_symmetry_space_group_name_H-M	'P1'
_symmetry_Int_Tables_number	1
_symmetry_cell_setting	triclinic
loop_
_symmetry_equiv_pos_as_xyz
  x,y,z
_cell_length_a	11.883
_cell_length_b	11.883
_cell_length_c	18.066
_cell_angle_alpha	90
_cell_angle_beta	90
_cell_angle_gamma	120
loop_
_atom_site_label
_atom_site_type_symbol
_atom_site_fract_x
_atom_site_fract_y
_atom_site_fract_z
_atom_site_charge
Mof_U 	U 	0.85652	0.44224	0.95772	0.023
Mof_U 	U 	0.58572	0.14348	0.62439	0.023
Mof_U 	U 	0.55776	0.41428	0.29106	0.023
Mof_U 	U 	0.41428	0.55776	0.04228	0.022
Mof_U 	U 	0.44224	0.85652	0.37561	0.022
Mof_U 	U 	0.14348	0.58572	0.70894	0.022
Mof_P 	P 	0.5129	0.3369	0.96886	0.445
Mof_P 	P 	0.6612	0.4854	0.09944	0.446
Mof_P 	P 	0.824	0.4871	0.63553	0.445
Mof_P 	P 	0.8242	0.3388	0.76611	0.446
Mof_P 	P 	0.6631	0.176	0.30219	0.445
Mof_P 	P 	0.5146	0.1758	0.43277	0.446
Mof_P 	P 	0.176	0.6631	0.03114	0.445
Mof_P 	P 	0.1758	0.5146	0.90056	0.446
Mof_P 	P 	0.3369	0.5129	0.36447	0.445
Mof_P 	P 	0.4854	0.6612	0.23389	0.446
Mof_P 	P 	0.4871	0.824	0.69781	0.445
Mof_P 	P 	0.3388	0.8242	0.56723	0.446
Mof_H 	H 	0.4627	0.2959	0.0946	0.181
Mof_H 	H 	0.5773	0.2677	0.0734	0.186
Mof_H 	H 	0.8332	0.5373	0.76127	0.181
Mof_H 	H 	0.6904	0.4227	0.74007	0.186
Mof_H 	H 	0.7041	0.1668	0.42793	0.181
Mof_H 	H 	0.7323	0.3096	0.40673	0.186
Mof_H 	H 	0.1668	0.7041	0.9054	0.181
Mof_H 	H 	0.3096	0.7323	0.9266	0.186
Mof_H 	H 	0.2959	0.4627	0.23873	0.181
Mof_H 	H 	0.2677	0.5773	0.25993	0.186
Mof_H 	H 	0.5373	0.8332	0.57207	0.181
Mof_H 	H 	0.4227	0.6904	0.59327	0.186
Mof_C 	C 	0.5444	0.3287	0.0662	-0.361
Mof_C 	C 	0.7843	0.4556	0.73287	-0.361
Mof_C 	C 	0.6713	0.2157	0.39953	-0.361
Mof_C 	C 	0.2157	0.6713	0.9338	-0.361
Mof_C 	C 	0.3287	0.5444	0.26713	-0.361
Mof_C 	C 	0.4556	0.7843	0.60047	-0.361
Mof_O 	O 	0.7882	0.5229	0.0592	-0.146
Mof_O 	O 	0.6855	0.4791	0.182	-0.148
Mof_O 	O 	0.6134	0.579	0.0819	-0.152
Mof_O 	O 	0.4645	0.4334	0.9604	-0.148
Mof_O 	O 	0.6435	0.3874	0.9306	-0.16
Mof_O 	O 	0.4152	0.2038	0.9401	-0.165
Mof_O 	O 	0.7347	0.2118	0.72587	-0.146
Mof_O 	O 	0.7936	0.3145	0.84867	-0.148
Mof_O 	O 	0.9656	0.3866	0.74857	-0.152
Mof_O 	O 	0.9689	0.5355	0.62707	-0.149
Mof_O 	O 	0.7439	0.3565	0.59727	-0.16
Mof_O 	O 	0.7886	0.5848	0.60677	-0.165
Mof_O 	O 	0.4771	0.2653	0.39253	-0.146
Mof_O 	O 	0.5209	0.2064	0.51533	-0.148
Mof_O 	O 	0.421	0.0344	0.41523	-0.152
Mof_O 	O 	0.5666	0.0311	0.29373	-0.149
Mof_O 	O 	0.6126	0.2561	0.26393	-0.16
Mof_O 	O 	0.7962	0.2114	0.27343	-0.165
Mof_O 	O 	0.2653	0.4771	0.9408	-0.146
Mof_O 	O 	0.2064	0.5209	0.818	-0.148
Mof_O 	O 	0.0344	0.421	0.9181	-0.152
Mof_O 	O 	0.0311	0.5666	0.0396	-0.149
Mof_O 	O 	0.2561	0.6126	0.0694	-0.16
Mof_O 	O 	0.2114	0.7962	0.0599	-0.165
Mof_O 	O 	0.5229	0.7882	0.27413	-0.146
Mof_O 	O 	0.4791	0.6855	0.15133	-0.148
Mof_O 	O 	0.579	0.6134	0.25143	-0.152
Mof_O 	O 	0.4334	0.4645	0.37293	-0.148
Mof_O 	O 	0.3874	0.6435	0.40273	-0.16
Mof_O 	O 	0.2038	0.4152	0.39323	-0.165
Mof_O 	O 	0.2118	0.7347	0.60747	-0.146
Mof_O 	O 	0.3145	0.7936	0.48467	-0.148
Mof_O 	O 	0.3866	0.9656	0.58477	-0.152
Mof_O 	O 	0.5355	0.9689	0.70627	-0.148
Mof_O 	O 	0.3565	0.7439	0.73607	-0.16
Mof_O 	O 	0.5848	0.7886	0.72657	-0.165
_end
