# CIF file generated by openbabel 3.1.0, see https://openbabel.org
data_I
_chemical_name_common 'image0'
_cell_length_a 15.884
_cell_length_b 15.884
_cell_length_c 21.44
_cell_angle_alpha 90
_cell_angle_beta 90
_cell_angle_gamma 90
_space_group_name_H-M_alt 'P 1'
_space_group_name_Hall 'P 1'
loop_
    _symmetry_equiv_pos_as_xyz
    x,y,z
loop_
    _atom_site_label
    _atom_site_type_symbol
    _atom_site_fract_x
    _atom_site_fract_y
    _atom_site_fract_z
    _atom_site_occupancy
    C1       C        0.93170    0.80260    0.80990    1.000
    H1       H        0.93970    0.84140    0.84190    1.000
    C2       C        0.87480    0.73890    0.81930    1.000
    H2       H        0.84650    0.73510    0.85720    1.000
    C3       C        0.85900    0.68020    0.77290    1.000
    C4       C        0.90750    0.68870    0.71940    1.000
    H3       H        0.90220    0.64980    0.68720    1.000
    C5       C        0.96410    0.75530    0.71390    1.000
    H4       H        0.99510    0.75970    0.67720    1.000
    C6       C        0.79380    0.61440    0.77860    1.000
    C7       C        0.79260    0.54270    0.74120    1.000
    H5       H        0.83460    0.53520    0.71150    1.000
    C8       C        0.73040    0.48270    0.74740    1.000
    H6       H        0.73350    0.43340    0.72420    1.000
    C9       C        0.66380    0.49510    0.78740    1.000
    H7       H        0.62070    0.45560    0.79000    1.000
    C10      C        0.66160    0.56720    0.82370    1.000
    C11      C        0.72580    0.62580    0.81940    1.000
    H8       H        0.72370    0.67390    0.84420    1.000
    C12      C        0.59210    0.57560    0.86810    1.000
    C13      C        0.49520    0.62570    0.93100    1.000
    C14      C        0.44000    0.68830    0.96120    1.000
    C15      C        0.45850    0.72000    0.02050    1.000
    H9       H        0.50640    0.70260    0.04180    1.000
    C16      C        0.40360    0.77830    0.04690    1.000
    H10      H        0.41360    0.79820    0.08700    1.000
    C17      C        0.33380    0.80720    0.01380    1.000
    H11      H        0.29810    0.84670    0.03190    1.000
    C18      C        0.31700    0.77840    0.95500    1.000
    C19      C        0.37120    0.71630    0.92930    1.000
    H12      H        0.35950    0.69430    0.89010    1.000
    C20      C        0.24550    0.80880    0.91710    1.000
    C21      C        0.20180    0.88310    0.93040    1.000
    H13      H        0.21420    0.91280    0.96670    1.000
    C22      C        0.14080    0.91290    0.89060    1.000
    H14      H        0.11290    0.96250    0.90090    1.000
    C23      C        0.15630    0.79980    0.82690    1.000
    H15      H        0.13960    0.76980    0.79170    1.000
    C24      C        0.21660    0.76530    0.86410    1.000
    H16      H        0.23890    0.71280    0.85440    1.000
    N1       N        0.49310    0.54420    0.93350    1.000
    N2       N        0.55350    0.51140    0.89410    1.000
    N3       N        0.55670    0.64900    0.89020    1.000
    N4       N        0.57730    0.73050    0.87000    1.000
    H17      H        0.53300    0.75310    0.85090    1.000
    H18      H        0.59110    0.76190    0.90290    1.000
    N5       N        0.97630    0.81240    0.75770    1.000
    N6       N        0.11990    0.87370    0.83780    1.000
    C25      C        0.06830    0.19740    0.30990    1.000
    H19      H        0.06030    0.15860    0.34190    1.000
    C26      C        0.12520    0.26110    0.31930    1.000
    H20      H        0.15350    0.26490    0.35720    1.000
    C27      C        0.14100    0.31980    0.27290    1.000
    C28      C        0.09250    0.31130    0.21940    1.000
    H21      H        0.09780    0.35020    0.18720    1.000
    C29      C        0.03590    0.24470    0.21390    1.000
    H22      H        0.00490    0.24030    0.17720    1.000
    C30      C        0.20620    0.38560    0.27860    1.000
    C31      C        0.20740    0.45730    0.24120    1.000
    H23      H        0.16540    0.46480    0.21150    1.000
    C32      C        0.26960    0.51730    0.24740    1.000
    H24      H        0.26650    0.56660    0.22420    1.000
    C33      C        0.33620    0.50490    0.28740    1.000
    H25      H        0.37930    0.54440    0.29000    1.000
    C34      C        0.33840    0.43280    0.32370    1.000
    C35      C        0.27420    0.37420    0.31940    1.000
    H26      H        0.27630    0.32610    0.34420    1.000
    C36      C        0.40790    0.42440    0.36810    1.000
    C37      C        0.50480    0.37430    0.43100    1.000
    C38      C        0.56000    0.31170    0.46120    1.000
    C39      C        0.54150    0.28000    0.52050    1.000
    H27      H        0.49360    0.29740    0.54180    1.000
    C40      C        0.59640    0.22170    0.54690    1.000
    H28      H        0.58640    0.20180    0.58700    1.000
    C41      C        0.66620    0.19280    0.51380    1.000
    H29      H        0.70190    0.15330    0.53190    1.000
    C42      C        0.68300    0.22160    0.45500    1.000
    C43      C        0.62880    0.28370    0.42930    1.000
    H30      H        0.64050    0.30570    0.39010    1.000
    C44      C        0.75450    0.19120    0.41710    1.000
    C45      C        0.79820    0.11690    0.43040    1.000
    H31      H        0.78580    0.08720    0.46670    1.000
    C46      C        0.85920    0.08710    0.39060    1.000
    H32      H        0.88710    0.03750    0.40090    1.000
    C47      C        0.84370    0.20020    0.32690    1.000
    H33      H        0.86040    0.23020    0.29170    1.000
    C48      C        0.78340    0.23470    0.36410    1.000
    H34      H        0.76110    0.28720    0.35440    1.000
    N7       N        0.50690    0.45580    0.43350    1.000
    N8       N        0.44650    0.48860    0.39410    1.000
    N9       N        0.44330    0.35100    0.39020    1.000
    N10      N        0.42270    0.26950    0.37000    1.000
    H35      H        0.46700    0.24690    0.35090    1.000
    H36      H        0.40890    0.23810    0.40290    1.000
    N11      N        0.02370    0.18760    0.25770    1.000
    N12      N        0.88010    0.12630    0.33780    1.000
    C49      C        0.69740    0.43170    0.55990    1.000
    H37      H        0.65860    0.43970    0.59190    1.000
    C50      C        0.76110    0.37480    0.56930    1.000
    H38      H        0.76490    0.34650    0.60720    1.000
    C51      C        0.81980    0.35900    0.52290    1.000
    C52      C        0.81130    0.40750    0.46940    1.000
    H39      H        0.85020    0.40220    0.43720    1.000
    C53      C        0.74470    0.46410    0.46390    1.000
    H40      H        0.74030    0.49510    0.42720    1.000
    C54      C        0.88560    0.29380    0.52860    1.000
    C55      C        0.95730    0.29260    0.49120    1.000
    H41      H        0.96480    0.33460    0.46150    1.000
    C56      C        0.01730    0.23040    0.49740    1.000
    H42      H        0.06660    0.23350    0.47420    1.000
    C57      C        0.00490    0.16380    0.53740    1.000
    H43      H        0.04440    0.12070    0.54000    1.000
    C58      C        0.93280    0.16160    0.57370    1.000
    C59      C        0.87420    0.22580    0.56940    1.000
    H44      H        0.82610    0.22370    0.59420    1.000
    C60      C        0.92440    0.09210    0.61810    1.000
    C61      C        0.87430    0.99520    0.68100    1.000
    C62      C        0.81170    0.94000    0.71120    1.000
    C63      C        0.78000    0.95850    0.77050    1.000
    H45      H        0.79740    0.00640    0.79180    1.000
    C64      C        0.72170    0.90360    0.79690    1.000
    H46      H        0.70180    0.91360    0.83700    1.000
    C65      C        0.69280    0.83380    0.76380    1.000
    H47      H        0.65330    0.79810    0.78190    1.000
    C66      C        0.72160    0.81700    0.70500    1.000
    C67      C        0.78370    0.87120    0.67930    1.000
    H48      H        0.80570    0.85950    0.64010    1.000
    C68      C        0.69120    0.74550    0.66710    1.000
    C69      C        0.61690    0.70180    0.68040    1.000
    H49      H        0.58720    0.71420    0.71670    1.000
    C70      C        0.58710    0.64080    0.64060    1.000
    H50      H        0.53750    0.61290    0.65090    1.000
    C71      C        0.70020    0.65630    0.57690    1.000
    H51      H        0.73020    0.63960    0.54170    1.000
    C72      C        0.73470    0.71660    0.61410    1.000
    H52      H        0.78720    0.73890    0.60440    1.000
    N13      N        0.95580    0.99310    0.68350    1.000
    N14      N        0.98860    0.05350    0.64410    1.000
    N15      N        0.85100    0.05670    0.64020    1.000
    N16      N        0.76950    0.07730    0.62000    1.000
    H53      H        0.74690    0.03300    0.60090    1.000
    H54      H        0.73810    0.09110    0.65290    1.000
    N17      N        0.68760    0.47630    0.50770    1.000
    N18      N        0.62630    0.61990    0.58780    1.000
    C73      C        0.30260    0.56830    0.05990    1.000
    H55      H        0.34140    0.56030    0.09190    1.000
    C74      C        0.23890    0.62520    0.06930    1.000
    H56      H        0.23510    0.65350    0.10720    1.000
    C75      C        0.18020    0.64100    0.02290    1.000
    C76      C        0.18870    0.59250    0.96940    1.000
    H57      H        0.14980    0.59780    0.93720    1.000
    C77      C        0.25530    0.53590    0.96390    1.000
    H58      H        0.25970    0.50490    0.92720    1.000
    C78      C        0.11440    0.70620    0.02860    1.000
    C79      C        0.04270    0.70740    0.99120    1.000
    H59      H        0.03520    0.66540    0.96150    1.000
    C80      C        0.98270    0.76960    0.99740    1.000
    H60      H        0.93340    0.76650    0.97420    1.000
    C81      C        0.99510    0.83620    0.03740    1.000
    H61      H        0.95560    0.87930    0.04000    1.000
    C82      C        0.06720    0.83840    0.07370    1.000
    C83      C        0.12580    0.77420    0.06940    1.000
    H62      H        0.17390    0.77630    0.09420    1.000
    C84      C        0.07560    0.90790    0.11810    1.000
    C85      C        0.12570    0.00480    0.18100    1.000
    C86      C        0.18830    0.06000    0.21120    1.000
    C87      C        0.22000    0.04150    0.27050    1.000
    H63      H        0.20260    0.99360    0.29180    1.000
    C88      C        0.27830    0.09640    0.29690    1.000
    H64      H        0.29820    0.08640    0.33700    1.000
    C89      C        0.30720    0.16620    0.26380    1.000
    H65      H        0.34670    0.20190    0.28190    1.000
    C90      C        0.27840    0.18300    0.20500    1.000
    C91      C        0.21630    0.12880    0.17930    1.000
    H66      H        0.19430    0.14050    0.14010    1.000
    C92      C        0.30880    0.25450    0.16710    1.000
    C93      C        0.38310    0.29820    0.18040    1.000
    H67      H        0.41280    0.28580    0.21670    1.000
    C94      C        0.41290    0.35920    0.14060    1.000
    H68      H        0.46250    0.38710    0.15090    1.000
    C95      C        0.29980    0.34370    0.07690    1.000
    H69      H        0.26980    0.36040    0.04170    1.000
    C96      C        0.26530    0.28340    0.11410    1.000
    H70      H        0.21280    0.26110    0.10440    1.000
    N19      N        0.04420    0.00690    0.18350    1.000
    N20      N        0.01140    0.94650    0.14410    1.000
    N21      N        0.14900    0.94330    0.14020    1.000
    N22      N        0.23050    0.92270    0.12000    1.000
    H71      H        0.25310    0.96700    0.10090    1.000
    H72      H        0.26190    0.90890    0.15290    1.000
    N23      N        0.31240    0.52370    0.00770    1.000
    N24      N        0.37370    0.38010    0.08780    1.000
    C97      C        0.56830    0.30260    0.94010    1.000
    H73      H        0.56030    0.34140    0.90810    1.000
    C98      C        0.62520    0.23890    0.93070    1.000
    H74      H        0.65350    0.23510    0.89280    1.000
    C99      C        0.64100    0.18020    0.97710    1.000
    C100     C        0.59250    0.18870    0.03060    1.000
    H75      H        0.59780    0.14980    0.06280    1.000
    C101     C        0.53590    0.25530    0.03610    1.000
    H76      H        0.50490    0.25970    0.07280    1.000
    C102     C        0.70620    0.11440    0.97140    1.000
    C103     C        0.70740    0.04270    0.00880    1.000
    H77      H        0.66540    0.03520    0.03850    1.000
    C104     C        0.76960    0.98270    0.00260    1.000
    H78      H        0.76650    0.93340    0.02580    1.000
    C105     C        0.83620    0.99510    0.96260    1.000
    H79      H        0.87930    0.95560    0.96000    1.000
    C106     C        0.83840    0.06720    0.92630    1.000
    C107     C        0.77420    0.12580    0.93060    1.000
    H80      H        0.77630    0.17390    0.90580    1.000
    C108     C        0.90790    0.07560    0.88190    1.000
    C109     C        0.00480    0.12570    0.81900    1.000
    C110     C        0.06000    0.18830    0.78880    1.000
    C111     C        0.04150    0.22000    0.72950    1.000
    H81      H        0.99360    0.20260    0.70820    1.000
    C112     C        0.09640    0.27830    0.70310    1.000
    H82      H        0.08640    0.29820    0.66300    1.000
    C113     C        0.16620    0.30720    0.73620    1.000
    H83      H        0.20190    0.34670    0.71810    1.000
    C114     C        0.18300    0.27840    0.79500    1.000
    C115     C        0.12880    0.21630    0.82070    1.000
    H84      H        0.14050    0.19430    0.85990    1.000
    C116     C        0.25450    0.30880    0.83290    1.000
    C117     C        0.29820    0.38310    0.81960    1.000
    H85      H        0.28580    0.41280    0.78330    1.000
    C118     C        0.35920    0.41290    0.85940    1.000
    H86      H        0.38710    0.46250    0.84910    1.000
    C119     C        0.34370    0.29980    0.92310    1.000
    H87      H        0.36040    0.26980    0.95830    1.000
    C120     C        0.28340    0.26530    0.88590    1.000
    H88      H        0.26110    0.21280    0.89560    1.000
    N25      N        0.00690    0.04420    0.81650    1.000
    N26      N        0.94650    0.01140    0.85590    1.000
    N27      N        0.94330    0.14900    0.85980    1.000
    N28      N        0.92270    0.23050    0.88000    1.000
    H89      H        0.96700    0.25310    0.89910    1.000
    H90      H        0.90890    0.26190    0.84710    1.000
    N29      N        0.52370    0.31240    0.99230    1.000
    N30      N        0.38010    0.37370    0.91220    1.000
    C121     C        0.43170    0.69740    0.44010    1.000
    H91      H        0.43970    0.65860    0.40810    1.000
    C122     C        0.37480    0.76110    0.43070    1.000
    H92      H        0.34650    0.76490    0.39280    1.000
    C123     C        0.35900    0.81980    0.47710    1.000
    C124     C        0.40750    0.81130    0.53060    1.000
    H93      H        0.40220    0.85020    0.56280    1.000
    C125     C        0.46410    0.74470    0.53610    1.000
    H94      H        0.49510    0.74030    0.57280    1.000
    C126     C        0.29380    0.88560    0.47140    1.000
    C127     C        0.29260    0.95730    0.50880    1.000
    H95      H        0.33460    0.96480    0.53850    1.000
    C128     C        0.23040    0.01730    0.50260    1.000
    H96      H        0.23350    0.06660    0.52580    1.000
    C129     C        0.16380    0.00490    0.46260    1.000
    H97      H        0.12070    0.04440    0.46000    1.000
    C130     C        0.16160    0.93280    0.42630    1.000
    C131     C        0.22580    0.87420    0.43060    1.000
    H98      H        0.22370    0.82610    0.40580    1.000
    C132     C        0.09210    0.92440    0.38190    1.000
    C133     C        0.99520    0.87430    0.31900    1.000
    C134     C        0.94000    0.81170    0.28880    1.000
    C135     C        0.95850    0.78000    0.22950    1.000
    H99      H        0.00640    0.79740    0.20820    1.000
    C136     C        0.90360    0.72170    0.20310    1.000
    H100     H        0.91360    0.70180    0.16300    1.000
    C137     C        0.83380    0.69280    0.23620    1.000
    H101     H        0.79810    0.65330    0.21810    1.000
    C138     C        0.81700    0.72160    0.29500    1.000
    C139     C        0.87120    0.78370    0.32070    1.000
    H102     H        0.85950    0.80570    0.35990    1.000
    C140     C        0.74550    0.69120    0.33290    1.000
    C141     C        0.70180    0.61690    0.31960    1.000
    H103     H        0.71420    0.58720    0.28330    1.000
    C142     C        0.64080    0.58710    0.35940    1.000
    H104     H        0.61290    0.53750    0.34910    1.000
    C143     C        0.65630    0.70020    0.42310    1.000
    H105     H        0.63960    0.73020    0.45830    1.000
    C144     C        0.71660    0.73470    0.38590    1.000
    H106     H        0.73890    0.78720    0.39560    1.000
    N31      N        0.99310    0.95580    0.31650    1.000
    N32      N        0.05350    0.98860    0.35590    1.000
    N33      N        0.05670    0.85100    0.35980    1.000
    N34      N        0.07730    0.76950    0.38000    1.000
    H107     H        0.03300    0.74690    0.39910    1.000
    H108     H        0.09110    0.73810    0.34710    1.000
    N35      N        0.47630    0.68760    0.49230    1.000
    N36      N        0.61990    0.62630    0.41220    1.000
    C145     C        0.80260    0.93170    0.19010    1.000
    H109     H        0.84140    0.93970    0.15810    1.000
    C146     C        0.73890    0.87480    0.18070    1.000
    H110     H        0.73510    0.84650    0.14280    1.000
    C147     C        0.68020    0.85900    0.22710    1.000
    C148     C        0.68870    0.90750    0.28060    1.000
    H111     H        0.64980    0.90220    0.31280    1.000
    C149     C        0.75530    0.96410    0.28610    1.000
    H112     H        0.75970    0.99510    0.32280    1.000
    C150     C        0.61440    0.79380    0.22140    1.000
    C151     C        0.54270    0.79260    0.25880    1.000
    H113     H        0.53520    0.83460    0.28850    1.000
    C152     C        0.48270    0.73040    0.25260    1.000
    H114     H        0.43340    0.73350    0.27580    1.000
    C153     C        0.49510    0.66380    0.21260    1.000
    H115     H        0.45560    0.62070    0.21000    1.000
    C154     C        0.56720    0.66160    0.17630    1.000
    C155     C        0.62580    0.72580    0.18060    1.000
    H116     H        0.67390    0.72370    0.15580    1.000
    C156     C        0.57560    0.59210    0.13190    1.000
    C157     C        0.62570    0.49520    0.06900    1.000
    C158     C        0.68830    0.44000    0.03880    1.000
    C159     C        0.72000    0.45850    0.97950    1.000
    H117     H        0.70260    0.50640    0.95820    1.000
    C160     C        0.77830    0.40360    0.95310    1.000
    H118     H        0.79820    0.41360    0.91300    1.000
    C161     C        0.80720    0.33380    0.98620    1.000
    H119     H        0.84670    0.29810    0.96810    1.000
    C162     C        0.77840    0.31700    0.04500    1.000
    C163     C        0.71630    0.37120    0.07070    1.000
    H120     H        0.69430    0.35950    0.10990    1.000
    C164     C        0.80880    0.24550    0.08290    1.000
    C165     C        0.88310    0.20180    0.06960    1.000
    H121     H        0.91280    0.21420    0.03330    1.000
    C166     C        0.91290    0.14080    0.10940    1.000
    H122     H        0.96250    0.11290    0.09910    1.000
    C167     C        0.79980    0.15630    0.17310    1.000
    H123     H        0.76980    0.13960    0.20830    1.000
    C168     C        0.76530    0.21660    0.13590    1.000
    H124     H        0.71280    0.23890    0.14560    1.000
    N37      N        0.54420    0.49310    0.06650    1.000
    N38      N        0.51140    0.55350    0.10590    1.000
    N39      N        0.64900    0.55670    0.10980    1.000
    N40      N        0.73050    0.57730    0.13000    1.000
    H125     H        0.75310    0.53300    0.14910    1.000
    H126     H        0.76190    0.59110    0.09710    1.000
    N41      N        0.81240    0.97630    0.24230    1.000
    N42      N        0.87370    0.11990    0.16220    1.000
    C169     C        0.19740    0.06830    0.69010    1.000
    H127     H        0.15860    0.06030    0.65810    1.000
    C170     C        0.26110    0.12520    0.68070    1.000
    H128     H        0.26490    0.15350    0.64280    1.000
    C171     C        0.31980    0.14100    0.72710    1.000
    C172     C        0.31130    0.09250    0.78060    1.000
    H129     H        0.35020    0.09780    0.81280    1.000
    C173     C        0.24470    0.03590    0.78610    1.000
    H130     H        0.24030    0.00490    0.82280    1.000
    C174     C        0.38560    0.20620    0.72140    1.000
    C175     C        0.45730    0.20740    0.75880    1.000
    H131     H        0.46480    0.16540    0.78850    1.000
    C176     C        0.51730    0.26960    0.75260    1.000
    H132     H        0.56660    0.26650    0.77580    1.000
    C177     C        0.50490    0.33620    0.71260    1.000
    H133     H        0.54440    0.37930    0.71000    1.000
    C178     C        0.43280    0.33840    0.67630    1.000
    C179     C        0.37420    0.27420    0.68060    1.000
    H134     H        0.32610    0.27630    0.65580    1.000
    C180     C        0.42440    0.40790    0.63190    1.000
    C181     C        0.37430    0.50480    0.56900    1.000
    C182     C        0.31170    0.56000    0.53880    1.000
    C183     C        0.28000    0.54150    0.47950    1.000
    H135     H        0.29740    0.49360    0.45820    1.000
    C184     C        0.22170    0.59640    0.45310    1.000
    H136     H        0.20180    0.58640    0.41300    1.000
    C185     C        0.19280    0.66620    0.48620    1.000
    H137     H        0.15330    0.70190    0.46810    1.000
    C186     C        0.22160    0.68300    0.54500    1.000
    C187     C        0.28370    0.62880    0.57070    1.000
    H138     H        0.30570    0.64050    0.60990    1.000
    C188     C        0.19120    0.75450    0.58290    1.000
    C189     C        0.11690    0.79820    0.56960    1.000
    H139     H        0.08720    0.78580    0.53330    1.000
    C190     C        0.08710    0.85920    0.60940    1.000
    H140     H        0.03750    0.88710    0.59910    1.000
    C191     C        0.20020    0.84370    0.67310    1.000
    H141     H        0.23020    0.86040    0.70830    1.000
    C192     C        0.23470    0.78340    0.63590    1.000
    H142     H        0.28720    0.76110    0.64560    1.000
    N43      N        0.45580    0.50690    0.56650    1.000
    N44      N        0.48860    0.44650    0.60590    1.000
    N45      N        0.35100    0.44330    0.60980    1.000
    N46      N        0.26950    0.42270    0.63000    1.000
    H143     H        0.24690    0.46700    0.64910    1.000
    H144     H        0.23810    0.40890    0.59710    1.000
    N47      N        0.18760    0.02370    0.74230    1.000
    N48      N        0.12630    0.88010    0.66220    1.000
    Cd1      Cd       0.44041    0.44041    0.00000    1.000
    Cd2      Cd       0.55959    0.55959    0.50000    1.000
    Cd3      Cd       0.05959    0.94041    0.75000    1.000
    Cd4      Cd       0.94041    0.05959    0.25000    1.000
