data_functionalizedCrystal
_audit_creation_method	'EQeq! by Chris Wilmer'
_symmetry_space_group_name_H-M	'P1'
_symmetry_Int_Tables_number	1
_symmetry_cell_setting	triclinic
loop_
_symmetry_equiv_pos_as_xyz
  x,y,z
_cell_length_a	33.657
_cell_length_b	14.2909
_cell_length_c	12.8304
_cell_angle_alpha	90
_cell_angle_beta	124.037
_cell_angle_gamma	90
loop_
_atom_site_label
_atom_site_type_symbol
_atom_site_fract_x
_atom_site_fract_y
_atom_site_fract_z
_atom_site_charge
Mof_Ce	Ce	0.82007	0.28812	0.0776	2.745
Mof_O 	O 	0.39482	0.831	0.2903	-0.517
Mof_O 	O 	0.38564	0.6817	0.241	-0.484
Mof_O 	O 	0.73112	0.3513	0.995	-0.723
Mof_O 	O 	0.79363	0.4388	0.1227	-0.571
Mof_O 	O 	0.77065	0.6869	0.3515	-0.637
Mof_O 	O 	0.69836	0.7509	0.267	-0.59
Mof_O 	O 	0.8508	0.1911	0.9695	-0.498
Mof_C 	C 	0.40797	0.7484	0.3187	0.342
Mof_C 	C 	0.45025	0.725	0.4472	-0.145
Mof_C 	C 	0.46344	0.6334	0.4843	0.06
Mof_H 	H 	0.4445	0.5851	0.4306	-0.007
Mof_C 	C 	0.5046	0.6124	0.6008	-0.176
Mof_H 	H 	0.5131	0.5504	0.6255	0.075
Mof_C 	C 	0.53309	0.6852	0.6807	0.07
Mof_C 	C 	0.5188	0.7763	0.6444	-0.176
Mof_H 	H 	0.5377	0.8249	0.6976	0.068
Mof_C 	C 	0.4773	0.7967	0.5311	0.055
Mof_H 	H 	0.4671	0.8584	0.5103	0.001
Mof_C 	C 	0.57811	0.6668	0.7997	-0.069
Mof_C 	C 	0.74947	0.4256	0.0591	0.475
Mof_C 	C 	0.71751	0.4995	0.0566	-0.191
Mof_C 	C 	0.67027	0.5061	0.9554	0.008
Mof_H 	H 	0.6575	0.4626	0.8904	0.018
Mof_C 	C 	0.64207	0.5787	0.952	-0.012
Mof_C 	C 	0.66014	0.6388	0.0541	0.008
Mof_H 	H 	0.6407	0.6849	0.0543	0.032
Mof_C 	C 	0.70752	0.6297	0.1559	-0.201
Mof_C 	C 	0.73572	0.5617	0.1552	0.109
Mof_H 	H 	0.7677	0.5571	0.2222	-0.015
Mof_C 	C 	0.72746	0.6946	0.2681	0.534
Mof_C 	C 	0.88	0.1767	0.947	1.202
Mof_C 	C 	0.8786	0.0882	0.8821	-1.848
Mof_H 	H 	0.8876	0.1015	0.8247	0.57
Mof_H 	H 	0.8467	0.0629	0.8365	0.574
Mof_H 	H 	0.9005	0.0436	0.9435	0.578
Mof_C 	C 	0.9276	0.2235	0.9984	-1.668
Mof_H 	H 	0.9413	0.2005	0.9546	0.512
Mof_H 	H 	0.9489	0.2098	0.0864	0.505
Mof_H 	H 	0.9231	0.2899	0.9867	0.494
Mof_N 	N 	0.59441	0.5864	0.8406	-0.123
Mof_H 	H 	0.592	0.722	0.846	0.044
Mof_O 	O 	0.8708	0.2234	0.0133	-0.413
Mof_Ce	Ce	0.32007	0.78812	0.0776	2.742
Mof_O 	O 	0.89482	0.331	0.2903	-0.518
Mof_O 	O 	0.88564	0.1817	0.241	-0.485
Mof_O 	O 	0.23112	0.8513	0.995	-0.723
Mof_O 	O 	0.29363	0.9388	0.1227	-0.572
Mof_O 	O 	0.27065	0.1869	0.3515	-0.638
Mof_O 	O 	0.19836	0.2509	0.267	-0.591
Mof_O 	O 	0.3508	0.6911	0.9695	-0.495
Mof_C 	C 	0.90797	0.2484	0.3187	0.341
Mof_C 	C 	0.95025	0.225	0.4472	-0.146
Mof_C 	C 	0.96344	0.1334	0.4843	0.058
Mof_H 	H 	0.9445	0.0851	0.4306	-0.008
Mof_C 	C 	0.0046	0.1124	0.6008	-0.176
Mof_H 	H 	0.0131	0.0504	0.6255	0.074
Mof_C 	C 	0.03309	0.1852	0.6807	0.069
Mof_C 	C 	0.0188	0.2763	0.6444	-0.177
Mof_H 	H 	0.0377	0.3249	0.6976	0.068
Mof_C 	C 	0.9773	0.2967	0.5311	0.055
Mof_H 	H 	0.9671	0.3584	0.5103	0.001
Mof_C 	C 	0.07811	0.1668	0.7997	-0.069
Mof_C 	C 	0.24947	0.9256	0.0591	0.474
Mof_C 	C 	0.21751	0.9995	0.0566	-0.192
Mof_C 	C 	0.17027	0.0061	0.9554	0.007
Mof_H 	H 	0.1575	0.9626	0.8904	0.019
Mof_C 	C 	0.14207	0.0787	0.952	-0.013
Mof_C 	C 	0.16014	0.1388	0.0541	0.01
Mof_H 	H 	0.1407	0.1849	0.0543	0.032
Mof_C 	C 	0.20752	0.1297	0.1559	-0.202
Mof_C 	C 	0.23572	0.0617	0.1552	0.11
Mof_H 	H 	0.2677	0.0571	0.2222	-0.016
Mof_C 	C 	0.22746	0.1946	0.2681	0.535
Mof_C 	C 	0.38	0.6767	0.947	1.2
Mof_C 	C 	0.3786	0.5882	0.8821	-1.847
Mof_H 	H 	0.3876	0.6015	0.8247	0.57
Mof_H 	H 	0.3467	0.5629	0.8365	0.574
Mof_H 	H 	0.4005	0.5436	0.9435	0.578
Mof_C 	C 	0.4276	0.7235	0.9984	-1.662
Mof_H 	H 	0.4413	0.7005	0.9546	0.51
Mof_H 	H 	0.4489	0.7098	0.0864	0.503
Mof_H 	H 	0.4231	0.7899	0.9867	0.492
Mof_N 	N 	0.09441	0.0864	0.8406	-0.123
Mof_H 	H 	0.092	0.222	0.846	0.043
Mof_O 	O 	0.3708	0.7234	0.0133	-0.416
Mof_Ce	Ce	0.17993	0.28812	0.4224	2.744
Mof_O 	O 	0.60518	0.831	0.2097	-0.519
Mof_O 	O 	0.61436	0.6817	0.259	-0.485
Mof_O 	O 	0.26888	0.3513	0.505	-0.724
Mof_O 	O 	0.20637	0.4388	0.3773	-0.572
Mof_O 	O 	0.22935	0.6869	0.1485	-0.638
Mof_O 	O 	0.30164	0.7509	0.233	-0.59
Mof_O 	O 	0.1492	0.1911	0.5305	-0.497
Mof_C 	C 	0.59203	0.7484	0.1813	0.341
Mof_C 	C 	0.54975	0.725	0.0528	-0.146
Mof_C 	C 	0.53656	0.6334	0.0157	0.059
Mof_H 	H 	0.5555	0.5851	0.0694	-0.008
Mof_C 	C 	0.4954	0.6124	0.8992	-0.177
Mof_H 	H 	0.4869	0.5504	0.8745	0.074
Mof_C 	C 	0.46691	0.6852	0.8193	0.069
Mof_C 	C 	0.4812	0.7763	0.8556	-0.177
Mof_H 	H 	0.4623	0.8249	0.8024	0.068
Mof_C 	C 	0.5227	0.7967	0.9689	0.056
Mof_H 	H 	0.5329	0.8584	0.9897	0.001
Mof_C 	C 	0.42189	0.6668	0.7003	-0.069
Mof_C 	C 	0.25053	0.4256	0.4409	0.475
Mof_C 	C 	0.28249	0.4995	0.4434	-0.191
Mof_C 	C 	0.32973	0.5061	0.5446	0.008
Mof_H 	H 	0.3425	0.4626	0.6096	0.018
Mof_C 	C 	0.35793	0.5787	0.548	-0.012
Mof_C 	C 	0.33986	0.6388	0.4459	0.008
Mof_H 	H 	0.3593	0.6849	0.4457	0.032
Mof_C 	C 	0.29248	0.6297	0.3441	-0.201
Mof_C 	C 	0.26428	0.5617	0.3448	0.109
Mof_H 	H 	0.2323	0.5571	0.2778	-0.015
Mof_C 	C 	0.27254	0.6946	0.2319	0.534
Mof_C 	C 	0.12	0.1767	0.553	1.201
Mof_C 	C 	0.1214	0.0882	0.6179	-1.848
Mof_H 	H 	0.1124	0.1015	0.6753	0.57
Mof_H 	H 	0.1533	0.0629	0.6635	0.574
Mof_H 	H 	0.0995	0.0436	0.5565	0.578
Mof_C 	C 	0.0724	0.2235	0.5016	-1.665
Mof_H 	H 	0.0587	0.2005	0.5454	0.511
Mof_H 	H 	0.0511	0.2098	0.4136	0.504
Mof_H 	H 	0.0769	0.2899	0.5133	0.493
Mof_N 	N 	0.40559	0.5864	0.6594	-0.123
Mof_H 	H 	0.408	0.722	0.654	0.043
Mof_O 	O 	0.1292	0.2234	0.4867	-0.415
Mof_Ce	Ce	0.67993	0.78812	0.4224	2.744
Mof_O 	O 	0.10518	0.331	0.2097	-0.518
Mof_O 	O 	0.11436	0.1817	0.259	-0.485
Mof_O 	O 	0.76888	0.8513	0.505	-0.724
Mof_O 	O 	0.70637	0.9388	0.3773	-0.572
Mof_O 	O 	0.72935	0.1869	0.1485	-0.637
Mof_O 	O 	0.80164	0.2509	0.233	-0.59
Mof_O 	O 	0.6492	0.6911	0.5305	-0.497
Mof_C 	C 	0.09203	0.2484	0.1813	0.341
Mof_C 	C 	0.04975	0.225	0.0528	-0.145
Mof_C 	C 	0.03656	0.1334	0.0157	0.059
Mof_H 	H 	0.0555	0.0851	0.0694	-0.008
Mof_C 	C 	0.9954	0.1124	0.8992	-0.177
Mof_H 	H 	0.9869	0.0504	0.8745	0.074
Mof_C 	C 	0.96691	0.1852	0.8193	0.069
Mof_C 	C 	0.9812	0.2763	0.8556	-0.176
Mof_H 	H 	0.9623	0.3249	0.8024	0.068
Mof_C 	C 	0.0227	0.2967	0.9689	0.054
Mof_H 	H 	0.0329	0.3584	0.9897	0.001
Mof_C 	C 	0.92189	0.1668	0.7003	-0.069
Mof_C 	C 	0.75053	0.9256	0.4409	0.475
Mof_C 	C 	0.78249	0.9995	0.4434	-0.192
Mof_C 	C 	0.82973	0.0061	0.5446	0.008
Mof_H 	H 	0.8425	0.9626	0.6096	0.018
Mof_C 	C 	0.85793	0.0787	0.548	-0.012
Mof_C 	C 	0.83986	0.1388	0.4459	0.008
Mof_H 	H 	0.8593	0.1849	0.4457	0.032
Mof_C 	C 	0.79248	0.1297	0.3441	-0.201
Mof_C 	C 	0.76428	0.0617	0.3448	0.109
Mof_H 	H 	0.7323	0.0571	0.2778	-0.015
Mof_C 	C 	0.77254	0.1946	0.2319	0.534
Mof_C 	C 	0.62	0.6767	0.553	1.201
Mof_C 	C 	0.6214	0.5882	0.6179	-1.848
Mof_H 	H 	0.6124	0.6015	0.6753	0.57
Mof_H 	H 	0.6533	0.5629	0.6635	0.574
Mof_H 	H 	0.5995	0.5436	0.5565	0.578
Mof_C 	C 	0.5724	0.7235	0.5016	-1.665
Mof_H 	H 	0.5587	0.7005	0.5454	0.511
Mof_H 	H 	0.5511	0.7098	0.4136	0.504
Mof_H 	H 	0.5769	0.7899	0.5133	0.493
Mof_N 	N 	0.90559	0.0864	0.6594	-0.123
Mof_H 	H 	0.908	0.222	0.654	0.043
Mof_O 	O 	0.6292	0.7234	0.4867	-0.415
Mof_Ce	Ce	0.17993	0.71188	0.9224	2.744
Mof_O 	O 	0.60518	0.169	0.7097	-0.518
Mof_O 	O 	0.61436	0.3183	0.759	-0.485
Mof_O 	O 	0.26888	0.6487	0.005	-0.724
Mof_O 	O 	0.20637	0.5612	0.8773	-0.572
Mof_O 	O 	0.22935	0.3131	0.6485	-0.638
Mof_O 	O 	0.30164	0.2491	0.733	-0.591
Mof_O 	O 	0.1492	0.8089	0.0305	-0.499
Mof_C 	C 	0.59203	0.2516	0.6813	0.341
Mof_C 	C 	0.54975	0.275	0.5528	-0.146
Mof_C 	C 	0.53656	0.3666	0.5157	0.059
Mof_H 	H 	0.5555	0.4149	0.5694	-0.008
Mof_C 	C 	0.4954	0.3876	0.3992	-0.177
Mof_H 	H 	0.4869	0.4496	0.3745	0.074
Mof_C 	C 	0.46691	0.3148	0.3193	0.069
Mof_C 	C 	0.4812	0.2237	0.3556	-0.177
Mof_H 	H 	0.4623	0.1751	0.3024	0.068
Mof_C 	C 	0.5227	0.2033	0.4689	0.055
Mof_H 	H 	0.5329	0.1416	0.4897	0.001
Mof_C 	C 	0.42189	0.3332	0.2003	-0.069
Mof_C 	C 	0.25053	0.5744	0.9409	0.475
Mof_C 	C 	0.28249	0.5005	0.9434	-0.191
Mof_C 	C 	0.32973	0.4939	0.0446	0.008
Mof_H 	H 	0.3425	0.5374	0.1096	0.018
Mof_C 	C 	0.35793	0.4213	0.048	-0.012
Mof_C 	C 	0.33986	0.3612	0.9459	0.008
Mof_H 	H 	0.3593	0.3151	0.9457	0.032
Mof_C 	C 	0.29248	0.3703	0.8441	-0.201
Mof_C 	C 	0.26428	0.4383	0.8448	0.109
Mof_H 	H 	0.2323	0.4429	0.7778	-0.015
Mof_C 	C 	0.27254	0.3054	0.7319	0.534
Mof_C 	C 	0.12	0.8233	0.053	1.202
Mof_C 	C 	0.1214	0.9118	0.1179	-1.848
Mof_H 	H 	0.1124	0.8985	0.1753	0.57
Mof_H 	H 	0.1533	0.9371	0.1635	0.574
Mof_H 	H 	0.0995	0.9564	0.0565	0.578
Mof_C 	C 	0.0724	0.7765	0.0016	-1.668
Mof_H 	H 	0.0587	0.7995	0.0454	0.512
Mof_H 	H 	0.0511	0.7902	0.9136	0.505
Mof_H 	H 	0.0769	0.7101	0.0133	0.494
Mof_N 	N 	0.40559	0.4136	0.1594	-0.123
Mof_H 	H 	0.408	0.278	0.154	0.044
Mof_O 	O 	0.1292	0.7766	0.9867	-0.413
Mof_Ce	Ce	0.67993	0.21188	0.9224	2.742
Mof_O 	O 	0.10518	0.669	0.7097	-0.518
Mof_O 	O 	0.11436	0.8183	0.759	-0.485
Mof_O 	O 	0.76888	0.1487	0.005	-0.723
Mof_O 	O 	0.70637	0.0612	0.8773	-0.572
Mof_O 	O 	0.72935	0.8131	0.6485	-0.638
Mof_O 	O 	0.80164	0.7491	0.733	-0.591
Mof_O 	O 	0.6492	0.3089	0.0305	-0.495
Mof_C 	C 	0.09203	0.7516	0.6813	0.341
Mof_C 	C 	0.04975	0.775	0.5528	-0.146
Mof_C 	C 	0.03656	0.8666	0.5157	0.058
Mof_H 	H 	0.0555	0.9149	0.5694	-0.008
Mof_C 	C 	0.9954	0.8876	0.3992	-0.176
Mof_H 	H 	0.9869	0.9496	0.3745	0.074
Mof_C 	C 	0.96691	0.8148	0.3193	0.069
Mof_C 	C 	0.9812	0.7237	0.3556	-0.177
Mof_H 	H 	0.9623	0.6751	0.3024	0.068
Mof_C 	C 	0.0227	0.7033	0.4689	0.055
Mof_H 	H 	0.0329	0.6416	0.4897	0.001
Mof_C 	C 	0.92189	0.8332	0.2003	-0.069
Mof_C 	C 	0.75053	0.0744	0.9409	0.474
Mof_C 	C 	0.78249	0.0005	0.9434	-0.192
Mof_C 	C 	0.82973	0.9939	0.0446	0.007
Mof_H 	H 	0.8425	0.0374	0.1096	0.019
Mof_C 	C 	0.85793	0.9213	0.048	-0.013
Mof_C 	C 	0.83986	0.8612	0.9459	0.01
Mof_H 	H 	0.8593	0.8151	0.9457	0.032
Mof_C 	C 	0.79248	0.8703	0.8441	-0.202
Mof_C 	C 	0.76428	0.9383	0.8448	0.11
Mof_H 	H 	0.7323	0.9429	0.7778	-0.016
Mof_C 	C 	0.77254	0.8054	0.7319	0.535
Mof_C 	C 	0.62	0.3233	0.053	1.2
Mof_C 	C 	0.6214	0.4118	0.1179	-1.847
Mof_H 	H 	0.6124	0.3985	0.1753	0.57
Mof_H 	H 	0.6533	0.4371	0.1635	0.574
Mof_H 	H 	0.5995	0.4564	0.0565	0.578
Mof_C 	C 	0.5724	0.2765	0.0016	-1.662
Mof_H 	H 	0.5587	0.2995	0.0454	0.51
Mof_H 	H 	0.5511	0.2902	0.9136	0.503
Mof_H 	H 	0.5769	0.2101	0.0133	0.492
Mof_N 	N 	0.90559	0.9136	0.1594	-0.123
Mof_H 	H 	0.908	0.778	0.154	0.043
Mof_O 	O 	0.6292	0.2766	0.9867	-0.416
Mof_Ce	Ce	0.82007	0.71188	0.5776	2.744
Mof_O 	O 	0.39482	0.169	0.7903	-0.519
Mof_O 	O 	0.38564	0.3183	0.741	-0.485
Mof_O 	O 	0.73112	0.6487	0.495	-0.724
Mof_O 	O 	0.79363	0.5612	0.6227	-0.572
Mof_O 	O 	0.77065	0.3131	0.8515	-0.638
Mof_O 	O 	0.69836	0.2491	0.767	-0.59
Mof_O 	O 	0.8508	0.8089	0.4695	-0.497
Mof_C 	C 	0.40797	0.2516	0.8187	0.341
Mof_C 	C 	0.45025	0.275	0.9472	-0.146
Mof_C 	C 	0.46344	0.3666	0.9843	0.059
Mof_H 	H 	0.4445	0.4149	0.9306	-0.008
Mof_C 	C 	0.5046	0.3876	0.1008	-0.177
Mof_H 	H 	0.5131	0.4496	0.1255	0.074
Mof_C 	C 	0.53309	0.3148	0.1807	0.069
Mof_C 	C 	0.5188	0.2237	0.1444	-0.177
Mof_H 	H 	0.5377	0.1751	0.1976	0.068
Mof_C 	C 	0.4773	0.2033	0.0311	0.056
Mof_H 	H 	0.4671	0.1416	0.0103	0.001
Mof_C 	C 	0.57811	0.3332	0.2997	-0.069
Mof_C 	C 	0.74947	0.5744	0.5591	0.475
Mof_C 	C 	0.71751	0.5005	0.5566	-0.191
Mof_C 	C 	0.67027	0.4939	0.4554	0.008
Mof_H 	H 	0.6575	0.5374	0.3904	0.018
Mof_C 	C 	0.64207	0.4213	0.452	-0.012
Mof_C 	C 	0.66014	0.3612	0.5541	0.008
Mof_H 	H 	0.6407	0.3151	0.5543	0.032
Mof_C 	C 	0.70752	0.3703	0.6559	-0.201
Mof_C 	C 	0.73572	0.4383	0.6552	0.109
Mof_H 	H 	0.7677	0.4429	0.7222	-0.015
Mof_C 	C 	0.72746	0.3054	0.7681	0.534
Mof_C 	C 	0.88	0.8233	0.447	1.201
Mof_C 	C 	0.8786	0.9118	0.3821	-1.848
Mof_H 	H 	0.8876	0.8985	0.3247	0.57
Mof_H 	H 	0.8467	0.9371	0.3365	0.574
Mof_H 	H 	0.9005	0.9564	0.4435	0.578
Mof_C 	C 	0.9276	0.7765	0.4984	-1.665
Mof_H 	H 	0.9413	0.7995	0.4546	0.511
Mof_H 	H 	0.9489	0.7902	0.5864	0.504
Mof_H 	H 	0.9231	0.7101	0.4867	0.493
Mof_N 	N 	0.59441	0.4136	0.3406	-0.123
Mof_H 	H 	0.592	0.278	0.346	0.043
Mof_O 	O 	0.8708	0.7766	0.5133	-0.415
Mof_Ce	Ce	0.32007	0.21188	0.5776	2.744
Mof_O 	O 	0.89482	0.669	0.7903	-0.518
Mof_O 	O 	0.88564	0.8183	0.741	-0.485
Mof_O 	O 	0.23112	0.1487	0.495	-0.724
Mof_O 	O 	0.29363	0.0612	0.6227	-0.572
Mof_O 	O 	0.27065	0.8131	0.8515	-0.637
Mof_O 	O 	0.19836	0.7491	0.767	-0.59
Mof_O 	O 	0.3508	0.3089	0.4695	-0.497
Mof_C 	C 	0.90797	0.7516	0.8187	0.341
Mof_C 	C 	0.95025	0.775	0.9472	-0.145
Mof_C 	C 	0.96344	0.8666	0.9843	0.059
Mof_H 	H 	0.9445	0.9149	0.9306	-0.008
Mof_C 	C 	0.0046	0.8876	0.1008	-0.177
Mof_H 	H 	0.0131	0.9496	0.1255	0.074
Mof_C 	C 	0.03309	0.8148	0.1807	0.069
Mof_C 	C 	0.0188	0.7237	0.1444	-0.176
Mof_H 	H 	0.0377	0.6751	0.1976	0.068
Mof_C 	C 	0.9773	0.7033	0.0311	0.054
Mof_H 	H 	0.9671	0.6416	0.0103	0.001
Mof_C 	C 	0.07811	0.8332	0.2997	-0.069
Mof_C 	C 	0.24947	0.0744	0.5591	0.475
Mof_C 	C 	0.21751	0.0005	0.5566	-0.192
Mof_C 	C 	0.17027	0.9939	0.4554	0.008
Mof_H 	H 	0.1575	0.0374	0.3904	0.018
Mof_C 	C 	0.14207	0.9213	0.452	-0.012
Mof_C 	C 	0.16014	0.8612	0.5541	0.008
Mof_H 	H 	0.1407	0.8151	0.5543	0.032
Mof_C 	C 	0.20752	0.8703	0.6559	-0.201
Mof_C 	C 	0.23572	0.9383	0.6552	0.109
Mof_H 	H 	0.2677	0.9429	0.7222	-0.015
Mof_C 	C 	0.22746	0.8054	0.7681	0.534
Mof_C 	C 	0.38	0.3233	0.447	1.201
Mof_C 	C 	0.3786	0.4118	0.3821	-1.848
Mof_H 	H 	0.3876	0.3985	0.3247	0.57
Mof_H 	H 	0.3467	0.4371	0.3365	0.574
Mof_H 	H 	0.4005	0.4564	0.4435	0.578
Mof_C 	C 	0.4276	0.2765	0.4984	-1.665
Mof_H 	H 	0.4413	0.2995	0.4546	0.511
Mof_H 	H 	0.4489	0.2902	0.5864	0.504
Mof_H 	H 	0.4231	0.2101	0.4867	0.493
Mof_N 	N 	0.09441	0.9136	0.3406	-0.123
Mof_H 	H 	0.092	0.778	0.346	0.043
Mof_O 	O 	0.3708	0.2766	0.5133	-0.415
_end
