data_functionalizedCrystal
_audit_creation_method	'EQeq! by Chris Wilmer'
_symmetry_space_group_name_H-M	'P1'
_symmetry_Int_Tables_number	1
_symmetry_cell_setting	triclinic
loop_
_symmetry_equiv_pos_as_xyz
  x,y,z
_cell_length_a	10.9381
_cell_length_b	13.5196
_cell_length_c	34.326
_cell_angle_alpha	99.0619
_cell_angle_beta	90
_cell_angle_gamma	113.862
loop_
_atom_site_label
_atom_site_type_symbol
_atom_site_fract_x
_atom_site_fract_y
_atom_site_fract_z
_atom_site_charge
Mof_Co	Co	0.7758	0.63358	0.49718	1.145
Mof_Co	Co	0.14222	0.36642	0.00282	1.133
Mof_Co	Co	0.2242	0.36642	0.50282	1.141
Mof_Co	Co	0.85778	0.63358	0.99718	1.153
Mof_Co	Co	-2.48614e-17	0.5	0.5	1.195
Mof_Co	Co	0.5	0.5	-0	1.206
Mof_H 	H 	0.4303	0.0284	0.208	0.054
Mof_H 	H 	0.4573	0.1118	0.2479	0.053
Mof_H 	H 	0.8084	0.2652	0.2412	0.044
Mof_H 	H 	0.7395	0.1746	0.2674	0.039
Mof_H 	H 	0.5481	0.2596	0.2049	0.039
Mof_H 	H 	0.5358	0.1736	0.1667	0.034
Mof_H 	H 	0.7216	0.042	0.2065	0.042
Mof_H 	H 	0.7709	0.132	0.1791	0.041
Mof_H 	H 	0.8771	0.3108	0.3134	0.161
Mof_H 	H 	0.9402	0.3992	0.3784	-0.025
Mof_H 	H 	0.63	0.4804	0.3796	-0.043
Mof_H 	H 	0.5669	0.392	0.316	0.161
Mof_H 	H 	0.5276	0.3142	0.139	0.144
Mof_H 	H 	0.5501	0.396	0.0835	-0.023
Mof_H 	H 	0.9402	0.4622	0.0882	-0.023
Mof_H 	H 	0.9192	0.3858	0.1446	0.159
Mof_H 	H 	0.4382	0.8642	0.1098	0.15
Mof_H 	H 	0.476	0.75	0.0584	-0.035
Mof_H 	H 	0.8661	0.8976	0.0882	-0.036
Mof_H 	H 	0.829	0.007	0.1418	0.163
Mof_H 	H 	0.4019	0.9716	0.292	0.049
Mof_H 	H 	0.3455	0.8882	0.2521	0.048
Mof_H 	H 	0.5432	0.7348	0.2588	0.038
Mof_H 	H 	0.5649	0.8254	0.2326	0.033
Mof_H 	H 	0.2885	0.7404	0.2951	0.033
Mof_H 	H 	0.3622	0.8264	0.3333	0.03
Mof_H 	H 	0.6796	0.958	0.2935	0.033
Mof_H 	H 	0.6389	0.868	0.3209	0.035
Mof_H 	H 	0.5663	0.6892	0.1866	0.16
Mof_H 	H 	0.541	0.6008	0.1216	-0.035
Mof_H 	H 	0.1496	0.5196	0.1204	-0.055
Mof_H 	H 	0.1749	0.608	0.184	0.157
Mof_H 	H 	0.2134	0.6858	0.361	0.141
Mof_H 	H 	0.1541	0.604	0.4165	-0.033
Mof_H 	H 	0.478	0.5378	0.4118	-0.034
Mof_H 	H 	0.5334	0.6142	0.3554	0.154
Mof_H 	H 	0.574	0.1358	0.3902	0.157
Mof_H 	H 	0.726	0.25	0.4416	-0.033
Mof_H 	H 	0.9685	0.1024	0.4118	-0.022
Mof_H 	H 	0.822	0.993	0.3582	0.138
Mof_H 	H 	0.5697	0.9716	0.792	0.058
Mof_H 	H 	0.5427	0.8882	0.7521	0.057
Mof_H 	H 	0.1916	0.7348	0.7588	0.032
Mof_H 	H 	0.2605	0.8254	0.7326	0.029
Mof_H 	H 	0.4519	0.7404	0.7951	0.04
Mof_H 	H 	0.4642	0.8264	0.8333	0.036
Mof_H 	H 	0.2784	0.958	0.7935	0.028
Mof_H 	H 	0.2291	0.868	0.8209	0.03
Mof_H 	H 	0.1229	0.6892	0.6866	0.153
Mof_H 	H 	0.0598	0.6008	0.6216	-0.043
Mof_H 	H 	0.37	0.5196	0.6204	-0.046
Mof_H 	H 	0.4331	0.608	0.684	0.166
Mof_H 	H 	0.4724	0.6858	0.861	0.148
Mof_H 	H 	0.4499	0.604	0.9165	-0.021
Mof_H 	H 	0.0598	0.5378	0.9118	-0.041
Mof_H 	H 	0.0808	0.6142	0.8554	0.144
Mof_H 	H 	0.5618	0.1358	0.8902	0.159
Mof_H 	H 	0.524	0.25	0.9416	-0.025
Mof_H 	H 	0.1339	0.1024	0.9118	-0.032
Mof_H 	H 	0.171	0.993	0.8582	0.126
Mof_H 	H 	0.5981	0.0284	0.708	0.062
Mof_H 	H 	0.6545	0.1118	0.7479	0.061
Mof_H 	H 	0.4568	0.2652	0.7412	0.039
Mof_H 	H 	0.4351	0.1746	0.7674	0.036
Mof_H 	H 	0.7115	0.2596	0.7049	0.047
Mof_H 	H 	0.6378	0.1736	0.6667	0.04
Mof_H 	H 	0.3204	0.042	0.7065	0.037
Mof_H 	H 	0.3611	0.132	0.6791	0.036
Mof_H 	H 	0.4337	0.3108	0.8134	0.155
Mof_H 	H 	0.459	0.3992	0.8784	-0.034
Mof_H 	H 	0.8504	0.4804	0.8796	-0.033
Mof_H 	H 	0.8251	0.392	0.816	0.17
Mof_H 	H 	0.7866	0.3142	0.639	0.151
Mof_H 	H 	0.8459	0.396	0.5835	-0.011
Mof_H 	H 	0.522	0.4622	0.5882	-0.03
Mof_H 	H 	0.4666	0.3858	0.6446	0.149
Mof_H 	H 	0.426	0.8642	0.6098	0.153
Mof_H 	H 	0.274	0.75	0.5584	-0.027
Mof_H 	H 	0.0315	0.8976	0.5882	-0.047
Mof_H 	H 	0.178	0.007	0.6418	0.153
Mof_C 	C 	0.62521	0.14762	0.21547	0.022
Mof_C 	C 	0.49524	0.07048	0.23009	-0.025
Mof_C 	C 	0.72351	0.21962	0.25043	0.018
Mof_C 	C 	0.59319	0.21898	0.18989	0.023
Mof_C 	C 	0.69311	0.08282	0.19049	0.012
Mof_C 	C 	0.71389	0.33898	0.30871	0.35
Mof_C 	C 	0.82564	0.34368	0.32684	-0.345
Mof_C 	C 	0.86422	0.39804	0.36586	0.228
Mof_C 	C 	0.79201	0.44962	0.38601	-0.27
Mof_C 	C 	0.6805	0.4458	0.36665	0.236
Mof_C 	C 	0.6423	0.3924	0.32867	-0.346
Mof_C 	C 	0.83101	0.50402	0.4282	0.455
Mof_C 	C 	0.72028	0.33996	0.14601	0.322
Mof_C 	C 	0.6108	0.3442	0.12872	-0.32
Mof_C 	C 	0.62476	0.39392	0.09564	0.199
Mof_C 	C 	0.74928	0.44056	0.08054	-0.25
Mof_C 	C 	0.85701	0.43402	0.09861	0.203
Mof_C 	C 	0.8445	0.3864	0.13188	-0.317
Mof_C 	C 	0.76631	0.49642	0.04558	0.436
Mof_C 	C 	0.62954	0.94648	0.13076	0.327
Mof_C 	C 	0.525	0.8706	0.10588	-0.326
Mof_C 	C 	0.54797	0.80294	0.07479	0.215
Mof_C 	C 	0.67501	0.81322	0.06788	-0.261
Mof_C 	C 	0.77911	0.88982	0.09276	0.223
Mof_C 	C 	0.7575	0.9564	0.12472	-0.351
Mof_C 	C 	0.69547	0.73714	0.0342	0.435
Mof_C 	C 	0.47759	0.85238	0.28453	0.014
Mof_C 	C 	0.42476	0.92952	0.26991	-0.026
Mof_C 	C 	0.50389	0.78038	0.24957	0.027
Mof_C 	C 	0.37421	0.78102	0.31011	0.031
Mof_C 	C 	0.61029	0.91718	0.30951	0.023
Mof_C 	C 	0.37491	0.66102	0.19129	0.354
Mof_C 	C 	0.48196	0.65632	0.17316	-0.356
Mof_C 	C 	0.46618	0.60196	0.13414	0.235
Mof_C 	C 	0.34239	0.55038	0.11399	-0.284
Mof_C 	C 	0.2347	0.5542	0.13335	0.243
Mof_C 	C 	0.2499	0.6076	0.17133	-0.357
Mof_C 	C 	0.32699	0.49598	0.0718	0.46
Mof_C 	C 	0.38032	0.66004	0.35399	0.323
Mof_C 	C 	0.2666	0.6558	0.37128	-0.328
Mof_C 	C 	0.23084	0.60608	0.40436	0.202
Mof_C 	C 	0.30872	0.55944	0.41946	-0.26
Mof_C 	C 	0.42299	0.56598	0.40139	0.207
Mof_C 	C 	0.4581	0.6136	0.36812	-0.326
Mof_C 	C 	0.26989	0.50358	0.45442	0.437
Mof_C 	C 	0.68306	0.05352	0.36924	0.336
Mof_C 	C 	0.6544	0.1294	0.39412	-0.328
Mof_C 	C 	0.74503	0.19706	0.42521	0.22
Mof_C 	C 	0.86179	0.18678	0.43212	-0.262
Mof_C 	C 	0.88929	0.11018	0.40724	0.213
Mof_C 	C 	0.8011	0.0436	0.37528	-0.315
Mof_C 	C 	0.95833	0.26286	0.4658	0.478
Mof_C 	C 	0.37479	0.85238	0.78453	0.016
Mof_C 	C 	0.50476	0.92952	0.76991	-0.035
Mof_C 	C 	0.27649	0.78038	0.74957	0.029
Mof_C 	C 	0.40681	0.78102	0.81011	0.025
Mof_C 	C 	0.30689	0.91718	0.80951	0.025
Mof_C 	C 	0.28611	0.66102	0.69129	0.354
Mof_C 	C 	0.17436	0.65632	0.67316	-0.358
Mof_C 	C 	0.13578	0.60196	0.63414	0.234
Mof_C 	C 	0.20799	0.55038	0.61399	-0.285
Mof_C 	C 	0.3195	0.5542	0.63335	0.245
Mof_C 	C 	0.3577	0.6076	0.67133	-0.356
Mof_C 	C 	0.16899	0.49598	0.5718	0.46
Mof_C 	C 	0.27972	0.66004	0.85399	0.321
Mof_C 	C 	0.3892	0.6558	0.87128	-0.324
Mof_C 	C 	0.37524	0.60608	0.90436	0.202
Mof_C 	C 	0.25072	0.55944	0.91946	-0.256
Mof_C 	C 	0.14299	0.56598	0.90139	0.203
Mof_C 	C 	0.1555	0.6136	0.86812	-0.325
Mof_C 	C 	0.23369	0.50358	0.95442	0.436
Mof_C 	C 	0.37046	0.05352	0.86924	0.328
Mof_C 	C 	0.475	0.1294	0.89412	-0.319
Mof_C 	C 	0.45203	0.19706	0.92521	0.207
Mof_C 	C 	0.32499	0.18678	0.93212	-0.247
Mof_C 	C 	0.22089	0.11018	0.90724	0.196
Mof_C 	C 	0.2425	0.0436	0.87528	-0.307
Mof_C 	C 	0.30453	0.26286	0.9658	0.429
Mof_C 	C 	0.52241	0.14762	0.71547	0.025
Mof_C 	C 	0.57524	0.07048	0.73009	-0.033
Mof_C 	C 	0.49611	0.21962	0.75043	0.02
Mof_C 	C 	0.62579	0.21898	0.68989	0.017
Mof_C 	C 	0.38971	0.08282	0.69049	0.014
Mof_C 	C 	0.62509	0.33898	0.80871	0.352
Mof_C 	C 	0.51804	0.34368	0.82684	-0.348
Mof_C 	C 	0.53382	0.39804	0.86586	0.229
Mof_C 	C 	0.65761	0.44962	0.88601	-0.272
Mof_C 	C 	0.7653	0.4458	0.86665	0.238
Mof_C 	C 	0.7501	0.3924	0.82867	-0.345
Mof_C 	C 	0.67301	0.50402	0.9282	0.457
Mof_C 	C 	0.61968	0.33996	0.64601	0.32
Mof_C 	C 	0.7334	0.3442	0.62872	-0.315
Mof_C 	C 	0.76916	0.39392	0.59564	0.198
Mof_C 	C 	0.69128	0.44056	0.58054	-0.245
Mof_C 	C 	0.57701	0.43402	0.59861	0.199
Mof_C 	C 	0.5419	0.3864	0.63188	-0.316
Mof_C 	C 	0.73011	0.49642	0.54558	0.434
Mof_C 	C 	0.31694	0.94648	0.63076	0.32
Mof_C 	C 	0.3456	0.8706	0.60588	-0.318
Mof_C 	C 	0.25497	0.80294	0.57479	0.203
Mof_C 	C 	0.13821	0.81322	0.56788	-0.247
Mof_C 	C 	0.11071	0.88982	0.59276	0.208
Mof_C 	C 	0.1989	0.9564	0.62472	-0.347
Mof_C 	C 	0.04167	0.73714	0.5342	0.384
Mof_O 	O 	0.66313	0.28626	0.27137	-0.26
Mof_O 	O 	0.71775	0.2919	0.17868	-0.251
Mof_O 	O 	0.59375	0.0091	0.15974	-0.25
Mof_O 	O 	0.92592	0.49504	0.44471	-0.436
Mof_O 	O 	0.76378	0.55576	0.44387	-0.498
Mof_O 	O 	0.88476	0.55052	0.03685	-0.466
Mof_O 	O 	0.66902	0.49104	0.02594	-0.493
Mof_O 	O 	0.59435	0.6699	0.0125	-0.446
Mof_O 	O 	0.81358	0.74656	0.02945	-0.487
Mof_O 	O 	0.37687	0.71374	0.22863	-0.267
Mof_O 	O 	0.42585	0.7081	0.32132	-0.257
Mof_O 	O 	0.58465	0.9909	0.34026	-0.266
Mof_O 	O 	0.43088	0.50496	0.05529	-0.456
Mof_O 	O 	0.20802	0.44424	0.05613	-0.514
Mof_O 	O 	0.33424	0.44948	0.46315	-0.473
Mof_O 	O 	0.17798	0.50896	0.47406	-0.499
Mof_O 	O 	0.92445	0.3301	0.4875	-0.437
Mof_O 	O 	0.06702	0.25344	0.47055	-0.525
Mof_O 	O 	0.33687	0.71374	0.72863	-0.265
Mof_O 	O 	0.28225	0.7081	0.82132	-0.257
Mof_O 	O 	0.40625	0.9909	0.84026	-0.263
Mof_O 	O 	0.07408	0.50496	0.55529	-0.465
Mof_O 	O 	0.23622	0.44424	0.55613	-0.507
Mof_O 	O 	0.11524	0.44948	0.96315	-0.475
Mof_O 	O 	0.33098	0.50896	0.97406	-0.485
Mof_O 	O 	0.40565	0.3301	0.9875	-0.434
Mof_O 	O 	0.18642	0.25344	0.97055	-0.485
Mof_O 	O 	0.62313	0.28626	0.77137	-0.259
Mof_O 	O 	0.57415	0.2919	0.67868	-0.251
Mof_O 	O 	0.41535	0.0091	0.65974	-0.248
Mof_O 	O 	0.56912	0.49504	0.94471	-0.449
Mof_O 	O 	0.79198	0.55576	0.94387	-0.493
Mof_O 	O 	0.66576	0.55052	0.53685	-0.468
Mof_O 	O 	0.82202	0.49104	0.52594	-0.476
Mof_O 	O 	0.07555	0.6699	0.5125	-0.44
Mof_O 	O 	0.93298	0.74656	0.52945	-0.446
Mof_O 	O 	0.5288	0	0.25	-0.156
Mof_O 	O 	0.4712	0	0.75	-0.152
_end
