data_functionalizedCrystal
_audit_creation_method	'EQeq! by Chris Wilmer'
_symmetry_space_group_name_H-M	'P1'
_symmetry_Int_Tables_number	1
_symmetry_cell_setting	triclinic
loop_
_symmetry_equiv_pos_as_xyz
  x,y,z
_cell_length_a	15.3873
_cell_length_b	15.3873
_cell_length_c	9.8379
_cell_angle_alpha	90
_cell_angle_beta	90
_cell_angle_gamma	90
loop_
_atom_site_label
_atom_site_type_symbol
_atom_site_fract_x
_atom_site_fract_y
_atom_site_fract_z
_atom_site_charge
Mof_C 	C 	0.38697	0.24501	0.1222	0.176
Mof_H 	H 	0.4116	0.2627	0.204	-0.011
Mof_C 	C 	0.31227	0.19518	0.1219	-0.215
Mof_H 	H 	0.2876	0.1782	0.204	0.115
Mof_O 	O 	0.53184	0.3736	0.1223	-0.571
Mof_C 	C 	0.61303	0.75499	0.1222	0.176
Mof_H 	H 	0.5884	0.7373	0.204	-0.011
Mof_C 	C 	0.68773	0.80482	0.1219	-0.215
Mof_H 	H 	0.7124	0.8218	0.204	0.115
Mof_O 	O 	0.46816	0.6264	0.1223	-0.571
Mof_C 	C 	0.75499	0.38697	0.1222	0.176
Mof_H 	H 	0.7373	0.4116	0.204	-0.01
Mof_C 	C 	0.80482	0.31227	0.1219	-0.214
Mof_H 	H 	0.8218	0.2876	0.204	0.116
Mof_O 	O 	0.6264	0.53184	0.1223	-0.57
Mof_C 	C 	0.24501	0.61303	0.1222	0.177
Mof_H 	H 	0.2627	0.5884	0.204	-0.01
Mof_C 	C 	0.19518	0.68773	0.1219	-0.214
Mof_H 	H 	0.1782	0.7124	0.204	0.116
Mof_O 	O 	0.3736	0.46816	0.1223	-0.57
Mof_C 	C 	0.61303	0.24501	0.3778	0.179
Mof_H 	H 	0.5884	0.2627	0.296	-0.011
Mof_C 	C 	0.68773	0.19518	0.3781	-0.23
Mof_H 	H 	0.7124	0.1782	0.296	0.122
Mof_O 	O 	0.46816	0.3736	0.3777	-0.576
Mof_C 	C 	0.38697	0.75499	0.3778	0.179
Mof_H 	H 	0.4116	0.7373	0.296	-0.011
Mof_C 	C 	0.31227	0.80482	0.3781	-0.23
Mof_H 	H 	0.2876	0.8218	0.296	0.122
Mof_O 	O 	0.53184	0.6264	0.3777	-0.576
Mof_C 	C 	0.24501	0.38697	0.3778	0.179
Mof_H 	H 	0.2627	0.4116	0.296	-0.011
Mof_C 	C 	0.19518	0.31227	0.3781	-0.23
Mof_H 	H 	0.1782	0.2876	0.296	0.122
Mof_O 	O 	0.3736	0.53184	0.3777	-0.576
Mof_C 	C 	0.75499	0.61303	0.3778	0.179
Mof_H 	H 	0.7373	0.5884	0.296	-0.011
Mof_C 	C 	0.80482	0.68773	0.3781	-0.23
Mof_H 	H 	0.8218	0.7124	0.296	0.122
Mof_O 	O 	0.6264	0.46816	0.3777	-0.576
Mof_C 	C 	0.61303	0.75499	0.8778	0.215
Mof_H 	H 	0.5884	0.7373	0.796	-0.017
Mof_C 	C 	0.68773	0.80482	0.8781	-0.174
Mof_H 	H 	0.7124	0.8218	0.796	0.112
Mof_O 	O 	0.46816	0.6264	0.8777	-0.541
Mof_C 	C 	0.38697	0.24501	0.8778	0.215
Mof_H 	H 	0.4116	0.2627	0.796	-0.017
Mof_C 	C 	0.31227	0.19518	0.8781	-0.174
Mof_H 	H 	0.2876	0.1782	0.796	0.112
Mof_O 	O 	0.53184	0.3736	0.8777	-0.541
Mof_C 	C 	0.24501	0.61303	0.8778	0.215
Mof_H 	H 	0.2627	0.5884	0.796	-0.017
Mof_C 	C 	0.19518	0.68773	0.8781	-0.174
Mof_H 	H 	0.1782	0.7124	0.796	0.112
Mof_O 	O 	0.3736	0.46816	0.8777	-0.541
Mof_C 	C 	0.75499	0.38697	0.8778	0.215
Mof_H 	H 	0.7373	0.4116	0.796	-0.017
Mof_C 	C 	0.80482	0.31227	0.8781	-0.174
Mof_H 	H 	0.8218	0.2876	0.796	0.112
Mof_O 	O 	0.6264	0.53184	0.8777	-0.541
Mof_C 	C 	0.38697	0.75499	0.6222	0.181
Mof_H 	H 	0.4116	0.7373	0.704	-0.006
Mof_C 	C 	0.31227	0.80482	0.6219	-0.23
Mof_H 	H 	0.2876	0.8218	0.704	0.131
Mof_O 	O 	0.53184	0.6264	0.6223	-0.576
Mof_C 	C 	0.61303	0.24501	0.6222	0.181
Mof_H 	H 	0.5884	0.2627	0.704	-0.006
Mof_C 	C 	0.68773	0.19518	0.6219	-0.23
Mof_H 	H 	0.7124	0.1782	0.704	0.131
Mof_O 	O 	0.46816	0.3736	0.6223	-0.576
Mof_C 	C 	0.75499	0.61303	0.6222	0.181
Mof_H 	H 	0.7373	0.5884	0.704	-0.006
Mof_C 	C 	0.80482	0.68773	0.6219	-0.23
Mof_H 	H 	0.8218	0.7124	0.704	0.131
Mof_O 	O 	0.6264	0.46816	0.6223	-0.576
Mof_C 	C 	0.24501	0.38697	0.6222	0.181
Mof_H 	H 	0.2627	0.4116	0.704	-0.006
Mof_C 	C 	0.19518	0.31227	0.6219	-0.23
Mof_H 	H 	0.1782	0.2876	0.704	0.131
Mof_O 	O 	0.3736	0.53184	0.6223	-0.576
Mof_Tb	Tb	0.5	0.5	0.25	2.626
Mof_Tb	Tb	0.5	0.5	0.75	2.641
Mof_S 	S 	0.52674	0.32096	-0	0.759
Mof_N 	N 	0.0299	0.1297	-0	-0.119
Mof_C 	C 	0.425	0.2685	-0	-0.286
Mof_C 	C 	0.2735	0.17	-0	0.122
Mof_C 	C 	0.1915	0.1179	-0	-0.118
Mof_C 	C 	0.1127	0.1644	-0	0.115
Mof_C 	C 	0.1058	0.258	-0	-0.105
Mof_H 	H 	0.1516	0.2974	-0	0.089
Mof_C 	C 	0.0207	0.2774	-0	-0.071
Mof_H 	H 	0.9972	0.3331	-0	0.059
Mof_C 	C 	0.972	0.1981	-0	0.109
Mof_O 	O 	0.58954	0.25267	-0	-0.342
Mof_S 	S 	0.47326	0.67904	-0	0.759
Mof_N 	N 	0.9701	0.8703	-0	-0.119
Mof_C 	C 	0.575	0.7315	-0	-0.286
Mof_C 	C 	0.7265	0.83	-0	0.122
Mof_C 	C 	0.8085	0.8821	-0	-0.118
Mof_C 	C 	0.8873	0.8356	-0	0.115
Mof_C 	C 	0.8942	0.742	-0	-0.105
Mof_H 	H 	0.8484	0.7026	-0	0.089
Mof_C 	C 	0.9793	0.7226	-0	-0.071
Mof_H 	H 	0.0028	0.6669	-0	0.059
Mof_C 	C 	0.028	0.8019	-0	0.109
Mof_O 	O 	0.41046	0.74733	-0	-0.342
Mof_S 	S 	0.67904	0.52674	-0	0.759
Mof_N 	N 	0.8703	0.0299	-0	-0.119
Mof_C 	C 	0.7315	0.425	-0	-0.286
Mof_C 	C 	0.83	0.2735	-0	0.122
Mof_C 	C 	0.8821	0.1915	-0	-0.118
Mof_C 	C 	0.8356	0.1127	-0	0.115
Mof_C 	C 	0.742	0.1058	-0	-0.105
Mof_H 	H 	0.7026	0.1516	-0	0.089
Mof_C 	C 	0.7226	0.0207	-0	-0.071
Mof_H 	H 	0.6669	0.9972	-0	0.059
Mof_C 	C 	0.8019	0.972	-0	0.109
Mof_O 	O 	0.74733	0.58954	-0	-0.342
Mof_S 	S 	0.32096	0.47326	-0	0.759
Mof_N 	N 	0.1297	0.9701	-0	-0.119
Mof_C 	C 	0.2685	0.575	-0	-0.286
Mof_C 	C 	0.17	0.7265	-0	0.122
Mof_C 	C 	0.1179	0.8085	-0	-0.118
Mof_C 	C 	0.1644	0.8873	-0	0.115
Mof_C 	C 	0.258	0.8942	-0	-0.105
Mof_H 	H 	0.2974	0.8484	-0	0.089
Mof_C 	C 	0.2774	0.9793	-0	-0.071
Mof_H 	H 	0.3331	0.0028	-0	0.059
Mof_C 	C 	0.1981	0.028	-0	0.109
Mof_O 	O 	0.25267	0.41046	-0	-0.342
Mof_S 	S 	0.47326	0.32096	0.5	0.806
Mof_N 	N 	0.9701	0.1297	0.5	-0.116
Mof_C 	C 	0.575	0.2685	0.5	-0.252
Mof_C 	C 	0.7265	0.17	0.5	0.176
Mof_C 	C 	0.8085	0.1179	0.5	-0.128
Mof_C 	C 	0.8873	0.1644	0.5	0.129
Mof_C 	C 	0.8942	0.258	0.5	-0.1
Mof_H 	H 	0.8484	0.2974	0.5	0.096
Mof_C 	C 	0.9793	0.2774	0.5	-0.069
Mof_H 	H 	0.0028	0.3331	0.5	0.068
Mof_C 	C 	0.028	0.1981	0.5	0.124
Mof_O 	O 	0.41046	0.25267	0.5	-0.338
Mof_S 	S 	0.52674	0.67904	0.5	0.806
Mof_N 	N 	0.0299	0.8703	0.5	-0.116
Mof_C 	C 	0.425	0.7315	0.5	-0.252
Mof_C 	C 	0.2735	0.83	0.5	0.176
Mof_C 	C 	0.1915	0.8821	0.5	-0.128
Mof_C 	C 	0.1127	0.8356	0.5	0.129
Mof_C 	C 	0.1058	0.742	0.5	-0.1
Mof_H 	H 	0.1516	0.7026	0.5	0.096
Mof_C 	C 	0.0207	0.7226	0.5	-0.069
Mof_H 	H 	0.9972	0.6669	0.5	0.068
Mof_C 	C 	0.972	0.8019	0.5	0.124
Mof_O 	O 	0.58954	0.74733	0.5	-0.338
Mof_S 	S 	0.32096	0.52674	0.5	0.806
Mof_N 	N 	0.1297	0.0299	0.5	-0.116
Mof_C 	C 	0.2685	0.425	0.5	-0.252
Mof_C 	C 	0.17	0.2735	0.5	0.176
Mof_C 	C 	0.1179	0.1915	0.5	-0.128
Mof_C 	C 	0.1644	0.1127	0.5	0.129
Mof_C 	C 	0.258	0.1058	0.5	-0.1
Mof_H 	H 	0.2974	0.1516	0.5	0.096
Mof_C 	C 	0.2774	0.0207	0.5	-0.069
Mof_H 	H 	0.3331	0.9972	0.5	0.068
Mof_C 	C 	0.1981	0.972	0.5	0.124
Mof_O 	O 	0.25267	0.58954	0.5	-0.338
Mof_S 	S 	0.67904	0.47326	0.5	0.806
Mof_N 	N 	0.8703	0.9701	0.5	-0.116
Mof_C 	C 	0.7315	0.575	0.5	-0.252
Mof_C 	C 	0.83	0.7265	0.5	0.176
Mof_C 	C 	0.8821	0.8085	0.5	-0.128
Mof_C 	C 	0.8356	0.8873	0.5	0.129
Mof_C 	C 	0.742	0.8942	0.5	-0.1
Mof_H 	H 	0.7026	0.8484	0.5	0.096
Mof_C 	C 	0.7226	0.9793	0.5	-0.069
Mof_H 	H 	0.6669	0.0028	0.5	0.068
Mof_C 	C 	0.8019	0.028	0.5	0.124
Mof_O 	O 	0.74733	0.41046	0.5	-0.338
_end
