# CIF file generated by openbabel 3.1.0, see https://openbabel.org
data_I
_chemical_name_common 'image0'
_cell_length_a 22.425
_cell_length_b 22.425
_cell_length_c 22.425
_cell_angle_alpha 90
_cell_angle_beta 90
_cell_angle_gamma 90
_space_group_name_H-M_alt 'P 1'
_space_group_name_Hall 'P 1'
loop_
    _symmetry_equiv_pos_as_xyz
    x,y,z
loop_
    _atom_site_label
    _atom_site_type_symbol
    _atom_site_fract_x
    _atom_site_fract_y
    _atom_site_fract_z
    _atom_site_occupancy
    Br1      Br       0.66427    0.42066    0.12080    1.000
    C1       C        0.71200    0.41730    0.05220    1.000
    C2       C        0.68500    0.41600    0.99710    1.000
    C3       C        0.77400    0.41520    0.05980    1.000
    O1       O        0.62980    0.41560    0.98760    1.000
    O2       O        0.80240    0.41120    0.10830    1.000
    Br2      Br       0.16427    0.92066    0.62080    1.000
    C4       C        0.21200    0.91730    0.55220    1.000
    C5       C        0.18500    0.91600    0.49710    1.000
    C6       C        0.27400    0.91520    0.55980    1.000
    O3       O        0.12980    0.91560    0.48760    1.000
    O4       O        0.30240    0.91120    0.60830    1.000
    Br3      Br       0.83573    0.57934    0.62080    1.000
    C7       C        0.78800    0.58270    0.55220    1.000
    C8       C        0.81500    0.58400    0.49710    1.000
    C9       C        0.72600    0.58480    0.55980    1.000
    O5       O        0.87020    0.58440    0.48760    1.000
    O6       O        0.69760    0.58880    0.60830    1.000
    Br4      Br       0.33573    0.07934    0.12080    1.000
    C10      C        0.28800    0.08270    0.05220    1.000
    C11      C        0.31500    0.08400    0.99710    1.000
    C12      C        0.22600    0.08480    0.05980    1.000
    O7       O        0.37020    0.08440    0.98760    1.000
    O8       O        0.19760    0.08880    0.10830    1.000
    Br5      Br       0.33573    0.92066    0.37920    1.000
    C13      C        0.28800    0.91730    0.44780    1.000
    C14      C        0.31500    0.91600    0.50290    1.000
    C15      C        0.22600    0.91520    0.44020    1.000
    O9       O        0.37020    0.91560    0.51240    1.000
    O10      O        0.19760    0.91120    0.39170    1.000
    Br6      Br       0.83573    0.42066    0.87920    1.000
    C16      C        0.78800    0.41730    0.94780    1.000
    C17      C        0.81500    0.41600    0.00290    1.000
    C18      C        0.72600    0.41520    0.94020    1.000
    O11      O        0.87020    0.41560    0.01240    1.000
    O12      O        0.69760    0.41120    0.89170    1.000
    Br7      Br       0.16427    0.07934    0.87920    1.000
    C19      C        0.21200    0.08270    0.94780    1.000
    C20      C        0.18500    0.08400    0.00290    1.000
    C21      C        0.27400    0.08480    0.94020    1.000
    O13      O        0.12980    0.08440    0.01240    1.000
    O14      O        0.30240    0.08880    0.89170    1.000
    Br8      Br       0.66427    0.57934    0.37920    1.000
    C22      C        0.71200    0.58270    0.44780    1.000
    C23      C        0.68500    0.58400    0.50290    1.000
    C24      C        0.77400    0.58480    0.44020    1.000
    O15      O        0.62980    0.58440    0.51240    1.000
    O16      O        0.80240    0.58880    0.39170    1.000
    Br9      Br       0.12080    0.66427    0.42066    1.000
    C25      C        0.05220    0.71200    0.41730    1.000
    C26      C        0.99710    0.68500    0.41600    1.000
    C27      C        0.05980    0.77400    0.41520    1.000
    O17      O        0.98760    0.62980    0.41560    1.000
    O18      O        0.10830    0.80240    0.41120    1.000
    Br10     Br       0.62080    0.16427    0.92066    1.000
    C28      C        0.55220    0.21200    0.91730    1.000
    C29      C        0.49710    0.18500    0.91600    1.000
    C30      C        0.55980    0.27400    0.91520    1.000
    O19      O        0.48760    0.12980    0.91560    1.000
    O20      O        0.60830    0.30240    0.91120    1.000
    Br11     Br       0.62080    0.83573    0.57934    1.000
    C31      C        0.55220    0.78800    0.58270    1.000
    C32      C        0.49710    0.81500    0.58400    1.000
    C33      C        0.55980    0.72600    0.58480    1.000
    O21      O        0.48760    0.87020    0.58440    1.000
    O22      O        0.60830    0.69760    0.58880    1.000
    Br12     Br       0.12080    0.33573    0.07934    1.000
    C34      C        0.05220    0.28800    0.08270    1.000
    C35      C        0.99710    0.31500    0.08400    1.000
    C36      C        0.05980    0.22600    0.08480    1.000
    O23      O        0.98760    0.37020    0.08440    1.000
    O24      O        0.10830    0.19760    0.08880    1.000
    Br13     Br       0.37920    0.33573    0.92066    1.000
    C37      C        0.44780    0.28800    0.91730    1.000
    C38      C        0.50290    0.31500    0.91600    1.000
    C39      C        0.44020    0.22600    0.91520    1.000
    O25      O        0.51240    0.37020    0.91560    1.000
    O26      O        0.39170    0.19760    0.91120    1.000
    Br14     Br       0.87920    0.83573    0.42066    1.000
    C40      C        0.94780    0.78800    0.41730    1.000
    C41      C        0.00290    0.81500    0.41600    1.000
    C42      C        0.94020    0.72600    0.41520    1.000
    O27      O        0.01240    0.87020    0.41560    1.000
    O28      O        0.89170    0.69760    0.41120    1.000
    Br15     Br       0.87920    0.16427    0.07934    1.000
    C43      C        0.94780    0.21200    0.08270    1.000
    C44      C        0.00290    0.18500    0.08400    1.000
    C45      C        0.94020    0.27400    0.08480    1.000
    O29      O        0.01240    0.12980    0.08440    1.000
    O30      O        0.89170    0.30240    0.08880    1.000
    Br16     Br       0.37920    0.66427    0.57934    1.000
    C46      C        0.44780    0.71200    0.58270    1.000
    C47      C        0.50290    0.68500    0.58400    1.000
    C48      C        0.44020    0.77400    0.58480    1.000
    O31      O        0.51240    0.62980    0.58440    1.000
    O32      O        0.39170    0.80240    0.58880    1.000
    Br17     Br       0.42066    0.12080    0.66427    1.000
    C49      C        0.41730    0.05220    0.71200    1.000
    C50      C        0.41600    0.99710    0.68500    1.000
    C51      C        0.41520    0.05980    0.77400    1.000
    O33      O        0.41560    0.98760    0.62980    1.000
    O34      O        0.41120    0.10830    0.80240    1.000
    Br18     Br       0.92066    0.62080    0.16427    1.000
    C52      C        0.91730    0.55220    0.21200    1.000
    C53      C        0.91600    0.49710    0.18500    1.000
    C54      C        0.91520    0.55980    0.27400    1.000
    O35      O        0.91560    0.48760    0.12980    1.000
    O36      O        0.91120    0.60830    0.30240    1.000
    Br19     Br       0.57934    0.62080    0.83573    1.000
    C55      C        0.58270    0.55220    0.78800    1.000
    C56      C        0.58400    0.49710    0.81500    1.000
    C57      C        0.58480    0.55980    0.72600    1.000
    O37      O        0.58440    0.48760    0.87020    1.000
    O38      O        0.58880    0.60830    0.69760    1.000
    Br20     Br       0.07934    0.12080    0.33573    1.000
    C58      C        0.08270    0.05220    0.28800    1.000
    C59      C        0.08400    0.99710    0.31500    1.000
    C60      C        0.08480    0.05980    0.22600    1.000
    O39      O        0.08440    0.98760    0.37020    1.000
    O40      O        0.08880    0.10830    0.19760    1.000
    Br21     Br       0.92066    0.37920    0.33573    1.000
    C61      C        0.91730    0.44780    0.28800    1.000
    C62      C        0.91600    0.50290    0.31500    1.000
    C63      C        0.91520    0.44020    0.22600    1.000
    O41      O        0.91560    0.51240    0.37020    1.000
    O42      O        0.91120    0.39170    0.19760    1.000
    Br22     Br       0.42066    0.87920    0.83573    1.000
    C64      C        0.41730    0.94780    0.78800    1.000
    C65      C        0.41600    0.00290    0.81500    1.000
    C66      C        0.41520    0.94020    0.72600    1.000
    O43      O        0.41560    0.01240    0.87020    1.000
    O44      O        0.41120    0.89170    0.69760    1.000
    Br23     Br       0.07934    0.87920    0.16427    1.000
    C67      C        0.08270    0.94780    0.21200    1.000
    C68      C        0.08400    0.00290    0.18500    1.000
    C69      C        0.08480    0.94020    0.27400    1.000
    O45      O        0.08440    0.01240    0.12980    1.000
    O46      O        0.08880    0.89170    0.30240    1.000
    Br24     Br       0.57934    0.37920    0.66427    1.000
    C70      C        0.58270    0.44780    0.71200    1.000
    C71      C        0.58400    0.50290    0.68500    1.000
    C72      C        0.58480    0.44020    0.77400    1.000
    O47      O        0.58440    0.51240    0.62980    1.000
    O48      O        0.58880    0.39170    0.80240    1.000
    Na1      Na       0.60353    0.39647    0.89647    1.000
    Na2      Na       0.10353    0.89647    0.39647    1.000
    Na3      Na       0.89647    0.60353    0.39647    1.000
    Na4      Na       0.39647    0.10353    0.89647    1.000
    Na5      Na       0.39647    0.89647    0.60353    1.000
    Na6      Na       0.89647    0.39647    0.10353    1.000
    Na7      Na       0.10353    0.10353    0.10353    1.000
    Na8      Na       0.60353    0.60353    0.60353    1.000
    Br25     Br       0.67066    0.91427    0.37080    1.000
    C73      C        0.66730    0.96200    0.30220    1.000
    C74      C        0.66600    0.93500    0.24710    1.000
    C75      C        0.66520    0.02400    0.30980    1.000
    O49      O        0.66560    0.87980    0.23760    1.000
    O50      O        0.66120    0.05240    0.35830    1.000
    Br26     Br       0.17066    0.41427    0.87080    1.000
    C76      C        0.16730    0.46200    0.80220    1.000
    C77      C        0.16600    0.43500    0.74710    1.000
    C78      C        0.16520    0.52400    0.80980    1.000
    O51      O        0.16560    0.37980    0.73760    1.000
    O52      O        0.16120    0.55240    0.85830    1.000
    Br27     Br       0.82934    0.08573    0.87080    1.000
    C79      C        0.83270    0.03800    0.80220    1.000
    C80      C        0.83400    0.06500    0.74710    1.000
    C81      C        0.83480    0.97600    0.80980    1.000
    O53      O        0.83440    0.12020    0.73760    1.000
    O54      O        0.83880    0.94760    0.85830    1.000
    Br28     Br       0.32934    0.58573    0.37080    1.000
    C82      C        0.33270    0.53800    0.30220    1.000
    C83      C        0.33400    0.56500    0.24710    1.000
    C84      C        0.33480    0.47600    0.30980    1.000
    O55      O        0.33440    0.62020    0.23760    1.000
    O56      O        0.33880    0.44760    0.35830    1.000
    Br29     Br       0.17066    0.58573    0.62920    1.000
    C85      C        0.16730    0.53800    0.69780    1.000
    C86      C        0.16600    0.56500    0.75290    1.000
    C87      C        0.16520    0.47600    0.69020    1.000
    O57      O        0.16560    0.62020    0.76240    1.000
    O58      O        0.16120    0.44760    0.64170    1.000
    Br30     Br       0.67066    0.08573    0.12920    1.000
    C88      C        0.66730    0.03800    0.19780    1.000
    C89      C        0.66600    0.06500    0.25290    1.000
    C90      C        0.66520    0.97600    0.19020    1.000
    O59      O        0.66560    0.12020    0.26240    1.000
    O60      O        0.66120    0.94760    0.14170    1.000
    Br31     Br       0.32934    0.41427    0.12920    1.000
    C91      C        0.33270    0.46200    0.19780    1.000
    C92      C        0.33400    0.43500    0.25290    1.000
    C93      C        0.33480    0.52400    0.19020    1.000
    O61      O        0.33440    0.37980    0.26240    1.000
    O62      O        0.33880    0.55240    0.14170    1.000
    Br32     Br       0.82934    0.91427    0.62920    1.000
    C94      C        0.83270    0.96200    0.69780    1.000
    C95      C        0.83400    0.93500    0.75290    1.000
    C96      C        0.83480    0.02400    0.69020    1.000
    O63      O        0.83440    0.87980    0.76240    1.000
    O64      O        0.83880    0.05240    0.64170    1.000
    Br33     Br       0.91427    0.37080    0.67066    1.000
    C97      C        0.96200    0.30220    0.66730    1.000
    C98      C        0.93500    0.24710    0.66600    1.000
    C99      C        0.02400    0.30980    0.66520    1.000
    O65      O        0.87980    0.23760    0.66560    1.000
    O66      O        0.05240    0.35830    0.66120    1.000
    Br34     Br       0.41427    0.87080    0.17066    1.000
    C100     C        0.46200    0.80220    0.16730    1.000
    C101     C        0.43500    0.74710    0.16600    1.000
    C102     C        0.52400    0.80980    0.16520    1.000
    O67      O        0.37980    0.73760    0.16560    1.000
    O68      O        0.55240    0.85830    0.16120    1.000
    Br35     Br       0.08573    0.87080    0.82934    1.000
    C103     C        0.03800    0.80220    0.83270    1.000
    C104     C        0.06500    0.74710    0.83400    1.000
    C105     C        0.97600    0.80980    0.83480    1.000
    O69      O        0.12020    0.73760    0.83440    1.000
    O70      O        0.94760    0.85830    0.83880    1.000
    Br36     Br       0.58573    0.37080    0.32934    1.000
    C106     C        0.53800    0.30220    0.33270    1.000
    C107     C        0.56500    0.24710    0.33400    1.000
    C108     C        0.47600    0.30980    0.33480    1.000
    O71      O        0.62020    0.23760    0.33440    1.000
    O72      O        0.44760    0.35830    0.33880    1.000
    Br37     Br       0.58573    0.62920    0.17066    1.000
    C109     C        0.53800    0.69780    0.16730    1.000
    C110     C        0.56500    0.75290    0.16600    1.000
    C111     C        0.47600    0.69020    0.16520    1.000
    O73      O        0.62020    0.76240    0.16560    1.000
    O74      O        0.44760    0.64170    0.16120    1.000
    Br38     Br       0.08573    0.12920    0.67066    1.000
    C112     C        0.03800    0.19780    0.66730    1.000
    C113     C        0.06500    0.25290    0.66600    1.000
    C114     C        0.97600    0.19020    0.66520    1.000
    O75      O        0.12020    0.26240    0.66560    1.000
    O76      O        0.94760    0.14170    0.66120    1.000
    Br39     Br       0.41427    0.12920    0.32934    1.000
    C115     C        0.46200    0.19780    0.33270    1.000
    C116     C        0.43500    0.25290    0.33400    1.000
    C117     C        0.52400    0.19020    0.33480    1.000
    O77      O        0.37980    0.26240    0.33440    1.000
    O78      O        0.55240    0.14170    0.33880    1.000
    Br40     Br       0.91427    0.62920    0.82934    1.000
    C118     C        0.96200    0.69780    0.83270    1.000
    C119     C        0.93500    0.75290    0.83400    1.000
    C120     C        0.02400    0.69020    0.83480    1.000
    O79      O        0.87980    0.76240    0.83440    1.000
    O80      O        0.05240    0.64170    0.83880    1.000
    Br41     Br       0.37080    0.67066    0.91427    1.000
    C121     C        0.30220    0.66730    0.96200    1.000
    C122     C        0.24710    0.66600    0.93500    1.000
    C123     C        0.30980    0.66520    0.02400    1.000
    O81      O        0.23760    0.66560    0.87980    1.000
    O82      O        0.35830    0.66120    0.05240    1.000
    Br42     Br       0.87080    0.17066    0.41427    1.000
    C124     C        0.80220    0.16730    0.46200    1.000
    C125     C        0.74710    0.16600    0.43500    1.000
    C126     C        0.80980    0.16520    0.52400    1.000
    O83      O        0.73760    0.16560    0.37980    1.000
    O84      O        0.85830    0.16120    0.55240    1.000
    Br43     Br       0.87080    0.82934    0.08573    1.000
    C127     C        0.80220    0.83270    0.03800    1.000
    C128     C        0.74710    0.83400    0.06500    1.000
    C129     C        0.80980    0.83480    0.97600    1.000
    O85      O        0.73760    0.83440    0.12020    1.000
    O86      O        0.85830    0.83880    0.94760    1.000
    Br44     Br       0.37080    0.32934    0.58573    1.000
    C130     C        0.30220    0.33270    0.53800    1.000
    C131     C        0.24710    0.33400    0.56500    1.000
    C132     C        0.30980    0.33480    0.47600    1.000
    O87      O        0.23760    0.33440    0.62020    1.000
    O88      O        0.35830    0.33880    0.44760    1.000
    Br45     Br       0.62920    0.17066    0.58573    1.000
    C133     C        0.69780    0.16730    0.53800    1.000
    C134     C        0.75290    0.16600    0.56500    1.000
    C135     C        0.69020    0.16520    0.47600    1.000
    O89      O        0.76240    0.16560    0.62020    1.000
    O90      O        0.64170    0.16120    0.44760    1.000
    Br46     Br       0.12920    0.67066    0.08573    1.000
    C136     C        0.19780    0.66730    0.03800    1.000
    C137     C        0.25290    0.66600    0.06500    1.000
    C138     C        0.19020    0.66520    0.97600    1.000
    O91      O        0.26240    0.66560    0.12020    1.000
    O92      O        0.14170    0.66120    0.94760    1.000
    Br47     Br       0.12920    0.32934    0.41427    1.000
    C139     C        0.19780    0.33270    0.46200    1.000
    C140     C        0.25290    0.33400    0.43500    1.000
    C141     C        0.19020    0.33480    0.52400    1.000
    O93      O        0.26240    0.33440    0.37980    1.000
    O94      O        0.14170    0.33880    0.55240    1.000
    Br48     Br       0.62920    0.82934    0.91427    1.000
    C142     C        0.69780    0.83270    0.96200    1.000
    C143     C        0.75290    0.83400    0.93500    1.000
    C144     C        0.69020    0.83480    0.02400    1.000
    O95      O        0.76240    0.83440    0.87980    1.000
    O96      O        0.64170    0.83880    0.05240    1.000
    Na9      Na       0.64647    0.85353    0.14647    1.000
    Na10     Na       0.14647    0.35353    0.64647    1.000
    Na11     Na       0.85353    0.14647    0.64647    1.000
    Na12     Na       0.35353    0.64647    0.14647    1.000
    Na13     Na       0.14647    0.64647    0.85353    1.000
    Na14     Na       0.64647    0.14647    0.35353    1.000
    Na15     Na       0.35353    0.35353    0.35353    1.000
    Na16     Na       0.85353    0.85353    0.85353    1.000
