# CIF file generated by openbabel 3.1.0, see https://openbabel.org
data_I
_chemical_name_common 'SIZNIA_clean'
_cell_length_a 8.8621
_cell_length_b 13.9812
_cell_length_c 16.3993
_cell_angle_alpha 66.3522
_cell_angle_beta 74.3241
_cell_angle_gamma 71.5228
_space_group_name_H-M_alt 'P 1'
_space_group_name_Hall 'P 1'
loop_
    _symmetry_equiv_pos_as_xyz
    x,y,z
loop_
    _atom_site_label
    _atom_site_type_symbol
    _atom_site_fract_x
    _atom_site_fract_y
    _atom_site_fract_z
    _atom_site_occupancy
    Cu1      Cu       0.00000    0.00000    0.00000    1.000
    Cu2      Cu       0.50000    0.50000    0.00000    1.000
    Cu3      Cu       0.00000    0.00000    0.50000    1.000
    Cu4      Cu       0.00000    0.50000    0.50000    1.000
    H1       H        0.58970    0.13450    0.34710    1.000
    H2       H        0.37850    0.54970    0.64310    1.000
    H3       H        0.88210    0.39600    0.16920    1.000
    H4       H        0.41460    0.71500    0.86020    1.000
    H5       H        0.98980    0.78500    0.63980    1.000
    H6       H        0.96210    0.95450    0.34610    1.000
    H7       H        0.25280    0.79600    0.01420    1.000
    H8       H        0.44730    0.10400    0.33080    1.000
    H9       H        0.29010    0.27990    0.37170    1.000
    H10      H        0.62150    0.45030    0.35690    1.000
    H11      H        0.51920    0.71280    0.37120    1.000
    H12      H        0.34890    0.46130    0.41770    1.000
    H13      H        0.58540    0.28500    0.13980    1.000
    H14      H        0.05830    0.77990    0.87170    1.000
    H15      H        0.70530    0.53220    0.35920    1.000
    H16      H        0.03790    0.04550    0.65390    1.000
    H17      H        0.59670    0.96780    0.14080    1.000
    H18      H        0.29470    0.46780    0.64080    1.000
    H19      H        0.92870    0.63450    0.84710    1.000
    H20      H        0.11790    0.60400    0.83080    1.000
    H21      H        0.93700    0.29600    0.51420    1.000
    H22      H        0.62680    0.55810    0.27550    1.000
    H23      H        0.02490    0.61870    0.75610    1.000
    H24      H        0.70990    0.72010    0.62830    1.000
    H25      H        0.46040    0.94190    0.22450    1.000
    H26      H        0.01020    0.21500    0.36020    1.000
    H27      H        0.39970    0.88130    0.74390    1.000
    H28      H        0.07130    0.36550    0.15290    1.000
    H29      H        0.06300    0.70400    0.48580    1.000
    H30      H        0.60320    0.78720    0.12880    1.000
    H31      H        0.41030    0.86550    0.65290    1.000
    H32      H        0.55270    0.89600    0.66920    1.000
    H33      H        0.26270    0.54550    0.15390    1.000
    H34      H        0.94170    0.22010    0.12830    1.000
    H35      H        0.40330    0.03220    0.85920    1.000
    H36      H        0.97510    0.38130    0.24390    1.000
    H37      H        0.37320    0.44190    0.72450    1.000
    H38      H        0.73730    0.45450    0.84610    1.000
    H39      H        0.74720    0.20400    0.98580    1.000
    H40      H        0.53960    0.05810    0.77550    1.000
    H41      H        0.48080    0.28720    0.62880    1.000
    H42      H        0.39680    0.21280    0.87120    1.000
    H43      H        0.42870    0.04970    0.14310    1.000
    H44      H        0.22790    0.03870    0.08230    1.000
    H45      H        0.65110    0.53870    0.58230    1.000
    H46      H        0.77210    0.96130    0.91770    1.000
    H47      H        0.57130    0.95030    0.85690    1.000
    H48      H        0.60030    0.11870    0.25610    1.000
    C1       C        0.32556    0.31558    0.31130    1.000
    C2       C        0.02400    0.64400    0.80280    1.000
    C3       C        0.08358    0.98274    0.82070    1.000
    C4       C        0.99347    0.18026    0.32660    1.000
    C5       C        0.11298    0.48274    0.32070    1.000
    C6       C        0.25309    0.42182    0.27080    1.000
    C7       C        0.45923    0.57924    0.38410    1.000
    C8       C        0.38235    0.47500    0.66010    1.000
    C9       C        0.50033    0.31974    0.17340    1.000
    C10      C        0.02492    0.76156    0.76220    1.000
    C11      C        0.94571    0.07818    0.22920    1.000
    C12      C        0.04756    0.81558    0.81130    1.000
    C13      C        0.28112    0.97026    0.08070    1.000
    C14      C        0.29711    0.82856    0.03862    1.000
    C15      C        0.47080    0.85600    0.69720    1.000
    C16      C        0.74396    0.16978    0.55450    1.000
    C17      C        0.54868    0.73844    0.73780    1.000
    C18      C        0.33208    0.52974    0.41930    1.000
    C19      C        0.95244    0.18442    0.18870    1.000
    C20      C        0.88702    0.51726    0.67930    1.000
    C21      C        0.68959    0.52666    0.81856    1.000
    C22      C        0.57743    0.07924    0.88410    1.000
    C23      C        0.56468    0.32204    0.60760    1.000
    C24      C        0.83571    0.32856    0.53862    1.000
    C25      C        0.49432    0.17796    0.89240    1.000
    C26      C        0.28657    0.72504    0.43222    1.000
    C27      C        0.48255    0.97500    0.16010    1.000
    C28      C        0.05429    0.92182    0.77080    1.000
    C29      C        0.45132    0.26156    0.26220    1.000
    C30      C        0.53176    0.66978    0.05450    1.000
    C31      C        0.16429    0.67144    0.46138    1.000
    C32      C        0.51745    0.02500    0.83990    1.000
    C33      C        0.66792    0.47026    0.58070    1.000
    C34      C        0.67444    0.68442    0.68870    1.000
    C35      C        0.43532    0.67796    0.39240    1.000
    C36      C        0.71343    0.27496    0.56778    1.000
    C37      C        0.52920    0.14400    0.30280    1.000
    C38      C        0.03481    0.97334    0.68144    1.000
    C39      C        0.54077    0.42076    0.61590    1.000
    C40      C        0.71888    0.02974    0.91930    1.000
    C41      C        0.55617    0.22504    0.93222    1.000
    C42      C        0.42257    0.92076    0.11590    1.000
    C43      C        0.96519    0.02666    0.31856    1.000
    C44      C        0.46824    0.33022    0.94550    1.000
    C45      C        0.31041    0.47334    0.18144    1.000
    C46      C        0.61765    0.52500    0.33990    1.000
    C47      C        0.49967    0.68026    0.82660    1.000
    C48      C        0.70289    0.17144    0.96138    1.000
    C49      C        0.44383    0.77496    0.06778    1.000
    C50      C        0.00653    0.81974    0.67340    1.000
    C51      C        0.97600    0.35600    0.19720    1.000
    C52      C        0.74691    0.57818    0.72920    1.000
    C53      C        0.97508    0.23844    0.23780    1.000
    C54      C        0.91642    0.01726    0.17930    1.000
    C55      C        0.50568    0.82204    0.10760    1.000
    C56      C        0.25604    0.83022    0.44550    1.000
    N1       N        0.01153    0.92297    0.63297    1.000
    N2       N        0.56747    0.57703    0.86703    1.000
    N3       N        0.18506    0.57470    0.45598    1.000
    N4       N        0.78426    0.07470    0.95598    1.000
    N5       N        0.21574    0.92530    0.04402    1.000
    N6       N        0.98847    0.07703    0.36703    1.000
    N7       N        0.43253    0.42297    0.13297    1.000
    N8       N        0.81494    0.42530    0.54402    1.000
    O1       O        0.96378    0.42891    0.72273    1.000
    O2       O        0.63300    0.12440    0.57560    1.000
    O3       O        0.33300    0.37560    0.92440    1.000
    O4       O        0.08745    0.43586    0.40504    1.000
    O5       O        0.45479    0.63510    0.02212    1.000
    O6       O        0.07165    0.93586    0.90504    1.000
    O7       O        0.11542    0.07109    0.77727    1.000
    O8       O        0.88458    0.92891    0.22273    1.000
    O9       O        0.36700    0.87560    0.42440    1.000
    O10      O        0.91255    0.56414    0.59496    1.000
    O11      O        0.92835    0.06414    0.09496    1.000
    O12      O        0.88799    0.13510    0.52212    1.000
    O13      O        0.11201    0.86490    0.47788    1.000
    O14      O        0.54521    0.36490    0.97788    1.000
    O15      O        0.03622    0.57109    0.27727    1.000
    O16      O        0.66700    0.62440    0.07560    1.000
