# CIF file generated by openbabel 3.1.0, see https://openbabel.org
data_I
_chemical_name_common 'image0'
_cell_length_a 9.7932
_cell_length_b 10.6592
_cell_length_c 17.5643
_cell_angle_alpha 83.846
_cell_angle_beta 86.318
_cell_angle_gamma 65.184
_space_group_name_H-M_alt 'P 1'
_space_group_name_Hall 'P 1'
loop_
    _symmetry_equiv_pos_as_xyz
    x,y,z
loop_
    _atom_site_label
    _atom_site_type_symbol
    _atom_site_fract_x
    _atom_site_fract_y
    _atom_site_fract_z
    _atom_site_occupancy
    U1       U        0.94280    0.18545    0.75110    1.000
    U2       U        0.31303    0.28899    0.74961    1.000
    U3       U        0.62490    0.73917    0.75104    1.000
    P1       P        0.68630    0.02060    0.81288    1.000
    P2       P        0.00650    0.50380    0.68074    1.000
    P3       P        0.75470    0.02660    0.17183    1.000
    P4       P        0.57550    0.45170    0.67835    1.000
    O1       O        0.79390    0.06760    0.76570    1.000
    O2       O        0.72210    0.86910    0.80430    1.000
    O3       O        0.52350    0.11230    0.79330    1.000
    O4       O        0.03530    0.35890    0.72030    1.000
    O5       O        0.14540    0.52390    0.69940    1.000
    O6       O        0.86210    0.61730    0.70500    1.000
    O7       O        0.78740    0.87790    0.20920    1.000
    O8       O        0.89830    0.04270    0.18640    1.000
    O9       O        0.61270    0.13830    0.20240    1.000
    O10      O        0.74050    0.35190    0.68840    1.000
    O11      O        0.47180    0.39900    0.72490    1.000
    O12      O        0.54670    0.59810    0.69880    1.000
    C1       C        0.58790    0.10920    0.95750    1.000
    H1       H        0.49300    0.16380    0.93490    1.000
    C2       C        0.70540    0.03190    0.91240    1.000
    C3       C        0.83970    0.95500    0.94850    1.000
    H2       H        0.92650    0.90450    0.91900    1.000
    C4       C        0.92890    0.62240    0.53320    1.000
    H3       H        0.88000    0.70750    0.55600    1.000
    C5       C        0.99930    0.49970    0.58110    1.000
    C6       C        0.07270    0.37520    0.54540    1.000
    H4       H        0.12300    0.28990    0.57540    1.000
    C7       C        0.85060    0.95100    0.02600    1.000
    H5       H        0.94340    0.89130    0.04910    1.000
    C8       C        0.73600    0.02820    0.07140    1.000
    C9       C        0.60280    0.11030    0.03430    1.000
    H6       H        0.51930    0.16920    0.06310    1.000
    C10      C        0.38800    0.51010    0.55410    1.000
    H7       H        0.31040    0.51780    0.59110    1.000
    C11      C        0.53490    0.47120    0.57910    1.000
    C12      C        0.64720    0.46260    0.52280    1.000
    H8       H        0.74740    0.43790    0.53770    1.000
    U4       U        0.05720    0.81455    0.24890    1.000
    U5       U        0.68697    0.71101    0.25039    1.000
    U6       U        0.37510    0.26083    0.24896    1.000
    P5       P        0.31370    0.97940    0.18712    1.000
    P6       P        0.99350    0.49620    0.31926    1.000
    P7       P        0.24530    0.97340    0.82817    1.000
    P8       P        0.42450    0.54830    0.32165    1.000
    O13      O        0.20610    0.93240    0.23430    1.000
    O14      O        0.27790    0.13090    0.19570    1.000
    O15      O        0.47650    0.88770    0.20670    1.000
    O16      O        0.96470    0.64110    0.27970    1.000
    O17      O        0.85460    0.47610    0.30060    1.000
    O18      O        0.13790    0.38270    0.29500    1.000
    O19      O        0.21260    0.12210    0.79080    1.000
    O20      O        0.10170    0.95730    0.81360    1.000
    O21      O        0.38730    0.86170    0.79760    1.000
    O22      O        0.25950    0.64810    0.31160    1.000
    O23      O        0.52820    0.60100    0.27510    1.000
    O24      O        0.45330    0.40190    0.30120    1.000
    C13      C        0.41210    0.89080    0.04250    1.000
    H9       H        0.50700    0.83620    0.06510    1.000
    C14      C        0.29460    0.96810    0.08760    1.000
    C15      C        0.16030    0.04500    0.05150    1.000
    H10      H        0.07350    0.09550    0.08100    1.000
    C16      C        0.07110    0.37760    0.46680    1.000
    H11      H        0.12000    0.29250    0.44400    1.000
    C17      C        0.00070    0.50030    0.41890    1.000
    C18      C        0.92730    0.62480    0.45460    1.000
    H12      H        0.87700    0.71010    0.42460    1.000
    C19      C        0.14940    0.04900    0.97400    1.000
    H13      H        0.05660    0.10870    0.95090    1.000
    C20      C        0.26400    0.97180    0.92860    1.000
    C21      C        0.39720    0.88970    0.96570    1.000
    H14      H        0.48070    0.83080    0.93690    1.000
    C22      C        0.61200    0.48990    0.44590    1.000
    H15      H        0.68960    0.48220    0.40890    1.000
    C23      C        0.46510    0.52880    0.42090    1.000
    C24      C        0.35280    0.53740    0.47720    1.000
    H16      H        0.25260    0.56210    0.46230    1.000
