# CIF file generated by openbabel 3.1.0, see https://openbabel.org
data_I
_chemical_name_common 'ZILFOR'
_cell_length_a 26.07
_cell_length_b 26.07
_cell_length_c 18.601
_cell_angle_alpha 90
_cell_angle_beta 90
_cell_angle_gamma 90
_space_group_name_H-M_alt 'P 1'
_space_group_name_Hall 'P 1'
loop_
    _symmetry_equiv_pos_as_xyz
    x,y,z
loop_
    _atom_site_label
    _atom_site_type_symbol
    _atom_site_fract_x
    _atom_site_fract_y
    _atom_site_fract_z
    _atom_site_occupancy
    C1       C        0.36590    0.74580    0.57260    1.000
    C2       C        0.69330    0.73760    0.44150    1.000
    C3       C        0.66900    0.74550    0.51090    1.000
    C4       C        0.69360    0.75500    0.57090    1.000
    H5       H        0.72920    0.75420    0.57100    1.000
    C6       C        0.66700    0.76640    0.63590    1.000
    C7       C        0.61470    0.76320    0.63440    1.000
    H8       H        0.59650    0.76860    0.67670    1.000
    C9       C        0.58770    0.75200    0.57160    1.000
    C10      C        0.61560    0.74310    0.50820    1.000
    H11      H        0.59880    0.73590    0.46530    1.000
    C12      C        0.69900    0.77230    0.70380    1.000
    C13      C        0.53030    0.74930    0.57220    1.000
    C14      C        0.50300    0.78480    0.61390    1.000
    H15      H        0.52030    0.81030    0.63920    1.000
    C16      C        0.45040    0.78150    0.61670    1.000
    H17      H        0.43280    0.80260    0.64850    1.000
    C18      C        0.42190    0.74680    0.57260    1.000
    C19      C        0.45060    0.71460    0.53230    1.000
    H20      H        0.43420    0.68990    0.50440    1.000
    C21      C        0.50250    0.71710    0.53140    1.000
    H22      H        0.52000    0.69510    0.50060    1.000
    C23      C        0.74300    0.82430    0.31620    1.000
    C24      C        0.73850    0.88160    0.28280    1.000
    C25      C        0.78240    0.91160    0.28910    1.000
    H26      H        0.81240    0.89730    0.30710    1.000
    C27      C        0.78130    0.96280    0.26840    1.000
    H28      H        0.81060    0.98280    0.27270    1.000
    C29      C        0.73630    0.98410    0.24150    1.000
    C30      C        0.69250    0.95410    0.23520    1.000
    H31      H        0.66240    0.96840    0.21720    1.000
    C32      C        0.69350    0.90290    0.25580    1.000
    H33      H        0.66420    0.88280    0.25160    1.000
    C34      C        0.73830    0.20600    0.95240    1.000
    C35      C        0.74460    0.18000    0.88430    1.000
    C36      C        0.74370    0.12710    0.88320    1.000
    H37      H        0.73770    0.10950    0.92600    1.000
    C38      C        0.74710    0.87920    0.82010    1.000
    C39      C        0.74710    0.93360    0.81940    1.000
    C40      C        0.78520    0.95890    0.77820    1.000
    H41      H        0.81020    0.94060    0.75320    1.000
    C42      C        0.78370    0.01430    0.77670    1.000
    H43      H        0.80570    0.03190    0.74610    1.000
    C44      C        0.74980    0.04180    0.81990    1.000
    C45      C        0.71670    0.01440    0.86330    1.000
    H46      H        0.69520    0.03180    0.89490    1.000
    C47      C        0.71540    0.96210    0.86050    1.000
    H48      H        0.69110    0.94520    0.88840    1.000
    C49      C        0.77450    0.20670    0.69050    1.000
    C50      C        0.76630    0.17830    0.75700    1.000
    C51      C        0.76260    0.12560    0.75970    1.000
    H52      H        0.76800    0.10710    0.71750    1.000
    C53      C        0.75140    0.09900    0.82070    1.000
    C54      C        0.75640    0.20440    0.82120    1.000
    H55      H        0.75790    0.24000    0.82110    1.000
    C56      C        0.72540    0.68840    0.84370    1.000
    C57      C        0.73390    0.62900    0.85140    1.000
    C58      C        0.77810    0.59950    0.84530    1.000
    H59      H        0.80700    0.61300    0.82290    1.000
    C60      C        0.77910    0.54990    0.87260    1.000
    H61      H        0.80870    0.53020    0.86850    1.000
    C62      C        0.73590    0.52980    0.90610    1.000
    C63      C        0.69170    0.55930    0.91220    1.000
    H64      H        0.66270    0.54590    0.93460    1.000
    C65      C        0.69070    0.60890    0.88480    1.000
    H66      H        0.66110    0.62870    0.88890    1.000
    N67      N        0.73460    0.13800    0.15580    1.000
    C68      C        0.69070    0.11600    0.18500    1.000
    H69      H        0.66000    0.13420    0.18520    1.000
    C70      C        0.69270    0.06690    0.21380    1.000
    H71      H        0.66330    0.05220    0.23340    1.000
    C72      C        0.73850    0.03970    0.21340    1.000
    C73      C        0.78240    0.06160    0.18420    1.000
    H74      H        0.81310    0.04340    0.18400    1.000
    C75      C        0.78050    0.11080    0.15540    1.000
    H76      H        0.80980    0.12550    0.13580    1.000
    N77      N        0.72810    0.37347    0.98350    1.000
    C78      C        0.68369    0.40259    0.97700    1.000
    H79      H        0.65250    0.38950    0.99300    1.000
    C80      C        0.68584    0.45125    0.94660    1.000
    H81      H        0.65610    0.47070    0.94230    1.000
    C82      C        0.73240    0.47080    0.92270    1.000
    C83      C        0.77680    0.44170    0.92910    1.000
    H84      H        0.80800    0.45480    0.91310    1.000
    C85      C        0.77469    0.39300    0.95950    1.000
    H86      H        0.80440    0.37350    0.96390    1.000
    O87      O        0.74339    0.77200    0.70370    1.000
    O88      O        0.73651    0.25490    0.95010    1.000
    O89      O        0.67224    0.78292    0.75840    1.000
    O90      O        0.72714    0.18163    0.00770    1.000
    O91      O        0.78374    0.18346    0.63540    1.000
    O92      O        0.77510    0.25834    0.69260    1.000
    O93      O        0.77840    0.85447    0.78210    1.000
    O94      O        0.71450    0.85373    0.85570    1.000
    O95      O        0.74217    0.73897    0.44260    1.000
    O96      O        0.67031    0.72729    0.38520    1.000
    O97      O        0.78240    0.70330    0.80290    1.000
    O98      O        0.69530    0.70830    0.84940    1.000
    O99      O        0.34371    0.70946    0.53630    1.000
    O100     O        0.34104    0.78199    0.60940    1.000
    O101     O        0.78230    0.80630    0.33440    1.000
    O102     O        0.70270    0.80800    0.29260    1.000
    Cu103    Cu       0.78757    0.77874    0.78728    1.000
    Cu104    Cu       0.70006    0.73122    0.28638    1.000
    Cu105    Cu       0.69908    0.78108    0.85659    1.000
    Cu106    Cu       0.78795    0.73241    0.35610    1.000
    C107     C        0.63410    0.25420    0.07260    1.000
    C108     C        0.30670    0.26240    0.94150    1.000
    C109     C        0.33100    0.25450    0.01090    1.000
    C110     C        0.30640    0.24500    0.07090    1.000
    H111     H        0.27080    0.24580    0.07100    1.000
    C112     C        0.33300    0.23360    0.13590    1.000
    C113     C        0.38530    0.23680    0.13440    1.000
    H114     H        0.40350    0.23140    0.17670    1.000
    C115     C        0.41230    0.24800    0.07160    1.000
    C116     C        0.38440    0.25690    0.00820    1.000
    H117     H        0.40120    0.26410    0.96530    1.000
    C118     C        0.30100    0.22770    0.20380    1.000
    C119     C        0.46970    0.25070    0.07220    1.000
    C120     C        0.49700    0.21520    0.11390    1.000
    H121     H        0.47970    0.18970    0.13920    1.000
    C122     C        0.54960    0.21850    0.11670    1.000
    H123     H        0.56720    0.19740    0.14850    1.000
    C124     C        0.57810    0.25320    0.07260    1.000
    C125     C        0.54940    0.28540    0.03230    1.000
    H126     H        0.56580    0.31010    0.00440    1.000
    C127     C        0.49750    0.28290    0.03140    1.000
    H128     H        0.48000    0.30490    0.00060    1.000
    C129     C        0.25700    0.17570    0.81620    1.000
    C130     C        0.26150    0.11840    0.78280    1.000
    C131     C        0.21760    0.08840    0.78910    1.000
    H132     H        0.18760    0.10270    0.80710    1.000
    C133     C        0.21870    0.03720    0.76840    1.000
    H134     H        0.18940    0.01720    0.77270    1.000
    C135     C        0.26370    0.01590    0.74150    1.000
    C136     C        0.30750    0.04590    0.73520    1.000
    H137     H        0.33760    0.03160    0.71720    1.000
    C138     C        0.30650    0.09710    0.75580    1.000
    H139     H        0.33580    0.11720    0.75160    1.000
    C140     C        0.26170    0.79400    0.45240    1.000
    C141     C        0.25540    0.82000    0.38430    1.000
    C142     C        0.25630    0.87290    0.38320    1.000
    H143     H        0.26230    0.89050    0.42600    1.000
    C144     C        0.25290    0.12080    0.32010    1.000
    C145     C        0.25290    0.06640    0.31940    1.000
    C146     C        0.21480    0.04110    0.27820    1.000
    H147     H        0.18980    0.05940    0.25320    1.000
    C148     C        0.21630    0.98570    0.27670    1.000
    H149     H        0.19430    0.96810    0.24610    1.000
    C150     C        0.25020    0.95820    0.31990    1.000
    C151     C        0.28330    0.98560    0.36330    1.000
    H152     H        0.30480    0.96820    0.39490    1.000
    C153     C        0.28460    0.03790    0.36050    1.000
    H154     H        0.30890    0.05480    0.38840    1.000
    C155     C        0.22550    0.79330    0.19050    1.000
    C156     C        0.23370    0.82170    0.25700    1.000
    C157     C        0.23740    0.87440    0.25970    1.000
    H158     H        0.23200    0.89290    0.21750    1.000
    C159     C        0.24860    0.90100    0.32070    1.000
    C160     C        0.24360    0.79560    0.32120    1.000
    H161     H        0.24210    0.76000    0.32110    1.000
    C162     C        0.27460    0.31160    0.34370    1.000
    C163     C        0.26610    0.37100    0.35140    1.000
    C164     C        0.22190    0.40050    0.34530    1.000
    H165     H        0.19300    0.38700    0.32290    1.000
    C166     C        0.22090    0.45010    0.37260    1.000
    H167     H        0.19130    0.46980    0.36850    1.000
    C168     C        0.26410    0.47020    0.40610    1.000
    C169     C        0.30830    0.44070    0.41220    1.000
    H170     H        0.33730    0.45410    0.43460    1.000
    C171     C        0.30930    0.39110    0.38480    1.000
    H172     H        0.33890    0.37130    0.38890    1.000
    N173     N        0.26540    0.86200    0.65580    1.000
    C174     C        0.30930    0.88400    0.68500    1.000
    H175     H        0.34000    0.86580    0.68520    1.000
    C176     C        0.30730    0.93310    0.71380    1.000
    H177     H        0.33670    0.94780    0.73340    1.000
    C178     C        0.26150    0.96030    0.71340    1.000
    C179     C        0.21760    0.93840    0.68420    1.000
    H180     H        0.18690    0.95660    0.68400    1.000
    C181     C        0.21950    0.88920    0.65540    1.000
    H182     H        0.19020    0.87450    0.63580    1.000
    N183     N        0.27190    0.62653    0.48350    1.000
    C184     C        0.31631    0.59741    0.47700    1.000
    H185     H        0.34750    0.61050    0.49300    1.000
    C186     C        0.31416    0.54875    0.44660    1.000
    H187     H        0.34390    0.52930    0.44230    1.000
    C188     C        0.26760    0.52920    0.42270    1.000
    C189     C        0.22320    0.55830    0.42910    1.000
    H190     H        0.19200    0.54520    0.41310    1.000
    C191     C        0.22531    0.60700    0.45950    1.000
    H192     H        0.19560    0.62650    0.46390    1.000
    O193     O        0.25661    0.22800    0.20370    1.000
    O194     O        0.26349    0.74510    0.45010    1.000
    O195     O        0.32776    0.21708    0.25840    1.000
    O196     O        0.27286    0.81837    0.50770    1.000
    O197     O        0.21626    0.81654    0.13540    1.000
    O198     O        0.22490    0.74166    0.19260    1.000
    O199     O        0.22160    0.14553    0.28210    1.000
    O200     O        0.28550    0.14627    0.35570    1.000
    O201     O        0.25783    0.26103    0.94260    1.000
    O202     O        0.32969    0.27271    0.88520    1.000
    O203     O        0.21760    0.29670    0.30290    1.000
    O204     O        0.30470    0.29170    0.34940    1.000
    O205     O        0.65629    0.29054    0.03630    1.000
    O206     O        0.65896    0.21801    0.10940    1.000
    O207     O        0.21770    0.19370    0.83440    1.000
    O208     O        0.29730    0.19200    0.79260    1.000
    Cu209    Cu       0.21243    0.22126    0.28728    1.000
    Cu210    Cu       0.29994    0.26878    0.78638    1.000
    Cu211    Cu       0.30092    0.21892    0.35659    1.000
    Cu212    Cu       0.21205    0.26759    0.85610    1.000
    C213     C        0.25420    0.36590    0.82260    1.000
    C214     C        0.26240    0.69330    0.69150    1.000
    C215     C        0.25450    0.66900    0.76090    1.000
    C216     C        0.24500    0.69360    0.82090    1.000
    H217     H        0.24580    0.72920    0.82100    1.000
    C218     C        0.23360    0.66700    0.88590    1.000
    C219     C        0.23680    0.61470    0.88440    1.000
    H220     H        0.23140    0.59650    0.92670    1.000
    C221     C        0.24800    0.58770    0.82160    1.000
    C222     C        0.25690    0.61560    0.75820    1.000
    H223     H        0.26410    0.59880    0.71530    1.000
    C224     C        0.22770    0.69900    0.95380    1.000
    C225     C        0.25070    0.53030    0.82220    1.000
    C226     C        0.21520    0.50300    0.86390    1.000
    H227     H        0.18970    0.52030    0.88920    1.000
    C228     C        0.21850    0.45040    0.86670    1.000
    H229     H        0.19740    0.43280    0.89850    1.000
    C230     C        0.25320    0.42190    0.82260    1.000
    C231     C        0.28540    0.45060    0.78230    1.000
    H232     H        0.31010    0.43420    0.75440    1.000
    C233     C        0.28290    0.50250    0.78140    1.000
    H234     H        0.30490    0.52000    0.75060    1.000
    C235     C        0.17570    0.74300    0.56620    1.000
    C236     C        0.11840    0.73850    0.53280    1.000
    C237     C        0.08840    0.78240    0.53910    1.000
    H238     H        0.10270    0.81240    0.55710    1.000
    C239     C        0.03720    0.78130    0.51840    1.000
    H240     H        0.01720    0.81060    0.52270    1.000
    C241     C        0.01590    0.73630    0.49150    1.000
    C242     C        0.04590    0.69250    0.48520    1.000
    H243     H        0.03160    0.66240    0.46720    1.000
    C244     C        0.09710    0.69350    0.50580    1.000
    H245     H        0.11720    0.66420    0.50160    1.000
    C246     C        0.79400    0.73830    0.20240    1.000
    C247     C        0.82000    0.74460    0.13430    1.000
    C248     C        0.87290    0.74370    0.13320    1.000
    H249     H        0.89050    0.73770    0.17600    1.000
    C250     C        0.12080    0.74710    0.07010    1.000
    C251     C        0.06640    0.74710    0.06940    1.000
    C252     C        0.04110    0.78520    0.02820    1.000
    H253     H        0.05940    0.81020    0.00320    1.000
    C254     C        0.98570    0.78370    0.02670    1.000
    H255     H        0.96810    0.80570    0.99610    1.000
    C256     C        0.95820    0.74980    0.06990    1.000
    C257     C        0.98560    0.71670    0.11330    1.000
    H258     H        0.96820    0.69520    0.14490    1.000
    C259     C        0.03790    0.71540    0.11050    1.000
    H260     H        0.05480    0.69110    0.13840    1.000
    C261     C        0.79330    0.77450    0.94050    1.000
    C262     C        0.82170    0.76630    0.00700    1.000
    C263     C        0.87440    0.76260    0.00970    1.000
    H264     H        0.89290    0.76800    0.96750    1.000
    C265     C        0.90100    0.75140    0.07070    1.000
    C266     C        0.79560    0.75640    0.07120    1.000
    H267     H        0.76000    0.75790    0.07110    1.000
    C268     C        0.31160    0.72540    0.09370    1.000
    C269     C        0.37100    0.73390    0.10140    1.000
    C270     C        0.40050    0.77810    0.09530    1.000
    H271     H        0.38700    0.80700    0.07290    1.000
    C272     C        0.45010    0.77910    0.12260    1.000
    H273     H        0.46980    0.80870    0.11850    1.000
    C274     C        0.47020    0.73590    0.15610    1.000
    C275     C        0.44070    0.69170    0.16220    1.000
    H276     H        0.45410    0.66270    0.18460    1.000
    C277     C        0.39110    0.69070    0.13480    1.000
    H278     H        0.37130    0.66110    0.13890    1.000
    N279     N        0.86200    0.73460    0.40580    1.000
    C280     C        0.88400    0.69070    0.43500    1.000
    H281     H        0.86580    0.66000    0.43520    1.000
    C282     C        0.93310    0.69270    0.46380    1.000
    H283     H        0.94780    0.66330    0.48340    1.000
    C284     C        0.96030    0.73850    0.46340    1.000
    C285     C        0.93840    0.78240    0.43420    1.000
    H286     H        0.95660    0.81310    0.43400    1.000
    C287     C        0.88920    0.78050    0.40540    1.000
    H288     H        0.87450    0.80980    0.38580    1.000
    N289     N        0.62653    0.72810    0.23350    1.000
    C290     C        0.59741    0.68369    0.22700    1.000
    H291     H        0.61050    0.65250    0.24300    1.000
    C292     C        0.54875    0.68584    0.19660    1.000
    H293     H        0.52930    0.65610    0.19230    1.000
    C294     C        0.52920    0.73240    0.17270    1.000
    C295     C        0.55830    0.77680    0.17910    1.000
    H296     H        0.54520    0.80800    0.16310    1.000
    C297     C        0.60700    0.77469    0.20950    1.000
    H298     H        0.62650    0.80440    0.21390    1.000
    O299     O        0.22800    0.74339    0.95370    1.000
    O300     O        0.74510    0.73651    0.20010    1.000
    O301     O        0.21708    0.67224    0.00840    1.000
    O302     O        0.81837    0.72714    0.25770    1.000
    O303     O        0.81654    0.78374    0.88540    1.000
    O304     O        0.74166    0.77510    0.94260    1.000
    O305     O        0.14553    0.77840    0.03210    1.000
    O306     O        0.14627    0.71450    0.10570    1.000
    O307     O        0.26103    0.74217    0.69260    1.000
    O308     O        0.27271    0.67031    0.63520    1.000
    O309     O        0.29670    0.78240    0.05290    1.000
    O310     O        0.29170    0.69530    0.09940    1.000
    O311     O        0.29054    0.34371    0.78630    1.000
    O312     O        0.21801    0.34104    0.85940    1.000
    O313     O        0.19370    0.78230    0.58440    1.000
    O314     O        0.19200    0.70270    0.54260    1.000
    Cu315    Cu       0.22126    0.78757    0.03728    1.000
    Cu316    Cu       0.26878    0.70006    0.53638    1.000
    Cu317    Cu       0.21892    0.69908    0.10659    1.000
    Cu318    Cu       0.26759    0.78795    0.60610    1.000
    C319     C        0.74580    0.63410    0.32260    1.000
    C320     C        0.73760    0.30670    0.19150    1.000
    C321     C        0.74550    0.33100    0.26090    1.000
    C322     C        0.75500    0.30640    0.32090    1.000
    H323     H        0.75420    0.27080    0.32100    1.000
    C324     C        0.76640    0.33300    0.38590    1.000
    C325     C        0.76320    0.38530    0.38440    1.000
    H326     H        0.76860    0.40350    0.42670    1.000
    C327     C        0.75200    0.41230    0.32160    1.000
    C328     C        0.74310    0.38440    0.25820    1.000
    H329     H        0.73590    0.40120    0.21530    1.000
    C330     C        0.77230    0.30100    0.45380    1.000
    C331     C        0.74930    0.46970    0.32220    1.000
    C332     C        0.78480    0.49700    0.36390    1.000
    H333     H        0.81030    0.47970    0.38920    1.000
    C334     C        0.78150    0.54960    0.36670    1.000
    H335     H        0.80260    0.56720    0.39850    1.000
    C336     C        0.74680    0.57810    0.32260    1.000
    C337     C        0.71460    0.54940    0.28230    1.000
    H338     H        0.68990    0.56580    0.25440    1.000
    C339     C        0.71710    0.49750    0.28140    1.000
    H340     H        0.69510    0.48000    0.25060    1.000
    C341     C        0.82430    0.25700    0.06620    1.000
    C342     C        0.88160    0.26150    0.03280    1.000
    C343     C        0.91160    0.21760    0.03910    1.000
    H344     H        0.89730    0.18760    0.05710    1.000
    C345     C        0.96280    0.21870    0.01840    1.000
    H346     H        0.98280    0.18940    0.02270    1.000
    C347     C        0.98410    0.26370    0.99150    1.000
    C348     C        0.95410    0.30750    0.98520    1.000
    H349     H        0.96840    0.33760    0.96720    1.000
    C350     C        0.90290    0.30650    0.00580    1.000
    H351     H        0.88280    0.33580    0.00160    1.000
    C352     C        0.20600    0.26170    0.70240    1.000
    C353     C        0.18000    0.25540    0.63430    1.000
    C354     C        0.12710    0.25630    0.63320    1.000
    H355     H        0.10950    0.26230    0.67600    1.000
    C356     C        0.87920    0.25290    0.57010    1.000
    C357     C        0.93360    0.25290    0.56940    1.000
    C358     C        0.95890    0.21480    0.52820    1.000
    H359     H        0.94060    0.18980    0.50320    1.000
    C360     C        0.01430    0.21630    0.52670    1.000
    H361     H        0.03190    0.19430    0.49610    1.000
    C362     C        0.04180    0.25020    0.56990    1.000
    C363     C        0.01440    0.28330    0.61330    1.000
    H364     H        0.03180    0.30480    0.64490    1.000
    C365     C        0.96210    0.28460    0.61050    1.000
    H366     H        0.94520    0.30890    0.63840    1.000
    C367     C        0.20670    0.22550    0.44050    1.000
    C368     C        0.17830    0.23370    0.50700    1.000
    C369     C        0.12560    0.23740    0.50970    1.000
    H370     H        0.10710    0.23200    0.46750    1.000
    C371     C        0.09900    0.24860    0.57070    1.000
    C372     C        0.20440    0.24360    0.57120    1.000
    H373     H        0.24000    0.24210    0.57110    1.000
    C374     C        0.68840    0.27460    0.59370    1.000
    C375     C        0.62900    0.26610    0.60140    1.000
    C376     C        0.59950    0.22190    0.59530    1.000
    H377     H        0.61300    0.19300    0.57290    1.000
    C378     C        0.54990    0.22090    0.62260    1.000
    H379     H        0.53020    0.19130    0.61850    1.000
    C380     C        0.52980    0.26410    0.65610    1.000
    C381     C        0.55930    0.30830    0.66220    1.000
    H382     H        0.54590    0.33730    0.68460    1.000
    C383     C        0.60890    0.30930    0.63480    1.000
    H384     H        0.62870    0.33890    0.63890    1.000
    N385     N        0.13800    0.26540    0.90580    1.000
    C386     C        0.11600    0.30930    0.93500    1.000
    H387     H        0.13420    0.34000    0.93520    1.000
    C388     C        0.06690    0.30730    0.96380    1.000
    H389     H        0.05220    0.33670    0.98340    1.000
    C390     C        0.03970    0.26150    0.96340    1.000
    C391     C        0.06160    0.21760    0.93420    1.000
    H392     H        0.04340    0.18690    0.93400    1.000
    C393     C        0.11080    0.21950    0.90540    1.000
    H394     H        0.12550    0.19020    0.88580    1.000
    N395     N        0.37347    0.27190    0.73350    1.000
    C396     C        0.40259    0.31631    0.72700    1.000
    H397     H        0.38950    0.34750    0.74300    1.000
    C398     C        0.45125    0.31416    0.69660    1.000
    H399     H        0.47070    0.34390    0.69230    1.000
    C400     C        0.47080    0.26760    0.67270    1.000
    C401     C        0.44170    0.22320    0.67910    1.000
    H402     H        0.45480    0.19200    0.66310    1.000
    C403     C        0.39300    0.22531    0.70950    1.000
    H404     H        0.37350    0.19560    0.71390    1.000
    O405     O        0.77200    0.25661    0.45370    1.000
    O406     O        0.25490    0.26349    0.70010    1.000
    O407     O        0.78292    0.32776    0.50840    1.000
    O408     O        0.18163    0.27286    0.75770    1.000
    O409     O        0.18346    0.21626    0.38540    1.000
    O410     O        0.25834    0.22490    0.44260    1.000
    O411     O        0.85447    0.22160    0.53210    1.000
    O412     O        0.85373    0.28550    0.60570    1.000
    O413     O        0.73897    0.25783    0.19260    1.000
    O414     O        0.72729    0.32969    0.13520    1.000
    O415     O        0.70330    0.21760    0.55290    1.000
    O416     O        0.70830    0.30470    0.59940    1.000
    O417     O        0.70946    0.65629    0.28630    1.000
    O418     O        0.78199    0.65896    0.35940    1.000
    O419     O        0.80630    0.21770    0.08440    1.000
    O420     O        0.80800    0.29730    0.04260    1.000
    Cu421    Cu       0.77874    0.21243    0.53728    1.000
    Cu422    Cu       0.73122    0.29994    0.03638    1.000
    Cu423    Cu       0.78108    0.30092    0.60659    1.000
    Cu424    Cu       0.73241    0.21205    0.10610    1.000
