# CIF file generated by openbabel 3.1.0, see https://openbabel.org
data_I
_chemical_name_common 'image0'
_cell_length_a 10.3911
_cell_length_b 10.3911
_cell_length_c 8.9341
_cell_angle_alpha 90
_cell_angle_beta 90
_cell_angle_gamma 90
_space_group_name_H-M_alt 'P 1'
_space_group_name_Hall 'P 1'
loop_
    _symmetry_equiv_pos_as_xyz
    x,y,z
loop_
    _atom_site_label
    _atom_site_type_symbol
    _atom_site_fract_x
    _atom_site_fract_y
    _atom_site_fract_z
    _atom_site_occupancy
    Co1      Co       0.38965    0.62843    0.15941    1.000
    P1       P        0.40671    0.60919    0.79744    1.000
    O1       O        0.43690    0.66050    0.95310    1.000
    O2       O        0.27150    0.55670    0.78870    1.000
    O3       O        0.50080    0.50340    0.75210    1.000
    O4       O        0.42560    0.71480    0.68120    1.000
    Co2      Co       0.11035    0.87157    0.15941    1.000
    P2       P        0.09329    0.89081    0.79744    1.000
    O5       O        0.06310    0.83950    0.95310    1.000
    O6       O        0.22850    0.94330    0.78870    1.000
    O7       O        0.99920    0.99660    0.75210    1.000
    O8       O        0.07440    0.78520    0.68120    1.000
    Co3      Co       0.37157    0.88965    0.65941    1.000
    P3       P        0.39081    0.90671    0.29744    1.000
    O9       O        0.33950    0.93690    0.45310    1.000
    O10      O        0.44330    0.77150    0.28870    1.000
    O11      O        0.49660    0.00080    0.25210    1.000
    O12      O        0.28520    0.92560    0.18120    1.000
    Co4      Co       0.12843    0.61035    0.65941    1.000
    P4       P        0.10919    0.59329    0.29744    1.000
    O13      O        0.16050    0.56310    0.45310    1.000
    O14      O        0.05670    0.72850    0.28870    1.000
    O15      O        0.00340    0.49920    0.25210    1.000
    O16      O        0.21480    0.57440    0.18120    1.000
    Co5      Co       0.61035    0.37157    0.84059    1.000
    P5       P        0.59329    0.39081    0.20256    1.000
    O17      O        0.56310    0.33950    0.04690    1.000
    O18      O        0.72850    0.44330    0.21130    1.000
    O19      O        0.49920    0.49660    0.24790    1.000
    O20      O        0.57440    0.28520    0.31880    1.000
    Co6      Co       0.88965    0.12843    0.84059    1.000
    P6       P        0.90671    0.10919    0.20256    1.000
    O21      O        0.93690    0.16050    0.04690    1.000
    O22      O        0.77150    0.05670    0.21130    1.000
    O23      O        0.00080    0.00340    0.24790    1.000
    O24      O        0.92560    0.21480    0.31880    1.000
    Co7      Co       0.62843    0.11035    0.34059    1.000
    P7       P        0.60919    0.09329    0.70256    1.000
    O25      O        0.66050    0.06310    0.54690    1.000
    O26      O        0.55670    0.22850    0.71130    1.000
    O27      O        0.50340    0.99920    0.74790    1.000
    O28      O        0.71480    0.07440    0.81880    1.000
    Co8      Co       0.87157    0.38965    0.34059    1.000
    P8       P        0.89081    0.40671    0.70256    1.000
    O29      O        0.83950    0.43690    0.54690    1.000
    O30      O        0.94330    0.27150    0.71130    1.000
    O31      O        0.99660    0.50080    0.74790    1.000
    O32      O        0.78520    0.42560    0.81880    1.000
