# CIF file generated by openbabel 3.1.0, see https://openbabel.org
data_I
_chemical_name_common 'image0'
_cell_length_a 6.1139
_cell_length_b 8.7718
_cell_length_c 13.1543
_cell_angle_alpha 101.048
_cell_angle_beta 101.805
_cell_angle_gamma 96.546
_space_group_name_H-M_alt 'P 1'
_space_group_name_Hall 'P 1'
loop_
    _symmetry_equiv_pos_as_xyz
    x,y,z
loop_
    _atom_site_label
    _atom_site_type_symbol
    _atom_site_fract_x
    _atom_site_fract_y
    _atom_site_fract_z
    _atom_site_occupancy
    Gd1      Gd       0.74716    0.21931    0.72457    1.000
    O1       O        0.50170    0.80020    0.45150    1.000
    O2       O        0.06500    0.10660    0.80050    1.000
    O3       O        0.76690    0.35690    0.90970    1.000
    H1       H        0.68300    0.33000    0.95100    1.000
    O4       O        0.06730    0.45510    0.81370    1.000
    H2       H        0.17300    0.50900    0.79100    1.000
    O5       O        0.65950    0.47920    0.71240    1.000
    O6       O        0.63020    0.02900    0.82930    1.000
    H3       H        0.67400    0.93600    0.82500    1.000
    O7       O        0.50530    0.21270    0.01030    1.000
    H4       H        0.45960    0.24640    0.06510    1.000
    O8       O        0.65830    0.71380    0.81540    1.000
    O9       O        0.36390    0.20070    0.74420    1.000
    O10      O        0.67800    0.95860    0.60990    1.000
    C1       C        0.40840    0.00830    0.85050    1.000
    H5       H        0.33550    0.89630    0.82030    1.000
    C2       C        0.26780    0.11520    0.79400    1.000
    C3       C        0.41720    0.04790    0.97040    1.000
    H6       H        0.26240    0.02390    0.98300    1.000
    C4       C        0.89550    0.50790    0.95870    1.000
    H7       H        0.80060    0.57720    0.99370    1.000
    C5       C        0.55030    0.92860    0.51770    1.000
    C6       C        0.74360    0.59130    0.79160    1.000
    C7       C        0.96070    0.57170    0.86740    1.000
    H8       H        0.06600    0.67400    0.89470    1.000
    Gd2      Gd       0.25284    0.78069    0.27543    1.000
    O11      O        0.49830    0.19980    0.54850    1.000
    O12      O        0.93500    0.89340    0.19950    1.000
    O13      O        0.23310    0.64310    0.09030    1.000
    H9       H        0.31700    0.67000    0.04900    1.000
    O14      O        0.93270    0.54490    0.18630    1.000
    H10      H        0.82700    0.49100    0.20900    1.000
    O15      O        0.34050    0.52080    0.28760    1.000
    O16      O        0.36980    0.97100    0.17070    1.000
    H11      H        0.32600    0.06400    0.17500    1.000
    O17      O        0.49470    0.78730    0.98970    1.000
    H12      H        0.54040    0.75360    0.93490    1.000
    O18      O        0.34170    0.28620    0.18460    1.000
    O19      O        0.63610    0.79930    0.25580    1.000
    O20      O        0.32200    0.04140    0.39010    1.000
    C8       C        0.59160    0.99170    0.14950    1.000
    H13      H        0.66450    0.10370    0.17970    1.000
    C9       C        0.73220    0.88480    0.20600    1.000
    C10      C        0.58280    0.95210    0.02960    1.000
    H14      H        0.73760    0.97610    0.01700    1.000
    C11      C        0.10450    0.49210    0.04130    1.000
    H15      H        0.19940    0.42280    0.00630    1.000
    C12      C        0.44970    0.07140    0.48230    1.000
    C13      C        0.25640    0.40870    0.20840    1.000
    C14      C        0.03930    0.42830    0.13260    1.000
    H16      H        0.93400    0.32600    0.10530    1.000
