data_functionalizedCrystal
_audit_creation_method	'EQeq! by Chris Wilmer'
_symmetry_space_group_name_H-M	'P1'
_symmetry_Int_Tables_number	1
_symmetry_cell_setting	triclinic
loop_
_symmetry_equiv_pos_as_xyz
  x,y,z
_cell_length_a	11.6884
_cell_length_b	5.5643
_cell_length_c	22.8159
_cell_angle_alpha	90
_cell_angle_beta	100.691
_cell_angle_gamma	90
loop_
_atom_site_label
_atom_site_type_symbol
_atom_site_fract_x
_atom_site_fract_y
_atom_site_fract_z
_atom_site_charge
Mof_Ca	Ca	0.86258	0.75633	0.27818	1.56
Mof_S 	S 	0.10145	0.96454	0.3933	0.321
Mof_O 	O 	0.2397	0.91505	0.69092	-0.581
Mof_O 	O 	0.23621	0.52343	0.67212	-0.514
Mof_O 	O 	0.54211	0.91879	0.24461	-0.493
Mof_O 	O 	0.51296	0.52383	0.25348	-0.48
Mof_O 	O 	0.08446	0.22059	0.3895	-0.252
Mof_O 	O 	0.00494	0.80562	0.3703	-0.36
Mof_C 	C 	0.1467	0.8909	0.46929	0.003
Mof_C 	C 	0.20595	0.062	0.50775	-0.089
Mof_H 	H 	0.2278	0.2111	0.4928	0.067
Mof_C 	C 	0.23276	0.0122	0.56837	0.05
Mof_H 	H 	0.2722	0.1283	0.5953	0.01
Mof_C 	C 	0.2017	0.7914	0.5896	-0.156
Mof_C 	C 	0.14677	0.6188	0.55025	0.056
Mof_H 	H 	0.1287	0.4663	0.5649	0.018
Mof_C 	C 	0.11802	0.667	0.48962	-0.092
Mof_H 	H 	0.0796	0.5499	0.4626	0.083
Mof_C 	C 	0.22619	0.7384	0.65525	0.443
Mof_C 	C 	0.21873	0.8908	0.35811	-0.013
Mof_C 	C 	0.30779	0.0591	0.35955	-0.084
Mof_H 	H 	0.3071	0.2051	0.3811	0.065
Mof_C 	C 	0.39763	0.0098	0.32897	0.05
Mof_H 	H 	0.4576	0.1245	0.3285	0.009
Mof_C 	C 	0.39952	0.7918	0.29902	-0.156
Mof_C 	C 	0.31163	0.6232	0.29972	0.041
Mof_H 	H 	0.3146	0.4732	0.2801	0.029
Mof_C 	C 	0.2194	0.6721	0.32884	-0.079
Mof_H 	H 	0.1586	0.5588	0.3287	0.07
Mof_C 	C 	0.49352	0.741	0.26289	0.47
Mof_Ca	Ca	0.63742	0.25633	0.22182	1.568
Mof_S 	S 	0.39855	0.46454	0.1067	0.32
Mof_O 	O 	0.2603	0.41505	0.80908	-0.584
Mof_O 	O 	0.26379	0.02343	0.82788	-0.517
Mof_O 	O 	0.95789	0.41879	0.25539	-0.488
Mof_O 	O 	0.98704	0.02383	0.24652	-0.473
Mof_O 	O 	0.41554	0.72059	0.1105	-0.251
Mof_O 	O 	0.49506	0.30562	0.1297	-0.36
Mof_C 	C 	0.3533	0.3909	0.03071	0
Mof_C 	C 	0.29405	0.562	0.99225	-0.087
Mof_H 	H 	0.2722	0.7111	0.0072	0.066
Mof_C 	C 	0.26724	0.5122	0.93163	0.053
Mof_H 	H 	0.2278	0.6283	0.9047	0.01
Mof_C 	C 	0.2983	0.2914	0.9104	-0.159
Mof_C 	C 	0.35323	0.1188	0.94975	0.055
Mof_H 	H 	0.3713	0.9663	0.9351	0.02
Mof_C 	C 	0.38198	0.167	0.01038	-0.091
Mof_H 	H 	0.4204	0.0499	0.0374	0.083
Mof_C 	C 	0.27381	0.2384	0.84475	0.445
Mof_C 	C 	0.28127	0.3908	0.14189	-0.014
Mof_C 	C 	0.19221	0.5591	0.14045	-0.082
Mof_H 	H 	0.1929	0.7051	0.1189	0.064
Mof_C 	C 	0.10237	0.5098	0.17103	0.046
Mof_H 	H 	0.0424	0.6245	0.1715	0.01
Mof_C 	C 	0.10048	0.2918	0.20098	-0.152
Mof_C 	C 	0.18837	0.1232	0.20028	0.038
Mof_H 	H 	0.1854	0.9732	0.2199	0.03
Mof_C 	C 	0.2806	0.1721	0.17116	-0.077
Mof_H 	H 	0.3414	0.0588	0.1713	0.069
Mof_C 	C 	0.00648	0.241	0.23711	0.463
Mof_Ca	Ca	0.13742	0.24367	0.72182	1.559
Mof_S 	S 	0.89855	0.03546	0.6067	0.32
Mof_O 	O 	0.7603	0.08495	0.30908	-0.581
Mof_O 	O 	0.76379	0.47657	0.32788	-0.514
Mof_O 	O 	0.45789	0.08121	0.75539	-0.493
Mof_O 	O 	0.48704	0.47617	0.74652	-0.48
Mof_O 	O 	0.91554	0.77941	0.6105	-0.252
Mof_O 	O 	0.99506	0.19438	0.6297	-0.36
Mof_C 	C 	0.8533	0.1091	0.53071	0.003
Mof_C 	C 	0.79405	0.938	0.49225	-0.089
Mof_H 	H 	0.7722	0.7889	0.5072	0.067
Mof_C 	C 	0.76724	0.9878	0.43163	0.05
Mof_H 	H 	0.7278	0.8717	0.4047	0.01
Mof_C 	C 	0.7983	0.2086	0.4104	-0.156
Mof_C 	C 	0.85323	0.3812	0.44975	0.056
Mof_H 	H 	0.8713	0.5337	0.4351	0.018
Mof_C 	C 	0.88198	0.333	0.51038	-0.092
Mof_H 	H 	0.9204	0.4501	0.5374	0.083
Mof_C 	C 	0.77381	0.2616	0.34475	0.443
Mof_C 	C 	0.78127	0.1092	0.64189	-0.013
Mof_C 	C 	0.69221	0.9409	0.64045	-0.084
Mof_H 	H 	0.6929	0.7949	0.6189	0.065
Mof_C 	C 	0.60237	0.9902	0.67103	0.05
Mof_H 	H 	0.5424	0.8755	0.6715	0.009
Mof_C 	C 	0.60048	0.2082	0.70098	-0.156
Mof_C 	C 	0.68837	0.3768	0.70028	0.041
Mof_H 	H 	0.6854	0.5268	0.7199	0.029
Mof_C 	C 	0.7806	0.3279	0.67116	-0.079
Mof_H 	H 	0.8414	0.4412	0.6713	0.07
Mof_C 	C 	0.50648	0.259	0.73711	0.47
Mof_Ca	Ca	0.36258	0.74367	0.77818	1.568
Mof_S 	S 	0.60145	0.53546	0.8933	0.32
Mof_O 	O 	0.7397	0.58495	0.19092	-0.584
Mof_O 	O 	0.73621	0.97657	0.17212	-0.517
Mof_O 	O 	0.04211	0.58121	0.74461	-0.488
Mof_O 	O 	0.01296	0.97617	0.75348	-0.473
Mof_O 	O 	0.58446	0.27941	0.8895	-0.251
Mof_O 	O 	0.50494	0.69438	0.8703	-0.36
Mof_C 	C 	0.6467	0.6091	0.96929	0
Mof_C 	C 	0.70595	0.438	0.00775	-0.087
Mof_H 	H 	0.7278	0.2889	0.9928	0.066
Mof_C 	C 	0.73276	0.4878	0.06837	0.053
Mof_H 	H 	0.7722	0.3717	0.0953	0.01
Mof_C 	C 	0.7017	0.7086	0.0896	-0.159
Mof_C 	C 	0.64677	0.8812	0.05025	0.055
Mof_H 	H 	0.6287	0.0337	0.0649	0.02
Mof_C 	C 	0.61802	0.833	0.98962	-0.091
Mof_H 	H 	0.5796	0.9501	0.9626	0.083
Mof_C 	C 	0.72619	0.7616	0.15525	0.445
Mof_C 	C 	0.71873	0.6092	0.85811	-0.014
Mof_C 	C 	0.80779	0.4409	0.85955	-0.082
Mof_H 	H 	0.8071	0.2949	0.8811	0.064
Mof_C 	C 	0.89763	0.4902	0.82897	0.046
Mof_H 	H 	0.9576	0.3755	0.8285	0.01
Mof_C 	C 	0.89952	0.7082	0.79902	-0.152
Mof_C 	C 	0.81163	0.8768	0.79972	0.038
Mof_H 	H 	0.8146	0.0268	0.7801	0.03
Mof_C 	C 	0.7194	0.8279	0.82884	-0.077
Mof_H 	H 	0.6586	0.9412	0.8287	0.069
Mof_C 	C 	0.99352	0.759	0.76289	0.463
_end
