data_functionalizedCrystal
_audit_creation_method	'EQeq! by Chris Wilmer'
_symmetry_space_group_name_H-M	'P1'
_symmetry_Int_Tables_number	1
_symmetry_cell_setting	triclinic
loop_
_symmetry_equiv_pos_as_xyz
  x,y,z
_cell_length_a	24.349
_cell_length_b	9.2334
_cell_length_c	16.959
_cell_angle_alpha	90
_cell_angle_beta	119.41
_cell_angle_gamma	90
loop_
_atom_site_label
_atom_site_type_symbol
_atom_site_fract_x
_atom_site_fract_y
_atom_site_fract_z
_atom_site_charge
Mof_Cu	Cu	0.15336	0.67062	0.32335	0.826
Mof_Cu	Cu	0.148	0.89651	0.64849	0.822
Mof_Cu	Cu	0.0631	0.68569	0.72744	0.829
Mof_Cu	Cu	0.06379	0.87942	0.39709	0.826
Mof_N 	N 	0.1926	0.7387	0.4579	-0.167
Mof_N 	N 	0.2493	0.7163	0.5289	-0.109
Mof_N 	N 	0.1895	0.827	0.5735	-0.21
Mof_N 	N 	0.1558	0.8065	0.4837	-0.182
Mof_N 	N 	0.1872	0.7189	0.7343	-0.214
Mof_N 	N 	0.1545	0.6298	0.7595	-0.181
Mof_N 	N 	0.1902	0.5225	0.8085	-0.169
Mof_N 	N 	0.249	0.5397	0.8197	-0.115
Mof_N 	N 	0.4689	0.8045	0.0232	-0.1
Mof_N 	N 	0.5258	0.7664	0.0933	-0.17
Mof_N 	N 	0.5581	0.6917	0.0645	-0.172
Mof_N 	N 	0.5241	0.6791	0.9732	-0.222
Mof_N 	N 	0.5282	0.8042	0.8194	-0.21
Mof_N 	N 	0.5636	0.89	0.7993	-0.182
Mof_N 	N 	0.5278	0.0003	0.7504	-0.169
Mof_N 	N 	0.4705	0.9886	0.7393	-0.113
Mof_N 	N 	0.0572	0.1553	0.2968	-0.21
Mof_N 	N 	0.1523	0.179	0.7425	-0.21
Mof_C 	C 	0.2463	0.7707	0.5993	0.103
Mof_C 	C 	0.3018	0.7714	0.6926	-0.037
Mof_C 	C 	0.3581	0.8158	0.7012	-0.045
Mof_H 	H 	0.3583	0.8504	0.6499	0.046
Mof_C 	C 	0.4144	0.8124	0.7813	-0.04
Mof_C 	C 	0.4145	0.7594	0.8593	-0.036
Mof_C 	C 	0.3567	0.7183	0.852	-0.047
Mof_H 	H 	0.356	0.6887	0.9039	0.044
Mof_C 	C 	0.2997	0.7202	0.7691	-0.041
Mof_C 	C 	0.2448	0.661	0.7731	0.105
Mof_C 	C 	0.4708	0.7512	0.9516	0.091
Mof_C 	C 	0.4709	0.8677	0.7824	0.103
Mof_C 	C 	0.057	0.0538	0.3362	-0.235
Mof_C 	C 	0.1513	0.0776	0.7023	-0.233
Mof_Cu	Cu	0.65336	0.17062	0.32335	0.827
Mof_Cu	Cu	0.648	0.39651	0.64849	0.823
Mof_Cu	Cu	0.5631	0.18569	0.72744	0.83
Mof_Cu	Cu	0.56379	0.37942	0.39709	0.827
Mof_N 	N 	0.6926	0.2387	0.4579	-0.167
Mof_N 	N 	0.7493	0.2163	0.5289	-0.108
Mof_N 	N 	0.6895	0.327	0.5735	-0.21
Mof_N 	N 	0.6558	0.3065	0.4837	-0.181
Mof_N 	N 	0.6872	0.2189	0.7343	-0.214
Mof_N 	N 	0.6545	0.1298	0.7595	-0.181
Mof_N 	N 	0.6902	0.0225	0.8085	-0.169
Mof_N 	N 	0.749	0.0397	0.8197	-0.114
Mof_N 	N 	0.9689	0.3045	0.0232	-0.096
Mof_N 	N 	0.0258	0.2664	0.0933	-0.175
Mof_N 	N 	0.0581	0.1917	0.0645	-0.174
Mof_N 	N 	0.0241	0.1791	0.9732	-0.228
Mof_N 	N 	0.0282	0.3042	0.8194	-0.217
Mof_N 	N 	0.0636	0.39	0.7993	-0.182
Mof_N 	N 	0.0278	0.5003	0.7504	-0.175
Mof_N 	N 	0.9705	0.4886	0.7393	-0.108
Mof_N 	N 	0.5572	0.6553	0.2968	-0.209
Mof_N 	N 	0.6523	0.679	0.7425	-0.209
Mof_C 	C 	0.7463	0.2707	0.5993	0.103
Mof_C 	C 	0.8018	0.2714	0.6926	-0.037
Mof_C 	C 	0.8581	0.3158	0.7012	-0.043
Mof_H 	H 	0.8583	0.3504	0.6499	0.047
Mof_C 	C 	0.9144	0.3124	0.7813	-0.04
Mof_C 	C 	0.9145	0.2594	0.8593	-0.036
Mof_C 	C 	0.8567	0.2183	0.852	-0.046
Mof_H 	H 	0.856	0.1887	0.9039	0.045
Mof_C 	C 	0.7997	0.2202	0.7691	-0.04
Mof_C 	C 	0.7448	0.161	0.7731	0.105
Mof_C 	C 	0.9708	0.2512	0.9516	0.102
Mof_C 	C 	0.9709	0.3677	0.7824	0.113
Mof_C 	C 	0.557	0.5538	0.3362	-0.232
Mof_C 	C 	0.6513	0.5776	0.7023	-0.232
Mof_Cu	Cu	0.15336	0.32938	0.82335	0.825
Mof_Cu	Cu	0.148	0.10349	0.14849	0.824
Mof_Cu	Cu	0.0631	0.31431	0.22744	0.83
Mof_Cu	Cu	0.06379	0.12058	0.89709	0.825
Mof_N 	N 	0.1926	0.2613	0.9579	-0.175
Mof_N 	N 	0.2493	0.2837	0.0289	-0.1
Mof_N 	N 	0.1895	0.173	0.0735	-0.203
Mof_N 	N 	0.1558	0.1935	0.9837	-0.189
Mof_N 	N 	0.1872	0.2811	0.2343	-0.213
Mof_N 	N 	0.1545	0.3702	0.2595	-0.18
Mof_N 	N 	0.1902	0.4775	0.3085	-0.168
Mof_N 	N 	0.249	0.4603	0.3197	-0.113
Mof_N 	N 	0.4689	0.1955	0.5232	-0.112
Mof_N 	N 	0.5258	0.2336	0.5933	-0.172
Mof_N 	N 	0.5581	0.3083	0.5645	-0.18
Mof_N 	N 	0.5241	0.3209	0.4732	-0.216
Mof_N 	N 	0.5282	0.1958	0.3194	-0.21
Mof_N 	N 	0.5636	0.11	0.2993	-0.18
Mof_N 	N 	0.5278	0.9997	0.2504	-0.169
Mof_N 	N 	0.4705	0.0114	0.2393	-0.111
Mof_N 	N 	0.0572	0.8447	0.7968	-0.211
Mof_N 	N 	0.1523	0.821	0.2425	-0.209
Mof_C 	C 	0.2463	0.2293	0.0993	0.105
Mof_C 	C 	0.3018	0.2286	0.1926	-0.035
Mof_C 	C 	0.3581	0.1842	0.2012	-0.046
Mof_H 	H 	0.3583	0.1496	0.1499	0.049
Mof_C 	C 	0.4144	0.1876	0.2813	-0.037
Mof_C 	C 	0.4145	0.2406	0.3593	-0.038
Mof_C 	C 	0.3567	0.2817	0.352	-0.044
Mof_H 	H 	0.356	0.3113	0.4039	0.047
Mof_C 	C 	0.2997	0.2798	0.2691	-0.041
Mof_C 	C 	0.2448	0.339	0.2731	0.107
Mof_C 	C 	0.4708	0.2488	0.4516	0.107
Mof_C 	C 	0.4709	0.1323	0.2824	0.104
Mof_C 	C 	0.057	0.9462	0.8362	-0.24
Mof_C 	C 	0.1513	0.9224	0.2023	-0.229
Mof_Cu	Cu	0.65336	0.82938	0.82335	0.825
Mof_Cu	Cu	0.648	0.60349	0.14849	0.824
Mof_Cu	Cu	0.5631	0.81431	0.22744	0.831
Mof_Cu	Cu	0.56379	0.62058	0.89709	0.826
Mof_N 	N 	0.6926	0.7613	0.9579	-0.175
Mof_N 	N 	0.7493	0.7837	0.0289	-0.099
Mof_N 	N 	0.6895	0.673	0.0735	-0.203
Mof_N 	N 	0.6558	0.6935	0.9837	-0.19
Mof_N 	N 	0.6872	0.7811	0.2343	-0.213
Mof_N 	N 	0.6545	0.8702	0.2595	-0.18
Mof_N 	N 	0.6902	0.9775	0.3085	-0.167
Mof_N 	N 	0.749	0.9603	0.3197	-0.112
Mof_N 	N 	0.9689	0.6955	0.5232	-0.108
Mof_N 	N 	0.0258	0.7336	0.5933	-0.177
Mof_N 	N 	0.0581	0.8083	0.5645	-0.181
Mof_N 	N 	0.0241	0.8209	0.4732	-0.223
Mof_N 	N 	0.0282	0.6958	0.3194	-0.216
Mof_N 	N 	0.0636	0.61	0.2993	-0.181
Mof_N 	N 	0.0278	0.4997	0.2504	-0.174
Mof_N 	N 	0.9705	0.5114	0.2393	-0.106
Mof_N 	N 	0.5572	0.3447	0.7968	-0.21
Mof_N 	N 	0.6523	0.321	0.2425	-0.208
Mof_C 	C 	0.7463	0.7293	0.0993	0.105
Mof_C 	C 	0.8018	0.7286	0.1926	-0.035
Mof_C 	C 	0.8581	0.6842	0.2012	-0.044
Mof_H 	H 	0.8583	0.6496	0.1499	0.05
Mof_C 	C 	0.9144	0.6876	0.2813	-0.037
Mof_C 	C 	0.9145	0.7406	0.3593	-0.038
Mof_C 	C 	0.8567	0.7817	0.352	-0.043
Mof_H 	H 	0.856	0.8113	0.4039	0.048
Mof_C 	C 	0.7997	0.7798	0.2691	-0.04
Mof_C 	C 	0.7448	0.839	0.2731	0.107
Mof_C 	C 	0.9708	0.7488	0.4516	0.117
Mof_C 	C 	0.9709	0.6323	0.2824	0.114
Mof_C 	C 	0.557	0.4462	0.8362	-0.236
Mof_C 	C 	0.6513	0.4224	0.2023	-0.228
_end
