data_functionalizedCrystal
_audit_creation_method	'EQeq! by Chris Wilmer'
_symmetry_space_group_name_H-M	'P1'
_symmetry_Int_Tables_number	1
_symmetry_cell_setting	triclinic
loop_
_symmetry_equiv_pos_as_xyz
  x,y,z
_cell_length_a	28.95
_cell_length_b	39.508
_cell_length_c	10.2785
_cell_angle_alpha	90
_cell_angle_beta	95.737
_cell_angle_gamma	90
loop_
_atom_site_label
_atom_site_type_symbol
_atom_site_fract_x
_atom_site_fract_y
_atom_site_fract_z
_atom_site_charge
Mof_Cd	Cd	0.23966	0.67604	0.94463	0.398
Mof_Cd	Cd	0.23216	0.68634	0.45716	0.461
Mof_O 	O 	0.30626	0.67952	0.5723	-0.283
Mof_O 	O 	0.30185	0.66966	0.3629	-0.278
Mof_O 	O 	0.17394	0.68258	0.3028	-0.296
Mof_O 	O 	0.19887	0.69567	0.1108	-0.293
Mof_O 	O 	0.17733	0.67064	0.7946	-0.29
Mof_O 	O 	0.19766	0.70381	0.634	-0.285
Mof_N 	N 	0.22594	0.62129	0.0134	-0.164
Mof_N 	N 	0.13824	0.42779	0.2448	-0.177
Mof_N 	N 	0.23753	0.23044	0.0936	-0.172
Mof_N 	N 	0.21525	0.62965	0.5002	-0.157
Mof_N 	N 	0.1369	0.4336	0.7441	-0.175
Mof_N 	N 	0.2532	0.24201	0.5889	-0.156
Mof_C 	C 	0.22947	0.61289	0.1387	0.113
Mof_H 	H 	0.2384	0.6296	0.2	0.009
Mof_C 	C 	0.22084	0.58161	0.1828	-0.185
Mof_H 	H 	0.2242	0.5773	0.2722	0.101
Mof_C 	C 	0.20707	0.55583	0.0962	0.124
Mof_C 	C 	0.203	0.56477	0.9646	-0.177
Mof_H 	H 	0.1943	0.5486	0.9013	0.095
Mof_C 	C 	0.2118	0.59758	0.9273	0.102
Mof_H 	H 	0.2077	0.6032	0.839	0.007
Mof_C 	C 	0.19288	0.52138	0.1387	-0.077
Mof_C 	C 	0.17803	0.51673	0.2606	0.038
Mof_H 	H 	0.1789	0.5349	0.3182	0.019
Mof_C 	C 	0.16192	0.48592	0.3002	-0.16
Mof_H 	H 	0.1526	0.4835	0.3837	0.093
Mof_C 	C 	0.15957	0.45811	0.2142	0.141
Mof_C 	C 	0.17828	0.46247	0.0943	-0.157
Mof_H 	H 	0.1796	0.4441	0.0385	0.09
Mof_C 	C 	0.19463	0.49341	0.0576	0.035
Mof_H 	H 	0.2069	0.4956	0.9778	0.017
Mof_C 	C 	0.15561	0.39637	0.2082	0.153
Mof_C 	C 	0.20178	0.3891	0.229	-0.175
Mof_H 	H 	0.2223	0.4059	0.2621	0.092
Mof_C 	C 	0.21904	0.35735	0.2022	0.045
Mof_H 	H 	0.2507	0.353	0.2162	0.01
Mof_C 	C 	0.18862	0.33212	0.1545	-0.089
Mof_C 	C 	0.14242	0.33968	0.1282	0.047
Mof_H 	H 	0.1221	0.323	0.0933	0.01
Mof_C 	C 	0.12551	0.37135	0.1524	-0.173
Mof_H 	H 	0.0942	0.3762	0.1318	0.095
Mof_C 	C 	0.20606	0.29673	0.1333	0.13
Mof_C 	C 	0.25242	0.28957	0.119	-0.195
Mof_H 	H 	0.2742	0.3069	0.1229	0.098
Mof_C 	C 	0.26562	0.25718	0.0993	0.121
Mof_H 	H 	0.2967	0.2534	0.0889	-0
Mof_C 	C 	0.19454	0.23729	0.1115	0.127
Mof_H 	H 	0.1739	0.2192	0.111	-0.013
Mof_C 	C 	0.17759	0.26842	0.1307	-0.198
Mof_H 	H 	0.1463	0.271	0.1424	0.099
Mof_C 	C 	0.09787	0.42898	0.3163	0.12
Mof_C 	C 	0.06706	0.45563	0.3077	-0.126
Mof_H 	H 	0.0715	0.4735	0.2514	0.078
Mof_C 	C 	0.02924	0.45635	0.3818	-0.011
Mof_H 	H 	0.0101	0.4753	0.3777	0.032
Mof_C 	C 	0.01963	0.42985	0.4606	-0.01
Mof_C 	C 	0.04945	0.40212	0.4629	-0.007
Mof_H 	H 	0.0428	0.3831	0.5111	0.033
Mof_C 	C 	0.08811	0.40193	0.3968	-0.127
Mof_H 	H 	0.1082	0.3835	0.4054	0.08
Mof_C 	C 	0.24652	0.60699	0.5491	0.101
Mof_H 	H 	0.2776	0.6134	0.5599	0.006
Mof_C 	C 	0.23535	0.57474	0.5843	-0.183
Mof_H 	H 	0.2587	0.5601	0.618	0.093
Mof_C 	C 	0.18985	0.56361	0.5703	0.125
Mof_C 	C 	0.15758	0.58702	0.518	-0.183
Mof_H 	H 	0.1263	0.5813	0.5063	0.093
Mof_C 	C 	0.17147	0.61844	0.4835	0.103
Mof_H 	H 	0.1489	0.6331	0.4456	0.009
Mof_C 	C 	0.17758	0.52912	0.6116	-0.09
Mof_C 	C 	0.21003	0.50572	0.6606	0.049
Mof_H 	H 	0.2414	0.5112	0.6659	0.008
Mof_C 	C 	0.19682	0.47454	0.7016	-0.177
Mof_H 	H 	0.2195	0.4594	0.7357	0.093
Mof_C 	C 	0.15079	0.46487	0.6937	0.152
Mof_C 	C 	0.11721	0.48726	0.6394	-0.174
Mof_H 	H 	0.0862	0.4808	0.6295	0.095
Mof_C 	C 	0.12966	0.51855	0.6006	0.044
Mof_H 	H 	0.1068	0.5335	0.5663	0.009
Mof_C 	C 	0.16413	0.4037	0.7245	0.137
Mof_C 	C 	0.17052	0.37877	0.8246	-0.159
Mof_H 	H 	0.1605	0.3827	0.9064	0.092
Mof_C 	C 	0.19157	0.34905	0.7985	0.041
Mof_H 	H 	0.1955	0.3328	0.8643	0.016
Mof_C 	C 	0.20751	0.34178	0.6786	-0.079
Mof_C 	C 	0.20334	0.36794	0.5835	0.04
Mof_H 	H 	0.2148	0.3645	0.5032	0.015
Mof_C 	C 	0.18288	0.39784	0.6082	-0.163
Mof_H 	H 	0.1815	0.4148	0.5453	0.092
Mof_C 	C 	0.22567	0.30848	0.6486	0.119
Mof_C 	C 	0.2256	0.28164	0.7373	-0.169
Mof_H 	H 	0.2159	0.2856	0.8195	0.093
Mof_C 	C 	0.23944	0.24964	0.7063	0.098
Mof_H 	H 	0.2393	0.2327	0.7689	0.016
Mof_C 	C 	0.2517	0.26694	0.5027	0.106
Mof_H 	H 	0.2611	0.2621	0.4208	0.012
Mof_C 	C 	0.2374	0.29909	0.5246	-0.174
Mof_H 	H 	0.2355	0.3149	0.4571	0.093
Mof_C 	C 	0.09712	0.43185	0.8143	0.129
Mof_C 	C 	0.08577	0.45918	0.8895	-0.134
Mof_H 	H 	0.1045	0.4784	0.8936	0.083
Mof_C 	C 	0.0474	0.45848	0.9581	-0.004
Mof_H 	H 	0.0396	0.4777	0.0035	0.031
Mof_C 	C 	0.02022	0.42985	0.961	-0.011
Mof_C 	C 	0.03232	0.40277	0.8889	-0.007
Mof_H 	H 	0.0145	0.3832	0.8892	0.031
Mof_C 	C 	0.07028	0.40324	0.8147	-0.134
Mof_H 	H 	0.0772	0.3844	0.7661	0.081
Mof_C 	C 	0.32494	0.6728	0.4725	0.308
Mof_C 	C 	0.37727	0.66897	0.4802	-0.091
Mof_C 	C 	0.40002	0.66138	0.3729	0.026
Mof_H 	H 	0.3825	0.6577	0.2933	0.032
Mof_C 	C 	0.44696	0.65907	0.378	-0.1
Mof_H 	H 	0.4608	0.654	0.3024	0.063
Mof_C 	C 	0.47492	0.6642	0.4963	0.034
Mof_C 	C 	0.45155	0.6727	0.6065	-0.094
Mof_H 	H 	0.4688	0.6767	0.6863	0.062
Mof_C 	C 	0.40348	0.67521	0.5982	0.019
Mof_H 	H 	0.3889	0.6811	0.6716	0.035
Mof_C 	C 	0.16776	0.69027	0.1835	0.334
Mof_C 	C 	0.11794	0.69387	0.1267	-0.103
Mof_C 	C 	0.08388	0.6897	0.2065	0.033
Mof_H 	H 	0.0914	0.6839	0.2938	0.036
Mof_C 	C 	0.03739	0.694	0.1576	-0.106
Mof_H 	H 	0.0143	0.6925	0.2141	0.069
Mof_C 	C 	0.02533	0.70061	0.0274	0.044
Mof_C 	C 	0.06066	0.70503	0.947	-0.108
Mof_H 	H 	0.0534	0.71	0.8588	0.071
Mof_C 	C 	0.10577	0.70218	0.9965	0.037
Mof_H 	H 	0.129	0.7059	0.9419	0.037
Mof_C 	C 	0.16869	0.68669	0.6913	0.317
Mof_C 	C 	0.11787	0.6884	0.6336	-0.099
Mof_C 	C 	0.08964	0.66028	0.644	0.027
Mof_H 	H 	0.1019	0.6413	0.6886	0.031
Mof_C 	C 	0.04444	0.65957	0.5909	-0.107
Mof_H 	H 	0.0268	0.64	0.5955	0.065
Mof_C 	C 	0.02457	0.68912	0.5285	0.038
Mof_C 	C 	0.05225	0.71572	0.5205	-0.111
Mof_H 	H 	0.0401	0.7354	0.4807	0.067
Mof_C 	C 	0.09947	0.71527	0.5704	0.033
Mof_H 	H 	0.118	0.7341	0.5587	0.029
Mof_Cd	Cd	0.73966	0.17604	0.94463	0.399
Mof_Cd	Cd	0.73216	0.18634	0.45716	0.462
Mof_O 	O 	0.80626	0.17952	0.5723	-0.282
Mof_O 	O 	0.80185	0.16966	0.3629	-0.277
Mof_O 	O 	0.67394	0.18258	0.3028	-0.296
Mof_O 	O 	0.69887	0.19567	0.1108	-0.293
Mof_O 	O 	0.67733	0.17064	0.7946	-0.29
Mof_O 	O 	0.69766	0.20381	0.634	-0.285
Mof_N 	N 	0.72594	0.12129	0.0134	-0.164
Mof_N 	N 	0.63824	0.92779	0.2448	-0.177
Mof_N 	N 	0.73753	0.73044	0.0936	-0.172
Mof_N 	N 	0.71525	0.12965	0.5002	-0.157
Mof_N 	N 	0.6369	0.9336	0.7441	-0.175
Mof_N 	N 	0.7532	0.74201	0.5889	-0.156
Mof_C 	C 	0.72947	0.11289	0.1387	0.113
Mof_H 	H 	0.7384	0.1296	0.2	0.009
Mof_C 	C 	0.72084	0.08161	0.1828	-0.185
Mof_H 	H 	0.7242	0.0773	0.2722	0.101
Mof_C 	C 	0.70707	0.05583	0.0962	0.124
Mof_C 	C 	0.703	0.06477	0.9646	-0.177
Mof_H 	H 	0.6943	0.0486	0.9013	0.095
Mof_C 	C 	0.7118	0.09758	0.9273	0.102
Mof_H 	H 	0.7077	0.1032	0.839	0.007
Mof_C 	C 	0.69288	0.02138	0.1387	-0.078
Mof_C 	C 	0.67803	0.01673	0.2606	0.037
Mof_H 	H 	0.6789	0.0349	0.3182	0.019
Mof_C 	C 	0.66192	0.98592	0.3002	-0.159
Mof_H 	H 	0.6526	0.9835	0.3837	0.093
Mof_C 	C 	0.65957	0.95811	0.2142	0.141
Mof_C 	C 	0.67828	0.96247	0.0943	-0.158
Mof_H 	H 	0.6796	0.9441	0.0385	0.09
Mof_C 	C 	0.69463	0.99341	0.0576	0.036
Mof_H 	H 	0.7069	0.9956	0.9778	0.017
Mof_C 	C 	0.65561	0.89637	0.2082	0.153
Mof_C 	C 	0.70178	0.8891	0.229	-0.175
Mof_H 	H 	0.7223	0.9059	0.2621	0.092
Mof_C 	C 	0.71904	0.85735	0.2022	0.045
Mof_H 	H 	0.7507	0.853	0.2162	0.01
Mof_C 	C 	0.68862	0.83212	0.1545	-0.089
Mof_C 	C 	0.64242	0.83968	0.1282	0.047
Mof_H 	H 	0.6221	0.823	0.0933	0.01
Mof_C 	C 	0.62551	0.87135	0.1524	-0.173
Mof_H 	H 	0.5942	0.8762	0.1318	0.095
Mof_C 	C 	0.70606	0.79673	0.1333	0.13
Mof_C 	C 	0.75242	0.78957	0.119	-0.195
Mof_H 	H 	0.7742	0.8069	0.1229	0.098
Mof_C 	C 	0.76562	0.75718	0.0993	0.121
Mof_H 	H 	0.7967	0.7534	0.0889	-0
Mof_C 	C 	0.69454	0.73729	0.1115	0.127
Mof_H 	H 	0.6739	0.7192	0.111	-0.013
Mof_C 	C 	0.67759	0.76842	0.1307	-0.198
Mof_H 	H 	0.6463	0.771	0.1424	0.099
Mof_C 	C 	0.59787	0.92898	0.3163	0.12
Mof_C 	C 	0.56706	0.95563	0.3077	-0.126
Mof_H 	H 	0.5715	0.9735	0.2514	0.078
Mof_C 	C 	0.52924	0.95635	0.3818	-0.011
Mof_H 	H 	0.5101	0.9753	0.3777	0.032
Mof_C 	C 	0.51963	0.92985	0.4606	-0.01
Mof_C 	C 	0.54945	0.90212	0.4629	-0.007
Mof_H 	H 	0.5428	0.8831	0.5111	0.033
Mof_C 	C 	0.58811	0.90193	0.3968	-0.127
Mof_H 	H 	0.6082	0.8835	0.4054	0.08
Mof_C 	C 	0.74652	0.10699	0.5491	0.101
Mof_H 	H 	0.7776	0.1134	0.5599	0.006
Mof_C 	C 	0.73535	0.07474	0.5843	-0.183
Mof_H 	H 	0.7587	0.0601	0.618	0.093
Mof_C 	C 	0.68985	0.06361	0.5703	0.124
Mof_C 	C 	0.65758	0.08702	0.518	-0.183
Mof_H 	H 	0.6263	0.0813	0.5063	0.092
Mof_C 	C 	0.67147	0.11844	0.4835	0.103
Mof_H 	H 	0.6489	0.1331	0.4456	0.009
Mof_C 	C 	0.67758	0.02912	0.6116	-0.088
Mof_C 	C 	0.71003	0.00572	0.6606	0.046
Mof_H 	H 	0.7414	0.0112	0.6659	0.009
Mof_C 	C 	0.69682	0.97454	0.7016	-0.174
Mof_H 	H 	0.7195	0.9594	0.7357	0.092
Mof_C 	C 	0.65079	0.96487	0.6937	0.15
Mof_C 	C 	0.61721	0.98726	0.6394	-0.171
Mof_H 	H 	0.5862	0.9808	0.6295	0.094
Mof_C 	C 	0.62966	0.01855	0.6006	0.041
Mof_H 	H 	0.6068	0.0335	0.5663	0.01
Mof_C 	C 	0.66413	0.9037	0.7245	0.137
Mof_C 	C 	0.67052	0.87877	0.8246	-0.159
Mof_H 	H 	0.6605	0.8827	0.9064	0.092
Mof_C 	C 	0.69157	0.84905	0.7985	0.041
Mof_H 	H 	0.6955	0.8328	0.8643	0.016
Mof_C 	C 	0.70751	0.84178	0.6786	-0.079
Mof_C 	C 	0.70334	0.86794	0.5835	0.04
Mof_H 	H 	0.7148	0.8645	0.5032	0.015
Mof_C 	C 	0.68288	0.89784	0.6082	-0.163
Mof_H 	H 	0.6815	0.9148	0.5453	0.092
Mof_C 	C 	0.72567	0.80848	0.6486	0.119
Mof_C 	C 	0.7256	0.78164	0.7373	-0.169
Mof_H 	H 	0.7159	0.7856	0.8195	0.093
Mof_C 	C 	0.73944	0.74964	0.7063	0.098
Mof_H 	H 	0.7393	0.7327	0.7689	0.016
Mof_C 	C 	0.7517	0.76694	0.5027	0.106
Mof_H 	H 	0.7611	0.7621	0.4208	0.012
Mof_C 	C 	0.7374	0.79909	0.5246	-0.174
Mof_H 	H 	0.7355	0.8149	0.4571	0.093
Mof_C 	C 	0.59712	0.93185	0.8143	0.129
Mof_C 	C 	0.58577	0.95918	0.8895	-0.134
Mof_H 	H 	0.6045	0.9784	0.8936	0.083
Mof_C 	C 	0.5474	0.95848	0.9581	-0.004
Mof_H 	H 	0.5396	0.9777	0.0035	0.031
Mof_C 	C 	0.52022	0.92985	0.961	-0.011
Mof_C 	C 	0.53232	0.90277	0.8889	-0.008
Mof_H 	H 	0.5145	0.8832	0.8892	0.031
Mof_C 	C 	0.57028	0.90324	0.8147	-0.134
Mof_H 	H 	0.5772	0.8844	0.7661	0.081
Mof_C 	C 	0.82494	0.1728	0.4725	0.308
Mof_C 	C 	0.87727	0.16897	0.4802	-0.091
Mof_C 	C 	0.90002	0.16138	0.3729	0.026
Mof_H 	H 	0.8825	0.1577	0.2933	0.032
Mof_C 	C 	0.94696	0.15907	0.378	-0.1
Mof_H 	H 	0.9608	0.154	0.3024	0.063
Mof_C 	C 	0.97492	0.1642	0.4963	0.034
Mof_C 	C 	0.95155	0.1727	0.6065	-0.094
Mof_H 	H 	0.9688	0.1767	0.6863	0.062
Mof_C 	C 	0.90348	0.17521	0.5982	0.019
Mof_H 	H 	0.8889	0.1811	0.6716	0.035
Mof_C 	C 	0.66776	0.19027	0.1835	0.334
Mof_C 	C 	0.61794	0.19387	0.1267	-0.103
Mof_C 	C 	0.58388	0.1897	0.2065	0.033
Mof_H 	H 	0.5914	0.1839	0.2938	0.036
Mof_C 	C 	0.53739	0.194	0.1576	-0.106
Mof_H 	H 	0.5143	0.1925	0.2141	0.069
Mof_C 	C 	0.52533	0.20061	0.0274	0.044
Mof_C 	C 	0.56066	0.20503	0.947	-0.108
Mof_H 	H 	0.5534	0.21	0.8588	0.071
Mof_C 	C 	0.60577	0.20218	0.9965	0.037
Mof_H 	H 	0.629	0.2059	0.9419	0.037
Mof_C 	C 	0.66869	0.18669	0.6913	0.317
Mof_C 	C 	0.61787	0.1884	0.6336	-0.099
Mof_C 	C 	0.58964	0.16028	0.644	0.027
Mof_H 	H 	0.6019	0.1413	0.6886	0.031
Mof_C 	C 	0.54444	0.15957	0.5909	-0.107
Mof_H 	H 	0.5268	0.14	0.5955	0.065
Mof_C 	C 	0.52457	0.18912	0.5285	0.038
Mof_C 	C 	0.55225	0.21572	0.5205	-0.111
Mof_H 	H 	0.5401	0.2354	0.4807	0.067
Mof_C 	C 	0.59947	0.21527	0.5704	0.033
Mof_H 	H 	0.618	0.2341	0.5587	0.029
Mof_Cd	Cd	0.76034	0.67604	0.05537	0.399
Mof_Cd	Cd	0.76784	0.68634	0.54284	0.462
Mof_O 	O 	0.69374	0.67952	0.4277	-0.282
Mof_O 	O 	0.69815	0.66966	0.6371	-0.277
Mof_O 	O 	0.82606	0.68258	0.6972	-0.296
Mof_O 	O 	0.80113	0.69567	0.8892	-0.293
Mof_O 	O 	0.82267	0.67064	0.2054	-0.29
Mof_O 	O 	0.80234	0.70381	0.366	-0.285
Mof_N 	N 	0.77406	0.62129	0.9866	-0.164
Mof_N 	N 	0.86176	0.42779	0.7552	-0.177
Mof_N 	N 	0.76247	0.23044	0.9064	-0.172
Mof_N 	N 	0.78475	0.62965	0.4998	-0.157
Mof_N 	N 	0.8631	0.4336	0.2559	-0.175
Mof_N 	N 	0.7468	0.24201	0.4111	-0.156
Mof_C 	C 	0.77053	0.61289	0.8613	0.113
Mof_H 	H 	0.7616	0.6296	0.8	0.009
Mof_C 	C 	0.77916	0.58161	0.8172	-0.185
Mof_H 	H 	0.7758	0.5773	0.7278	0.101
Mof_C 	C 	0.79293	0.55583	0.9038	0.124
Mof_C 	C 	0.797	0.56477	0.0354	-0.177
Mof_H 	H 	0.8057	0.5486	0.0987	0.095
Mof_C 	C 	0.7882	0.59758	0.0727	0.102
Mof_H 	H 	0.7923	0.6032	0.161	0.007
Mof_C 	C 	0.80712	0.52138	0.8613	-0.077
Mof_C 	C 	0.82197	0.51673	0.7394	0.038
Mof_H 	H 	0.8211	0.5349	0.6818	0.019
Mof_C 	C 	0.83808	0.48592	0.6998	-0.16
Mof_H 	H 	0.8474	0.4835	0.6163	0.093
Mof_C 	C 	0.84043	0.45811	0.7858	0.141
Mof_C 	C 	0.82172	0.46247	0.9057	-0.157
Mof_H 	H 	0.8204	0.4441	0.9615	0.09
Mof_C 	C 	0.80537	0.49341	0.9424	0.035
Mof_H 	H 	0.7931	0.4956	0.0222	0.017
Mof_C 	C 	0.84439	0.39637	0.7918	0.153
Mof_C 	C 	0.79822	0.3891	0.771	-0.175
Mof_H 	H 	0.7777	0.4059	0.7379	0.092
Mof_C 	C 	0.78096	0.35735	0.7978	0.045
Mof_H 	H 	0.7493	0.353	0.7838	0.01
Mof_C 	C 	0.81138	0.33212	0.8455	-0.089
Mof_C 	C 	0.85758	0.33968	0.8718	0.047
Mof_H 	H 	0.8779	0.323	0.9067	0.01
Mof_C 	C 	0.87449	0.37135	0.8476	-0.173
Mof_H 	H 	0.9058	0.3762	0.8682	0.095
Mof_C 	C 	0.79394	0.29673	0.8667	0.13
Mof_C 	C 	0.74758	0.28957	0.881	-0.195
Mof_H 	H 	0.7258	0.3069	0.8771	0.098
Mof_C 	C 	0.73438	0.25718	0.9007	0.121
Mof_H 	H 	0.7033	0.2534	0.9111	-0
Mof_C 	C 	0.80546	0.23729	0.8885	0.127
Mof_H 	H 	0.8261	0.2192	0.889	-0.013
Mof_C 	C 	0.82241	0.26842	0.8693	-0.198
Mof_H 	H 	0.8537	0.271	0.8576	0.099
Mof_C 	C 	0.90213	0.42898	0.6837	0.12
Mof_C 	C 	0.93294	0.45563	0.6923	-0.126
Mof_H 	H 	0.9285	0.4735	0.7486	0.078
Mof_C 	C 	0.97076	0.45635	0.6182	-0.011
Mof_H 	H 	0.9899	0.4753	0.6223	0.032
Mof_C 	C 	0.98037	0.42985	0.5394	-0.01
Mof_C 	C 	0.95055	0.40212	0.5371	-0.007
Mof_H 	H 	0.9572	0.3831	0.4889	0.033
Mof_C 	C 	0.91189	0.40193	0.6032	-0.127
Mof_H 	H 	0.8918	0.3835	0.5946	0.08
Mof_C 	C 	0.75348	0.60699	0.4509	0.101
Mof_H 	H 	0.7224	0.6134	0.4401	0.006
Mof_C 	C 	0.76465	0.57474	0.4157	-0.183
Mof_H 	H 	0.7413	0.5601	0.382	0.093
Mof_C 	C 	0.81015	0.56361	0.4297	0.125
Mof_C 	C 	0.84242	0.58702	0.482	-0.183
Mof_H 	H 	0.8737	0.5813	0.4937	0.093
Mof_C 	C 	0.82853	0.61844	0.5165	0.103
Mof_H 	H 	0.8511	0.6331	0.5544	0.009
Mof_C 	C 	0.82242	0.52912	0.3884	-0.09
Mof_C 	C 	0.78997	0.50572	0.3394	0.049
Mof_H 	H 	0.7586	0.5112	0.3341	0.008
Mof_C 	C 	0.80318	0.47454	0.2984	-0.177
Mof_H 	H 	0.7805	0.4594	0.2643	0.093
Mof_C 	C 	0.84921	0.46487	0.3063	0.152
Mof_C 	C 	0.88279	0.48726	0.3606	-0.174
Mof_H 	H 	0.9138	0.4808	0.3705	0.095
Mof_C 	C 	0.87034	0.51855	0.3994	0.044
Mof_H 	H 	0.8932	0.5335	0.4337	0.009
Mof_C 	C 	0.83587	0.4037	0.2755	0.137
Mof_C 	C 	0.82948	0.37877	0.1754	-0.159
Mof_H 	H 	0.8395	0.3827	0.0936	0.092
Mof_C 	C 	0.80843	0.34905	0.2015	0.041
Mof_H 	H 	0.8045	0.3328	0.1357	0.016
Mof_C 	C 	0.79249	0.34178	0.3214	-0.079
Mof_C 	C 	0.79666	0.36794	0.4165	0.04
Mof_H 	H 	0.7852	0.3645	0.4968	0.015
Mof_C 	C 	0.81712	0.39784	0.3918	-0.163
Mof_H 	H 	0.8185	0.4148	0.4547	0.092
Mof_C 	C 	0.77433	0.30848	0.3514	0.119
Mof_C 	C 	0.7744	0.28164	0.2627	-0.169
Mof_H 	H 	0.7841	0.2856	0.1805	0.093
Mof_C 	C 	0.76056	0.24964	0.2937	0.098
Mof_H 	H 	0.7607	0.2327	0.2311	0.016
Mof_C 	C 	0.7483	0.26694	0.4973	0.106
Mof_H 	H 	0.7389	0.2621	0.5792	0.012
Mof_C 	C 	0.7626	0.29909	0.4754	-0.174
Mof_H 	H 	0.7645	0.3149	0.5429	0.093
Mof_C 	C 	0.90288	0.43185	0.1857	0.129
Mof_C 	C 	0.91423	0.45918	0.1105	-0.134
Mof_H 	H 	0.8955	0.4784	0.1064	0.083
Mof_C 	C 	0.9526	0.45848	0.0419	-0.004
Mof_H 	H 	0.9604	0.4777	0.9965	0.031
Mof_C 	C 	0.97978	0.42985	0.039	-0.011
Mof_C 	C 	0.96768	0.40277	0.1111	-0.007
Mof_H 	H 	0.9855	0.3832	0.1108	0.031
Mof_C 	C 	0.92972	0.40324	0.1853	-0.134
Mof_H 	H 	0.9228	0.3844	0.2339	0.081
Mof_C 	C 	0.67506	0.6728	0.5275	0.308
Mof_C 	C 	0.62273	0.66897	0.5198	-0.091
Mof_C 	C 	0.59998	0.66138	0.6271	0.026
Mof_H 	H 	0.6175	0.6577	0.7067	0.032
Mof_C 	C 	0.55304	0.65907	0.622	-0.1
Mof_H 	H 	0.5392	0.654	0.6976	0.063
Mof_C 	C 	0.52508	0.6642	0.5037	0.034
Mof_C 	C 	0.54845	0.6727	0.3935	-0.094
Mof_H 	H 	0.5312	0.6767	0.3137	0.062
Mof_C 	C 	0.59652	0.67521	0.4018	0.019
Mof_H 	H 	0.6111	0.6811	0.3284	0.035
Mof_C 	C 	0.83224	0.69027	0.8165	0.334
Mof_C 	C 	0.88206	0.69387	0.8733	-0.103
Mof_C 	C 	0.91612	0.6897	0.7935	0.033
Mof_H 	H 	0.9086	0.6839	0.7062	0.036
Mof_C 	C 	0.96261	0.694	0.8424	-0.106
Mof_H 	H 	0.9857	0.6925	0.7859	0.069
Mof_C 	C 	0.97467	0.70061	0.9726	0.044
Mof_C 	C 	0.93934	0.70503	0.053	-0.108
Mof_H 	H 	0.9466	0.71	0.1412	0.071
Mof_C 	C 	0.89423	0.70218	0.0035	0.037
Mof_H 	H 	0.871	0.7059	0.0581	0.037
Mof_C 	C 	0.83131	0.68669	0.3087	0.317
Mof_C 	C 	0.88213	0.6884	0.3664	-0.099
Mof_C 	C 	0.91036	0.66028	0.356	0.027
Mof_H 	H 	0.8981	0.6413	0.3114	0.031
Mof_C 	C 	0.95556	0.65957	0.4091	-0.107
Mof_H 	H 	0.9732	0.64	0.4045	0.065
Mof_C 	C 	0.97543	0.68912	0.4715	0.038
Mof_C 	C 	0.94775	0.71572	0.4795	-0.111
Mof_H 	H 	0.9599	0.7354	0.5193	0.067
Mof_C 	C 	0.90053	0.71527	0.4296	0.033
Mof_H 	H 	0.882	0.7341	0.4413	0.029
Mof_Cd	Cd	0.26034	0.17604	0.05537	0.399
Mof_Cd	Cd	0.26784	0.18634	0.54284	0.462
Mof_O 	O 	0.19374	0.17952	0.4277	-0.282
Mof_O 	O 	0.19815	0.16966	0.6371	-0.277
Mof_O 	O 	0.32606	0.18258	0.6972	-0.296
Mof_O 	O 	0.30113	0.19567	0.8892	-0.293
Mof_O 	O 	0.32267	0.17064	0.2054	-0.29
Mof_O 	O 	0.30234	0.20381	0.366	-0.285
Mof_N 	N 	0.27406	0.12129	0.9866	-0.164
Mof_N 	N 	0.36176	0.92779	0.7552	-0.177
Mof_N 	N 	0.26247	0.73044	0.9064	-0.172
Mof_N 	N 	0.28475	0.12965	0.4998	-0.157
Mof_N 	N 	0.3631	0.9336	0.2559	-0.175
Mof_N 	N 	0.2468	0.74201	0.4111	-0.156
Mof_C 	C 	0.27053	0.11289	0.8613	0.113
Mof_H 	H 	0.2616	0.1296	0.8	0.009
Mof_C 	C 	0.27916	0.08161	0.8172	-0.185
Mof_H 	H 	0.2758	0.0773	0.7278	0.101
Mof_C 	C 	0.29293	0.05583	0.9038	0.124
Mof_C 	C 	0.297	0.06477	0.0354	-0.177
Mof_H 	H 	0.3057	0.0486	0.0987	0.095
Mof_C 	C 	0.2882	0.09758	0.0727	0.102
Mof_H 	H 	0.2923	0.1032	0.161	0.007
Mof_C 	C 	0.30712	0.02138	0.8613	-0.078
Mof_C 	C 	0.32197	0.01673	0.7394	0.037
Mof_H 	H 	0.3211	0.0349	0.6818	0.019
Mof_C 	C 	0.33808	0.98592	0.6998	-0.159
Mof_H 	H 	0.3474	0.9835	0.6163	0.093
Mof_C 	C 	0.34043	0.95811	0.7858	0.141
Mof_C 	C 	0.32172	0.96247	0.9057	-0.158
Mof_H 	H 	0.3204	0.9441	0.9615	0.09
Mof_C 	C 	0.30537	0.99341	0.9424	0.036
Mof_H 	H 	0.2931	0.9956	0.0222	0.017
Mof_C 	C 	0.34439	0.89637	0.7918	0.153
Mof_C 	C 	0.29822	0.8891	0.771	-0.175
Mof_H 	H 	0.2777	0.9059	0.7379	0.092
Mof_C 	C 	0.28096	0.85735	0.7978	0.045
Mof_H 	H 	0.2493	0.853	0.7838	0.01
Mof_C 	C 	0.31138	0.83212	0.8455	-0.089
Mof_C 	C 	0.35758	0.83968	0.8718	0.047
Mof_H 	H 	0.3779	0.823	0.9067	0.01
Mof_C 	C 	0.37449	0.87135	0.8476	-0.173
Mof_H 	H 	0.4058	0.8762	0.8682	0.095
Mof_C 	C 	0.29394	0.79673	0.8667	0.13
Mof_C 	C 	0.24758	0.78957	0.881	-0.195
Mof_H 	H 	0.2258	0.8069	0.8771	0.098
Mof_C 	C 	0.23438	0.75718	0.9007	0.121
Mof_H 	H 	0.2033	0.7534	0.9111	-0
Mof_C 	C 	0.30546	0.73729	0.8885	0.127
Mof_H 	H 	0.3261	0.7192	0.889	-0.013
Mof_C 	C 	0.32241	0.76842	0.8693	-0.198
Mof_H 	H 	0.3537	0.771	0.8576	0.099
Mof_C 	C 	0.40213	0.92898	0.6837	0.12
Mof_C 	C 	0.43294	0.95563	0.6923	-0.126
Mof_H 	H 	0.4285	0.9735	0.7486	0.078
Mof_C 	C 	0.47076	0.95635	0.6182	-0.011
Mof_H 	H 	0.4899	0.9753	0.6223	0.032
Mof_C 	C 	0.48037	0.92985	0.5394	-0.01
Mof_C 	C 	0.45055	0.90212	0.5371	-0.007
Mof_H 	H 	0.4572	0.8831	0.4889	0.033
Mof_C 	C 	0.41189	0.90193	0.6032	-0.127
Mof_H 	H 	0.3918	0.8835	0.5946	0.08
Mof_C 	C 	0.25348	0.10699	0.4509	0.101
Mof_H 	H 	0.2224	0.1134	0.4401	0.006
Mof_C 	C 	0.26465	0.07474	0.4157	-0.183
Mof_H 	H 	0.2413	0.0601	0.382	0.093
Mof_C 	C 	0.31015	0.06361	0.4297	0.124
Mof_C 	C 	0.34242	0.08702	0.482	-0.183
Mof_H 	H 	0.3737	0.0813	0.4937	0.092
Mof_C 	C 	0.32853	0.11844	0.5165	0.103
Mof_H 	H 	0.3511	0.1331	0.5544	0.009
Mof_C 	C 	0.32242	0.02912	0.3884	-0.088
Mof_C 	C 	0.28997	0.00572	0.3394	0.046
Mof_H 	H 	0.2586	0.0112	0.3341	0.009
Mof_C 	C 	0.30318	0.97454	0.2984	-0.174
Mof_H 	H 	0.2805	0.9594	0.2643	0.092
Mof_C 	C 	0.34921	0.96487	0.3063	0.15
Mof_C 	C 	0.38279	0.98726	0.3606	-0.171
Mof_H 	H 	0.4138	0.9808	0.3705	0.094
Mof_C 	C 	0.37034	0.01855	0.3994	0.041
Mof_H 	H 	0.3932	0.0335	0.4337	0.01
Mof_C 	C 	0.33587	0.9037	0.2755	0.137
Mof_C 	C 	0.32948	0.87877	0.1754	-0.159
Mof_H 	H 	0.3395	0.8827	0.0936	0.092
Mof_C 	C 	0.30843	0.84905	0.2015	0.041
Mof_H 	H 	0.3045	0.8328	0.1357	0.016
Mof_C 	C 	0.29249	0.84178	0.3214	-0.079
Mof_C 	C 	0.29666	0.86794	0.4165	0.04
Mof_H 	H 	0.2852	0.8645	0.4968	0.015
Mof_C 	C 	0.31712	0.89784	0.3918	-0.163
Mof_H 	H 	0.3185	0.9148	0.4547	0.092
Mof_C 	C 	0.27433	0.80848	0.3514	0.119
Mof_C 	C 	0.2744	0.78164	0.2627	-0.169
Mof_H 	H 	0.2841	0.7856	0.1805	0.093
Mof_C 	C 	0.26056	0.74964	0.2937	0.098
Mof_H 	H 	0.2607	0.7327	0.2311	0.016
Mof_C 	C 	0.2483	0.76694	0.4973	0.106
Mof_H 	H 	0.2389	0.7621	0.5792	0.012
Mof_C 	C 	0.2626	0.79909	0.4754	-0.174
Mof_H 	H 	0.2645	0.8149	0.5429	0.093
Mof_C 	C 	0.40288	0.93185	0.1857	0.129
Mof_C 	C 	0.41423	0.95918	0.1105	-0.134
Mof_H 	H 	0.3955	0.9784	0.1064	0.083
Mof_C 	C 	0.4526	0.95848	0.0419	-0.004
Mof_H 	H 	0.4604	0.9777	0.9965	0.031
Mof_C 	C 	0.47978	0.92985	0.039	-0.011
Mof_C 	C 	0.46768	0.90277	0.1111	-0.008
Mof_H 	H 	0.4855	0.8832	0.1108	0.031
Mof_C 	C 	0.42972	0.90324	0.1853	-0.134
Mof_H 	H 	0.4228	0.8844	0.2339	0.081
Mof_C 	C 	0.17506	0.1728	0.5275	0.308
Mof_C 	C 	0.12273	0.16897	0.5198	-0.091
Mof_C 	C 	0.09998	0.16138	0.6271	0.026
Mof_H 	H 	0.1175	0.1577	0.7067	0.032
Mof_C 	C 	0.05304	0.15907	0.622	-0.1
Mof_H 	H 	0.0392	0.154	0.6976	0.063
Mof_C 	C 	0.02508	0.1642	0.5037	0.034
Mof_C 	C 	0.04845	0.1727	0.3935	-0.094
Mof_H 	H 	0.0312	0.1767	0.3137	0.062
Mof_C 	C 	0.09652	0.17521	0.4018	0.019
Mof_H 	H 	0.1111	0.1811	0.3284	0.035
Mof_C 	C 	0.33224	0.19027	0.8165	0.334
Mof_C 	C 	0.38206	0.19387	0.8733	-0.103
Mof_C 	C 	0.41612	0.1897	0.7935	0.033
Mof_H 	H 	0.4086	0.1839	0.7062	0.036
Mof_C 	C 	0.46261	0.194	0.8424	-0.106
Mof_H 	H 	0.4857	0.1925	0.7859	0.069
Mof_C 	C 	0.47467	0.20061	0.9726	0.044
Mof_C 	C 	0.43934	0.20503	0.053	-0.108
Mof_H 	H 	0.4466	0.21	0.1412	0.071
Mof_C 	C 	0.39423	0.20218	0.0035	0.037
Mof_H 	H 	0.371	0.2059	0.0581	0.037
Mof_C 	C 	0.33131	0.18669	0.3087	0.317
Mof_C 	C 	0.38213	0.1884	0.3664	-0.099
Mof_C 	C 	0.41036	0.16028	0.356	0.027
Mof_H 	H 	0.3981	0.1413	0.3114	0.031
Mof_C 	C 	0.45556	0.15957	0.4091	-0.107
Mof_H 	H 	0.4732	0.14	0.4045	0.065
Mof_C 	C 	0.47543	0.18912	0.4715	0.038
Mof_C 	C 	0.44775	0.21572	0.4795	-0.111
Mof_H 	H 	0.4599	0.2354	0.5193	0.067
Mof_C 	C 	0.40053	0.21527	0.4296	0.033
Mof_H 	H 	0.382	0.2341	0.4413	0.029
_end
