# CIF file generated by openbabel 3.1.0, see https://openbabel.org
data_I
_chemical_name_common 'image0'
_cell_length_a 34.5922
_cell_length_b 14.8141
_cell_length_c 31.4266
_cell_angle_alpha 90
_cell_angle_beta 100.79
_cell_angle_gamma 90
_space_group_name_H-M_alt 'P 1'
_space_group_name_Hall 'P 1'
loop_
    _symmetry_equiv_pos_as_xyz
    x,y,z
loop_
    _atom_site_label
    _atom_site_type_symbol
    _atom_site_fract_x
    _atom_site_fract_y
    _atom_site_fract_z
    _atom_site_occupancy
    I1       I        0.26719    0.24108    0.20893    1.000
    I2       I        0.37469    0.16549    0.30304    1.000
    I3       I        0.10716    0.26522    0.10149    1.000
    I4       I        0.47441    0.34155    0.37263    1.000
    I5       I        0.14893    0.40061    0.99048    1.000
    I6       I        0.37421    0.26523    0.43775    1.000
    Zn1      Zn       0.12696    0.40554    0.06263    1.000
    Zn2      Zn       0.41353    0.37847    0.40363    1.000
    Zn3      Zn       0.32888    0.14701    0.22909    1.000
    N1       N        0.31660    0.01020    0.22200    1.000
    N2       N        0.26680    0.69140    0.18750    1.000
    C1       C        0.31010    0.59490    0.25060    1.000
    N3       N        0.42690    0.48340    0.44700    1.000
    N4       N        0.42350    0.72190    0.55960    1.000
    C2       C        0.26070    0.60560    0.19310    1.000
    N5       N        0.37700    0.44850    0.35510    1.000
    C3       C        0.51630    0.89430    0.55540    1.000
    N6       N        0.47530    0.76930    0.52560    1.000
    N7       N        0.32040    0.68020    0.24740    1.000
    N8       N        0.58080    0.00690    0.55790    1.000
    C4       C        0.28720    0.97630    0.19470    1.000
    H1       H        0.27000    0.01650    0.17670    1.000
    C5       C        0.29670    0.72750    0.21600    1.000
    C6       C        0.44650    0.71230    0.53040    1.000
    N9       N        0.16910    0.47150    0.10610    1.000
    C7       C        0.33320    0.54260    0.28640    1.000
    C8       C        0.35130    0.77320    0.65080    1.000
    H2       H        0.32890    0.73630    0.65110    1.000
    C9       C        0.44010    0.63230    0.50120    1.000
    N10      N        0.45990    0.84990    0.58540    1.000
    C10      C        0.56710    0.99110    0.59270    1.000
    H3       H        0.57960    0.01860    0.61900    1.000
    N11      N        0.27980    0.55310    0.22490    1.000
    C11      C        0.40710    0.80610    0.61950    1.000
    C12      C        0.34490    0.40920    0.33070    1.000
    H4       H        0.33700    0.35090    0.33820    1.000
    C13      C        0.30390    0.82420    0.21600    1.000
    C14      C        0.48210    0.83480    0.55520    1.000
    N12      N        0.36020    0.83330    0.68030    1.000
    C15      C        0.36620    0.58060    0.31220    1.000
    H5       H        0.37410    0.64040    0.30710    1.000
    C16      C        0.43170    0.79270    0.58490    1.000
    C17      C        0.22800    0.55900    0.16260    1.000
    C18      C        0.34060    0.95170    0.24620    1.000
    H6       H        0.36270    0.97530    0.26560    1.000
    C19      C        0.32380    0.45250    0.29530    1.000
    H7       H        0.30300    0.42220    0.27690    1.000
    C20      C        0.37360    0.75970    0.61800    1.000
    H8       H        0.36490    0.71840    0.59500    1.000
    C21      C        0.46710    0.60460    0.47660    1.000
    H9       H        0.49100    0.63750    0.47840    1.000
    C22      C        0.56570    0.96090    0.52270    1.000
    H10      H        0.57740    0.96750    0.49790    1.000
    C23      C        0.27990    0.88480    0.19050    1.000
    H11      H        0.25820    0.86360    0.16980    1.000
    C24      C        0.46070    0.53260    0.45030    1.000
    H12      H        0.47980    0.51580    0.43370    1.000
    C25      C        0.18170    0.55240    0.09770    1.000
    H13      H        0.17040    0.57880    0.07070    1.000
    C26      C        0.39980    0.50860    0.47100    1.000
    H14      H        0.37660    0.47370    0.46990    1.000
    C27      C        0.33560    0.85990    0.24470    1.000
    H15      H        0.35340    0.82150    0.26300    1.000
    C28      C        0.18710    0.43350    0.14410    1.000
    H16      H        0.17810    0.37630    0.15200    1.000
    C29      C        0.38680    0.52990    0.34500    1.000
    H17      H        0.41000    0.55540    0.36160    1.000
    C30      C        0.40580    0.58450    0.49710    1.000
    H18      H        0.38590    0.60350    0.51220    1.000
    C31      C        0.21050    0.60290    0.12530    1.000
    H19      H        0.21730    0.66270    0.11870    1.000
    C32      C        0.21650    0.47310    0.17060    1.000
    H20      H        0.22990    0.44160    0.19540    1.000
    C33      C        0.53380    0.90380    0.52010    1.000
    H21      H        0.52420    0.87150    0.49410    1.000
    C34      C        0.53450    0.93480    0.59340    1.000
    H22      H        0.52520    0.92490    0.61960    1.000
    C35      C        0.39110    0.88340    0.67800    1.000
    H23      H        0.39640    0.93250    0.69760    1.000
    C36      C        0.41520    0.87140    0.65090    1.000
    H24      H        0.43810    0.90780    0.65290    1.000
    H25      H        0.48880    0.76400    0.50460    1.000
    H26      H        0.27330    0.49660    0.22870    1.000
    I7       I        0.76719    0.74108    0.20893    1.000
    I8       I        0.87469    0.66549    0.30304    1.000
    I9       I        0.60716    0.76522    0.10149    1.000
    I10      I        0.97441    0.84155    0.37263    1.000
    I11      I        0.64893    0.90061    0.99048    1.000
    I12      I        0.87421    0.76523    0.43775    1.000
    Zn4      Zn       0.62696    0.90554    0.06263    1.000
    Zn5      Zn       0.91353    0.87847    0.40363    1.000
    Zn6      Zn       0.82888    0.64701    0.22909    1.000
    N13      N        0.81660    0.51020    0.22200    1.000
    N14      N        0.76680    0.19140    0.18750    1.000
    C37      C        0.81010    0.09490    0.25060    1.000
    N15      N        0.92690    0.98340    0.44700    1.000
    N16      N        0.92350    0.22190    0.55960    1.000
    C38      C        0.76070    0.10560    0.19310    1.000
    N17      N        0.87700    0.94850    0.35510    1.000
    C39      C        0.01630    0.39430    0.55540    1.000
    N18      N        0.97530    0.26930    0.52560    1.000
    N19      N        0.82040    0.18020    0.24740    1.000
    N20      N        0.08080    0.50690    0.55790    1.000
    C40      C        0.78720    0.47630    0.19470    1.000
    H27      H        0.77000    0.51650    0.17670    1.000
    C41      C        0.79670    0.22750    0.21600    1.000
    C42      C        0.94650    0.21230    0.53040    1.000
    N21      N        0.66910    0.97150    0.10610    1.000
    C43      C        0.83320    0.04260    0.28640    1.000
    C44      C        0.85130    0.27320    0.65080    1.000
    H28      H        0.82890    0.23630    0.65110    1.000
    C45      C        0.94010    0.13230    0.50120    1.000
    N22      N        0.95990    0.34990    0.58540    1.000
    C46      C        0.06710    0.49110    0.59270    1.000
    H29      H        0.07960    0.51860    0.61900    1.000
    N23      N        0.77980    0.05310    0.22490    1.000
    C47      C        0.90710    0.30610    0.61950    1.000
    C48      C        0.84490    0.90920    0.33070    1.000
    H30      H        0.83700    0.85090    0.33820    1.000
    C49      C        0.80390    0.32420    0.21600    1.000
    C50      C        0.98210    0.33480    0.55520    1.000
    N24      N        0.86020    0.33330    0.68030    1.000
    C51      C        0.86620    0.08060    0.31220    1.000
    H31      H        0.87410    0.14040    0.30710    1.000
    C52      C        0.93170    0.29270    0.58490    1.000
    C53      C        0.72800    0.05900    0.16260    1.000
    C54      C        0.84060    0.45170    0.24620    1.000
    H32      H        0.86270    0.47530    0.26560    1.000
    C55      C        0.82380    0.95250    0.29530    1.000
    H33      H        0.80300    0.92220    0.27690    1.000
    C56      C        0.87360    0.25970    0.61800    1.000
    H34      H        0.86490    0.21840    0.59500    1.000
    C57      C        0.96710    0.10460    0.47660    1.000
    H35      H        0.99100    0.13750    0.47840    1.000
    C58      C        0.06570    0.46090    0.52270    1.000
    H36      H        0.07740    0.46750    0.49790    1.000
    C59      C        0.77990    0.38480    0.19050    1.000
    H37      H        0.75820    0.36360    0.16980    1.000
    C60      C        0.96070    0.03260    0.45030    1.000
    H38      H        0.97980    0.01580    0.43370    1.000
    C61      C        0.68170    0.05240    0.09770    1.000
    H39      H        0.67040    0.07880    0.07070    1.000
    C62      C        0.89980    0.00860    0.47100    1.000
    H40      H        0.87660    0.97370    0.46990    1.000
    C63      C        0.83560    0.35990    0.24470    1.000
    H41      H        0.85340    0.32150    0.26300    1.000
    C64      C        0.68710    0.93350    0.14410    1.000
    H42      H        0.67810    0.87630    0.15200    1.000
    C65      C        0.88680    0.02990    0.34500    1.000
    H43      H        0.91000    0.05540    0.36160    1.000
    C66      C        0.90580    0.08450    0.49710    1.000
    H44      H        0.88590    0.10350    0.51220    1.000
    C67      C        0.71050    0.10290    0.12530    1.000
    H45      H        0.71730    0.16270    0.11870    1.000
    C68      C        0.71650    0.97310    0.17060    1.000
    H46      H        0.72990    0.94160    0.19540    1.000
    C69      C        0.03380    0.40380    0.52010    1.000
    H47      H        0.02420    0.37150    0.49410    1.000
    C70      C        0.03450    0.43480    0.59340    1.000
    H48      H        0.02520    0.42490    0.61960    1.000
    C71      C        0.89110    0.38340    0.67800    1.000
    H49      H        0.89640    0.43250    0.69760    1.000
    C72      C        0.91520    0.37140    0.65090    1.000
    H50      H        0.93810    0.40780    0.65290    1.000
    H51      H        0.98880    0.26400    0.50460    1.000
    H52      H        0.77330    0.99660    0.22870    1.000
    I13      I        0.26719    0.75892    0.70893    1.000
    I14      I        0.37469    0.83451    0.80304    1.000
    I15      I        0.10716    0.73478    0.60149    1.000
    I16      I        0.47441    0.65845    0.87263    1.000
    I17      I        0.14893    0.59939    0.49048    1.000
    I18      I        0.37421    0.73477    0.93775    1.000
    Zn7      Zn       0.12696    0.59446    0.56263    1.000
    Zn8      Zn       0.41353    0.62153    0.90363    1.000
    Zn9      Zn       0.32888    0.85299    0.72909    1.000
    N25      N        0.31660    0.98980    0.72200    1.000
    N26      N        0.26680    0.30860    0.68750    1.000
    C73      C        0.31010    0.40510    0.75060    1.000
    N27      N        0.42690    0.51660    0.94700    1.000
    N28      N        0.42350    0.27810    0.05960    1.000
    C74      C        0.26070    0.39440    0.69310    1.000
    N29      N        0.37700    0.55150    0.85510    1.000
    C75      C        0.51630    0.10570    0.05540    1.000
    N30      N        0.47530    0.23070    0.02560    1.000
    N31      N        0.32040    0.31980    0.74740    1.000
    N32      N        0.58080    0.99310    0.05790    1.000
    C76      C        0.28720    0.02370    0.69470    1.000
    H53      H        0.27000    0.98350    0.67670    1.000
    C77      C        0.29670    0.27250    0.71600    1.000
    C78      C        0.44650    0.28770    0.03040    1.000
    N33      N        0.16910    0.52850    0.60610    1.000
    C79      C        0.33320    0.45740    0.78640    1.000
    C80      C        0.35130    0.22680    0.15080    1.000
    H54      H        0.32890    0.26370    0.15110    1.000
    C81      C        0.44010    0.36770    0.00120    1.000
    N34      N        0.45990    0.15010    0.08540    1.000
    C82      C        0.56710    0.00890    0.09270    1.000
    H55      H        0.57960    0.98140    0.11900    1.000
    N35      N        0.27980    0.44690    0.72490    1.000
    C83      C        0.40710    0.19390    0.11950    1.000
    C84      C        0.34490    0.59080    0.83070    1.000
    H56      H        0.33700    0.64910    0.83820    1.000
    C85      C        0.30390    0.17580    0.71600    1.000
    C86      C        0.48210    0.16520    0.05520    1.000
    N36      N        0.36020    0.16670    0.18030    1.000
    C87      C        0.36620    0.41940    0.81220    1.000
    H57      H        0.37410    0.35960    0.80710    1.000
    C88      C        0.43170    0.20730    0.08490    1.000
    C89      C        0.22800    0.44100    0.66260    1.000
    C90      C        0.34060    0.04830    0.74620    1.000
    H58      H        0.36270    0.02470    0.76560    1.000
    C91      C        0.32380    0.54750    0.79530    1.000
    H59      H        0.30300    0.57780    0.77690    1.000
    C92      C        0.37360    0.24030    0.11800    1.000
    H60      H        0.36490    0.28160    0.09500    1.000
    C93      C        0.46710    0.39540    0.97660    1.000
    H61      H        0.49100    0.36250    0.97840    1.000
    C94      C        0.56570    0.03910    0.02270    1.000
    H62      H        0.57740    0.03250    0.99790    1.000
    C95      C        0.27990    0.11520    0.69050    1.000
    H63      H        0.25820    0.13640    0.66980    1.000
    C96      C        0.46070    0.46740    0.95030    1.000
    H64      H        0.47980    0.48420    0.93370    1.000
    C97      C        0.18170    0.44760    0.59770    1.000
    H65      H        0.17040    0.42120    0.57070    1.000
    C98      C        0.39980    0.49140    0.97100    1.000
    H66      H        0.37660    0.52630    0.96990    1.000
    C99      C        0.33560    0.14010    0.74470    1.000
    H67      H        0.35340    0.17850    0.76300    1.000
    C100     C        0.18710    0.56650    0.64410    1.000
    H68      H        0.17810    0.62370    0.65200    1.000
    C101     C        0.38680    0.47010    0.84500    1.000
    H69      H        0.41000    0.44460    0.86160    1.000
    C102     C        0.40580    0.41550    0.99710    1.000
    H70      H        0.38590    0.39650    0.01220    1.000
    C103     C        0.21050    0.39710    0.62530    1.000
    H71      H        0.21730    0.33730    0.61870    1.000
    C104     C        0.21650    0.52690    0.67060    1.000
    H72      H        0.22990    0.55840    0.69540    1.000
    C105     C        0.53380    0.09620    0.02010    1.000
    H73      H        0.52420    0.12850    0.99410    1.000
    C106     C        0.53450    0.06520    0.09340    1.000
    H74      H        0.52520    0.07510    0.11960    1.000
    C107     C        0.39110    0.11660    0.17800    1.000
    H75      H        0.39640    0.06750    0.19760    1.000
    C108     C        0.41520    0.12860    0.15090    1.000
    H76      H        0.43810    0.09220    0.15290    1.000
    H77      H        0.48880    0.23600    0.00460    1.000
    H78      H        0.27330    0.50340    0.72870    1.000
    I19      I        0.76719    0.25892    0.70893    1.000
    I20      I        0.87469    0.33451    0.80304    1.000
    I21      I        0.60716    0.23478    0.60149    1.000
    I22      I        0.97441    0.15845    0.87263    1.000
    I23      I        0.64893    0.09939    0.49048    1.000
    I24      I        0.87421    0.23477    0.93775    1.000
    Zn10     Zn       0.62696    0.09446    0.56263    1.000
    Zn11     Zn       0.91353    0.12153    0.90363    1.000
    Zn12     Zn       0.82888    0.35299    0.72909    1.000
    N37      N        0.81660    0.48980    0.72200    1.000
    N38      N        0.76680    0.80860    0.68750    1.000
    C109     C        0.81010    0.90510    0.75060    1.000
    N39      N        0.92690    0.01660    0.94700    1.000
    N40      N        0.92350    0.77810    0.05960    1.000
    C110     C        0.76070    0.89440    0.69310    1.000
    N41      N        0.87700    0.05150    0.85510    1.000
    C111     C        0.01630    0.60570    0.05540    1.000
    N42      N        0.97530    0.73070    0.02560    1.000
    N43      N        0.82040    0.81980    0.74740    1.000
    N44      N        0.08080    0.49310    0.05790    1.000
    C112     C        0.78720    0.52370    0.69470    1.000
    H79      H        0.77000    0.48350    0.67670    1.000
    C113     C        0.79670    0.77250    0.71600    1.000
    C114     C        0.94650    0.78770    0.03040    1.000
    N45      N        0.66910    0.02850    0.60610    1.000
    C115     C        0.83320    0.95740    0.78640    1.000
    C116     C        0.85130    0.72680    0.15080    1.000
    H80      H        0.82890    0.76370    0.15110    1.000
    C117     C        0.94010    0.86770    0.00120    1.000
    N46      N        0.95990    0.65010    0.08540    1.000
    C118     C        0.06710    0.50890    0.09270    1.000
    H81      H        0.07960    0.48140    0.11900    1.000
    N47      N        0.77980    0.94690    0.72490    1.000
    C119     C        0.90710    0.69390    0.11950    1.000
    C120     C        0.84490    0.09080    0.83070    1.000
    H82      H        0.83700    0.14910    0.83820    1.000
    C121     C        0.80390    0.67580    0.71600    1.000
    C122     C        0.98210    0.66520    0.05520    1.000
    N48      N        0.86020    0.66670    0.18030    1.000
    C123     C        0.86620    0.91940    0.81220    1.000
    H83      H        0.87410    0.85960    0.80710    1.000
    C124     C        0.93170    0.70730    0.08490    1.000
    C125     C        0.72800    0.94100    0.66260    1.000
    C126     C        0.84060    0.54830    0.74620    1.000
    H84      H        0.86270    0.52470    0.76560    1.000
    C127     C        0.82380    0.04750    0.79530    1.000
    H85      H        0.80300    0.07780    0.77690    1.000
    C128     C        0.87360    0.74030    0.11800    1.000
    H86      H        0.86490    0.78160    0.09500    1.000
    C129     C        0.96710    0.89540    0.97660    1.000
    H87      H        0.99100    0.86250    0.97840    1.000
    C130     C        0.06570    0.53910    0.02270    1.000
    H88      H        0.07740    0.53250    0.99790    1.000
    C131     C        0.77990    0.61520    0.69050    1.000
    H89      H        0.75820    0.63640    0.66980    1.000
    C132     C        0.96070    0.96740    0.95030    1.000
    H90      H        0.97980    0.98420    0.93370    1.000
    C133     C        0.68170    0.94760    0.59770    1.000
    H91      H        0.67040    0.92120    0.57070    1.000
    C134     C        0.89980    0.99140    0.97100    1.000
    H92      H        0.87660    0.02630    0.96990    1.000
    C135     C        0.83560    0.64010    0.74470    1.000
    H93      H        0.85340    0.67850    0.76300    1.000
    C136     C        0.68710    0.06650    0.64410    1.000
    H94      H        0.67810    0.12370    0.65200    1.000
    C137     C        0.88680    0.97010    0.84500    1.000
    H95      H        0.91000    0.94460    0.86160    1.000
    C138     C        0.90580    0.91550    0.99710    1.000
    H96      H        0.88590    0.89650    0.01220    1.000
    C139     C        0.71050    0.89710    0.62530    1.000
    H97      H        0.71730    0.83730    0.61870    1.000
    C140     C        0.71650    0.02690    0.67060    1.000
    H98      H        0.72990    0.05840    0.69540    1.000
    C141     C        0.03380    0.59620    0.02010    1.000
    H99      H        0.02420    0.62850    0.99410    1.000
    C142     C        0.03450    0.56520    0.09340    1.000
    H100     H        0.02520    0.57510    0.11960    1.000
    C143     C        0.89110    0.61660    0.17800    1.000
    H101     H        0.89640    0.56750    0.19760    1.000
    C144     C        0.91520    0.62860    0.15090    1.000
    H102     H        0.93810    0.59220    0.15290    1.000
    H103     H        0.98880    0.73600    0.00460    1.000
    H104     H        0.77330    0.00340    0.72870    1.000
    I25      I        0.73281    0.24108    0.29107    1.000
    I26      I        0.62531    0.16549    0.19696    1.000
    I27      I        0.89284    0.26522    0.39851    1.000
    I28      I        0.52559    0.34155    0.12737    1.000
    I29      I        0.85107    0.40061    0.50952    1.000
    I30      I        0.62579    0.26523    0.06225    1.000
    Zn13     Zn       0.87304    0.40554    0.43737    1.000
    Zn14     Zn       0.58647    0.37847    0.09637    1.000
    Zn15     Zn       0.67112    0.14701    0.27091    1.000
    N49      N        0.68340    0.01020    0.27800    1.000
    N50      N        0.73320    0.69140    0.31250    1.000
    C145     C        0.68990    0.59490    0.24940    1.000
    N51      N        0.57310    0.48340    0.05300    1.000
    N52      N        0.57650    0.72190    0.94040    1.000
    C146     C        0.73930    0.60560    0.30690    1.000
    N53      N        0.62300    0.44850    0.14490    1.000
    C147     C        0.48370    0.89430    0.94460    1.000
    N54      N        0.52470    0.76930    0.97440    1.000
    N55      N        0.67960    0.68020    0.25260    1.000
    N56      N        0.41920    0.00690    0.94210    1.000
    C148     C        0.71280    0.97630    0.30530    1.000
    H105     H        0.73000    0.01650    0.32330    1.000
    C149     C        0.70330    0.72750    0.28400    1.000
    C150     C        0.55350    0.71230    0.96960    1.000
    N57      N        0.83090    0.47150    0.39390    1.000
    C151     C        0.66680    0.54260    0.21360    1.000
    C152     C        0.64870    0.77320    0.84920    1.000
    H106     H        0.67110    0.73630    0.84890    1.000
    C153     C        0.55990    0.63230    0.99880    1.000
    N58      N        0.54010    0.84990    0.91460    1.000
    C154     C        0.43290    0.99110    0.90730    1.000
    H107     H        0.42040    0.01860    0.88100    1.000
    N59      N        0.72020    0.55310    0.27510    1.000
    C155     C        0.59290    0.80610    0.88050    1.000
    C156     C        0.65510    0.40920    0.16930    1.000
    H108     H        0.66300    0.35090    0.16180    1.000
    C157     C        0.69610    0.82420    0.28400    1.000
    C158     C        0.51790    0.83480    0.94480    1.000
    N60      N        0.63980    0.83330    0.81970    1.000
    C159     C        0.63380    0.58060    0.18780    1.000
    H109     H        0.62590    0.64040    0.19290    1.000
    C160     C        0.56830    0.79270    0.91510    1.000
    C161     C        0.77200    0.55900    0.33740    1.000
    C162     C        0.65940    0.95170    0.25380    1.000
    H110     H        0.63730    0.97530    0.23440    1.000
    C163     C        0.67620    0.45250    0.20470    1.000
    H111     H        0.69700    0.42220    0.22310    1.000
    C164     C        0.62640    0.75970    0.88200    1.000
    H112     H        0.63510    0.71840    0.90500    1.000
    C165     C        0.53290    0.60460    0.02340    1.000
    H113     H        0.50900    0.63750    0.02160    1.000
    C166     C        0.43430    0.96090    0.97730    1.000
    H114     H        0.42260    0.96750    0.00210    1.000
    C167     C        0.72010    0.88480    0.30950    1.000
    H115     H        0.74180    0.86360    0.33020    1.000
    C168     C        0.53930    0.53260    0.04970    1.000
    H116     H        0.52020    0.51580    0.06630    1.000
    C169     C        0.81830    0.55240    0.40230    1.000
    H117     H        0.82960    0.57880    0.42930    1.000
    C170     C        0.60020    0.50860    0.02900    1.000
    H118     H        0.62340    0.47370    0.03010    1.000
    C171     C        0.66440    0.85990    0.25530    1.000
    H119     H        0.64660    0.82150    0.23700    1.000
    C172     C        0.81290    0.43350    0.35590    1.000
    H120     H        0.82190    0.37630    0.34800    1.000
    C173     C        0.61320    0.52990    0.15500    1.000
    H121     H        0.59000    0.55540    0.13840    1.000
    C174     C        0.59420    0.58450    0.00290    1.000
    H122     H        0.61410    0.60350    0.98780    1.000
    C175     C        0.78950    0.60290    0.37470    1.000
    H123     H        0.78270    0.66270    0.38130    1.000
    C176     C        0.78350    0.47310    0.32940    1.000
    H124     H        0.77010    0.44160    0.30460    1.000
    C177     C        0.46620    0.90380    0.97990    1.000
    H125     H        0.47580    0.87150    0.00590    1.000
    C178     C        0.46550    0.93480    0.90660    1.000
    H126     H        0.47480    0.92490    0.88040    1.000
    C179     C        0.60890    0.88340    0.82200    1.000
    H127     H        0.60360    0.93250    0.80240    1.000
    C180     C        0.58480    0.87140    0.84910    1.000
    H128     H        0.56190    0.90780    0.84710    1.000
    H129     H        0.51120    0.76400    0.99540    1.000
    H130     H        0.72670    0.49660    0.27130    1.000
    I31      I        0.23281    0.74108    0.29107    1.000
    I32      I        0.12531    0.66549    0.19696    1.000
    I33      I        0.39284    0.76522    0.39851    1.000
    I34      I        0.02559    0.84155    0.12737    1.000
    I35      I        0.35107    0.90061    0.50952    1.000
    I36      I        0.12579    0.76523    0.06225    1.000
    Zn16     Zn       0.37304    0.90554    0.43737    1.000
    Zn17     Zn       0.08647    0.87847    0.09637    1.000
    Zn18     Zn       0.17112    0.64701    0.27091    1.000
    N61      N        0.18340    0.51020    0.27800    1.000
    N62      N        0.23320    0.19140    0.31250    1.000
    C181     C        0.18990    0.09490    0.24940    1.000
    N63      N        0.07310    0.98340    0.05300    1.000
    N64      N        0.07650    0.22190    0.94040    1.000
    C182     C        0.23930    0.10560    0.30690    1.000
    N65      N        0.12300    0.94850    0.14490    1.000
    C183     C        0.98370    0.39430    0.94460    1.000
    N66      N        0.02470    0.26930    0.97440    1.000
    N67      N        0.17960    0.18020    0.25260    1.000
    N68      N        0.91920    0.50690    0.94210    1.000
    C184     C        0.21280    0.47630    0.30530    1.000
    H131     H        0.23000    0.51650    0.32330    1.000
    C185     C        0.20330    0.22750    0.28400    1.000
    C186     C        0.05350    0.21230    0.96960    1.000
    N69      N        0.33090    0.97150    0.39390    1.000
    C187     C        0.16680    0.04260    0.21360    1.000
    C188     C        0.14870    0.27320    0.84920    1.000
    H132     H        0.17110    0.23630    0.84890    1.000
    C189     C        0.05990    0.13230    0.99880    1.000
    N70      N        0.04010    0.34990    0.91460    1.000
    C190     C        0.93290    0.49110    0.90730    1.000
    H133     H        0.92040    0.51860    0.88100    1.000
    N71      N        0.22020    0.05310    0.27510    1.000
    C191     C        0.09290    0.30610    0.88050    1.000
    C192     C        0.15510    0.90920    0.16930    1.000
    H134     H        0.16300    0.85090    0.16180    1.000
    C193     C        0.19610    0.32420    0.28400    1.000
    C194     C        0.01790    0.33480    0.94480    1.000
    N72      N        0.13980    0.33330    0.81970    1.000
    C195     C        0.13380    0.08060    0.18780    1.000
    H135     H        0.12590    0.14040    0.19290    1.000
    C196     C        0.06830    0.29270    0.91510    1.000
    C197     C        0.27200    0.05900    0.33740    1.000
    C198     C        0.15940    0.45170    0.25380    1.000
    H136     H        0.13730    0.47530    0.23440    1.000
    C199     C        0.17620    0.95250    0.20470    1.000
    H137     H        0.19700    0.92220    0.22310    1.000
    C200     C        0.12640    0.25970    0.88200    1.000
    H138     H        0.13510    0.21840    0.90500    1.000
    C201     C        0.03290    0.10460    0.02340    1.000
    H139     H        0.00900    0.13750    0.02160    1.000
    C202     C        0.93430    0.46090    0.97730    1.000
    H140     H        0.92260    0.46750    0.00210    1.000
    C203     C        0.22010    0.38480    0.30950    1.000
    H141     H        0.24180    0.36360    0.33020    1.000
    C204     C        0.03930    0.03260    0.04970    1.000
    H142     H        0.02020    0.01580    0.06630    1.000
    C205     C        0.31830    0.05240    0.40230    1.000
    H143     H        0.32960    0.07880    0.42930    1.000
    C206     C        0.10020    0.00860    0.02900    1.000
    H144     H        0.12340    0.97370    0.03010    1.000
    C207     C        0.16440    0.35990    0.25530    1.000
    H145     H        0.14660    0.32150    0.23700    1.000
    C208     C        0.31290    0.93350    0.35590    1.000
    H146     H        0.32190    0.87630    0.34800    1.000
    C209     C        0.11320    0.02990    0.15500    1.000
    H147     H        0.09000    0.05540    0.13840    1.000
    C210     C        0.09420    0.08450    0.00290    1.000
    H148     H        0.11410    0.10350    0.98780    1.000
    C211     C        0.28950    0.10290    0.37470    1.000
    H149     H        0.28270    0.16270    0.38130    1.000
    C212     C        0.28350    0.97310    0.32940    1.000
    H150     H        0.27010    0.94160    0.30460    1.000
    C213     C        0.96620    0.40380    0.97990    1.000
    H151     H        0.97580    0.37150    0.00590    1.000
    C214     C        0.96550    0.43480    0.90660    1.000
    H152     H        0.97480    0.42490    0.88040    1.000
    C215     C        0.10890    0.38340    0.82200    1.000
    H153     H        0.10360    0.43250    0.80240    1.000
    C216     C        0.08480    0.37140    0.84910    1.000
    H154     H        0.06190    0.40780    0.84710    1.000
    H155     H        0.01120    0.26400    0.99540    1.000
    H156     H        0.22670    0.99660    0.27130    1.000
    I37      I        0.73281    0.75892    0.79107    1.000
    I38      I        0.62531    0.83451    0.69696    1.000
    I39      I        0.89284    0.73478    0.89851    1.000
    I40      I        0.52559    0.65845    0.62737    1.000
    I41      I        0.85107    0.59939    0.00952    1.000
    I42      I        0.62579    0.73477    0.56225    1.000
    Zn19     Zn       0.87304    0.59446    0.93737    1.000
    Zn20     Zn       0.58647    0.62153    0.59637    1.000
    Zn21     Zn       0.67112    0.85299    0.77091    1.000
    N73      N        0.68340    0.98980    0.77800    1.000
    N74      N        0.73320    0.30860    0.81250    1.000
    C217     C        0.68990    0.40510    0.74940    1.000
    N75      N        0.57310    0.51660    0.55300    1.000
    N76      N        0.57650    0.27810    0.44040    1.000
    C218     C        0.73930    0.39440    0.80690    1.000
    N77      N        0.62300    0.55150    0.64490    1.000
    C219     C        0.48370    0.10570    0.44460    1.000
    N78      N        0.52470    0.23070    0.47440    1.000
    N79      N        0.67960    0.31980    0.75260    1.000
    N80      N        0.41920    0.99310    0.44210    1.000
    C220     C        0.71280    0.02370    0.80530    1.000
    H157     H        0.73000    0.98350    0.82330    1.000
    C221     C        0.70330    0.27250    0.78400    1.000
    C222     C        0.55350    0.28770    0.46960    1.000
    N81      N        0.83090    0.52850    0.89390    1.000
    C223     C        0.66680    0.45740    0.71360    1.000
    C224     C        0.64870    0.22680    0.34920    1.000
    H158     H        0.67110    0.26370    0.34890    1.000
    C225     C        0.55990    0.36770    0.49880    1.000
    N82      N        0.54010    0.15010    0.41460    1.000
    C226     C        0.43290    0.00890    0.40730    1.000
    H159     H        0.42040    0.98140    0.38100    1.000
    N83      N        0.72020    0.44690    0.77510    1.000
    C227     C        0.59290    0.19390    0.38050    1.000
    C228     C        0.65510    0.59080    0.66930    1.000
    H160     H        0.66300    0.64910    0.66180    1.000
    C229     C        0.69610    0.17580    0.78400    1.000
    C230     C        0.51790    0.16520    0.44480    1.000
    N84      N        0.63980    0.16670    0.31970    1.000
    C231     C        0.63380    0.41940    0.68780    1.000
    H161     H        0.62590    0.35960    0.69290    1.000
    C232     C        0.56830    0.20730    0.41510    1.000
    C233     C        0.77200    0.44100    0.83740    1.000
    C234     C        0.65940    0.04830    0.75380    1.000
    H162     H        0.63730    0.02470    0.73440    1.000
    C235     C        0.67620    0.54750    0.70470    1.000
    H163     H        0.69700    0.57780    0.72310    1.000
    C236     C        0.62640    0.24030    0.38200    1.000
    H164     H        0.63510    0.28160    0.40500    1.000
    C237     C        0.53290    0.39540    0.52340    1.000
    H165     H        0.50900    0.36250    0.52160    1.000
    C238     C        0.43430    0.03910    0.47730    1.000
    H166     H        0.42260    0.03250    0.50210    1.000
    C239     C        0.72010    0.11520    0.80950    1.000
    H167     H        0.74180    0.13640    0.83020    1.000
    C240     C        0.53930    0.46740    0.54970    1.000
    H168     H        0.52020    0.48420    0.56630    1.000
    C241     C        0.81830    0.44760    0.90230    1.000
    H169     H        0.82960    0.42120    0.92930    1.000
    C242     C        0.60020    0.49140    0.52900    1.000
    H170     H        0.62340    0.52630    0.53010    1.000
    C243     C        0.66440    0.14010    0.75530    1.000
    H171     H        0.64660    0.17850    0.73700    1.000
    C244     C        0.81290    0.56650    0.85590    1.000
    H172     H        0.82190    0.62370    0.84800    1.000
    C245     C        0.61320    0.47010    0.65500    1.000
    H173     H        0.59000    0.44460    0.63840    1.000
    C246     C        0.59420    0.41550    0.50290    1.000
    H174     H        0.61410    0.39650    0.48780    1.000
    C247     C        0.78950    0.39710    0.87470    1.000
    H175     H        0.78270    0.33730    0.88130    1.000
    C248     C        0.78350    0.52690    0.82940    1.000
    H176     H        0.77010    0.55840    0.80460    1.000
    C249     C        0.46620    0.09620    0.47990    1.000
    H177     H        0.47580    0.12850    0.50590    1.000
    C250     C        0.46550    0.06520    0.40660    1.000
    H178     H        0.47480    0.07510    0.38040    1.000
    C251     C        0.60890    0.11660    0.32200    1.000
    H179     H        0.60360    0.06750    0.30240    1.000
    C252     C        0.58480    0.12860    0.34910    1.000
    H180     H        0.56190    0.09220    0.34710    1.000
    H181     H        0.51120    0.23600    0.49540    1.000
    H182     H        0.72670    0.50340    0.77130    1.000
    I43      I        0.23281    0.25892    0.79107    1.000
    I44      I        0.12531    0.33451    0.69696    1.000
    I45      I        0.39284    0.23478    0.89851    1.000
    I46      I        0.02559    0.15845    0.62737    1.000
    I47      I        0.35107    0.09939    0.00952    1.000
    I48      I        0.12579    0.23477    0.56225    1.000
    Zn22     Zn       0.37304    0.09446    0.93737    1.000
    Zn23     Zn       0.08647    0.12153    0.59637    1.000
    Zn24     Zn       0.17112    0.35299    0.77091    1.000
    N85      N        0.18340    0.48980    0.77800    1.000
    N86      N        0.23320    0.80860    0.81250    1.000
    C253     C        0.18990    0.90510    0.74940    1.000
    N87      N        0.07310    0.01660    0.55300    1.000
    N88      N        0.07650    0.77810    0.44040    1.000
    C254     C        0.23930    0.89440    0.80690    1.000
    N89      N        0.12300    0.05150    0.64490    1.000
    C255     C        0.98370    0.60570    0.44460    1.000
    N90      N        0.02470    0.73070    0.47440    1.000
    N91      N        0.17960    0.81980    0.75260    1.000
    N92      N        0.91920    0.49310    0.44210    1.000
    C256     C        0.21280    0.52370    0.80530    1.000
    H183     H        0.23000    0.48350    0.82330    1.000
    C257     C        0.20330    0.77250    0.78400    1.000
    C258     C        0.05350    0.78770    0.46960    1.000
    N93      N        0.33090    0.02850    0.89390    1.000
    C259     C        0.16680    0.95740    0.71360    1.000
    C260     C        0.14870    0.72680    0.34920    1.000
    H184     H        0.17110    0.76370    0.34890    1.000
    C261     C        0.05990    0.86770    0.49880    1.000
    N94      N        0.04010    0.65010    0.41460    1.000
    C262     C        0.93290    0.50890    0.40730    1.000
    H185     H        0.92040    0.48140    0.38100    1.000
    N95      N        0.22020    0.94690    0.77510    1.000
    C263     C        0.09290    0.69390    0.38050    1.000
    C264     C        0.15510    0.09080    0.66930    1.000
    H186     H        0.16300    0.14910    0.66180    1.000
    C265     C        0.19610    0.67580    0.78400    1.000
    C266     C        0.01790    0.66520    0.44480    1.000
    N96      N        0.13980    0.66670    0.31970    1.000
    C267     C        0.13380    0.91940    0.68780    1.000
    H187     H        0.12590    0.85960    0.69290    1.000
    C268     C        0.06830    0.70730    0.41510    1.000
    C269     C        0.27200    0.94100    0.83740    1.000
    C270     C        0.15940    0.54830    0.75380    1.000
    H188     H        0.13730    0.52470    0.73440    1.000
    C271     C        0.17620    0.04750    0.70470    1.000
    H189     H        0.19700    0.07780    0.72310    1.000
    C272     C        0.12640    0.74030    0.38200    1.000
    H190     H        0.13510    0.78160    0.40500    1.000
    C273     C        0.03290    0.89540    0.52340    1.000
    H191     H        0.00900    0.86250    0.52160    1.000
    C274     C        0.93430    0.53910    0.47730    1.000
    H192     H        0.92260    0.53250    0.50210    1.000
    C275     C        0.22010    0.61520    0.80950    1.000
    H193     H        0.24180    0.63640    0.83020    1.000
    C276     C        0.03930    0.96740    0.54970    1.000
    H194     H        0.02020    0.98420    0.56630    1.000
    C277     C        0.31830    0.94760    0.90230    1.000
    H195     H        0.32960    0.92120    0.92930    1.000
    C278     C        0.10020    0.99140    0.52900    1.000
    H196     H        0.12340    0.02630    0.53010    1.000
    C279     C        0.16440    0.64010    0.75530    1.000
    H197     H        0.14660    0.67850    0.73700    1.000
    C280     C        0.31290    0.06650    0.85590    1.000
    H198     H        0.32190    0.12370    0.84800    1.000
    C281     C        0.11320    0.97010    0.65500    1.000
    H199     H        0.09000    0.94460    0.63840    1.000
    C282     C        0.09420    0.91550    0.50290    1.000
    H200     H        0.11410    0.89650    0.48780    1.000
    C283     C        0.28950    0.89710    0.87470    1.000
    H201     H        0.28270    0.83730    0.88130    1.000
    C284     C        0.28350    0.02690    0.82940    1.000
    H202     H        0.27010    0.05840    0.80460    1.000
    C285     C        0.96620    0.59620    0.47990    1.000
    H203     H        0.97580    0.62850    0.50590    1.000
    C286     C        0.96550    0.56520    0.40660    1.000
    H204     H        0.97480    0.57510    0.38040    1.000
    C287     C        0.10890    0.61660    0.32200    1.000
    H205     H        0.10360    0.56750    0.30240    1.000
    C288     C        0.08480    0.62860    0.34910    1.000
    H206     H        0.06190    0.59220    0.34710    1.000
    H207     H        0.01120    0.73600    0.49540    1.000
    H208     H        0.22670    0.00340    0.77130    1.000
