data_functionalizedCrystal
_audit_creation_method	'EQeq! by Chris Wilmer'
_symmetry_space_group_name_H-M	'P1'
_symmetry_Int_Tables_number	1
_symmetry_cell_setting	triclinic
loop_
_symmetry_equiv_pos_as_xyz
  x,y,z
_cell_length_a	10.4215
_cell_length_b	10.5323
_cell_length_c	22.2477
_cell_angle_alpha	90
_cell_angle_beta	90
_cell_angle_gamma	90
loop_
_atom_site_label
_atom_site_type_symbol
_atom_site_fract_x
_atom_site_fract_y
_atom_site_fract_z
_atom_site_charge
Mof_Cd	Cd	0.02059	0.58051	0.90326	0.359
Mof_Cd	Cd	0.97941	0.08051	0.59674	0.359
Mof_H 	H 	0.7189	0.9145	0.6072	0.003
Mof_H 	H 	0.7719	0.4551	0.6804	0.264
Mof_H 	H 	0.2281	0.9551	0.8196	0.263
Mof_H 	H 	0.6255	0.4121	0.5367	0.007
Mof_H 	H 	0.6565	0.4472	0.6353	0.247
Mof_H 	H 	0.2811	0.4145	0.8928	0.003
Mof_H 	H 	0.782	0.5197	0.6171	0.25
Mof_H 	H 	0.7275	0.674	0.7449	0.025
Mof_H 	H 	0.005	0.9308	0.7191	0.023
Mof_H 	H 	0.6338	0.1409	0.4181	0.036
Mof_H 	H 	0.6269	0.7524	0.6595	0.065
Mof_H 	H 	0.995	0.4308	0.7809	0.023
Mof_H 	H 	0.218	0.0197	0.8829	0.249
Mof_H 	H 	0.3745	0.9121	0.9633	0.006
Mof_H 	H 	0.222	0.5329	0.0241	0.022
Mof_H 	H 	0.778	0.0329	0.4759	0.022
Mof_H 	H 	0.3435	0.9472	0.8647	0.246
Mof_H 	H 	0.2725	0.174	0.7551	0.025
Mof_H 	H 	0.3731	0.2524	0.8405	0.064
Mof_H 	H 	0.3662	0.6409	0.0819	0.036
Mof_C 	C 	0.2958	0.2869	0.82753	-0.13
Mof_C 	C 	0.7489	0.1118	0.48876	0
Mof_C 	C 	0.7483	0.4483	0.63881	-0.748
Mof_C 	C 	0.7492	0.2723	0.55776	-0.044
Mof_C 	C 	0.6579	0.335	0.52302	0.031
Mof_C 	C 	0.2508	0.7723	0.94224	-0.043
Mof_C 	C 	0.2517	0.9483	0.86119	-0.747
Mof_C 	C 	0.0718	0.3934	0.79278	0.051
Mof_C 	C 	0.6614	0.1765	0.45411	0.009
Mof_C 	C 	0.1216	0.2956	0.75812	-0.083
Mof_C 	C 	0.0562	0.2495	0.70251	0.209
Mof_C 	C 	0.3386	0.6765	0.04589	0.009
Mof_C 	C 	0.2365	0.2407	0.77669	0.024
Mof_C 	C 	0.9438	0.7495	0.79749	0.21
Mof_C 	C 	0.7042	0.7869	0.67247	-0.13
Mof_C 	C 	0.3421	0.835	0.97698	0.031
Mof_C 	C 	0.8022	0.3281	0.61325	0.241
Mof_C 	C 	0.9282	0.8934	0.70722	0.053
Mof_C 	C 	0.8784	0.7956	0.74188	-0.084
Mof_C 	C 	0.2399	0.3837	0.85869	0.067
Mof_C 	C 	0.1978	0.8281	0.88675	0.241
Mof_C 	C 	0.7635	0.7407	0.72331	0.024
Mof_C 	C 	0.7601	0.8837	0.64131	0.067
Mof_C 	C 	0.2511	0.6118	0.01124	0
Mof_N 	N 	0.3849	0.7889	0.02908	-0.13
Mof_N 	N 	0.6151	0.2889	0.47092	-0.13
Mof_N 	N 	0.955	0.3183	0.68649	-0.121
Mof_N 	N 	0.101	0.7693	0.86398	-0.145
Mof_N 	N 	0.7931	0.1595	0.54029	-0.118
Mof_N 	N 	0.2069	0.6595	0.95971	-0.118
Mof_N 	N 	0.129	0.4362	0.84246	-0.154
Mof_N 	N 	0.045	0.8183	0.81351	-0.121
Mof_N 	N 	0.871	0.9362	0.65754	-0.154
Mof_N 	N 	0.899	0.2693	0.63602	-0.145
Mof_O 	O 	0.10245	0.1531	0.67648	-0.258
Mof_O 	O 	0.89755	0.6531	0.82352	-0.258
Mof_Cd	Cd	0.52059	0.91949	0.09674	0.358
Mof_Cd	Cd	0.47941	0.41949	0.40326	0.359
Mof_H 	H 	0.1565	0.0528	0.3647	0.245
Mof_H 	H 	0.495	0.0692	0.2191	0.024
Mof_H 	H 	0.8435	0.5528	0.1353	0.246
Mof_H 	H 	0.1269	0.7476	0.3405	0.064
Mof_H 	H 	0.278	0.4671	0.5241	0.022
Mof_H 	H 	0.2275	0.826	0.2551	0.025
Mof_H 	H 	0.7281	0.5449	0.1804	0.263
Mof_H 	H 	0.1255	0.0879	0.4633	0.006
Mof_H 	H 	0.8745	0.5879	0.0367	0.006
Mof_H 	H 	0.7811	0.0855	0.1072	0.002
Mof_H 	H 	0.2719	0.0449	0.3196	0.262
Mof_H 	H 	0.282	0.9803	0.3829	0.248
Mof_H 	H 	0.718	0.4803	0.1171	0.25
Mof_H 	H 	0.2189	0.5855	0.3928	0.002
Mof_H 	H 	0.722	0.9671	0.9759	0.022
Mof_H 	H 	0.8662	0.8591	0.9181	0.036
Mof_H 	H 	0.7725	0.326	0.2449	0.026
Mof_H 	H 	0.505	0.5692	0.2809	0.023
Mof_H 	H 	0.1338	0.3591	0.5819	0.036
Mof_H 	H 	0.8731	0.2476	0.1595	0.064
Mof_C 	C 	0.7511	0.8882	0.98876	0.001
Mof_C 	C 	0.7399	0.1163	0.14131	0.067
Mof_C 	C 	0.4282	0.6066	0.29278	0.051
Mof_C 	C 	0.7958	0.2131	0.17247	-0.129
Mof_C 	C 	0.2489	0.3882	0.51124	0
Mof_C 	C 	0.8386	0.8235	0.95411	0.009
Mof_C 	C 	0.2042	0.7131	0.32753	-0.13
Mof_C 	C 	0.3784	0.7044	0.25812	-0.083
Mof_C 	C 	0.1579	0.165	0.47698	0.031
Mof_C 	C 	0.2635	0.7593	0.27669	0.024
Mof_C 	C 	0.2492	0.2277	0.44224	-0.043
Mof_C 	C 	0.2601	0.6163	0.35869	0.067
Mof_C 	C 	0.7517	0.5517	0.13881	-0.748
Mof_C 	C 	0.3022	0.1719	0.38675	0.24
Mof_C 	C 	0.7365	0.2593	0.22331	0.024
Mof_C 	C 	0.6978	0.6719	0.11325	0.241
Mof_C 	C 	0.7508	0.7277	0.05776	-0.043
Mof_C 	C 	0.4438	0.7505	0.20251	0.209
Mof_C 	C 	0.6216	0.2044	0.24188	-0.083
Mof_C 	C 	0.5718	0.1066	0.20722	0.051
Mof_C 	C 	0.1614	0.3235	0.54589	0.009
Mof_C 	C 	0.2483	0.0517	0.36119	-0.744
Mof_C 	C 	0.5562	0.2505	0.29749	0.209
Mof_C 	C 	0.8421	0.665	0.02302	0.03
Mof_N 	N 	0.7069	0.8405	0.04029	-0.118
Mof_N 	N 	0.2931	0.3405	0.45971	-0.118
Mof_N 	N 	0.1151	0.2111	0.52908	-0.13
Mof_N 	N 	0.8849	0.7111	0.97092	-0.13
Mof_N 	N 	0.371	0.5638	0.34246	-0.154
Mof_N 	N 	0.399	0.2307	0.36398	-0.145
Mof_N 	N 	0.629	0.0638	0.15754	-0.154
Mof_N 	N 	0.545	0.6817	0.18649	-0.121
Mof_N 	N 	0.601	0.7307	0.13602	-0.145
Mof_N 	N 	0.455	0.1817	0.31351	-0.121
Mof_O 	O 	0.39755	0.8469	0.17648	-0.258
Mof_O 	O 	0.60245	0.3469	0.32352	-0.258
_end
