# CIF file generated by openbabel 3.1.0, see https://openbabel.org
data_I
_chemical_name_common 'image0'
_cell_length_a 51.1116
_cell_length_b 51.1116
_cell_length_c 15.3938
_cell_angle_alpha 90
_cell_angle_beta 90
_cell_angle_gamma 120
_space_group_name_H-M_alt 'P 1'
_space_group_name_Hall 'P 1'
loop_
    _symmetry_equiv_pos_as_xyz
    x,y,z
loop_
    _atom_site_label
    _atom_site_type_symbol
    _atom_site_fract_x
    _atom_site_fract_y
    _atom_site_fract_z
    _atom_site_occupancy
    Au1      Au       0.16691    0.85037    0.20916    1.000
    Au2      Au       0.17558    0.87476    0.39041    1.000
    Au3      Au       0.11972    0.81666    0.34168    1.000
    Ag1      Ag       0.13172    0.87447    0.27970    1.000
    P1       P        0.16379    0.86765    0.07660    1.000
    P2       P        0.18405    0.91971    0.44420    1.000
    P3       P        0.07008    0.80216    0.35090    1.000
    N1       N        0.15660    0.90910    0.16360    1.000
    N2       N        0.12670    0.90220    0.39650    1.000
    N3       N        0.08200    0.84340    0.22820    1.000
    C1       C        0.12750    0.84330    0.02850    1.000
    C2       C        0.19440    0.87210    0.00830    1.000
    C3       C        0.16620    0.90510    0.08680    1.000
    C4       C        0.20790    0.95090    0.37220    1.000
    C5       C        0.20130    0.92570    0.54970    1.000
    C6       C        0.14830    0.92050    0.45490    1.000
    C7       C        0.06280    0.81820    0.44560    1.000
    C8       C        0.04750    0.76110    0.35200    1.000
    C9       C        0.05890    0.81700    0.25850    1.000
    C10      C        0.15850    0.93550    0.17720    1.000
    C11      C        0.09980    0.89920    0.39880    1.000
    C12      C        0.07740    0.85540    0.15950    1.000
    C13      C        0.11380    0.85340    0.97080    1.000
    C14      C        0.11210    0.81290    0.05050    1.000
    C15      C        0.18960    0.85340    0.94100    1.000
    C16      C        0.22330    0.89500    0.02800    1.000
    C17      C        0.17700    0.92730    0.02170    1.000
    C18      C        0.22780    0.94790    0.31870    1.000
    C19      C        0.20510    0.97640    0.36360    1.000
    C20      C        0.23110    0.94690    0.56440    1.000
    C21      C        0.18500    0.90680    0.61670    1.000
    C22      C        0.14180    0.93670    0.51480    1.000
    C23      C        0.08180    0.82400    0.51910    1.000
    C24      C        0.04110    0.82660    0.44960    1.000
    C25      C        0.03680    0.74720    0.43500    1.000
    C26      C        0.04480    0.74550    0.27600    1.000
    C27      C        0.03050    0.80360    0.21700    1.000
    H1       H        0.15100    0.93900    0.23000    1.000
    C28      C        0.17100    0.95790    0.11650    1.000
    H2       H        0.08520    0.88730    0.35630    1.000
    C29      C        0.09280    0.91320    0.46250    1.000
    H3       H        0.09310    0.87420    0.13830    1.000
    C30      C        0.04970    0.84100    0.11690    1.000
    H4       H        0.12440    0.87390    0.95250    1.000
    C31      C        0.08520    0.83450    0.93920    1.000
    C32      C        0.08290    0.79350    0.01910    1.000
    H5       H        0.12140    0.80510    0.08750    1.000
    H6       H        0.16960    0.83810    0.92720    1.000
    C33      C        0.21410    0.85640    0.89090    1.000
    C34      C        0.24780    0.89950    0.97800    1.000
    H7       H        0.22640    0.90770    0.07650    1.000
    C35      C        0.18550    0.92410    0.93330    1.000
    N4       N        0.17900    0.95390    0.04000    1.000
    H8       H        0.22900    0.93010    0.32250    1.000
    C36      C        0.24550    0.96930    0.26100    1.000
    C37      C        0.22220    0.99750    0.30420    1.000
    H9       H        0.19140    0.97900    0.39910    1.000
    H10      H        0.24240    0.96070    0.51950    1.000
    C38      C        0.24480    0.94860    0.64330    1.000
    C39      C        0.19710    0.90890    0.69460    1.000
    H11      H        0.16450    0.89190    0.60720    1.000
    C40      C        0.16430    0.95920    0.57650    1.000
    N5       N        0.11340    0.93190    0.51880    1.000
    H12      H        0.09730    0.81880    0.51760    1.000
    C41      C        0.07800    0.83700    0.59180    1.000
    C42      C        0.03790    0.84050    0.52340    1.000
    H13      H        0.02810    0.82280    0.40130    1.000
    H14      H        0.03870    0.75830    0.48620    1.000
    C43      C        0.02340    0.71560    0.43400    1.000
    C44      C        0.02940    0.71330    0.27700    1.000
    H15      H        0.05320    0.75620    0.22300    1.000
    C45      C        0.00260    0.77650    0.25100    1.000
    N6       N        0.02780    0.81620    0.14430    1.000
    H16      H        0.17390    0.97720    0.13080    1.000
    H17      H        0.07270    0.90950    0.46670    1.000
    H18      H        0.04710    0.84990    0.06590    1.000
    H19      H        0.07630    0.84230    0.90020    1.000
    C46      C        0.06940    0.80500    0.96300    1.000
    H20      H        0.07230    0.77280    0.03550    1.000
    H21      H        0.21080    0.84260    0.84500    1.000
    C47      C        0.24290    0.87970    0.90970    1.000
    H22      H        0.26750    0.91580    0.98990    1.000
    H23      H        0.19230    0.94300    0.90150    1.000
    H24      H        0.16800    0.90770    0.90360    1.000
    H25      H        0.20180    0.91940    0.93530    1.000
    Ag2      Ag       0.19144    0.98787    0.93908    1.000
    H26      H        0.25970    0.96710    0.22640    1.000
    C48      C        0.24240    0.99520    0.25420    1.000
    H27      H        0.21980    0.01460    0.29760    1.000
    H28      H        0.26550    0.96270    0.65260    1.000
    C49      C        0.22710    0.92890    0.70810    1.000
    H29      H        0.18490    0.89650    0.74090    1.000
    H30      H        0.15460    0.96770    0.61230    1.000
    H31      H        0.18100    0.97540    0.54380    1.000
    H32      H        0.17220    0.94920    0.61400    1.000
    Ag3      Ag       0.09765    0.95078    0.62631    1.000
    H33      H        0.09020    0.84030    0.64170    1.000
    C50      C        0.05560    0.84540    0.59170    1.000
    H34      H        0.02300    0.84640    0.52480    1.000
    H35      H        0.01690    0.70510    0.48770    1.000
    C51      C        0.01940    0.70020    0.36500    1.000
    H36      H        0.02600    0.70130    0.22640    1.000
    H37      H        0.98570    0.77140    0.21130    1.000
    H38      H        0.99770    0.78110    0.30860    1.000
    H39      H        0.00620    0.75940    0.25550    1.000
    H40      H        0.04940    0.79230    0.94190    1.000
    H41      H        0.25950    0.88210    0.87570    1.000
    H42      H        0.25440    0.01090    0.21440    1.000
    H43      H        0.23600    0.92920    0.76270    1.000
    H44      H        0.05320    0.85490    0.64170    1.000
    H45      H        0.00930    0.67890    0.36990    1.000
    Au4      Au       0.83358    0.18370    0.54249    1.000
    Au5      Au       0.84225    0.20810    0.72374    1.000
    Au6      Au       0.78639    0.14999    0.67501    1.000
    Ag4      Ag       0.79839    0.20780    0.61303    1.000
    P4       P        0.83046    0.20098    0.40993    1.000
    P5       P        0.85072    0.25304    0.77753    1.000
    P6       P        0.73675    0.13549    0.68423    1.000
    N7       N        0.82327    0.24243    0.49693    1.000
    N8       N        0.79337    0.23553    0.72983    1.000
    N9       N        0.74867    0.17673    0.56153    1.000
    C52      C        0.79417    0.17663    0.36183    1.000
    C53      C        0.86107    0.20543    0.34163    1.000
    C54      C        0.83287    0.23843    0.42013    1.000
    C55      C        0.87457    0.28423    0.70553    1.000
    C56      C        0.86797    0.25903    0.88303    1.000
    C57      C        0.81497    0.25383    0.78823    1.000
    C58      C        0.72947    0.15153    0.77893    1.000
    C59      C        0.71417    0.09443    0.68533    1.000
    C60      C        0.72557    0.15033    0.59183    1.000
    C61      C        0.82517    0.26883    0.51053    1.000
    C62      C        0.76647    0.23253    0.73213    1.000
    C63      C        0.74407    0.18873    0.49283    1.000
    C64      C        0.78047    0.18673    0.30413    1.000
    C65      C        0.77877    0.14623    0.38383    1.000
    C66      C        0.85627    0.18673    0.27433    1.000
    C67      C        0.88997    0.22833    0.36133    1.000
    C68      C        0.84367    0.26063    0.35503    1.000
    C69      C        0.89447    0.28123    0.65203    1.000
    C70      C        0.87177    0.30973    0.69693    1.000
    C71      C        0.89777    0.28023    0.89773    1.000
    C72      C        0.85167    0.24013    0.95003    1.000
    C73      C        0.80847    0.27003    0.84813    1.000
    C74      C        0.74847    0.15733    0.85243    1.000
    C75      C        0.70777    0.15993    0.78293    1.000
    C76      C        0.70347    0.08053    0.76833    1.000
    C77      C        0.71147    0.07883    0.60933    1.000
    C78      C        0.69717    0.13693    0.55033    1.000
    H46      H        0.81767    0.27233    0.56333    1.000
    C79      C        0.83767    0.29123    0.44983    1.000
    H47      H        0.75187    0.22063    0.68963    1.000
    C80      C        0.75947    0.24653    0.79583    1.000
    H48      H        0.75977    0.20753    0.47163    1.000
    C81      C        0.71637    0.17433    0.45023    1.000
    H49      H        0.79107    0.20723    0.28583    1.000
    C82      C        0.75187    0.16783    0.27253    1.000
    C83      C        0.74957    0.12683    0.35243    1.000
    H50      H        0.78807    0.13843    0.42083    1.000
    H51      H        0.83627    0.17143    0.26053    1.000
    C84      C        0.88077    0.18973    0.22423    1.000
    C85      C        0.91447    0.23283    0.31133    1.000
    H52      H        0.89307    0.24103    0.40983    1.000
    C86      C        0.85217    0.25743    0.26663    1.000
    N10      N        0.84567    0.28723    0.37333    1.000
    H53      H        0.89567    0.26343    0.65583    1.000
    C87      C        0.91217    0.30263    0.59433    1.000
    C88      C        0.88887    0.33083    0.63753    1.000
    H54      H        0.85807    0.31233    0.73243    1.000
    H55      H        0.90907    0.29403    0.85283    1.000
    C89      C        0.91147    0.28193    0.97663    1.000
    C90      C        0.86377    0.24223    0.02793    1.000
    H56      H        0.83117    0.22523    0.94053    1.000
    C91      C        0.83097    0.29253    0.90983    1.000
    N11      N        0.78007    0.26523    0.85213    1.000
    H57      H        0.76397    0.15213    0.85093    1.000
    C92      C        0.74467    0.17033    0.92513    1.000
    C93      C        0.70457    0.17383    0.85673    1.000
    H58      H        0.69477    0.15613    0.73463    1.000
    H59      H        0.70537    0.09163    0.81953    1.000
    C94      C        0.69007    0.04893    0.76733    1.000
    C95      C        0.69607    0.04663    0.61033    1.000
    H60      H        0.71987    0.08953    0.55633    1.000
    C96      C        0.66927    0.10983    0.58433    1.000
    N12      N        0.69447    0.14953    0.47763    1.000
    H61      H        0.84057    0.31053    0.46413    1.000
    H62      H        0.73937    0.24283    0.80003    1.000
    H63      H        0.71377    0.18323    0.39923    1.000
    H64      H        0.74297    0.17563    0.23353    1.000
    C97      C        0.73607    0.13833    0.29633    1.000
    H65      H        0.73897    0.10613    0.36883    1.000
    H66      H        0.87747    0.17593    0.17833    1.000
    C98      C        0.90957    0.21303    0.24303    1.000
    H67      H        0.93417    0.24913    0.32323    1.000
    H68      H        0.85897    0.27633    0.23483    1.000
    H69      H        0.83467    0.24103    0.23693    1.000
    H70      H        0.86847    0.25273    0.26863    1.000
    Ag5      Ag       0.85811    0.32120    0.27241    1.000
    H71      H        0.92637    0.30043    0.55973    1.000
    C99      C        0.90907    0.32853    0.58753    1.000
    H72      H        0.88647    0.34793    0.63093    1.000
    H73      H        0.93217    0.29603    0.98593    1.000
    C100     C        0.89377    0.26223    0.04143    1.000
    H74      H        0.85157    0.22983    0.07423    1.000
    H75      H        0.82127    0.30103    0.94563    1.000
    H76      H        0.84767    0.30873    0.87713    1.000
    H77      H        0.83887    0.28253    0.94733    1.000
    Ag6      Ag       0.76432    0.28411    0.95964    1.000
    H78      H        0.75687    0.17363    0.97503    1.000
    C101     C        0.72227    0.17873    0.92503    1.000
    H79      H        0.68967    0.17973    0.85813    1.000
    H80      H        0.68357    0.03843    0.82103    1.000
    C102     C        0.68607    0.03353    0.69833    1.000
    H81      H        0.69267    0.03463    0.55973    1.000
    H82      H        0.65237    0.10473    0.54463    1.000
    H83      H        0.66437    0.11443    0.64193    1.000
    H84      H        0.67287    0.09273    0.58883    1.000
    H85      H        0.71607    0.12563    0.27523    1.000
    H86      H        0.92617    0.21543    0.20903    1.000
    H87      H        0.92107    0.34423    0.54773    1.000
    H88      H        0.90267    0.26253    0.09603    1.000
    H89      H        0.71987    0.18823    0.97503    1.000
    H90      H        0.67597    0.01223    0.70323    1.000
    Au7      Au       0.50025    0.51703    0.87583    1.000
    Au8      Au       0.50892    0.54143    0.05708    1.000
    Au9      Au       0.45306    0.48332    0.00835    1.000
    Ag7      Ag       0.46505    0.54114    0.94637    1.000
    P7       P        0.49712    0.53432    0.74327    1.000
    P8       P        0.51738    0.58638    0.11087    1.000
    P9       P        0.40341    0.46883    0.01757    1.000
    N13      N        0.48993    0.57577    0.83027    1.000
    N14      N        0.46003    0.56887    0.06317    1.000
    N15      N        0.41533    0.51007    0.89487    1.000
    C103     C        0.46083    0.50997    0.69517    1.000
    C104     C        0.52773    0.53877    0.67497    1.000
    C105     C        0.49953    0.57177    0.75347    1.000
    C106     C        0.54123    0.61757    0.03887    1.000
    C107     C        0.53463    0.59237    0.21637    1.000
    C108     C        0.48163    0.58717    0.12157    1.000
    C109     C        0.39613    0.48487    0.11227    1.000
    C110     C        0.38083    0.42777    0.01867    1.000
    C111     C        0.39223    0.48367    0.92517    1.000
    C112     C        0.49183    0.60217    0.84387    1.000
    C113     C        0.43313    0.56587    0.06547    1.000
    C114     C        0.41073    0.52207    0.82617    1.000
    C115     C        0.44713    0.52007    0.63747    1.000
    C116     C        0.44543    0.47957    0.71717    1.000
    C117     C        0.52293    0.52007    0.60767    1.000
    C118     C        0.55663    0.56167    0.69467    1.000
    C119     C        0.51033    0.59397    0.68837    1.000
    C120     C        0.56113    0.61457    0.98537    1.000
    C121     C        0.53843    0.64307    0.03027    1.000
    C122     C        0.56443    0.61357    0.23107    1.000
    C123     C        0.51833    0.57347    0.28337    1.000
    C124     C        0.47513    0.60337    0.18147    1.000
    C125     C        0.41513    0.49067    0.18577    1.000
    C126     C        0.37443    0.49327    0.11627    1.000
    C127     C        0.37013    0.41387    0.10167    1.000
    C128     C        0.37813    0.41217    0.94267    1.000
    C129     C        0.36383    0.47027    0.88367    1.000
    H91      H        0.48433    0.60567    0.89667    1.000
    C130     C        0.50433    0.62457    0.78317    1.000
    H92      H        0.41853    0.55397    0.02297    1.000
    C131     C        0.42613    0.57987    0.12917    1.000
    H93      H        0.42643    0.54087    0.80497    1.000
    C132     C        0.38303    0.50767    0.78357    1.000
    H94      H        0.45773    0.54057    0.61917    1.000
    C133     C        0.41853    0.50117    0.60587    1.000
    C134     C        0.41623    0.46017    0.68577    1.000
    H95      H        0.45473    0.47177    0.75417    1.000
    H96      H        0.50293    0.50477    0.59387    1.000
    C135     C        0.54743    0.52307    0.55757    1.000
    C136     C        0.58113    0.56617    0.64467    1.000
    H97      H        0.55973    0.57437    0.74317    1.000
    C137     C        0.51883    0.59077    0.59997    1.000
    N16      N        0.51233    0.62057    0.70667    1.000
    H98      H        0.56233    0.59677    0.98917    1.000
    C138     C        0.57883    0.63597    0.92767    1.000
    C139     C        0.55553    0.66417    0.97087    1.000
    H99      H        0.52473    0.64567    0.06577    1.000
    H100     H        0.57573    0.62737    0.18617    1.000
    C140     C        0.57813    0.61527    0.30997    1.000
    C141     C        0.53043    0.57557    0.36127    1.000
    H101     H        0.49783    0.55857    0.27387    1.000
    C142     C        0.49763    0.62587    0.24317    1.000
    N17      N        0.44673    0.59857    0.18547    1.000
    H102     H        0.43063    0.48547    0.18427    1.000
    C143     C        0.41133    0.50367    0.25847    1.000
    C144     C        0.37123    0.50717    0.19007    1.000
    H103     H        0.36143    0.48947    0.06797    1.000
    H104     H        0.37203    0.42497    0.15287    1.000
    C145     C        0.35673    0.38227    0.10067    1.000
    C146     C        0.36273    0.37997    0.94367    1.000
    H105     H        0.38653    0.42287    0.88967    1.000
    C147     C        0.33593    0.44317    0.91767    1.000
    N18      N        0.36113    0.48287    0.81097    1.000
    H106     H        0.50723    0.64387    0.79747    1.000
    H107     H        0.40603    0.57617    0.13337    1.000
    H108     H        0.38043    0.51657    0.73257    1.000
    H109     H        0.40963    0.50897    0.56687    1.000
    C148     C        0.40273    0.47167    0.62967    1.000
    H110     H        0.40563    0.43947    0.70217    1.000
    H111     H        0.54413    0.50927    0.51167    1.000
    C149     C        0.57623    0.54637    0.57637    1.000
    H112     H        0.60083    0.58247    0.65657    1.000
    H113     H        0.52563    0.60967    0.56817    1.000
    H114     H        0.50133    0.57437    0.57027    1.000
    H115     H        0.53513    0.58607    0.60197    1.000
    Ag8      Ag       0.52477    0.65454    0.60575    1.000
    H116     H        0.59303    0.63377    0.89307    1.000
    C150     C        0.57573    0.66187    0.92087    1.000
    H117     H        0.55313    0.68127    0.96427    1.000
    H118     H        0.59883    0.62937    0.31927    1.000
    C151     C        0.56043    0.59557    0.37477    1.000
    H119     H        0.51823    0.56317    0.40757    1.000
    H120     H        0.48793    0.63437    0.27897    1.000
    H121     H        0.51433    0.64207    0.21047    1.000
    H122     H        0.50553    0.61587    0.28067    1.000
    Ag9      Ag       0.43098    0.61745    0.29298    1.000
    H123     H        0.42353    0.50697    0.30837    1.000
    C152     C        0.38893    0.51207    0.25837    1.000
    H124     H        0.35633    0.51307    0.19147    1.000
    H125     H        0.35023    0.37177    0.15437    1.000
    C153     C        0.35273    0.36687    0.03167    1.000
    H126     H        0.35933    0.36797    0.89307    1.000
    H127     H        0.31903    0.43807    0.87797    1.000
    H128     H        0.33103    0.44777    0.97527    1.000
    H129     H        0.33953    0.42607    0.92217    1.000
    H130     H        0.38273    0.45897    0.60857    1.000
    H131     H        0.59283    0.54877    0.54237    1.000
    H132     H        0.58773    0.67757    0.88107    1.000
    H133     H        0.56933    0.59587    0.42937    1.000
    H134     H        0.38653    0.52157    0.30837    1.000
    H135     H        0.34263    0.34557    0.03657    1.000
    Au10     Au       0.14963    0.31654    0.20916    1.000
    Au11     Au       0.12524    0.30082    0.39041    1.000
    Au12     Au       0.18334    0.30307    0.34168    1.000
    Ag10     Ag       0.12553    0.25725    0.27970    1.000
    P10      P        0.13235    0.29614    0.07660    1.000
    P11      P        0.08029    0.26434    0.44420    1.000
    P12      P        0.19784    0.26792    0.35090    1.000
    N19      N        0.09090    0.24750    0.16360    1.000
    N20      N        0.09780    0.22450    0.39650    1.000
    N21      N        0.15660    0.23860    0.22820    1.000
    C154     C        0.15670    0.28420    0.02850    1.000
    C155     C        0.12790    0.32230    0.00830    1.000
    C156     C        0.09490    0.26110    0.08680    1.000
    C157     C        0.04910    0.25700    0.37220    1.000
    C158     C        0.07430    0.27560    0.54970    1.000
    C159     C        0.07950    0.22780    0.45490    1.000
    C160     C        0.18180    0.24460    0.44560    1.000
    C161     C        0.23890    0.28640    0.35200    1.000
    C162     C        0.18300    0.24190    0.25850    1.000
    C163     C        0.06450    0.22300    0.17720    1.000
    C164     C        0.10080    0.20060    0.39880    1.000
    C165     C        0.14460    0.22200    0.15950    1.000
    C166     C        0.14660    0.26040    0.97080    1.000
    C167     C        0.18710    0.29920    0.05050    1.000
    C168     C        0.14660    0.33620    0.94100    1.000
    C169     C        0.10500    0.32830    0.02800    1.000
    C170     C        0.07270    0.24970    0.02170    1.000
    C171     C        0.05210    0.27990    0.31870    1.000
    C172     C        0.02360    0.22870    0.36360    1.000
    C173     C        0.05310    0.28420    0.56440    1.000
    C174     C        0.09320    0.27820    0.61670    1.000
    C175     C        0.06330    0.20510    0.51480    1.000
    C176     C        0.17600    0.25780    0.51910    1.000
    C177     C        0.17340    0.21450    0.44960    1.000
    C178     C        0.25280    0.28960    0.43500    1.000
    C179     C        0.25450    0.29930    0.27600    1.000
    C180     C        0.19640    0.22690    0.21700    1.000
    H136     H        0.06100    0.21200    0.23000    1.000
    C181     C        0.04210    0.21310    0.11650    1.000
    H137     H        0.11270    0.19790    0.35630    1.000
    C182     C        0.08680    0.17960    0.46250    1.000
    H138     H        0.12580    0.21890    0.13830    1.000
    C183     C        0.15900    0.20870    0.11690    1.000
    H139     H        0.12610    0.25050    0.95250    1.000
    C184     C        0.16550    0.25070    0.93920    1.000
    C185     C        0.20650    0.28940    0.01910    1.000
    H140     H        0.19490    0.31630    0.08750    1.000
    H141     H        0.16190    0.33150    0.92720    1.000
    C186     C        0.14360    0.35770    0.89090    1.000
    C187     C        0.10050    0.34830    0.97800    1.000
    H142     H        0.09230    0.31870    0.07650    1.000
    C188     C        0.07590    0.26140    0.93330    1.000
    N22      N        0.04610    0.22510    0.04000    1.000
    H143     H        0.06990    0.29890    0.32250    1.000
    C189     C        0.03070    0.27620    0.26100    1.000
    C190     C        0.00250    0.22470    0.30420    1.000
    H144     H        0.02100    0.21240    0.39910    1.000
    H145     H        0.03930    0.28170    0.51950    1.000
    C191     C        0.05140    0.29620    0.64330    1.000
    C192     C        0.09110    0.28820    0.69460    1.000
    H146     H        0.10810    0.27260    0.60720    1.000
    C193     C        0.04080    0.20510    0.57650    1.000
    N23      N        0.06810    0.18150    0.51880    1.000
    H147     H        0.18120    0.27850    0.51760    1.000
    C194     C        0.16300    0.24100    0.59180    1.000
    C195     C        0.15950    0.19740    0.52340    1.000
    H148     H        0.17720    0.20530    0.40130    1.000
    H149     H        0.24170    0.28040    0.48620    1.000
    C196     C        0.28440    0.30780    0.43400    1.000
    C197     C        0.28670    0.31610    0.27700    1.000
    H150     H        0.24380    0.29700    0.22300    1.000
    C198     C        0.22350    0.22610    0.25100    1.000
    N24      N        0.18380    0.21160    0.14430    1.000
    H151     H        0.02280    0.19670    0.13080    1.000
    H152     H        0.09050    0.16320    0.46670    1.000
    H153     H        0.15010    0.19720    0.06590    1.000
    H154     H        0.15770    0.23400    0.90020    1.000
    C199     C        0.19500    0.26440    0.96300    1.000
    H155     H        0.22720    0.29950    0.03550    1.000
    H156     H        0.15740    0.36820    0.84500    1.000
    C200     C        0.12030    0.36320    0.90970    1.000
    H157     H        0.08420    0.35170    0.98990    1.000
    H158     H        0.05700    0.24930    0.90150    1.000
    H159     H        0.09230    0.26030    0.90360    1.000
    H160     H        0.08060    0.28240    0.93530    1.000
    Ag11     Ag       0.01213    0.20357    0.93908    1.000
    H161     H        0.03290    0.29260    0.22640    1.000
    C201     C        0.00480    0.24720    0.25420    1.000
    H162     H        0.98540    0.20520    0.29760    1.000
    H163     H        0.03730    0.30280    0.65260    1.000
    C202     C        0.07110    0.29820    0.70810    1.000
    H164     H        0.10350    0.28840    0.74090    1.000
    H165     H        0.03230    0.18690    0.61230    1.000
    H166     H        0.02460    0.20560    0.54380    1.000
    H167     H        0.05080    0.22300    0.61400    1.000
    Ag12     Ag       0.04922    0.14687    0.62631    1.000
    H168     H        0.15970    0.24990    0.64170    1.000
    C203     C        0.15460    0.21020    0.59170    1.000
    H169     H        0.15360    0.17660    0.52480    1.000
    H170     H        0.29490    0.31180    0.48770    1.000
    C204     C        0.29980    0.31920    0.36500    1.000
    H171     H        0.29870    0.32470    0.22640    1.000
    H172     H        0.22860    0.21430    0.21130    1.000
    H173     H        0.21890    0.21660    0.30860    1.000
    H174     H        0.24060    0.24680    0.25550    1.000
    H175     H        0.20770    0.25710    0.94190    1.000
    H176     H        0.11790    0.37740    0.87570    1.000
    H177     H        0.98910    0.24350    0.21440    1.000
    H178     H        0.07080    0.30680    0.76270    1.000
    H179     H        0.14510    0.19830    0.64170    1.000
    H180     H        0.32110    0.33040    0.36990    1.000
    Au13     Au       0.81630    0.64988    0.54249    1.000
    Au14     Au       0.79190    0.63415    0.72374    1.000
    Au15     Au       0.85001    0.63640    0.67501    1.000
    Ag13     Ag       0.79220    0.59058    0.61303    1.000
    P13      P        0.79902    0.62947    0.40993    1.000
    P14      P        0.74696    0.59767    0.77753    1.000
    P15      P        0.86451    0.60125    0.68423    1.000
    N25      N        0.75757    0.58083    0.49693    1.000
    N26      N        0.76447    0.55783    0.72983    1.000
    N27      N        0.82327    0.57193    0.56153    1.000
    C205     C        0.82337    0.61753    0.36183    1.000
    C206     C        0.79457    0.65563    0.34163    1.000
    C207     C        0.76157    0.59443    0.42013    1.000
    C208     C        0.71577    0.59033    0.70553    1.000
    C209     C        0.74097    0.60893    0.88303    1.000
    C210     C        0.74617    0.56113    0.78823    1.000
    C211     C        0.84847    0.57793    0.77893    1.000
    C212     C        0.90557    0.61973    0.68533    1.000
    C213     C        0.84967    0.57523    0.59183    1.000
    C214     C        0.73117    0.55633    0.51053    1.000
    C215     C        0.76747    0.53393    0.73213    1.000
    C216     C        0.81127    0.55533    0.49283    1.000
    C217     C        0.81327    0.59373    0.30413    1.000
    C218     C        0.85377    0.63253    0.38383    1.000
    C219     C        0.81327    0.66953    0.27433    1.000
    C220     C        0.77167    0.66163    0.36133    1.000
    C221     C        0.73937    0.58303    0.35503    1.000
    C222     C        0.71877    0.61323    0.65203    1.000
    C223     C        0.69027    0.56203    0.69693    1.000
    C224     C        0.71977    0.61753    0.89773    1.000
    C225     C        0.75987    0.61153    0.95003    1.000
    C226     C        0.72997    0.53843    0.84813    1.000
    C227     C        0.84267    0.59113    0.85243    1.000
    C228     C        0.84007    0.54783    0.78293    1.000
    C229     C        0.91947    0.62293    0.76833    1.000
    C230     C        0.92117    0.63263    0.60933    1.000
    C231     C        0.86307    0.56023    0.55033    1.000
    H181     H        0.72767    0.54533    0.56333    1.000
    C232     C        0.70877    0.54643    0.44983    1.000
    H182     H        0.77937    0.53123    0.68963    1.000
    C233     C        0.75347    0.51293    0.79583    1.000
    H183     H        0.79247    0.55223    0.47163    1.000
    C234     C        0.82567    0.54203    0.45023    1.000
    H184     H        0.79277    0.58383    0.28583    1.000
    C235     C        0.83217    0.58403    0.27253    1.000
    C236     C        0.87317    0.62273    0.35243    1.000
    H185     H        0.86157    0.64963    0.42083    1.000
    H186     H        0.82857    0.66483    0.26053    1.000
    C237     C        0.81027    0.69103    0.22423    1.000
    C238     C        0.76717    0.68163    0.31133    1.000
    H187     H        0.75897    0.65203    0.40983    1.000
    C239     C        0.74257    0.59473    0.26663    1.000
    N28      N        0.71277    0.55843    0.37333    1.000
    H188     H        0.73657    0.63223    0.65583    1.000
    C240     C        0.69737    0.60953    0.59433    1.000
    C241     C        0.66917    0.55803    0.63753    1.000
    H189     H        0.68767    0.54573    0.73243    1.000
    H190     H        0.70597    0.61503    0.85283    1.000
    C242     C        0.71807    0.62953    0.97663    1.000
    C243     C        0.75777    0.62153    0.02793    1.000
    H191     H        0.77477    0.60593    0.94053    1.000
    C244     C        0.70747    0.53843    0.90983    1.000
    N29      N        0.73477    0.51483    0.85213    1.000
    H192     H        0.84787    0.61183    0.85093    1.000
    C245     C        0.82967    0.57433    0.92513    1.000
    C246     C        0.82617    0.53073    0.85673    1.000
    H193     H        0.84387    0.53863    0.73463    1.000
    H194     H        0.90837    0.61373    0.81953    1.000
    C247     C        0.95107    0.64113    0.76733    1.000
    C248     C        0.95337    0.64943    0.61033    1.000
    H195     H        0.91047    0.63033    0.55633    1.000
    C249     C        0.89017    0.55943    0.58433    1.000
    N30      N        0.85047    0.54493    0.47763    1.000
    H196     H        0.68947    0.53003    0.46413    1.000
    H197     H        0.75717    0.49653    0.80003    1.000
    H198     H        0.81677    0.53053    0.39923    1.000
    H199     H        0.82437    0.56733    0.23353    1.000
    C250     C        0.86167    0.59773    0.29633    1.000
    H200     H        0.89387    0.63283    0.36883    1.000
    H201     H        0.82407    0.70153    0.17833    1.000
    C251     C        0.78697    0.69653    0.24303    1.000
    H202     H        0.75087    0.68503    0.32323    1.000
    H203     H        0.72367    0.58263    0.23483    1.000
    H204     H        0.75897    0.59363    0.23693    1.000
    H205     H        0.74727    0.61573    0.26863    1.000
    Ag14     Ag       0.67880    0.53690    0.27241    1.000
    H206     H        0.69957    0.62593    0.55973    1.000
    C252     C        0.67147    0.58053    0.58753    1.000
    H207     H        0.65207    0.53853    0.63093    1.000
    H208     H        0.70397    0.63613    0.98593    1.000
    C253     C        0.73777    0.63153    0.04143    1.000
    H209     H        0.77017    0.62173    0.07423    1.000
    H210     H        0.69897    0.52023    0.94563    1.000
    H211     H        0.69127    0.53893    0.87713    1.000
    H212     H        0.71747    0.55633    0.94733    1.000
    Ag15     Ag       0.71589    0.48020    0.95964    1.000
    H213     H        0.82637    0.58323    0.97503    1.000
    C254     C        0.82127    0.54353    0.92503    1.000
    H214     H        0.82027    0.50993    0.85813    1.000
    H215     H        0.96157    0.64513    0.82103    1.000
    C255     C        0.96647    0.65253    0.69833    1.000
    H216     H        0.96537    0.65803    0.55973    1.000
    H217     H        0.89527    0.54763    0.54463    1.000
    H218     H        0.88557    0.54993    0.64193    1.000
    H219     H        0.90727    0.58013    0.58883    1.000
    H220     H        0.87437    0.59043    0.27523    1.000
    H221     H        0.78457    0.71073    0.20903    1.000
    H222     H        0.65577    0.57683    0.54773    1.000
    H223     H        0.73747    0.64013    0.09603    1.000
    H224     H        0.81177    0.53163    0.97503    1.000
    H225     H        0.98777    0.66373    0.70323    1.000
    Au16     Au       0.48297    0.98321    0.87583    1.000
    Au17     Au       0.45857    0.96749    0.05708    1.000
    Au18     Au       0.51668    0.96973    0.00835    1.000
    Ag16     Ag       0.45886    0.92392    0.94637    1.000
    P16      P        0.46568    0.96281    0.74327    1.000
    P17      P        0.41362    0.93101    0.11087    1.000
    P18      P        0.53117    0.93459    0.01757    1.000
    N31      N        0.42423    0.91417    0.83027    1.000
    N32      N        0.43113    0.89117    0.06317    1.000
    N33      N        0.48993    0.90527    0.89487    1.000
    C256     C        0.49003    0.95087    0.69517    1.000
    C257     C        0.46123    0.98897    0.67497    1.000
    C258     C        0.42823    0.92777    0.75347    1.000
    C259     C        0.38243    0.92367    0.03887    1.000
    C260     C        0.40763    0.94227    0.21637    1.000
    C261     C        0.41283    0.89447    0.12157    1.000
    C262     C        0.51513    0.91127    0.11227    1.000
    C263     C        0.57223    0.95307    0.01867    1.000
    C264     C        0.51633    0.90857    0.92517    1.000
    C265     C        0.39783    0.88967    0.84387    1.000
    C266     C        0.43413    0.86727    0.06547    1.000
    C267     C        0.47793    0.88867    0.82617    1.000
    C268     C        0.47993    0.92707    0.63747    1.000
    C269     C        0.52043    0.96587    0.71717    1.000
    C270     C        0.47993    0.00287    0.60767    1.000
    C271     C        0.43833    0.99497    0.69467    1.000
    C272     C        0.40603    0.91637    0.68837    1.000
    C273     C        0.38543    0.94657    0.98537    1.000
    C274     C        0.35693    0.89537    0.03027    1.000
    C275     C        0.38643    0.95087    0.23107    1.000
    C276     C        0.42653    0.94487    0.28337    1.000
    C277     C        0.39663    0.87177    0.18147    1.000
    C278     C        0.50933    0.92447    0.18577    1.000
    C279     C        0.50673    0.88117    0.11627    1.000
    C280     C        0.58613    0.95627    0.10167    1.000
    C281     C        0.58783    0.96597    0.94267    1.000
    C282     C        0.52973    0.89357    0.88367    1.000
    H226     H        0.39433    0.87867    0.89667    1.000
    C283     C        0.37543    0.87977    0.78317    1.000
    H227     H        0.44603    0.86457    0.02297    1.000
    C284     C        0.42013    0.84627    0.12917    1.000
    H228     H        0.45913    0.88557    0.80497    1.000
    C285     C        0.49233    0.87537    0.78357    1.000
    H229     H        0.45943    0.91717    0.61917    1.000
    C286     C        0.49883    0.91737    0.60587    1.000
    C287     C        0.53983    0.95607    0.68577    1.000
    H230     H        0.52823    0.98297    0.75417    1.000
    H231     H        0.49523    0.99817    0.59387    1.000
    C288     C        0.47693    0.02437    0.55757    1.000
    C289     C        0.43383    0.01497    0.64467    1.000
    H232     H        0.42563    0.98537    0.74317    1.000
    C290     C        0.40923    0.92807    0.59997    1.000
    N34      N        0.37943    0.89177    0.70667    1.000
    H233     H        0.40323    0.96557    0.98917    1.000
    C291     C        0.36403    0.94287    0.92767    1.000
    C292     C        0.33583    0.89137    0.97087    1.000
    H234     H        0.35433    0.87907    0.06577    1.000
    H235     H        0.37263    0.94837    0.18617    1.000
    C293     C        0.38473    0.96287    0.30997    1.000
    C294     C        0.42443    0.95487    0.36127    1.000
    H236     H        0.44143    0.93927    0.27387    1.000
    C295     C        0.37413    0.87177    0.24317    1.000
    N35      N        0.40143    0.84817    0.18547    1.000
    H237     H        0.51453    0.94517    0.18427    1.000
    C296     C        0.49633    0.90767    0.25847    1.000
    C297     C        0.49283    0.86407    0.19007    1.000
    H238     H        0.51053    0.87197    0.06797    1.000
    H239     H        0.57503    0.94707    0.15287    1.000
    C298     C        0.61773    0.97447    0.10067    1.000
    C299     C        0.62003    0.98277    0.94367    1.000
    H240     H        0.57713    0.96367    0.88967    1.000
    C300     C        0.55683    0.89277    0.91767    1.000
    N36      N        0.51713    0.87827    0.81097    1.000
    H241     H        0.35613    0.86337    0.79747    1.000
    H242     H        0.42383    0.82987    0.13337    1.000
    H243     H        0.48343    0.86387    0.73257    1.000
    H244     H        0.49103    0.90067    0.56687    1.000
    C301     C        0.52833    0.93107    0.62967    1.000
    H245     H        0.56053    0.96617    0.70217    1.000
    H246     H        0.49073    0.03487    0.51167    1.000
    C302     C        0.45363    0.02987    0.57637    1.000
    H247     H        0.41753    0.01837    0.65657    1.000
    H248     H        0.39033    0.91597    0.56817    1.000
    H249     H        0.42563    0.92697    0.57027    1.000
    H250     H        0.41393    0.94907    0.60197    1.000
    Ag17     Ag       0.34546    0.87024    0.60575    1.000
    H251     H        0.36623    0.95927    0.89307    1.000
    C303     C        0.33813    0.91387    0.92087    1.000
    H252     H        0.31873    0.87187    0.96427    1.000
    H253     H        0.37063    0.96947    0.31927    1.000
    C304     C        0.40443    0.96487    0.37477    1.000
    H254     H        0.43683    0.95507    0.40757    1.000
    H255     H        0.36563    0.85357    0.27897    1.000
    H256     H        0.35793    0.87227    0.21047    1.000
    H257     H        0.38413    0.88967    0.28067    1.000
    Ag18     Ag       0.38255    0.81354    0.29298    1.000
    H258     H        0.49303    0.91657    0.30837    1.000
    C305     C        0.48793    0.87687    0.25837    1.000
    H259     H        0.48693    0.84327    0.19147    1.000
    H260     H        0.62823    0.97847    0.15437    1.000
    C306     C        0.63313    0.98587    0.03167    1.000
    H261     H        0.63203    0.99137    0.89307    1.000
    H262     H        0.56193    0.88097    0.87797    1.000
    H263     H        0.55223    0.88327    0.97527    1.000
    H264     H        0.57393    0.91347    0.92217    1.000
    H265     H        0.54103    0.92377    0.60857    1.000
    H266     H        0.45123    0.04407    0.54237    1.000
    H267     H        0.32243    0.91017    0.88107    1.000
    H268     H        0.40413    0.97347    0.42937    1.000
    H269     H        0.47843    0.86497    0.30837    1.000
    H270     H        0.65443    0.99707    0.03657    1.000
    Au19     Au       0.68346    0.83309    0.20916    1.000
    Au20     Au       0.69918    0.82442    0.39041    1.000
    Au21     Au       0.69693    0.88028    0.34168    1.000
    Ag19     Ag       0.74275    0.86828    0.27970    1.000
    P19      P        0.70386    0.83621    0.07660    1.000
    P20      P        0.73566    0.81595    0.44420    1.000
    P21      P        0.73208    0.92992    0.35090    1.000
    N37      N        0.75250    0.84340    0.16360    1.000
    N38      N        0.77550    0.87330    0.39650    1.000
    N39      N        0.76140    0.91800    0.22820    1.000
    C307     C        0.71580    0.87250    0.02850    1.000
    C308     C        0.67770    0.80560    0.00830    1.000
    C309     C        0.73890    0.83380    0.08680    1.000
    C310     C        0.74300    0.79210    0.37220    1.000
    C311     C        0.72440    0.79870    0.54970    1.000
    C312     C        0.77220    0.85170    0.45490    1.000
    C313     C        0.75540    0.93720    0.44560    1.000
    C314     C        0.71360    0.95250    0.35200    1.000
    C315     C        0.75810    0.94110    0.25850    1.000
    C316     C        0.77700    0.84150    0.17720    1.000
    C317     C        0.79940    0.90020    0.39880    1.000
    C318     C        0.77800    0.92260    0.15950    1.000
    C319     C        0.73960    0.88620    0.97080    1.000
    C320     C        0.70080    0.88790    0.05050    1.000
    C321     C        0.66380    0.81040    0.94100    1.000
    C322     C        0.67170    0.77670    0.02800    1.000
    C323     C        0.75030    0.82300    0.02170    1.000
    C324     C        0.72010    0.77220    0.31870    1.000
    C325     C        0.77130    0.79490    0.36360    1.000
    C326     C        0.71580    0.76890    0.56440    1.000
    C327     C        0.72180    0.81500    0.61670    1.000
    C328     C        0.79490    0.85820    0.51480    1.000
    C329     C        0.74220    0.91820    0.51910    1.000
    C330     C        0.78550    0.95890    0.44960    1.000
    C331     C        0.71040    0.96320    0.43500    1.000
    C332     C        0.70070    0.95520    0.27600    1.000
    C333     C        0.77310    0.96950    0.21700    1.000
    H271     H        0.78800    0.84900    0.23000    1.000
    C334     C        0.78690    0.82900    0.11650    1.000
    H272     H        0.80210    0.91480    0.35630    1.000
    C335     C        0.82040    0.90720    0.46250    1.000
    H273     H        0.78110    0.90690    0.13830    1.000
    C336     C        0.79130    0.95030    0.11690    1.000
    H274     H        0.74950    0.87560    0.95250    1.000
    C337     C        0.74930    0.91480    0.93920    1.000
    C338     C        0.71060    0.91710    0.01910    1.000
    H275     H        0.68370    0.87860    0.08750    1.000
    H276     H        0.66850    0.83040    0.92720    1.000
    C339     C        0.64230    0.78590    0.89090    1.000
    C340     C        0.65170    0.75220    0.97800    1.000
    H277     H        0.68130    0.77360    0.07650    1.000
    C341     C        0.73860    0.81450    0.93330    1.000
    N40      N        0.77490    0.82100    0.04000    1.000
    H278     H        0.70110    0.77100    0.32250    1.000
    C342     C        0.72380    0.75450    0.26100    1.000
    C343     C        0.77530    0.77780    0.30420    1.000
    H279     H        0.78760    0.80860    0.39910    1.000
    H280     H        0.71830    0.75760    0.51950    1.000
    C344     C        0.70380    0.75520    0.64330    1.000
    C345     C        0.71180    0.80290    0.69460    1.000
    H281     H        0.72740    0.83550    0.60720    1.000
    C346     C        0.79490    0.83570    0.57650    1.000
    N41      N        0.81850    0.88660    0.51880    1.000
    H282     H        0.72150    0.90270    0.51760    1.000
    C347     C        0.75900    0.92200    0.59180    1.000
    C348     C        0.80260    0.96210    0.52340    1.000
    H283     H        0.79470    0.97190    0.40130    1.000
    H284     H        0.71960    0.96130    0.48620    1.000
    C349     C        0.69220    0.97660    0.43400    1.000
    C350     C        0.68390    0.97060    0.27700    1.000
    H285     H        0.70300    0.94680    0.22300    1.000
    C351     C        0.77390    0.99740    0.25100    1.000
    N42      N        0.78840    0.97220    0.14430    1.000
    H286     H        0.80330    0.82610    0.13080    1.000
    H287     H        0.83680    0.92730    0.46670    1.000
    H288     H        0.80280    0.95290    0.06590    1.000
    H289     H        0.76600    0.92370    0.90020    1.000
    C352     C        0.73560    0.93060    0.96300    1.000
    H290     H        0.70050    0.92770    0.03550    1.000
    H291     H        0.63180    0.78920    0.84500    1.000
    C353     C        0.63680    0.75710    0.90970    1.000
    H292     H        0.64830    0.73250    0.98990    1.000
    H293     H        0.75070    0.80770    0.90150    1.000
    H294     H        0.73970    0.83200    0.90360    1.000
    H295     H        0.71760    0.79820    0.93530    1.000
    Ag20     Ag       0.79643    0.80856    0.93908    1.000
    H296     H        0.70740    0.74030    0.22640    1.000
    C354     C        0.75280    0.75760    0.25420    1.000
    H297     H        0.79480    0.78020    0.29760    1.000
    H298     H        0.69720    0.73450    0.65260    1.000
    C355     C        0.70180    0.77290    0.70810    1.000
    H299     H        0.71160    0.81510    0.74090    1.000
    H300     H        0.81310    0.84540    0.61230    1.000
    H301     H        0.79440    0.81900    0.54380    1.000
    H302     H        0.77700    0.82780    0.61400    1.000
    Ag21     Ag       0.85313    0.90235    0.62631    1.000
    H303     H        0.75010    0.90980    0.64170    1.000
    C356     C        0.78980    0.94440    0.59170    1.000
    H304     H        0.82340    0.97700    0.52480    1.000
    H305     H        0.68820    0.98310    0.48770    1.000
    C357     C        0.68080    0.98060    0.36500    1.000
    H306     H        0.67530    0.97400    0.22640    1.000
    H307     H        0.78570    0.01430    0.21130    1.000
    H308     H        0.78340    0.00230    0.30860    1.000
    H309     H        0.75320    0.99380    0.25550    1.000
    H310     H        0.74290    0.95060    0.94190    1.000
    H311     H        0.62260    0.74050    0.87570    1.000
    H312     H        0.75650    0.74560    0.21440    1.000
    H313     H        0.69320    0.76400    0.76270    1.000
    H314     H        0.80170    0.94680    0.64170    1.000
    H315     H        0.66960    0.99070    0.36990    1.000
    Au22     Au       0.35012    0.16642    0.54249    1.000
    Au23     Au       0.36585    0.15775    0.72374    1.000
    Au24     Au       0.36360    0.21361    0.67501    1.000
    Ag22     Ag       0.40942    0.20161    0.61303    1.000
    P22      P        0.37053    0.16954    0.40993    1.000
    P23      P        0.40233    0.14928    0.77753    1.000
    P24      P        0.39875    0.26325    0.68423    1.000
    N43      N        0.41917    0.17673    0.49693    1.000
    N44      N        0.44217    0.20663    0.72983    1.000
    N45      N        0.42807    0.25133    0.56153    1.000
    C358     C        0.38247    0.20583    0.36183    1.000
    C359     C        0.34437    0.13893    0.34163    1.000
    C360     C        0.40557    0.16713    0.42013    1.000
    C361     C        0.40967    0.12543    0.70553    1.000
    C362     C        0.39107    0.13203    0.88303    1.000
    C363     C        0.43887    0.18503    0.78823    1.000
    C364     C        0.42207    0.27053    0.77893    1.000
    C365     C        0.38027    0.28583    0.68533    1.000
    C366     C        0.42477    0.27443    0.59183    1.000
    C367     C        0.44367    0.17483    0.51053    1.000
    C368     C        0.46607    0.23353    0.73213    1.000
    C369     C        0.44467    0.25593    0.49283    1.000
    C370     C        0.40627    0.21953    0.30413    1.000
    C371     C        0.36747    0.22123    0.38383    1.000
    C372     C        0.33047    0.14373    0.27433    1.000
    C373     C        0.33837    0.11003    0.36133    1.000
    C374     C        0.41697    0.15633    0.35503    1.000
    C375     C        0.38677    0.10553    0.65203    1.000
    C376     C        0.43797    0.12823    0.69693    1.000
    C377     C        0.38247    0.10223    0.89773    1.000
    C378     C        0.38847    0.14833    0.95003    1.000
    C379     C        0.46157    0.19153    0.84813    1.000
    C380     C        0.40887    0.25153    0.85243    1.000
    C381     C        0.45217    0.29223    0.78293    1.000
    C382     C        0.37707    0.29653    0.76833    1.000
    C383     C        0.36737    0.28853    0.60933    1.000
    C384     C        0.43977    0.30283    0.55033    1.000
    H316     H        0.45467    0.18233    0.56333    1.000
    C385     C        0.45357    0.16233    0.44983    1.000
    H317     H        0.46877    0.24813    0.68963    1.000
    C386     C        0.48707    0.24053    0.79583    1.000
    H318     H        0.44777    0.24023    0.47163    1.000
    C387     C        0.45797    0.28363    0.45023    1.000
    H319     H        0.41617    0.20893    0.28583    1.000
    C388     C        0.41597    0.24813    0.27253    1.000
    C389     C        0.37727    0.25043    0.35243    1.000
    H320     H        0.35037    0.21193    0.42083    1.000
    H321     H        0.33517    0.16373    0.26053    1.000
    C390     C        0.30897    0.11923    0.22423    1.000
    C391     C        0.31837    0.08553    0.31133    1.000
    H322     H        0.34797    0.10693    0.40983    1.000
    C392     C        0.40527    0.14783    0.26663    1.000
    N46      N        0.44157    0.15433    0.37333    1.000
    H323     H        0.36777    0.10433    0.65583    1.000
    C393     C        0.39047    0.08783    0.59433    1.000
    C394     C        0.44197    0.11113    0.63753    1.000
    H324     H        0.45427    0.14193    0.73243    1.000
    H325     H        0.38497    0.09093    0.85283    1.000
    C395     C        0.37047    0.08853    0.97663    1.000
    C396     C        0.37847    0.13623    0.02793    1.000
    H326     H        0.39407    0.16883    0.94053    1.000
    C397     C        0.46157    0.16903    0.90983    1.000
    N47      N        0.48517    0.21993    0.85213    1.000
    H327     H        0.38817    0.23603    0.85093    1.000
    C398     C        0.42567    0.25533    0.92513    1.000
    C399     C        0.46927    0.29543    0.85673    1.000
    H328     H        0.46137    0.30523    0.73463    1.000
    H329     H        0.38627    0.29463    0.81953    1.000
    C400     C        0.35887    0.30993    0.76733    1.000
    C401     C        0.35057    0.30393    0.61033    1.000
    H330     H        0.36967    0.28013    0.55633    1.000
    C402     C        0.44057    0.33073    0.58433    1.000
    N48      N        0.45507    0.30553    0.47763    1.000
    H331     H        0.46997    0.15943    0.46413    1.000
    H332     H        0.50347    0.26063    0.80003    1.000
    H333     H        0.46947    0.28623    0.39923    1.000
    H334     H        0.43267    0.25703    0.23353    1.000
    C403     C        0.40227    0.26393    0.29633    1.000
    H335     H        0.36717    0.26103    0.36883    1.000
    H336     H        0.29847    0.12253    0.17833    1.000
    C404     C        0.30347    0.09043    0.24303    1.000
    H337     H        0.31497    0.06583    0.32323    1.000
    H338     H        0.41737    0.14103    0.23483    1.000
    H339     H        0.40637    0.16533    0.23693    1.000
    H340     H        0.38427    0.13153    0.26863    1.000
    Ag23     Ag       0.46310    0.14189    0.27241    1.000
    H341     H        0.37407    0.07363    0.55973    1.000
    C405     C        0.41947    0.09093    0.58753    1.000
    H342     H        0.46147    0.11353    0.63093    1.000
    H343     H        0.36387    0.06783    0.98593    1.000
    C406     C        0.36847    0.10623    0.04143    1.000
    H344     H        0.37827    0.14843    0.07423    1.000
    H345     H        0.47977    0.17873    0.94563    1.000
    H346     H        0.46107    0.15233    0.87713    1.000
    H347     H        0.44367    0.16113    0.94733    1.000
    Ag24     Ag       0.51980    0.23568    0.95964    1.000
    H348     H        0.41677    0.24313    0.97503    1.000
    C407     C        0.45647    0.27773    0.92503    1.000
    H349     H        0.49007    0.31033    0.85813    1.000
    H350     H        0.35487    0.31643    0.82103    1.000
    C408     C        0.34747    0.31393    0.69833    1.000
    H351     H        0.34197    0.30733    0.55973    1.000
    H352     H        0.45237    0.34763    0.54463    1.000
    H353     H        0.45007    0.33563    0.64193    1.000
    H354     H        0.41987    0.32713    0.58883    1.000
    H355     H        0.40957    0.28393    0.27523    1.000
    H356     H        0.28927    0.07383    0.20903    1.000
    H357     H        0.42317    0.07893    0.54773    1.000
    H358     H        0.35987    0.09733    0.09603    1.000
    H359     H        0.46837    0.28013    0.97503    1.000
    H360     H        0.33627    0.32403    0.70323    1.000
    Au25     Au       0.01679    0.49975    0.87583    1.000
    Au26     Au       0.03251    0.49108    0.05708    1.000
    Au27     Au       0.03027    0.54694    0.00835    1.000
    Ag25     Ag       0.07608    0.53495    0.94637    1.000
    P25      P        0.03719    0.50288    0.74327    1.000
    P26      P        0.06899    0.48262    0.11087    1.000
    P27      P        0.06541    0.59659    0.01757    1.000
    N49      N        0.08583    0.51007    0.83027    1.000
    N50      N        0.10883    0.53997    0.06317    1.000
    N51      N        0.09473    0.58467    0.89487    1.000
    C409     C        0.04913    0.53917    0.69517    1.000
    C410     C        0.01103    0.47227    0.67497    1.000
    C411     C        0.07223    0.50047    0.75347    1.000
    C412     C        0.07633    0.45877    0.03887    1.000
    C413     C        0.05773    0.46537    0.21637    1.000
    C414     C        0.10553    0.51837    0.12157    1.000
    C415     C        0.08873    0.60387    0.11227    1.000
    C416     C        0.04693    0.61917    0.01867    1.000
    C417     C        0.09143    0.60777    0.92517    1.000
    C418     C        0.11033    0.50817    0.84387    1.000
    C419     C        0.13273    0.56687    0.06547    1.000
    C420     C        0.11133    0.58927    0.82617    1.000
    C421     C        0.07293    0.55287    0.63747    1.000
    C422     C        0.03413    0.55457    0.71717    1.000
    C423     C        0.99713    0.47707    0.60767    1.000
    C424     C        0.00503    0.44337    0.69467    1.000
    C425     C        0.08363    0.48967    0.68837    1.000
    C426     C        0.05343    0.43887    0.98537    1.000
    C427     C        0.10463    0.46157    0.03027    1.000
    C428     C        0.04913    0.43557    0.23107    1.000
    C429     C        0.05513    0.48167    0.28337    1.000
    C430     C        0.12823    0.52487    0.18147    1.000
    C431     C        0.07553    0.58487    0.18577    1.000
    C432     C        0.11883    0.62557    0.11627    1.000
    C433     C        0.04373    0.62987    0.10167    1.000
    C434     C        0.03403    0.62187    0.94267    1.000
    C435     C        0.10643    0.63617    0.88367    1.000
    H361     H        0.12133    0.51567    0.89667    1.000
    C436     C        0.12023    0.49567    0.78317    1.000
    H362     H        0.13543    0.58147    0.02297    1.000
    C437     C        0.15373    0.57387    0.12917    1.000
    H363     H        0.11443    0.57357    0.80497    1.000
    C438     C        0.12463    0.61697    0.78357    1.000
    H364     H        0.08283    0.54227    0.61917    1.000
    C439     C        0.08263    0.58147    0.60587    1.000
    C440     C        0.04393    0.58377    0.68577    1.000
    H365     H        0.01703    0.54527    0.75417    1.000
    H366     H        0.00183    0.49707    0.59387    1.000
    C441     C        0.97563    0.45257    0.55757    1.000
    C442     C        0.98503    0.41887    0.64467    1.000
    H367     H        0.01463    0.44027    0.74317    1.000
    C443     C        0.07193    0.48117    0.59997    1.000
    N52      N        0.10823    0.48767    0.70667    1.000
    H368     H        0.03443    0.43767    0.98917    1.000
    C444     C        0.05713    0.42117    0.92767    1.000
    C445     C        0.10863    0.44447    0.97087    1.000
    H369     H        0.12093    0.47527    0.06577    1.000
    H370     H        0.05163    0.42427    0.18617    1.000
    C446     C        0.03713    0.42187    0.30997    1.000
    C447     C        0.04513    0.46957    0.36127    1.000
    H371     H        0.06073    0.50217    0.27387    1.000
    C448     C        0.12823    0.50237    0.24317    1.000
    N53      N        0.15183    0.55327    0.18547    1.000
    H372     H        0.05483    0.56937    0.18427    1.000
    C449     C        0.09233    0.58867    0.25847    1.000
    C450     C        0.13593    0.62877    0.19007    1.000
    H373     H        0.12803    0.63857    0.06797    1.000
    H374     H        0.05293    0.62797    0.15287    1.000
    C451     C        0.02553    0.64327    0.10067    1.000
    C452     C        0.01723    0.63727    0.94367    1.000
    H375     H        0.03633    0.61347    0.88967    1.000
    C453     C        0.10723    0.66407    0.91767    1.000
    N54      N        0.12173    0.63887    0.81097    1.000
    H376     H        0.13663    0.49277    0.79747    1.000
    H377     H        0.17013    0.59397    0.13337    1.000
    H378     H        0.13613    0.61957    0.73257    1.000
    H379     H        0.09933    0.59037    0.56687    1.000
    C454     C        0.06893    0.59727    0.62967    1.000
    H380     H        0.03383    0.59437    0.70217    1.000
    H381     H        0.96513    0.45587    0.51167    1.000
    C455     C        0.97013    0.42377    0.57637    1.000
    H382     H        0.98163    0.39917    0.65657    1.000
    H383     H        0.08403    0.47437    0.56817    1.000
    H384     H        0.07303    0.49867    0.57027    1.000
    H385     H        0.05093    0.46487    0.60197    1.000
    Ag26     Ag       0.12976    0.47523    0.60575    1.000
    H386     H        0.04073    0.40697    0.89307    1.000
    C456     C        0.08613    0.42427    0.92087    1.000
    H387     H        0.12813    0.44687    0.96427    1.000
    H388     H        0.03053    0.40117    0.31927    1.000
    C457     C        0.03513    0.43957    0.37477    1.000
    H389     H        0.04493    0.48177    0.40757    1.000
    H390     H        0.14643    0.51207    0.27897    1.000
    H391     H        0.12773    0.48567    0.21047    1.000
    H392     H        0.11033    0.49447    0.28067    1.000
    Ag27     Ag       0.18646    0.56902    0.29298    1.000
    H393     H        0.08343    0.57647    0.30837    1.000
    C458     C        0.12313    0.61107    0.25837    1.000
    H394     H        0.15673    0.64367    0.19147    1.000
    H395     H        0.02153    0.64977    0.15437    1.000
    C459     C        0.01413    0.64727    0.03167    1.000
    H396     H        0.00863    0.64067    0.89307    1.000
    H397     H        0.11903    0.68097    0.87797    1.000
    H398     H        0.11673    0.66897    0.97527    1.000
    H399     H        0.08653    0.66047    0.92217    1.000
    H400     H        0.07623    0.61727    0.60857    1.000
    H401     H        0.95593    0.40717    0.54237    1.000
    H402     H        0.08983    0.41227    0.88107    1.000
    H403     H        0.02653    0.43067    0.42937    1.000
    H404     H        0.13503    0.61347    0.30837    1.000
    H405     H        0.00293    0.65737    0.03657    1.000
    Au28     Au       0.83309    0.14963    0.79084    1.000
    Au29     Au       0.82442    0.12524    0.60959    1.000
    Au30     Au       0.88028    0.18334    0.65832    1.000
    Ag28     Ag       0.86828    0.12553    0.72030    1.000
    P28      P        0.83621    0.13235    0.92340    1.000
    P29      P        0.81595    0.08029    0.55580    1.000
    P30      P        0.92992    0.19784    0.64910    1.000
    N55      N        0.84340    0.09090    0.83640    1.000
    N56      N        0.87330    0.09780    0.60350    1.000
    N57      N        0.91800    0.15660    0.77180    1.000
    C460     C        0.87250    0.15670    0.97150    1.000
    C461     C        0.80560    0.12790    0.99170    1.000
    C462     C        0.83380    0.09490    0.91320    1.000
    C463     C        0.79210    0.04910    0.62780    1.000
    C464     C        0.79870    0.07430    0.45030    1.000
    C465     C        0.85170    0.07950    0.54510    1.000
    C466     C        0.93720    0.18180    0.55440    1.000
    C467     C        0.95250    0.23890    0.64800    1.000
    C468     C        0.94110    0.18300    0.74150    1.000
    C469     C        0.84150    0.06450    0.82280    1.000
    C470     C        0.90020    0.10080    0.60120    1.000
    C471     C        0.92260    0.14460    0.84050    1.000
    C472     C        0.88620    0.14660    0.02920    1.000
    C473     C        0.88790    0.18710    0.94950    1.000
    C474     C        0.81040    0.14660    0.05900    1.000
    C475     C        0.77670    0.10500    0.97200    1.000
    C476     C        0.82300    0.07270    0.97830    1.000
    C477     C        0.77220    0.05210    0.68130    1.000
    C478     C        0.79490    0.02360    0.63640    1.000
    C479     C        0.76890    0.05310    0.43560    1.000
    C480     C        0.81500    0.09320    0.38330    1.000
    C481     C        0.85820    0.06330    0.48520    1.000
    C482     C        0.91820    0.17600    0.48090    1.000
    C483     C        0.95890    0.17340    0.55040    1.000
    C484     C        0.96320    0.25280    0.56500    1.000
    C485     C        0.95520    0.25450    0.72400    1.000
    C486     C        0.96950    0.19640    0.78300    1.000
    H406     H        0.84900    0.06100    0.77000    1.000
    C487     C        0.82900    0.04210    0.88350    1.000
    H407     H        0.91480    0.11270    0.64370    1.000
    C488     C        0.90720    0.08680    0.53750    1.000
    H408     H        0.90690    0.12580    0.86170    1.000
    C489     C        0.95030    0.15900    0.88310    1.000
    H409     H        0.87560    0.12610    0.04750    1.000
    C490     C        0.91480    0.16550    0.06080    1.000
    C491     C        0.91710    0.20650    0.98090    1.000
    H410     H        0.87860    0.19490    0.91250    1.000
    H411     H        0.83040    0.16190    0.07280    1.000
    C492     C        0.78590    0.14360    0.10910    1.000
    C493     C        0.75220    0.10050    0.02200    1.000
    H412     H        0.77360    0.09230    0.92350    1.000
    C494     C        0.81450    0.07590    0.06670    1.000
    N58      N        0.82100    0.04610    0.96000    1.000
    H413     H        0.77100    0.06990    0.67750    1.000
    C495     C        0.75450    0.03070    0.73900    1.000
    C496     C        0.77780    0.00250    0.69580    1.000
    H414     H        0.80860    0.02100    0.60090    1.000
    H415     H        0.75760    0.03930    0.48050    1.000
    C497     C        0.75520    0.05140    0.35670    1.000
    C498     C        0.80290    0.09110    0.30540    1.000
    H416     H        0.83550    0.10810    0.39280    1.000
    C499     C        0.83570    0.04080    0.42350    1.000
    N59      N        0.88660    0.06810    0.48120    1.000
    H417     H        0.90270    0.18120    0.48240    1.000
    C500     C        0.92200    0.16300    0.40820    1.000
    C501     C        0.96210    0.15950    0.47660    1.000
    H418     H        0.97190    0.17720    0.59870    1.000
    H419     H        0.96130    0.24170    0.51380    1.000
    C502     C        0.97660    0.28440    0.56600    1.000
    C503     C        0.97060    0.28670    0.72300    1.000
    H420     H        0.94680    0.24380    0.77700    1.000
    C504     C        0.99740    0.22350    0.74900    1.000
    N60      N        0.97220    0.18380    0.85570    1.000
    H421     H        0.82610    0.02280    0.86920    1.000
    H422     H        0.92730    0.09050    0.53330    1.000
    H423     H        0.95290    0.15010    0.93410    1.000
    H424     H        0.92370    0.15770    0.09980    1.000
    C505     C        0.93060    0.19500    0.03700    1.000
    H425     H        0.92770    0.22720    0.96450    1.000
    H426     H        0.78920    0.15740    0.15500    1.000
    C506     C        0.75710    0.12030    0.09030    1.000
    H427     H        0.73250    0.08420    0.01010    1.000
    H428     H        0.80770    0.05700    0.09850    1.000
    H429     H        0.83200    0.09230    0.09640    1.000
    H430     H        0.79820    0.08060    0.06470    1.000
    Ag29     Ag       0.80856    0.01213    0.06092    1.000
    H431     H        0.74030    0.03290    0.77360    1.000
    C507     C        0.75760    0.00480    0.74580    1.000
    H432     H        0.78020    0.98540    0.70240    1.000
    H433     H        0.73450    0.03730    0.34740    1.000
    C508     C        0.77290    0.07110    0.29190    1.000
    H434     H        0.81510    0.10350    0.25910    1.000
    H435     H        0.84540    0.03230    0.38770    1.000
    H436     H        0.81900    0.02460    0.45620    1.000
    H437     H        0.82780    0.05080    0.38600    1.000
    Ag30     Ag       0.90235    0.04922    0.37369    1.000
    H438     H        0.90980    0.15970    0.35830    1.000
    C509     C        0.94440    0.15460    0.40830    1.000
    H439     H        0.97700    0.15360    0.47520    1.000
    H440     H        0.98310    0.29490    0.51230    1.000
    C510     C        0.98060    0.29980    0.63500    1.000
    H441     H        0.97400    0.29870    0.77360    1.000
    H442     H        0.01430    0.22860    0.78870    1.000
    H443     H        0.00230    0.21890    0.69140    1.000
    H444     H        0.99380    0.24060    0.74450    1.000
    H445     H        0.95060    0.20770    0.05810    1.000
    H446     H        0.74050    0.11790    0.12430    1.000
    H447     H        0.74560    0.98910    0.78560    1.000
    H448     H        0.76400    0.07080    0.23730    1.000
    H449     H        0.94680    0.14510    0.35830    1.000
    H450     H        0.99070    0.32110    0.63010    1.000
    Au31     Au       0.49975    0.48297    0.12417    1.000
    Au32     Au       0.49108    0.45857    0.94292    1.000
    Au33     Au       0.54694    0.51668    0.99165    1.000
    Ag31     Ag       0.53495    0.45886    0.05363    1.000
    P31      P        0.50288    0.46568    0.25673    1.000
    P32      P        0.48262    0.41362    0.88913    1.000
    P33      P        0.59659    0.53117    0.98243    1.000
    N61      N        0.51007    0.42423    0.16973    1.000
    N62      N        0.53997    0.43113    0.93683    1.000
    N63      N        0.58467    0.48993    0.10513    1.000
    C511     C        0.53917    0.49003    0.30483    1.000
    C512     C        0.47227    0.46123    0.32503    1.000
    C513     C        0.50047    0.42823    0.24653    1.000
    C514     C        0.45877    0.38243    0.96113    1.000
    C515     C        0.46537    0.40763    0.78363    1.000
    C516     C        0.51837    0.41283    0.87843    1.000
    C517     C        0.60387    0.51513    0.88773    1.000
    C518     C        0.61917    0.57223    0.98133    1.000
    C519     C        0.60777    0.51633    0.07483    1.000
    C520     C        0.50817    0.39783    0.15613    1.000
    C521     C        0.56687    0.43413    0.93453    1.000
    C522     C        0.58927    0.47793    0.17383    1.000
    C523     C        0.55287    0.47993    0.36253    1.000
    C524     C        0.55457    0.52043    0.28283    1.000
    C525     C        0.47707    0.47993    0.39233    1.000
    C526     C        0.44337    0.43833    0.30533    1.000
    C527     C        0.48967    0.40603    0.31163    1.000
    C528     C        0.43887    0.38543    0.01463    1.000
    C529     C        0.46157    0.35693    0.96973    1.000
    C530     C        0.43557    0.38643    0.76893    1.000
    C531     C        0.48167    0.42653    0.71663    1.000
    C532     C        0.52487    0.39663    0.81853    1.000
    C533     C        0.58487    0.50933    0.81423    1.000
    C534     C        0.62557    0.50673    0.88373    1.000
    C535     C        0.62987    0.58613    0.89833    1.000
    C536     C        0.62187    0.58783    0.05733    1.000
    C537     C        0.63617    0.52973    0.11633    1.000
    H451     H        0.51567    0.39433    0.10333    1.000
    C538     C        0.49567    0.37543    0.21683    1.000
    H452     H        0.58147    0.44603    0.97703    1.000
    C539     C        0.57387    0.42013    0.87083    1.000
    H453     H        0.57357    0.45913    0.19503    1.000
    C540     C        0.61697    0.49233    0.21643    1.000
    H454     H        0.54227    0.45943    0.38083    1.000
    C541     C        0.58147    0.49883    0.39413    1.000
    C542     C        0.58377    0.53983    0.31423    1.000
    H455     H        0.54527    0.52823    0.24583    1.000
    H456     H        0.49707    0.49523    0.40613    1.000
    C543     C        0.45257    0.47693    0.44243    1.000
    C544     C        0.41887    0.43383    0.35533    1.000
    H457     H        0.44027    0.42563    0.25683    1.000
    C545     C        0.48117    0.40923    0.40003    1.000
    N64      N        0.48767    0.37943    0.29333    1.000
    H458     H        0.43767    0.40323    0.01083    1.000
    C546     C        0.42117    0.36403    0.07233    1.000
    C547     C        0.44447    0.33583    0.02913    1.000
    H459     H        0.47527    0.35433    0.93423    1.000
    H460     H        0.42427    0.37263    0.81383    1.000
    C548     C        0.42187    0.38473    0.69003    1.000
    C549     C        0.46957    0.42443    0.63873    1.000
    H461     H        0.50217    0.44143    0.72613    1.000
    C550     C        0.50237    0.37413    0.75683    1.000
    N65      N        0.55327    0.40143    0.81453    1.000
    H462     H        0.56937    0.51453    0.81573    1.000
    C551     C        0.58867    0.49633    0.74153    1.000
    C552     C        0.62877    0.49283    0.80993    1.000
    H463     H        0.63857    0.51053    0.93203    1.000
    H464     H        0.62797    0.57503    0.84713    1.000
    C553     C        0.64327    0.61773    0.89933    1.000
    C554     C        0.63727    0.62003    0.05633    1.000
    H465     H        0.61347    0.57713    0.11033    1.000
    C555     C        0.66407    0.55683    0.08233    1.000
    N66      N        0.63887    0.51713    0.18903    1.000
    H466     H        0.49277    0.35613    0.20253    1.000
    H467     H        0.59397    0.42383    0.86663    1.000
    H468     H        0.61957    0.48343    0.26743    1.000
    H469     H        0.59037    0.49103    0.43313    1.000
    C556     C        0.59727    0.52833    0.37033    1.000
    H470     H        0.59437    0.56053    0.29783    1.000
    H471     H        0.45587    0.49073    0.48833    1.000
    C557     C        0.42377    0.45363    0.42363    1.000
    H472     H        0.39917    0.41753    0.34343    1.000
    H473     H        0.47437    0.39033    0.43183    1.000
    H474     H        0.49867    0.42563    0.42973    1.000
    H475     H        0.46487    0.41393    0.39803    1.000
    Ag32     Ag       0.47523    0.34546    0.39425    1.000
    H476     H        0.40697    0.36623    0.10693    1.000
    C558     C        0.42427    0.33813    0.07913    1.000
    H477     H        0.44687    0.31873    0.03573    1.000
    H478     H        0.40117    0.37063    0.68073    1.000
    C559     C        0.43957    0.40443    0.62523    1.000
    H479     H        0.48177    0.43683    0.59243    1.000
    H480     H        0.51207    0.36563    0.72103    1.000
    H481     H        0.48567    0.35793    0.78953    1.000
    H482     H        0.49447    0.38413    0.71933    1.000
    Ag33     Ag       0.56902    0.38255    0.70702    1.000
    H483     H        0.57647    0.49303    0.69163    1.000
    C560     C        0.61107    0.48793    0.74163    1.000
    H484     H        0.64367    0.48693    0.80853    1.000
    H485     H        0.64977    0.62823    0.84563    1.000
    C561     C        0.64727    0.63313    0.96833    1.000
    H486     H        0.64067    0.63203    0.10693    1.000
    H487     H        0.68097    0.56193    0.12203    1.000
    H488     H        0.66897    0.55223    0.02473    1.000
    H489     H        0.66047    0.57393    0.07783    1.000
    H490     H        0.61727    0.54103    0.39143    1.000
    H491     H        0.40717    0.45123    0.45763    1.000
    H492     H        0.41227    0.32243    0.11893    1.000
    H493     H        0.43067    0.40413    0.57063    1.000
    H494     H        0.61347    0.47843    0.69163    1.000
    H495     H        0.65737    0.65443    0.96343    1.000
    Au34     Au       0.16642    0.81630    0.45751    1.000
    Au35     Au       0.15775    0.79190    0.27626    1.000
    Au36     Au       0.21361    0.85001    0.32499    1.000
    Ag34     Ag       0.20161    0.79220    0.38697    1.000
    P34      P        0.16954    0.79902    0.59007    1.000
    P35      P        0.14928    0.74696    0.22247    1.000
    P36      P        0.26325    0.86451    0.31577    1.000
    N67      N        0.17673    0.75757    0.50307    1.000
    N68      N        0.20663    0.76447    0.27017    1.000
    N69      N        0.25133    0.82327    0.43847    1.000
    C562     C        0.20583    0.82337    0.63817    1.000
    C563     C        0.13893    0.79457    0.65837    1.000
    C564     C        0.16713    0.76157    0.57987    1.000
    C565     C        0.12543    0.71577    0.29447    1.000
    C566     C        0.13203    0.74097    0.11697    1.000
    C567     C        0.18503    0.74617    0.21177    1.000
    C568     C        0.27053    0.84847    0.22107    1.000
    C569     C        0.28583    0.90557    0.31467    1.000
    C570     C        0.27443    0.84967    0.40817    1.000
    C571     C        0.17483    0.73117    0.48947    1.000
    C572     C        0.23353    0.76747    0.26787    1.000
    C573     C        0.25593    0.81127    0.50717    1.000
    C574     C        0.21953    0.81327    0.69587    1.000
    C575     C        0.22123    0.85377    0.61617    1.000
    C576     C        0.14373    0.81327    0.72567    1.000
    C577     C        0.11003    0.77167    0.63867    1.000
    C578     C        0.15633    0.73937    0.64497    1.000
    C579     C        0.10553    0.71877    0.34797    1.000
    C580     C        0.12823    0.69027    0.30307    1.000
    C581     C        0.10223    0.71977    0.10227    1.000
    C582     C        0.14833    0.75987    0.04997    1.000
    C583     C        0.19153    0.72997    0.15187    1.000
    C584     C        0.25153    0.84267    0.14757    1.000
    C585     C        0.29223    0.84007    0.21707    1.000
    C586     C        0.29653    0.91947    0.23167    1.000
    C587     C        0.28853    0.92117    0.39067    1.000
    C588     C        0.30283    0.86307    0.44967    1.000
    H496     H        0.18233    0.72767    0.43667    1.000
    C589     C        0.16233    0.70877    0.55017    1.000
    H497     H        0.24813    0.77937    0.31037    1.000
    C590     C        0.24053    0.75347    0.20417    1.000
    H498     H        0.24023    0.79247    0.52837    1.000
    C591     C        0.28363    0.82567    0.54977    1.000
    H499     H        0.20893    0.79277    0.71417    1.000
    C592     C        0.24813    0.83217    0.72747    1.000
    C593     C        0.25043    0.87317    0.64757    1.000
    H500     H        0.21193    0.86157    0.57917    1.000
    H501     H        0.16373    0.82857    0.73947    1.000
    C594     C        0.11923    0.81027    0.77577    1.000
    C595     C        0.08553    0.76717    0.68867    1.000
    H502     H        0.10693    0.75897    0.59017    1.000
    C596     C        0.14783    0.74257    0.73337    1.000
    N70      N        0.15433    0.71277    0.62667    1.000
    H503     H        0.10433    0.73657    0.34417    1.000
    C597     C        0.08783    0.69737    0.40567    1.000
    C598     C        0.11113    0.66917    0.36247    1.000
    H504     H        0.14193    0.68767    0.26757    1.000
    H505     H        0.09093    0.70597    0.14717    1.000
    C599     C        0.08853    0.71807    0.02337    1.000
    C600     C        0.13623    0.75777    0.97207    1.000
    H506     H        0.16883    0.77477    0.05947    1.000
    C601     C        0.16903    0.70747    0.09017    1.000
    N71      N        0.21993    0.73477    0.14787    1.000
    H507     H        0.23603    0.84787    0.14907    1.000
    C602     C        0.25533    0.82967    0.07487    1.000
    C603     C        0.29543    0.82617    0.14327    1.000
    H508     H        0.30523    0.84387    0.26537    1.000
    H509     H        0.29463    0.90837    0.18047    1.000
    C604     C        0.30993    0.95107    0.23267    1.000
    C605     C        0.30393    0.95337    0.38967    1.000
    H510     H        0.28013    0.91047    0.44367    1.000
    C606     C        0.33073    0.89017    0.41567    1.000
    N72      N        0.30553    0.85047    0.52237    1.000
    H511     H        0.15943    0.68947    0.53587    1.000
    H512     H        0.26063    0.75717    0.19997    1.000
    H513     H        0.28623    0.81677    0.60077    1.000
    H514     H        0.25703    0.82437    0.76647    1.000
    C607     C        0.26393    0.86167    0.70367    1.000
    H515     H        0.26103    0.89387    0.63117    1.000
    H516     H        0.12253    0.82407    0.82167    1.000
    C608     C        0.09043    0.78697    0.75697    1.000
    H517     H        0.06583    0.75087    0.67677    1.000
    H518     H        0.14103    0.72367    0.76517    1.000
    H519     H        0.16533    0.75897    0.76307    1.000
    H520     H        0.13153    0.74727    0.73137    1.000
    Ag35     Ag       0.14189    0.67880    0.72759    1.000
    H521     H        0.07363    0.69957    0.44027    1.000
    C609     C        0.09093    0.67147    0.41247    1.000
    H522     H        0.11353    0.65207    0.36907    1.000
    H523     H        0.06783    0.70397    0.01407    1.000
    C610     C        0.10623    0.73777    0.95857    1.000
    H524     H        0.14843    0.77017    0.92577    1.000
    H525     H        0.17873    0.69897    0.05437    1.000
    H526     H        0.15233    0.69127    0.12287    1.000
    H527     H        0.16113    0.71747    0.05267    1.000
    Ag36     Ag       0.23568    0.71589    0.04036    1.000
    H528     H        0.24313    0.82637    0.02497    1.000
    C611     C        0.27773    0.82127    0.07497    1.000
    H529     H        0.31033    0.82027    0.14187    1.000
    H530     H        0.31643    0.96157    0.17897    1.000
    C612     C        0.31393    0.96647    0.30167    1.000
    H531     H        0.30733    0.96537    0.44027    1.000
    H532     H        0.34763    0.89527    0.45537    1.000
    H533     H        0.33563    0.88557    0.35807    1.000
    H534     H        0.32713    0.90727    0.41117    1.000
    H535     H        0.28393    0.87437    0.72477    1.000
    H536     H        0.07383    0.78457    0.79097    1.000
    H537     H        0.07893    0.65577    0.45227    1.000
    H538     H        0.09733    0.73747    0.90397    1.000
    H539     H        0.28013    0.81177    0.02497    1.000
    H540     H        0.32403    0.98777    0.29677    1.000
    Au37     Au       0.85037    0.68346    0.79084    1.000
    Au38     Au       0.87476    0.69918    0.60959    1.000
    Au39     Au       0.81666    0.69693    0.65832    1.000
    Ag37     Ag       0.87447    0.74275    0.72030    1.000
    P37      P        0.86765    0.70386    0.92340    1.000
    P38      P        0.91971    0.73566    0.55580    1.000
    P39      P        0.80216    0.73208    0.64910    1.000
    N73      N        0.90910    0.75250    0.83640    1.000
    N74      N        0.90220    0.77550    0.60350    1.000
    N75      N        0.84340    0.76140    0.77180    1.000
    C613     C        0.84330    0.71580    0.97150    1.000
    C614     C        0.87210    0.67770    0.99170    1.000
    C615     C        0.90510    0.73890    0.91320    1.000
    C616     C        0.95090    0.74300    0.62780    1.000
    C617     C        0.92570    0.72440    0.45030    1.000
    C618     C        0.92050    0.77220    0.54510    1.000
    C619     C        0.81820    0.75540    0.55440    1.000
    C620     C        0.76110    0.71360    0.64800    1.000
    C621     C        0.81700    0.75810    0.74150    1.000
    C622     C        0.93550    0.77700    0.82280    1.000
    C623     C        0.89920    0.79940    0.60120    1.000
    C624     C        0.85540    0.77800    0.84050    1.000
    C625     C        0.85340    0.73960    0.02920    1.000
    C626     C        0.81290    0.70080    0.94950    1.000
    C627     C        0.85340    0.66380    0.05900    1.000
    C628     C        0.89500    0.67170    0.97200    1.000
    C629     C        0.92730    0.75030    0.97830    1.000
    C630     C        0.94790    0.72010    0.68130    1.000
    C631     C        0.97640    0.77130    0.63640    1.000
    C632     C        0.94690    0.71580    0.43560    1.000
    C633     C        0.90680    0.72180    0.38330    1.000
    C634     C        0.93670    0.79490    0.48520    1.000
    C635     C        0.82400    0.74220    0.48090    1.000
    C636     C        0.82660    0.78550    0.55040    1.000
    C637     C        0.74720    0.71040    0.56500    1.000
    C638     C        0.74550    0.70070    0.72400    1.000
    C639     C        0.80360    0.77310    0.78300    1.000
    H541     H        0.93900    0.78800    0.77000    1.000
    C640     C        0.95790    0.78690    0.88350    1.000
    H542     H        0.88730    0.80210    0.64370    1.000
    C641     C        0.91320    0.82040    0.53750    1.000
    H543     H        0.87420    0.78110    0.86170    1.000
    C642     C        0.84100    0.79130    0.88310    1.000
    H544     H        0.87390    0.74950    0.04750    1.000
    C643     C        0.83450    0.74930    0.06080    1.000
    C644     C        0.79350    0.71060    0.98090    1.000
    H545     H        0.80510    0.68370    0.91250    1.000
    H546     H        0.83810    0.66850    0.07280    1.000
    C645     C        0.85640    0.64230    0.10910    1.000
    C646     C        0.89950    0.65170    0.02200    1.000
    H547     H        0.90770    0.68130    0.92350    1.000
    C647     C        0.92410    0.73860    0.06670    1.000
    N76      N        0.95390    0.77490    0.96000    1.000
    H548     H        0.93010    0.70110    0.67750    1.000
    C648     C        0.96930    0.72380    0.73900    1.000
    C649     C        0.99750    0.77530    0.69580    1.000
    H549     H        0.97900    0.78760    0.60090    1.000
    H550     H        0.96070    0.71830    0.48050    1.000
    C650     C        0.94860    0.70380    0.35670    1.000
    C651     C        0.90890    0.71180    0.30540    1.000
    H551     H        0.89190    0.72740    0.39280    1.000
    C652     C        0.95920    0.79490    0.42350    1.000
    N77      N        0.93190    0.81850    0.48120    1.000
    H552     H        0.81880    0.72150    0.48240    1.000
    C653     C        0.83700    0.75900    0.40820    1.000
    C654     C        0.84050    0.80260    0.47660    1.000
    H553     H        0.82280    0.79470    0.59870    1.000
    H554     H        0.75830    0.71960    0.51380    1.000
    C655     C        0.71560    0.69220    0.56600    1.000
    C656     C        0.71330    0.68390    0.72300    1.000
    H555     H        0.75620    0.70300    0.77700    1.000
    C657     C        0.77650    0.77390    0.74900    1.000
    N78      N        0.81620    0.78840    0.85570    1.000
    H556     H        0.97720    0.80330    0.86920    1.000
    H557     H        0.90950    0.83680    0.53330    1.000
    H558     H        0.84990    0.80280    0.93410    1.000
    H559     H        0.84230    0.76600    0.09980    1.000
    C658     C        0.80500    0.73560    0.03700    1.000
    H560     H        0.77280    0.70050    0.96450    1.000
    H561     H        0.84260    0.63180    0.15500    1.000
    C659     C        0.87970    0.63680    0.09030    1.000
    H562     H        0.91580    0.64830    0.01010    1.000
    H563     H        0.94300    0.75070    0.09850    1.000
    H564     H        0.90770    0.73970    0.09640    1.000
    H565     H        0.91940    0.71760    0.06470    1.000
    Ag38     Ag       0.98787    0.79643    0.06092    1.000
    H566     H        0.96710    0.70740    0.77360    1.000
    C660     C        0.99520    0.75280    0.74580    1.000
    H567     H        0.01460    0.79480    0.70240    1.000
    H568     H        0.96270    0.69720    0.34740    1.000
    C661     C        0.92890    0.70180    0.29190    1.000
    H569     H        0.89650    0.71160    0.25910    1.000
    H570     H        0.96770    0.81310    0.38770    1.000
    H571     H        0.97540    0.79440    0.45620    1.000
    H572     H        0.94920    0.77700    0.38600    1.000
    Ag39     Ag       0.95078    0.85313    0.37369    1.000
    H573     H        0.84030    0.75010    0.35830    1.000
    C662     C        0.84540    0.78980    0.40830    1.000
    H574     H        0.84640    0.82340    0.47520    1.000
    H575     H        0.70510    0.68820    0.51230    1.000
    C663     C        0.70020    0.68080    0.63500    1.000
    H576     H        0.70130    0.67530    0.77360    1.000
    H577     H        0.77140    0.78570    0.78870    1.000
    H578     H        0.78110    0.78340    0.69140    1.000
    H579     H        0.75940    0.75320    0.74450    1.000
    H580     H        0.79230    0.74290    0.05810    1.000
    H581     H        0.88210    0.62260    0.12430    1.000
    H582     H        0.01090    0.75650    0.78560    1.000
    H583     H        0.92920    0.69320    0.23730    1.000
    H584     H        0.85490    0.80170    0.35830    1.000
    H585     H        0.67890    0.66960    0.63010    1.000
    Au40     Au       0.51703    0.01679    0.12417    1.000
    Au41     Au       0.54143    0.03251    0.94292    1.000
    Au42     Au       0.48332    0.03027    0.99165    1.000
    Ag40     Ag       0.54114    0.07608    0.05363    1.000
    P40      P        0.53432    0.03719    0.25673    1.000
    P41      P        0.58638    0.06899    0.88913    1.000
    P42      P        0.46883    0.06541    0.98243    1.000
    N79      N        0.57577    0.08583    0.16973    1.000
    N80      N        0.56887    0.10883    0.93683    1.000
    N81      N        0.51007    0.09473    0.10513    1.000
    C664     C        0.50997    0.04913    0.30483    1.000
    C665     C        0.53877    0.01103    0.32503    1.000
    C666     C        0.57177    0.07223    0.24653    1.000
    C667     C        0.61757    0.07633    0.96113    1.000
    C668     C        0.59237    0.05773    0.78363    1.000
    C669     C        0.58717    0.10553    0.87843    1.000
    C670     C        0.48487    0.08873    0.88773    1.000
    C671     C        0.42777    0.04693    0.98133    1.000
    C672     C        0.48367    0.09143    0.07483    1.000
    C673     C        0.60217    0.11033    0.15613    1.000
    C674     C        0.56587    0.13273    0.93453    1.000
    C675     C        0.52207    0.11133    0.17383    1.000
    C676     C        0.52007    0.07293    0.36253    1.000
    C677     C        0.47957    0.03413    0.28283    1.000
    C678     C        0.52007    0.99713    0.39233    1.000
    C679     C        0.56167    0.00503    0.30533    1.000
    C680     C        0.59397    0.08363    0.31163    1.000
    C681     C        0.61457    0.05343    0.01463    1.000
    C682     C        0.64307    0.10463    0.96973    1.000
    C683     C        0.61357    0.04913    0.76893    1.000
    C684     C        0.57347    0.05513    0.71663    1.000
    C685     C        0.60337    0.12823    0.81853    1.000
    C686     C        0.49067    0.07553    0.81423    1.000
    C687     C        0.49327    0.11883    0.88373    1.000
    C688     C        0.41387    0.04373    0.89833    1.000
    C689     C        0.41217    0.03403    0.05733    1.000
    C690     C        0.47027    0.10643    0.11633    1.000
    H586     H        0.60567    0.12133    0.10333    1.000
    C691     C        0.62457    0.12023    0.21683    1.000
    H587     H        0.55397    0.13543    0.97703    1.000
    C692     C        0.57987    0.15373    0.87083    1.000
    H588     H        0.54087    0.11443    0.19503    1.000
    C693     C        0.50767    0.12463    0.21643    1.000
    H589     H        0.54057    0.08283    0.38083    1.000
    C694     C        0.50117    0.08263    0.39413    1.000
    C695     C        0.46017    0.04393    0.31423    1.000
    H590     H        0.47177    0.01703    0.24583    1.000
    H591     H        0.50477    0.00183    0.40613    1.000
    C696     C        0.52307    0.97563    0.44243    1.000
    C697     C        0.56617    0.98503    0.35533    1.000
    H592     H        0.57437    0.01463    0.25683    1.000
    C698     C        0.59077    0.07193    0.40003    1.000
    N82      N        0.62057    0.10823    0.29333    1.000
    H593     H        0.59677    0.03443    0.01083    1.000
    C699     C        0.63597    0.05713    0.07233    1.000
    C700     C        0.66417    0.10863    0.02913    1.000
    H594     H        0.64567    0.12093    0.93423    1.000
    H595     H        0.62737    0.05163    0.81383    1.000
    C701     C        0.61527    0.03713    0.69003    1.000
    C702     C        0.57557    0.04513    0.63873    1.000
    H596     H        0.55857    0.06073    0.72613    1.000
    C703     C        0.62587    0.12823    0.75683    1.000
    N83      N        0.59857    0.15183    0.81453    1.000
    H597     H        0.48547    0.05483    0.81573    1.000
    C704     C        0.50367    0.09233    0.74153    1.000
    C705     C        0.50717    0.13593    0.80993    1.000
    H598     H        0.48947    0.12803    0.93203    1.000
    H599     H        0.42497    0.05293    0.84713    1.000
    C706     C        0.38227    0.02553    0.89933    1.000
    C707     C        0.37997    0.01723    0.05633    1.000
    H600     H        0.42287    0.03633    0.11033    1.000
    C708     C        0.44317    0.10723    0.08233    1.000
    N84      N        0.48287    0.12173    0.18903    1.000
    H601     H        0.64387    0.13663    0.20253    1.000
    H602     H        0.57617    0.17013    0.86663    1.000
    H603     H        0.51657    0.13613    0.26743    1.000
    H604     H        0.50897    0.09933    0.43313    1.000
    C709     C        0.47167    0.06893    0.37033    1.000
    H605     H        0.43947    0.03383    0.29783    1.000
    H606     H        0.50927    0.96513    0.48833    1.000
    C710     C        0.54637    0.97013    0.42363    1.000
    H607     H        0.58247    0.98163    0.34343    1.000
    H608     H        0.60967    0.08403    0.43183    1.000
    H609     H        0.57437    0.07303    0.42973    1.000
    H610     H        0.58607    0.05093    0.39803    1.000
    Ag41     Ag       0.65454    0.12976    0.39425    1.000
    H611     H        0.63377    0.04073    0.10693    1.000
    C711     C        0.66187    0.08613    0.07913    1.000
    H612     H        0.68127    0.12813    0.03573    1.000
    H613     H        0.62937    0.03053    0.68073    1.000
    C712     C        0.59557    0.03513    0.62523    1.000
    H614     H        0.56317    0.04493    0.59243    1.000
    H615     H        0.63437    0.14643    0.72103    1.000
    H616     H        0.64207    0.12773    0.78953    1.000
    H617     H        0.61587    0.11033    0.71933    1.000
    Ag42     Ag       0.61745    0.18646    0.70702    1.000
    H618     H        0.50697    0.08343    0.69163    1.000
    C713     C        0.51207    0.12313    0.74163    1.000
    H619     H        0.51307    0.15673    0.80853    1.000
    H620     H        0.37177    0.02153    0.84563    1.000
    C714     C        0.36687    0.01413    0.96833    1.000
    H621     H        0.36797    0.00863    0.10693    1.000
    H622     H        0.43807    0.11903    0.12203    1.000
    H623     H        0.44777    0.11673    0.02473    1.000
    H624     H        0.42607    0.08653    0.07783    1.000
    H625     H        0.45897    0.07623    0.39143    1.000
    H626     H        0.54877    0.95593    0.45763    1.000
    H627     H        0.67757    0.08983    0.11893    1.000
    H628     H        0.59587    0.02653    0.57063    1.000
    H629     H        0.52157    0.13503    0.69163    1.000
    H630     H        0.34557    0.00293    0.96343    1.000
    Au43     Au       0.18370    0.35012    0.45751    1.000
    Au44     Au       0.20810    0.36585    0.27626    1.000
    Au45     Au       0.14999    0.36360    0.32499    1.000
    Ag43     Ag       0.20780    0.40942    0.38697    1.000
    P43      P        0.20098    0.37053    0.59007    1.000
    P44      P        0.25304    0.40233    0.22247    1.000
    P45      P        0.13549    0.39875    0.31577    1.000
    N85      N        0.24243    0.41917    0.50307    1.000
    N86      N        0.23553    0.44217    0.27017    1.000
    N87      N        0.17673    0.42807    0.43847    1.000
    C715     C        0.17663    0.38247    0.63817    1.000
    C716     C        0.20543    0.34437    0.65837    1.000
    C717     C        0.23843    0.40557    0.57987    1.000
    C718     C        0.28423    0.40967    0.29447    1.000
    C719     C        0.25903    0.39107    0.11697    1.000
    C720     C        0.25383    0.43887    0.21177    1.000
    C721     C        0.15153    0.42207    0.22107    1.000
    C722     C        0.09443    0.38027    0.31467    1.000
    C723     C        0.15033    0.42477    0.40817    1.000
    C724     C        0.26883    0.44367    0.48947    1.000
    C725     C        0.23253    0.46607    0.26787    1.000
    C726     C        0.18873    0.44467    0.50717    1.000
    C727     C        0.18673    0.40627    0.69587    1.000
    C728     C        0.14623    0.36747    0.61617    1.000
    C729     C        0.18673    0.33047    0.72567    1.000
    C730     C        0.22833    0.33837    0.63867    1.000
    C731     C        0.26063    0.41697    0.64497    1.000
    C732     C        0.28123    0.38677    0.34797    1.000
    C733     C        0.30973    0.43797    0.30307    1.000
    C734     C        0.28023    0.38247    0.10227    1.000
    C735     C        0.24013    0.38847    0.04997    1.000
    C736     C        0.27003    0.46157    0.15187    1.000
    C737     C        0.15733    0.40887    0.14757    1.000
    C738     C        0.15993    0.45217    0.21707    1.000
    C739     C        0.08053    0.37707    0.23167    1.000
    C740     C        0.07883    0.36737    0.39067    1.000
    C741     C        0.13693    0.43977    0.44967    1.000
    H631     H        0.27233    0.45467    0.43667    1.000
    C742     C        0.29123    0.45357    0.55017    1.000
    H632     H        0.22063    0.46877    0.31037    1.000
    C743     C        0.24653    0.48707    0.20417    1.000
    H633     H        0.20753    0.44777    0.52837    1.000
    C744     C        0.17433    0.45797    0.54977    1.000
    H634     H        0.20723    0.41617    0.71417    1.000
    C745     C        0.16783    0.41597    0.72747    1.000
    C746     C        0.12683    0.37727    0.64757    1.000
    H635     H        0.13843    0.35037    0.57917    1.000
    H636     H        0.17143    0.33517    0.73947    1.000
    C747     C        0.18973    0.30897    0.77577    1.000
    C748     C        0.23283    0.31837    0.68867    1.000
    H637     H        0.24103    0.34797    0.59017    1.000
    C749     C        0.25743    0.40527    0.73337    1.000
    N88      N        0.28723    0.44157    0.62667    1.000
    H638     H        0.26343    0.36777    0.34417    1.000
    C750     C        0.30263    0.39047    0.40567    1.000
    C751     C        0.33083    0.44197    0.36247    1.000
    H639     H        0.31233    0.45427    0.26757    1.000
    H640     H        0.29403    0.38497    0.14717    1.000
    C752     C        0.28193    0.37047    0.02337    1.000
    C753     C        0.24223    0.37847    0.97207    1.000
    H641     H        0.22523    0.39407    0.05947    1.000
    C754     C        0.29253    0.46157    0.09017    1.000
    N89      N        0.26523    0.48517    0.14787    1.000
    H642     H        0.15213    0.38817    0.14907    1.000
    C755     C        0.17033    0.42567    0.07487    1.000
    C756     C        0.17383    0.46927    0.14327    1.000
    H643     H        0.15613    0.46137    0.26537    1.000
    H644     H        0.09163    0.38627    0.18047    1.000
    C757     C        0.04893    0.35887    0.23267    1.000
    C758     C        0.04663    0.35057    0.38967    1.000
    H645     H        0.08953    0.36967    0.44367    1.000
    C759     C        0.10983    0.44057    0.41567    1.000
    N90      N        0.14953    0.45507    0.52237    1.000
    H646     H        0.31053    0.46997    0.53587    1.000
    H647     H        0.24283    0.50347    0.19997    1.000
    H648     H        0.18323    0.46947    0.60077    1.000
    H649     H        0.17563    0.43267    0.76647    1.000
    C760     C        0.13833    0.40227    0.70367    1.000
    H650     H        0.10613    0.36717    0.63117    1.000
    H651     H        0.17593    0.29847    0.82167    1.000
    C761     C        0.21303    0.30347    0.75697    1.000
    H652     H        0.24913    0.31497    0.67677    1.000
    H653     H        0.27633    0.41737    0.76517    1.000
    H654     H        0.24103    0.40637    0.76307    1.000
    H655     H        0.25273    0.38427    0.73137    1.000
    Ag44     Ag       0.32120    0.46310    0.72759    1.000
    H656     H        0.30043    0.37407    0.44027    1.000
    C762     C        0.32853    0.41947    0.41247    1.000
    H657     H        0.34793    0.46147    0.36907    1.000
    H658     H        0.29603    0.36387    0.01407    1.000
    C763     C        0.26223    0.36847    0.95857    1.000
    H659     H        0.22983    0.37827    0.92577    1.000
    H660     H        0.30103    0.47977    0.05437    1.000
    H661     H        0.30873    0.46107    0.12287    1.000
    H662     H        0.28253    0.44367    0.05267    1.000
    Ag45     Ag       0.28411    0.51980    0.04036    1.000
    H663     H        0.17363    0.41677    0.02497    1.000
    C764     C        0.17873    0.45647    0.07497    1.000
    H664     H        0.17973    0.49007    0.14187    1.000
    H665     H        0.03843    0.35487    0.17897    1.000
    C765     C        0.03353    0.34747    0.30167    1.000
    H666     H        0.03463    0.34197    0.44027    1.000
    H667     H        0.10473    0.45237    0.45537    1.000
    H668     H        0.11443    0.45007    0.35807    1.000
    H669     H        0.09273    0.41987    0.41117    1.000
    H670     H        0.12563    0.40957    0.72477    1.000
    H671     H        0.21543    0.28927    0.79097    1.000
    H672     H        0.34423    0.42317    0.45227    1.000
    H673     H        0.26253    0.35987    0.90397    1.000
    H674     H        0.18823    0.46837    0.02497    1.000
    H675     H        0.01223    0.33627    0.29677    1.000
    Au46     Au       0.31654    0.16691    0.79084    1.000
    Au47     Au       0.30082    0.17558    0.60959    1.000
    Au48     Au       0.30307    0.11972    0.65832    1.000
    Ag46     Ag       0.25725    0.13172    0.72030    1.000
    P46      P        0.29614    0.16379    0.92340    1.000
    P47      P        0.26434    0.18405    0.55580    1.000
    P48      P        0.26792    0.07008    0.64910    1.000
    N91      N        0.24750    0.15660    0.83640    1.000
    N92      N        0.22450    0.12670    0.60350    1.000
    N93      N        0.23860    0.08200    0.77180    1.000
    C766     C        0.28420    0.12750    0.97150    1.000
    C767     C        0.32230    0.19440    0.99170    1.000
    C768     C        0.26110    0.16620    0.91320    1.000
    C769     C        0.25700    0.20790    0.62780    1.000
    C770     C        0.27560    0.20130    0.45030    1.000
    C771     C        0.22780    0.14830    0.54510    1.000
    C772     C        0.24460    0.06280    0.55440    1.000
    C773     C        0.28640    0.04750    0.64800    1.000
    C774     C        0.24190    0.05890    0.74150    1.000
    C775     C        0.22300    0.15850    0.82280    1.000
    C776     C        0.20060    0.09980    0.60120    1.000
    C777     C        0.22200    0.07740    0.84050    1.000
    C778     C        0.26040    0.11380    0.02920    1.000
    C779     C        0.29920    0.11210    0.94950    1.000
    C780     C        0.33620    0.18960    0.05900    1.000
    C781     C        0.32830    0.22330    0.97200    1.000
    C782     C        0.24970    0.17700    0.97830    1.000
    C783     C        0.27990    0.22780    0.68130    1.000
    C784     C        0.22870    0.20510    0.63640    1.000
    C785     C        0.28420    0.23110    0.43560    1.000
    C786     C        0.27820    0.18500    0.38330    1.000
    C787     C        0.20510    0.14180    0.48520    1.000
    C788     C        0.25780    0.08180    0.48090    1.000
    C789     C        0.21450    0.04110    0.55040    1.000
    C790     C        0.28960    0.03680    0.56500    1.000
    C791     C        0.29930    0.04480    0.72400    1.000
    C792     C        0.22690    0.03050    0.78300    1.000
    H676     H        0.21200    0.15100    0.77000    1.000
    C793     C        0.21310    0.17100    0.88350    1.000
    H677     H        0.19790    0.08520    0.64370    1.000
    C794     C        0.17960    0.09280    0.53750    1.000
    H678     H        0.21890    0.09310    0.86170    1.000
    C795     C        0.20870    0.04970    0.88310    1.000
    H679     H        0.25050    0.12440    0.04750    1.000
    C796     C        0.25070    0.08520    0.06080    1.000
    C797     C        0.28940    0.08290    0.98090    1.000
    H680     H        0.31630    0.12140    0.91250    1.000
    H681     H        0.33150    0.16960    0.07280    1.000
    C798     C        0.35770    0.21410    0.10910    1.000
    C799     C        0.34830    0.24780    0.02200    1.000
    H682     H        0.31870    0.22640    0.92350    1.000
    C800     C        0.26140    0.18550    0.06670    1.000
    N94      N        0.22510    0.17900    0.96000    1.000
    H683     H        0.29890    0.22900    0.67750    1.000
    C801     C        0.27620    0.24550    0.73900    1.000
    C802     C        0.22470    0.22220    0.69580    1.000
    H684     H        0.21240    0.19140    0.60090    1.000
    H685     H        0.28170    0.24240    0.48050    1.000
    C803     C        0.29620    0.24480    0.35670    1.000
    C804     C        0.28820    0.19710    0.30540    1.000
    H686     H        0.27260    0.16450    0.39280    1.000
    C805     C        0.20510    0.16430    0.42350    1.000
    N95      N        0.18150    0.11340    0.48120    1.000
    H687     H        0.27850    0.09730    0.48240    1.000
    C806     C        0.24100    0.07800    0.40820    1.000
    C807     C        0.19740    0.03790    0.47660    1.000
    H688     H        0.20530    0.02810    0.59870    1.000
    H689     H        0.28040    0.03870    0.51380    1.000
    C808     C        0.30780    0.02340    0.56600    1.000
    C809     C        0.31610    0.02940    0.72300    1.000
    H690     H        0.29700    0.05320    0.77700    1.000
    C810     C        0.22610    0.00260    0.74900    1.000
    N96      N        0.21160    0.02780    0.85570    1.000
    H691     H        0.19670    0.17390    0.86920    1.000
    H692     H        0.16320    0.07270    0.53330    1.000
    H693     H        0.19720    0.04710    0.93410    1.000
    H694     H        0.23400    0.07630    0.09980    1.000
    C811     C        0.26440    0.06940    0.03700    1.000
    H695     H        0.29950    0.07230    0.96450    1.000
    H696     H        0.36820    0.21080    0.15500    1.000
    C812     C        0.36320    0.24290    0.09030    1.000
    H697     H        0.35170    0.26750    0.01010    1.000
    H698     H        0.24930    0.19230    0.09850    1.000
    H699     H        0.26030    0.16800    0.09640    1.000
    H700     H        0.28240    0.20180    0.06470    1.000
    Ag47     Ag       0.20357    0.19144    0.06092    1.000
    H701     H        0.29260    0.25970    0.77360    1.000
    C813     C        0.24720    0.24240    0.74580    1.000
    H702     H        0.20520    0.21980    0.70240    1.000
    H703     H        0.30280    0.26550    0.34740    1.000
    C814     C        0.29820    0.22710    0.29190    1.000
    H704     H        0.28840    0.18490    0.25910    1.000
    H705     H        0.18690    0.15460    0.38770    1.000
    H706     H        0.20560    0.18100    0.45620    1.000
    H707     H        0.22300    0.17220    0.38600    1.000
    Ag48     Ag       0.14687    0.09765    0.37369    1.000
    H708     H        0.24990    0.09020    0.35830    1.000
    C815     C        0.21020    0.05560    0.40830    1.000
    H709     H        0.17660    0.02300    0.47520    1.000
    H710     H        0.31180    0.01690    0.51230    1.000
    C816     C        0.31920    0.01940    0.63500    1.000
    H711     H        0.32470    0.02600    0.77360    1.000
    H712     H        0.21430    0.98570    0.78870    1.000
    H713     H        0.21660    0.99770    0.69140    1.000
    H714     H        0.24680    0.00620    0.74450    1.000
    H715     H        0.25710    0.04940    0.05810    1.000
    H716     H        0.37740    0.25950    0.12430    1.000
    H717     H        0.24350    0.25440    0.78560    1.000
    H718     H        0.30680    0.23600    0.23730    1.000
    H719     H        0.19830    0.05320    0.35830    1.000
    H720     H        0.33040    0.00930    0.63010    1.000
    Au49     Au       0.98321    0.50025    0.12417    1.000
    Au50     Au       0.96749    0.50892    0.94292    1.000
    Au51     Au       0.96973    0.45306    0.99165    1.000
    Ag49     Ag       0.92392    0.46505    0.05363    1.000
    P49      P        0.96281    0.49712    0.25673    1.000
    P50      P        0.93101    0.51738    0.88913    1.000
    P51      P        0.93459    0.40341    0.98243    1.000
    N97      N        0.91417    0.48993    0.16973    1.000
    N98      N        0.89117    0.46003    0.93683    1.000
    N99      N        0.90527    0.41533    0.10513    1.000
    C817     C        0.95087    0.46083    0.30483    1.000
    C818     C        0.98897    0.52773    0.32503    1.000
    C819     C        0.92777    0.49953    0.24653    1.000
    C820     C        0.92367    0.54123    0.96113    1.000
    C821     C        0.94227    0.53463    0.78363    1.000
    C822     C        0.89447    0.48163    0.87843    1.000
    C823     C        0.91127    0.39613    0.88773    1.000
    C824     C        0.95307    0.38083    0.98133    1.000
    C825     C        0.90857    0.39223    0.07483    1.000
    C826     C        0.88967    0.49183    0.15613    1.000
    C827     C        0.86727    0.43313    0.93453    1.000
    C828     C        0.88867    0.41073    0.17383    1.000
    C829     C        0.92707    0.44713    0.36253    1.000
    C830     C        0.96587    0.44543    0.28283    1.000
    C831     C        0.00287    0.52293    0.39233    1.000
    C832     C        0.99497    0.55663    0.30533    1.000
    C833     C        0.91637    0.51033    0.31163    1.000
    C834     C        0.94657    0.56113    0.01463    1.000
    C835     C        0.89537    0.53843    0.96973    1.000
    C836     C        0.95087    0.56443    0.76893    1.000
    C837     C        0.94487    0.51833    0.71663    1.000
    C838     C        0.87177    0.47513    0.81853    1.000
    C839     C        0.92447    0.41513    0.81423    1.000
    C840     C        0.88117    0.37443    0.88373    1.000
    C841     C        0.95627    0.37013    0.89833    1.000
    C842     C        0.96597    0.37813    0.05733    1.000
    C843     C        0.89357    0.36383    0.11633    1.000
    H721     H        0.87867    0.48433    0.10333    1.000
    C844     C        0.87977    0.50433    0.21683    1.000
    H722     H        0.86457    0.41853    0.97703    1.000
    C845     C        0.84627    0.42613    0.87083    1.000
    H723     H        0.88557    0.42643    0.19503    1.000
    C846     C        0.87537    0.38303    0.21643    1.000
    H724     H        0.91717    0.45773    0.38083    1.000
    C847     C        0.91737    0.41853    0.39413    1.000
    C848     C        0.95607    0.41623    0.31423    1.000
    H725     H        0.98297    0.45473    0.24583    1.000
    H726     H        0.99817    0.50293    0.40613    1.000
    C849     C        0.02437    0.54743    0.44243    1.000
    C850     C        0.01497    0.58113    0.35533    1.000
    H727     H        0.98537    0.55973    0.25683    1.000
    C851     C        0.92807    0.51883    0.40003    1.000
    N100     N        0.89177    0.51233    0.29333    1.000
    H728     H        0.96557    0.56233    0.01083    1.000
    C852     C        0.94287    0.57883    0.07233    1.000
    C853     C        0.89137    0.55553    0.02913    1.000
    H729     H        0.87907    0.52473    0.93423    1.000
    H730     H        0.94837    0.57573    0.81383    1.000
    C854     C        0.96287    0.57813    0.69003    1.000
    C855     C        0.95487    0.53043    0.63873    1.000
    H731     H        0.93927    0.49783    0.72613    1.000
    C856     C        0.87177    0.49763    0.75683    1.000
    N101     N        0.84817    0.44673    0.81453    1.000
    H732     H        0.94517    0.43063    0.81573    1.000
    C857     C        0.90767    0.41133    0.74153    1.000
    C858     C        0.86407    0.37123    0.80993    1.000
    H733     H        0.87197    0.36143    0.93203    1.000
    H734     H        0.94707    0.37203    0.84713    1.000
    C859     C        0.97447    0.35673    0.89933    1.000
    C860     C        0.98277    0.36273    0.05633    1.000
    H735     H        0.96367    0.38653    0.11033    1.000
    C861     C        0.89277    0.33593    0.08233    1.000
    N102     N        0.87827    0.36113    0.18903    1.000
    H736     H        0.86337    0.50723    0.20253    1.000
    H737     H        0.82987    0.40603    0.86663    1.000
    H738     H        0.86387    0.38043    0.26743    1.000
    H739     H        0.90067    0.40963    0.43313    1.000
    C862     C        0.93107    0.40273    0.37033    1.000
    H740     H        0.96617    0.40563    0.29783    1.000
    H741     H        0.03487    0.54413    0.48833    1.000
    C863     C        0.02987    0.57623    0.42363    1.000
    H742     H        0.01837    0.60083    0.34343    1.000
    H743     H        0.91597    0.52563    0.43183    1.000
    H744     H        0.92697    0.50133    0.42973    1.000
    H745     H        0.94907    0.53513    0.39803    1.000
    Ag50     Ag       0.87024    0.52477    0.39425    1.000
    H746     H        0.95927    0.59303    0.10693    1.000
    C864     C        0.91387    0.57573    0.07913    1.000
    H747     H        0.87187    0.55313    0.03573    1.000
    H748     H        0.96947    0.59883    0.68073    1.000
    C865     C        0.96487    0.56043    0.62523    1.000
    H749     H        0.95507    0.51823    0.59243    1.000
    H750     H        0.85357    0.48793    0.72103    1.000
    H751     H        0.87227    0.51433    0.78953    1.000
    H752     H        0.88967    0.50553    0.71933    1.000
    Ag51     Ag       0.81354    0.43098    0.70702    1.000
    H753     H        0.91657    0.42353    0.69163    1.000
    C866     C        0.87687    0.38893    0.74163    1.000
    H754     H        0.84327    0.35633    0.80853    1.000
    H755     H        0.97847    0.35023    0.84563    1.000
    C867     C        0.98587    0.35273    0.96833    1.000
    H756     H        0.99137    0.35933    0.10693    1.000
    H757     H        0.88097    0.31903    0.12203    1.000
    H758     H        0.88327    0.33103    0.02473    1.000
    H759     H        0.91347    0.33953    0.07783    1.000
    H760     H        0.92377    0.38273    0.39143    1.000
    H761     H        0.04407    0.59283    0.45763    1.000
    H762     H        0.91017    0.58773    0.11893    1.000
    H763     H        0.97347    0.56933    0.57063    1.000
    H764     H        0.86497    0.38653    0.69163    1.000
    H765     H        0.99707    0.34263    0.96343    1.000
    Au52     Au       0.64988    0.83358    0.45751    1.000
    Au53     Au       0.63415    0.84225    0.27626    1.000
    Au54     Au       0.63640    0.78639    0.32499    1.000
    Ag52     Ag       0.59058    0.79839    0.38697    1.000
    P52      P        0.62947    0.83046    0.59007    1.000
    P53      P        0.59767    0.85072    0.22247    1.000
    P54      P        0.60125    0.73675    0.31577    1.000
    N103     N        0.58083    0.82327    0.50307    1.000
    N104     N        0.55783    0.79337    0.27017    1.000
    N105     N        0.57193    0.74867    0.43847    1.000
    C868     C        0.61753    0.79417    0.63817    1.000
    C869     C        0.65563    0.86107    0.65837    1.000
    C870     C        0.59443    0.83287    0.57987    1.000
    C871     C        0.59033    0.87457    0.29447    1.000
    C872     C        0.60893    0.86797    0.11697    1.000
    C873     C        0.56113    0.81497    0.21177    1.000
    C874     C        0.57793    0.72947    0.22107    1.000
    C875     C        0.61973    0.71417    0.31467    1.000
    C876     C        0.57523    0.72557    0.40817    1.000
    C877     C        0.55633    0.82517    0.48947    1.000
    C878     C        0.53393    0.76647    0.26787    1.000
    C879     C        0.55533    0.74407    0.50717    1.000
    C880     C        0.59373    0.78047    0.69587    1.000
    C881     C        0.63253    0.77877    0.61617    1.000
    C882     C        0.66953    0.85627    0.72567    1.000
    C883     C        0.66163    0.88997    0.63867    1.000
    C884     C        0.58303    0.84367    0.64497    1.000
    C885     C        0.61323    0.89447    0.34797    1.000
    C886     C        0.56203    0.87177    0.30307    1.000
    C887     C        0.61753    0.89777    0.10227    1.000
    C888     C        0.61153    0.85167    0.04997    1.000
    C889     C        0.53843    0.80847    0.15187    1.000
    C890     C        0.59113    0.74847    0.14757    1.000
    C891     C        0.54783    0.70777    0.21707    1.000
    C892     C        0.62293    0.70347    0.23167    1.000
    C893     C        0.63263    0.71147    0.39067    1.000
    C894     C        0.56023    0.69717    0.44967    1.000
    H766     H        0.54533    0.81767    0.43667    1.000
    C895     C        0.54643    0.83767    0.55017    1.000
    H767     H        0.53123    0.75187    0.31037    1.000
    C896     C        0.51293    0.75947    0.20417    1.000
    H768     H        0.55223    0.75977    0.52837    1.000
    C897     C        0.54203    0.71637    0.54977    1.000
    H769     H        0.58383    0.79107    0.71417    1.000
    C898     C        0.58403    0.75187    0.72747    1.000
    C899     C        0.62273    0.74957    0.64757    1.000
    H770     H        0.64963    0.78807    0.57917    1.000
    H771     H        0.66483    0.83627    0.73947    1.000
    C900     C        0.69103    0.88077    0.77577    1.000
    C901     C        0.68163    0.91447    0.68867    1.000
    H772     H        0.65203    0.89307    0.59017    1.000
    C902     C        0.59473    0.85217    0.73337    1.000
    N106     N        0.55843    0.84567    0.62667    1.000
    H773     H        0.63223    0.89567    0.34417    1.000
    C903     C        0.60953    0.91217    0.40567    1.000
    C904     C        0.55803    0.88887    0.36247    1.000
    H774     H        0.54573    0.85807    0.26757    1.000
    H775     H        0.61503    0.90907    0.14717    1.000
    C905     C        0.62953    0.91147    0.02337    1.000
    C906     C        0.62153    0.86377    0.97207    1.000
    H776     H        0.60593    0.83117    0.05947    1.000
    C907     C        0.53843    0.83097    0.09017    1.000
    N107     N        0.51483    0.78007    0.14787    1.000
    H777     H        0.61183    0.76397    0.14907    1.000
    C908     C        0.57433    0.74467    0.07487    1.000
    C909     C        0.53073    0.70457    0.14327    1.000
    H778     H        0.53863    0.69477    0.26537    1.000
    H779     H        0.61373    0.70537    0.18047    1.000
    C910     C        0.64113    0.69007    0.23267    1.000
    C911     C        0.64943    0.69607    0.38967    1.000
    H780     H        0.63033    0.71987    0.44367    1.000
    C912     C        0.55943    0.66927    0.41567    1.000
    N108     N        0.54493    0.69447    0.52237    1.000
    H781     H        0.53003    0.84057    0.53587    1.000
    H782     H        0.49653    0.73937    0.19997    1.000
    H783     H        0.53053    0.71377    0.60077    1.000
    H784     H        0.56733    0.74297    0.76647    1.000
    C913     C        0.59773    0.73607    0.70367    1.000
    H785     H        0.63283    0.73897    0.63117    1.000
    H786     H        0.70153    0.87747    0.82167    1.000
    C914     C        0.69653    0.90957    0.75697    1.000
    H787     H        0.68503    0.93417    0.67677    1.000
    H788     H        0.58263    0.85897    0.76517    1.000
    H789     H        0.59363    0.83467    0.76307    1.000
    H790     H        0.61573    0.86847    0.73137    1.000
    Ag53     Ag       0.53690    0.85811    0.72759    1.000
    H791     H        0.62593    0.92637    0.44027    1.000
    C915     C        0.58053    0.90907    0.41247    1.000
    H792     H        0.53853    0.88647    0.36907    1.000
    H793     H        0.63613    0.93217    0.01407    1.000
    C916     C        0.63153    0.89377    0.95857    1.000
    H794     H        0.62173    0.85157    0.92577    1.000
    H795     H        0.52023    0.82127    0.05437    1.000
    H796     H        0.53893    0.84767    0.12287    1.000
    H797     H        0.55633    0.83887    0.05267    1.000
    Ag54     Ag       0.48020    0.76432    0.04036    1.000
    H798     H        0.58323    0.75687    0.02497    1.000
    C917     C        0.54353    0.72227    0.07497    1.000
    H799     H        0.50993    0.68967    0.14187    1.000
    H800     H        0.64513    0.68357    0.17897    1.000
    C918     C        0.65253    0.68607    0.30167    1.000
    H801     H        0.65803    0.69267    0.44027    1.000
    H802     H        0.54763    0.65237    0.45537    1.000
    H803     H        0.54993    0.66437    0.35807    1.000
    H804     H        0.58013    0.67287    0.41117    1.000
    H805     H        0.59043    0.71607    0.72477    1.000
    H806     H        0.71073    0.92617    0.79097    1.000
    H807     H        0.57683    0.92107    0.45227    1.000
    H808     H        0.64013    0.90267    0.90397    1.000
    H809     H        0.53163    0.71987    0.02497    1.000
    H810     H        0.66373    0.67597    0.29677    1.000
    C919     C        0.16667    0.83333    0.33333    1.000
    C920     C        0.16667    0.33333    0.33333    1.000
    C921     C        0.66667    0.83333    0.33333    1.000
    C922     C        0.83333    0.16667    0.66667    1.000
    C923     C        0.50000    0.50000    0.00000    1.000
    C924     C        0.83333    0.66667    0.66667    1.000
    C925     C        0.50000    0.00000    0.00000    1.000
    C926     C        0.33333    0.16667    0.66667    1.000
    C927     C        0.00000    0.50000    0.00000    1.000
