# CIF file generated by openbabel 3.1.0, see https://openbabel.org
data_I
_chemical_name_common 'OMAXEG_clean'
_cell_length_a 8.01
_cell_length_b 12.178
_cell_length_c 14.622
_cell_angle_alpha 90
_cell_angle_beta 90
_cell_angle_gamma 90
_space_group_name_H-M_alt 'P 1'
_space_group_name_Hall 'P 1'
loop_
    _symmetry_equiv_pos_as_xyz
    x,y,z
loop_
    _atom_site_label
    _atom_site_type_symbol
    _atom_site_fract_x
    _atom_site_fract_y
    _atom_site_fract_z
    _atom_site_occupancy
    Ag1      Ag       0.93563    0.56852    0.68119    1.000
    Ag2      Ag       0.06437    0.43148    0.18119    1.000
    Ag3      Ag       0.56437    0.06852    0.68119    1.000
    Ag4      Ag       0.43563    0.93148    0.18119    1.000
    H1       H        0.95980    0.31290    0.38490    1.000
    H2       H        0.92220    0.66790    0.46970    1.000
    H3       H        0.96000    0.62280    0.32250    1.000
    H4       H        0.21940    0.16300    0.58530    1.000
    H5       H        0.56030    0.33490    0.71160    1.000
    H6       H        0.38430    0.48370    0.71380    1.000
    H7       H        0.04020    0.68710    0.88490    1.000
    H8       H        0.07780    0.33210    0.96970    1.000
    H9       H        0.04000    0.37720    0.82250    1.000
    H10      H        0.78060    0.83700    0.08530    1.000
    H11      H        0.43970    0.66510    0.21160    1.000
    H12      H        0.61570    0.51630    0.21380    1.000
    H13      H        0.54020    0.81290    0.38490    1.000
    H14      H        0.57780    0.16790    0.46970    1.000
    H15      H        0.54000    0.12280    0.32250    1.000
    H16      H        0.28060    0.66300    0.58530    1.000
    H17      H        0.93970    0.83490    0.71160    1.000
    H18      H        0.11570    0.98370    0.71380    1.000
    H19      H        0.45980    0.18710    0.88490    1.000
    H20      H        0.42220    0.83210    0.96970    1.000
    H21      H        0.46000    0.87720    0.82250    1.000
    H22      H        0.71940    0.33700    0.08530    1.000
    H23      H        0.06030    0.16510    0.21160    1.000
    H24      H        0.88430    0.01630    0.21380    1.000
    C1       C        0.95440    0.38650    0.40160    1.000
    C2       C        0.93970    0.41240    0.49000    1.000
    C3       C        0.93150    0.59410    0.45430    1.000
    C4       C        0.95220    0.56640    0.36520    1.000
    C5       C        0.14720    0.31790    0.61610    1.000
    C6       C        0.25410    0.22760    0.61350    1.000
    C7       C        0.45390    0.32820    0.68670    1.000
    C8       C        0.34760    0.41850    0.68750    1.000
    C9       C        0.04560    0.61350    0.90160    1.000
    C10      C        0.06030    0.58760    0.99000    1.000
    C11      C        0.06850    0.40590    0.95430    1.000
    C12      C        0.04780    0.43360    0.86520    1.000
    C13      C        0.85280    0.68210    0.11610    1.000
    C14      C        0.74590    0.77240    0.11350    1.000
    C15      C        0.54610    0.67180    0.18670    1.000
    C16      C        0.65240    0.58150    0.18750    1.000
    C17      C        0.54560    0.88650    0.40160    1.000
    C18      C        0.56030    0.91240    0.49000    1.000
    C19      C        0.56850    0.09410    0.45430    1.000
    C20      C        0.54780    0.06640    0.36520    1.000
    C21      C        0.35280    0.81790    0.61610    1.000
    C22      C        0.24590    0.72760    0.61350    1.000
    C23      C        0.04610    0.82820    0.68670    1.000
    C24      C        0.15240    0.91850    0.68750    1.000
    C25      C        0.45440    0.11350    0.90160    1.000
    C26      C        0.43970    0.08760    0.99000    1.000
    C27      C        0.43150    0.90590    0.95430    1.000
    C28      C        0.45220    0.93360    0.86520    1.000
    C29      C        0.64720    0.18210    0.11610    1.000
    C30      C        0.75410    0.27240    0.11350    1.000
    C31      C        0.95390    0.17180    0.18670    1.000
    C32      C        0.84760    0.08150    0.18750    1.000
    S1       S        0.94190    0.31040    0.57652    1.000
    S2       S        0.05810    0.68960    0.07652    1.000
    S3       S        0.55810    0.81040    0.57652    1.000
    S4       S        0.44190    0.18960    0.07652    1.000
    N1       N        0.96180    0.46440    0.33530    1.000
    N2       N        0.92390    0.51750    0.52180    1.000
    N3       N        0.40730    0.23270    0.65150    1.000
    N4       N        0.19440    0.41450    0.65140    1.000
    N5       N        0.03820    0.53560    0.83530    1.000
    N6       N        0.07610    0.48250    0.02180    1.000
    N7       N        0.59270    0.76730    0.15150    1.000
    N8       N        0.80560    0.58550    0.15140    1.000
    N9       N        0.53820    0.96440    0.33530    1.000
    N10      N        0.57610    0.01750    0.52180    1.000
    N11      N        0.09270    0.73270    0.65150    1.000
    N12      N        0.30560    0.91450    0.65140    1.000
    N13      N        0.46180    0.03560    0.83530    1.000
    N14      N        0.42390    0.98250    0.02180    1.000
    N15      N        0.90730    0.26730    0.15150    1.000
    N16      N        0.69440    0.08550    0.15140    1.000
    O1       O        0.83780    0.34430    0.65000    1.000
    O2       O        0.91690    0.20570    0.53470    1.000
    O3       O        0.16220    0.65570    0.15000    1.000
    O4       O        0.08310    0.79430    0.03470    1.000
    O5       O        0.66220    0.84430    0.65000    1.000
    O6       O        0.58310    0.70570    0.53470    1.000
    O7       O        0.33780    0.15570    0.15000    1.000
    O8       O        0.41690    0.29430    0.03470    1.000
