# CIF file generated by openbabel 3.1.0, see https://openbabel.org
data_I
_chemical_name_common 'image0'
_cell_length_a 10.6489
_cell_length_b 10.8857
_cell_length_c 11.0782
_cell_angle_alpha 84.005
_cell_angle_beta 89.826
_cell_angle_gamma 63.605
_space_group_name_H-M_alt 'P 1'
_space_group_name_Hall 'P 1'
loop_
    _symmetry_equiv_pos_as_xyz
    x,y,z
loop_
    _atom_site_label
    _atom_site_type_symbol
    _atom_site_fract_x
    _atom_site_fract_y
    _atom_site_fract_z
    _atom_site_occupancy
    Co1      Co       0.09720    0.88790    0.25445    1.000
    Co2      Co       0.96140    0.87220    0.00024    1.000
    Co3      Co       0.84380    0.02720    0.47758    1.000
    O1       O        0.10590    0.91740    0.06950    1.000
    H1       H        0.20710    0.87200    0.07620    1.000
    O2       O        0.05110    0.89550    0.42930    1.000
    H2       H        0.07160    0.80880    0.47630    1.000
    O3       O        0.35500    0.88760    0.45860    1.000
    O4       O        0.32000    0.80000    0.29530    1.000
    O5       O        0.03890    0.67150    0.07250    1.000
    O6       O        0.11200    0.69310    0.25740    1.000
    N1       N        0.81860    0.92720    0.13260    1.000
    N2       N        0.86630    0.95960    0.23000    1.000
    N3       N        0.79120    0.95780    0.32580    1.000
    N4       N        0.08700    0.16900    0.16570    1.000
    N5       N        0.10010    0.07830    0.26080    1.000
    N6       N        0.11310    0.11930    0.36650    1.000
    C1       C        0.68940    0.92370    0.29060    1.000
    C2       C        0.70690    0.90450    0.16670    1.000
    C3       C        0.51300    0.85230    0.16690    1.000
    H3       H        0.45210    0.82900    0.12600    1.000
    C4       C        0.61900    0.86730    0.10450    1.000
    H4       H        0.63040    0.85290    0.02310    1.000
    C5       C        0.49600    0.87130    0.29080    1.000
    C6       C        0.58630    0.90490    0.35410    1.000
    H5       H        0.57780    0.91450    0.43650    1.000
    C7       C        0.38200    0.85140    0.35280    1.000
    C8       C        0.09210    0.27880    0.21240    1.000
    C9       C        0.10830    0.24630    0.33870    1.000
    C10      C        0.11730    0.33540    0.41510    1.000
    H6       H        0.12880    0.31320    0.49900    1.000
    C11      C        0.10850    0.45850    0.35990    1.000
    H7       H        0.11330    0.52140    0.40810    1.000
    C12      C        0.09250    0.49150    0.23500    1.000
    C13      C        0.08380    0.40290    0.15810    1.000
    H8       H        0.07300    0.42560    0.07420    1.000
    C14      C        0.08400    0.62890    0.18260    1.000
    Co4      Co       0.90280    0.11210    0.74555    1.000
    Co5      Co       0.03860    0.12780    0.99976    1.000
    Co6      Co       0.15620    0.97280    0.52242    1.000
    O7       O        0.89410    0.08260    0.93050    1.000
    H9       H        0.79290    0.12800    0.92380    1.000
    O8       O        0.94890    0.10450    0.57070    1.000
    H10      H        0.92840    0.19120    0.52370    1.000
    O9       O        0.64500    0.11240    0.54140    1.000
    O10      O        0.68000    0.20000    0.70470    1.000
    O11      O        0.96110    0.32850    0.92750    1.000
    O12      O        0.88800    0.30690    0.74260    1.000
    N7       N        0.18140    0.07280    0.86740    1.000
    N8       N        0.13370    0.04040    0.77000    1.000
    N9       N        0.20880    0.04220    0.67420    1.000
    N10      N        0.91300    0.83100    0.83430    1.000
    N11      N        0.89990    0.92170    0.73920    1.000
    N12      N        0.88690    0.88070    0.63350    1.000
    C15      C        0.31060    0.07630    0.70940    1.000
    C16      C        0.29310    0.09550    0.83330    1.000
    C17      C        0.48700    0.14770    0.83310    1.000
    H11      H        0.54790    0.17100    0.87400    1.000
    C18      C        0.38100    0.13270    0.89550    1.000
    H12      H        0.36960    0.14710    0.97690    1.000
    C19      C        0.50400    0.12870    0.70920    1.000
    C20      C        0.41370    0.09510    0.64590    1.000
    H13      H        0.42220    0.08550    0.56350    1.000
    C21      C        0.61800    0.14860    0.64720    1.000
    C22      C        0.90790    0.72120    0.78760    1.000
    C23      C        0.89170    0.75370    0.66130    1.000
    C24      C        0.88270    0.66460    0.58490    1.000
    H14      H        0.87120    0.68680    0.50100    1.000
    C25      C        0.89150    0.54150    0.64010    1.000
    H15      H        0.88670    0.47860    0.59190    1.000
    C26      C        0.90750    0.50850    0.76500    1.000
    C27      C        0.91620    0.59710    0.84190    1.000
    H16      H        0.92700    0.57440    0.92580    1.000
    C28      C        0.91600    0.37110    0.81740    1.000
