# CIF file generated by openbabel 3.1.0, see https://openbabel.org
data_I
_chemical_name_common 'LOFVUY01_clean'
_cell_length_a 13.102
_cell_length_b 26.104
_cell_length_c 26.279
_cell_angle_alpha 90
_cell_angle_beta 90
_cell_angle_gamma 93.923
_space_group_name_H-M_alt 'P 1'
_space_group_name_Hall 'P 1'
loop_
    _symmetry_equiv_pos_as_xyz
    x,y,z
loop_
    _atom_site_label
    _atom_site_type_symbol
    _atom_site_fract_x
    _atom_site_fract_y
    _atom_site_fract_z
    _atom_site_occupancy
    Tb1      Tb       0.52725    0.61657    0.70990    1.000
    Tb2      Tb       0.52725    0.11657    0.79010    1.000
    V1       V        0.86110    0.69547    0.20393    1.000
    V2       V        0.87890    0.57119    0.19339    1.000
    V3       V        0.06820    0.65140    0.15427    1.000
    V4       V        0.08570    0.58174    0.24451    1.000
    V5       V        0.06740    0.70540    0.25567    1.000
    V6       V        0.87890    0.62510    0.29492    1.000
    V7       V        0.86110    0.19547    0.29607    1.000
    V8       V        0.87890    0.07119    0.30661    1.000
    V9       V        0.06820    0.15140    0.34573    1.000
    V10      V        0.08570    0.08174    0.25549    1.000
    V11      V        0.06740    0.20540    0.24433    1.000
    V12      V        0.87890    0.12510    0.20508    1.000
    H1       H        0.97720    0.67070    0.39010    1.000
    H2       H        0.06810    0.71030    0.37110    1.000
    H3       H        0.22610    0.67620    0.33530    1.000
    H4       H        0.23380    0.61560    0.32780    1.000
    H5       H        0.09250    0.55450    0.36140    1.000
    H6       H        0.99180    0.57810    0.38420    1.000
    H7       H        0.14140    0.69370    0.44030    1.000
    H8       H        0.23890    0.68070    0.40770    1.000
    H9       H        0.88260    0.56260    0.07700    1.000
    H10      H        0.97130    0.60360    0.05820    1.000
    H11      H        0.94910    0.69980    0.06710    1.000
    H12      H        0.84700    0.71800    0.09270    1.000
    H13      H        0.71230    0.65740    0.11840    1.000
    H14      H        0.72090    0.59670    0.11540    1.000
    H15      H        0.76390    0.70400    0.01480    1.000
    H16      H        0.67130    0.66530    0.03420    1.000
    H17      H        0.76300    0.72330    0.93170    1.000
    H18      H        0.71760    0.70940    0.84540    1.000
    H19      H        0.59380    0.56160    0.87750    1.000
    H20      H        0.64540    0.58350    0.96040    1.000
    H21      H        0.46100    0.61090    0.52190    1.000
    H22      H        0.37250    0.63440    0.44640    1.000
    H23      H        0.14940    0.68850    0.53480    1.000
    H24      H        0.23480    0.66650    0.61070    1.000
    H25      H        0.41300    0.23430    0.82030    1.000
    H26      H        0.38570    0.31580    0.79390    1.000
    H27      H        0.68770    0.34330    0.76990    1.000
    H28      H        0.71080    0.26080    0.79470    1.000
    H29      H        0.63350    0.50230    0.73120    1.000
    H30      H        0.66010    0.41910    0.76590    1.000
    H31      H        0.36120    0.38070    0.75030    1.000
    H32      H        0.33370    0.45950    0.72250    1.000
    H33      H        0.28600    0.69490    0.73730    1.000
    H34      H        0.11180    0.68540    0.72590    1.000
    H35      H        0.11370    0.53520    0.75910    1.000
    H36      H        0.28610    0.54800    0.77270    1.000
    H37      H        0.77720    0.66730    0.72150    1.000
    H38      H        0.94860    0.67510    0.74770    1.000
    H39      H        0.97620    0.53170    0.70440    1.000
    H40      H        0.80910    0.52470    0.67590    1.000
    H41      H        0.13710    0.60010    0.43790    1.000
    H42      H        0.82120    0.61310    0.00900    1.000
    H43      H        0.97720    0.17070    0.10990    1.000
    H44      H        0.06810    0.21030    0.12890    1.000
    H45      H        0.22610    0.17620    0.16470    1.000
    H46      H        0.23380    0.11560    0.17220    1.000
    H47      H        0.09250    0.05450    0.13860    1.000
    H48      H        0.99180    0.07810    0.11580    1.000
    H49      H        0.14140    0.19370    0.05970    1.000
    H50      H        0.23890    0.18070    0.09230    1.000
    H51      H        0.88260    0.06260    0.42300    1.000
    H52      H        0.97130    0.10360    0.44180    1.000
    H53      H        0.94910    0.19980    0.43290    1.000
    H54      H        0.84700    0.21800    0.40730    1.000
    H55      H        0.71230    0.15740    0.38160    1.000
    H56      H        0.72090    0.09670    0.38460    1.000
    H57      H        0.76390    0.20400    0.48520    1.000
    H58      H        0.67130    0.16530    0.46580    1.000
    H59      H        0.76300    0.22330    0.56830    1.000
    H60      H        0.71760    0.20940    0.65460    1.000
    H61      H        0.59380    0.06160    0.62250    1.000
    H62      H        0.64540    0.08350    0.53960    1.000
    H63      H        0.46100    0.11090    0.97810    1.000
    H64      H        0.37250    0.13440    0.05360    1.000
    H65      H        0.14940    0.18850    0.96520    1.000
    H66      H        0.23480    0.16650    0.88930    1.000
    H67      H        0.41300    0.73430    0.67970    1.000
    H68      H        0.38570    0.81580    0.70610    1.000
    H69      H        0.68770    0.84330    0.73010    1.000
    H70      H        0.71080    0.76080    0.70530    1.000
    H71      H        0.63350    0.00230    0.76880    1.000
    H72      H        0.66010    0.91910    0.73410    1.000
    H73      H        0.36120    0.88070    0.74970    1.000
    H74      H        0.33370    0.95950    0.77750    1.000
    H75      H        0.28600    0.19490    0.76270    1.000
    H76      H        0.11180    0.18540    0.77410    1.000
    H77      H        0.11370    0.03520    0.74090    1.000
    H78      H        0.28610    0.04800    0.72730    1.000
    H79      H        0.77720    0.16730    0.77850    1.000
    H80      H        0.94860    0.17510    0.75230    1.000
    H81      H        0.97620    0.03170    0.79560    1.000
    H82      H        0.80910    0.02470    0.82410    1.000
    H83      H        0.13710    0.10010    0.06210    1.000
    H84      H        0.82120    0.11310    0.49100    1.000
    C1       C        0.02900    0.67740    0.36320    1.000
    C2       C        0.18680    0.64370    0.32620    1.000
    C3       C        0.10300    0.63360    0.36270    1.000
    C4       C        0.04550    0.58240    0.35770    1.000
    C5       C        0.19200    0.66770    0.43490    1.000
    C6       C        0.91900    0.59630    0.08470    1.000
    C7       C        0.89830    0.69190    0.09430    1.000
    C8       C        0.84300    0.63750    0.08400    1.000
    C9       C        0.75990    0.62980    0.12230    1.000
    C10      C        0.73400    0.66800    0.01300    1.000
    C11      C        0.70900    0.65300    0.95900    1.000
    C12      C        0.73000    0.69100    0.92180    1.000
    C13      C        0.70300    0.68350    0.87020    1.000
    C14      C        0.65400    0.63640    0.85680    1.000
    C15      C        0.62700    0.59400    0.88700    1.000
    C16      C        0.66000    0.61000    0.93600    1.000
    C17      C        0.61760    0.63060    0.80480    1.000
    C18      C        0.41300    0.62340    0.62080    1.000
    C19      C        0.35900    0.63570    0.57310    1.000
    C20      C        0.39800    0.62670    0.52480    1.000
    C21      C        0.34500    0.64080    0.47910    1.000
    C22      C        0.25500    0.66370    0.48440    1.000
    C23      C        0.21300    0.67300    0.53270    1.000
    C24      C        0.26300    0.65980    0.57830    1.000
    C25      C        0.46910    0.25680    0.80980    1.000
    C26      C        0.45340    0.30500    0.79400    1.000
    C27      C        0.53010    0.33800    0.77860    1.000
    C28      C        0.63080    0.32100    0.77970    1.000
    C29      C        0.64400    0.27270    0.79500    1.000
    C30      C        0.51580    0.39220    0.76220    1.000
    C31      C        0.57740    0.47780    0.73610    1.000
    C32      C        0.59310    0.42720    0.75650    1.000
    C33      C        0.41730    0.40560    0.74770    1.000
    C34      C        0.40160    0.45170    0.73060    1.000
    C35      C        0.24940    0.66290    0.74370    1.000
    C36      C        0.14720    0.65630    0.73520    1.000
    C37      C        0.09210    0.61010    0.73940    1.000
    C38      C        0.14710    0.56840    0.75500    1.000
    C39      C        0.24820    0.57650    0.76410    1.000
    C40      C        0.81880    0.63920    0.71750    1.000
    C41      C        0.92040    0.64400    0.73290    1.000
    C42      C        0.97950    0.60270    0.72620    1.000
    C43      C        0.93640    0.56070    0.70730    1.000
    C44      C        0.83670    0.55570    0.69110    1.000
    C45      C        0.02900    0.17740    0.13680    1.000
    C46      C        0.18680    0.14370    0.17380    1.000
    C47      C        0.10300    0.13360    0.13730    1.000
    C48      C        0.04550    0.08240    0.14230    1.000
    C49      C        0.19200    0.16770    0.06510    1.000
    C50      C        0.91900    0.09630    0.41530    1.000
    C51      C        0.89830    0.19190    0.40570    1.000
    C52      C        0.84300    0.13750    0.41600    1.000
    C53      C        0.75990    0.12980    0.37770    1.000
    C54      C        0.73400    0.16800    0.48700    1.000
    C55      C        0.70900    0.15300    0.54100    1.000
    C56      C        0.73000    0.19100    0.57820    1.000
    C57      C        0.70300    0.18350    0.62980    1.000
    C58      C        0.65400    0.13640    0.64320    1.000
    C59      C        0.62700    0.09400    0.61300    1.000
    C60      C        0.66000    0.11000    0.56400    1.000
    C61      C        0.61760    0.13060    0.69520    1.000
    C62      C        0.41300    0.12340    0.87920    1.000
    C63      C        0.35900    0.13570    0.92690    1.000
    C64      C        0.39800    0.12670    0.97520    1.000
    C65      C        0.34500    0.14080    0.02090    1.000
    C66      C        0.25500    0.16370    0.01560    1.000
    C67      C        0.21300    0.17300    0.96730    1.000
    C68      C        0.26300    0.15980    0.92170    1.000
    C69      C        0.46910    0.75680    0.69020    1.000
    C70      C        0.45340    0.80500    0.70600    1.000
    C71      C        0.53010    0.83800    0.72140    1.000
    C72      C        0.63080    0.82100    0.72030    1.000
    C73      C        0.64400    0.77270    0.70500    1.000
    C74      C        0.51580    0.89220    0.73780    1.000
    C75      C        0.57740    0.97780    0.76390    1.000
    C76      C        0.59310    0.92720    0.74350    1.000
    C77      C        0.41730    0.90560    0.75230    1.000
    C78      C        0.40160    0.95170    0.76940    1.000
    C79      C        0.24940    0.16290    0.75630    1.000
    C80      C        0.14720    0.15630    0.76480    1.000
    C81      C        0.09210    0.11010    0.76060    1.000
    C82      C        0.14710    0.06840    0.74500    1.000
    C83      C        0.24820    0.07650    0.73590    1.000
    C84      C        0.81880    0.13920    0.78250    1.000
    C85      C        0.92040    0.14400    0.76710    1.000
    C86      C        0.97950    0.10270    0.77380    1.000
    C87      C        0.93640    0.06070    0.79270    1.000
    C88      C        0.83670    0.05570    0.80890    1.000
    N1       N        0.14600    0.62830    0.41960    1.000
    N2       N        0.80000    0.63640    0.03010    1.000
    N3       N        0.77930    0.59580    0.69730    1.000
    N4       N        0.56550    0.24090    0.81060    1.000
    N5       N        0.29700    0.62260    0.76140    1.000
    N6       N        0.48020    0.48930    0.72410    1.000
    N7       N        0.14600    0.12830    0.08040    1.000
    N8       N        0.80000    0.13640    0.46990    1.000
    N9       N        0.77930    0.09580    0.80270    1.000
    N10      N        0.56550    0.74090    0.68940    1.000
    N11      N        0.29700    0.12260    0.73860    1.000
    N12      N        0.48020    0.98930    0.77590    1.000
    O1       O        0.98020    0.68130    0.31580    1.000
    O2       O        0.99890    0.58140    0.30610    1.000
    O3       O        0.14760    0.64730    0.27670    1.000
    O4       O        0.80170    0.67180    0.26360    1.000
    O5       O        0.95420    0.73870    0.23470    1.000
    O6       O        0.82360    0.57080    0.25460    1.000
    O7       O        0.97410    0.63740    0.22450    1.000
    O8       O        0.12370    0.70490    0.19380    1.000
    O9       O        0.99270    0.53840    0.21350    1.000
    O10      O        0.14220    0.60440    0.18590    1.000
    O11      O        0.79680    0.62980    0.17390    1.000
    O12      O        0.94920    0.69580    0.14270    1.000
    O13      O        0.96550    0.59440    0.13260    1.000
    O14      O        0.61090    0.66660    0.77440    1.000
    O15      O        0.59600    0.58340    0.78690    1.000
    O16      O        0.37700    0.63570    0.66380    1.000
    O17      O        0.49950    0.60470    0.61840    1.000
    O18      O        0.68250    0.59110    0.68190    1.000
    O19      O        0.58230    0.19510    0.82930    1.000
    O20      O        0.39920    0.62860    0.77050    1.000
    O21      O        0.46110    0.53300    0.70330    1.000
    O22      O        0.98020    0.18130    0.18420    1.000
    O23      O        0.99890    0.08140    0.19390    1.000
    O24      O        0.14760    0.14730    0.22330    1.000
    O25      O        0.80170    0.17180    0.23640    1.000
    O26      O        0.95420    0.23870    0.26530    1.000
    O27      O        0.82360    0.07080    0.24540    1.000
    O28      O        0.97410    0.13740    0.27550    1.000
    O29      O        0.12370    0.20490    0.30620    1.000
    O30      O        0.99270    0.03840    0.28650    1.000
    O31      O        0.14220    0.10440    0.31410    1.000
    O32      O        0.79680    0.12980    0.32610    1.000
    O33      O        0.94920    0.19580    0.35730    1.000
    O34      O        0.96550    0.09440    0.36740    1.000
    O35      O        0.61090    0.16660    0.72560    1.000
    O36      O        0.59600    0.08340    0.71310    1.000
    O37      O        0.37700    0.13570    0.83620    1.000
    O38      O        0.49950    0.10470    0.88160    1.000
    O39      O        0.68250    0.09110    0.81810    1.000
    O40      O        0.58230    0.69510    0.67070    1.000
    O41      O        0.39920    0.12860    0.72950    1.000
    O42      O        0.46110    0.03300    0.79670    1.000
    Tb3      Tb       0.47275    0.88343    0.20990    1.000
    Tb4      Tb       0.47275    0.38343    0.29010    1.000
    V13      V        0.13890    0.80453    0.70393    1.000
    V14      V        0.12110    0.92881    0.69339    1.000
    V15      V        0.93180    0.84860    0.65427    1.000
    V16      V        0.91430    0.91826    0.74451    1.000
    V17      V        0.93260    0.79460    0.75567    1.000
    V18      V        0.12110    0.87490    0.79492    1.000
    V19      V        0.13890    0.30453    0.79607    1.000
    V20      V        0.12110    0.42881    0.80661    1.000
    V21      V        0.93180    0.34860    0.84573    1.000
    V22      V        0.91430    0.41826    0.75549    1.000
    V23      V        0.93260    0.29460    0.74433    1.000
    V24      V        0.12110    0.37490    0.70508    1.000
    H85      H        0.02280    0.82930    0.89010    1.000
    H86      H        0.93190    0.78970    0.87110    1.000
    H87      H        0.77390    0.82380    0.83530    1.000
    H88      H        0.76620    0.88440    0.82780    1.000
    H89      H        0.90750    0.94550    0.86140    1.000
    H90      H        0.00820    0.92190    0.88420    1.000
    H91      H        0.85860    0.80630    0.94030    1.000
    H92      H        0.76110    0.81930    0.90770    1.000
    H93      H        0.11740    0.93740    0.57700    1.000
    H94      H        0.02870    0.89640    0.55820    1.000
    H95      H        0.05090    0.80020    0.56710    1.000
    H96      H        0.15300    0.78200    0.59270    1.000
    H97      H        0.28770    0.84260    0.61840    1.000
    H98      H        0.27910    0.90330    0.61540    1.000
    H99      H        0.23610    0.79600    0.51480    1.000
    H100     H        0.32870    0.83470    0.53420    1.000
    H101     H        0.23700    0.77670    0.43170    1.000
    H102     H        0.28240    0.79060    0.34540    1.000
    H103     H        0.40620    0.93840    0.37750    1.000
    H104     H        0.35460    0.91650    0.46040    1.000
    H105     H        0.53900    0.88910    0.02190    1.000
    H106     H        0.62750    0.86560    0.94640    1.000
    H107     H        0.85060    0.81150    0.03480    1.000
    H108     H        0.76520    0.83350    0.11070    1.000
    H109     H        0.58700    0.26570    0.32030    1.000
    H110     H        0.61430    0.18420    0.29390    1.000
    H111     H        0.31230    0.15670    0.26990    1.000
    H112     H        0.28920    0.23920    0.29470    1.000
    H113     H        0.36650    0.99770    0.23120    1.000
    H114     H        0.33990    0.08090    0.26590    1.000
    H115     H        0.63880    0.11930    0.25030    1.000
    H116     H        0.66630    0.04050    0.22250    1.000
    H117     H        0.71400    0.80510    0.23730    1.000
    H118     H        0.88820    0.81460    0.22590    1.000
    H119     H        0.88630    0.96480    0.25910    1.000
    H120     H        0.71390    0.95200    0.27270    1.000
    H121     H        0.22280    0.83270    0.22150    1.000
    H122     H        0.05140    0.82490    0.24770    1.000
    H123     H        0.02380    0.96830    0.20440    1.000
    H124     H        0.19090    0.97530    0.17590    1.000
    H125     H        0.86290    0.89990    0.93790    1.000
    H126     H        0.17880    0.88690    0.50900    1.000
    H127     H        0.02280    0.32930    0.60990    1.000
    H128     H        0.93190    0.28970    0.62890    1.000
    H129     H        0.77390    0.32380    0.66470    1.000
    H130     H        0.76620    0.38440    0.67220    1.000
    H131     H        0.90750    0.44550    0.63860    1.000
    H132     H        0.00820    0.42190    0.61580    1.000
    H133     H        0.85860    0.30630    0.55970    1.000
    H134     H        0.76110    0.31930    0.59230    1.000
    H135     H        0.11740    0.43740    0.92300    1.000
    H136     H        0.02870    0.39640    0.94180    1.000
    H137     H        0.05090    0.30020    0.93290    1.000
    H138     H        0.15300    0.28200    0.90730    1.000
    H139     H        0.28770    0.34260    0.88160    1.000
    H140     H        0.27910    0.40330    0.88460    1.000
    H141     H        0.23610    0.29600    0.98520    1.000
    H142     H        0.32870    0.33470    0.96580    1.000
    H143     H        0.23700    0.27670    0.06830    1.000
    H144     H        0.28240    0.29060    0.15460    1.000
    H145     H        0.40620    0.43840    0.12250    1.000
    H146     H        0.35460    0.41650    0.03960    1.000
    H147     H        0.53900    0.38910    0.47810    1.000
    H148     H        0.62750    0.36560    0.55360    1.000
    H149     H        0.85060    0.31150    0.46520    1.000
    H150     H        0.76520    0.33350    0.38930    1.000
    H151     H        0.58700    0.76570    0.17970    1.000
    H152     H        0.61430    0.68420    0.20610    1.000
    H153     H        0.31230    0.65670    0.23010    1.000
    H154     H        0.28920    0.73920    0.20530    1.000
    H155     H        0.36650    0.49770    0.26880    1.000
    H156     H        0.33990    0.58090    0.23410    1.000
    H157     H        0.63880    0.61930    0.24970    1.000
    H158     H        0.66630    0.54050    0.27750    1.000
    H159     H        0.71400    0.30510    0.26270    1.000
    H160     H        0.88820    0.31460    0.27410    1.000
    H161     H        0.88630    0.46480    0.24090    1.000
    H162     H        0.71390    0.45200    0.22730    1.000
    H163     H        0.22280    0.33270    0.27850    1.000
    H164     H        0.05140    0.32490    0.25230    1.000
    H165     H        0.02380    0.46830    0.29560    1.000
    H166     H        0.19090    0.47530    0.32410    1.000
    H167     H        0.86290    0.39990    0.56210    1.000
    H168     H        0.17880    0.38690    0.99100    1.000
    C89      C        0.97100    0.82260    0.86320    1.000
    C90      C        0.81320    0.85630    0.82620    1.000
    C91      C        0.89700    0.86640    0.86270    1.000
    C92      C        0.95450    0.91760    0.85770    1.000
    C93      C        0.80800    0.83230    0.93490    1.000
    C94      C        0.08100    0.90370    0.58470    1.000
    C95      C        0.10170    0.80810    0.59430    1.000
    C96      C        0.15700    0.86250    0.58400    1.000
    C97      C        0.24010    0.87020    0.62230    1.000
    C98      C        0.26600    0.83200    0.51300    1.000
    C99      C        0.29100    0.84700    0.45900    1.000
    C100     C        0.27000    0.80900    0.42180    1.000
    C101     C        0.29700    0.81650    0.37020    1.000
    C102     C        0.34600    0.86360    0.35680    1.000
    C103     C        0.37300    0.90600    0.38700    1.000
    C104     C        0.34000    0.89000    0.43600    1.000
    C105     C        0.38240    0.86940    0.30480    1.000
    C106     C        0.58700    0.87660    0.12080    1.000
    C107     C        0.64100    0.86430    0.07310    1.000
    C108     C        0.60200    0.87330    0.02480    1.000
    C109     C        0.65500    0.85920    0.97910    1.000
    C110     C        0.74500    0.83630    0.98440    1.000
    C111     C        0.78700    0.82700    0.03270    1.000
    C112     C        0.73700    0.84020    0.07830    1.000
    C113     C        0.53090    0.24320    0.30980    1.000
    C114     C        0.54660    0.19500    0.29400    1.000
    C115     C        0.46990    0.16200    0.27860    1.000
    C116     C        0.36920    0.17900    0.27970    1.000
    C117     C        0.35600    0.22730    0.29500    1.000
    C118     C        0.48420    0.10780    0.26220    1.000
    C119     C        0.42260    0.02220    0.23610    1.000
    C120     C        0.40690    0.07280    0.25650    1.000
    C121     C        0.58270    0.09440    0.24770    1.000
    C122     C        0.59840    0.04830    0.23060    1.000
    C123     C        0.75060    0.83710    0.24370    1.000
    C124     C        0.85280    0.84370    0.23520    1.000
    C125     C        0.90790    0.88990    0.23940    1.000
    C126     C        0.85290    0.93160    0.25500    1.000
    C127     C        0.75180    0.92350    0.26410    1.000
    C128     C        0.18120    0.86080    0.21750    1.000
    C129     C        0.07960    0.85600    0.23290    1.000
    C130     C        0.02050    0.89730    0.22620    1.000
    C131     C        0.06360    0.93930    0.20730    1.000
    C132     C        0.16330    0.94430    0.19110    1.000
    C133     C        0.97100    0.32260    0.63680    1.000
    C134     C        0.81320    0.35630    0.67380    1.000
    C135     C        0.89700    0.36640    0.63730    1.000
    C136     C        0.95450    0.41760    0.64230    1.000
    C137     C        0.80800    0.33230    0.56510    1.000
    C138     C        0.08100    0.40370    0.91530    1.000
    C139     C        0.10170    0.30810    0.90570    1.000
    C140     C        0.15700    0.36250    0.91600    1.000
    C141     C        0.24010    0.37020    0.87770    1.000
    C142     C        0.26600    0.33200    0.98700    1.000
    C143     C        0.29100    0.34700    0.04100    1.000
    C144     C        0.27000    0.30900    0.07820    1.000
    C145     C        0.29700    0.31650    0.12980    1.000
    C146     C        0.34600    0.36360    0.14320    1.000
    C147     C        0.37300    0.40600    0.11300    1.000
    C148     C        0.34000    0.39000    0.06400    1.000
    C149     C        0.38240    0.36940    0.19520    1.000
    C150     C        0.58700    0.37660    0.37920    1.000
    C151     C        0.64100    0.36430    0.42690    1.000
    C152     C        0.60200    0.37330    0.47520    1.000
    C153     C        0.65500    0.35920    0.52090    1.000
    C154     C        0.74500    0.33630    0.51560    1.000
    C155     C        0.78700    0.32700    0.46730    1.000
    C156     C        0.73700    0.34020    0.42170    1.000
    C157     C        0.53090    0.74320    0.19020    1.000
    C158     C        0.54660    0.69500    0.20600    1.000
    C159     C        0.46990    0.66200    0.22140    1.000
    C160     C        0.36920    0.67900    0.22030    1.000
    C161     C        0.35600    0.72730    0.20500    1.000
    C162     C        0.48420    0.60780    0.23780    1.000
    C163     C        0.42260    0.52220    0.26390    1.000
    C164     C        0.40690    0.57280    0.24350    1.000
    C165     C        0.58270    0.59440    0.25230    1.000
    C166     C        0.59840    0.54830    0.26940    1.000
    C167     C        0.75060    0.33710    0.25630    1.000
    C168     C        0.85280    0.34370    0.26480    1.000
    C169     C        0.90790    0.38990    0.26060    1.000
    C170     C        0.85290    0.43160    0.24500    1.000
    C171     C        0.75180    0.42350    0.23590    1.000
    C172     C        0.18120    0.36080    0.28250    1.000
    C173     C        0.07960    0.35600    0.26710    1.000
    C174     C        0.02050    0.39730    0.27380    1.000
    C175     C        0.06360    0.43930    0.29270    1.000
    C176     C        0.16330    0.44430    0.30890    1.000
    N13      N        0.85400    0.87170    0.91960    1.000
    N14      N        0.20000    0.86360    0.53010    1.000
    N15      N        0.22070    0.90420    0.19730    1.000
    N16      N        0.43450    0.25910    0.31060    1.000
    N17      N        0.70300    0.87740    0.26140    1.000
    N18      N        0.51980    0.01070    0.22410    1.000
    N19      N        0.85400    0.37170    0.58040    1.000
    N20      N        0.20000    0.36360    0.96990    1.000
    N21      N        0.22070    0.40420    0.30270    1.000
    N22      N        0.43450    0.75910    0.18940    1.000
    N23      N        0.70300    0.37740    0.23860    1.000
    N24      N        0.51980    0.51070    0.27590    1.000
    O43      O        0.01980    0.81870    0.81580    1.000
    O44      O        0.00110    0.91860    0.80610    1.000
    O45      O        0.85240    0.85270    0.77670    1.000
    O46      O        0.19830    0.82820    0.76360    1.000
    O47      O        0.04580    0.76130    0.73470    1.000
    O48      O        0.17640    0.92920    0.75460    1.000
    O49      O        0.02590    0.86260    0.72450    1.000
    O50      O        0.87630    0.79510    0.69380    1.000
    O51      O        0.00730    0.96160    0.71350    1.000
    O52      O        0.85780    0.89560    0.68590    1.000
    O53      O        0.20320    0.87020    0.67390    1.000
    O54      O        0.05080    0.80420    0.64270    1.000
    O55      O        0.03450    0.90560    0.63260    1.000
    O56      O        0.38910    0.83340    0.27440    1.000
    O57      O        0.40400    0.91660    0.28690    1.000
    O58      O        0.62300    0.86430    0.16380    1.000
    O59      O        0.50050    0.89530    0.11840    1.000
    O60      O        0.31750    0.90890    0.18190    1.000
    O61      O        0.41770    0.30490    0.32930    1.000
    O62      O        0.60080    0.87140    0.27050    1.000
    O63      O        0.53890    0.96700    0.20330    1.000
    O64      O        0.01980    0.31870    0.68420    1.000
    O65      O        0.00110    0.41860    0.69390    1.000
    O66      O        0.85240    0.35270    0.72330    1.000
    O67      O        0.19830    0.32820    0.73640    1.000
    O68      O        0.04580    0.26130    0.76530    1.000
    O69      O        0.17640    0.42920    0.74540    1.000
    O70      O        0.02590    0.36260    0.77550    1.000
    O71      O        0.87630    0.29510    0.80620    1.000
    O72      O        0.00730    0.46160    0.78650    1.000
    O73      O        0.85780    0.39560    0.81410    1.000
    O74      O        0.20320    0.37020    0.82610    1.000
    O75      O        0.05080    0.30420    0.85730    1.000
    O76      O        0.03450    0.40560    0.86740    1.000
    O77      O        0.38910    0.33340    0.22560    1.000
    O78      O        0.40400    0.41660    0.21310    1.000
    O79      O        0.62300    0.36430    0.33620    1.000
    O80      O        0.50050    0.39530    0.38160    1.000
    O81      O        0.31750    0.40890    0.31810    1.000
    O82      O        0.41770    0.80490    0.17070    1.000
    O83      O        0.60080    0.37140    0.22950    1.000
    O84      O        0.53890    0.46700    0.29670    1.000
