data_functionalizedCrystal
_audit_creation_method	'EQeq! by Chris Wilmer'
_symmetry_space_group_name_H-M	'P1'
_symmetry_Int_Tables_number	1
_symmetry_cell_setting	triclinic
loop_
_symmetry_equiv_pos_as_xyz
  x,y,z
_cell_length_a	11.4507
_cell_length_b	11.6026
_cell_length_c	13.2025
_cell_angle_alpha	65.36
_cell_angle_beta	71.368
_cell_angle_gamma	71.461
loop_
_atom_site_label
_atom_site_type_symbol
_atom_site_fract_x
_atom_site_fract_y
_atom_site_fract_z
_atom_site_charge
Mof_Cu	Cu	0.38203	0.75598	0.91122	0.826
Mof_Cu	Cu	0.53619	0.86368	0.49435	0.795
Mof_Cu	Cu	0.30981	0.95167	0.1976	0.817
Mof_H 	H 	0.8493	0.9522	0.0571	0.226
Mof_H 	H 	0.9804	0.8722	0.087	0.232
Mof_H 	H 	0.8737	0.8004	0.112	0.233
Mof_H 	H 	0.6752	0.8573	0.2647	0.083
Mof_H 	H 	0.412	0.5685	0.7984	0.085
Mof_H 	H 	0.7996	0.8546	0.5614	0.204
Mof_H 	H 	0.9066	0.9307	0.4846	0.225
Mof_H 	H 	0.7651	0.0051	0.4987	0.196
Mof_H 	H 	0.0845	0.8927	0.2051	0.011
Mof_H 	H 	0.0656	0.9014	0.3245	0.008
Mof_H 	H 	0.8545	0.1599	0.191	0.05
Mof_H 	H 	0.8812	0.3703	0.1039	-0.008
Mof_H 	H 	0.0786	0.412	0.0626	0.076
Mof_H 	H 	0.3124	0.2278	0.1814	0.006
Mof_H 	H 	0.3581	0.1742	0.0813	-0.024
Mof_H 	H 	0.4764	0.3421	0.7777	0.182
Mof_H 	H 	0.4065	0.2373	0.8771	0.188
Mof_H 	H 	0.3315	0.3566	0.793	0.198
Mof_H 	H 	0.1865	0.5009	0.188	0.217
Mof_H 	H 	0.3201	0.4276	0.2149	0.208
Mof_H 	H 	0.2915	0.5786	0.1529	0.196
Mof_C 	C 	0.8911	0.877	0.1103	-0.758
Mof_C 	C 	0.8441	0.8864	0.2263	0.262
Mof_C 	C 	0.9011	0.909	0.2913	-0.196
Mof_C 	C 	0.8122	0.9049	0.3939	0.253
Mof_C 	C 	0.8217	0.9256	0.4933	-0.737
Mof_C 	C 	0.0307	0.9374	0.257	-0.109
Mof_C 	C 	0.036	0.0775	0.2012	0.09
Mof_C 	C 	0.9338	0.1775	0.1741	-0.167
Mof_C 	C 	0.9496	0.3023	0.1224	0.048
Mof_C 	C 	0.0668	0.3272	0.0979	-0.163
Mof_C 	C 	0.1668	0.2249	0.1264	0.086
Mof_C 	C 	0.2983	0.2414	0.1083	-0.092
Mof_C 	C 	0.3987	0.3281	0.8324	-0.666
Mof_C 	C 	0.3701	0.4037	0.9092	0.233
Mof_C 	C 	0.3258	0.3713	0.0254	-0.207
Mof_C 	C 	0.3187	0.4808	0.0487	0.246
Mof_C 	C 	0.2754	0.4985	0.1611	-0.719
Mof_C 	C 	0.4808	0.8203	0.6522	-0.285
Mof_C 	C 	0.3994	0.9033	0.3098	-0.264
Mof_C 	C 	0.3487	0.8426	0.0109	-0.258
Mof_N 	N 	0.7062	0.8833	0.3911	-0.261
Mof_N 	N 	0.7293	0.8721	0.2878	-0.224
Mof_N 	N 	0.1517	0.1027	0.1774	-0.254
Mof_N 	N 	0.3855	0.5261	0.8693	-0.212
Mof_N 	N 	0.3542	0.5757	0.9539	-0.246
Mof_N 	N 	0.4451	0.7927	0.749	-0.2
Mof_N 	N 	0.4538	0.8773	0.3786	-0.213
Mof_N 	N 	0.3319	0.89	0.0769	-0.219
Mof_Cu	Cu	0.61797	0.24402	0.08878	0.827
Mof_Cu	Cu	0.46381	0.13632	0.50565	0.796
Mof_Cu	Cu	0.69019	0.04833	0.8024	0.818
Mof_H 	H 	0.1507	0.0478	0.9429	0.227
Mof_H 	H 	0.0196	0.1278	0.913	0.232
Mof_H 	H 	0.1263	0.1996	0.888	0.233
Mof_H 	H 	0.3248	0.1427	0.7353	0.083
Mof_H 	H 	0.588	0.4315	0.2016	0.085
Mof_H 	H 	0.2004	0.1454	0.4386	0.204
Mof_H 	H 	0.0934	0.0693	0.5154	0.225
Mof_H 	H 	0.2349	0.9949	0.5013	0.196
Mof_H 	H 	0.9155	0.1073	0.7949	0.011
Mof_H 	H 	0.9344	0.0986	0.6755	0.008
Mof_H 	H 	0.1455	0.8401	0.809	0.05
Mof_H 	H 	0.1188	0.6297	0.8961	-0.008
Mof_H 	H 	0.9214	0.588	0.9374	0.076
Mof_H 	H 	0.6876	0.7722	0.8186	0.006
Mof_H 	H 	0.6419	0.8258	0.9187	-0.024
Mof_H 	H 	0.5236	0.6579	0.2223	0.182
Mof_H 	H 	0.5935	0.7627	0.1229	0.188
Mof_H 	H 	0.6685	0.6434	0.207	0.198
Mof_H 	H 	0.8135	0.4991	0.812	0.217
Mof_H 	H 	0.6799	0.5724	0.7851	0.208
Mof_H 	H 	0.7085	0.4214	0.8471	0.196
Mof_C 	C 	0.1089	0.123	0.8897	-0.758
Mof_C 	C 	0.1559	0.1136	0.7737	0.262
Mof_C 	C 	0.0989	0.091	0.7087	-0.196
Mof_C 	C 	0.1878	0.0951	0.6061	0.253
Mof_C 	C 	0.1783	0.0744	0.5067	-0.737
Mof_C 	C 	0.9693	0.0626	0.743	-0.109
Mof_C 	C 	0.964	0.9225	0.7988	0.09
Mof_C 	C 	0.0662	0.8225	0.8259	-0.167
Mof_C 	C 	0.0504	0.6977	0.8776	0.048
Mof_C 	C 	0.9332	0.6728	0.9021	-0.163
Mof_C 	C 	0.8332	0.7751	0.8736	0.086
Mof_C 	C 	0.7017	0.7586	0.8917	-0.092
Mof_C 	C 	0.6013	0.6719	0.1676	-0.666
Mof_C 	C 	0.6299	0.5963	0.0908	0.233
Mof_C 	C 	0.6742	0.6287	0.9746	-0.207
Mof_C 	C 	0.6813	0.5192	0.9513	0.246
Mof_C 	C 	0.7246	0.5015	0.8389	-0.719
Mof_C 	C 	0.5192	0.1797	0.3478	-0.285
Mof_C 	C 	0.6006	0.0967	0.6902	-0.264
Mof_C 	C 	0.6513	0.1574	0.9891	-0.258
Mof_N 	N 	0.2938	0.1167	0.6089	-0.261
Mof_N 	N 	0.2707	0.1279	0.7122	-0.224
Mof_N 	N 	0.8483	0.8973	0.8226	-0.254
Mof_N 	N 	0.6145	0.4739	0.1307	-0.212
Mof_N 	N 	0.6458	0.4243	0.0461	-0.246
Mof_N 	N 	0.5549	0.2073	0.251	-0.2
Mof_N 	N 	0.5462	0.1227	0.6214	-0.213
Mof_N 	N 	0.6681	0.11	0.9231	-0.219
_end
