# CIF file generated by openbabel 3.1.0, see https://openbabel.org
data_I
_chemical_name_common 'image0'
_cell_length_a 5.616
_cell_length_b 15.431
_cell_length_c 9.445
_cell_angle_alpha 90
_cell_angle_beta 91.72
_cell_angle_gamma 90
_space_group_name_H-M_alt 'P 1'
_space_group_name_Hall 'P 1'
loop_
    _symmetry_equiv_pos_as_xyz
    x,y,z
loop_
    _atom_site_label
    _atom_site_type_symbol
    _atom_site_fract_x
    _atom_site_fract_y
    _atom_site_fract_z
    _atom_site_occupancy
    Mn1      Mn       0.21529    0.66826    0.55653    1.000
    P1       P        0.70743    0.69725    0.35161    1.000
    H1       H        0.70993    0.60400    0.34803    1.000
    O1       O        0.66300    0.72749    0.19952    1.000
    O2       O        0.50690    0.72322    0.44733    1.000
    O3       O        0.95370    0.72566    0.40694    1.000
    O4       O        0.23450    0.55257    0.41746    1.000
    O5       O        0.06740    0.42317    0.37042    1.000
    C1       C        0.08710    0.49322    0.43890    1.000
    Mn2      Mn       0.28471    0.16826    0.94347    1.000
    P2       P        0.79257    0.19725    0.14839    1.000
    H2       H        0.79007    0.10400    0.15197    1.000
    O6       O        0.83700    0.22749    0.30048    1.000
    O7       O        0.99310    0.22322    0.05267    1.000
    O8       O        0.54630    0.22566    0.09306    1.000
    O9       O        0.26550    0.05257    0.08254    1.000
    O10      O        0.43260    0.92317    0.12958    1.000
    C2       C        0.41290    0.99322    0.06110    1.000
    Mn3      Mn       0.78471    0.33174    0.44347    1.000
    P3       P        0.29257    0.30275    0.64839    1.000
    H3       H        0.29007    0.39600    0.65197    1.000
    O11      O        0.33700    0.27251    0.80048    1.000
    O12      O        0.49310    0.27678    0.55267    1.000
    O13      O        0.04630    0.27434    0.59306    1.000
    O14      O        0.76550    0.44743    0.58254    1.000
    O15      O        0.93260    0.57683    0.62958    1.000
    C3       C        0.91290    0.50678    0.56110    1.000
    Mn4      Mn       0.71529    0.83174    0.05653    1.000
    P4       P        0.20743    0.80275    0.85161    1.000
    H4       H        0.20993    0.89600    0.84803    1.000
    O16      O        0.16300    0.77251    0.69952    1.000
    O17      O        0.00690    0.77678    0.94733    1.000
    O18      O        0.45370    0.77434    0.90694    1.000
    O19      O        0.73450    0.94743    0.91746    1.000
    O20      O        0.56740    0.07683    0.87042    1.000
    C4       C        0.58710    0.00678    0.93890    1.000
