data_functionalizedCrystal
_audit_creation_method	'EQeq! by Chris Wilmer'
_symmetry_space_group_name_H-M	'P1'
_symmetry_Int_Tables_number	1
_symmetry_cell_setting	triclinic
loop_
_symmetry_equiv_pos_as_xyz
  x,y,z
_cell_length_a	23.0194
_cell_length_b	23.0194
_cell_length_c	12.7354
_cell_angle_alpha	90
_cell_angle_beta	90
_cell_angle_gamma	120
loop_
_atom_site_label
_atom_site_type_symbol
_atom_site_fract_x
_atom_site_fract_y
_atom_site_fract_z
_atom_site_charge
Mof_C 	C 	0.896	0.2428	0.4448	0.402
Mof_C 	C 	0.9345	0.255	0.3449	-0.143
Mof_C 	C 	0.78	0.3108	0.6155	0.42
Mof_C 	C 	0.72056	0.32092	0.6094	-0.196
Mof_C 	C 	0.6561	0.2677	0.6077	0.13
Mof_H 	H 	0.6485	0.2241	0.6054	-0.021
Mof_C 	C 	0.9921	0.4168	0.5406	0.036
Mof_H 	H 	0.953	0.4089	0.5068	-0.004
Mof_C 	C 	0.0492	0.4307	0.4791	-0.054
Mof_H 	H 	0.0467	0.4286	0.4062	0.016
Mof_C 	C 	0.107	0.447	0.5292	-0.072
Mof_H 	H 	0.1453	0.4588	0.4897	0.056
Mof_C 	C 	0.1109	0.4469	0.6397	0.041
Mof_C 	C 	0.0512	0.4299	0.697	0.009
Mof_C 	C 	0.169	0.4623	0.6948	-0.061
Mof_H 	H 	0.2081	0.4726	0.6585	0.068
Mof_C 	C 	0.0046	0.2832	0.3442	0.076
Mof_H 	H 	0.0279	0.292	0.4072	0.038
Mof_Co	Co	0.84542	0.23688	0.62146	1.237
Mof_N 	N 	0.99277	0.41458	0.6437	-0.241
Mof_H 	H 	0.8686	0.2679	0.8021	-0.151
Mof_O 	O 	0.9273	0.26145	0.5281	-0.421
Mof_O 	O 	0.83743	0.21397	0.4489	-0.398
Mof_O 	O 	0.76678	0.25019	0.6139	-0.462
Mof_O 	O 	0.83646	0.35869	0.6285	-0.505
Mof_O 	O 	0.14299	0.34168	0.3383	-0.448
Mof_O 	O 	0.9268	0.4751	0.777	1.033
Mof_H 	H 	0.9403	0.5015	0.7242	-1.163
Mof_H 	H 	0.8895	0.4701	0.7979	-0.79
Mof_H 	H 	0.8743	0.2669	0.8058	-0.116
Mof_O 	O 	0.8968	0.4736	0.768	-0.332
Mof_H 	H 	0.8806	0.4711	0.829	0.716
Mof_C 	C 	0.7572	0.6532	0.4448	0.403
Mof_C 	C 	0.745	0.6795	0.3449	-0.143
Mof_C 	C 	0.6892	0.4692	0.6155	0.42
Mof_C 	C 	0.67908	0.39964	0.6094	-0.196
Mof_C 	C 	0.7323	0.3884	0.6077	0.13
Mof_H 	H 	0.7759	0.4244	0.6054	-0.021
Mof_C 	C 	0.5832	0.5753	0.5406	0.036
Mof_H 	H 	0.5911	0.5441	0.5068	-0.004
Mof_C 	C 	0.5693	0.6185	0.4791	-0.054
Mof_H 	H 	0.5714	0.6181	0.4062	0.017
Mof_C 	C 	0.553	0.66	0.5292	-0.071
Mof_H 	H 	0.5412	0.6865	0.4897	0.056
Mof_C 	C 	0.5531	0.664	0.6397	0.041
Mof_C 	C 	0.5701	0.6213	0.697	0.009
Mof_C 	C 	0.5377	0.7067	0.6948	-0.06
Mof_H 	H 	0.5274	0.7355	0.6585	0.068
Mof_C 	C 	0.7168	0.7214	0.3442	0.076
Mof_H 	H 	0.708	0.7359	0.4072	0.037
Mof_Co	Co	0.76312	0.60854	0.62146	1.237
Mof_N 	N 	0.58542	0.57819	0.6437	-0.241
Mof_H 	H 	0.7321	0.6007	0.8021	-0.151
Mof_O 	O 	0.73855	0.66585	0.5281	-0.421
Mof_O 	O 	0.78603	0.62346	0.4489	-0.398
Mof_O 	O 	0.74981	0.51659	0.6139	-0.462
Mof_O 	O 	0.64131	0.47777	0.6285	-0.505
Mof_O 	O 	0.65832	0.80131	0.3383	-0.448
Mof_O 	O 	0.5249	0.4517	0.777	1.033
Mof_H 	H 	0.4985	0.4388	0.7242	-1.163
Mof_H 	H 	0.5299	0.4194	0.7979	-0.791
Mof_H 	H 	0.7331	0.6074	0.8058	-0.116
Mof_O 	O 	0.5264	0.4232	0.768	-0.332
Mof_H 	H 	0.5289	0.4095	0.829	0.716
Mof_C 	C 	0.3468	0.104	0.4448	0.403
Mof_C 	C 	0.3205	0.0655	0.3449	-0.142
Mof_C 	C 	0.5308	0.22	0.6155	0.42
Mof_C 	C 	0.60036	0.27944	0.6094	-0.196
Mof_C 	C 	0.6116	0.3439	0.6077	0.13
Mof_H 	H 	0.5756	0.3515	0.6054	-0.021
Mof_C 	C 	0.4247	0.0079	0.5406	0.036
Mof_H 	H 	0.4559	0.047	0.5068	-0.004
Mof_C 	C 	0.3815	0.9508	0.4791	-0.054
Mof_H 	H 	0.3819	0.9533	0.4062	0.016
Mof_C 	C 	0.34	0.893	0.5292	-0.072
Mof_H 	H 	0.3135	0.8547	0.4897	0.056
Mof_C 	C 	0.336	0.8891	0.6397	0.041
Mof_C 	C 	0.3787	0.9488	0.697	0.009
Mof_C 	C 	0.2933	0.831	0.6948	-0.061
Mof_H 	H 	0.2645	0.7919	0.6585	0.069
Mof_C 	C 	0.2786	0.9954	0.3442	0.075
Mof_H 	H 	0.2641	0.9721	0.4072	0.038
Mof_Co	Co	0.39146	0.15458	0.62146	1.237
Mof_N 	N 	0.42181	0.00723	0.6437	-0.241
Mof_H 	H 	0.3993	0.1314	0.8021	-0.151
Mof_O 	O 	0.33415	0.0727	0.5281	-0.421
Mof_O 	O 	0.37654	0.16257	0.4489	-0.398
Mof_O 	O 	0.48341	0.23322	0.6139	-0.462
Mof_O 	O 	0.52223	0.16354	0.6285	-0.505
Mof_O 	O 	0.19869	0.85701	0.3383	-0.448
Mof_O 	O 	0.5483	0.0732	0.777	1.033
Mof_H 	H 	0.5612	0.0597	0.7242	-1.163
Mof_H 	H 	0.5806	0.1105	0.7979	-0.79
Mof_H 	H 	0.3926	0.1257	0.8058	-0.116
Mof_O 	O 	0.5768	0.1032	0.768	-0.332
Mof_H 	H 	0.5905	0.1194	0.829	0.716
Mof_C 	C 	0.104	0.7572	0.9448	0.404
Mof_C 	C 	0.0655	0.745	0.8449	-0.142
Mof_C 	C 	0.22	0.6892	0.1155	0.42
Mof_C 	C 	0.27944	0.67908	0.1094	-0.196
Mof_C 	C 	0.3439	0.7323	0.1077	0.13
Mof_H 	H 	0.3515	0.7759	0.1054	-0.021
Mof_C 	C 	0.0079	0.5832	0.0406	0.037
Mof_H 	H 	0.047	0.5911	0.0068	-0.004
Mof_C 	C 	0.9508	0.5693	0.9791	-0.056
Mof_H 	H 	0.9533	0.5714	0.9062	0.017
Mof_C 	C 	0.893	0.553	0.0292	-0.069
Mof_H 	H 	0.8547	0.5412	0.9897	0.055
Mof_C 	C 	0.8891	0.5531	0.1397	0.04
Mof_C 	C 	0.9488	0.5701	0.197	0.01
Mof_C 	C 	0.831	0.5377	0.1948	-0.059
Mof_H 	H 	0.7919	0.5274	0.1585	0.068
Mof_C 	C 	0.9954	0.7168	0.8442	0.076
Mof_H 	H 	0.9721	0.708	0.9072	0.037
Mof_Co	Co	0.15458	0.76312	0.12146	1.237
Mof_N 	N 	0.00723	0.58542	0.1437	-0.242
Mof_H 	H 	0.1314	0.7321	0.3021	-0.151
Mof_O 	O 	0.0727	0.73855	0.0281	-0.422
Mof_O 	O 	0.16257	0.78603	0.9489	-0.398
Mof_O 	O 	0.23322	0.74981	0.1139	-0.462
Mof_O 	O 	0.16354	0.64131	0.1285	-0.505
Mof_O 	O 	0.85701	0.65832	0.8383	-0.448
Mof_O 	O 	0.0732	0.5249	0.277	1.033
Mof_H 	H 	0.0597	0.4985	0.2242	-1.163
Mof_H 	H 	0.1105	0.5299	0.2979	-0.791
Mof_H 	H 	0.1257	0.7331	0.3058	-0.116
Mof_O 	O 	0.1032	0.5264	0.268	-0.332
Mof_H 	H 	0.1194	0.5289	0.329	0.717
Mof_C 	C 	0.2428	0.3468	0.9448	0.403
Mof_C 	C 	0.255	0.3205	0.8449	-0.143
Mof_C 	C 	0.3108	0.5308	0.1155	0.42
Mof_C 	C 	0.32092	0.60036	0.1094	-0.196
Mof_C 	C 	0.2677	0.6116	0.1077	0.13
Mof_H 	H 	0.2241	0.5756	0.1054	-0.021
Mof_C 	C 	0.4168	0.4247	0.0406	0.036
Mof_H 	H 	0.4089	0.4559	0.0068	-0.004
Mof_C 	C 	0.4307	0.3815	0.9791	-0.055
Mof_H 	H 	0.4286	0.3819	0.9062	0.017
Mof_C 	C 	0.447	0.34	0.0292	-0.071
Mof_H 	H 	0.4588	0.3135	0.9897	0.055
Mof_C 	C 	0.4469	0.336	0.1397	0.04
Mof_C 	C 	0.4299	0.3787	0.197	0.01
Mof_C 	C 	0.4623	0.2933	0.1948	-0.06
Mof_H 	H 	0.4726	0.2645	0.1585	0.068
Mof_C 	C 	0.2832	0.2786	0.8442	0.076
Mof_H 	H 	0.292	0.2641	0.9072	0.037
Mof_Co	Co	0.23688	0.39146	0.12146	1.237
Mof_N 	N 	0.41458	0.42181	0.1437	-0.241
Mof_H 	H 	0.2679	0.3993	0.3021	-0.151
Mof_O 	O 	0.26145	0.33415	0.0281	-0.421
Mof_O 	O 	0.21397	0.37654	0.9489	-0.398
Mof_O 	O 	0.25019	0.48341	0.1139	-0.462
Mof_O 	O 	0.35869	0.52223	0.1285	-0.505
Mof_O 	O 	0.34168	0.19869	0.8383	-0.448
Mof_O 	O 	0.4751	0.5483	0.277	1.033
Mof_H 	H 	0.5015	0.5612	0.2242	-1.163
Mof_H 	H 	0.4701	0.5806	0.2979	-0.791
Mof_H 	H 	0.2669	0.3926	0.3058	-0.116
Mof_O 	O 	0.4736	0.5768	0.268	-0.332
Mof_H 	H 	0.4711	0.5905	0.329	0.717
Mof_C 	C 	0.6532	0.896	0.9448	0.403
Mof_C 	C 	0.6795	0.9345	0.8449	-0.142
Mof_C 	C 	0.4692	0.78	0.1155	0.42
Mof_C 	C 	0.39964	0.72056	0.1094	-0.196
Mof_C 	C 	0.3884	0.6561	0.1077	0.13
Mof_H 	H 	0.4244	0.6485	0.1054	-0.021
Mof_C 	C 	0.5753	0.9921	0.0406	0.037
Mof_H 	H 	0.5441	0.953	0.0068	-0.004
Mof_C 	C 	0.6185	0.0492	0.9791	-0.057
Mof_H 	H 	0.6181	0.0467	0.9062	0.018
Mof_C 	C 	0.66	0.107	0.0292	-0.068
Mof_H 	H 	0.6865	0.1453	0.9897	0.054
Mof_C 	C 	0.664	0.1109	0.1397	0.039
Mof_C 	C 	0.6213	0.0512	0.197	0.01
Mof_C 	C 	0.7067	0.169	0.1948	-0.059
Mof_H 	H 	0.7355	0.2081	0.1585	0.068
Mof_C 	C 	0.7214	0.0046	0.8442	0.075
Mof_H 	H 	0.7359	0.0279	0.9072	0.038
Mof_Co	Co	0.60854	0.84542	0.12146	1.237
Mof_N 	N 	0.57819	0.99277	0.1437	-0.242
Mof_H 	H 	0.6007	0.8686	0.3021	-0.151
Mof_O 	O 	0.66585	0.9273	0.0281	-0.421
Mof_O 	O 	0.62346	0.83743	0.9489	-0.398
Mof_O 	O 	0.51659	0.76678	0.1139	-0.462
Mof_O 	O 	0.47777	0.83646	0.1285	-0.505
Mof_O 	O 	0.80131	0.14299	0.8383	-0.448
Mof_O 	O 	0.4517	0.9268	0.277	1.033
Mof_H 	H 	0.4388	0.9403	0.2242	-1.163
Mof_H 	H 	0.4194	0.8895	0.2979	-0.791
Mof_H 	H 	0.6074	0.8743	0.3058	-0.116
Mof_O 	O 	0.4232	0.8968	0.268	-0.332
Mof_H 	H 	0.4095	0.8806	0.329	0.717
Mof_C 	C 	0.104	0.7572	0.5552	0.403
Mof_C 	C 	0.0655	0.745	0.6551	-0.142
Mof_C 	C 	0.22	0.6892	0.3845	0.42
Mof_C 	C 	0.27944	0.67908	0.3906	-0.196
Mof_C 	C 	0.3439	0.7323	0.3923	0.13
Mof_H 	H 	0.3515	0.7759	0.3946	-0.021
Mof_C 	C 	0.0079	0.5832	0.4594	0.036
Mof_H 	H 	0.047	0.5911	0.4932	-0.004
Mof_C 	C 	0.9508	0.5693	0.5209	-0.054
Mof_H 	H 	0.9533	0.5714	0.5938	0.016
Mof_C 	C 	0.893	0.553	0.4708	-0.072
Mof_H 	H 	0.8547	0.5412	0.5103	0.056
Mof_C 	C 	0.8891	0.5531	0.3603	0.041
Mof_C 	C 	0.9488	0.5701	0.303	0.009
Mof_C 	C 	0.831	0.5377	0.3052	-0.061
Mof_H 	H 	0.7919	0.5274	0.3415	0.068
Mof_C 	C 	0.9954	0.7168	0.6558	0.076
Mof_H 	H 	0.9721	0.708	0.5928	0.038
Mof_Co	Co	0.15458	0.76312	0.37854	1.237
Mof_N 	N 	0.00723	0.58542	0.3563	-0.241
Mof_H 	H 	0.1314	0.7321	0.1979	-0.151
Mof_O 	O 	0.0727	0.73855	0.4719	-0.421
Mof_O 	O 	0.16257	0.78603	0.5511	-0.398
Mof_O 	O 	0.23322	0.74981	0.3861	-0.462
Mof_O 	O 	0.16354	0.64131	0.3715	-0.505
Mof_O 	O 	0.85701	0.65832	0.6617	-0.448
Mof_O 	O 	0.0732	0.5249	0.223	1.033
Mof_H 	H 	0.0597	0.4985	0.2758	-1.163
Mof_H 	H 	0.1105	0.5299	0.2021	-0.79
Mof_H 	H 	0.1257	0.7331	0.1942	-0.116
Mof_O 	O 	0.1032	0.5264	0.232	-0.332
Mof_H 	H 	0.1194	0.5289	0.171	0.716
Mof_C 	C 	0.2428	0.3468	0.5552	0.403
Mof_C 	C 	0.255	0.3205	0.6551	-0.143
Mof_C 	C 	0.3108	0.5308	0.3845	0.42
Mof_C 	C 	0.32092	0.60036	0.3906	-0.196
Mof_C 	C 	0.2677	0.6116	0.3923	0.13
Mof_H 	H 	0.2241	0.5756	0.3946	-0.021
Mof_C 	C 	0.4168	0.4247	0.4594	0.036
Mof_H 	H 	0.4089	0.4559	0.4932	-0.004
Mof_C 	C 	0.4307	0.3815	0.5209	-0.054
Mof_H 	H 	0.4286	0.3819	0.5938	0.017
Mof_C 	C 	0.447	0.34	0.4708	-0.071
Mof_H 	H 	0.4588	0.3135	0.5103	0.056
Mof_C 	C 	0.4469	0.336	0.3603	0.041
Mof_C 	C 	0.4299	0.3787	0.303	0.009
Mof_C 	C 	0.4623	0.2933	0.3052	-0.06
Mof_H 	H 	0.4726	0.2645	0.3415	0.068
Mof_C 	C 	0.2832	0.2786	0.6558	0.076
Mof_H 	H 	0.292	0.2641	0.5928	0.037
Mof_Co	Co	0.23688	0.39146	0.37854	1.237
Mof_N 	N 	0.41458	0.42181	0.3563	-0.241
Mof_H 	H 	0.2679	0.3993	0.1979	-0.151
Mof_O 	O 	0.26145	0.33415	0.4719	-0.421
Mof_O 	O 	0.21397	0.37654	0.5511	-0.398
Mof_O 	O 	0.25019	0.48341	0.3861	-0.462
Mof_O 	O 	0.35869	0.52223	0.3715	-0.505
Mof_O 	O 	0.34168	0.19869	0.6617	-0.448
Mof_O 	O 	0.4751	0.5483	0.223	1.033
Mof_H 	H 	0.5015	0.5612	0.2758	-1.163
Mof_H 	H 	0.4701	0.5806	0.2021	-0.791
Mof_H 	H 	0.2669	0.3926	0.1942	-0.116
Mof_O 	O 	0.4736	0.5768	0.232	-0.332
Mof_H 	H 	0.4711	0.5905	0.171	0.716
Mof_C 	C 	0.6532	0.896	0.5552	0.403
Mof_C 	C 	0.6795	0.9345	0.6551	-0.142
Mof_C 	C 	0.4692	0.78	0.3845	0.42
Mof_C 	C 	0.39964	0.72056	0.3906	-0.196
Mof_C 	C 	0.3884	0.6561	0.3923	0.13
Mof_H 	H 	0.4244	0.6485	0.3946	-0.021
Mof_C 	C 	0.5753	0.9921	0.4594	0.036
Mof_H 	H 	0.5441	0.953	0.4932	-0.004
Mof_C 	C 	0.6185	0.0492	0.5209	-0.054
Mof_H 	H 	0.6181	0.0467	0.5938	0.016
Mof_C 	C 	0.66	0.107	0.4708	-0.072
Mof_H 	H 	0.6865	0.1453	0.5103	0.056
Mof_C 	C 	0.664	0.1109	0.3603	0.041
Mof_C 	C 	0.6213	0.0512	0.303	0.009
Mof_C 	C 	0.7067	0.169	0.3052	-0.061
Mof_H 	H 	0.7355	0.2081	0.3415	0.069
Mof_C 	C 	0.7214	0.0046	0.6558	0.075
Mof_H 	H 	0.7359	0.0279	0.5928	0.038
Mof_Co	Co	0.60854	0.84542	0.37854	1.237
Mof_N 	N 	0.57819	0.99277	0.3563	-0.241
Mof_H 	H 	0.6007	0.8686	0.1979	-0.151
Mof_O 	O 	0.66585	0.9273	0.4719	-0.421
Mof_O 	O 	0.62346	0.83743	0.5511	-0.398
Mof_O 	O 	0.51659	0.76678	0.3861	-0.462
Mof_O 	O 	0.47777	0.83646	0.3715	-0.505
Mof_O 	O 	0.80131	0.14299	0.6617	-0.448
Mof_O 	O 	0.4517	0.9268	0.223	1.033
Mof_H 	H 	0.4388	0.9403	0.2758	-1.163
Mof_H 	H 	0.4194	0.8895	0.2021	-0.79
Mof_H 	H 	0.6074	0.8743	0.1942	-0.116
Mof_O 	O 	0.4232	0.8968	0.232	-0.332
Mof_H 	H 	0.4095	0.8806	0.171	0.716
Mof_C 	C 	0.896	0.2428	0.0552	0.404
Mof_C 	C 	0.9345	0.255	0.1551	-0.142
Mof_C 	C 	0.78	0.3108	0.8845	0.42
Mof_C 	C 	0.72056	0.32092	0.8906	-0.196
Mof_C 	C 	0.6561	0.2677	0.8923	0.13
Mof_H 	H 	0.6485	0.2241	0.8946	-0.021
Mof_C 	C 	0.9921	0.4168	0.9594	0.037
Mof_H 	H 	0.953	0.4089	0.9932	-0.004
Mof_C 	C 	0.0492	0.4307	0.0209	-0.056
Mof_H 	H 	0.0467	0.4286	0.0938	0.017
Mof_C 	C 	0.107	0.447	0.9708	-0.069
Mof_H 	H 	0.1453	0.4588	0.0103	0.055
Mof_C 	C 	0.1109	0.4469	0.8603	0.04
Mof_C 	C 	0.0512	0.4299	0.803	0.01
Mof_C 	C 	0.169	0.4623	0.8052	-0.059
Mof_H 	H 	0.2081	0.4726	0.8415	0.068
Mof_C 	C 	0.0046	0.2832	0.1558	0.076
Mof_H 	H 	0.0279	0.292	0.0928	0.037
Mof_Co	Co	0.84542	0.23688	0.87854	1.237
Mof_N 	N 	0.99277	0.41458	0.8563	-0.242
Mof_H 	H 	0.8686	0.2679	0.6979	-0.151
Mof_O 	O 	0.9273	0.26145	0.9719	-0.422
Mof_O 	O 	0.83743	0.21397	0.0511	-0.398
Mof_O 	O 	0.76678	0.25019	0.8861	-0.462
Mof_O 	O 	0.83646	0.35869	0.8715	-0.505
Mof_O 	O 	0.14299	0.34168	0.1617	-0.448
Mof_O 	O 	0.9268	0.4751	0.723	1.033
Mof_H 	H 	0.9403	0.5015	0.7758	-1.163
Mof_H 	H 	0.8895	0.4701	0.7021	-0.791
Mof_H 	H 	0.8743	0.2669	0.6942	-0.116
Mof_O 	O 	0.8968	0.4736	0.732	-0.332
Mof_H 	H 	0.8806	0.4711	0.671	0.717
Mof_C 	C 	0.7572	0.6532	0.0552	0.403
Mof_C 	C 	0.745	0.6795	0.1551	-0.143
Mof_C 	C 	0.6892	0.4692	0.8845	0.42
Mof_C 	C 	0.67908	0.39964	0.8906	-0.196
Mof_C 	C 	0.7323	0.3884	0.8923	0.13
Mof_H 	H 	0.7759	0.4244	0.8946	-0.021
Mof_C 	C 	0.5832	0.5753	0.9594	0.036
Mof_H 	H 	0.5911	0.5441	0.9932	-0.004
Mof_C 	C 	0.5693	0.6185	0.0209	-0.055
Mof_H 	H 	0.5714	0.6181	0.0938	0.017
Mof_C 	C 	0.553	0.66	0.9708	-0.071
Mof_H 	H 	0.5412	0.6865	0.0103	0.055
Mof_C 	C 	0.5531	0.664	0.8603	0.04
Mof_C 	C 	0.5701	0.6213	0.803	0.01
Mof_C 	C 	0.5377	0.7067	0.8052	-0.06
Mof_H 	H 	0.5274	0.7355	0.8415	0.068
Mof_C 	C 	0.7168	0.7214	0.1558	0.076
Mof_H 	H 	0.708	0.7359	0.0928	0.037
Mof_Co	Co	0.76312	0.60854	0.87854	1.237
Mof_N 	N 	0.58542	0.57819	0.8563	-0.241
Mof_H 	H 	0.7321	0.6007	0.6979	-0.151
Mof_O 	O 	0.73855	0.66585	0.9719	-0.421
Mof_O 	O 	0.78603	0.62346	0.0511	-0.398
Mof_O 	O 	0.74981	0.51659	0.8861	-0.462
Mof_O 	O 	0.64131	0.47777	0.8715	-0.505
Mof_O 	O 	0.65832	0.80131	0.1617	-0.448
Mof_O 	O 	0.5249	0.4517	0.723	1.033
Mof_H 	H 	0.4985	0.4388	0.7758	-1.163
Mof_H 	H 	0.5299	0.4194	0.7021	-0.791
Mof_H 	H 	0.7331	0.6074	0.6942	-0.116
Mof_O 	O 	0.5264	0.4232	0.732	-0.332
Mof_H 	H 	0.5289	0.4095	0.671	0.717
Mof_C 	C 	0.3468	0.104	0.0552	0.403
Mof_C 	C 	0.3205	0.0655	0.1551	-0.142
Mof_C 	C 	0.5308	0.22	0.8845	0.42
Mof_C 	C 	0.60036	0.27944	0.8906	-0.196
Mof_C 	C 	0.6116	0.3439	0.8923	0.13
Mof_H 	H 	0.5756	0.3515	0.8946	-0.021
Mof_C 	C 	0.4247	0.0079	0.9594	0.037
Mof_H 	H 	0.4559	0.047	0.9932	-0.004
Mof_C 	C 	0.3815	0.9508	0.0209	-0.057
Mof_H 	H 	0.3819	0.9533	0.0938	0.018
Mof_C 	C 	0.34	0.893	0.9708	-0.068
Mof_H 	H 	0.3135	0.8547	0.0103	0.054
Mof_C 	C 	0.336	0.8891	0.8603	0.039
Mof_C 	C 	0.3787	0.9488	0.803	0.01
Mof_C 	C 	0.2933	0.831	0.8052	-0.059
Mof_H 	H 	0.2645	0.7919	0.8415	0.068
Mof_C 	C 	0.2786	0.9954	0.1558	0.075
Mof_H 	H 	0.2641	0.9721	0.0928	0.038
Mof_Co	Co	0.39146	0.15458	0.87854	1.237
Mof_N 	N 	0.42181	0.00723	0.8563	-0.242
Mof_H 	H 	0.3993	0.1314	0.6979	-0.151
Mof_O 	O 	0.33415	0.0727	0.9719	-0.421
Mof_O 	O 	0.37654	0.16257	0.0511	-0.398
Mof_O 	O 	0.48341	0.23322	0.8861	-0.462
Mof_O 	O 	0.52223	0.16354	0.8715	-0.505
Mof_O 	O 	0.19869	0.85701	0.1617	-0.448
Mof_O 	O 	0.5483	0.0732	0.723	1.033
Mof_H 	H 	0.5612	0.0597	0.7758	-1.163
Mof_H 	H 	0.5806	0.1105	0.7021	-0.791
Mof_H 	H 	0.3926	0.1257	0.6942	-0.116
Mof_O 	O 	0.5768	0.1032	0.732	-0.332
Mof_H 	H 	0.5905	0.1194	0.671	0.717
Mof_C 	C 	0.8979	0.24	0.25	0.07
Mof_H 	H 	0.8515	0.2209	0.25	0.035
Mof_C 	C 	0.1127	0.3287	0.25	0.379
Mof_C 	C 	0.0389	0.2978	0.25	-0.154
Mof_C 	C 	0.76	0.6579	0.25	0.07
Mof_H 	H 	0.7791	0.6306	0.25	0.034
Mof_C 	C 	0.6713	0.784	0.25	0.379
Mof_C 	C 	0.7022	0.7411	0.25	-0.154
Mof_C 	C 	0.3421	0.1021	0.25	0.07
Mof_H 	H 	0.3694	0.1485	0.25	0.035
Mof_C 	C 	0.216	0.8873	0.25	0.379
Mof_C 	C 	0.2589	0.9611	0.25	-0.154
Mof_C 	C 	0.1021	0.76	0.75	0.07
Mof_H 	H 	0.1485	0.7791	0.75	0.035
Mof_C 	C 	0.8873	0.6713	0.75	0.379
Mof_C 	C 	0.9611	0.7022	0.75	-0.154
Mof_C 	C 	0.24	0.3421	0.75	0.07
Mof_H 	H 	0.2209	0.3694	0.75	0.034
Mof_C 	C 	0.3287	0.216	0.75	0.379
Mof_C 	C 	0.2978	0.2589	0.75	-0.154
Mof_C 	C 	0.6579	0.8979	0.75	0.07
Mof_H 	H 	0.6306	0.8515	0.75	0.035
Mof_C 	C 	0.784	0.1127	0.75	0.379
Mof_C 	C 	0.7411	0.0389	0.75	-0.154
Mof_Co	Co	0.91106	0.38541	0.75	1.071
Mof_O 	O 	0.89405	0.2877	0.75	-0.229
Mof_H 	H 	0.9264	0.5146	0.75	1.424
Mof_Co	Co	0.61459	0.52565	0.75	1.071
Mof_O 	O 	0.7123	0.60635	0.75	-0.229
Mof_H 	H 	0.4854	0.4118	0.75	1.424
Mof_Co	Co	0.47435	0.08894	0.75	1.071
Mof_O 	O 	0.39365	0.10595	0.75	-0.229
Mof_H 	H 	0.5882	0.0736	0.75	1.424
Mof_Co	Co	0.08894	0.61459	0.25	1.071
Mof_O 	O 	0.10595	0.7123	0.25	-0.229
Mof_H 	H 	0.0736	0.4854	0.25	1.424
Mof_Co	Co	0.38541	0.47435	0.25	1.071
Mof_O 	O 	0.2877	0.39365	0.25	-0.229
Mof_H 	H 	0.5146	0.5882	0.25	1.424
Mof_Co	Co	0.52565	0.91106	0.25	1.071
Mof_O 	O 	0.60635	0.89405	0.25	-0.229
Mof_H 	H 	0.4118	0.9264	0.25	1.424
_end
