# CIF file generated by openbabel 3.1.0, see https://openbabel.org
data_I
_chemical_name_common 'image0'
_cell_length_a 26.5068
_cell_length_b 26.5068
_cell_length_c 26.5068
_cell_angle_alpha 90
_cell_angle_beta 90
_cell_angle_gamma 90
_space_group_name_H-M_alt 'P 1'
_space_group_name_Hall 'P 1'
loop_
    _symmetry_equiv_pos_as_xyz
    x,y,z
loop_
    _atom_site_label
    _atom_site_type_symbol
    _atom_site_fract_x
    _atom_site_fract_y
    _atom_site_fract_z
    _atom_site_occupancy
    O1       O        0.22976    0.29603    0.04732    1.000
    O2       O        0.35850    0.28950    0.10500    1.000
    O3       O        0.22410    0.39770    0.95130    1.000
    O4       O        0.72976    0.79603    0.54732    1.000
    O5       O        0.85850    0.78950    0.60500    1.000
    O6       O        0.72410    0.89770    0.45130    1.000
    O7       O        0.77024    0.70397    0.04732    1.000
    O8       O        0.64150    0.71050    0.10500    1.000
    O9       O        0.77590    0.60230    0.95130    1.000
    O10      O        0.27024    0.20397    0.54732    1.000
    O11      O        0.14150    0.21050    0.60500    1.000
    O12      O        0.27590    0.10230    0.45130    1.000
    O13      O        0.77024    0.29603    0.95268    1.000
    O14      O        0.64150    0.28950    0.89500    1.000
    O15      O        0.77590    0.39770    0.04870    1.000
    O16      O        0.27024    0.79603    0.45268    1.000
    O17      O        0.14150    0.78950    0.39500    1.000
    O18      O        0.27590    0.89770    0.54870    1.000
    O19      O        0.22976    0.70397    0.95268    1.000
    O20      O        0.35850    0.71050    0.89500    1.000
    O21      O        0.22410    0.60230    0.04870    1.000
    O22      O        0.72976    0.20397    0.45268    1.000
    O23      O        0.85850    0.21050    0.39500    1.000
    O24      O        0.72410    0.10230    0.54870    1.000
    O25      O        0.04732    0.22976    0.29603    1.000
    O26      O        0.10500    0.35850    0.28950    1.000
    O27      O        0.95130    0.22410    0.39770    1.000
    O28      O        0.54732    0.72976    0.79603    1.000
    O29      O        0.60500    0.85850    0.78950    1.000
    O30      O        0.45130    0.72410    0.89770    1.000
    O31      O        0.04732    0.77024    0.70397    1.000
    O32      O        0.10500    0.64150    0.71050    1.000
    O33      O        0.95130    0.77590    0.60230    1.000
    O34      O        0.54732    0.27024    0.20397    1.000
    O35      O        0.60500    0.14150    0.21050    1.000
    O36      O        0.45130    0.27590    0.10230    1.000
    O37      O        0.95268    0.77024    0.29603    1.000
    O38      O        0.89500    0.64150    0.28950    1.000
    O39      O        0.04870    0.77590    0.39770    1.000
    O40      O        0.45268    0.27024    0.79603    1.000
    O41      O        0.39500    0.14150    0.78950    1.000
    O42      O        0.54870    0.27590    0.89770    1.000
    O43      O        0.95268    0.22976    0.70397    1.000
    O44      O        0.89500    0.35850    0.71050    1.000
    O45      O        0.04870    0.22410    0.60230    1.000
    O46      O        0.45268    0.72976    0.20397    1.000
    O47      O        0.39500    0.85850    0.21050    1.000
    O48      O        0.54870    0.72410    0.10230    1.000
    O49      O        0.29603    0.04732    0.22976    1.000
    O50      O        0.28950    0.10500    0.35850    1.000
    O51      O        0.39770    0.95130    0.22410    1.000
    O52      O        0.79603    0.54732    0.72976    1.000
    O53      O        0.78950    0.60500    0.85850    1.000
    O54      O        0.89770    0.45130    0.72410    1.000
    O55      O        0.70397    0.04732    0.77024    1.000
    O56      O        0.71050    0.10500    0.64150    1.000
    O57      O        0.60230    0.95130    0.77590    1.000
    O58      O        0.20397    0.54732    0.27024    1.000
    O59      O        0.21050    0.60500    0.14150    1.000
    O60      O        0.10230    0.45130    0.27590    1.000
    O61      O        0.29603    0.95268    0.77024    1.000
    O62      O        0.28950    0.89500    0.64150    1.000
    O63      O        0.39770    0.04870    0.77590    1.000
    O64      O        0.79603    0.45268    0.27024    1.000
    O65      O        0.78950    0.39500    0.14150    1.000
    O66      O        0.89770    0.54870    0.27590    1.000
    O67      O        0.70397    0.95268    0.22976    1.000
    O68      O        0.71050    0.89500    0.35850    1.000
    O69      O        0.60230    0.04870    0.22410    1.000
    O70      O        0.20397    0.45268    0.72976    1.000
    O71      O        0.21050    0.39500    0.85850    1.000
    O72      O        0.10230    0.54870    0.72410    1.000
    O73      O        0.29603    0.22976    0.95268    1.000
    O74      O        0.28950    0.35850    0.89500    1.000
    O75      O        0.39770    0.22410    0.04870    1.000
    O76      O        0.79603    0.72976    0.45268    1.000
    O77      O        0.78950    0.85850    0.39500    1.000
    O78      O        0.89770    0.72410    0.54870    1.000
    O79      O        0.70397    0.77024    0.95268    1.000
    O80      O        0.71050    0.64150    0.89500    1.000
    O81      O        0.60230    0.77590    0.04870    1.000
    O82      O        0.20397    0.27024    0.45268    1.000
    O83      O        0.21050    0.14150    0.39500    1.000
    O84      O        0.10230    0.27590    0.54870    1.000
    O85      O        0.29603    0.77024    0.04732    1.000
    O86      O        0.28950    0.64150    0.10500    1.000
    O87      O        0.39770    0.77590    0.95130    1.000
    O88      O        0.79603    0.27024    0.54732    1.000
    O89      O        0.78950    0.14150    0.60500    1.000
    O90      O        0.89770    0.27590    0.45130    1.000
    O91      O        0.70397    0.22976    0.04732    1.000
    O92      O        0.71050    0.35850    0.10500    1.000
    O93      O        0.60230    0.22410    0.95130    1.000
    O94      O        0.20397    0.72976    0.54732    1.000
    O95      O        0.21050    0.85850    0.60500    1.000
    O96      O        0.10230    0.72410    0.45130    1.000
    O97      O        0.22976    0.04732    0.70397    1.000
    O98      O        0.35850    0.10500    0.71050    1.000
    O99      O        0.22410    0.95130    0.60230    1.000
    O100     O        0.72976    0.54732    0.20397    1.000
    O101     O        0.85850    0.60500    0.21050    1.000
    O102     O        0.72410    0.45130    0.10230    1.000
    O103     O        0.77024    0.04732    0.29603    1.000
    O104     O        0.64150    0.10500    0.28950    1.000
    O105     O        0.77590    0.95130    0.39770    1.000
    O106     O        0.27024    0.54732    0.79603    1.000
    O107     O        0.14150    0.60500    0.78950    1.000
    O108     O        0.27590    0.45130    0.89770    1.000
    O109     O        0.77024    0.95268    0.70397    1.000
    O110     O        0.64150    0.89500    0.71050    1.000
    O111     O        0.77590    0.04870    0.60230    1.000
    O112     O        0.27024    0.45268    0.20397    1.000
    O113     O        0.14150    0.39500    0.21050    1.000
    O114     O        0.27590    0.54870    0.10230    1.000
    O115     O        0.22976    0.95268    0.29603    1.000
    O116     O        0.35850    0.89500    0.28950    1.000
    O117     O        0.22410    0.04870    0.39770    1.000
    O118     O        0.72976    0.45268    0.79603    1.000
    O119     O        0.85850    0.39500    0.78950    1.000
    O120     O        0.72410    0.54870    0.89770    1.000
    O121     O        0.04732    0.29603    0.77024    1.000
    O122     O        0.10500    0.28950    0.64150    1.000
    O123     O        0.95130    0.39770    0.77590    1.000
    O124     O        0.54732    0.79603    0.27024    1.000
    O125     O        0.60500    0.78950    0.14150    1.000
    O126     O        0.45130    0.89770    0.27590    1.000
    O127     O        0.04732    0.70397    0.22976    1.000
    O128     O        0.10500    0.71050    0.35850    1.000
    O129     O        0.95130    0.60230    0.22410    1.000
    O130     O        0.54732    0.20397    0.72976    1.000
    O131     O        0.60500    0.21050    0.85850    1.000
    O132     O        0.45130    0.10230    0.72410    1.000
    O133     O        0.95268    0.29603    0.22976    1.000
    O134     O        0.89500    0.28950    0.35850    1.000
    O135     O        0.04870    0.39770    0.22410    1.000
    O136     O        0.45268    0.79603    0.72976    1.000
    O137     O        0.39500    0.78950    0.85850    1.000
    O138     O        0.54870    0.89770    0.72410    1.000
    O139     O        0.95268    0.70397    0.77024    1.000
    O140     O        0.89500    0.71050    0.64150    1.000
    O141     O        0.04870    0.60230    0.77590    1.000
    O142     O        0.45268    0.20397    0.27024    1.000
    O143     O        0.39500    0.21050    0.14150    1.000
    O144     O        0.54870    0.10230    0.27590    1.000
    O145     O        0.77024    0.70397    0.95268    1.000
    O146     O        0.64150    0.71050    0.89500    1.000
    O147     O        0.77590    0.60230    0.04870    1.000
    O148     O        0.27024    0.20397    0.45268    1.000
    O149     O        0.14150    0.21050    0.39500    1.000
    O150     O        0.27590    0.10230    0.54870    1.000
    O151     O        0.22976    0.29603    0.95268    1.000
    O152     O        0.35850    0.28950    0.89500    1.000
    O153     O        0.22410    0.39770    0.04870    1.000
    O154     O        0.72976    0.79603    0.45268    1.000
    O155     O        0.85850    0.78950    0.39500    1.000
    O156     O        0.72410    0.89770    0.54870    1.000
    O157     O        0.22976    0.70397    0.04732    1.000
    O158     O        0.35850    0.71050    0.10500    1.000
    O159     O        0.22410    0.60230    0.95130    1.000
    O160     O        0.72976    0.20397    0.54732    1.000
    O161     O        0.85850    0.21050    0.60500    1.000
    O162     O        0.72410    0.10230    0.45130    1.000
    O163     O        0.77024    0.29603    0.04732    1.000
    O164     O        0.64150    0.28950    0.10500    1.000
    O165     O        0.77590    0.39770    0.95130    1.000
    O166     O        0.27024    0.79603    0.54732    1.000
    O167     O        0.14150    0.78950    0.60500    1.000
    O168     O        0.27590    0.89770    0.45130    1.000
    O169     O        0.95268    0.77024    0.70397    1.000
    O170     O        0.89500    0.64150    0.71050    1.000
    O171     O        0.04870    0.77590    0.60230    1.000
    O172     O        0.45268    0.27024    0.20397    1.000
    O173     O        0.39500    0.14150    0.21050    1.000
    O174     O        0.54870    0.27590    0.10230    1.000
    O175     O        0.95268    0.22976    0.29603    1.000
    O176     O        0.89500    0.35850    0.28950    1.000
    O177     O        0.04870    0.22410    0.39770    1.000
    O178     O        0.45268    0.72976    0.79603    1.000
    O179     O        0.39500    0.85850    0.78950    1.000
    O180     O        0.54870    0.72410    0.89770    1.000
    O181     O        0.04732    0.22976    0.70397    1.000
    O182     O        0.10500    0.35850    0.71050    1.000
    O183     O        0.95130    0.22410    0.60230    1.000
    O184     O        0.54732    0.72976    0.20397    1.000
    O185     O        0.60500    0.85850    0.21050    1.000
    O186     O        0.45130    0.72410    0.10230    1.000
    O187     O        0.04732    0.77024    0.29603    1.000
    O188     O        0.10500    0.64150    0.28950    1.000
    O189     O        0.95130    0.77590    0.39770    1.000
    O190     O        0.54732    0.27024    0.79603    1.000
    O191     O        0.60500    0.14150    0.78950    1.000
    O192     O        0.45130    0.27590    0.89770    1.000
    O193     O        0.70397    0.95268    0.77024    1.000
    O194     O        0.71050    0.89500    0.64150    1.000
    O195     O        0.60230    0.04870    0.77590    1.000
    O196     O        0.20397    0.45268    0.27024    1.000
    O197     O        0.21050    0.39500    0.14150    1.000
    O198     O        0.10230    0.54870    0.27590    1.000
    O199     O        0.29603    0.95268    0.22976    1.000
    O200     O        0.28950    0.89500    0.35850    1.000
    O201     O        0.39770    0.04870    0.22410    1.000
    O202     O        0.79603    0.45268    0.72976    1.000
    O203     O        0.78950    0.39500    0.85850    1.000
    O204     O        0.89770    0.54870    0.72410    1.000
    O205     O        0.70397    0.04732    0.22976    1.000
    O206     O        0.71050    0.10500    0.35850    1.000
    O207     O        0.60230    0.95130    0.22410    1.000
    O208     O        0.20397    0.54732    0.72976    1.000
    O209     O        0.21050    0.60500    0.85850    1.000
    O210     O        0.10230    0.45130    0.72410    1.000
    O211     O        0.29603    0.04732    0.77024    1.000
    O212     O        0.28950    0.10500    0.64150    1.000
    O213     O        0.39770    0.95130    0.77590    1.000
    O214     O        0.79603    0.54732    0.27024    1.000
    O215     O        0.78950    0.60500    0.14150    1.000
    O216     O        0.89770    0.45130    0.27590    1.000
    O217     O        0.70397    0.77024    0.04732    1.000
    O218     O        0.71050    0.64150    0.10500    1.000
    O219     O        0.60230    0.77590    0.95130    1.000
    O220     O        0.20397    0.27024    0.54732    1.000
    O221     O        0.21050    0.14150    0.60500    1.000
    O222     O        0.10230    0.27590    0.45130    1.000
    O223     O        0.29603    0.22976    0.04732    1.000
    O224     O        0.28950    0.35850    0.10500    1.000
    O225     O        0.39770    0.22410    0.95130    1.000
    O226     O        0.79603    0.72976    0.54732    1.000
    O227     O        0.78950    0.85850    0.60500    1.000
    O228     O        0.89770    0.72410    0.45130    1.000
    O229     O        0.70397    0.22976    0.95268    1.000
    O230     O        0.71050    0.35850    0.89500    1.000
    O231     O        0.60230    0.22410    0.04870    1.000
    O232     O        0.20397    0.72976    0.45268    1.000
    O233     O        0.21050    0.85850    0.39500    1.000
    O234     O        0.10230    0.72410    0.54870    1.000
    O235     O        0.29603    0.77024    0.95268    1.000
    O236     O        0.28950    0.64150    0.89500    1.000
    O237     O        0.39770    0.77590    0.04870    1.000
    O238     O        0.79603    0.27024    0.45268    1.000
    O239     O        0.78950    0.14150    0.39500    1.000
    O240     O        0.89770    0.27590    0.54870    1.000
    O241     O        0.77024    0.95268    0.29603    1.000
    O242     O        0.64150    0.89500    0.28950    1.000
    O243     O        0.77590    0.04870    0.39770    1.000
    O244     O        0.27024    0.45268    0.79603    1.000
    O245     O        0.14150    0.39500    0.78950    1.000
    O246     O        0.27590    0.54870    0.89770    1.000
    O247     O        0.22976    0.95268    0.70397    1.000
    O248     O        0.35850    0.89500    0.71050    1.000
    O249     O        0.22410    0.04870    0.60230    1.000
    O250     O        0.72976    0.45268    0.20397    1.000
    O251     O        0.85850    0.39500    0.21050    1.000
    O252     O        0.72410    0.54870    0.10230    1.000
    O253     O        0.22976    0.04732    0.29603    1.000
    O254     O        0.35850    0.10500    0.28950    1.000
    O255     O        0.22410    0.95130    0.39770    1.000
    O256     O        0.72976    0.54732    0.79603    1.000
    O257     O        0.85850    0.60500    0.78950    1.000
    O258     O        0.72410    0.45130    0.89770    1.000
    O259     O        0.77024    0.04732    0.70397    1.000
    O260     O        0.64150    0.10500    0.71050    1.000
    O261     O        0.77590    0.95130    0.60230    1.000
    O262     O        0.27024    0.54732    0.20397    1.000
    O263     O        0.14150    0.60500    0.21050    1.000
    O264     O        0.27590    0.45130    0.10230    1.000
    O265     O        0.95268    0.70397    0.22976    1.000
    O266     O        0.89500    0.71050    0.35850    1.000
    O267     O        0.04870    0.60230    0.22410    1.000
    O268     O        0.45268    0.20397    0.72976    1.000
    O269     O        0.39500    0.21050    0.85850    1.000
    O270     O        0.54870    0.10230    0.72410    1.000
    O271     O        0.95268    0.29603    0.77024    1.000
    O272     O        0.89500    0.28950    0.64150    1.000
    O273     O        0.04870    0.39770    0.77590    1.000
    O274     O        0.45268    0.79603    0.27024    1.000
    O275     O        0.39500    0.78950    0.14150    1.000
    O276     O        0.54870    0.89770    0.27590    1.000
    O277     O        0.04732    0.70397    0.77024    1.000
    O278     O        0.10500    0.71050    0.64150    1.000
    O279     O        0.95130    0.60230    0.77590    1.000
    O280     O        0.54732    0.20397    0.27024    1.000
    O281     O        0.60500    0.21050    0.14150    1.000
    O282     O        0.45130    0.10230    0.27590    1.000
    O283     O        0.04732    0.29603    0.22976    1.000
    O284     O        0.10500    0.28950    0.35850    1.000
    O285     O        0.95130    0.39770    0.22410    1.000
    O286     O        0.54732    0.79603    0.72976    1.000
    O287     O        0.60500    0.78950    0.85850    1.000
    O288     O        0.45130    0.89770    0.72410    1.000
    V1       V        0.28579    0.28579    0.09440    1.000
    V2       V        0.78579    0.78579    0.59440    1.000
    V3       V        0.71421    0.71421    0.09440    1.000
    V4       V        0.21421    0.21421    0.59440    1.000
    V5       V        0.71421    0.28579    0.90560    1.000
    V6       V        0.21421    0.78579    0.40560    1.000
    V7       V        0.28579    0.71421    0.90560    1.000
    V8       V        0.78579    0.21421    0.40560    1.000
    V9       V        0.09440    0.28579    0.28579    1.000
    V10      V        0.59440    0.78579    0.78579    1.000
    V11      V        0.09440    0.71421    0.71421    1.000
    V12      V        0.59440    0.21421    0.21421    1.000
    V13      V        0.90560    0.71421    0.28579    1.000
    V14      V        0.40560    0.21421    0.78579    1.000
    V15      V        0.90560    0.28579    0.71421    1.000
    V16      V        0.40560    0.78579    0.21421    1.000
    V17      V        0.28579    0.09440    0.28579    1.000
    V18      V        0.78579    0.59440    0.78579    1.000
    V19      V        0.71421    0.09440    0.71421    1.000
    V20      V        0.21421    0.59440    0.21421    1.000
    V21      V        0.28579    0.90560    0.71421    1.000
    V22      V        0.78579    0.40560    0.21421    1.000
    V23      V        0.71421    0.90560    0.28579    1.000
    V24      V        0.21421    0.40560    0.78579    1.000
    V25      V        0.28579    0.28579    0.90560    1.000
    V26      V        0.78579    0.78579    0.40560    1.000
    V27      V        0.71421    0.71421    0.90560    1.000
    V28      V        0.21421    0.21421    0.40560    1.000
    V29      V        0.28579    0.71421    0.09440    1.000
    V30      V        0.78579    0.21421    0.59440    1.000
    V31      V        0.71421    0.28579    0.09440    1.000
    V32      V        0.21421    0.78579    0.59440    1.000
    V33      V        0.28579    0.09440    0.71421    1.000
    V34      V        0.78579    0.59440    0.21421    1.000
    V35      V        0.71421    0.09440    0.28579    1.000
    V36      V        0.21421    0.59440    0.78579    1.000
    V37      V        0.71421    0.90560    0.71421    1.000
    V38      V        0.21421    0.40560    0.21421    1.000
    V39      V        0.28579    0.90560    0.28579    1.000
    V40      V        0.78579    0.40560    0.78579    1.000
    V41      V        0.09440    0.28579    0.71421    1.000
    V42      V        0.59440    0.78579    0.21421    1.000
    V43      V        0.09440    0.71421    0.28579    1.000
    V44      V        0.59440    0.21421    0.78579    1.000
    V45      V        0.90560    0.28579    0.28579    1.000
    V46      V        0.40560    0.78579    0.78579    1.000
    V47      V        0.90560    0.71421    0.71421    1.000
    V48      V        0.40560    0.21421    0.21421    1.000
    V49      V        0.24572    0.24572    0.00000    1.000
    V50      V        0.74572    0.74572    0.50000    1.000
    V51      V        0.75428    0.75428    0.00000    1.000
    V52      V        0.25428    0.25428    0.50000    1.000
    V53      V        0.75428    0.24572    0.00000    1.000
    V54      V        0.25428    0.74572    0.50000    1.000
    V55      V        0.24572    0.75428    0.00000    1.000
    V56      V        0.74572    0.25428    0.50000    1.000
    V57      V        0.00000    0.24572    0.24572    1.000
    V58      V        0.50000    0.74572    0.74572    1.000
    V59      V        0.00000    0.75428    0.75428    1.000
    V60      V        0.50000    0.25428    0.25428    1.000
    V61      V        0.00000    0.75428    0.24572    1.000
    V62      V        0.50000    0.25428    0.74572    1.000
    V63      V        0.00000    0.24572    0.75428    1.000
    V64      V        0.50000    0.74572    0.25428    1.000
    V65      V        0.24572    0.00000    0.24572    1.000
    V66      V        0.74572    0.50000    0.74572    1.000
    V67      V        0.75428    0.00000    0.75428    1.000
    V68      V        0.25428    0.50000    0.25428    1.000
    V69      V        0.24572    0.00000    0.75428    1.000
    V70      V        0.74572    0.50000    0.25428    1.000
    V71      V        0.75428    0.00000    0.24572    1.000
    V72      V        0.25428    0.50000    0.74572    1.000
    V73      V        0.20591    0.34661    0.00000    1.000
    V74      V        0.70591    0.84661    0.50000    1.000
    V75      V        0.79409    0.65339    0.00000    1.000
    V76      V        0.29409    0.15339    0.50000    1.000
    V77      V        0.79409    0.34661    0.00000    1.000
    V78      V        0.29409    0.84661    0.50000    1.000
    V79      V        0.20591    0.65339    0.00000    1.000
    V80      V        0.70591    0.15339    0.50000    1.000
    V81      V        0.00000    0.20591    0.34661    1.000
    V82      V        0.50000    0.70591    0.84661    1.000
    V83      V        0.00000    0.79409    0.65339    1.000
    V84      V        0.50000    0.29409    0.15339    1.000
    V85      V        0.00000    0.79409    0.34661    1.000
    V86      V        0.50000    0.29409    0.84661    1.000
    V87      V        0.00000    0.20591    0.65339    1.000
    V88      V        0.50000    0.70591    0.15339    1.000
    V89      V        0.34661    0.00000    0.20591    1.000
    V90      V        0.84661    0.50000    0.70591    1.000
    V91      V        0.65339    0.00000    0.79409    1.000
    V92      V        0.15339    0.50000    0.29409    1.000
    V93      V        0.34661    0.00000    0.79409    1.000
    V94      V        0.84661    0.50000    0.29409    1.000
    V95      V        0.65339    0.00000    0.20591    1.000
    V96      V        0.15339    0.50000    0.70591    1.000
    V97      V        0.34661    0.20591    0.00000    1.000
    V98      V        0.84661    0.70591    0.50000    1.000
    V99      V        0.65339    0.79409    0.00000    1.000
    V100     V        0.15339    0.29409    0.50000    1.000
    V101     V        0.34661    0.79409    0.00000    1.000
    V102     V        0.84661    0.29409    0.50000    1.000
    V103     V        0.65339    0.20591    0.00000    1.000
    V104     V        0.15339    0.70591    0.50000    1.000
    V105     V        0.20591    0.00000    0.65339    1.000
    V106     V        0.70591    0.50000    0.15339    1.000
    V107     V        0.79409    0.00000    0.34661    1.000
    V108     V        0.29409    0.50000    0.84661    1.000
    V109     V        0.79409    0.00000    0.65339    1.000
    V110     V        0.29409    0.50000    0.15339    1.000
    V111     V        0.20591    0.00000    0.34661    1.000
    V112     V        0.70591    0.50000    0.84661    1.000
    V113     V        0.00000    0.34661    0.79409    1.000
    V114     V        0.50000    0.84661    0.29409    1.000
    V115     V        0.00000    0.65339    0.20591    1.000
    V116     V        0.50000    0.15339    0.70591    1.000
    V117     V        0.00000    0.34661    0.20591    1.000
    V118     V        0.50000    0.84661    0.70591    1.000
    V119     V        0.00000    0.65339    0.79409    1.000
    V120     V        0.50000    0.15339    0.29409    1.000
    P1       P        0.40019    0.25000    0.09981    1.000
    P2       P        0.59981    0.75000    0.09981    1.000
    P3       P        0.59981    0.25000    0.90019    1.000
    P4       P        0.40019    0.75000    0.90019    1.000
    P5       P        0.09981    0.40019    0.25000    1.000
    P6       P        0.09981    0.59981    0.75000    1.000
    P7       P        0.90019    0.59981    0.25000    1.000
    P8       P        0.90019    0.40019    0.75000    1.000
    P9       P        0.25000    0.09981    0.40019    1.000
    P10      P        0.75000    0.09981    0.59981    1.000
    P11      P        0.25000    0.90019    0.59981    1.000
    P12      P        0.75000    0.90019    0.40019    1.000
    P13      P        0.25000    0.40019    0.90019    1.000
    P14      P        0.75000    0.59981    0.90019    1.000
    P15      P        0.25000    0.59981    0.09981    1.000
    P16      P        0.75000    0.40019    0.09981    1.000
    P17      P        0.40019    0.09981    0.75000    1.000
    P18      P        0.59981    0.09981    0.25000    1.000
    P19      P        0.59981    0.90019    0.75000    1.000
    P20      P        0.40019    0.90019    0.25000    1.000
    P21      P        0.09981    0.25000    0.59981    1.000
    P22      P        0.09981    0.75000    0.40019    1.000
    P23      P        0.90019    0.25000    0.40019    1.000
    P24      P        0.90019    0.75000    0.59981    1.000
    P25      P        0.59981    0.75000    0.90019    1.000
    P26      P        0.09981    0.25000    0.40019    1.000
    P27      P        0.40019    0.25000    0.90019    1.000
    P28      P        0.40019    0.75000    0.09981    1.000
    P29      P        0.59981    0.25000    0.09981    1.000
    P30      P        0.90019    0.59981    0.75000    1.000
    P31      P        0.40019    0.09981    0.25000    1.000
    P32      P        0.90019    0.40019    0.25000    1.000
    P33      P        0.09981    0.40019    0.75000    1.000
    P34      P        0.09981    0.59981    0.25000    1.000
    P35      P        0.75000    0.90019    0.59981    1.000
    P36      P        0.25000    0.40019    0.09981    1.000
    P37      P        0.25000    0.90019    0.40019    1.000
    P38      P        0.75000    0.09981    0.40019    1.000
    P39      P        0.25000    0.09981    0.59981    1.000
    P40      P        0.75000    0.59981    0.09981    1.000
    P41      P        0.75000    0.40019    0.90019    1.000
    P42      P        0.25000    0.59981    0.90019    1.000
    P43      P        0.59981    0.90019    0.25000    1.000
    P44      P        0.40019    0.90019    0.75000    1.000
    P45      P        0.59981    0.09981    0.75000    1.000
    P46      P        0.90019    0.75000    0.40019    1.000
    P47      P        0.90019    0.25000    0.59981    1.000
    P48      P        0.09981    0.75000    0.59981    1.000
