data_functionalizedCrystal
_audit_creation_method	'EQeq! by Chris Wilmer'
_symmetry_space_group_name_H-M	'P1'
_symmetry_Int_Tables_number	1
_symmetry_cell_setting	triclinic
loop_
_symmetry_equiv_pos_as_xyz
  x,y,z
_cell_length_a	12.213
_cell_length_b	12.213
_cell_length_c	12.345
_cell_angle_alpha	90
_cell_angle_beta	90
_cell_angle_gamma	90
loop_
_atom_site_label
_atom_site_type_symbol
_atom_site_fract_x
_atom_site_fract_y
_atom_site_fract_z
_atom_site_charge
Mof_Na	Na	0.2795	0.4717	0.5046	2.372
Mof_Na	Na	0.7205	0.5283	0.5046	2.41
Mof_Na	Na	0.4717	0.7205	0.4954	2.402
Mof_Na	Na	0.5283	0.2795	0.4954	2.364
Mof_Na	Na	0.5	0	0.5121	2.033
Mof_Na	Na	1.55584e-32	0.5	0.4879	2.033
Mof_Dy	Dy	-0	0	-0	1.085
Mof_H 	H 	0.2794	0.1048	0.1234	0.036
Mof_H 	H 	0.3504	0.1186	0.2949	-0.097
Mof_H 	H 	0.0582	0.2239	0.4012	-0.079
Mof_H 	H 	0.9792	0.3905	0.2661	0.105
Mof_H 	H 	0.6748	0.3323	0.1614	0.019
Mof_H 	H 	0.7252	0.1552	0.1195	0.006
Mof_H 	H 	0.7206	0.8952	0.1234	0.057
Mof_H 	H 	0.6496	0.8814	0.2949	-0.015
Mof_H 	H 	0.9418	0.7761	0.4012	0.117
Mof_H 	H 	0.0208	0.6095	0.2661	-0.096
Mof_H 	H 	0.3252	0.6677	0.1614	-0.012
Mof_H 	H 	0.2748	0.8448	0.1195	0.077
Mof_H 	H 	0.1048	0.7206	0.8766	0.038
Mof_H 	H 	0.1186	0.6496	0.7051	-0.059
Mof_H 	H 	0.2239	0.9418	0.5988	0.103
Mof_H 	H 	0.3905	0.0208	0.7339	-0.091
Mof_H 	H 	0.3323	0.3252	0.8386	0.004
Mof_H 	H 	0.1552	0.2748	0.8805	0.059
Mof_H 	H 	0.8952	0.2794	0.8766	0.109
Mof_H 	H 	0.8814	0.3504	0.7051	-0.043
Mof_H 	H 	0.7761	0.0582	0.5988	-0.061
Mof_H 	H 	0.6095	0.9792	0.7339	0.104
Mof_H 	H 	0.6677	0.6748	0.8386	0.042
Mof_H 	H 	0.8448	0.7252	0.8805	0.071
Mof_C 	C 	0.2356	0.1304	0.1796	-0.1
Mof_C 	C 	0.2776	0.1367	0.2821	0.12
Mof_C 	C 	0.211	0.1703	0.3664	-0.283
Mof_C 	C 	0.1036	0.2002	0.3455	0.139
Mof_C 	C 	0.0651	0.1942	0.2401	-0.193
Mof_C 	C 	0.9555	0.2358	0.2125	0.272
Mof_C 	C 	0.927	0.3431	0.2377	-0.11
Mof_C 	C 	0.8211	0.3794	0.2207	-0.07
Mof_C 	C 	0.7458	0.3086	0.1752	-0.05
Mof_C 	C 	0.776	0.2026	0.1503	0.032
Mof_C 	C 	0.7644	0.8696	0.1796	0.031
Mof_C 	C 	0.7224	0.8633	0.2821	0.029
Mof_C 	C 	0.789	0.8297	0.3664	-0.103
Mof_C 	C 	0.8964	0.7998	0.3455	-0.08
Mof_C 	C 	0.9349	0.8058	0.2401	0.277
Mof_C 	C 	0.0445	0.7642	0.2125	-0.164
Mof_C 	C 	0.073	0.6569	0.2377	0.114
Mof_C 	C 	0.1789	0.6206	0.2207	-0.211
Mof_C 	C 	0.2542	0.6914	0.1752	0.052
Mof_C 	C 	0.224	0.7974	0.1503	-0.04
Mof_C 	C 	0.1304	0.7644	0.8204	-0.019
Mof_C 	C 	0.1367	0.7224	0.7179	0.029
Mof_C 	C 	0.1703	0.789	0.6336	-0.154
Mof_C 	C 	0.2002	0.8964	0.6545	-0.082
Mof_C 	C 	0.1942	0.9349	0.7599	0.247
Mof_C 	C 	0.2358	0.0445	0.7875	-0.16
Mof_C 	C 	0.3431	0.073	0.7623	0.117
Mof_C 	C 	0.3794	0.1789	0.7793	-0.196
Mof_C 	C 	0.3086	0.2542	0.8248	0.052
Mof_C 	C 	0.2026	0.224	0.8497	-0.028
Mof_C 	C 	0.8696	0.2356	0.8204	-0.037
Mof_C 	C 	0.8633	0.2776	0.7179	0.126
Mof_C 	C 	0.8297	0.211	0.6336	-0.227
Mof_C 	C 	0.7998	0.1036	0.6545	0.134
Mof_C 	C 	0.8058	0.0651	0.7599	-0.146
Mof_C 	C 	0.7642	0.9555	0.7875	0.277
Mof_C 	C 	0.6569	0.927	0.7623	-0.105
Mof_C 	C 	0.6206	0.8211	0.7793	-0.057
Mof_C 	C 	0.6914	0.7458	0.8248	-0.042
Mof_C 	C 	0.7974	0.776	0.8497	0.059
Mof_S 	S 	0.2652	0.18292	0.49998	0.792
Mof_S 	S 	0.78663	0.51534	0.25906	0.599
Mof_S 	S 	0.7348	0.81708	0.49998	0.729
Mof_S 	S 	0.21337	0.48466	0.25906	0.651
Mof_S 	S 	0.18292	0.7348	0.50002	0.747
Mof_S 	S 	0.51534	0.21337	0.74094	0.647
Mof_S 	S 	0.81708	0.2652	0.50002	0.773
Mof_S 	S 	0.48466	0.78663	0.74094	0.595
Mof_N 	N 	0.1326	0.1604	0.1591	-0.011
Mof_N 	N 	0.8781	0.1675	0.17	-0.087
Mof_N 	N 	0.8674	0.8396	0.1591	-0.075
Mof_N 	N 	0.1219	0.8325	0.17	-0.022
Mof_N 	N 	0.1604	0.8674	0.8409	-0.082
Mof_N 	N 	0.1675	0.1219	0.83	-0.014
Mof_N 	N 	0.8396	0.1326	0.8409	-0.007
Mof_N 	N 	0.8325	0.8781	0.83	-0.085
Mof_Cl	Cl	0.5	0.5	0.5	-1.547
Mof_O 	O 	0.0949	0.1547	0.0583	-0.317
Mof_O 	O 	0.9037	0.0645	0.1526	-0.212
Mof_O 	O 	0.3305	0.0848	0.5136	-0.72
Mof_O 	O 	0.3315	0.2823	0.4974	-0.937
Mof_O 	O 	0.173	0.1911	0.5724	-0.4
Mof_O 	O 	0.8572	0.5412	0.3488	-0.698
Mof_O 	O 	0.8065	0.5826	0.1658	-0.279
Mof_O 	O 	0.673	0.5097	0.2915	-0.536
Mof_O 	O 	0.5835	0.1169	0.3824	-0.701
Mof_O 	O 	0.9051	0.8453	0.0583	-0.154
Mof_O 	O 	0.0963	0.9355	0.1526	-0.182
Mof_O 	O 	0.6695	0.9152	0.5136	-0.588
Mof_O 	O 	0.6685	0.7177	0.4974	-0.932
Mof_O 	O 	0.827	0.8089	0.5724	-0.296
Mof_O 	O 	0.1428	0.4588	0.3488	-0.779
Mof_O 	O 	0.1935	0.4174	0.1658	-0.339
Mof_O 	O 	0.327	0.4903	0.2915	-0.541
Mof_O 	O 	0.4165	0.8831	0.3824	-0.603
Mof_O 	O 	0.1547	0.9051	0.9417	-0.139
Mof_O 	O 	0.0645	0.0963	0.8474	-0.297
Mof_O 	O 	0.0848	0.6695	0.4864	-0.706
Mof_O 	O 	0.2823	0.6685	0.5026	-0.93
Mof_O 	O 	0.1911	0.827	0.4276	-0.335
Mof_O 	O 	0.5412	0.1428	0.6512	-0.777
Mof_O 	O 	0.5826	0.1935	0.8342	-0.307
Mof_O 	O 	0.5097	0.327	0.7085	-0.531
Mof_O 	O 	0.1169	0.4165	0.6176	-0.697
Mof_O 	O 	0.8453	0.0949	0.9417	-0.198
Mof_O 	O 	0.9355	0.9037	0.8474	-0.057
Mof_O 	O 	0.9152	0.3305	0.4864	-0.599
Mof_O 	O 	0.7177	0.3315	0.5026	-0.938
Mof_O 	O 	0.8089	0.173	0.4276	-0.357
Mof_O 	O 	0.4588	0.8572	0.6512	-0.694
Mof_O 	O 	0.4174	0.8065	0.8342	-0.246
Mof_O 	O 	0.4903	0.673	0.7085	-0.524
Mof_O 	O 	0.8831	0.5835	0.6176	-0.6
_end
