data_functionalizedCrystal
_audit_creation_method	'EQeq! by Chris Wilmer'
_symmetry_space_group_name_H-M	'P1'
_symmetry_Int_Tables_number	1
_symmetry_cell_setting	triclinic
loop_
_symmetry_equiv_pos_as_xyz
  x,y,z
_cell_length_a	31.4206
_cell_length_b	31.4206
_cell_length_c	44.8239
_cell_angle_alpha	90
_cell_angle_beta	90
_cell_angle_gamma	90
loop_
_atom_site_label
_atom_site_type_symbol
_atom_site_fract_x
_atom_site_fract_y
_atom_site_fract_z
_atom_site_charge
Mof_O 	O 	0.9095	0.79963	0.10787	-0.387
Mof_O 	O 	0.87708	0.75838	0.14185	-0.371
Mof_C 	C 	0.89843	0.76417	0.11826	0.326
Mof_C 	C 	0.91244	0.7253	0.10152	-0.027
Mof_C 	C 	0.89748	0.68574	0.10978	-0.091
Mof_H 	H 	0.8786	0.683	0.1256	0.09
Mof_C 	C 	0.91113	0.6499	0.09406	0.114
Mof_N 	N 	0.89503	0.60887	0.10116	-0.094
Mof_C 	C 	0.86656	0.59729	0.12206	0.011
Mof_H 	H 	0.8531	0.6153	0.1355	0.039
Mof_Cu	Cu	0.64013	0.69408	0.33238	0.93
Mof_Cu	Cu	0.60506	0.64591	0.37392	0.932
Mof_O 	O 	0.65298	0.63951	0.31323	-0.384
Mof_O 	O 	0.00593	0.664	0.03034	-0.393
Mof_O 	O 	0.62575	0.59863	0.34937	-0.377
Mof_O 	O 	0.65032	0.44537	0.34883	-0.384
Mof_O 	O 	0.6932	0.41697	0.31449	-0.375
Mof_O 	O 	0.99666	0.73474	0.03076	-0.396
Mof_O 	O 	0.57585	0.60753	0.40783	-0.398
Mof_H 	H 	0.5533	0.6185	0.413	0.248
Mof_O 	O 	0.66734	0.73433	0.2987	-0.4
Mof_H 	H 	0.6907	0.725	0.2938	0.247
Mof_N 	N 	0.81482	0.34745	0.12117	-0.094
Mof_C 	C 	0.9414	0.72935	0.07833	-0.02
Mof_H 	H 	0.951	0.7561	0.0726	0.074
Mof_C 	C 	0.65756	0.52554	0.32353	-0.021
Mof_H 	H 	0.6422	0.523	0.3412	0.08
Mof_C 	C 	0.66232	0.56506	0.3104	-0.026
Mof_C 	C 	0.67565	0.48943	0.31044	-0.029
Mof_C 	C 	0.67285	0.44732	0.32564	0.335
Mof_C 	C 	0.95586	0.69356	0.06374	-0.033
Mof_N 	N 	0.72621	0.53874	0.24402	-0.093
Mof_C 	C 	0.94085	0.65311	0.0715	-0.086
Mof_H 	H 	0.9507	0.629	0.0617	0.096
Mof_C 	C 	0.85502	0.31508	0.08073	-0.086
Mof_H 	H 	0.86	0.3418	0.0725	0.085
Mof_C 	C 	0.6845	0.56916	0.28377	-0.088
Mof_H 	H 	0.6872	0.5956	0.2747	0.099
Mof_C 	C 	0.64537	0.60427	0.32558	0.334
Mof_C 	C 	0.98888	0.69761	0.03975	0.339
Mof_C 	C 	0.83041	0.31112	0.10628	0.114
Mof_C 	C 	0.8232	0.27146	0.11875	-0.085
Mof_H 	H 	0.8071	0.269	0.1361	0.097
Mof_C 	C 	0.69799	0.49338	0.28375	-0.087
Mof_H 	H 	0.7098	0.4695	0.2746	0.091
Mof_C 	C 	0.70246	0.53343	0.27092	0.115
Mof_C 	C 	0.7631	0.53042	0.2034	0.034
Mof_C 	C 	0.74267	0.50985	0.22557	0.012
Mof_H 	H 	0.7404	0.4805	0.2276	0.039
Mof_C 	C 	0.8039	0.41112	0.13887	0.034
Mof_C 	C 	0.78378	0.47134	0.17058	-0.136
Mof_H 	H 	0.7666	0.453	0.1815	0.096
Mof_C 	C 	0.8113	0.54169	0.16133	-0.136
Mof_H 	H 	0.8116	0.5706	0.1658	0.096
Mof_C 	C 	0.82691	0.38841	0.11897	0.01
Mof_H 	H 	0.8474	0.3992	0.1061	0.037
Mof_C 	C 	0.8074	0.45608	0.14649	0.082
Mof_C 	C 	0.8611	0.55432	0.1199	0.032
Mof_C 	C 	0.7861	0.51403	0.17808	0.084
Mof_C 	C 	0.83314	0.48392	0.13	-0.135
Mof_H 	H 	0.8484	0.4738	0.1137	0.094
Mof_C 	C 	0.8359	0.52629	0.13796	0.084
Mof_C 	C 	0.90128	0.28369	0.04094	0.345
Mof_C 	C 	0.87219	0.27922	0.06748	-0.034
Mof_C 	C 	0.86468	0.23901	0.07963	-0.018
Mof_H 	H 	0.876	0.2148	0.0706	0.077
Mof_C 	C 	0.84009	0.23545	0.10537	-0.031
Mof_O 	O 	0.90739	0.32087	0.0313	-0.401
Mof_O 	O 	0.91735	0.25042	0.03087	-0.399
Mof_C 	C 	0.83413	0.19276	0.12005	0.342
Mof_O 	O 	0.85132	0.1615	0.10736	-0.377
Mof_O 	O 	0.81312	0.19171	0.14343	-0.391
Mof_N 	N 	0.8856	0.54149	0.09817	-0.074
Mof_N 	N 	0.9029	0.57604	0.08436	-0.041
Mof_N 	N 	0.781	0.38374	0.1536	-0.072
Mof_N 	N 	0.7604	0.5703	0.20979	-0.072
Mof_N 	N 	0.7883	0.34446	0.14337	-0.038
Mof_N 	N 	0.7368	0.57617	0.23467	-0.038
Mof_O 	O 	0.4095	0.29963	0.60787	-0.386
Mof_O 	O 	0.37708	0.25838	0.64185	-0.37
Mof_C 	C 	0.39843	0.26417	0.61826	0.327
Mof_C 	C 	0.41244	0.2253	0.60152	-0.025
Mof_C 	C 	0.39748	0.18574	0.60978	-0.09
Mof_H 	H 	0.3786	0.183	0.6256	0.091
Mof_C 	C 	0.41113	0.1499	0.59406	0.115
Mof_N 	N 	0.39503	0.10887	0.60116	-0.093
Mof_C 	C 	0.36656	0.09729	0.62206	0.011
Mof_H 	H 	0.3531	0.1153	0.6355	0.04
Mof_Cu	Cu	0.14013	0.19408	0.83238	0.93
Mof_Cu	Cu	0.10506	0.14591	0.87392	0.932
Mof_O 	O 	0.15298	0.13951	0.81323	-0.384
Mof_O 	O 	0.50593	0.164	0.53034	-0.392
Mof_O 	O 	0.12575	0.09863	0.84937	-0.377
Mof_O 	O 	0.15032	0.94537	0.84883	-0.384
Mof_O 	O 	0.1932	0.91697	0.81449	-0.375
Mof_O 	O 	0.49666	0.23474	0.53076	-0.395
Mof_O 	O 	0.07585	0.10753	0.90783	-0.398
Mof_H 	H 	0.0533	0.1185	0.913	0.249
Mof_O 	O 	0.16734	0.23433	0.7987	-0.4
Mof_H 	H 	0.1907	0.225	0.7938	0.247
Mof_N 	N 	0.31482	0.84745	0.62117	-0.094
Mof_C 	C 	0.4414	0.22935	0.57833	-0.021
Mof_H 	H 	0.451	0.2561	0.5726	0.074
Mof_C 	C 	0.15756	0.02554	0.82353	-0.021
Mof_H 	H 	0.1422	0.023	0.8412	0.08
Mof_C 	C 	0.16232	0.06506	0.8104	-0.026
Mof_C 	C 	0.17565	0.98943	0.81044	-0.029
Mof_C 	C 	0.17285	0.94732	0.82564	0.335
Mof_C 	C 	0.45586	0.19356	0.56374	-0.032
Mof_N 	N 	0.22621	0.03874	0.74402	-0.093
Mof_C 	C 	0.44085	0.15311	0.5715	-0.086
Mof_H 	H 	0.4507	0.129	0.5617	0.096
Mof_C 	C 	0.35502	0.81508	0.58073	-0.086
Mof_H 	H 	0.36	0.8418	0.5725	0.085
Mof_C 	C 	0.1845	0.06916	0.78377	-0.088
Mof_H 	H 	0.1872	0.0956	0.7747	0.099
Mof_C 	C 	0.14537	0.10427	0.82558	0.334
Mof_C 	C 	0.48888	0.19761	0.53975	0.339
Mof_C 	C 	0.33041	0.81112	0.60628	0.114
Mof_C 	C 	0.3232	0.77146	0.61875	-0.085
Mof_H 	H 	0.3071	0.769	0.6361	0.097
Mof_C 	C 	0.19799	0.99338	0.78375	-0.087
Mof_H 	H 	0.2098	0.9695	0.7746	0.091
Mof_C 	C 	0.20246	0.03343	0.77092	0.115
Mof_C 	C 	0.2631	0.03042	0.7034	0.034
Mof_C 	C 	0.24267	0.00985	0.72557	0.012
Mof_H 	H 	0.2404	0.9805	0.7276	0.039
Mof_C 	C 	0.3039	0.91112	0.63887	0.034
Mof_C 	C 	0.28378	0.97134	0.67058	-0.136
Mof_H 	H 	0.2666	0.953	0.6815	0.097
Mof_C 	C 	0.3113	0.04169	0.66133	-0.136
Mof_H 	H 	0.3116	0.0706	0.6658	0.096
Mof_C 	C 	0.32691	0.88841	0.61897	0.01
Mof_H 	H 	0.3474	0.8992	0.6061	0.037
Mof_C 	C 	0.3074	0.95608	0.64649	0.082
Mof_C 	C 	0.3611	0.05432	0.6199	0.032
Mof_C 	C 	0.2861	0.01403	0.67808	0.084
Mof_C 	C 	0.33314	0.98392	0.63	-0.135
Mof_H 	H 	0.3484	0.9738	0.6137	0.094
Mof_C 	C 	0.3359	0.02629	0.63796	0.084
Mof_C 	C 	0.40128	0.78369	0.54094	0.345
Mof_C 	C 	0.37219	0.77922	0.56748	-0.033
Mof_C 	C 	0.36468	0.73901	0.57963	-0.018
Mof_H 	H 	0.376	0.7148	0.5706	0.077
Mof_C 	C 	0.34009	0.73545	0.60537	-0.03
Mof_O 	O 	0.40739	0.82087	0.5313	-0.4
Mof_O 	O 	0.41735	0.75042	0.53087	-0.398
Mof_C 	C 	0.33413	0.69276	0.62005	0.342
Mof_O 	O 	0.35132	0.6615	0.60736	-0.377
Mof_O 	O 	0.31312	0.69171	0.64343	-0.391
Mof_N 	N 	0.3856	0.04149	0.59817	-0.074
Mof_N 	N 	0.4029	0.07604	0.58436	-0.04
Mof_N 	N 	0.281	0.88374	0.6536	-0.072
Mof_N 	N 	0.2604	0.0703	0.70979	-0.072
Mof_N 	N 	0.2883	0.84446	0.64337	-0.038
Mof_N 	N 	0.2368	0.07617	0.73467	-0.038
Mof_O 	O 	0.0905	0.20037	0.10787	-0.386
Mof_O 	O 	0.12292	0.24162	0.14185	-0.37
Mof_C 	C 	0.10157	0.23583	0.11826	0.327
Mof_C 	C 	0.08756	0.2747	0.10152	-0.026
Mof_C 	C 	0.10252	0.31426	0.10978	-0.09
Mof_H 	H 	0.1214	0.317	0.1256	0.091
Mof_C 	C 	0.08887	0.3501	0.09406	0.115
Mof_N 	N 	0.10497	0.39113	0.10116	-0.093
Mof_C 	C 	0.13344	0.40271	0.12206	0.011
Mof_H 	H 	0.1469	0.3847	0.1355	0.039
Mof_Cu	Cu	0.35987	0.30592	0.33238	0.93
Mof_Cu	Cu	0.39494	0.35409	0.37392	0.932
Mof_O 	O 	0.34702	0.36049	0.31323	-0.384
Mof_O 	O 	0.99407	0.336	0.03034	-0.393
Mof_O 	O 	0.37425	0.40137	0.34937	-0.377
Mof_O 	O 	0.34968	0.55463	0.34883	-0.384
Mof_O 	O 	0.3068	0.58303	0.31449	-0.375
Mof_O 	O 	0.00334	0.26526	0.03076	-0.396
Mof_O 	O 	0.42415	0.39247	0.40783	-0.398
Mof_H 	H 	0.4467	0.3815	0.413	0.248
Mof_O 	O 	0.33266	0.26567	0.2987	-0.4
Mof_H 	H 	0.3093	0.275	0.2938	0.247
Mof_N 	N 	0.18518	0.65255	0.12117	-0.094
Mof_C 	C 	0.0586	0.27065	0.07833	-0.02
Mof_H 	H 	0.049	0.2439	0.0726	0.074
Mof_C 	C 	0.34244	0.47446	0.32353	-0.021
Mof_H 	H 	0.3578	0.477	0.3412	0.08
Mof_C 	C 	0.33768	0.43494	0.3104	-0.026
Mof_C 	C 	0.32435	0.51057	0.31044	-0.029
Mof_C 	C 	0.32715	0.55268	0.32564	0.335
Mof_C 	C 	0.04414	0.30644	0.06374	-0.033
Mof_N 	N 	0.27379	0.46126	0.24402	-0.093
Mof_C 	C 	0.05915	0.34689	0.0715	-0.086
Mof_H 	H 	0.0493	0.371	0.0617	0.096
Mof_C 	C 	0.14498	0.68492	0.08073	-0.086
Mof_H 	H 	0.14	0.6582	0.0725	0.085
Mof_C 	C 	0.3155	0.43084	0.28377	-0.088
Mof_H 	H 	0.3128	0.4044	0.2747	0.099
Mof_C 	C 	0.35463	0.39573	0.32558	0.334
Mof_C 	C 	0.01112	0.30239	0.03975	0.339
Mof_C 	C 	0.16959	0.68888	0.10628	0.114
Mof_C 	C 	0.1768	0.72854	0.11875	-0.085
Mof_H 	H 	0.1929	0.731	0.1361	0.097
Mof_C 	C 	0.30201	0.50662	0.28375	-0.087
Mof_H 	H 	0.2902	0.5305	0.2746	0.091
Mof_C 	C 	0.29754	0.46657	0.27092	0.115
Mof_C 	C 	0.2369	0.46958	0.2034	0.034
Mof_C 	C 	0.25733	0.49015	0.22557	0.012
Mof_H 	H 	0.2596	0.5195	0.2276	0.039
Mof_C 	C 	0.1961	0.58888	0.13887	0.034
Mof_C 	C 	0.21622	0.52866	0.17058	-0.136
Mof_H 	H 	0.2334	0.547	0.1815	0.096
Mof_C 	C 	0.1887	0.45831	0.16133	-0.136
Mof_H 	H 	0.1884	0.4294	0.1658	0.096
Mof_C 	C 	0.17309	0.61159	0.11897	0.01
Mof_H 	H 	0.1526	0.6008	0.1061	0.037
Mof_C 	C 	0.1926	0.54392	0.14649	0.082
Mof_C 	C 	0.1389	0.44568	0.1199	0.032
Mof_C 	C 	0.2139	0.48597	0.17808	0.084
Mof_C 	C 	0.16686	0.51608	0.13	-0.135
Mof_H 	H 	0.1516	0.5262	0.1137	0.094
Mof_C 	C 	0.1641	0.47371	0.13796	0.084
Mof_C 	C 	0.09872	0.71631	0.04094	0.345
Mof_C 	C 	0.12781	0.72078	0.06748	-0.034
Mof_C 	C 	0.13532	0.76099	0.07963	-0.018
Mof_H 	H 	0.124	0.7852	0.0706	0.077
Mof_C 	C 	0.15991	0.76455	0.10537	-0.031
Mof_O 	O 	0.09261	0.67913	0.0313	-0.401
Mof_O 	O 	0.08265	0.74958	0.03087	-0.399
Mof_C 	C 	0.16587	0.80724	0.12005	0.342
Mof_O 	O 	0.14868	0.8385	0.10736	-0.377
Mof_O 	O 	0.18688	0.80829	0.14343	-0.391
Mof_N 	N 	0.1144	0.45851	0.09817	-0.074
Mof_N 	N 	0.0971	0.42396	0.08436	-0.041
Mof_N 	N 	0.219	0.61626	0.1536	-0.072
Mof_N 	N 	0.2396	0.4297	0.20979	-0.072
Mof_N 	N 	0.2117	0.65554	0.14337	-0.038
Mof_N 	N 	0.2632	0.42383	0.23467	-0.038
Mof_O 	O 	0.5905	0.70037	0.60787	-0.386
Mof_O 	O 	0.62292	0.74162	0.64185	-0.37
Mof_C 	C 	0.60157	0.73583	0.61826	0.327
Mof_C 	C 	0.58756	0.7747	0.60152	-0.025
Mof_C 	C 	0.60252	0.81426	0.60978	-0.09
Mof_H 	H 	0.6214	0.817	0.6256	0.091
Mof_C 	C 	0.58887	0.8501	0.59406	0.115
Mof_N 	N 	0.60497	0.89113	0.60116	-0.093
Mof_C 	C 	0.63344	0.90271	0.62206	0.011
Mof_H 	H 	0.6469	0.8847	0.6355	0.04
Mof_Cu	Cu	0.85987	0.80592	0.83238	0.93
Mof_Cu	Cu	0.89494	0.85409	0.87392	0.932
Mof_O 	O 	0.84702	0.86049	0.81323	-0.384
Mof_O 	O 	0.49407	0.836	0.53034	-0.392
Mof_O 	O 	0.87425	0.90137	0.84937	-0.377
Mof_O 	O 	0.84968	0.05463	0.84883	-0.384
Mof_O 	O 	0.8068	0.08303	0.81449	-0.375
Mof_O 	O 	0.50334	0.76526	0.53076	-0.395
Mof_O 	O 	0.92415	0.89247	0.90783	-0.398
Mof_H 	H 	0.9467	0.8815	0.913	0.249
Mof_O 	O 	0.83266	0.76567	0.7987	-0.4
Mof_H 	H 	0.8093	0.775	0.7938	0.247
Mof_N 	N 	0.68518	0.15255	0.62117	-0.094
Mof_C 	C 	0.5586	0.77065	0.57833	-0.021
Mof_H 	H 	0.549	0.7439	0.5726	0.074
Mof_C 	C 	0.84244	0.97446	0.82353	-0.021
Mof_H 	H 	0.8578	0.977	0.8412	0.08
Mof_C 	C 	0.83768	0.93494	0.8104	-0.026
Mof_C 	C 	0.82435	0.01057	0.81044	-0.029
Mof_C 	C 	0.82715	0.05268	0.82564	0.335
Mof_C 	C 	0.54414	0.80644	0.56374	-0.032
Mof_N 	N 	0.77379	0.96126	0.74402	-0.093
Mof_C 	C 	0.55915	0.84689	0.5715	-0.086
Mof_H 	H 	0.5493	0.871	0.5617	0.096
Mof_C 	C 	0.64498	0.18492	0.58073	-0.086
Mof_H 	H 	0.64	0.1582	0.5725	0.085
Mof_C 	C 	0.8155	0.93084	0.78377	-0.088
Mof_H 	H 	0.8128	0.9044	0.7747	0.099
Mof_C 	C 	0.85463	0.89573	0.82558	0.334
Mof_C 	C 	0.51112	0.80239	0.53975	0.339
Mof_C 	C 	0.66959	0.18888	0.60628	0.114
Mof_C 	C 	0.6768	0.22854	0.61875	-0.085
Mof_H 	H 	0.6929	0.231	0.6361	0.097
Mof_C 	C 	0.80201	0.00662	0.78375	-0.087
Mof_H 	H 	0.7902	0.0305	0.7746	0.091
Mof_C 	C 	0.79754	0.96657	0.77092	0.115
Mof_C 	C 	0.7369	0.96958	0.7034	0.034
Mof_C 	C 	0.75733	0.99015	0.72557	0.012
Mof_H 	H 	0.7596	0.0195	0.7276	0.039
Mof_C 	C 	0.6961	0.08888	0.63887	0.034
Mof_C 	C 	0.71622	0.02866	0.67058	-0.136
Mof_H 	H 	0.7334	0.047	0.6815	0.097
Mof_C 	C 	0.6887	0.95831	0.66133	-0.136
Mof_H 	H 	0.6884	0.9294	0.6658	0.096
Mof_C 	C 	0.67309	0.11159	0.61897	0.01
Mof_H 	H 	0.6526	0.1008	0.6061	0.037
Mof_C 	C 	0.6926	0.04392	0.64649	0.082
Mof_C 	C 	0.6389	0.94568	0.6199	0.032
Mof_C 	C 	0.7139	0.98597	0.67808	0.084
Mof_C 	C 	0.66686	0.01608	0.63	-0.135
Mof_H 	H 	0.6516	0.0262	0.6137	0.094
Mof_C 	C 	0.6641	0.97371	0.63796	0.084
Mof_C 	C 	0.59872	0.21631	0.54094	0.345
Mof_C 	C 	0.62781	0.22078	0.56748	-0.033
Mof_C 	C 	0.63532	0.26099	0.57963	-0.018
Mof_H 	H 	0.624	0.2852	0.5706	0.077
Mof_C 	C 	0.65991	0.26455	0.60537	-0.03
Mof_O 	O 	0.59261	0.17913	0.5313	-0.4
Mof_O 	O 	0.58265	0.24958	0.53087	-0.398
Mof_C 	C 	0.66587	0.30724	0.62005	0.342
Mof_O 	O 	0.64868	0.3385	0.60736	-0.377
Mof_O 	O 	0.68688	0.30829	0.64343	-0.391
Mof_N 	N 	0.6144	0.95851	0.59817	-0.074
Mof_N 	N 	0.5971	0.92396	0.58436	-0.04
Mof_N 	N 	0.719	0.11626	0.6536	-0.072
Mof_N 	N 	0.7396	0.9297	0.70979	-0.072
Mof_N 	N 	0.7117	0.15554	0.64337	-0.038
Mof_N 	N 	0.7632	0.92383	0.73467	-0.038
Mof_O 	O 	0.20037	0.9095	0.10787	-0.386
Mof_O 	O 	0.24162	0.87708	0.14185	-0.37
Mof_C 	C 	0.23583	0.89843	0.11826	0.327
Mof_C 	C 	0.2747	0.91244	0.10152	-0.026
Mof_C 	C 	0.31426	0.89748	0.10978	-0.09
Mof_H 	H 	0.317	0.8786	0.1256	0.091
Mof_C 	C 	0.3501	0.91113	0.09406	0.115
Mof_N 	N 	0.39113	0.89503	0.10116	-0.093
Mof_C 	C 	0.40271	0.86656	0.12206	0.011
Mof_H 	H 	0.3847	0.8531	0.1355	0.039
Mof_Cu	Cu	0.30592	0.64013	0.33238	0.93
Mof_Cu	Cu	0.35409	0.60506	0.37392	0.932
Mof_O 	O 	0.36049	0.65298	0.31323	-0.384
Mof_O 	O 	0.336	0.00593	0.03034	-0.393
Mof_O 	O 	0.40137	0.62575	0.34937	-0.377
Mof_O 	O 	0.55463	0.65032	0.34883	-0.384
Mof_O 	O 	0.58303	0.6932	0.31449	-0.375
Mof_O 	O 	0.26526	0.99666	0.03076	-0.396
Mof_O 	O 	0.39247	0.57585	0.40783	-0.398
Mof_H 	H 	0.3815	0.5533	0.413	0.248
Mof_O 	O 	0.26567	0.66734	0.2987	-0.4
Mof_H 	H 	0.275	0.6907	0.2938	0.247
Mof_N 	N 	0.65255	0.81482	0.12117	-0.094
Mof_C 	C 	0.27065	0.9414	0.07833	-0.02
Mof_H 	H 	0.2439	0.951	0.0726	0.074
Mof_C 	C 	0.47446	0.65756	0.32353	-0.021
Mof_H 	H 	0.477	0.6422	0.3412	0.08
Mof_C 	C 	0.43494	0.66232	0.3104	-0.026
Mof_C 	C 	0.51057	0.67565	0.31044	-0.029
Mof_C 	C 	0.55268	0.67285	0.32564	0.335
Mof_C 	C 	0.30644	0.95586	0.06374	-0.033
Mof_N 	N 	0.46126	0.72621	0.24402	-0.093
Mof_C 	C 	0.34689	0.94085	0.0715	-0.086
Mof_H 	H 	0.371	0.9507	0.0617	0.096
Mof_C 	C 	0.68492	0.85502	0.08073	-0.086
Mof_H 	H 	0.6582	0.86	0.0725	0.085
Mof_C 	C 	0.43084	0.6845	0.28377	-0.088
Mof_H 	H 	0.4044	0.6872	0.2747	0.099
Mof_C 	C 	0.39573	0.64537	0.32558	0.334
Mof_C 	C 	0.30239	0.98888	0.03975	0.339
Mof_C 	C 	0.68888	0.83041	0.10628	0.114
Mof_C 	C 	0.72854	0.8232	0.11875	-0.085
Mof_H 	H 	0.731	0.8071	0.1361	0.097
Mof_C 	C 	0.50662	0.69799	0.28375	-0.087
Mof_H 	H 	0.5305	0.7098	0.2746	0.091
Mof_C 	C 	0.46657	0.70246	0.27092	0.115
Mof_C 	C 	0.46958	0.7631	0.2034	0.034
Mof_C 	C 	0.49015	0.74267	0.22557	0.012
Mof_H 	H 	0.5195	0.7404	0.2276	0.039
Mof_C 	C 	0.58888	0.8039	0.13887	0.034
Mof_C 	C 	0.52866	0.78378	0.17058	-0.136
Mof_H 	H 	0.547	0.7666	0.1815	0.096
Mof_C 	C 	0.45831	0.8113	0.16133	-0.136
Mof_H 	H 	0.4294	0.8116	0.1658	0.096
Mof_C 	C 	0.61159	0.82691	0.11897	0.01
Mof_H 	H 	0.6008	0.8474	0.1061	0.037
Mof_C 	C 	0.54392	0.8074	0.14649	0.082
Mof_C 	C 	0.44568	0.8611	0.1199	0.032
Mof_C 	C 	0.48597	0.7861	0.17808	0.084
Mof_C 	C 	0.51608	0.83314	0.13	-0.135
Mof_H 	H 	0.5262	0.8484	0.1137	0.094
Mof_C 	C 	0.47371	0.8359	0.13796	0.084
Mof_C 	C 	0.71631	0.90128	0.04094	0.345
Mof_C 	C 	0.72078	0.87219	0.06748	-0.034
Mof_C 	C 	0.76099	0.86468	0.07963	-0.018
Mof_H 	H 	0.7852	0.876	0.0706	0.077
Mof_C 	C 	0.76455	0.84009	0.10537	-0.031
Mof_O 	O 	0.67913	0.90739	0.0313	-0.401
Mof_O 	O 	0.74958	0.91735	0.03087	-0.399
Mof_C 	C 	0.80724	0.83413	0.12005	0.342
Mof_O 	O 	0.8385	0.85132	0.10736	-0.377
Mof_O 	O 	0.80829	0.81312	0.14343	-0.391
Mof_N 	N 	0.45851	0.8856	0.09817	-0.074
Mof_N 	N 	0.42396	0.9029	0.08436	-0.041
Mof_N 	N 	0.61626	0.781	0.1536	-0.072
Mof_N 	N 	0.4297	0.7604	0.20979	-0.072
Mof_N 	N 	0.65554	0.7883	0.14337	-0.038
Mof_N 	N 	0.42383	0.7368	0.23467	-0.038
Mof_O 	O 	0.70037	0.4095	0.60787	-0.386
Mof_O 	O 	0.74162	0.37708	0.64185	-0.37
Mof_C 	C 	0.73583	0.39843	0.61826	0.327
Mof_C 	C 	0.7747	0.41244	0.60152	-0.025
Mof_C 	C 	0.81426	0.39748	0.60978	-0.09
Mof_H 	H 	0.817	0.3786	0.6256	0.091
Mof_C 	C 	0.8501	0.41113	0.59406	0.115
Mof_N 	N 	0.89113	0.39503	0.60116	-0.093
Mof_C 	C 	0.90271	0.36656	0.62206	0.011
Mof_H 	H 	0.8847	0.3531	0.6355	0.04
Mof_Cu	Cu	0.80592	0.14013	0.83238	0.93
Mof_Cu	Cu	0.85409	0.10506	0.87392	0.932
Mof_O 	O 	0.86049	0.15298	0.81323	-0.384
Mof_O 	O 	0.836	0.50593	0.53034	-0.392
Mof_O 	O 	0.90137	0.12575	0.84937	-0.377
Mof_O 	O 	0.05463	0.15032	0.84883	-0.384
Mof_O 	O 	0.08303	0.1932	0.81449	-0.375
Mof_O 	O 	0.76526	0.49666	0.53076	-0.395
Mof_O 	O 	0.89247	0.07585	0.90783	-0.398
Mof_H 	H 	0.8815	0.0533	0.913	0.249
Mof_O 	O 	0.76567	0.16734	0.7987	-0.4
Mof_H 	H 	0.775	0.1907	0.7938	0.247
Mof_N 	N 	0.15255	0.31482	0.62117	-0.094
Mof_C 	C 	0.77065	0.4414	0.57833	-0.021
Mof_H 	H 	0.7439	0.451	0.5726	0.074
Mof_C 	C 	0.97446	0.15756	0.82353	-0.021
Mof_H 	H 	0.977	0.1422	0.8412	0.08
Mof_C 	C 	0.93494	0.16232	0.8104	-0.026
Mof_C 	C 	0.01057	0.17565	0.81044	-0.029
Mof_C 	C 	0.05268	0.17285	0.82564	0.335
Mof_C 	C 	0.80644	0.45586	0.56374	-0.032
Mof_N 	N 	0.96126	0.22621	0.74402	-0.093
Mof_C 	C 	0.84689	0.44085	0.5715	-0.086
Mof_H 	H 	0.871	0.4507	0.5617	0.096
Mof_C 	C 	0.18492	0.35502	0.58073	-0.086
Mof_H 	H 	0.1582	0.36	0.5725	0.085
Mof_C 	C 	0.93084	0.1845	0.78377	-0.088
Mof_H 	H 	0.9044	0.1872	0.7747	0.099
Mof_C 	C 	0.89573	0.14537	0.82558	0.334
Mof_C 	C 	0.80239	0.48888	0.53975	0.339
Mof_C 	C 	0.18888	0.33041	0.60628	0.114
Mof_C 	C 	0.22854	0.3232	0.61875	-0.085
Mof_H 	H 	0.231	0.3071	0.6361	0.097
Mof_C 	C 	0.00662	0.19799	0.78375	-0.087
Mof_H 	H 	0.0305	0.2098	0.7746	0.091
Mof_C 	C 	0.96657	0.20246	0.77092	0.115
Mof_C 	C 	0.96958	0.2631	0.7034	0.034
Mof_C 	C 	0.99015	0.24267	0.72557	0.012
Mof_H 	H 	0.0195	0.2404	0.7276	0.039
Mof_C 	C 	0.08888	0.3039	0.63887	0.034
Mof_C 	C 	0.02866	0.28378	0.67058	-0.136
Mof_H 	H 	0.047	0.2666	0.6815	0.097
Mof_C 	C 	0.95831	0.3113	0.66133	-0.136
Mof_H 	H 	0.9294	0.3116	0.6658	0.096
Mof_C 	C 	0.11159	0.32691	0.61897	0.01
Mof_H 	H 	0.1008	0.3474	0.6061	0.037
Mof_C 	C 	0.04392	0.3074	0.64649	0.082
Mof_C 	C 	0.94568	0.3611	0.6199	0.032
Mof_C 	C 	0.98597	0.2861	0.67808	0.084
Mof_C 	C 	0.01608	0.33314	0.63	-0.135
Mof_H 	H 	0.0262	0.3484	0.6137	0.094
Mof_C 	C 	0.97371	0.3359	0.63796	0.084
Mof_C 	C 	0.21631	0.40128	0.54094	0.345
Mof_C 	C 	0.22078	0.37219	0.56748	-0.033
Mof_C 	C 	0.26099	0.36468	0.57963	-0.018
Mof_H 	H 	0.2852	0.376	0.5706	0.077
Mof_C 	C 	0.26455	0.34009	0.60537	-0.03
Mof_O 	O 	0.17913	0.40739	0.5313	-0.4
Mof_O 	O 	0.24958	0.41735	0.53087	-0.398
Mof_C 	C 	0.30724	0.33413	0.62005	0.342
Mof_O 	O 	0.3385	0.35132	0.60736	-0.377
Mof_O 	O 	0.30829	0.31312	0.64343	-0.391
Mof_N 	N 	0.95851	0.3856	0.59817	-0.074
Mof_N 	N 	0.92396	0.4029	0.58436	-0.04
Mof_N 	N 	0.11626	0.281	0.6536	-0.072
Mof_N 	N 	0.9297	0.2604	0.70979	-0.072
Mof_N 	N 	0.15554	0.2883	0.64337	-0.038
Mof_N 	N 	0.92383	0.2368	0.73467	-0.038
Mof_O 	O 	0.79963	0.0905	0.10787	-0.386
Mof_O 	O 	0.75838	0.12292	0.14185	-0.37
Mof_C 	C 	0.76417	0.10157	0.11826	0.327
Mof_C 	C 	0.7253	0.08756	0.10152	-0.026
Mof_C 	C 	0.68574	0.10252	0.10978	-0.09
Mof_H 	H 	0.683	0.1214	0.1256	0.091
Mof_C 	C 	0.6499	0.08887	0.09406	0.115
Mof_N 	N 	0.60887	0.10497	0.10116	-0.093
Mof_C 	C 	0.59729	0.13344	0.12206	0.011
Mof_H 	H 	0.6153	0.1469	0.1355	0.039
Mof_Cu	Cu	0.69408	0.35987	0.33238	0.93
Mof_Cu	Cu	0.64591	0.39494	0.37392	0.932
Mof_O 	O 	0.63951	0.34702	0.31323	-0.384
Mof_O 	O 	0.664	0.99407	0.03034	-0.393
Mof_O 	O 	0.59863	0.37425	0.34937	-0.377
Mof_O 	O 	0.44537	0.34968	0.34883	-0.384
Mof_O 	O 	0.41697	0.3068	0.31449	-0.375
Mof_O 	O 	0.73474	0.00334	0.03076	-0.396
Mof_O 	O 	0.60753	0.42415	0.40783	-0.398
Mof_H 	H 	0.6185	0.4467	0.413	0.248
Mof_O 	O 	0.73433	0.33266	0.2987	-0.4
Mof_H 	H 	0.725	0.3093	0.2938	0.247
Mof_N 	N 	0.34745	0.18518	0.12117	-0.094
Mof_C 	C 	0.72935	0.0586	0.07833	-0.02
Mof_H 	H 	0.7561	0.049	0.0726	0.074
Mof_C 	C 	0.52554	0.34244	0.32353	-0.021
Mof_H 	H 	0.523	0.3578	0.3412	0.08
Mof_C 	C 	0.56506	0.33768	0.3104	-0.026
Mof_C 	C 	0.48943	0.32435	0.31044	-0.029
Mof_C 	C 	0.44732	0.32715	0.32564	0.335
Mof_C 	C 	0.69356	0.04414	0.06374	-0.033
Mof_N 	N 	0.53874	0.27379	0.24402	-0.093
Mof_C 	C 	0.65311	0.05915	0.0715	-0.086
Mof_H 	H 	0.629	0.0493	0.0617	0.096
Mof_C 	C 	0.31508	0.14498	0.08073	-0.086
Mof_H 	H 	0.3418	0.14	0.0725	0.085
Mof_C 	C 	0.56916	0.3155	0.28377	-0.088
Mof_H 	H 	0.5956	0.3128	0.2747	0.099
Mof_C 	C 	0.60427	0.35463	0.32558	0.334
Mof_C 	C 	0.69761	0.01112	0.03975	0.339
Mof_C 	C 	0.31112	0.16959	0.10628	0.114
Mof_C 	C 	0.27146	0.1768	0.11875	-0.085
Mof_H 	H 	0.269	0.1929	0.1361	0.097
Mof_C 	C 	0.49338	0.30201	0.28375	-0.087
Mof_H 	H 	0.4695	0.2902	0.2746	0.091
Mof_C 	C 	0.53343	0.29754	0.27092	0.115
Mof_C 	C 	0.53042	0.2369	0.2034	0.034
Mof_C 	C 	0.50985	0.25733	0.22557	0.012
Mof_H 	H 	0.4805	0.2596	0.2276	0.039
Mof_C 	C 	0.41112	0.1961	0.13887	0.034
Mof_C 	C 	0.47134	0.21622	0.17058	-0.136
Mof_H 	H 	0.453	0.2334	0.1815	0.096
Mof_C 	C 	0.54169	0.1887	0.16133	-0.136
Mof_H 	H 	0.5706	0.1884	0.1658	0.096
Mof_C 	C 	0.38841	0.17309	0.11897	0.01
Mof_H 	H 	0.3992	0.1526	0.1061	0.037
Mof_C 	C 	0.45608	0.1926	0.14649	0.082
Mof_C 	C 	0.55432	0.1389	0.1199	0.032
Mof_C 	C 	0.51403	0.2139	0.17808	0.084
Mof_C 	C 	0.48392	0.16686	0.13	-0.135
Mof_H 	H 	0.4738	0.1516	0.1137	0.094
Mof_C 	C 	0.52629	0.1641	0.13796	0.084
Mof_C 	C 	0.28369	0.09872	0.04094	0.345
Mof_C 	C 	0.27922	0.12781	0.06748	-0.034
Mof_C 	C 	0.23901	0.13532	0.07963	-0.018
Mof_H 	H 	0.2148	0.124	0.0706	0.077
Mof_C 	C 	0.23545	0.15991	0.10537	-0.031
Mof_O 	O 	0.32087	0.09261	0.0313	-0.401
Mof_O 	O 	0.25042	0.08265	0.03087	-0.399
Mof_C 	C 	0.19276	0.16587	0.12005	0.342
Mof_O 	O 	0.1615	0.14868	0.10736	-0.377
Mof_O 	O 	0.19171	0.18688	0.14343	-0.391
Mof_N 	N 	0.54149	0.1144	0.09817	-0.074
Mof_N 	N 	0.57604	0.0971	0.08436	-0.041
Mof_N 	N 	0.38374	0.219	0.1536	-0.072
Mof_N 	N 	0.5703	0.2396	0.20979	-0.072
Mof_N 	N 	0.34446	0.2117	0.14337	-0.038
Mof_N 	N 	0.57617	0.2632	0.23467	-0.038
Mof_O 	O 	0.29963	0.5905	0.60787	-0.386
Mof_O 	O 	0.25838	0.62292	0.64185	-0.37
Mof_C 	C 	0.26417	0.60157	0.61826	0.327
Mof_C 	C 	0.2253	0.58756	0.60152	-0.025
Mof_C 	C 	0.18574	0.60252	0.60978	-0.09
Mof_H 	H 	0.183	0.6214	0.6256	0.091
Mof_C 	C 	0.1499	0.58887	0.59406	0.115
Mof_N 	N 	0.10887	0.60497	0.60116	-0.093
Mof_C 	C 	0.09729	0.63344	0.62206	0.011
Mof_H 	H 	0.1153	0.6469	0.6355	0.04
Mof_Cu	Cu	0.19408	0.85987	0.83238	0.93
Mof_Cu	Cu	0.14591	0.89494	0.87392	0.932
Mof_O 	O 	0.13951	0.84702	0.81323	-0.384
Mof_O 	O 	0.164	0.49407	0.53034	-0.392
Mof_O 	O 	0.09863	0.87425	0.84937	-0.377
Mof_O 	O 	0.94537	0.84968	0.84883	-0.384
Mof_O 	O 	0.91697	0.8068	0.81449	-0.375
Mof_O 	O 	0.23474	0.50334	0.53076	-0.395
Mof_O 	O 	0.10753	0.92415	0.90783	-0.398
Mof_H 	H 	0.1185	0.9467	0.913	0.249
Mof_O 	O 	0.23433	0.83266	0.7987	-0.4
Mof_H 	H 	0.225	0.8093	0.7938	0.247
Mof_N 	N 	0.84745	0.68518	0.62117	-0.094
Mof_C 	C 	0.22935	0.5586	0.57833	-0.021
Mof_H 	H 	0.2561	0.549	0.5726	0.074
Mof_C 	C 	0.02554	0.84244	0.82353	-0.021
Mof_H 	H 	0.023	0.8578	0.8412	0.08
Mof_C 	C 	0.06506	0.83768	0.8104	-0.026
Mof_C 	C 	0.98943	0.82435	0.81044	-0.029
Mof_C 	C 	0.94732	0.82715	0.82564	0.335
Mof_C 	C 	0.19356	0.54414	0.56374	-0.032
Mof_N 	N 	0.03874	0.77379	0.74402	-0.093
Mof_C 	C 	0.15311	0.55915	0.5715	-0.086
Mof_H 	H 	0.129	0.5493	0.5617	0.096
Mof_C 	C 	0.81508	0.64498	0.58073	-0.086
Mof_H 	H 	0.8418	0.64	0.5725	0.085
Mof_C 	C 	0.06916	0.8155	0.78377	-0.088
Mof_H 	H 	0.0956	0.8128	0.7747	0.099
Mof_C 	C 	0.10427	0.85463	0.82558	0.334
Mof_C 	C 	0.19761	0.51112	0.53975	0.339
Mof_C 	C 	0.81112	0.66959	0.60628	0.114
Mof_C 	C 	0.77146	0.6768	0.61875	-0.085
Mof_H 	H 	0.769	0.6929	0.6361	0.097
Mof_C 	C 	0.99338	0.80201	0.78375	-0.087
Mof_H 	H 	0.9695	0.7902	0.7746	0.091
Mof_C 	C 	0.03343	0.79754	0.77092	0.115
Mof_C 	C 	0.03042	0.7369	0.7034	0.034
Mof_C 	C 	0.00985	0.75733	0.72557	0.012
Mof_H 	H 	0.9805	0.7596	0.7276	0.039
Mof_C 	C 	0.91112	0.6961	0.63887	0.034
Mof_C 	C 	0.97134	0.71622	0.67058	-0.136
Mof_H 	H 	0.953	0.7334	0.6815	0.097
Mof_C 	C 	0.04169	0.6887	0.66133	-0.136
Mof_H 	H 	0.0706	0.6884	0.6658	0.096
Mof_C 	C 	0.88841	0.67309	0.61897	0.01
Mof_H 	H 	0.8992	0.6526	0.6061	0.037
Mof_C 	C 	0.95608	0.6926	0.64649	0.082
Mof_C 	C 	0.05432	0.6389	0.6199	0.032
Mof_C 	C 	0.01403	0.7139	0.67808	0.084
Mof_C 	C 	0.98392	0.66686	0.63	-0.135
Mof_H 	H 	0.9738	0.6516	0.6137	0.094
Mof_C 	C 	0.02629	0.6641	0.63796	0.084
Mof_C 	C 	0.78369	0.59872	0.54094	0.345
Mof_C 	C 	0.77922	0.62781	0.56748	-0.033
Mof_C 	C 	0.73901	0.63532	0.57963	-0.018
Mof_H 	H 	0.7148	0.624	0.5706	0.077
Mof_C 	C 	0.73545	0.65991	0.60537	-0.03
Mof_O 	O 	0.82087	0.59261	0.5313	-0.4
Mof_O 	O 	0.75042	0.58265	0.53087	-0.398
Mof_C 	C 	0.69276	0.66587	0.62005	0.342
Mof_O 	O 	0.6615	0.64868	0.60736	-0.377
Mof_O 	O 	0.69171	0.68688	0.64343	-0.391
Mof_N 	N 	0.04149	0.6144	0.59817	-0.074
Mof_N 	N 	0.07604	0.5971	0.58436	-0.04
Mof_N 	N 	0.88374	0.719	0.6536	-0.072
Mof_N 	N 	0.0703	0.7396	0.70979	-0.072
Mof_N 	N 	0.84446	0.7117	0.64337	-0.038
Mof_N 	N 	0.07617	0.7632	0.73467	-0.038
Mof_O 	O 	0.0905	0.20037	0.89213	-0.385
Mof_O 	O 	0.12292	0.24162	0.85815	-0.37
Mof_C 	C 	0.10157	0.23583	0.88174	0.326
Mof_C 	C 	0.08756	0.2747	0.89848	-0.025
Mof_C 	C 	0.10252	0.31426	0.89022	-0.09
Mof_H 	H 	0.1214	0.317	0.8744	0.092
Mof_C 	C 	0.08887	0.3501	0.90594	0.115
Mof_N 	N 	0.10497	0.39113	0.89884	-0.093
Mof_C 	C 	0.13344	0.40271	0.87794	0.011
Mof_H 	H 	0.1469	0.3847	0.8645	0.04
Mof_Cu	Cu	0.35987	0.30592	0.66762	0.93
Mof_Cu	Cu	0.39494	0.35409	0.62608	0.932
Mof_O 	O 	0.34702	0.36049	0.68677	-0.384
Mof_O 	O 	0.99407	0.336	0.96966	-0.39
Mof_O 	O 	0.37425	0.40137	0.65063	-0.377
Mof_O 	O 	0.34968	0.55463	0.65117	-0.384
Mof_O 	O 	0.3068	0.58303	0.68551	-0.375
Mof_O 	O 	0.00334	0.26526	0.96924	-0.393
Mof_O 	O 	0.42415	0.39247	0.59217	-0.398
Mof_H 	H 	0.4467	0.3815	0.587	0.248
Mof_O 	O 	0.33266	0.26567	0.7013	-0.4
Mof_H 	H 	0.3093	0.275	0.7062	0.247
Mof_N 	N 	0.18518	0.65255	0.87883	-0.094
Mof_C 	C 	0.0586	0.27065	0.92167	-0.021
Mof_H 	H 	0.049	0.2439	0.9274	0.075
Mof_C 	C 	0.34244	0.47446	0.67647	-0.021
Mof_H 	H 	0.3578	0.477	0.6588	0.08
Mof_C 	C 	0.33768	0.43494	0.6896	-0.026
Mof_C 	C 	0.32435	0.51057	0.68956	-0.029
Mof_C 	C 	0.32715	0.55268	0.67436	0.335
Mof_C 	C 	0.04414	0.30644	0.93626	-0.031
Mof_N 	N 	0.27379	0.46126	0.75598	-0.093
Mof_C 	C 	0.05915	0.34689	0.9285	-0.086
Mof_H 	H 	0.0493	0.371	0.9383	0.097
Mof_C 	C 	0.14498	0.68492	0.91927	-0.087
Mof_H 	H 	0.14	0.6582	0.9275	0.085
Mof_C 	C 	0.3155	0.43084	0.71623	-0.088
Mof_H 	H 	0.3128	0.4044	0.7253	0.099
Mof_C 	C 	0.35463	0.39573	0.67442	0.334
Mof_C 	C 	0.01112	0.30239	0.96025	0.339
Mof_C 	C 	0.16959	0.68888	0.89372	0.114
Mof_C 	C 	0.1768	0.72854	0.88125	-0.086
Mof_H 	H 	0.1929	0.731	0.8639	0.098
Mof_C 	C 	0.30201	0.50662	0.71625	-0.087
Mof_H 	H 	0.2902	0.5305	0.7254	0.091
Mof_C 	C 	0.29754	0.46657	0.72908	0.115
Mof_C 	C 	0.2369	0.46958	0.7966	0.034
Mof_C 	C 	0.25733	0.49015	0.77443	0.012
Mof_H 	H 	0.2596	0.5195	0.7724	0.039
Mof_C 	C 	0.1961	0.58888	0.86113	0.034
Mof_C 	C 	0.21622	0.52866	0.82942	-0.136
Mof_H 	H 	0.2334	0.547	0.8185	0.097
Mof_C 	C 	0.1887	0.45831	0.83867	-0.136
Mof_H 	H 	0.1884	0.4294	0.8342	0.096
Mof_C 	C 	0.17309	0.61159	0.88103	0.01
Mof_H 	H 	0.1526	0.6008	0.8939	0.037
Mof_C 	C 	0.1926	0.54392	0.85351	0.082
Mof_C 	C 	0.1389	0.44568	0.8801	0.033
Mof_C 	C 	0.2139	0.48597	0.82192	0.084
Mof_C 	C 	0.16686	0.51608	0.87	-0.135
Mof_H 	H 	0.1516	0.5262	0.8863	0.094
Mof_C 	C 	0.1641	0.47371	0.86204	0.084
Mof_C 	C 	0.09872	0.71631	0.95906	0.345
Mof_C 	C 	0.12781	0.72078	0.93252	-0.033
Mof_C 	C 	0.13532	0.76099	0.92037	-0.018
Mof_H 	H 	0.124	0.7852	0.9294	0.078
Mof_C 	C 	0.15991	0.76455	0.89463	-0.03
Mof_O 	O 	0.09261	0.67913	0.9687	-0.398
Mof_O 	O 	0.08265	0.74958	0.96913	-0.396
Mof_C 	C 	0.16587	0.80724	0.87995	0.342
Mof_O 	O 	0.14868	0.8385	0.89264	-0.376
Mof_O 	O 	0.18688	0.80829	0.85657	-0.391
Mof_N 	N 	0.1144	0.45851	0.90183	-0.074
Mof_N 	N 	0.0971	0.42396	0.91564	-0.04
Mof_N 	N 	0.219	0.61626	0.8464	-0.072
Mof_N 	N 	0.2396	0.4297	0.79021	-0.072
Mof_N 	N 	0.2117	0.65554	0.85663	-0.038
Mof_N 	N 	0.2632	0.42383	0.76533	-0.038
Mof_O 	O 	0.5905	0.70037	0.39213	-0.386
Mof_O 	O 	0.62292	0.74162	0.35815	-0.37
Mof_C 	C 	0.60157	0.73583	0.38174	0.327
Mof_C 	C 	0.58756	0.7747	0.39848	-0.025
Mof_C 	C 	0.60252	0.81426	0.39022	-0.09
Mof_H 	H 	0.6214	0.817	0.3744	0.091
Mof_C 	C 	0.58887	0.8501	0.40594	0.115
Mof_N 	N 	0.60497	0.89113	0.39884	-0.093
Mof_C 	C 	0.63344	0.90271	0.37794	0.011
Mof_H 	H 	0.6469	0.8847	0.3645	0.04
Mof_Cu	Cu	0.85987	0.80592	0.16762	0.93
Mof_Cu	Cu	0.89494	0.85409	0.12608	0.932
Mof_O 	O 	0.84702	0.86049	0.18677	-0.384
Mof_O 	O 	0.49407	0.836	0.46966	-0.392
Mof_O 	O 	0.87425	0.90137	0.15063	-0.377
Mof_O 	O 	0.84968	0.05463	0.15117	-0.384
Mof_O 	O 	0.8068	0.08303	0.18551	-0.375
Mof_O 	O 	0.50334	0.76526	0.46924	-0.395
Mof_O 	O 	0.92415	0.89247	0.09217	-0.398
Mof_H 	H 	0.9467	0.8815	0.087	0.248
Mof_O 	O 	0.83266	0.76567	0.2013	-0.4
Mof_H 	H 	0.8093	0.775	0.2062	0.247
Mof_N 	N 	0.68518	0.15255	0.37883	-0.094
Mof_C 	C 	0.5586	0.77065	0.42167	-0.021
Mof_H 	H 	0.549	0.7439	0.4274	0.074
Mof_C 	C 	0.84244	0.97446	0.17647	-0.021
Mof_H 	H 	0.8578	0.977	0.1588	0.08
Mof_C 	C 	0.83768	0.93494	0.1896	-0.026
Mof_C 	C 	0.82435	0.01057	0.18956	-0.029
Mof_C 	C 	0.82715	0.05268	0.17436	0.335
Mof_C 	C 	0.54414	0.80644	0.43626	-0.032
Mof_N 	N 	0.77379	0.96126	0.25598	-0.093
Mof_C 	C 	0.55915	0.84689	0.4285	-0.086
Mof_H 	H 	0.5493	0.871	0.4383	0.096
Mof_C 	C 	0.64498	0.18492	0.41927	-0.086
Mof_H 	H 	0.64	0.1582	0.4275	0.085
Mof_C 	C 	0.8155	0.93084	0.21623	-0.088
Mof_H 	H 	0.8128	0.9044	0.2253	0.099
Mof_C 	C 	0.85463	0.89573	0.17442	0.334
Mof_C 	C 	0.51112	0.80239	0.46025	0.339
Mof_C 	C 	0.66959	0.18888	0.39372	0.114
Mof_C 	C 	0.6768	0.22854	0.38125	-0.085
Mof_H 	H 	0.6929	0.231	0.3639	0.097
Mof_C 	C 	0.80201	0.00662	0.21625	-0.087
Mof_H 	H 	0.7902	0.0305	0.2254	0.091
Mof_C 	C 	0.79754	0.96657	0.22908	0.115
Mof_C 	C 	0.7369	0.96958	0.2966	0.034
Mof_C 	C 	0.75733	0.99015	0.27443	0.012
Mof_H 	H 	0.7596	0.0195	0.2724	0.039
Mof_C 	C 	0.6961	0.08888	0.36113	0.034
Mof_C 	C 	0.71622	0.02866	0.32942	-0.136
Mof_H 	H 	0.7334	0.047	0.3185	0.097
Mof_C 	C 	0.6887	0.95831	0.33867	-0.136
Mof_H 	H 	0.6884	0.9294	0.3342	0.096
Mof_C 	C 	0.67309	0.11159	0.38103	0.01
Mof_H 	H 	0.6526	0.1008	0.3939	0.037
Mof_C 	C 	0.6926	0.04392	0.35351	0.082
Mof_C 	C 	0.6389	0.94568	0.3801	0.032
Mof_C 	C 	0.7139	0.98597	0.32192	0.084
Mof_C 	C 	0.66686	0.01608	0.37	-0.135
Mof_H 	H 	0.6516	0.0262	0.3863	0.094
Mof_C 	C 	0.6641	0.97371	0.36204	0.084
Mof_C 	C 	0.59872	0.21631	0.45906	0.345
Mof_C 	C 	0.62781	0.22078	0.43252	-0.033
Mof_C 	C 	0.63532	0.26099	0.42037	-0.018
Mof_H 	H 	0.624	0.2852	0.4294	0.077
Mof_C 	C 	0.65991	0.26455	0.39463	-0.03
Mof_O 	O 	0.59261	0.17913	0.4687	-0.4
Mof_O 	O 	0.58265	0.24958	0.46913	-0.398
Mof_C 	C 	0.66587	0.30724	0.37995	0.342
Mof_O 	O 	0.64868	0.3385	0.39264	-0.377
Mof_O 	O 	0.68688	0.30829	0.35657	-0.391
Mof_N 	N 	0.6144	0.95851	0.40183	-0.074
Mof_N 	N 	0.5971	0.92396	0.41564	-0.04
Mof_N 	N 	0.719	0.11626	0.3464	-0.072
Mof_N 	N 	0.7396	0.9297	0.29021	-0.072
Mof_N 	N 	0.7117	0.15554	0.35663	-0.038
Mof_N 	N 	0.7632	0.92383	0.26533	-0.038
Mof_O 	O 	0.9095	0.79963	0.89213	-0.385
Mof_O 	O 	0.87708	0.75838	0.85815	-0.37
Mof_C 	C 	0.89843	0.76417	0.88174	0.326
Mof_C 	C 	0.91244	0.7253	0.89848	-0.025
Mof_C 	C 	0.89748	0.68574	0.89022	-0.09
Mof_H 	H 	0.8786	0.683	0.8744	0.092
Mof_C 	C 	0.91113	0.6499	0.90594	0.115
Mof_N 	N 	0.89503	0.60887	0.89884	-0.093
Mof_C 	C 	0.86656	0.59729	0.87794	0.011
Mof_H 	H 	0.8531	0.6153	0.8645	0.04
Mof_Cu	Cu	0.64013	0.69408	0.66762	0.93
Mof_Cu	Cu	0.60506	0.64591	0.62608	0.932
Mof_O 	O 	0.65298	0.63951	0.68677	-0.384
Mof_O 	O 	0.00593	0.664	0.96966	-0.39
Mof_O 	O 	0.62575	0.59863	0.65063	-0.377
Mof_O 	O 	0.65032	0.44537	0.65117	-0.384
Mof_O 	O 	0.6932	0.41697	0.68551	-0.375
Mof_O 	O 	0.99666	0.73474	0.96924	-0.393
Mof_O 	O 	0.57585	0.60753	0.59217	-0.398
Mof_H 	H 	0.5533	0.6185	0.587	0.248
Mof_O 	O 	0.66734	0.73433	0.7013	-0.4
Mof_H 	H 	0.6907	0.725	0.7062	0.247
Mof_N 	N 	0.81482	0.34745	0.87883	-0.094
Mof_C 	C 	0.9414	0.72935	0.92167	-0.021
Mof_H 	H 	0.951	0.7561	0.9274	0.075
Mof_C 	C 	0.65756	0.52554	0.67647	-0.021
Mof_H 	H 	0.6422	0.523	0.6588	0.08
Mof_C 	C 	0.66232	0.56506	0.6896	-0.026
Mof_C 	C 	0.67565	0.48943	0.68956	-0.029
Mof_C 	C 	0.67285	0.44732	0.67436	0.335
Mof_C 	C 	0.95586	0.69356	0.93626	-0.031
Mof_N 	N 	0.72621	0.53874	0.75598	-0.093
Mof_C 	C 	0.94085	0.65311	0.9285	-0.086
Mof_H 	H 	0.9507	0.629	0.9383	0.097
Mof_C 	C 	0.85502	0.31508	0.91927	-0.087
Mof_H 	H 	0.86	0.3418	0.9275	0.085
Mof_C 	C 	0.6845	0.56916	0.71623	-0.088
Mof_H 	H 	0.6872	0.5956	0.7253	0.099
Mof_C 	C 	0.64537	0.60427	0.67442	0.334
Mof_C 	C 	0.98888	0.69761	0.96025	0.339
Mof_C 	C 	0.83041	0.31112	0.89372	0.114
Mof_C 	C 	0.8232	0.27146	0.88125	-0.086
Mof_H 	H 	0.8071	0.269	0.8639	0.098
Mof_C 	C 	0.69799	0.49338	0.71625	-0.087
Mof_H 	H 	0.7098	0.4695	0.7254	0.091
Mof_C 	C 	0.70246	0.53343	0.72908	0.115
Mof_C 	C 	0.7631	0.53042	0.7966	0.034
Mof_C 	C 	0.74267	0.50985	0.77443	0.012
Mof_H 	H 	0.7404	0.4805	0.7724	0.039
Mof_C 	C 	0.8039	0.41112	0.86113	0.034
Mof_C 	C 	0.78378	0.47134	0.82942	-0.136
Mof_H 	H 	0.7666	0.453	0.8185	0.097
Mof_C 	C 	0.8113	0.54169	0.83867	-0.136
Mof_H 	H 	0.8116	0.5706	0.8342	0.096
Mof_C 	C 	0.82691	0.38841	0.88103	0.01
Mof_H 	H 	0.8474	0.3992	0.8939	0.037
Mof_C 	C 	0.8074	0.45608	0.85351	0.082
Mof_C 	C 	0.8611	0.55432	0.8801	0.033
Mof_C 	C 	0.7861	0.51403	0.82192	0.084
Mof_C 	C 	0.83314	0.48392	0.87	-0.135
Mof_H 	H 	0.8484	0.4738	0.8863	0.094
Mof_C 	C 	0.8359	0.52629	0.86204	0.084
Mof_C 	C 	0.90128	0.28369	0.95906	0.345
Mof_C 	C 	0.87219	0.27922	0.93252	-0.033
Mof_C 	C 	0.86468	0.23901	0.92037	-0.018
Mof_H 	H 	0.876	0.2148	0.9294	0.078
Mof_C 	C 	0.84009	0.23545	0.89463	-0.03
Mof_O 	O 	0.90739	0.32087	0.9687	-0.398
Mof_O 	O 	0.91735	0.25042	0.96913	-0.396
Mof_C 	C 	0.83413	0.19276	0.87995	0.342
Mof_O 	O 	0.85132	0.1615	0.89264	-0.376
Mof_O 	O 	0.81312	0.19171	0.85657	-0.391
Mof_N 	N 	0.8856	0.54149	0.90183	-0.074
Mof_N 	N 	0.9029	0.57604	0.91564	-0.04
Mof_N 	N 	0.781	0.38374	0.8464	-0.072
Mof_N 	N 	0.7604	0.5703	0.79021	-0.072
Mof_N 	N 	0.7883	0.34446	0.85663	-0.038
Mof_N 	N 	0.7368	0.57617	0.76533	-0.038
Mof_O 	O 	0.4095	0.29963	0.39213	-0.386
Mof_O 	O 	0.37708	0.25838	0.35815	-0.37
Mof_C 	C 	0.39843	0.26417	0.38174	0.327
Mof_C 	C 	0.41244	0.2253	0.39848	-0.025
Mof_C 	C 	0.39748	0.18574	0.39022	-0.09
Mof_H 	H 	0.3786	0.183	0.3744	0.091
Mof_C 	C 	0.41113	0.1499	0.40594	0.115
Mof_N 	N 	0.39503	0.10887	0.39884	-0.093
Mof_C 	C 	0.36656	0.09729	0.37794	0.011
Mof_H 	H 	0.3531	0.1153	0.3645	0.04
Mof_Cu	Cu	0.14013	0.19408	0.16762	0.93
Mof_Cu	Cu	0.10506	0.14591	0.12608	0.932
Mof_O 	O 	0.15298	0.13951	0.18677	-0.384
Mof_O 	O 	0.50593	0.164	0.46966	-0.392
Mof_O 	O 	0.12575	0.09863	0.15063	-0.377
Mof_O 	O 	0.15032	0.94537	0.15117	-0.384
Mof_O 	O 	0.1932	0.91697	0.18551	-0.375
Mof_O 	O 	0.49666	0.23474	0.46924	-0.395
Mof_O 	O 	0.07585	0.10753	0.09217	-0.398
Mof_H 	H 	0.0533	0.1185	0.087	0.248
Mof_O 	O 	0.16734	0.23433	0.2013	-0.4
Mof_H 	H 	0.1907	0.225	0.2062	0.247
Mof_N 	N 	0.31482	0.84745	0.37883	-0.094
Mof_C 	C 	0.4414	0.22935	0.42167	-0.021
Mof_H 	H 	0.451	0.2561	0.4274	0.074
Mof_C 	C 	0.15756	0.02554	0.17647	-0.021
Mof_H 	H 	0.1422	0.023	0.1588	0.08
Mof_C 	C 	0.16232	0.06506	0.1896	-0.026
Mof_C 	C 	0.17565	0.98943	0.18956	-0.029
Mof_C 	C 	0.17285	0.94732	0.17436	0.335
Mof_C 	C 	0.45586	0.19356	0.43626	-0.032
Mof_N 	N 	0.22621	0.03874	0.25598	-0.093
Mof_C 	C 	0.44085	0.15311	0.4285	-0.086
Mof_H 	H 	0.4507	0.129	0.4383	0.096
Mof_C 	C 	0.35502	0.81508	0.41927	-0.086
Mof_H 	H 	0.36	0.8418	0.4275	0.085
Mof_C 	C 	0.1845	0.06916	0.21623	-0.088
Mof_H 	H 	0.1872	0.0956	0.2253	0.099
Mof_C 	C 	0.14537	0.10427	0.17442	0.334
Mof_C 	C 	0.48888	0.19761	0.46025	0.339
Mof_C 	C 	0.33041	0.81112	0.39372	0.114
Mof_C 	C 	0.3232	0.77146	0.38125	-0.085
Mof_H 	H 	0.3071	0.769	0.3639	0.097
Mof_C 	C 	0.19799	0.99338	0.21625	-0.087
Mof_H 	H 	0.2098	0.9695	0.2254	0.091
Mof_C 	C 	0.20246	0.03343	0.22908	0.115
Mof_C 	C 	0.2631	0.03042	0.2966	0.034
Mof_C 	C 	0.24267	0.00985	0.27443	0.012
Mof_H 	H 	0.2404	0.9805	0.2724	0.039
Mof_C 	C 	0.3039	0.91112	0.36113	0.034
Mof_C 	C 	0.28378	0.97134	0.32942	-0.136
Mof_H 	H 	0.2666	0.953	0.3185	0.097
Mof_C 	C 	0.3113	0.04169	0.33867	-0.136
Mof_H 	H 	0.3116	0.0706	0.3342	0.096
Mof_C 	C 	0.32691	0.88841	0.38103	0.01
Mof_H 	H 	0.3474	0.8992	0.3939	0.037
Mof_C 	C 	0.3074	0.95608	0.35351	0.082
Mof_C 	C 	0.3611	0.05432	0.3801	0.032
Mof_C 	C 	0.2861	0.01403	0.32192	0.084
Mof_C 	C 	0.33314	0.98392	0.37	-0.135
Mof_H 	H 	0.3484	0.9738	0.3863	0.094
Mof_C 	C 	0.3359	0.02629	0.36204	0.084
Mof_C 	C 	0.40128	0.78369	0.45906	0.345
Mof_C 	C 	0.37219	0.77922	0.43252	-0.033
Mof_C 	C 	0.36468	0.73901	0.42037	-0.018
Mof_H 	H 	0.376	0.7148	0.4294	0.077
Mof_C 	C 	0.34009	0.73545	0.39463	-0.03
Mof_O 	O 	0.40739	0.82087	0.4687	-0.4
Mof_O 	O 	0.41735	0.75042	0.46913	-0.398
Mof_C 	C 	0.33413	0.69276	0.37995	0.342
Mof_O 	O 	0.35132	0.6615	0.39264	-0.377
Mof_O 	O 	0.31312	0.69171	0.35657	-0.391
Mof_N 	N 	0.3856	0.04149	0.40183	-0.074
Mof_N 	N 	0.4029	0.07604	0.41564	-0.04
Mof_N 	N 	0.281	0.88374	0.3464	-0.072
Mof_N 	N 	0.2604	0.0703	0.29021	-0.072
Mof_N 	N 	0.2883	0.84446	0.35663	-0.038
Mof_N 	N 	0.2368	0.07617	0.26533	-0.038
Mof_O 	O 	0.79963	0.0905	0.89213	-0.385
Mof_O 	O 	0.75838	0.12292	0.85815	-0.37
Mof_C 	C 	0.76417	0.10157	0.88174	0.326
Mof_C 	C 	0.7253	0.08756	0.89848	-0.025
Mof_C 	C 	0.68574	0.10252	0.89022	-0.09
Mof_H 	H 	0.683	0.1214	0.8744	0.092
Mof_C 	C 	0.6499	0.08887	0.90594	0.115
Mof_N 	N 	0.60887	0.10497	0.89884	-0.093
Mof_C 	C 	0.59729	0.13344	0.87794	0.011
Mof_H 	H 	0.6153	0.1469	0.8645	0.04
Mof_Cu	Cu	0.69408	0.35987	0.66762	0.93
Mof_Cu	Cu	0.64591	0.39494	0.62608	0.932
Mof_O 	O 	0.63951	0.34702	0.68677	-0.384
Mof_O 	O 	0.664	0.99407	0.96966	-0.39
Mof_O 	O 	0.59863	0.37425	0.65063	-0.377
Mof_O 	O 	0.44537	0.34968	0.65117	-0.384
Mof_O 	O 	0.41697	0.3068	0.68551	-0.375
Mof_O 	O 	0.73474	0.00334	0.96924	-0.393
Mof_O 	O 	0.60753	0.42415	0.59217	-0.398
Mof_H 	H 	0.6185	0.4467	0.587	0.248
Mof_O 	O 	0.73433	0.33266	0.7013	-0.4
Mof_H 	H 	0.725	0.3093	0.7062	0.247
Mof_N 	N 	0.34745	0.18518	0.87883	-0.094
Mof_C 	C 	0.72935	0.0586	0.92167	-0.021
Mof_H 	H 	0.7561	0.049	0.9274	0.075
Mof_C 	C 	0.52554	0.34244	0.67647	-0.021
Mof_H 	H 	0.523	0.3578	0.6588	0.08
Mof_C 	C 	0.56506	0.33768	0.6896	-0.026
Mof_C 	C 	0.48943	0.32435	0.68956	-0.029
Mof_C 	C 	0.44732	0.32715	0.67436	0.335
Mof_C 	C 	0.69356	0.04414	0.93626	-0.031
Mof_N 	N 	0.53874	0.27379	0.75598	-0.093
Mof_C 	C 	0.65311	0.05915	0.9285	-0.086
Mof_H 	H 	0.629	0.0493	0.9383	0.097
Mof_C 	C 	0.31508	0.14498	0.91927	-0.087
Mof_H 	H 	0.3418	0.14	0.9275	0.085
Mof_C 	C 	0.56916	0.3155	0.71623	-0.088
Mof_H 	H 	0.5956	0.3128	0.7253	0.099
Mof_C 	C 	0.60427	0.35463	0.67442	0.334
Mof_C 	C 	0.69761	0.01112	0.96025	0.339
Mof_C 	C 	0.31112	0.16959	0.89372	0.114
Mof_C 	C 	0.27146	0.1768	0.88125	-0.086
Mof_H 	H 	0.269	0.1929	0.8639	0.098
Mof_C 	C 	0.49338	0.30201	0.71625	-0.087
Mof_H 	H 	0.4695	0.2902	0.7254	0.091
Mof_C 	C 	0.53343	0.29754	0.72908	0.115
Mof_C 	C 	0.53042	0.2369	0.7966	0.034
Mof_C 	C 	0.50985	0.25733	0.77443	0.012
Mof_H 	H 	0.4805	0.2596	0.7724	0.039
Mof_C 	C 	0.41112	0.1961	0.86113	0.034
Mof_C 	C 	0.47134	0.21622	0.82942	-0.136
Mof_H 	H 	0.453	0.2334	0.8185	0.097
Mof_C 	C 	0.54169	0.1887	0.83867	-0.136
Mof_H 	H 	0.5706	0.1884	0.8342	0.096
Mof_C 	C 	0.38841	0.17309	0.88103	0.01
Mof_H 	H 	0.3992	0.1526	0.8939	0.037
Mof_C 	C 	0.45608	0.1926	0.85351	0.082
Mof_C 	C 	0.55432	0.1389	0.8801	0.033
Mof_C 	C 	0.51403	0.2139	0.82192	0.084
Mof_C 	C 	0.48392	0.16686	0.87	-0.135
Mof_H 	H 	0.4738	0.1516	0.8863	0.094
Mof_C 	C 	0.52629	0.1641	0.86204	0.084
Mof_C 	C 	0.28369	0.09872	0.95906	0.345
Mof_C 	C 	0.27922	0.12781	0.93252	-0.033
Mof_C 	C 	0.23901	0.13532	0.92037	-0.018
Mof_H 	H 	0.2148	0.124	0.9294	0.078
Mof_C 	C 	0.23545	0.15991	0.89463	-0.03
Mof_O 	O 	0.32087	0.09261	0.9687	-0.398
Mof_O 	O 	0.25042	0.08265	0.96913	-0.396
Mof_C 	C 	0.19276	0.16587	0.87995	0.342
Mof_O 	O 	0.1615	0.14868	0.89264	-0.376
Mof_O 	O 	0.19171	0.18688	0.85657	-0.391
Mof_N 	N 	0.54149	0.1144	0.90183	-0.074
Mof_N 	N 	0.57604	0.0971	0.91564	-0.04
Mof_N 	N 	0.38374	0.219	0.8464	-0.072
Mof_N 	N 	0.5703	0.2396	0.79021	-0.072
Mof_N 	N 	0.34446	0.2117	0.85663	-0.038
Mof_N 	N 	0.57617	0.2632	0.76533	-0.038
Mof_O 	O 	0.29963	0.5905	0.39213	-0.386
Mof_O 	O 	0.25838	0.62292	0.35815	-0.37
Mof_C 	C 	0.26417	0.60157	0.38174	0.327
Mof_C 	C 	0.2253	0.58756	0.39848	-0.025
Mof_C 	C 	0.18574	0.60252	0.39022	-0.09
Mof_H 	H 	0.183	0.6214	0.3744	0.091
Mof_C 	C 	0.1499	0.58887	0.40594	0.115
Mof_N 	N 	0.10887	0.60497	0.39884	-0.093
Mof_C 	C 	0.09729	0.63344	0.37794	0.011
Mof_H 	H 	0.1153	0.6469	0.3645	0.04
Mof_Cu	Cu	0.19408	0.85987	0.16762	0.93
Mof_Cu	Cu	0.14591	0.89494	0.12608	0.932
Mof_O 	O 	0.13951	0.84702	0.18677	-0.384
Mof_O 	O 	0.164	0.49407	0.46966	-0.392
Mof_O 	O 	0.09863	0.87425	0.15063	-0.377
Mof_O 	O 	0.94537	0.84968	0.15117	-0.384
Mof_O 	O 	0.91697	0.8068	0.18551	-0.375
Mof_O 	O 	0.23474	0.50334	0.46924	-0.395
Mof_O 	O 	0.10753	0.92415	0.09217	-0.398
Mof_H 	H 	0.1185	0.9467	0.087	0.248
Mof_O 	O 	0.23433	0.83266	0.2013	-0.4
Mof_H 	H 	0.225	0.8093	0.2062	0.247
Mof_N 	N 	0.84745	0.68518	0.37883	-0.094
Mof_C 	C 	0.22935	0.5586	0.42167	-0.021
Mof_H 	H 	0.2561	0.549	0.4274	0.074
Mof_C 	C 	0.02554	0.84244	0.17647	-0.021
Mof_H 	H 	0.023	0.8578	0.1588	0.08
Mof_C 	C 	0.06506	0.83768	0.1896	-0.026
Mof_C 	C 	0.98943	0.82435	0.18956	-0.029
Mof_C 	C 	0.94732	0.82715	0.17436	0.335
Mof_C 	C 	0.19356	0.54414	0.43626	-0.032
Mof_N 	N 	0.03874	0.77379	0.25598	-0.093
Mof_C 	C 	0.15311	0.55915	0.4285	-0.086
Mof_H 	H 	0.129	0.5493	0.4383	0.096
Mof_C 	C 	0.81508	0.64498	0.41927	-0.086
Mof_H 	H 	0.8418	0.64	0.4275	0.085
Mof_C 	C 	0.06916	0.8155	0.21623	-0.088
Mof_H 	H 	0.0956	0.8128	0.2253	0.099
Mof_C 	C 	0.10427	0.85463	0.17442	0.334
Mof_C 	C 	0.19761	0.51112	0.46025	0.339
Mof_C 	C 	0.81112	0.66959	0.39372	0.114
Mof_C 	C 	0.77146	0.6768	0.38125	-0.085
Mof_H 	H 	0.769	0.6929	0.3639	0.097
Mof_C 	C 	0.99338	0.80201	0.21625	-0.087
Mof_H 	H 	0.9695	0.7902	0.2254	0.091
Mof_C 	C 	0.03343	0.79754	0.22908	0.115
Mof_C 	C 	0.03042	0.7369	0.2966	0.034
Mof_C 	C 	0.00985	0.75733	0.27443	0.012
Mof_H 	H 	0.9805	0.7596	0.2724	0.039
Mof_C 	C 	0.91112	0.6961	0.36113	0.034
Mof_C 	C 	0.97134	0.71622	0.32942	-0.136
Mof_H 	H 	0.953	0.7334	0.3185	0.097
Mof_C 	C 	0.04169	0.6887	0.33867	-0.136
Mof_H 	H 	0.0706	0.6884	0.3342	0.096
Mof_C 	C 	0.88841	0.67309	0.38103	0.01
Mof_H 	H 	0.8992	0.6526	0.3939	0.037
Mof_C 	C 	0.95608	0.6926	0.35351	0.082
Mof_C 	C 	0.05432	0.6389	0.3801	0.032
Mof_C 	C 	0.01403	0.7139	0.32192	0.084
Mof_C 	C 	0.98392	0.66686	0.37	-0.135
Mof_H 	H 	0.9738	0.6516	0.3863	0.094
Mof_C 	C 	0.02629	0.6641	0.36204	0.084
Mof_C 	C 	0.78369	0.59872	0.45906	0.345
Mof_C 	C 	0.77922	0.62781	0.43252	-0.033
Mof_C 	C 	0.73901	0.63532	0.42037	-0.018
Mof_H 	H 	0.7148	0.624	0.4294	0.077
Mof_C 	C 	0.73545	0.65991	0.39463	-0.03
Mof_O 	O 	0.82087	0.59261	0.4687	-0.4
Mof_O 	O 	0.75042	0.58265	0.46913	-0.398
Mof_C 	C 	0.69276	0.66587	0.37995	0.342
Mof_O 	O 	0.6615	0.64868	0.39264	-0.377
Mof_O 	O 	0.69171	0.68688	0.35657	-0.391
Mof_N 	N 	0.04149	0.6144	0.40183	-0.074
Mof_N 	N 	0.07604	0.5971	0.41564	-0.04
Mof_N 	N 	0.88374	0.719	0.3464	-0.072
Mof_N 	N 	0.0703	0.7396	0.29021	-0.072
Mof_N 	N 	0.84446	0.7117	0.35663	-0.038
Mof_N 	N 	0.07617	0.7632	0.26533	-0.038
Mof_O 	O 	0.20037	0.9095	0.89213	-0.385
Mof_O 	O 	0.24162	0.87708	0.85815	-0.37
Mof_C 	C 	0.23583	0.89843	0.88174	0.326
Mof_C 	C 	0.2747	0.91244	0.89848	-0.025
Mof_C 	C 	0.31426	0.89748	0.89022	-0.09
Mof_H 	H 	0.317	0.8786	0.8744	0.092
Mof_C 	C 	0.3501	0.91113	0.90594	0.115
Mof_N 	N 	0.39113	0.89503	0.89884	-0.093
Mof_C 	C 	0.40271	0.86656	0.87794	0.011
Mof_H 	H 	0.3847	0.8531	0.8645	0.04
Mof_Cu	Cu	0.30592	0.64013	0.66762	0.93
Mof_Cu	Cu	0.35409	0.60506	0.62608	0.932
Mof_O 	O 	0.36049	0.65298	0.68677	-0.384
Mof_O 	O 	0.336	0.00593	0.96966	-0.39
Mof_O 	O 	0.40137	0.62575	0.65063	-0.377
Mof_O 	O 	0.55463	0.65032	0.65117	-0.384
Mof_O 	O 	0.58303	0.6932	0.68551	-0.375
Mof_O 	O 	0.26526	0.99666	0.96924	-0.393
Mof_O 	O 	0.39247	0.57585	0.59217	-0.398
Mof_H 	H 	0.3815	0.5533	0.587	0.248
Mof_O 	O 	0.26567	0.66734	0.7013	-0.4
Mof_H 	H 	0.275	0.6907	0.7062	0.247
Mof_N 	N 	0.65255	0.81482	0.87883	-0.094
Mof_C 	C 	0.27065	0.9414	0.92167	-0.021
Mof_H 	H 	0.2439	0.951	0.9274	0.075
Mof_C 	C 	0.47446	0.65756	0.67647	-0.021
Mof_H 	H 	0.477	0.6422	0.6588	0.08
Mof_C 	C 	0.43494	0.66232	0.6896	-0.026
Mof_C 	C 	0.51057	0.67565	0.68956	-0.029
Mof_C 	C 	0.55268	0.67285	0.67436	0.335
Mof_C 	C 	0.30644	0.95586	0.93626	-0.031
Mof_N 	N 	0.46126	0.72621	0.75598	-0.093
Mof_C 	C 	0.34689	0.94085	0.9285	-0.086
Mof_H 	H 	0.371	0.9507	0.9383	0.097
Mof_C 	C 	0.68492	0.85502	0.91927	-0.087
Mof_H 	H 	0.6582	0.86	0.9275	0.085
Mof_C 	C 	0.43084	0.6845	0.71623	-0.088
Mof_H 	H 	0.4044	0.6872	0.7253	0.099
Mof_C 	C 	0.39573	0.64537	0.67442	0.334
Mof_C 	C 	0.30239	0.98888	0.96025	0.339
Mof_C 	C 	0.68888	0.83041	0.89372	0.114
Mof_C 	C 	0.72854	0.8232	0.88125	-0.086
Mof_H 	H 	0.731	0.8071	0.8639	0.098
Mof_C 	C 	0.50662	0.69799	0.71625	-0.087
Mof_H 	H 	0.5305	0.7098	0.7254	0.091
Mof_C 	C 	0.46657	0.70246	0.72908	0.115
Mof_C 	C 	0.46958	0.7631	0.7966	0.034
Mof_C 	C 	0.49015	0.74267	0.77443	0.012
Mof_H 	H 	0.5195	0.7404	0.7724	0.039
Mof_C 	C 	0.58888	0.8039	0.86113	0.034
Mof_C 	C 	0.52866	0.78378	0.82942	-0.136
Mof_H 	H 	0.547	0.7666	0.8185	0.097
Mof_C 	C 	0.45831	0.8113	0.83867	-0.136
Mof_H 	H 	0.4294	0.8116	0.8342	0.096
Mof_C 	C 	0.61159	0.82691	0.88103	0.01
Mof_H 	H 	0.6008	0.8474	0.8939	0.037
Mof_C 	C 	0.54392	0.8074	0.85351	0.082
Mof_C 	C 	0.44568	0.8611	0.8801	0.033
Mof_C 	C 	0.48597	0.7861	0.82192	0.084
Mof_C 	C 	0.51608	0.83314	0.87	-0.135
Mof_H 	H 	0.5262	0.8484	0.8863	0.094
Mof_C 	C 	0.47371	0.8359	0.86204	0.084
Mof_C 	C 	0.71631	0.90128	0.95906	0.345
Mof_C 	C 	0.72078	0.87219	0.93252	-0.033
Mof_C 	C 	0.76099	0.86468	0.92037	-0.018
Mof_H 	H 	0.7852	0.876	0.9294	0.078
Mof_C 	C 	0.76455	0.84009	0.89463	-0.03
Mof_O 	O 	0.67913	0.90739	0.9687	-0.398
Mof_O 	O 	0.74958	0.91735	0.96913	-0.396
Mof_C 	C 	0.80724	0.83413	0.87995	0.342
Mof_O 	O 	0.8385	0.85132	0.89264	-0.376
Mof_O 	O 	0.80829	0.81312	0.85657	-0.391
Mof_N 	N 	0.45851	0.8856	0.90183	-0.074
Mof_N 	N 	0.42396	0.9029	0.91564	-0.04
Mof_N 	N 	0.61626	0.781	0.8464	-0.072
Mof_N 	N 	0.4297	0.7604	0.79021	-0.072
Mof_N 	N 	0.65554	0.7883	0.85663	-0.038
Mof_N 	N 	0.42383	0.7368	0.76533	-0.038
Mof_O 	O 	0.70037	0.4095	0.39213	-0.386
Mof_O 	O 	0.74162	0.37708	0.35815	-0.37
Mof_C 	C 	0.73583	0.39843	0.38174	0.327
Mof_C 	C 	0.7747	0.41244	0.39848	-0.025
Mof_C 	C 	0.81426	0.39748	0.39022	-0.09
Mof_H 	H 	0.817	0.3786	0.3744	0.091
Mof_C 	C 	0.8501	0.41113	0.40594	0.115
Mof_N 	N 	0.89113	0.39503	0.39884	-0.093
Mof_C 	C 	0.90271	0.36656	0.37794	0.011
Mof_H 	H 	0.8847	0.3531	0.3645	0.04
Mof_Cu	Cu	0.80592	0.14013	0.16762	0.93
Mof_Cu	Cu	0.85409	0.10506	0.12608	0.932
Mof_O 	O 	0.86049	0.15298	0.18677	-0.384
Mof_O 	O 	0.836	0.50593	0.46966	-0.392
Mof_O 	O 	0.90137	0.12575	0.15063	-0.377
Mof_O 	O 	0.05463	0.15032	0.15117	-0.384
Mof_O 	O 	0.08303	0.1932	0.18551	-0.375
Mof_O 	O 	0.76526	0.49666	0.46924	-0.395
Mof_O 	O 	0.89247	0.07585	0.09217	-0.398
Mof_H 	H 	0.8815	0.0533	0.087	0.248
Mof_O 	O 	0.76567	0.16734	0.2013	-0.4
Mof_H 	H 	0.775	0.1907	0.2062	0.247
Mof_N 	N 	0.15255	0.31482	0.37883	-0.094
Mof_C 	C 	0.77065	0.4414	0.42167	-0.021
Mof_H 	H 	0.7439	0.451	0.4274	0.074
Mof_C 	C 	0.97446	0.15756	0.17647	-0.021
Mof_H 	H 	0.977	0.1422	0.1588	0.08
Mof_C 	C 	0.93494	0.16232	0.1896	-0.026
Mof_C 	C 	0.01057	0.17565	0.18956	-0.029
Mof_C 	C 	0.05268	0.17285	0.17436	0.335
Mof_C 	C 	0.80644	0.45586	0.43626	-0.032
Mof_N 	N 	0.96126	0.22621	0.25598	-0.093
Mof_C 	C 	0.84689	0.44085	0.4285	-0.086
Mof_H 	H 	0.871	0.4507	0.4383	0.096
Mof_C 	C 	0.18492	0.35502	0.41927	-0.086
Mof_H 	H 	0.1582	0.36	0.4275	0.085
Mof_C 	C 	0.93084	0.1845	0.21623	-0.088
Mof_H 	H 	0.9044	0.1872	0.2253	0.099
Mof_C 	C 	0.89573	0.14537	0.17442	0.334
Mof_C 	C 	0.80239	0.48888	0.46025	0.339
Mof_C 	C 	0.18888	0.33041	0.39372	0.114
Mof_C 	C 	0.22854	0.3232	0.38125	-0.085
Mof_H 	H 	0.231	0.3071	0.3639	0.097
Mof_C 	C 	0.00662	0.19799	0.21625	-0.087
Mof_H 	H 	0.0305	0.2098	0.2254	0.091
Mof_C 	C 	0.96657	0.20246	0.22908	0.115
Mof_C 	C 	0.96958	0.2631	0.2966	0.034
Mof_C 	C 	0.99015	0.24267	0.27443	0.012
Mof_H 	H 	0.0195	0.2404	0.2724	0.039
Mof_C 	C 	0.08888	0.3039	0.36113	0.034
Mof_C 	C 	0.02866	0.28378	0.32942	-0.136
Mof_H 	H 	0.047	0.2666	0.3185	0.097
Mof_C 	C 	0.95831	0.3113	0.33867	-0.136
Mof_H 	H 	0.9294	0.3116	0.3342	0.096
Mof_C 	C 	0.11159	0.32691	0.38103	0.01
Mof_H 	H 	0.1008	0.3474	0.3939	0.037
Mof_C 	C 	0.04392	0.3074	0.35351	0.082
Mof_C 	C 	0.94568	0.3611	0.3801	0.032
Mof_C 	C 	0.98597	0.2861	0.32192	0.084
Mof_C 	C 	0.01608	0.33314	0.37	-0.135
Mof_H 	H 	0.0262	0.3484	0.3863	0.094
Mof_C 	C 	0.97371	0.3359	0.36204	0.084
Mof_C 	C 	0.21631	0.40128	0.45906	0.345
Mof_C 	C 	0.22078	0.37219	0.43252	-0.033
Mof_C 	C 	0.26099	0.36468	0.42037	-0.018
Mof_H 	H 	0.2852	0.376	0.4294	0.077
Mof_C 	C 	0.26455	0.34009	0.39463	-0.03
Mof_O 	O 	0.17913	0.40739	0.4687	-0.4
Mof_O 	O 	0.24958	0.41735	0.46913	-0.398
Mof_C 	C 	0.30724	0.33413	0.37995	0.342
Mof_O 	O 	0.3385	0.35132	0.39264	-0.377
Mof_O 	O 	0.30829	0.31312	0.35657	-0.391
Mof_N 	N 	0.95851	0.3856	0.40183	-0.074
Mof_N 	N 	0.92396	0.4029	0.41564	-0.04
Mof_N 	N 	0.11626	0.281	0.3464	-0.072
Mof_N 	N 	0.9297	0.2604	0.29021	-0.072
Mof_N 	N 	0.15554	0.2883	0.35663	-0.038
Mof_N 	N 	0.92383	0.2368	0.26533	-0.038
Mof_Cu	Cu	0.03886	0.74863	-0	0.906
Mof_Cu	Cu	0.05112	0.66548	-0	0.903
Mof_Cu	Cu	0.53886	0.24863	0.5	0.908
Mof_Cu	Cu	0.55112	0.16548	0.5	0.904
Mof_Cu	Cu	0.96114	0.25137	-0	0.906
Mof_Cu	Cu	0.94888	0.33452	-0	0.903
Mof_Cu	Cu	0.46114	0.75137	0.5	0.908
Mof_Cu	Cu	0.44888	0.83452	0.5	0.904
Mof_Cu	Cu	0.25137	0.03886	-0	0.906
Mof_Cu	Cu	0.33452	0.05112	-0	0.903
Mof_Cu	Cu	0.75137	0.53886	0.5	0.908
Mof_Cu	Cu	0.83452	0.55112	0.5	0.904
Mof_Cu	Cu	0.74863	0.96114	-0	0.906
Mof_Cu	Cu	0.66548	0.94888	-0	0.903
Mof_Cu	Cu	0.24863	0.46114	0.5	0.908
Mof_Cu	Cu	0.16548	0.44888	0.5	0.904
_end
