data_functionalizedCrystal
_audit_creation_method	'EQeq! by Chris Wilmer'
_symmetry_space_group_name_H-M	'P1'
_symmetry_Int_Tables_number	1
_symmetry_cell_setting	triclinic
loop_
_symmetry_equiv_pos_as_xyz
  x,y,z
_cell_length_a	13.717
_cell_length_b	13.717
_cell_length_c	58.97
_cell_angle_alpha	90
_cell_angle_beta	90
_cell_angle_gamma	120
loop_
_atom_site_label
_atom_site_type_symbol
_atom_site_fract_x
_atom_site_fract_y
_atom_site_fract_z
_atom_site_charge
Mof_C 	C 	0.8533	0.0188	0.03903	0.065
Mof_H 	H 	0.8414	0.9519	0.0455	0.025
Mof_C 	C 	0.91	0.1603	0.01742	0.005
Mof_H 	H 	0.9459	0.2114	0.0057	0.029
Mof_C 	C 	0.8432	0.1695	0.03295	0.005
Mof_H 	H 	0.8255	0.2265	0.0341	0.032
Mof_C 	C 	0.7335	0.051	0.06584	0.106
Mof_C 	C 	0.701	0.1209	0.07431	-0.046
Mof_H 	H 	0.7254	0.1913	0.0679	0.05
Mof_N 	N 	0.9181	0.067	0.02104	-0.226
Mof_N 	N 	0.807	0.0787	0.04666	-0.13
Mof_N 	N 	0.7002	0.9518	0.07378	-0.079
Mof_C 	C 	0.51997	0.35213	0.37236	0.101
Mof_H 	H 	0.50807	0.28523	0.37883	-0.001
Mof_C 	C 	0.57667	0.49363	0.35075	0.005
Mof_H 	H 	0.61257	0.54473	0.33903	0.025
Mof_C 	C 	0.50987	0.50283	0.36628	0.007
Mof_H 	H 	0.49217	0.55983	0.36743	0.031
Mof_C 	C 	0.40017	0.38433	0.39917	0.14
Mof_C 	C 	0.36767	0.45423	0.40764	-0.091
Mof_H 	H 	0.39207	0.52463	0.40123	0.064
Mof_N 	N 	0.58477	0.40033	0.35437	-0.234
Mof_N 	N 	0.47367	0.41203	0.37999	-0.14
Mof_N 	N 	0.36687	0.28513	0.40711	-0.098
Mof_C 	C 	0.18663	0.68547	0.7057	0.102
Mof_H 	H 	0.17473	0.61857	0.71217	-0.001
Mof_C 	C 	0.24333	0.82697	0.68409	0.005
Mof_H 	H 	0.27923	0.87807	0.67237	0.026
Mof_C 	C 	0.17653	0.83617	0.69962	0.009
Mof_H 	H 	0.15883	0.89317	0.70077	0.031
Mof_C 	C 	0.06683	0.71767	0.73251	0.156
Mof_C 	C 	0.03433	0.78757	0.74098	-0.139
Mof_H 	H 	0.05873	0.85797	0.73457	0.081
Mof_N 	N 	0.25143	0.73367	0.68771	-0.234
Mof_N 	N 	0.14033	0.74537	0.71333	-0.143
Mof_N 	N 	0.03353	0.61847	0.74045	-0.109
Mof_C 	C 	0.9812	0.8345	0.03903	0.139
Mof_H 	H 	0.0481	0.8895	0.0455	-0.018
Mof_C 	C 	0.8397	0.7497	0.01742	0.005
Mof_H 	H 	0.7886	0.7345	0.0057	0.027
Mof_C 	C 	0.8305	0.6737	0.03295	0.012
Mof_H 	H 	0.7735	0.599	0.0341	0.029
Mof_C 	C 	0.949	0.6825	0.06584	0.177
Mof_C 	C 	0.8791	0.5801	0.07431	-0.131
Mof_H 	H 	0.8087	0.5341	0.0679	0.08
Mof_N 	N 	0.933	0.8511	0.02104	-0.231
Mof_N 	N 	0.9213	0.7283	0.04666	-0.149
Mof_N 	N 	0.0482	0.7484	0.07378	-0.111
Mof_C 	C 	0.64787	0.16783	0.37236	0.098
Mof_H 	H 	0.71477	0.22283	0.37883	0.002
Mof_C 	C 	0.50637	0.08303	0.35075	0.029
Mof_H 	H 	0.45527	0.06783	0.33903	0.011
Mof_C 	C 	0.49717	0.00703	0.36628	-0.043
Mof_H 	H 	0.44017	0.93233	0.36743	0.061
Mof_C 	C 	0.61567	0.01583	0.39917	0.099
Mof_C 	C 	0.54577	0.91343	0.40764	-0.027
Mof_H 	H 	0.47537	0.86743	0.40123	0.046
Mof_N 	N 	0.59967	0.18443	0.35437	-0.238
Mof_N 	N 	0.58797	0.06163	0.37999	-0.127
Mof_N 	N 	0.71487	0.08173	0.40711	-0.088
Mof_C 	C 	0.31453	0.50117	0.7057	0.1
Mof_H 	H 	0.38143	0.55617	0.71217	0.001
Mof_C 	C 	0.17303	0.41637	0.68409	0.003
Mof_H 	H 	0.12193	0.40117	0.67237	0.021
Mof_C 	C 	0.16383	0.34037	0.69962	0.006
Mof_H 	H 	0.10683	0.26567	0.70077	0.025
Mof_C 	C 	0.28233	0.34917	0.73251	0.138
Mof_C 	C 	0.21243	0.24677	0.74098	-0.09
Mof_H 	H 	0.14203	0.20077	0.73457	0.058
Mof_N 	N 	0.26633	0.51777	0.68771	-0.234
Mof_N 	N 	0.25463	0.39497	0.71333	-0.14
Mof_N 	N 	0.38153	0.41507	0.74045	-0.096
Mof_C 	C 	0.1655	0.1467	0.03903	0.098
Mof_H 	H 	0.1105	0.1586	0.0455	-0.006
Mof_C 	C 	0.2503	0.09	0.01742	0.004
Mof_H 	H 	0.2655	0.0541	0.0057	0.018
Mof_C 	C 	0.3263	0.1568	0.03295	0.004
Mof_H 	H 	0.401	0.1745	0.0341	0.029
Mof_C 	C 	0.3175	0.2665	0.06584	0.137
Mof_C 	C 	0.4199	0.299	0.07431	-0.089
Mof_H 	H 	0.4659	0.2746	0.0679	0.063
Mof_N 	N 	0.1489	0.0819	0.02104	-0.24
Mof_N 	N 	0.2717	0.193	0.04666	-0.14
Mof_N 	N 	0.2516	0.2998	0.07378	-0.098
Mof_C 	C 	0.83217	0.48003	0.37236	0.105
Mof_H 	H 	0.77717	0.49193	0.37883	-0
Mof_C 	C 	0.91697	0.42333	0.35075	-0.019
Mof_H 	H 	0.93217	0.38743	0.33903	0.036
Mof_C 	C 	0.99297	0.49013	0.36628	0.059
Mof_H 	H 	0.06767	0.50783	0.36743	-0.001
Mof_C 	C 	0.98417	0.59983	0.39917	0.182
Mof_C 	C 	0.08657	0.63233	0.40764	-0.149
Mof_H 	H 	0.13257	0.60793	0.40123	0.082
Mof_N 	N 	0.81557	0.41523	0.35437	-0.23
Mof_N 	N 	0.93837	0.52633	0.37999	-0.152
Mof_N 	N 	0.91827	0.63313	0.40711	-0.102
Mof_C 	C 	0.49883	0.81337	0.7057	0.101
Mof_H 	H 	0.44383	0.82527	0.71217	0.002
Mof_C 	C 	0.58363	0.75667	0.68409	0.007
Mof_H 	H 	0.59883	0.72077	0.67237	0.026
Mof_C 	C 	0.65963	0.82347	0.69962	0.008
Mof_H 	H 	0.73433	0.84117	0.70077	0.035
Mof_C 	C 	0.65083	0.93317	0.73251	0.126
Mof_C 	C 	0.75323	0.96567	0.74098	-0.037
Mof_H 	H 	0.79923	0.94127	0.73457	0.053
Mof_N 	N 	0.48223	0.74857	0.68771	-0.234
Mof_N 	N 	0.60503	0.85967	0.71333	-0.136
Mof_N 	N 	0.58493	0.96647	0.74045	-0.084
Mof_C 	C 	0.0188	0.8533	0.46097	0.066
Mof_H 	H 	0.9519	0.8414	0.4545	0.026
Mof_C 	C 	0.1603	0.91	0.48258	0.006
Mof_H 	H 	0.2114	0.9459	0.4943	0.03
Mof_C 	C 	0.1695	0.8432	0.46705	0.006
Mof_H 	H 	0.2265	0.8255	0.4659	0.033
Mof_C 	C 	0.051	0.7335	0.43416	0.106
Mof_C 	C 	0.1209	0.701	0.42569	-0.046
Mof_H 	H 	0.1913	0.7254	0.4321	0.05
Mof_N 	N 	0.067	0.9181	0.47896	-0.226
Mof_N 	N 	0.0787	0.807	0.45334	-0.13
Mof_N 	N 	0.9518	0.7002	0.42622	-0.079
Mof_C 	C 	0.68547	0.18663	0.7943	0.102
Mof_H 	H 	0.61857	0.17473	0.78783	-0.001
Mof_C 	C 	0.82697	0.24333	0.81591	0.005
Mof_H 	H 	0.87807	0.27923	0.82763	0.026
Mof_C 	C 	0.83617	0.17653	0.80038	0.009
Mof_H 	H 	0.89317	0.15883	0.79923	0.031
Mof_C 	C 	0.71767	0.06683	0.76749	0.156
Mof_C 	C 	0.78757	0.03433	0.75902	-0.139
Mof_H 	H 	0.85797	0.05873	0.76543	0.081
Mof_N 	N 	0.73367	0.25143	0.81229	-0.234
Mof_N 	N 	0.74537	0.14033	0.78667	-0.143
Mof_N 	N 	0.61847	0.03353	0.75955	-0.109
Mof_C 	C 	0.35213	0.51997	0.12764	0.101
Mof_H 	H 	0.28523	0.50807	0.12117	-0.001
Mof_C 	C 	0.49363	0.57667	0.14925	0.005
Mof_H 	H 	0.54473	0.61257	0.16097	0.025
Mof_C 	C 	0.50283	0.50987	0.13372	0.007
Mof_H 	H 	0.55983	0.49217	0.13257	0.031
Mof_C 	C 	0.38433	0.40017	0.10083	0.14
Mof_C 	C 	0.45423	0.36767	0.09236	-0.091
Mof_H 	H 	0.52463	0.39207	0.09877	0.064
Mof_N 	N 	0.40033	0.58477	0.14563	-0.234
Mof_N 	N 	0.41203	0.47367	0.12001	-0.14
Mof_N 	N 	0.28513	0.36687	0.09289	-0.098
Mof_C 	C 	0.8345	0.9812	0.46097	0.139
Mof_H 	H 	0.8895	0.0481	0.4545	-0.018
Mof_C 	C 	0.7497	0.8397	0.48258	0.005
Mof_H 	H 	0.7345	0.7886	0.4943	0.027
Mof_C 	C 	0.6737	0.8305	0.46705	0.012
Mof_H 	H 	0.599	0.7735	0.4659	0.029
Mof_C 	C 	0.6825	0.949	0.43416	0.177
Mof_C 	C 	0.5801	0.8791	0.42569	-0.131
Mof_H 	H 	0.5341	0.8087	0.4321	0.08
Mof_N 	N 	0.8511	0.933	0.47896	-0.231
Mof_N 	N 	0.7283	0.9213	0.45334	-0.149
Mof_N 	N 	0.7484	0.0482	0.42622	-0.111
Mof_C 	C 	0.50117	0.31453	0.7943	0.1
Mof_H 	H 	0.55617	0.38143	0.78783	0.001
Mof_C 	C 	0.41637	0.17303	0.81591	0.003
Mof_H 	H 	0.40117	0.12193	0.82763	0.021
Mof_C 	C 	0.34037	0.16383	0.80038	0.006
Mof_H 	H 	0.26567	0.10683	0.79923	0.025
Mof_C 	C 	0.34917	0.28233	0.76749	0.138
Mof_C 	C 	0.24677	0.21243	0.75902	-0.09
Mof_H 	H 	0.20077	0.14203	0.76543	0.058
Mof_N 	N 	0.51777	0.26633	0.81229	-0.234
Mof_N 	N 	0.39497	0.25463	0.78667	-0.14
Mof_N 	N 	0.41507	0.38153	0.75955	-0.096
Mof_C 	C 	0.16783	0.64787	0.12764	0.098
Mof_H 	H 	0.22283	0.71477	0.12117	0.002
Mof_C 	C 	0.08303	0.50637	0.14925	0.029
Mof_H 	H 	0.06783	0.45527	0.16097	0.011
Mof_C 	C 	0.00703	0.49717	0.13372	-0.043
Mof_H 	H 	0.93233	0.44017	0.13257	0.061
Mof_C 	C 	0.01583	0.61567	0.10083	0.099
Mof_C 	C 	0.91343	0.54577	0.09236	-0.027
Mof_H 	H 	0.86743	0.47537	0.09877	0.046
Mof_N 	N 	0.18443	0.59967	0.14563	-0.238
Mof_N 	N 	0.06163	0.58797	0.12001	-0.127
Mof_N 	N 	0.08173	0.71487	0.09289	-0.088
Mof_C 	C 	0.1467	0.1655	0.46097	0.098
Mof_H 	H 	0.1586	0.1105	0.4545	-0.006
Mof_C 	C 	0.09	0.2503	0.48258	0.004
Mof_H 	H 	0.0541	0.2655	0.4943	0.018
Mof_C 	C 	0.1568	0.3263	0.46705	0.004
Mof_H 	H 	0.1745	0.401	0.4659	0.029
Mof_C 	C 	0.2665	0.3175	0.43416	0.137
Mof_C 	C 	0.299	0.4199	0.42569	-0.089
Mof_H 	H 	0.2746	0.4659	0.4321	0.063
Mof_N 	N 	0.0819	0.1489	0.47896	-0.24
Mof_N 	N 	0.193	0.2717	0.45334	-0.14
Mof_N 	N 	0.2998	0.2516	0.42622	-0.098
Mof_C 	C 	0.81337	0.49883	0.7943	0.101
Mof_H 	H 	0.82527	0.44383	0.78783	0.002
Mof_C 	C 	0.75667	0.58363	0.81591	0.007
Mof_H 	H 	0.72077	0.59883	0.82763	0.026
Mof_C 	C 	0.82347	0.65963	0.80038	0.008
Mof_H 	H 	0.84117	0.73433	0.79923	0.035
Mof_C 	C 	0.93317	0.65083	0.76749	0.126
Mof_C 	C 	0.96567	0.75323	0.75902	-0.037
Mof_H 	H 	0.94127	0.79923	0.76543	0.053
Mof_N 	N 	0.74857	0.48223	0.81229	-0.234
Mof_N 	N 	0.85967	0.60503	0.78667	-0.136
Mof_N 	N 	0.96647	0.58493	0.75955	-0.084
Mof_C 	C 	0.48003	0.83217	0.12764	0.105
Mof_H 	H 	0.49193	0.77717	0.12117	-0
Mof_C 	C 	0.42333	0.91697	0.14925	-0.019
Mof_H 	H 	0.38743	0.93217	0.16097	0.036
Mof_C 	C 	0.49013	0.99297	0.13372	0.059
Mof_H 	H 	0.50783	0.06767	0.13257	-0.001
Mof_C 	C 	0.59983	0.98417	0.10083	0.182
Mof_C 	C 	0.63233	0.08657	0.09236	-0.149
Mof_H 	H 	0.60793	0.13257	0.09877	0.082
Mof_N 	N 	0.41523	0.81557	0.14563	-0.23
Mof_N 	N 	0.52633	0.93837	0.12001	-0.152
Mof_N 	N 	0.63313	0.91827	0.09289	-0.102
Mof_C 	C 	0.1467	0.9812	0.96097	0.141
Mof_H 	H 	0.1586	0.0481	0.9545	-0.028
Mof_C 	C 	0.09	0.8397	0.98258	0.003
Mof_H 	H 	0.0541	0.7886	0.9943	0.02
Mof_C 	C 	0.1568	0.8305	0.96705	0.009
Mof_H 	H 	0.1745	0.7735	0.9659	0.028
Mof_C 	C 	0.2665	0.949	0.93416	0.177
Mof_C 	C 	0.299	0.8791	0.92569	-0.133
Mof_H 	H 	0.2746	0.8087	0.9321	0.079
Mof_N 	N 	0.0819	0.933	0.97896	-0.238
Mof_N 	N 	0.193	0.9213	0.95334	-0.151
Mof_N 	N 	0.2998	0.0482	0.92622	-0.115
Mof_C 	C 	0.81337	0.31453	0.2943	0.101
Mof_H 	H 	0.82527	0.38143	0.28783	0.002
Mof_C 	C 	0.75667	0.17303	0.31591	0.005
Mof_H 	H 	0.72077	0.12193	0.32763	0.023
Mof_C 	C 	0.82347	0.16383	0.30038	0.006
Mof_H 	H 	0.84117	0.10683	0.29923	0.03
Mof_C 	C 	0.93317	0.28233	0.26749	0.123
Mof_C 	C 	0.96567	0.21243	0.25902	-0.034
Mof_H 	H 	0.94127	0.14203	0.26543	0.046
Mof_N 	N 	0.74857	0.26633	0.31229	-0.234
Mof_N 	N 	0.85967	0.25463	0.28667	-0.136
Mof_N 	N 	0.96647	0.38153	0.25955	-0.083
Mof_C 	C 	0.48003	0.64787	0.62764	0.101
Mof_H 	H 	0.49193	0.71477	0.62117	0.002
Mof_C 	C 	0.42333	0.50637	0.64925	0.005
Mof_H 	H 	0.38743	0.45527	0.66097	0.023
Mof_C 	C 	0.49013	0.49717	0.63372	0.007
Mof_H 	H 	0.50783	0.44017	0.63257	0.03
Mof_C 	C 	0.59983	0.61567	0.60083	0.141
Mof_C 	C 	0.63233	0.54577	0.59236	-0.087
Mof_H 	H 	0.60793	0.47537	0.59877	0.064
Mof_N 	N 	0.41523	0.59967	0.64563	-0.234
Mof_N 	N 	0.52633	0.58797	0.62001	-0.14
Mof_N 	N 	0.63313	0.71487	0.59289	-0.094
Mof_C 	C 	0.0188	0.1655	0.96097	0.058
Mof_H 	H 	0.9519	0.1105	0.9545	0.024
Mof_C 	C 	0.1603	0.2503	0.98258	0.005
Mof_H 	H 	0.2114	0.2655	0.9943	0.023
Mof_C 	C 	0.1695	0.3263	0.96705	0.003
Mof_H 	H 	0.2265	0.401	0.9659	0.032
Mof_C 	C 	0.051	0.3175	0.93416	0.101
Mof_C 	C 	0.1209	0.4199	0.92569	-0.044
Mof_H 	H 	0.1913	0.4659	0.9321	0.047
Mof_N 	N 	0.067	0.1489	0.97896	-0.233
Mof_N 	N 	0.0787	0.2717	0.95334	-0.13
Mof_N 	N 	0.9518	0.2516	0.92622	-0.079
Mof_C 	C 	0.68547	0.49883	0.2943	0.102
Mof_H 	H 	0.61857	0.44383	0.28783	0
Mof_C 	C 	0.82697	0.58363	0.31591	0.007
Mof_H 	H 	0.87807	0.59883	0.32763	0.027
Mof_C 	C 	0.83617	0.65963	0.30038	0.009
Mof_H 	H 	0.89317	0.73433	0.29923	0.036
Mof_C 	C 	0.71767	0.65083	0.26749	0.142
Mof_C 	C 	0.78757	0.75323	0.25902	-0.088
Mof_H 	H 	0.85797	0.79923	0.26543	0.07
Mof_N 	N 	0.73367	0.48223	0.31229	-0.234
Mof_N 	N 	0.74537	0.60503	0.28667	-0.139
Mof_N 	N 	0.61847	0.58493	0.25955	-0.096
Mof_C 	C 	0.35213	0.83217	0.62764	0.104
Mof_H 	H 	0.28523	0.77717	0.62117	-0.001
Mof_C 	C 	0.49363	0.91697	0.64925	-0.019
Mof_H 	H 	0.54473	0.93217	0.66097	0.037
Mof_C 	C 	0.50283	0.99297	0.63372	0.058
Mof_H 	H 	0.55983	0.06767	0.63257	0
Mof_C 	C 	0.38433	0.98417	0.60083	0.183
Mof_C 	C 	0.45423	0.08657	0.59236	-0.154
Mof_H 	H 	0.52463	0.13257	0.59877	0.083
Mof_N 	N 	0.40033	0.81557	0.64563	-0.23
Mof_N 	N 	0.41203	0.93837	0.62001	-0.153
Mof_N 	N 	0.28513	0.91827	0.59289	-0.104
Mof_C 	C 	0.8345	0.8533	0.96097	0.104
Mof_H 	H 	0.8895	0.8414	0.9545	0.007
Mof_C 	C 	0.7497	0.91	0.98258	0.006
Mof_H 	H 	0.7345	0.9459	0.9943	0.031
Mof_C 	C 	0.6737	0.8432	0.96705	0.011
Mof_H 	H 	0.599	0.8255	0.9659	0.032
Mof_C 	C 	0.6825	0.7335	0.93416	0.143
Mof_C 	C 	0.5801	0.701	0.92569	-0.089
Mof_H 	H 	0.5341	0.7254	0.9321	0.066
Mof_N 	N 	0.8511	0.9181	0.97896	-0.225
Mof_N 	N 	0.7283	0.807	0.95334	-0.139
Mof_N 	N 	0.7484	0.7002	0.92622	-0.094
Mof_C 	C 	0.50117	0.18663	0.2943	0.101
Mof_H 	H 	0.55617	0.17473	0.28783	-0.001
Mof_C 	C 	0.41637	0.24333	0.31591	0.003
Mof_H 	H 	0.40117	0.27923	0.32763	0.023
Mof_C 	C 	0.34037	0.17653	0.30038	0.007
Mof_H 	H 	0.26567	0.15883	0.29923	0.025
Mof_C 	C 	0.34917	0.06683	0.26749	0.155
Mof_C 	C 	0.24677	0.03433	0.25902	-0.145
Mof_H 	H 	0.20077	0.05873	0.26543	0.076
Mof_N 	N 	0.51777	0.25143	0.31229	-0.234
Mof_N 	N 	0.39497	0.14033	0.28667	-0.144
Mof_N 	N 	0.41507	0.03353	0.25955	-0.109
Mof_C 	C 	0.16783	0.51997	0.62764	0.098
Mof_H 	H 	0.22283	0.50807	0.62117	0.001
Mof_C 	C 	0.08303	0.57667	0.64925	0.029
Mof_H 	H 	0.06783	0.61257	0.66097	0.012
Mof_C 	C 	0.00703	0.50987	0.63372	-0.043
Mof_H 	H 	0.93233	0.49217	0.63257	0.061
Mof_C 	C 	0.01583	0.40017	0.60083	0.097
Mof_C 	C 	0.91343	0.36767	0.59236	-0.026
Mof_H 	H 	0.86743	0.39207	0.59877	0.045
Mof_N 	N 	0.18443	0.58477	0.64563	-0.238
Mof_N 	N 	0.06163	0.47367	0.62001	-0.127
Mof_N 	N 	0.08173	0.36687	0.59289	-0.09
Mof_C 	C 	0.9812	0.1467	0.53903	0.141
Mof_H 	H 	0.0481	0.1586	0.5455	-0.028
Mof_C 	C 	0.8397	0.09	0.51742	0.003
Mof_H 	H 	0.7886	0.0541	0.5057	0.02
Mof_C 	C 	0.8305	0.1568	0.53295	0.009
Mof_H 	H 	0.7735	0.1745	0.5341	0.028
Mof_C 	C 	0.949	0.2665	0.56584	0.177
Mof_C 	C 	0.8791	0.299	0.57431	-0.133
Mof_H 	H 	0.8087	0.2746	0.5679	0.079
Mof_N 	N 	0.933	0.0819	0.52104	-0.238
Mof_N 	N 	0.9213	0.193	0.54666	-0.151
Mof_N 	N 	0.0482	0.2998	0.57378	-0.115
Mof_C 	C 	0.64787	0.48003	0.87236	0.101
Mof_H 	H 	0.71477	0.49193	0.87883	0.002
Mof_C 	C 	0.50637	0.42333	0.85075	0.005
Mof_H 	H 	0.45527	0.38743	0.83903	0.023
Mof_C 	C 	0.49717	0.49013	0.86628	0.007
Mof_H 	H 	0.44017	0.50783	0.86743	0.03
Mof_C 	C 	0.61567	0.59983	0.89917	0.141
Mof_C 	C 	0.54577	0.63233	0.90764	-0.087
Mof_H 	H 	0.47537	0.60793	0.90123	0.064
Mof_N 	N 	0.59967	0.41523	0.85437	-0.234
Mof_N 	N 	0.58797	0.52633	0.87999	-0.14
Mof_N 	N 	0.71487	0.63313	0.90711	-0.094
Mof_C 	C 	0.31453	0.81337	0.2057	0.101
Mof_H 	H 	0.38143	0.82527	0.21217	0.002
Mof_C 	C 	0.17303	0.75667	0.18409	0.005
Mof_H 	H 	0.12193	0.72077	0.17237	0.023
Mof_C 	C 	0.16383	0.82347	0.19962	0.006
Mof_H 	H 	0.10683	0.84117	0.20077	0.03
Mof_C 	C 	0.28233	0.93317	0.23251	0.123
Mof_C 	C 	0.21243	0.96567	0.24098	-0.034
Mof_H 	H 	0.14203	0.94127	0.23457	0.046
Mof_N 	N 	0.26633	0.74857	0.18771	-0.234
Mof_N 	N 	0.25463	0.85967	0.21333	-0.136
Mof_N 	N 	0.38153	0.96647	0.24045	-0.083
Mof_C 	C 	0.1655	0.0188	0.53903	0.058
Mof_H 	H 	0.1105	0.9519	0.5455	0.024
Mof_C 	C 	0.2503	0.1603	0.51742	0.005
Mof_H 	H 	0.2655	0.2114	0.5057	0.023
Mof_C 	C 	0.3263	0.1695	0.53295	0.003
Mof_H 	H 	0.401	0.2265	0.5341	0.032
Mof_C 	C 	0.3175	0.051	0.56584	0.101
Mof_C 	C 	0.4199	0.1209	0.57431	-0.044
Mof_H 	H 	0.4659	0.1913	0.5679	0.047
Mof_N 	N 	0.1489	0.067	0.52104	-0.233
Mof_N 	N 	0.2717	0.0787	0.54666	-0.13
Mof_N 	N 	0.2516	0.9518	0.57378	-0.079
Mof_C 	C 	0.83217	0.35213	0.87236	0.104
Mof_H 	H 	0.77717	0.28523	0.87883	-0.001
Mof_C 	C 	0.91697	0.49363	0.85075	-0.019
Mof_H 	H 	0.93217	0.54473	0.83903	0.037
Mof_C 	C 	0.99297	0.50283	0.86628	0.058
Mof_H 	H 	0.06767	0.55983	0.86743	0
Mof_C 	C 	0.98417	0.38433	0.89917	0.183
Mof_C 	C 	0.08657	0.45423	0.90764	-0.154
Mof_H 	H 	0.13257	0.52463	0.90123	0.083
Mof_N 	N 	0.81557	0.40033	0.85437	-0.23
Mof_N 	N 	0.93837	0.41203	0.87999	-0.153
Mof_N 	N 	0.91827	0.28513	0.90711	-0.104
Mof_C 	C 	0.49883	0.68547	0.2057	0.102
Mof_H 	H 	0.44383	0.61857	0.21217	0
Mof_C 	C 	0.58363	0.82697	0.18409	0.007
Mof_H 	H 	0.59883	0.87807	0.17237	0.027
Mof_C 	C 	0.65963	0.83617	0.19962	0.009
Mof_H 	H 	0.73433	0.89317	0.20077	0.036
Mof_C 	C 	0.65083	0.71767	0.23251	0.142
Mof_C 	C 	0.75323	0.78757	0.24098	-0.088
Mof_H 	H 	0.79923	0.85797	0.23457	0.07
Mof_N 	N 	0.48223	0.73367	0.18771	-0.234
Mof_N 	N 	0.60503	0.74537	0.21333	-0.139
Mof_N 	N 	0.58493	0.61847	0.24045	-0.096
Mof_C 	C 	0.8533	0.8345	0.53903	0.104
Mof_H 	H 	0.8414	0.8895	0.5455	0.007
Mof_C 	C 	0.91	0.7497	0.51742	0.006
Mof_H 	H 	0.9459	0.7345	0.5057	0.031
Mof_C 	C 	0.8432	0.6737	0.53295	0.011
Mof_H 	H 	0.8255	0.599	0.5341	0.032
Mof_C 	C 	0.7335	0.6825	0.56584	0.143
Mof_C 	C 	0.701	0.5801	0.57431	-0.089
Mof_H 	H 	0.7254	0.5341	0.5679	0.066
Mof_N 	N 	0.9181	0.8511	0.52104	-0.225
Mof_N 	N 	0.807	0.7283	0.54666	-0.139
Mof_N 	N 	0.7002	0.7484	0.57378	-0.094
Mof_C 	C 	0.51997	0.16783	0.87236	0.098
Mof_H 	H 	0.50807	0.22283	0.87883	0.001
Mof_C 	C 	0.57667	0.08303	0.85075	0.029
Mof_H 	H 	0.61257	0.06783	0.83903	0.012
Mof_C 	C 	0.50987	0.00703	0.86628	-0.043
Mof_H 	H 	0.49217	0.93233	0.86743	0.061
Mof_C 	C 	0.40017	0.01583	0.89917	0.097
Mof_C 	C 	0.36767	0.91343	0.90764	-0.026
Mof_H 	H 	0.39207	0.86743	0.90123	0.045
Mof_N 	N 	0.58477	0.18443	0.85437	-0.238
Mof_N 	N 	0.47367	0.06163	0.87999	-0.127
Mof_N 	N 	0.36687	0.08173	0.90711	-0.09
Mof_C 	C 	0.18663	0.50117	0.2057	0.101
Mof_H 	H 	0.17473	0.55617	0.21217	-0.001
Mof_C 	C 	0.24333	0.41637	0.18409	0.003
Mof_H 	H 	0.27923	0.40117	0.17237	0.023
Mof_C 	C 	0.17653	0.34037	0.19962	0.007
Mof_H 	H 	0.15883	0.26567	0.20077	0.025
Mof_C 	C 	0.06683	0.34917	0.23251	0.155
Mof_C 	C 	0.03433	0.24677	0.24098	-0.145
Mof_H 	H 	0.05873	0.20077	0.23457	0.076
Mof_N 	N 	0.25143	0.51777	0.18771	-0.234
Mof_N 	N 	0.14033	0.39497	0.21333	-0.144
Mof_N 	N 	0.03353	0.41507	0.24045	-0.109
Mof_Co	Co	-0	0	-0	1.099
Mof_Co	Co	0.66667	0.33333	0.33333	1.116
Mof_Co	Co	0.33333	0.66667	0.66667	1.116
Mof_Co	Co	-0	0	0.5	1.099
Mof_Co	Co	0.66667	0.33333	0.83333	1.116
Mof_Co	Co	0.33333	0.66667	0.16667	1.116
_end
