data_functionalizedCrystal
_audit_creation_method	'EQeq! by Chris Wilmer'
_symmetry_space_group_name_H-M	'P1'
_symmetry_Int_Tables_number	1
_symmetry_cell_setting	triclinic
loop_
_symmetry_equiv_pos_as_xyz
  x,y,z
_cell_length_a	15.6729
_cell_length_b	23.599
_cell_length_c	18.2174
_cell_angle_alpha	90
_cell_angle_beta	105.446
_cell_angle_gamma	90
loop_
_atom_site_label
_atom_site_type_symbol
_atom_site_fract_x
_atom_site_fract_y
_atom_site_fract_z
_atom_site_charge
Mof_In	In	0.29002	0.51379	0.86563	2.548
Mof_In	In	0.19078	0.53038	0.65546	3.05
Mof_O 	O 	0.4287	0.51523	0.8881	-1.132
Mof_H 	H 	0.4567	0.5223	0.8499	0.323
Mof_O 	O 	0.2744	0.49181	0.75143	-1.197
Mof_H 	H 	0.3083	0.4616	0.7424	0.325
Mof_O 	O 	0.0904	0.55866	0.56365	-1.234
Mof_H 	H 	0.0857	0.5969	0.5509	0.365
Mof_O 	O 	0.2865	0.54365	0.9761	-0.721
Mof_O 	O 	0.4259	0.56429	0.0401	-0.778
Mof_O 	O 	0.2814	0.89653	0.3391	-0.797
Mof_O 	O 	0.1799	0.8987	0.227	-0.868
Mof_O 	O 	0.0099	0.5452	0.4007	-0.911
Mof_O 	O 	0.9166	0.50525	0.3002	-0.868
Mof_O 	O 	0.2051	0.45299	0.5973	-0.857
Mof_O 	O 	0.1073	0.44578	0.485	-0.802
Mof_O 	O 	0.7793	0.3871	0.4823	-0.435
Mof_O 	O 	0.7045	0.4291	0.3772	-0.813
Mof_O 	O 	0.4081	0.06698	0.5083	-0.785
Mof_O 	O 	0.2969	0.07435	0.4023	-0.832
Mof_C 	C 	0.3429	0.5679	0.0286	0.634
Mof_C 	C 	0.3117	0.6032	0.0829	-0.558
Mof_H 	H 	0.3529	0.6249	0.1179	0.201
Mof_C 	C 	0.2282	0.6055	0.0842	0.368
Mof_H 	H 	0.1862	0.5873	0.0455	-0.143
Mof_C 	C 	0.1978	0.6356	0.1443	-0.485
Mof_C 	C 	0.2018	0.6944	0.1521	0.488
Mof_C 	C 	0.1804	0.7197	0.2148	-0.521
Mof_C 	C 	0.1497	0.6869	0.2661	0.531
Mof_C 	C 	0.1403	0.6281	0.2544	-0.557
Mof_C 	C 	0.164	0.602	0.1937	0.491
Mof_C 	C 	0.2329	0.7313	0.0968	-0.942
Mof_H 	H 	0.2311	0.7703	0.1111	0.288
Mof_H 	H 	0.2924	0.7211	0.0975	0.272
Mof_H 	H 	0.1949	0.7258	0.0464	0.264
Mof_C 	C 	0.1232	0.7122	0.3329	-1.01
Mof_H 	H 	0.1041	0.6826	0.3611	0.314
Mof_H 	H 	0.1729	0.7316	0.3655	0.307
Mof_H 	H 	0.0756	0.7386	0.3147	0.294
Mof_C 	C 	0.1599	0.5384	0.183	-0.942
Mof_H 	H 	0.1786	0.5287	0.1385	0.275
Mof_H 	H 	0.1981	0.5205	0.2268	0.284
Mof_H 	H 	0.1002	0.5257	0.1768	0.255
Mof_C 	C 	0.187	0.7816	0.2221	0.446
Mof_H 	H 	0.1557	0.8025	0.1803	-0.154
Mof_C 	C 	0.2318	0.8107	0.2807	-0.634
Mof_H 	H 	0.2651	0.7914	0.3233	0.23
Mof_C 	C 	0.2315	0.8732	0.2817	0.758
Mof_C 	C 	0.0987	0.5955	0.3049	0.585
Mof_H 	H 	0.1256	0.5957	0.357	-0.173
Mof_C 	C 	0.0252	0.5661	0.2794	-0.948
Mof_H 	H 	0.9999	0.5639	0.2272	0.372
Mof_C 	C 	0.9815	0.5366	0.3312	1.004
Mof_C 	C 	0.1792	0.4345	0.5317	0.776
Mof_C 	C 	0.2373	0.3929	0.5063	-0.625
Mof_H 	H 	0.2163	0.3748	0.4597	0.221
Mof_C 	C 	0.3167	0.3814	0.5479	0.425
Mof_H 	H 	0.3347	0.4	0.5945	-0.134
Mof_C 	C 	0.3819	0.3418	0.5293	-0.504
Mof_C 	C 	0.4579	0.364	0.5149	0.496
Mof_C 	C 	0.5242	0.3271	0.5052	-0.495
Mof_C 	C 	0.5124	0.2689	0.5065	0.512
Mof_C 	C 	0.4332	0.2471	0.5159	-0.498
Mof_C 	C 	0.3695	0.2834	0.5308	0.502
Mof_C 	C 	0.467	0.4283	0.5107	-0.974
Mof_H 	H 	0.5224	0.4374	0.5005	0.3
Mof_H 	H 	0.4193	0.443	0.4706	0.293
Mof_H 	H 	0.4649	0.4449	0.5583	0.295
Mof_C 	C 	0.5805	0.2288	0.4906	-0.997
Mof_H 	H 	0.5616	0.1904	0.4939	0.317
Mof_H 	H 	0.5869	0.2357	0.4404	0.298
Mof_H 	H 	0.6363	0.2348	0.5274	0.305
Mof_C 	C 	0.2907	0.2593	0.5534	-0.977
Mof_H 	H 	0.2924	0.2186	0.5514	0.293
Mof_H 	H 	0.2927	0.2711	0.6042	0.293
Mof_H 	H 	0.2371	0.2727	0.5189	0.287
Mof_C 	C 	0.6102	0.3489	0.4962	0.4
Mof_H 	H 	0.6606	0.3396	0.5344	-0.114
Mof_C 	C 	0.6215	0.3786	0.4423	-0.559
Mof_H 	H 	0.5715	0.3887	0.4041	0.207
Mof_C 	C 	0.7103	0.3994	0.4346	0.619
Mof_C 	C 	0.4202	0.1848	0.5114	0.4
Mof_H 	H 	0.463	0.163	0.5445	-0.125
Mof_C 	C 	0.3551	0.1577	0.4656	-0.589
Mof_H 	H 	0.3078	0.1784	0.4361	0.207
Mof_C 	C 	0.3532	0.0946	0.4587	0.701
Mof_In	In	0.70998	0.01379	0.63437	2.314
Mof_In	In	0.80922	0.03038	0.84454	2.823
Mof_O 	O 	0.5713	0.01523	0.6119	-1.118
Mof_H 	H 	0.5433	0.0223	0.6501	0.298
Mof_O 	O 	0.7256	0.99181	0.74857	-1.054
Mof_H 	H 	0.6917	0.9616	0.7576	0.317
Mof_O 	O 	0.9096	0.05866	0.93635	-1.104
Mof_H 	H 	0.9143	0.0969	0.9491	0.362
Mof_O 	O 	0.7135	0.04365	0.5239	-0.758
Mof_O 	O 	0.5741	0.06429	0.4599	-0.77
Mof_O 	O 	0.7186	0.39653	0.1609	-0.765
Mof_O 	O 	0.8201	0.3987	0.273	-0.828
Mof_O 	O 	0.9901	0.0452	0.0993	-0.624
Mof_O 	O 	0.0834	0.00525	0.1998	-0.818
Mof_O 	O 	0.7949	0.95299	0.9027	-0.762
Mof_O 	O 	0.8927	0.94578	0.015	-0.682
Mof_O 	O 	0.2207	0.8871	0.0177	-0.443
Mof_O 	O 	0.2955	0.9291	0.1228	-0.81
Mof_O 	O 	0.5919	0.56698	0.9917	-0.715
Mof_O 	O 	0.7031	0.57435	0.0977	-0.758
Mof_C 	C 	0.6571	0.0679	0.4714	0.686
Mof_C 	C 	0.6883	0.1032	0.4171	-0.559
Mof_H 	H 	0.6471	0.1249	0.3821	0.201
Mof_C 	C 	0.7718	0.1055	0.4158	0.356
Mof_H 	H 	0.8138	0.0873	0.4545	-0.114
Mof_C 	C 	0.8022	0.1356	0.3557	-0.44
Mof_C 	C 	0.7982	0.1944	0.3479	0.473
Mof_C 	C 	0.8196	0.2197	0.2852	-0.468
Mof_C 	C 	0.8503	0.1869	0.2339	0.451
Mof_C 	C 	0.8597	0.1281	0.2456	-0.361
Mof_C 	C 	0.836	0.102	0.3063	0.415
Mof_C 	C 	0.7671	0.2313	0.4032	-0.96
Mof_H 	H 	0.7689	0.2703	0.3889	0.302
Mof_H 	H 	0.7076	0.2211	0.4025	0.288
Mof_H 	H 	0.8051	0.2258	0.4536	0.295
Mof_C 	C 	0.8768	0.2122	0.1671	-0.938
Mof_H 	H 	0.8959	0.1826	0.1389	0.301
Mof_H 	H 	0.8271	0.2316	0.1345	0.286
Mof_H 	H 	0.9244	0.2386	0.1853	0.294
Mof_C 	C 	0.8401	0.0384	0.317	-0.864
Mof_H 	H 	0.8214	0.0287	0.3615	0.256
Mof_H 	H 	0.8019	0.0205	0.2732	0.252
Mof_H 	H 	0.8998	0.0257	0.3232	0.262
Mof_C 	C 	0.813	0.2816	0.2779	0.411
Mof_H 	H 	0.8443	0.3025	0.3197	-0.129
Mof_C 	C 	0.7682	0.3107	0.2193	-0.599
Mof_H 	H 	0.7349	0.2914	0.1767	0.219
Mof_C 	C 	0.7685	0.3732	0.2183	0.727
Mof_C 	C 	0.9013	0.0955	0.1951	0.147
Mof_H 	H 	0.8744	0.0957	0.143	-0.03
Mof_C 	C 	0.9748	0.0661	0.2206	-0.191
Mof_H 	H 	0.0001	0.0639	0.2728	0
Mof_C 	C 	0.0185	0.0366	0.1688	0.45
Mof_C 	C 	0.8208	0.9345	0.9683	0.754
Mof_C 	C 	0.7627	0.8929	0.9937	-0.459
Mof_H 	H 	0.7837	0.8748	0.0403	0.151
Mof_C 	C 	0.6833	0.8814	0.9521	0.351
Mof_H 	H 	0.6653	0.9	0.9055	-0.096
Mof_C 	C 	0.6181	0.8418	0.9707	-0.465
Mof_C 	C 	0.5421	0.864	0.9851	0.443
Mof_C 	C 	0.4758	0.8271	0.9948	-0.415
Mof_C 	C 	0.4876	0.7689	0.9935	0.654
Mof_C 	C 	0.5668	0.7471	0.9841	-0.591
Mof_C 	C 	0.6305	0.7834	0.9692	0.568
Mof_C 	C 	0.533	0.9283	0.9893	-0.774
Mof_H 	H 	0.4776	0.9374	0.9995	0.283
Mof_H 	H 	0.5807	0.943	0.0294	0.217
Mof_H 	H 	0.5351	0.9449	0.9417	0.264
Mof_C 	C 	0.4195	0.7288	0.0094	-1.419
Mof_H 	H 	0.4384	0.6904	0.0061	0.42
Mof_H 	H 	0.4131	0.7357	0.0596	0.415
Mof_H 	H 	0.3637	0.7348	0.9726	0.464
Mof_C 	C 	0.7093	0.7593	0.9466	-1.111
Mof_H 	H 	0.7076	0.7186	0.9486	0.357
Mof_H 	H 	0.7073	0.7711	0.8958	0.348
Mof_H 	H 	0.7629	0.7727	0.9811	0.362
Mof_C 	C 	0.3898	0.8489	0.0038	0.153
Mof_H 	H 	0.3394	0.8396	0.9656	0.005
Mof_C 	C 	0.3785	0.8786	0.0577	-0.42
Mof_H 	H 	0.4285	0.8887	0.0959	0.162
Mof_C 	C 	0.2897	0.8994	0.0654	0.574
Mof_C 	C 	0.5798	0.6848	0.9886	0.562
Mof_H 	H 	0.537	0.663	0.9555	-0.168
Mof_C 	C 	0.6449	0.6577	0.0344	-0.716
Mof_H 	H 	0.6922	0.6784	0.0639	0.249
Mof_C 	C 	0.6468	0.5946	0.0413	0.675
Mof_In	In	0.70998	0.48621	0.13437	2.546
Mof_In	In	0.80922	0.46962	0.34454	3.119
Mof_O 	O 	0.5713	0.48477	0.1119	-1.157
Mof_H 	H 	0.5433	0.4777	0.1501	0.325
Mof_O 	O 	0.7256	0.50819	0.24857	-1.2
Mof_H 	H 	0.6917	0.5384	0.2576	0.328
Mof_O 	O 	0.9096	0.44134	0.43635	-1.217
Mof_H 	H 	0.9143	0.4031	0.4491	0.377
Mof_O 	O 	0.7135	0.45635	0.0239	-0.835
Mof_O 	O 	0.5741	0.43571	0.9599	-0.768
Mof_O 	O 	0.7186	0.10347	0.6609	-0.727
Mof_O 	O 	0.8201	0.1013	0.773	-0.794
Mof_O 	O 	0.9901	0.4548	0.5993	-0.671
Mof_O 	O 	0.0834	0.49475	0.6998	-0.752
Mof_O 	O 	0.7949	0.54701	0.4027	-0.855
Mof_O 	O 	0.8927	0.55422	0.515	-0.754
Mof_O 	O 	0.2207	0.6129	0.5177	-0.432
Mof_O 	O 	0.2955	0.5709	0.6228	-0.8
Mof_O 	O 	0.5919	0.93302	0.4917	-0.707
Mof_O 	O 	0.7031	0.92565	0.5977	-0.684
Mof_C 	C 	0.6571	0.4321	0.9714	0.778
Mof_C 	C 	0.6883	0.3968	0.9171	-0.591
Mof_H 	H 	0.6471	0.3751	0.8821	0.22
Mof_C 	C 	0.7718	0.3945	0.9158	0.394
Mof_H 	H 	0.8138	0.4127	0.9545	-0.107
Mof_C 	C 	0.8022	0.3644	0.8557	-0.475
Mof_C 	C 	0.7982	0.3056	0.8479	0.514
Mof_C 	C 	0.8196	0.2803	0.7852	-0.489
Mof_C 	C 	0.8503	0.3131	0.7339	0.481
Mof_C 	C 	0.8597	0.3719	0.7456	-0.394
Mof_C 	C 	0.836	0.398	0.8063	0.473
Mof_C 	C 	0.7671	0.2687	0.9032	-1.035
Mof_H 	H 	0.7689	0.2297	0.8889	0.331
Mof_H 	H 	0.7076	0.2789	0.9025	0.322
Mof_H 	H 	0.8051	0.2742	0.9536	0.333
Mof_C 	C 	0.8768	0.2878	0.6671	-0.979
Mof_H 	H 	0.8959	0.3174	0.6389	0.319
Mof_H 	H 	0.8271	0.2684	0.6345	0.303
Mof_H 	H 	0.9244	0.2614	0.6853	0.309
Mof_C 	C 	0.8401	0.4616	0.817	-0.984
Mof_H 	H 	0.8214	0.4713	0.8615	0.313
Mof_H 	H 	0.8019	0.4795	0.7732	0.309
Mof_H 	H 	0.8998	0.4743	0.8232	0.318
Mof_C 	C 	0.813	0.2184	0.7779	0.412
Mof_H 	H 	0.8443	0.1975	0.8197	-0.126
Mof_C 	C 	0.7682	0.1893	0.7193	-0.588
Mof_H 	H 	0.7349	0.2086	0.6767	0.216
Mof_C 	C 	0.7685	0.1268	0.7183	0.701
Mof_C 	C 	0.9013	0.4045	0.6951	0.181
Mof_H 	H 	0.8744	0.4043	0.643	-0.031
Mof_C 	C 	0.9748	0.4339	0.7206	-0.22
Mof_H 	H 	0.0001	0.4361	0.7728	0.027
Mof_C 	C 	0.0185	0.4634	0.6688	0.482
Mof_C 	C 	0.8208	0.5655	0.4683	0.781
Mof_C 	C 	0.7627	0.6071	0.4937	-0.626
Mof_H 	H 	0.7837	0.6252	0.5403	0.238
Mof_C 	C 	0.6833	0.6186	0.4521	0.438
Mof_H 	H 	0.6653	0.6	0.4055	-0.137
Mof_C 	C 	0.6181	0.6582	0.4707	-0.519
Mof_C 	C 	0.5421	0.636	0.4851	0.508
Mof_C 	C 	0.4758	0.6729	0.4948	-0.503
Mof_C 	C 	0.4876	0.7311	0.4935	0.522
Mof_C 	C 	0.5668	0.7529	0.4841	-0.508
Mof_C 	C 	0.6305	0.7166	0.4692	0.537
Mof_C 	C 	0.533	0.5717	0.4893	-0.988
Mof_H 	H 	0.4776	0.5626	0.4995	0.305
Mof_H 	H 	0.5807	0.557	0.5294	0.3
Mof_H 	H 	0.5351	0.5551	0.4417	0.298
Mof_C 	C 	0.4195	0.7712	0.5094	-1.006
Mof_H 	H 	0.4384	0.8096	0.5061	0.32
Mof_H 	H 	0.4131	0.7643	0.5596	0.302
Mof_H 	H 	0.3637	0.7652	0.4726	0.305
Mof_C 	C 	0.7093	0.7407	0.4466	-1.063
Mof_H 	H 	0.7076	0.7814	0.4486	0.336
Mof_H 	H 	0.7073	0.7289	0.3958	0.331
Mof_H 	H 	0.7629	0.7273	0.4811	0.334
Mof_C 	C 	0.3898	0.6511	0.5038	0.404
Mof_H 	H 	0.3394	0.6604	0.4656	-0.116
Mof_C 	C 	0.3785	0.6214	0.5577	-0.561
Mof_H 	H 	0.4285	0.6113	0.5959	0.21
Mof_C 	C 	0.2897	0.6006	0.5654	0.616
Mof_C 	C 	0.5798	0.8152	0.4886	0.4
Mof_H 	H 	0.537	0.837	0.4555	-0.122
Mof_C 	C 	0.6449	0.8423	0.5344	-0.565
Mof_H 	H 	0.6922	0.8216	0.5639	0.216
Mof_C 	C 	0.6468	0.9054	0.5413	0.678
Mof_In	In	0.29002	0.98621	0.36563	2.782
Mof_In	In	0.19078	0.96962	0.15546	3.332
Mof_O 	O 	0.4287	0.98477	0.3881	-1.124
Mof_H 	H 	0.4567	0.9777	0.3499	0.343
Mof_O 	O 	0.2744	0.00819	0.25143	-1.337
Mof_H 	H 	0.3083	0.0384	0.2424	0.337
Mof_O 	O 	0.0904	0.94134	0.06365	-1.168
Mof_H 	H 	0.0857	0.9031	0.0509	0.343
Mof_O 	O 	0.2865	0.95635	0.4761	-0.793
Mof_O 	O 	0.4259	0.93571	0.5401	-0.735
Mof_O 	O 	0.2814	0.60347	0.8391	-0.759
Mof_O 	O 	0.1799	0.6013	0.727	-0.834
Mof_O 	O 	0.0099	0.9548	0.9007	-0.762
Mof_O 	O 	0.9166	0.99475	0.8002	-0.753
Mof_O 	O 	0.2051	0.04701	0.0973	-0.91
Mof_O 	O 	0.1073	0.05422	0.985	-0.709
Mof_O 	O 	0.7793	0.1129	0.9823	-0.42
Mof_O 	O 	0.7045	0.0709	0.8772	-0.798
Mof_O 	O 	0.4081	0.43302	0.0083	-0.819
Mof_O 	O 	0.2969	0.42565	0.9023	-0.765
Mof_C 	C 	0.3429	0.9321	0.5286	0.719
Mof_C 	C 	0.3117	0.8968	0.5829	-0.582
Mof_H 	H 	0.3529	0.8751	0.6179	0.219
Mof_C 	C 	0.2282	0.8945	0.5842	0.401
Mof_H 	H 	0.1862	0.9127	0.5455	-0.13
Mof_C 	C 	0.1978	0.8644	0.6443	-0.515
Mof_C 	C 	0.2018	0.8056	0.6521	0.527
Mof_C 	C 	0.1804	0.7803	0.7148	-0.538
Mof_C 	C 	0.1497	0.8131	0.7661	0.553
Mof_C 	C 	0.1403	0.8719	0.7544	-0.565
Mof_C 	C 	0.164	0.898	0.6937	0.544
Mof_C 	C 	0.2329	0.7687	0.5968	-1.016
Mof_H 	H 	0.2311	0.7297	0.6111	0.317
Mof_H 	H 	0.2924	0.7789	0.5975	0.306
Mof_H 	H 	0.1949	0.7742	0.5464	0.304
Mof_C 	C 	0.1232	0.7878	0.8329	-1.05
Mof_H 	H 	0.1041	0.8174	0.8611	0.336
Mof_H 	H 	0.1729	0.7684	0.8655	0.325
Mof_H 	H 	0.0756	0.7614	0.8147	0.311
Mof_C 	C 	0.1599	0.9616	0.683	-1.067
Mof_H 	H 	0.1786	0.9713	0.6385	0.337
Mof_H 	H 	0.1981	0.9795	0.7268	0.346
Mof_H 	H 	0.1002	0.9743	0.6768	0.318
Mof_C 	C 	0.187	0.7184	0.7221	0.447
Mof_H 	H 	0.1557	0.6975	0.6803	-0.152
Mof_C 	C 	0.2318	0.6893	0.7807	-0.623
Mof_H 	H 	0.2651	0.7086	0.8233	0.226
Mof_C 	C 	0.2315	0.6268	0.7817	0.733
Mof_C 	C 	0.0987	0.9045	0.8049	0.558
Mof_H 	H 	0.1256	0.9043	0.857	-0.148
Mof_C 	C 	0.0252	0.9339	0.7794	-0.876
Mof_H 	H 	0.9999	0.9361	0.7272	0.358
Mof_C 	C 	0.9815	0.9634	0.8312	0.927
Mof_C 	C 	0.1792	0.0655	0.0317	0.741
Mof_C 	C 	0.2373	0.1071	0.0063	-0.757
Mof_H 	H 	0.2163	0.1252	0.9597	0.299
Mof_C 	C 	0.3167	0.1186	0.0479	0.491
Mof_H 	H 	0.3347	0.1	0.0945	-0.166
Mof_C 	C 	0.3819	0.1582	0.0293	-0.547
Mof_C 	C 	0.4579	0.136	0.0149	0.551
Mof_C 	C 	0.5242	0.1729	0.0052	-0.569
Mof_C 	C 	0.5124	0.2311	0.0065	0.384
Mof_C 	C 	0.4332	0.2529	0.0159	-0.418
Mof_C 	C 	0.3695	0.2166	0.0308	0.467
Mof_C 	C 	0.467	0.0717	0.0107	-1.17
Mof_H 	H 	0.5224	0.0626	0.0005	0.321
Mof_H 	H 	0.4193	0.057	0.9706	0.37
Mof_H 	H 	0.4649	0.0551	0.0583	0.327
Mof_C 	C 	0.5805	0.2712	0.9906	-0.611
Mof_H 	H 	0.5616	0.3096	0.9939	0.223
Mof_H 	H 	0.5869	0.2643	0.9404	0.192
Mof_H 	H 	0.6363	0.2652	0.0274	0.157
Mof_C 	C 	0.2907	0.2407	0.0534	-0.923
Mof_H 	H 	0.2924	0.2814	0.0514	0.269
Mof_H 	H 	0.2927	0.2289	0.1042	0.275
Mof_H 	H 	0.2371	0.2273	0.0189	0.258
Mof_C 	C 	0.6102	0.1511	0.9962	0.62
Mof_H 	H 	0.6606	0.1604	0.0344	-0.219
Mof_C 	C 	0.6215	0.1214	0.9423	-0.681
Mof_H 	H 	0.5715	0.1113	0.9041	0.249
Mof_C 	C 	0.7103	0.1006	0.9346	0.652
Mof_C 	C 	0.4202	0.3152	0.0114	0.244
Mof_H 	H 	0.463	0.337	0.0445	-0.082
Mof_C 	C 	0.3551	0.3423	0.9656	-0.449
Mof_H 	H 	0.3078	0.3216	0.9361	0.178
Mof_C 	C 	0.3532	0.4054	0.9587	0.721
Mof_In	In	0.5	0.5	-0	2.784
Mof_In	In	0.5	3.88685e-33	0.5	2.661
Mof_In	In	2.75941e-33	0.5	0.5	2.793
Mof_In	In	-0	0	-0	2.288
_end
