data_functionalizedCrystal
_audit_creation_method	'EQeq! by Chris Wilmer'
_symmetry_space_group_name_H-M	'P1'
_symmetry_Int_Tables_number	1
_symmetry_cell_setting	triclinic
loop_
_symmetry_equiv_pos_as_xyz
  x,y,z
_cell_length_a	22.807
_cell_length_b	25.243
_cell_length_c	16.204
_cell_angle_alpha	90
_cell_angle_beta	133.809
_cell_angle_gamma	90
loop_
_atom_site_label
_atom_site_type_symbol
_atom_site_fract_x
_atom_site_fract_y
_atom_site_fract_z
_atom_site_charge
Mof_C 	C 	0.27803	0.01213	0.7532	0.237
Mof_C 	C 	0.92287	0.94885	0.5913	0.413
Mof_C 	C 	0.92043	0.09462	0.6	0.426
Mof_C 	C 	0.20648	0.9842	0.6704	-0.245
Mof_H 	H 	0.1998	0.9635	0.617	0.148
Mof_C 	C 	0.14584	0.9878	0.669	0.148
Mof_H 	H 	0.0976	0.9697	0.6121	-0.012
Mof_C 	C 	0.8729	0.90744	0.4985	-0.156
Mof_C 	C 	0.87573	0.14116	0.5205	-0.196
Mof_C 	C 	0.22135	0.0423	0.8252	0.135
Mof_H 	H 	0.2268	0.0618	0.8789	-0.007
Mof_C 	C 	0.89825	0.88712	0.4473	0.098
Mof_H 	H 	0.9461	0.8996	0.4702	0.018
Mof_C 	C 	0.7996	0.88983	0.46	0.106
Mof_H 	H 	0.7809	0.904	0.4911	0.013
Mof_C 	C 	0.8532	0.84853	0.3625	-0.189
Mof_H 	H 	0.8706	0.835	0.3292	0.111
Mof_C 	C 	0.28499	0.04195	0.8321	-0.241
Mof_H 	H 	0.3319	0.0613	0.8885	0.116
Mof_C 	C 	0.7924	0.22683	0.3722	0.205
Mof_C 	C 	0.8092	0.16207	0.4935	0.149
Mof_H 	H 	0.7909	0.1473	0.5248	0.002
Mof_C 	C 	0.7819	0.8307	0.3288	0.168
Mof_C 	C 	0.3475	0.98851	0.6903	0.231
Mof_C 	C 	0.7546	0.85166	0.3763	-0.192
Mof_H 	H 	0.7059	0.8399	0.3517	0.105
Mof_C 	C 	0.8995	0.16334	0.4699	0.144
Mof_H 	H 	0.9437	0.1492	0.4848	-0.004
Mof_C 	C 	0.7682	0.20495	0.4202	-0.237
Mof_H 	H 	0.7234	0.2188	0.404	0.123
Mof_C 	C 	0.428	0.99421	0.7247	-0.047
Mof_C 	C 	0.501	0.9949	0.8355	-0.03
Mof_H 	H 	0.5027	0.9958	0.8945	0.034
Mof_C 	C 	0.859	0.20593	0.3978	-0.23
Mof_H 	H 	0.8768	0.2208	0.3658	0.124
Mof_C 	C 	0.4271	0.9943	0.6392	-0.032
Mof_H 	H 	0.3776	0.9939	0.5632	0.053
Mof_H 	H 	0.383	0.0302	0.812	0.158
Mof_N 	N 	0.74264	0.27014	0.293	-0.103
Mof_N 	N 	0.73022	0.78936	0.2442	-0.099
Mof_N 	N 	0.15186	0.01582	0.74458	-0.273
Mof_N 	N 	0.34371	0.01252	0.7621	-0.286
Mof_O 	O 	0.89721	0.96532	0.6341	-0.464
Mof_O 	O 	0.98757	0.96303	0.61974	-0.462
Mof_O 	O 	0.89714	0.07937	0.64722	-0.468
Mof_O 	O 	0.97719	0.07503	0.61434	-0.461
Mof_O 	O 	0.29202	0.96453	0.6048	-0.237
Mof_Zn	Zn	0.06011	0.01967	0.739	1.216
Mof_C 	C 	0.77803	0.51213	0.7532	0.237
Mof_C 	C 	0.42287	0.44885	0.5913	0.412
Mof_C 	C 	0.42043	0.59462	0.6	0.425
Mof_C 	C 	0.70648	0.4842	0.6704	-0.247
Mof_H 	H 	0.6998	0.4635	0.617	0.148
Mof_C 	C 	0.64584	0.4878	0.669	0.146
Mof_H 	H 	0.5976	0.4697	0.6121	-0.012
Mof_C 	C 	0.3729	0.40744	0.4985	-0.156
Mof_C 	C 	0.37573	0.64116	0.5205	-0.197
Mof_C 	C 	0.72135	0.5423	0.8252	0.134
Mof_H 	H 	0.7268	0.5618	0.8789	-0.008
Mof_C 	C 	0.39825	0.38712	0.4473	0.097
Mof_H 	H 	0.4461	0.3996	0.4702	0.017
Mof_C 	C 	0.2996	0.38983	0.46	0.105
Mof_H 	H 	0.2809	0.404	0.4911	0.013
Mof_C 	C 	0.3532	0.34853	0.3625	-0.188
Mof_H 	H 	0.3706	0.335	0.3292	0.111
Mof_C 	C 	0.78499	0.54195	0.8321	-0.242
Mof_H 	H 	0.8319	0.5613	0.8885	0.116
Mof_C 	C 	0.2924	0.72683	0.3722	0.205
Mof_C 	C 	0.3092	0.66207	0.4935	0.149
Mof_H 	H 	0.2909	0.6473	0.5248	0.002
Mof_C 	C 	0.2819	0.3307	0.3288	0.168
Mof_C 	C 	0.8475	0.48851	0.6903	0.231
Mof_C 	C 	0.2546	0.35166	0.3763	-0.192
Mof_H 	H 	0.2059	0.3399	0.3517	0.105
Mof_C 	C 	0.3995	0.66334	0.4699	0.144
Mof_H 	H 	0.4437	0.6492	0.4848	-0.004
Mof_C 	C 	0.2682	0.70495	0.4202	-0.237
Mof_H 	H 	0.2234	0.7188	0.404	0.123
Mof_C 	C 	0.928	0.49421	0.7247	-0.051
Mof_C 	C 	0.001	0.4949	0.8355	-0.026
Mof_H 	H 	0.0027	0.4958	0.8945	0.033
Mof_C 	C 	0.359	0.70593	0.3978	-0.23
Mof_H 	H 	0.3768	0.7208	0.3658	0.123
Mof_C 	C 	0.9271	0.4943	0.6392	-0.029
Mof_H 	H 	0.8776	0.4939	0.5632	0.052
Mof_H 	H 	0.883	0.5302	0.812	0.158
Mof_N 	N 	0.24264	0.77014	0.293	-0.104
Mof_N 	N 	0.23022	0.28936	0.2442	-0.099
Mof_N 	N 	0.65186	0.51582	0.74458	-0.272
Mof_N 	N 	0.84371	0.51252	0.7621	-0.286
Mof_O 	O 	0.39721	0.46532	0.6341	-0.464
Mof_O 	O 	0.48757	0.46303	0.61974	-0.462
Mof_O 	O 	0.39714	0.57937	0.64722	-0.468
Mof_O 	O 	0.47719	0.57503	0.61434	-0.461
Mof_O 	O 	0.79202	0.46453	0.6048	-0.238
Mof_Zn	Zn	0.56011	0.51967	0.739	1.216
Mof_C 	C 	0.72197	0.01213	0.7468	0.237
Mof_C 	C 	0.07713	0.94885	0.9087	0.415
Mof_C 	C 	0.07957	0.09462	0.9	0.425
Mof_C 	C 	0.79352	0.9842	0.8296	-0.247
Mof_H 	H 	0.8002	0.9635	0.883	0.147
Mof_C 	C 	0.85416	0.9878	0.831	0.147
Mof_H 	H 	0.9024	0.9697	0.8879	-0.013
Mof_C 	C 	0.1271	0.90744	0.0015	-0.16
Mof_C 	C 	0.12427	0.14116	0.9795	-0.196
Mof_C 	C 	0.77865	0.0423	0.6748	0.134
Mof_H 	H 	0.7732	0.0618	0.6211	-0.008
Mof_C 	C 	0.10175	0.88712	0.0527	0.099
Mof_H 	H 	0.0539	0.8996	0.0298	0.016
Mof_C 	C 	0.2004	0.88983	0.04	0.107
Mof_H 	H 	0.2191	0.904	0.0089	0.012
Mof_C 	C 	0.1468	0.84853	0.1375	-0.19
Mof_H 	H 	0.1294	0.835	0.1708	0.112
Mof_C 	C 	0.71501	0.04195	0.6679	-0.242
Mof_H 	H 	0.6681	0.0613	0.6115	0.116
Mof_C 	C 	0.2076	0.22683	0.1278	0.204
Mof_C 	C 	0.1908	0.16207	0.0065	0.148
Mof_H 	H 	0.2091	0.1473	0.9752	0.003
Mof_C 	C 	0.2181	0.8307	0.1712	0.169
Mof_C 	C 	0.6525	0.98851	0.8097	0.231
Mof_C 	C 	0.2454	0.85166	0.1237	-0.194
Mof_H 	H 	0.2941	0.8399	0.1483	0.105
Mof_C 	C 	0.1005	0.16334	0.0301	0.142
Mof_H 	H 	0.0563	0.1492	0.0152	-0.003
Mof_C 	C 	0.2318	0.20495	0.0798	-0.236
Mof_H 	H 	0.2766	0.2188	0.096	0.123
Mof_C 	C 	0.572	0.99421	0.7753	-0.047
Mof_C 	C 	0.499	0.9949	0.6645	-0.03
Mof_H 	H 	0.4973	0.9958	0.6055	0.034
Mof_C 	C 	0.141	0.20593	0.1022	-0.229
Mof_H 	H 	0.1232	0.2208	0.1342	0.123
Mof_C 	C 	0.5729	0.9943	0.8608	-0.032
Mof_H 	H 	0.6224	0.9939	0.9368	0.054
Mof_H 	H 	0.617	0.0302	0.688	0.158
Mof_N 	N 	0.25736	0.27014	0.207	-0.103
Mof_N 	N 	0.26978	0.78936	0.2558	-0.099
Mof_N 	N 	0.84814	0.01582	0.75542	-0.273
Mof_N 	N 	0.65629	0.01252	0.7379	-0.286
Mof_O 	O 	0.10279	0.96532	0.8659	-0.464
Mof_O 	O 	0.01243	0.96303	0.88026	-0.461
Mof_O 	O 	0.10286	0.07937	0.85278	-0.468
Mof_O 	O 	0.02281	0.07503	0.88566	-0.461
Mof_O 	O 	0.70798	0.96453	0.8952	-0.237
Mof_Zn	Zn	0.93989	0.01967	0.761	1.216
Mof_C 	C 	0.22197	0.51213	0.7468	0.237
Mof_C 	C 	0.57713	0.44885	0.9087	0.412
Mof_C 	C 	0.57957	0.59462	0.9	0.425
Mof_C 	C 	0.29352	0.4842	0.8296	-0.247
Mof_H 	H 	0.3002	0.4635	0.883	0.148
Mof_C 	C 	0.35416	0.4878	0.831	0.146
Mof_H 	H 	0.4024	0.4697	0.8879	-0.012
Mof_C 	C 	0.6271	0.40744	0.0015	-0.155
Mof_C 	C 	0.62427	0.64116	0.9795	-0.198
Mof_C 	C 	0.27865	0.5423	0.6748	0.135
Mof_H 	H 	0.2732	0.5618	0.6211	-0.008
Mof_C 	C 	0.60175	0.38712	0.0527	0.097
Mof_H 	H 	0.5539	0.3996	0.0298	0.017
Mof_C 	C 	0.7004	0.38983	0.04	0.105
Mof_H 	H 	0.7191	0.404	0.0089	0.014
Mof_C 	C 	0.6468	0.34853	0.1375	-0.188
Mof_H 	H 	0.6294	0.335	0.1708	0.111
Mof_C 	C 	0.21501	0.54195	0.6679	-0.242
Mof_H 	H 	0.1681	0.5613	0.6115	0.116
Mof_C 	C 	0.7076	0.72683	0.1278	0.206
Mof_C 	C 	0.6908	0.66207	0.0065	0.151
Mof_H 	H 	0.7091	0.6473	0.9752	0.001
Mof_C 	C 	0.7181	0.3307	0.1712	0.168
Mof_C 	C 	0.1525	0.48851	0.8097	0.23
Mof_C 	C 	0.7454	0.35166	0.1237	-0.192
Mof_H 	H 	0.7941	0.3399	0.1483	0.105
Mof_C 	C 	0.6005	0.66334	0.0301	0.145
Mof_H 	H 	0.5563	0.6492	0.0152	-0.004
Mof_C 	C 	0.7318	0.70495	0.0798	-0.238
Mof_H 	H 	0.7766	0.7188	0.096	0.124
Mof_C 	C 	0.072	0.49421	0.7753	-0.044
Mof_C 	C 	0.999	0.4949	0.6645	-0.034
Mof_H 	H 	0.9973	0.4958	0.6055	0.035
Mof_C 	C 	0.641	0.70593	0.1022	-0.23
Mof_H 	H 	0.6232	0.7208	0.1342	0.124
Mof_C 	C 	0.0729	0.4943	0.8608	-0.035
Mof_H 	H 	0.1224	0.4939	0.9368	0.055
Mof_H 	H 	0.117	0.5302	0.688	0.158
Mof_N 	N 	0.75736	0.77014	0.207	-0.104
Mof_N 	N 	0.76978	0.28936	0.2558	-0.098
Mof_N 	N 	0.34814	0.51582	0.75542	-0.272
Mof_N 	N 	0.15629	0.51252	0.7379	-0.286
Mof_O 	O 	0.60279	0.46532	0.8659	-0.464
Mof_O 	O 	0.51243	0.46303	0.88026	-0.462
Mof_O 	O 	0.60286	0.57937	0.85278	-0.468
Mof_O 	O 	0.52281	0.57503	0.88566	-0.461
Mof_O 	O 	0.20798	0.46453	0.8952	-0.237
Mof_Zn	Zn	0.43989	0.51967	0.761	1.216
Mof_C 	C 	0.72197	0.98787	0.2468	0.236
Mof_C 	C 	0.07713	0.05115	0.4087	0.412
Mof_C 	C 	0.07957	0.90538	0.4	0.425
Mof_C 	C 	0.79352	0.0158	0.3296	-0.246
Mof_H 	H 	0.8002	0.0365	0.383	0.147
Mof_C 	C 	0.85416	0.0122	0.331	0.147
Mof_H 	H 	0.9024	0.0303	0.3879	-0.013
Mof_C 	C 	0.1271	0.09256	0.5015	-0.157
Mof_C 	C 	0.12427	0.85884	0.4795	-0.197
Mof_C 	C 	0.77865	0.9577	0.1748	0.134
Mof_H 	H 	0.7732	0.9382	0.1211	-0.008
Mof_C 	C 	0.10175	0.11288	0.5527	0.097
Mof_H 	H 	0.0539	0.1004	0.5298	0.017
Mof_C 	C 	0.2004	0.11017	0.54	0.105
Mof_H 	H 	0.2191	0.096	0.5089	0.013
Mof_C 	C 	0.1468	0.15147	0.6375	-0.189
Mof_H 	H 	0.1294	0.165	0.6708	0.111
Mof_C 	C 	0.71501	0.95805	0.1679	-0.241
Mof_H 	H 	0.6681	0.9387	0.1115	0.116
Mof_C 	C 	0.2076	0.77317	0.6278	0.205
Mof_C 	C 	0.1908	0.83793	0.5065	0.149
Mof_H 	H 	0.2091	0.8527	0.4752	0.002
Mof_C 	C 	0.2181	0.1693	0.6712	0.168
Mof_C 	C 	0.6525	0.01149	0.3097	0.231
Mof_C 	C 	0.2454	0.14834	0.6237	-0.192
Mof_H 	H 	0.2941	0.1601	0.6483	0.105
Mof_C 	C 	0.1005	0.83666	0.5301	0.144
Mof_H 	H 	0.0563	0.8508	0.5152	-0.004
Mof_C 	C 	0.2318	0.79505	0.5798	-0.237
Mof_H 	H 	0.2766	0.7812	0.596	0.123
Mof_C 	C 	0.572	0.00579	0.2753	-0.047
Mof_C 	C 	0.499	0.0051	0.1645	-0.03
Mof_H 	H 	0.4973	0.0042	0.1055	0.034
Mof_C 	C 	0.141	0.79407	0.6022	-0.23
Mof_H 	H 	0.1232	0.7792	0.6342	0.124
Mof_C 	C 	0.5729	0.0057	0.3608	-0.032
Mof_H 	H 	0.6224	0.0061	0.4368	0.053
Mof_H 	H 	0.617	0.9698	0.188	0.158
Mof_N 	N 	0.25736	0.72986	0.707	-0.103
Mof_N 	N 	0.26978	0.21064	0.7558	-0.099
Mof_N 	N 	0.84814	0.98418	0.25542	-0.273
Mof_N 	N 	0.65629	0.98748	0.2379	-0.286
Mof_O 	O 	0.10279	0.03468	0.3659	-0.464
Mof_O 	O 	0.01243	0.03697	0.38026	-0.462
Mof_O 	O 	0.10286	0.92063	0.35278	-0.468
Mof_O 	O 	0.02281	0.92497	0.38566	-0.461
Mof_O 	O 	0.70798	0.03547	0.3952	-0.237
Mof_Zn	Zn	0.93989	0.98033	0.261	1.216
Mof_C 	C 	0.22197	0.48787	0.2468	0.237
Mof_C 	C 	0.57713	0.55115	0.4087	0.412
Mof_C 	C 	0.57957	0.40538	0.4	0.425
Mof_C 	C 	0.29352	0.5158	0.3296	-0.247
Mof_H 	H 	0.3002	0.5365	0.383	0.148
Mof_C 	C 	0.35416	0.5122	0.331	0.146
Mof_H 	H 	0.4024	0.5303	0.3879	-0.012
Mof_C 	C 	0.6271	0.59256	0.5015	-0.156
Mof_C 	C 	0.62427	0.35884	0.4795	-0.197
Mof_C 	C 	0.27865	0.4577	0.1748	0.134
Mof_H 	H 	0.2732	0.4382	0.1211	-0.008
Mof_C 	C 	0.60175	0.61288	0.5527	0.097
Mof_H 	H 	0.5539	0.6004	0.5298	0.017
Mof_C 	C 	0.7004	0.61017	0.54	0.105
Mof_H 	H 	0.7191	0.596	0.5089	0.013
Mof_C 	C 	0.6468	0.65147	0.6375	-0.188
Mof_H 	H 	0.6294	0.665	0.6708	0.111
Mof_C 	C 	0.21501	0.45805	0.1679	-0.242
Mof_H 	H 	0.1681	0.4387	0.1115	0.116
Mof_C 	C 	0.7076	0.27317	0.6278	0.205
Mof_C 	C 	0.6908	0.33793	0.5065	0.149
Mof_H 	H 	0.7091	0.3527	0.4752	0.002
Mof_C 	C 	0.7181	0.6693	0.6712	0.168
Mof_C 	C 	0.1525	0.51149	0.3097	0.231
Mof_C 	C 	0.7454	0.64834	0.6237	-0.192
Mof_H 	H 	0.7941	0.6601	0.6483	0.105
Mof_C 	C 	0.6005	0.33666	0.5301	0.144
Mof_H 	H 	0.5563	0.3508	0.5152	-0.004
Mof_C 	C 	0.7318	0.29505	0.5798	-0.237
Mof_H 	H 	0.7766	0.2812	0.596	0.123
Mof_C 	C 	0.072	0.50579	0.2753	-0.051
Mof_C 	C 	0.999	0.5051	0.1645	-0.026
Mof_H 	H 	0.9973	0.5042	0.1055	0.033
Mof_C 	C 	0.641	0.29407	0.6022	-0.23
Mof_H 	H 	0.6232	0.2792	0.6342	0.123
Mof_C 	C 	0.0729	0.5057	0.3608	-0.029
Mof_H 	H 	0.1224	0.5061	0.4368	0.052
Mof_H 	H 	0.117	0.4698	0.188	0.158
Mof_N 	N 	0.75736	0.22986	0.707	-0.104
Mof_N 	N 	0.76978	0.71064	0.7558	-0.099
Mof_N 	N 	0.34814	0.48418	0.25542	-0.272
Mof_N 	N 	0.15629	0.48748	0.2379	-0.286
Mof_O 	O 	0.60279	0.53468	0.3659	-0.464
Mof_O 	O 	0.51243	0.53697	0.38026	-0.462
Mof_O 	O 	0.60286	0.42063	0.35278	-0.468
Mof_O 	O 	0.52281	0.42497	0.38566	-0.461
Mof_O 	O 	0.20798	0.53547	0.3952	-0.238
Mof_Zn	Zn	0.43989	0.48033	0.261	1.216
Mof_C 	C 	0.27803	0.98787	0.2532	0.237
Mof_C 	C 	0.92287	0.05115	0.0913	0.415
Mof_C 	C 	0.92043	0.90538	0.1	0.425
Mof_C 	C 	0.20648	0.0158	0.1704	-0.247
Mof_H 	H 	0.1998	0.0365	0.117	0.147
Mof_C 	C 	0.14584	0.0122	0.169	0.147
Mof_H 	H 	0.0976	0.0303	0.1121	-0.013
Mof_C 	C 	0.8729	0.09256	0.9985	-0.16
Mof_C 	C 	0.87573	0.85884	0.0205	-0.196
Mof_C 	C 	0.22135	0.9577	0.3252	0.134
Mof_H 	H 	0.2268	0.9382	0.3789	-0.008
Mof_C 	C 	0.89825	0.11288	0.9473	0.099
Mof_H 	H 	0.9461	0.1004	0.9702	0.016
Mof_C 	C 	0.7996	0.11017	0.96	0.107
Mof_H 	H 	0.7809	0.096	0.9911	0.012
Mof_C 	C 	0.8532	0.15147	0.8625	-0.19
Mof_H 	H 	0.8706	0.165	0.8292	0.112
Mof_C 	C 	0.28499	0.95805	0.3321	-0.242
Mof_H 	H 	0.3319	0.9387	0.3885	0.116
Mof_C 	C 	0.7924	0.77317	0.8722	0.204
Mof_C 	C 	0.8092	0.83793	0.9935	0.148
Mof_H 	H 	0.7909	0.8527	0.0248	0.003
Mof_C 	C 	0.7819	0.1693	0.8288	0.169
Mof_C 	C 	0.3475	0.01149	0.1903	0.231
Mof_C 	C 	0.7546	0.14834	0.8763	-0.194
Mof_H 	H 	0.7059	0.1601	0.8517	0.105
Mof_C 	C 	0.8995	0.83666	0.9699	0.142
Mof_H 	H 	0.9437	0.8508	0.9848	-0.003
Mof_C 	C 	0.7682	0.79505	0.9202	-0.236
Mof_H 	H 	0.7234	0.7812	0.904	0.123
Mof_C 	C 	0.428	0.00579	0.2247	-0.047
Mof_C 	C 	0.501	0.0051	0.3355	-0.03
Mof_H 	H 	0.5027	0.0042	0.3945	0.034
Mof_C 	C 	0.859	0.79407	0.8978	-0.229
Mof_H 	H 	0.8768	0.7792	0.8658	0.123
Mof_C 	C 	0.4271	0.0057	0.1392	-0.032
Mof_H 	H 	0.3776	0.0061	0.0632	0.054
Mof_H 	H 	0.383	0.9698	0.312	0.158
Mof_N 	N 	0.74264	0.72986	0.793	-0.103
Mof_N 	N 	0.73022	0.21064	0.7442	-0.099
Mof_N 	N 	0.15186	0.98418	0.24458	-0.273
Mof_N 	N 	0.34371	0.98748	0.2621	-0.286
Mof_O 	O 	0.89721	0.03468	0.1341	-0.464
Mof_O 	O 	0.98757	0.03697	0.11974	-0.461
Mof_O 	O 	0.89714	0.92063	0.14722	-0.468
Mof_O 	O 	0.97719	0.92497	0.11434	-0.461
Mof_O 	O 	0.29202	0.03547	0.1048	-0.237
Mof_Zn	Zn	0.06011	0.98033	0.239	1.216
Mof_C 	C 	0.77803	0.48787	0.2532	0.237
Mof_C 	C 	0.42287	0.55115	0.0913	0.412
Mof_C 	C 	0.42043	0.40538	0.1	0.425
Mof_C 	C 	0.70648	0.5158	0.1704	-0.247
Mof_H 	H 	0.6998	0.5365	0.117	0.148
Mof_C 	C 	0.64584	0.5122	0.169	0.146
Mof_H 	H 	0.5976	0.5303	0.1121	-0.012
Mof_C 	C 	0.3729	0.59256	0.9985	-0.155
Mof_C 	C 	0.37573	0.35884	0.0205	-0.198
Mof_C 	C 	0.72135	0.4577	0.3252	0.135
Mof_H 	H 	0.7268	0.4382	0.3789	-0.008
Mof_C 	C 	0.39825	0.61288	0.9473	0.097
Mof_H 	H 	0.4461	0.6004	0.9702	0.017
Mof_C 	C 	0.2996	0.61017	0.96	0.105
Mof_H 	H 	0.2809	0.596	0.9911	0.014
Mof_C 	C 	0.3532	0.65147	0.8625	-0.188
Mof_H 	H 	0.3706	0.665	0.8292	0.111
Mof_C 	C 	0.78499	0.45805	0.3321	-0.242
Mof_H 	H 	0.8319	0.4387	0.3885	0.116
Mof_C 	C 	0.2924	0.27317	0.8722	0.206
Mof_C 	C 	0.3092	0.33793	0.9935	0.151
Mof_H 	H 	0.2909	0.3527	0.0248	0.001
Mof_C 	C 	0.2819	0.6693	0.8288	0.168
Mof_C 	C 	0.8475	0.51149	0.1903	0.23
Mof_C 	C 	0.2546	0.64834	0.8763	-0.192
Mof_H 	H 	0.2059	0.6601	0.8517	0.105
Mof_C 	C 	0.3995	0.33666	0.9699	0.145
Mof_H 	H 	0.4437	0.3508	0.9848	-0.004
Mof_C 	C 	0.2682	0.29505	0.9202	-0.238
Mof_H 	H 	0.2234	0.2812	0.904	0.124
Mof_C 	C 	0.928	0.50579	0.2247	-0.044
Mof_C 	C 	0.001	0.5051	0.3355	-0.034
Mof_H 	H 	0.0027	0.5042	0.3945	0.035
Mof_C 	C 	0.359	0.29407	0.8978	-0.23
Mof_H 	H 	0.3768	0.2792	0.8658	0.124
Mof_C 	C 	0.9271	0.5057	0.1392	-0.035
Mof_H 	H 	0.8776	0.5061	0.0632	0.055
Mof_H 	H 	0.883	0.4698	0.312	0.158
Mof_N 	N 	0.24264	0.22986	0.793	-0.104
Mof_N 	N 	0.23022	0.71064	0.7442	-0.098
Mof_N 	N 	0.65186	0.48418	0.24458	-0.272
Mof_N 	N 	0.84371	0.48748	0.2621	-0.286
Mof_O 	O 	0.39721	0.53468	0.1341	-0.464
Mof_O 	O 	0.48757	0.53697	0.11974	-0.462
Mof_O 	O 	0.39714	0.42063	0.14722	-0.468
Mof_O 	O 	0.47719	0.42497	0.11434	-0.461
Mof_O 	O 	0.79202	0.53547	0.1048	-0.237
Mof_Zn	Zn	0.56011	0.48033	0.239	1.216
_end
