# CIF file generated by openbabel 3.1.0, see https://openbabel.org
data_I
_chemical_name_common 'image0'
_cell_length_a 22.214
_cell_length_b 23.4645
_cell_length_c 6.6395
_cell_angle_alpha 90.398
_cell_angle_beta 108.236
_cell_angle_gamma 57.6
_space_group_name_H-M_alt 'P 1'
_space_group_name_Hall 'P 1'
loop_
    _symmetry_equiv_pos_as_xyz
    x,y,z
loop_
    _atom_site_label
    _atom_site_type_symbol
    _atom_site_fract_x
    _atom_site_fract_y
    _atom_site_fract_z
    _atom_site_occupancy
    Al1      Al       0.00000    0.00000    0.00000    1.000
    Al2      Al       0.50750    0.99846    0.97339    1.000
    Al3      Al       0.01032    0.48991    0.97344    1.000
    Al4      Al       0.48157    0.50534    0.96676    1.000
    Al5      Al       0.00664    0.00138    0.43567    1.000
    Al6      Al       0.50045    0.98066    0.49493    1.000
    Al7      Al       0.98542    0.49363    0.45363    1.000
    Al8      Al       0.49977    0.49334    0.49921    1.000
    O1       O        0.00000    0.03750    0.75000    1.000
    O2       O        0.50000    0.03750    0.75000    1.000
    O3       O        0.00000    0.53750    0.75000    1.000
    O4       O        0.50000    0.53750    0.75000    1.000
    O5       O        0.00000    0.96250    0.25000    1.000
    O6       O        0.50000    0.96250    0.25000    1.000
    O7       O        0.00000    0.46250    0.25000    1.000
    O8       O        0.50000    0.46250    0.25000    1.000
    H1       H        0.00000    0.07030    0.75000    1.000
    H2       H        0.50000    0.07030    0.75000    1.000
    H3       H        0.00000    0.57030    0.75000    1.000
    H4       H        0.50000    0.57030    0.75000    1.000
    H5       H        0.00000    0.92970    0.25000    1.000
    H6       H        0.50000    0.92970    0.25000    1.000
    H7       H        0.00000    0.42970    0.25000    1.000
    H8       H        0.50000    0.42970    0.25000    1.000
    C1       C        0.09938    0.01028    0.37710    1.000
    C2       C        0.16925    0.01250    0.41744    1.000
    C3       C        0.19344    0.01452    0.25049    1.000
    C4       C        0.20951    0.01254    0.62160    1.000
    C5       C        0.25744    0.01655    0.28743    1.000
    C6       C        0.27350    0.01458    0.65855    1.000
    C7       C        0.29770    0.01660    0.49160    1.000
    C8       C        0.36757    0.01882    0.53194    1.000
    O9       O        0.06293    0.01024    0.19230    1.000
    O10      O        0.07747    0.00846    0.52822    1.000
    O11      O        0.40401    0.01886    0.71674    1.000
    O12      O        0.38947    0.02064    0.38082    1.000
    N1       N        0.16057    0.00366    0.05684    1.000
    H9       H        0.11232    0.01424    0.01765    1.000
    H10      H        0.18744    0.98602    0.97011    1.000
    C9       C        0.59214    0.01339    0.28348    1.000
    C10      C        0.66634    0.00915    0.37481    1.000
    C11      C        0.70636    0.00508    0.24420    1.000
    C12      C        0.69479    0.00930    0.58968    1.000
    C13      C        0.77432    0.00119    0.32786    1.000
    C14      C        0.76275    0.00541    0.67333    1.000
    C15      C        0.80277    0.00134    0.54272    1.000
    C16      C        0.87697    0.99710    0.63405    1.000
    O13      O        0.56640    0.01325    0.08899    1.000
    O14      O        0.55592    0.01707    0.40170    1.000
    O15      O        0.90272    0.99723    0.82855    1.000
    O16      O        0.91319    0.99341    0.51583    1.000
    N2       N        0.68418    0.99417    0.04041    1.000
    H11      H        0.63502    0.00831    0.97176    1.000
    H12      H        0.71893    0.97295    0.97654    1.000
    C17      C        0.38608    0.50341    0.63277    1.000
    C18      C        0.31433    0.50328    0.55302    1.000
    C19      C        0.27567    0.51560    0.33520    1.000
    C20      C        0.28680    0.49084    0.69726    1.000
    C21      C        0.20995    0.51548    0.26215    1.000
    C22      C        0.22108    0.49072    0.62421    1.000
    C23      C        0.18241    0.50304    0.40640    1.000
    C24      C        0.11066    0.50291    0.32664    1.000
    O17      O        0.41100    0.51467    0.50221    1.000
    O18      O        0.42107    0.49225    0.82994    1.000
    O19      O        0.08574    0.49165    0.45721    1.000
    O20      O        0.07567    0.51406    0.12948    1.000
    N3       N        0.29640    0.53837    0.19403    1.000
    H13      H        0.34474    0.52745    0.23179    1.000
    H14      H        0.26153    0.56408    0.06446    1.000
    C25      C        0.59949    0.51441    0.36486    1.000
    C26      C        0.67240    0.51242    0.42059    1.000
    C27      C        0.69599    0.52127    0.25980    1.000
    C28      C        0.71608    0.50173    0.63280    1.000
    C29      C        0.76277    0.51945    0.31084    1.000
    C30      C        0.78287    0.49990    0.68384    1.000
    C31      C        0.80645    0.50876    0.52305    1.000
    C32      C        0.87936    0.50677    0.57878    1.000
    O21      O        0.55995    0.52409    0.17278    1.000
    O22      O        0.57815    0.50639    0.51041    1.000
    O23      O        0.91890    0.49709    0.77086    1.000
    O24      O        0.90071    0.51478    0.43323    1.000
    N4       N        0.65904    0.52108    0.05332    1.000
    H15      H        0.60972    0.53437    0.01054    1.000
    H16      H        0.68435    0.50766    0.96184    1.000
    C33      C        0.61556    0.38243    0.85930    1.000
    C34      C        0.68970    0.31100    0.94050    1.000
    C35      C        0.72495    0.28206    0.15738    1.000
    C36      C        0.72285    0.27403    0.79853    1.000
    C37      C        0.79286    0.21663    0.23176    1.000
    C38      C        0.79076    0.20860    0.87291    1.000
    C39      C        0.82601    0.17966    0.08979    1.000
    C40      C        0.90015    0.10823    0.17100    1.000
    O25      O        0.58556    0.41590    0.98780    1.000
    O26      O        0.58365    0.40863    0.66298    1.000
    O27      O        0.93016    0.07476    0.04249    1.000
    O28      O        0.93206    0.08203    0.36731    1.000
    N5       N        0.69827    0.32314    0.29935    1.000
    H17      H        0.64881    0.35962    0.25736    1.000
    H18      H        0.73037    0.31336    0.43365    1.000
    C41      C        0.10876    0.38282    0.84584    1.000
    C42      C        0.18413    0.31227    0.91602    1.000
    C43      C        0.21137    0.27163    0.11420    1.000
    C44      C        0.22642    0.28781    0.78257    1.000
    C45      C        0.28040    0.20700    0.17848    1.000
    C46      C        0.29546    0.22319    0.84684    1.000
    C47      C        0.32270    0.18255    0.04503    1.000
    C48      C        0.39807    0.11199    0.11520    1.000
    O29      O        0.07047    0.40496    0.96664    1.000
    O30      O        0.08410    0.41961    0.66645    1.000
    O31      O        0.43636    0.08986    0.99440    1.000
    O32      O        0.42273    0.07521    0.29459    1.000
    N6       N        0.17530    0.30055    0.25788    1.000
    H19      H        0.12518    0.33583    0.21068    1.000
    H20      H        0.20196    0.28408    0.39850    1.000
    C49      C        0.90024    0.60890    0.12701    1.000
    C50      C        0.82497    0.67941    0.04119    1.000
    C51      C        0.79042    0.71711    0.17994    1.000
    C52      C        0.79008    0.70677    0.82326    1.000
    C53      C        0.72148    0.78169    0.10134    1.000
    C54      C        0.72114    0.77136    0.74466    1.000
    C55      C        0.68659    0.80905    0.88341    1.000
    C56      C        0.61132    0.87956    0.79759    1.000
    O33      O        0.93182    0.58414    0.32427    1.000
    O34      O        0.93151    0.57478    0.00141    1.000
    O35      O        0.57974    0.90433    0.60033    1.000
    O36      O        0.58005    0.91368    0.92319    1.000
    N7       N        0.81908    0.68521    0.39060    1.000
    H21      H        0.86897    0.64996    0.45208    1.000
    H22      H        0.78783    0.69971    0.46609    1.000
    C57      C        0.40816    0.61076    0.14738    1.000
    C58      C        0.33008    0.67892    0.06777    1.000
    C59      C        0.29447    0.71179    0.21048    1.000
    C60      C        0.29365    0.70893    0.85162    1.000
    C61      C        0.22295    0.77422    0.13756    1.000
    C62      C        0.22213    0.77136    0.77871    1.000
    C63      C        0.18652    0.80423    0.92141    1.000
    C64      C        0.10844    0.87240    0.84181    1.000
    O37      O        0.44114    0.58359    0.34303    1.000
    O38      O        0.44040    0.58100    0.01821    1.000
    O39      O        0.07547    0.89956    0.64615    1.000
    O40      O        0.07621    0.90215    0.97098    1.000
    N8       N        0.32538    0.67662    0.41828    1.000
    H23      H        0.37610    0.64330    0.47742    1.000
    H24      H        0.29476    0.68706    0.49427    1.000
    N9       N        0.19314    0.99977    0.79289    1.000
    N10      N        0.27460    0.02934    0.11797    1.000
    N11      N        0.30638    0.02544    0.85220    1.000
    H25      H        0.16743    0.01449    0.11859    1.000
    H26      H        0.19387    0.01124    0.72946    1.000
    H27      H        0.27307    0.01785    0.17958    1.000
    H28      H        0.29951    0.01461    0.79045    1.000
    H29      H        0.14708    0.00692    0.77193    1.000
    H30      H        0.22855    0.98432    0.92523    1.000
    H31      H        0.32207    0.01886    0.13918    1.000
    H32      H        0.23829    0.04814    0.98656    1.000
    H33      H        0.35462    0.01486    0.89139    1.000
    H34      H        0.27951    0.04308    0.93893    1.000
    N12      N        0.66202    0.00250    0.72617    1.000
    N13      N        0.80782    0.00796    0.19363    1.000
    N14      N        0.78493    0.01632    0.87713    1.000
    H35      H        0.68798    0.00498    0.10539    1.000
    H36      H        0.66894    0.01193    0.67406    1.000
    H37      H        0.80017    0.99856    0.24348    1.000
    H38      H        0.78113    0.00551    0.81214    1.000
    H39      H        0.61351    0.01354    0.67431    1.000
    H40      H        0.68923    0.98702    0.86678    1.000
    H41      H        0.85754    0.99362    0.24554    1.000
    H42      H        0.77987    0.02671    0.05443    1.000
    H43      H        0.83409    0.00218    0.94578    1.000
    H44      H        0.75018    0.03754    0.94099    1.000
    N15      N        0.31771    0.48928    0.91088    1.000
    N16      N        0.17832    0.51694    0.04907    1.000
    N17      N        0.20034    0.46795    0.76539    1.000
    H45      H        0.29345    0.52363    0.24201    1.000
    H46      H        0.31177    0.48288    0.83798    1.000
    H47      H        0.18497    0.52344    0.12143    1.000
    H48      H        0.20329    0.48268    0.71740    1.000
    H49      H        0.36520    0.48052    0.96550    1.000
    H50      H        0.29032    0.49703    0.99516    1.000
    H51      H        0.12944    0.52905    0.99376    1.000
    H52      H        0.20665    0.50578    0.96581    1.000
    H53      H        0.15200    0.47886    0.72762    1.000
    H54      H        0.23521    0.44223    0.89495    1.000
    N18      N        0.69964    0.48231    0.79327    1.000
    N19      N        0.78005    0.53877    0.15236    1.000
    N20      N        0.81981    0.50010    0.89032    1.000
    H55      H        0.66777    0.52818    0.12270    1.000
    H56      H        0.70085    0.49601    0.73668    1.000
    H57      H        0.77801    0.52517    0.20696    1.000
    H58      H        0.81109    0.49299    0.82093    1.000
    H59      H        0.65244    0.49146    0.76716    1.000
    H60      H        0.73615    0.46053    0.92372    1.000
    H61      H        0.82841    0.52643    0.17708    1.000
    H62      H        0.74294    0.56368    0.02460    1.000
    H63      H        0.86914    0.48681    0.93310    1.000
    H64      H        0.79451    0.51352    0.98180    1.000
    N21      N        0.69487    0.30646    0.58887    1.000
    N22      N        0.82160    0.18342    0.44092    1.000
    N23      N        0.81744    0.16752    0.73094    1.000
    H65      H        0.70354    0.30595    0.24910    1.000
    H66      H        0.70008    0.29272    0.65841    1.000
    H67      H        0.81564    0.19794    0.37188    1.000
    H68      H        0.81217    0.18471    0.78119    1.000
    H69      H        0.64652    0.34464    0.53109    1.000
    H70      H        0.72504    0.28937    0.51032    1.000
    H71      H        0.87116    0.14733    0.50029    1.000
    H72      H        0.79073    0.19792    0.51754    1.000
    H73      H        0.86690    0.13104    0.77293    1.000
    H74      H        0.78534    0.17730    0.59664    1.000
    N24      N        0.20593    0.33189    0.60123    1.000
    N25      N        0.30174    0.16225    0.35929    1.000
    N26      N        0.33153    0.19427    0.70317    1.000
    H75      H        0.18404    0.28743    0.20042    1.000
    H76      H        0.20883    0.31407    0.65453    1.000
    H77      H        0.29800    0.18075    0.30651    1.000
    H78      H        0.32278    0.20739    0.76063    1.000
    H79      H        0.15755    0.36997    0.54263    1.000
    H80      H        0.24099    0.32247    0.54192    1.000
    H81      H        0.35113    0.12619    0.42256    1.000
    H82      H        0.26623    0.16921    0.41360    1.000
    H83      H        0.38164    0.15899    0.75037    1.000
    H84      H        0.30487    0.21074    0.56254    1.000
    N27      N        0.81761    0.66545    0.68269    1.000
    N28      N        0.69316    0.82371    0.23967    1.000
    N29      N        0.69248    0.80326    0.53400    1.000
    H85      H        0.81297    0.69943    0.32073    1.000
    H86      H        0.81240    0.68242    0.73362    1.000
    H87      H        0.69916    0.80605    0.19098    1.000
    H88      H        0.69859    0.78903    0.60387    1.000
    H89      H        0.86637    0.62763    0.72802    1.000
    H90      H        0.78676    0.67641    0.54594    1.000
    H91      H        0.64330    0.85945    0.19547    1.000
    H92      H        0.72461    0.81528    0.37383    1.000
    H93      H        0.64260    0.83850    0.47252    1.000
    H94      H        0.72373    0.78876    0.45851    1.000
    N30      N        0.32294    0.67165    0.70612    1.000
    N31      N        0.19285    0.81220    0.28088    1.000
    N32      N        0.19122    0.80653    0.57090    1.000
    H95      H        0.31801    0.69240    0.35012    1.000
    H96      H        0.31666    0.68769    0.75943    1.000
    H97      H        0.19995    0.79546    0.22976    1.000
    H98      H        0.19860    0.79075    0.63907    1.000
    H99      H        0.37276    0.63590    0.74862    1.000
    H100     H        0.29215    0.68317    0.56901    1.000
    H101     H        0.14217    0.84565    0.23913    1.000
    H102     H        0.22395    0.80344    0.41582    1.000
    H103     H        0.14050    0.83985    0.51177    1.000
    H104     H        0.22184    0.79609    0.49491    1.000
