data_functionalizedCrystal
_audit_creation_method	'EQeq! by Chris Wilmer'
_symmetry_space_group_name_H-M	'P1'
_symmetry_Int_Tables_number	1
_symmetry_cell_setting	triclinic
loop_
_symmetry_equiv_pos_as_xyz
  x,y,z
_cell_length_a	15.8548
_cell_length_b	15.8548
_cell_length_c	21.746
_cell_angle_alpha	90
_cell_angle_beta	90
_cell_angle_gamma	90
loop_
_atom_site_label
_atom_site_type_symbol
_atom_site_fract_x
_atom_site_fract_y
_atom_site_fract_z
_atom_site_charge
Mof_Cd	Cd	0.05973	0.94027	0.25	0.383
Mof_Cd	Cd	0.94027	0.05973	0.75	0.383
Mof_Cd	Cd	0.55973	0.55973	0.5	0.385
Mof_Cd	Cd	0.44027	0.44027	-0	0.383
Mof_H 	H 	0.7431	0.4954	0.5711	0.014
Mof_H 	H 	0.8538	0.4035	0.5589	0.083
Mof_H 	H 	0.7639	0.3455	0.3934	0.077
Mof_H 	H 	0.6576	0.4403	0.4088	0.01
Mof_H 	H 	0.967	0.3364	0.5343	0.059
Mof_H 	H 	0.0666	0.2342	0.5244	0.023
Mof_H 	H 	0.0464	0.1207	0.459	0.068
Mof_H 	H 	0.8257	0.2233	0.405	0.064
Mof_H 	H 	0.8015	0.0019	0.2089	0.07
Mof_H 	H 	0.7052	0.9099	0.1643	0.022
Mof_H 	H 	0.6565	0.7948	0.2187	0.071
Mof_H 	H 	0.8042	0.8593	0.3604	0.09
Mof_H 	H 	0.5879	0.7142	0.2842	0.095
Mof_H 	H 	0.5362	0.6144	0.3507	0.036
Mof_H 	H 	0.732	0.6397	0.4573	0.009
Mof_H 	H 	0.7896	0.7365	0.394	0.097
Mof_H 	H 	0.7418	0.0265	0.3865	0.13
Mof_H 	H 	0.7432	0.1059	0.353	0.116
Mof_H 	H 	0.2569	0.5046	0.0711	0.013
Mof_H 	H 	0.1462	0.5965	0.0589	0.082
Mof_H 	H 	0.2361	0.6545	0.8934	0.077
Mof_H 	H 	0.3424	0.5597	0.9088	0.01
Mof_H 	H 	0.033	0.6636	0.0343	0.059
Mof_H 	H 	0.9334	0.7658	0.0244	0.023
Mof_H 	H 	0.9536	0.8793	0.959	0.067
Mof_H 	H 	0.1743	0.7767	0.905	0.064
Mof_H 	H 	0.1985	0.9981	0.7089	0.071
Mof_H 	H 	0.2948	0.0901	0.6643	0.022
Mof_H 	H 	0.3435	0.2052	0.7187	0.071
Mof_H 	H 	0.1958	0.1407	0.8604	0.09
Mof_H 	H 	0.4121	0.2858	0.7842	0.095
Mof_H 	H 	0.4638	0.3856	0.8507	0.036
Mof_H 	H 	0.268	0.3603	0.9573	0.01
Mof_H 	H 	0.2104	0.2635	0.894	0.097
Mof_H 	H 	0.2582	0.9735	0.8865	0.13
Mof_H 	H 	0.2568	0.8941	0.853	0.116
Mof_H 	H 	0.0046	0.2431	0.8211	0.014
Mof_H 	H 	0.0965	0.3538	0.8089	0.082
Mof_H 	H 	0.1545	0.2639	0.6434	0.077
Mof_H 	H 	0.0597	0.1576	0.6588	0.011
Mof_H 	H 	0.1636	0.467	0.7843	0.058
Mof_H 	H 	0.2658	0.5666	0.7744	0.023
Mof_H 	H 	0.3793	0.5464	0.709	0.068
Mof_H 	H 	0.2767	0.3257	0.655	0.064
Mof_H 	H 	0.4981	0.3015	0.4589	0.072
Mof_H 	H 	0.5901	0.2052	0.4143	0.021
Mof_H 	H 	0.7052	0.1565	0.4687	0.071
Mof_H 	H 	0.6407	0.3042	0.6104	0.091
Mof_H 	H 	0.7858	0.0879	0.5342	0.094
Mof_H 	H 	0.8856	0.0362	0.6007	0.035
Mof_H 	H 	0.8603	0.232	0.7073	0.009
Mof_H 	H 	0.7635	0.2896	0.644	0.097
Mof_H 	H 	0.4735	0.2418	0.6365	0.13
Mof_H 	H 	0.3941	0.2432	0.603	0.116
Mof_H 	H 	0.9954	0.7569	0.3211	0.014
Mof_H 	H 	0.9035	0.6462	0.3089	0.082
Mof_H 	H 	0.8455	0.7361	0.1434	0.077
Mof_H 	H 	0.9403	0.8424	0.1588	0.011
Mof_H 	H 	0.8364	0.533	0.2843	0.058
Mof_H 	H 	0.7342	0.4334	0.2744	0.023
Mof_H 	H 	0.6207	0.4536	0.209	0.068
Mof_H 	H 	0.7233	0.6743	0.155	0.064
Mof_H 	H 	0.5019	0.6985	0.9589	0.069
Mof_H 	H 	0.4099	0.7948	0.9143	0.025
Mof_H 	H 	0.2948	0.8435	0.9687	0.068
Mof_H 	H 	0.3593	0.6958	0.1104	0.088
Mof_H 	H 	0.2142	0.9121	0.0342	0.094
Mof_H 	H 	0.1144	0.9638	0.1007	0.035
Mof_H 	H 	0.1397	0.768	0.2073	0.009
Mof_H 	H 	0.2365	0.7104	0.144	0.098
Mof_H 	H 	0.5265	0.7582	0.1365	0.13
Mof_H 	H 	0.6059	0.7568	0.103	0.116
Mof_H 	H 	0.7569	0.9954	0.6789	0.014
Mof_H 	H 	0.6462	0.9035	0.6911	0.082
Mof_H 	H 	0.7361	0.8455	0.8566	0.077
Mof_H 	H 	0.8424	0.9403	0.8412	0.011
Mof_H 	H 	0.533	0.8364	0.7157	0.058
Mof_H 	H 	0.4334	0.7342	0.7256	0.023
Mof_H 	H 	0.4536	0.6207	0.791	0.068
Mof_H 	H 	0.6743	0.7233	0.845	0.064
Mof_H 	H 	0.6985	0.5019	0.0411	0.075
Mof_H 	H 	0.7948	0.4099	0.0857	0.019
Mof_H 	H 	0.8435	0.2948	0.0313	0.074
Mof_H 	H 	0.6958	0.3593	0.8896	0.093
Mof_H 	H 	0.9121	0.2142	0.9658	0.094
Mof_H 	H 	0.9638	0.1144	0.8993	0.036
Mof_H 	H 	0.768	0.1397	0.7927	0.01
Mof_H 	H 	0.7104	0.2365	0.856	0.096
Mof_H 	H 	0.7582	0.5265	0.8635	0.131
Mof_H 	H 	0.7568	0.6059	0.897	0.117
Mof_H 	H 	0.2431	0.0046	0.1789	0.014
Mof_H 	H 	0.3538	0.0965	0.1911	0.082
Mof_H 	H 	0.2639	0.1545	0.3566	0.077
Mof_H 	H 	0.1576	0.0597	0.3412	0.011
Mof_H 	H 	0.467	0.1636	0.2157	0.058
Mof_H 	H 	0.5666	0.2658	0.2256	0.023
Mof_H 	H 	0.5464	0.3793	0.291	0.068
Mof_H 	H 	0.3257	0.2767	0.345	0.064
Mof_H 	H 	0.3015	0.4981	0.5411	0.072
Mof_H 	H 	0.2052	0.5901	0.5857	0.021
Mof_H 	H 	0.1565	0.7052	0.5313	0.071
Mof_H 	H 	0.3042	0.6407	0.3896	0.091
Mof_H 	H 	0.0879	0.7858	0.4658	0.094
Mof_H 	H 	0.0362	0.8856	0.3993	0.035
Mof_H 	H 	0.232	0.8603	0.2927	0.009
Mof_H 	H 	0.2896	0.7635	0.356	0.097
Mof_H 	H 	0.2418	0.4735	0.3635	0.13
Mof_H 	H 	0.2432	0.3941	0.397	0.116
Mof_H 	H 	0.4954	0.7431	0.4289	0.013
Mof_H 	H 	0.4035	0.8538	0.4411	0.082
Mof_H 	H 	0.3455	0.7639	0.6066	0.077
Mof_H 	H 	0.4403	0.6576	0.5912	0.01
Mof_H 	H 	0.3364	0.967	0.4657	0.059
Mof_H 	H 	0.2342	0.0666	0.4756	0.023
Mof_H 	H 	0.1207	0.0464	0.541	0.068
Mof_H 	H 	0.2233	0.8257	0.595	0.064
Mof_H 	H 	0.0019	0.8015	0.7911	0.07
Mof_H 	H 	0.9099	0.7052	0.8357	0.023
Mof_H 	H 	0.7948	0.6565	0.7813	0.071
Mof_H 	H 	0.8593	0.8042	0.6396	0.09
Mof_H 	H 	0.7142	0.5879	0.7158	0.095
Mof_H 	H 	0.6144	0.5362	0.6493	0.036
Mof_H 	H 	0.6397	0.732	0.5427	0.009
Mof_H 	H 	0.7365	0.7896	0.606	0.097
Mof_H 	H 	0.0265	0.7418	0.6135	0.13
Mof_H 	H 	0.1059	0.7432	0.647	0.116
Mof_H 	H 	0.5046	0.2569	0.9289	0.013
Mof_H 	H 	0.5965	0.1462	0.9411	0.08
Mof_H 	H 	0.6545	0.2361	0.1066	0.076
Mof_H 	H 	0.5597	0.3424	0.0912	0.011
Mof_H 	H 	0.6636	0.033	0.9657	0.06
Mof_H 	H 	0.7658	0.9334	0.9756	0.021
Mof_H 	H 	0.8793	0.9536	0.041	0.07
Mof_H 	H 	0.7767	0.1743	0.095	0.065
Mof_H 	H 	0.9981	0.1985	0.2911	0.07
Mof_H 	H 	0.0901	0.2948	0.3357	0.022
Mof_H 	H 	0.2052	0.3435	0.2813	0.071
Mof_H 	H 	0.1407	0.1958	0.1396	0.09
Mof_H 	H 	0.2858	0.4121	0.2158	0.095
Mof_H 	H 	0.3856	0.4638	0.1493	0.036
Mof_H 	H 	0.3603	0.268	0.0427	0.009
Mof_H 	H 	0.2635	0.2104	0.106	0.097
Mof_H 	H 	0.9735	0.2582	0.1135	0.13
Mof_H 	H 	0.8941	0.2568	0.147	0.116
Mof_C 	C 	0.747	0.4645	0.5348	0.081
Mof_C 	C 	0.8135	0.4081	0.528	-0.142
Mof_C 	C 	0.8201	0.3595	0.4764	0.076
Mof_C 	C 	0.7606	0.3745	0.4305	-0.142
Mof_C 	C 	0.6968	0.432	0.4401	0.085
Mof_C 	C 	0.8859	0.293	0.4702	0.018
Mof_C 	C 	0.9586	0.2931	0.5061	-0.084
Mof_C 	C 	0.0177	0.2311	0.5009	0.01
Mof_C 	C 	0.0065	0.1636	0.4613	-0.083
Mof_C 	C 	0.9335	0.1614	0.4247	0.027
Mof_C 	C 	0.874	0.2253	0.4293	-0.086
Mof_C 	C 	0.9248	0.0911	0.38121	0.102
Mof_C 	C 	0.8743	0.9955	0.3196	0.096
Mof_C 	C 	0.8128	0.9386	0.2891	0.038
Mof_C 	C 	0.7828	0.9548	0.2304	-0.097
Mof_C 	C 	0.7246	0.9001	0.204	0.02
Mof_C 	C 	0.6955	0.831	0.2366	-0.1
Mof_C 	C 	0.724	0.8153	0.2961	0.037
Mof_C 	C 	0.7836	0.8697	0.3211	-0.107
Mof_C 	C 	0.6932	0.7428	0.3334	0.071
Mof_C 	C 	0.6174	0.7014	0.3199	-0.132
Mof_C 	C 	0.5867	0.6413	0.3603	0.073
Mof_C 	C 	0.7017	0.656	0.4227	0.087
Mof_C 	C 	0.7365	0.7148	0.3851	-0.146
Mof_C 	C 	0.253	0.5355	0.0348	0.08
Mof_C 	C 	0.1865	0.5919	0.028	-0.146
Mof_C 	C 	0.1799	0.6405	0.9764	0.079
Mof_C 	C 	0.2394	0.6255	0.9305	-0.143
Mof_C 	C 	0.3032	0.568	0.9401	0.087
Mof_C 	C 	0.1141	0.707	0.9702	0.02
Mof_C 	C 	0.0414	0.7069	0.0061	-0.087
Mof_C 	C 	0.9823	0.7689	0.0009	0.007
Mof_C 	C 	0.9935	0.8364	0.9613	-0.079
Mof_C 	C 	0.0665	0.8386	0.9247	0.026
Mof_C 	C 	0.126	0.7747	0.9293	-0.085
Mof_C 	C 	0.0752	0.9089	0.88121	0.103
Mof_C 	C 	0.1257	0.0045	0.8196	0.096
Mof_C 	C 	0.1872	0.0614	0.7891	0.038
Mof_C 	C 	0.2172	0.0452	0.7304	-0.097
Mof_C 	C 	0.2754	0.0999	0.704	0.02
Mof_C 	C 	0.3045	0.169	0.7366	-0.101
Mof_C 	C 	0.276	0.1847	0.7961	0.037
Mof_C 	C 	0.2164	0.1303	0.8211	-0.107
Mof_C 	C 	0.3068	0.2572	0.8334	0.07
Mof_C 	C 	0.3826	0.2986	0.8199	-0.132
Mof_C 	C 	0.4133	0.3587	0.8603	0.073
Mof_C 	C 	0.2983	0.344	0.9227	0.087
Mof_C 	C 	0.2635	0.2852	0.8851	-0.146
Mof_C 	C 	0.0355	0.247	0.7848	0.081
Mof_C 	C 	0.0919	0.3135	0.778	-0.142
Mof_C 	C 	0.1405	0.3201	0.7264	0.076
Mof_C 	C 	0.1255	0.2606	0.6805	-0.142
Mof_C 	C 	0.068	0.1968	0.6901	0.085
Mof_C 	C 	0.207	0.3859	0.7202	0.017
Mof_C 	C 	0.2069	0.4586	0.7561	-0.083
Mof_C 	C 	0.2689	0.5177	0.7509	0.009
Mof_C 	C 	0.3364	0.5065	0.7113	-0.084
Mof_C 	C 	0.3386	0.4335	0.6747	0.028
Mof_C 	C 	0.2747	0.374	0.6793	-0.086
Mof_C 	C 	0.4089	0.4248	0.63121	0.102
Mof_C 	C 	0.5045	0.3743	0.5696	0.095
Mof_C 	C 	0.5614	0.3128	0.5391	0.039
Mof_C 	C 	0.5452	0.2828	0.4804	-0.1
Mof_C 	C 	0.5999	0.2246	0.454	0.022
Mof_C 	C 	0.669	0.1955	0.4866	-0.102
Mof_C 	C 	0.6847	0.224	0.5461	0.038
Mof_C 	C 	0.6303	0.2836	0.5711	-0.108
Mof_C 	C 	0.7572	0.1932	0.5834	0.07
Mof_C 	C 	0.7986	0.1174	0.5699	-0.132
Mof_C 	C 	0.8587	0.0867	0.6103	0.073
Mof_C 	C 	0.844	0.2017	0.6727	0.087
Mof_C 	C 	0.7852	0.2365	0.6351	-0.146
Mof_C 	C 	0.9645	0.753	0.2848	0.081
Mof_C 	C 	0.9081	0.6865	0.278	-0.142
Mof_C 	C 	0.8595	0.6799	0.2264	0.076
Mof_C 	C 	0.8745	0.7394	0.1805	-0.142
Mof_C 	C 	0.932	0.8032	0.1901	0.085
Mof_C 	C 	0.793	0.6141	0.2202	0.017
Mof_C 	C 	0.7931	0.5414	0.2561	-0.083
Mof_C 	C 	0.7311	0.4823	0.2509	0.009
Mof_C 	C 	0.6636	0.4935	0.2113	-0.084
Mof_C 	C 	0.6614	0.5665	0.1747	0.028
Mof_C 	C 	0.7253	0.626	0.1793	-0.086
Mof_C 	C 	0.5911	0.5752	0.13121	0.102
Mof_C 	C 	0.4955	0.6257	0.0696	0.097
Mof_C 	C 	0.4386	0.6872	0.0391	0.03
Mof_C 	C 	0.4548	0.7172	0.9804	-0.089
Mof_C 	C 	0.4001	0.7754	0.954	0.012
Mof_C 	C 	0.331	0.8045	0.9866	-0.091
Mof_C 	C 	0.3153	0.776	0.0461	0.029
Mof_C 	C 	0.3697	0.7164	0.0711	-0.101
Mof_C 	C 	0.2428	0.8068	0.0834	0.073
Mof_C 	C 	0.2014	0.8826	0.0699	-0.134
Mof_C 	C 	0.1413	0.9133	0.1103	0.074
Mof_C 	C 	0.156	0.7983	0.1727	0.088
Mof_C 	C 	0.2148	0.7635	0.1351	-0.149
Mof_C 	C 	0.753	0.9645	0.7152	0.081
Mof_C 	C 	0.6865	0.9081	0.722	-0.142
Mof_C 	C 	0.6799	0.8595	0.7736	0.076
Mof_C 	C 	0.7394	0.8745	0.8195	-0.142
Mof_C 	C 	0.8032	0.932	0.8099	0.086
Mof_C 	C 	0.6141	0.793	0.7798	0.017
Mof_C 	C 	0.5414	0.7931	0.7439	-0.083
Mof_C 	C 	0.4823	0.7311	0.7491	0.009
Mof_C 	C 	0.4935	0.6636	0.7887	-0.085
Mof_C 	C 	0.5665	0.6614	0.8253	0.029
Mof_C 	C 	0.626	0.7253	0.8207	-0.086
Mof_C 	C 	0.5752	0.5911	0.86879	0.103
Mof_C 	C 	0.6257	0.4955	0.9304	0.093
Mof_C 	C 	0.6872	0.4386	0.9609	0.047
Mof_C 	C 	0.7172	0.4548	0.0196	-0.109
Mof_C 	C 	0.7754	0.4001	0.046	0.029
Mof_C 	C 	0.8045	0.331	0.0134	-0.111
Mof_C 	C 	0.776	0.3153	0.9539	0.045
Mof_C 	C 	0.7164	0.3697	0.9289	-0.114
Mof_C 	C 	0.8068	0.2428	0.9166	0.067
Mof_C 	C 	0.8826	0.2014	0.9301	-0.13
Mof_C 	C 	0.9133	0.1413	0.8897	0.072
Mof_C 	C 	0.7983	0.156	0.8273	0.086
Mof_C 	C 	0.7635	0.2148	0.8649	-0.144
Mof_C 	C 	0.247	0.0355	0.2152	0.081
Mof_C 	C 	0.3135	0.0919	0.222	-0.142
Mof_C 	C 	0.3201	0.1405	0.2736	0.076
Mof_C 	C 	0.2606	0.1255	0.3195	-0.142
Mof_C 	C 	0.1968	0.068	0.3099	0.085
Mof_C 	C 	0.3859	0.207	0.2798	0.017
Mof_C 	C 	0.4586	0.2069	0.2439	-0.083
Mof_C 	C 	0.5177	0.2689	0.2491	0.009
Mof_C 	C 	0.5065	0.3364	0.2887	-0.084
Mof_C 	C 	0.4335	0.3386	0.3253	0.028
Mof_C 	C 	0.374	0.2747	0.3207	-0.086
Mof_C 	C 	0.4248	0.4089	0.36879	0.102
Mof_C 	C 	0.3743	0.5045	0.4304	0.095
Mof_C 	C 	0.3128	0.5614	0.4609	0.039
Mof_C 	C 	0.2828	0.5452	0.5196	-0.1
Mof_C 	C 	0.2246	0.5999	0.546	0.022
Mof_C 	C 	0.1955	0.669	0.5134	-0.102
Mof_C 	C 	0.224	0.6847	0.4539	0.038
Mof_C 	C 	0.2836	0.6303	0.4289	-0.108
Mof_C 	C 	0.1932	0.7572	0.4166	0.07
Mof_C 	C 	0.1174	0.7986	0.4301	-0.132
Mof_C 	C 	0.0867	0.8587	0.3897	0.073
Mof_C 	C 	0.2017	0.844	0.3273	0.087
Mof_C 	C 	0.2365	0.7852	0.3649	-0.146
Mof_C 	C 	0.4645	0.747	0.4652	0.081
Mof_C 	C 	0.4081	0.8135	0.472	-0.142
Mof_C 	C 	0.3595	0.8201	0.5236	0.076
Mof_C 	C 	0.3745	0.7606	0.5695	-0.142
Mof_C 	C 	0.432	0.6968	0.5599	0.085
Mof_C 	C 	0.293	0.8859	0.5298	0.018
Mof_C 	C 	0.2931	0.9586	0.4939	-0.084
Mof_C 	C 	0.2311	0.0177	0.4991	0.01
Mof_C 	C 	0.1636	0.0065	0.5387	-0.083
Mof_C 	C 	0.1614	0.9335	0.5753	0.027
Mof_C 	C 	0.2253	0.874	0.5707	-0.086
Mof_C 	C 	0.0911	0.9248	0.61879	0.102
Mof_C 	C 	0.9955	0.8743	0.6804	0.096
Mof_C 	C 	0.9386	0.8128	0.7109	0.037
Mof_C 	C 	0.9548	0.7828	0.7696	-0.096
Mof_C 	C 	0.9001	0.7246	0.796	0.019
Mof_C 	C 	0.831	0.6955	0.7634	-0.1
Mof_C 	C 	0.8153	0.724	0.7039	0.036
Mof_C 	C 	0.8697	0.7836	0.6789	-0.106
Mof_C 	C 	0.7428	0.6932	0.6666	0.071
Mof_C 	C 	0.7014	0.6174	0.6801	-0.132
Mof_C 	C 	0.6413	0.5867	0.6397	0.073
Mof_C 	C 	0.656	0.7017	0.5773	0.087
Mof_C 	C 	0.7148	0.7365	0.6149	-0.147
Mof_C 	C 	0.5355	0.253	0.9652	0.082
Mof_C 	C 	0.5919	0.1865	0.972	-0.138
Mof_C 	C 	0.6405	0.1799	0.0236	0.072
Mof_C 	C 	0.6255	0.2394	0.0695	-0.14
Mof_C 	C 	0.568	0.3032	0.0599	0.084
Mof_C 	C 	0.707	0.1141	0.0298	0.02
Mof_C 	C 	0.7069	0.0414	0.9939	-0.088
Mof_C 	C 	0.7689	0.9823	0.9991	0.019
Mof_C 	C 	0.8364	0.9935	0.0387	-0.092
Mof_C 	C 	0.8386	0.0665	0.0753	0.031
Mof_C 	C 	0.7747	0.126	0.0707	-0.089
Mof_C 	C 	0.9089	0.0752	0.11879	0.101
Mof_C 	C 	0.0045	0.1257	0.1804	0.096
Mof_C 	C 	0.0614	0.1872	0.2109	0.037
Mof_C 	C 	0.0452	0.2172	0.2696	-0.096
Mof_C 	C 	0.0999	0.2754	0.296	0.019
Mof_C 	C 	0.169	0.3045	0.2634	-0.1
Mof_C 	C 	0.1847	0.276	0.2039	0.037
Mof_C 	C 	0.1303	0.2164	0.1789	-0.107
Mof_C 	C 	0.2572	0.3068	0.1666	0.071
Mof_C 	C 	0.2986	0.3826	0.1801	-0.132
Mof_C 	C 	0.3587	0.4133	0.1397	0.073
Mof_C 	C 	0.344	0.2983	0.0773	0.087
Mof_C 	C 	0.2852	0.2635	0.1149	-0.147
Mof_N 	N 	0.6883	0.4763	0.49135	-0.152
Mof_N 	N 	0.9888	0.054	0.35495	-0.1
Mof_N 	N 	0.9562	0.9933	0.31633	-0.112
Mof_N 	N 	0.8517	0.0564	0.36001	-0.103
Mof_N 	N 	0.7698	0.0746	0.3809	-0.22
Mof_N 	N 	0.6262	0.6199	0.41295	-0.152
Mof_N 	N 	0.3117	0.5237	0.99135	-0.15
Mof_N 	N 	0.0112	0.946	0.85495	-0.1
Mof_N 	N 	0.0438	0.0067	0.81633	-0.112
Mof_N 	N 	0.1483	0.9436	0.86001	-0.102
Mof_N 	N 	0.2302	0.9254	0.8809	-0.22
Mof_N 	N 	0.3738	0.3801	0.91295	-0.152
Mof_N 	N 	0.0237	0.1883	0.74135	-0.151
Mof_N 	N 	0.446	0.4888	0.60495	-0.099
Mof_N 	N 	0.5067	0.4562	0.56633	-0.113
Mof_N 	N 	0.4436	0.3517	0.61001	-0.102
Mof_N 	N 	0.4254	0.2698	0.6309	-0.221
Mof_N 	N 	0.8801	0.1262	0.66295	-0.152
Mof_N 	N 	0.9763	0.8117	0.24135	-0.151
Mof_N 	N 	0.554	0.5112	0.10495	-0.099
Mof_N 	N 	0.4933	0.5438	0.06633	-0.113
Mof_N 	N 	0.5564	0.6483	0.11001	-0.102
Mof_N 	N 	0.5746	0.7302	0.1309	-0.22
Mof_N 	N 	0.1199	0.8738	0.16295	-0.153
Mof_N 	N 	0.8117	0.9763	0.75865	-0.151
Mof_N 	N 	0.5112	0.554	0.89505	-0.099
Mof_N 	N 	0.5438	0.4933	0.93367	-0.112
Mof_N 	N 	0.6483	0.5564	0.88999	-0.101
Mof_N 	N 	0.7302	0.5746	0.8691	-0.221
Mof_N 	N 	0.8738	0.1199	0.83705	-0.152
Mof_N 	N 	0.1883	0.0237	0.25865	-0.151
Mof_N 	N 	0.4888	0.446	0.39505	-0.099
Mof_N 	N 	0.4562	0.5067	0.43367	-0.113
Mof_N 	N 	0.3517	0.4436	0.38999	-0.102
Mof_N 	N 	0.2698	0.4254	0.3691	-0.221
Mof_N 	N 	0.1262	0.8801	0.33705	-0.152
Mof_N 	N 	0.4763	0.6883	0.50865	-0.152
Mof_N 	N 	0.054	0.9888	0.64505	-0.1
Mof_N 	N 	0.9933	0.9562	0.68367	-0.112
Mof_N 	N 	0.0564	0.8517	0.63999	-0.103
Mof_N 	N 	0.0746	0.7698	0.6191	-0.22
Mof_N 	N 	0.6199	0.6262	0.58705	-0.152
Mof_N 	N 	0.5237	0.3117	0.00865	-0.153
Mof_N 	N 	0.946	0.0112	0.14505	-0.1
Mof_N 	N 	0.0067	0.0438	0.18367	-0.112
Mof_N 	N 	0.9436	0.1483	0.13999	-0.102
Mof_N 	N 	0.9254	0.2302	0.1191	-0.221
Mof_N 	N 	0.3801	0.3738	0.08705	-0.152
Mof_Cl	Cl	0.62647	0.37353	0.75	-0.236
Mof_O 	O 	0.6313	0.443	0.788	-0.025
Mof_O 	O 	0.6687	0.4059	0.6994	-0.043
Mof_O 	O 	0.557	0.3687	0.712	-0.025
Mof_O 	O 	0.5941	0.3313	0.8006	-0.043
Mof_Cl	Cl	0.37353	0.62647	0.25	-0.236
Mof_O 	O 	0.3687	0.557	0.288	-0.025
Mof_O 	O 	0.3313	0.5941	0.1994	-0.043
Mof_O 	O 	0.443	0.6313	0.212	-0.025
Mof_O 	O 	0.4059	0.6687	0.3006	-0.043
Mof_Cl	Cl	0.12647	0.12647	-0	-0.241
Mof_O 	O 	0.057	0.1313	0.038	-0.025
Mof_O 	O 	0.0941	0.1687	0.9494	-0.041
Mof_O 	O 	0.1313	0.057	0.962	-0.023
Mof_O 	O 	0.1687	0.0941	0.0506	-0.042
Mof_Cl	Cl	0.87353	0.87353	0.5	-0.237
Mof_O 	O 	0.943	0.8687	0.538	-0.025
Mof_O 	O 	0.9059	0.8313	0.4494	-0.043
Mof_O 	O 	0.8687	0.943	0.462	-0.025
Mof_O 	O 	0.8313	0.9059	0.5506	-0.043
_end
