data_functionalizedCrystal
_audit_creation_method	'EQeq! by Chris Wilmer'
_symmetry_space_group_name_H-M	'P1'
_symmetry_Int_Tables_number	1
_symmetry_cell_setting	triclinic
loop_
_symmetry_equiv_pos_as_xyz
  x,y,z
_cell_length_a	13.0903
_cell_length_b	13.9533
_cell_length_c	15.9804
_cell_angle_alpha	96.908
_cell_angle_beta	114.178
_cell_angle_gamma	90
loop_
_atom_site_label
_atom_site_type_symbol
_atom_site_fract_x
_atom_site_fract_y
_atom_site_fract_z
_atom_site_charge
Mof_Tb	Tb	0.48325	0.45895	0.37108	1.936
Mof_Tb	Tb	0.11217	0.04105	0.62892	1.911
Mof_Tb	Tb	0.51675	0.54105	0.62892	1.936
Mof_Tb	Tb	0.88783	0.95895	0.37108	1.911
Mof_H 	H 	0.1391	0.5424	0.11	0.021
Mof_H 	H 	0.0379	0.5948	0.9694	0.088
Mof_H 	H 	0.3192	0.6485	0.942	0.074
Mof_H 	H 	0.4214	0.603	0.089	0.017
Mof_H 	H 	0.817	0.5713	0.6876	0.048
Mof_H 	H 	0.0481	0.7745	0.7178	0.062
Mof_H 	H 	0.7957	0.6973	0.4682	0.019
Mof_H 	H 	0.163	0.691	0.834	0.034
Mof_H 	H 	0.0291	0.9576	0.89	0.02
Mof_H 	H 	0.0685	0.9052	0.0306	0.092
Mof_H 	H 	0.3772	0.8515	0.058	0.076
Mof_H 	H 	0.3324	0.897	0.911	0.015
Mof_H 	H 	0.1294	0.9287	0.3124	0.05
Mof_H 	H 	0.3303	0.7255	0.2822	0.055
Mof_H 	H 	0.3275	0.8027	0.5318	0.017
Mof_H 	H 	0.329	0.809	0.166	0.035
Mof_H 	H 	0.8609	0.4576	0.89	0.021
Mof_H 	H 	0.9621	0.4052	0.0306	0.088
Mof_H 	H 	0.6808	0.3515	0.058	0.074
Mof_H 	H 	0.5786	0.397	0.911	0.017
Mof_H 	H 	0.183	0.4287	0.3124	0.048
Mof_H 	H 	0.9519	0.2255	0.2822	0.062
Mof_H 	H 	0.2043	0.3027	0.5318	0.019
Mof_H 	H 	0.837	0.309	0.166	0.034
Mof_H 	H 	0.9709	0.0424	0.11	0.02
Mof_H 	H 	0.9315	0.0948	0.9694	0.092
Mof_H 	H 	0.6228	0.1485	0.942	0.076
Mof_H 	H 	0.6676	0.103	0.089	0.015
Mof_H 	H 	0.8706	0.0713	0.6876	0.05
Mof_H 	H 	0.6697	0.2745	0.7178	0.055
Mof_H 	H 	0.6725	0.1973	0.4682	0.017
Mof_H 	H 	0.671	0.191	0.834	0.035
Mof_C 	C 	0.3549	0.5268	0.2024	0.326
Mof_C 	C 	0.29	0.5644	0.1112	-0.124
Mof_C 	C 	0.1763	0.5638	0.0766	0.06
Mof_C 	C 	0.1157	0.5947	0.992	-0.149
Mof_C 	C 	0.1677	0.6249	0.9418	0.094
Mof_C 	C 	0.2823	0.6277	0.976	-0.148
Mof_C 	C 	0.3434	0.5986	0.0636	0.055
Mof_C 	C 	0.1062	0.6526	0.8468	-0.017
Mof_C 	C 	0.6862	0.565	0.5074	0.416
Mof_C 	C 	0.7894	0.6251	0.5686	-0.134
Mof_C 	C 	0.8461	0.6148	0.6622	-0.038
Mof_C 	C 	0.9432	0.6674	0.7168	0.057
Mof_C 	C 	0.9832	0.7368	0.6802	-0.036
Mof_C 	C 	0.9258	0.7498	0.5872	-0.133
Mof_C 	C 	0.8313	0.6918	0.531	0.061
Mof_C 	C 	0.9653	0.8276	0.5486	0.466
Mof_C 	C 	0.1525	0.9732	0.7976	0.34
Mof_C 	C 	0.1788	0.9356	0.8888	-0.131
Mof_C 	C 	0.0997	0.9362	0.9234	0.069
Mof_C 	C 	0.1237	0.9053	0.008	-0.155
Mof_C 	C 	0.2259	0.8751	0.0582	0.1
Mof_C 	C 	0.3063	0.8723	0.024	-0.155
Mof_C 	C 	0.2798	0.9014	0.9364	0.064
Mof_C 	C 	0.2594	0.8474	0.1532	-0.021
Mof_C 	C 	0.1788	0.935	0.4926	0.415
Mof_C 	C 	0.2208	0.8749	0.4314	-0.135
Mof_C 	C 	0.1839	0.8852	0.3378	-0.035
Mof_C 	C 	0.2264	0.8326	0.2832	0.053
Mof_C 	C 	0.303	0.7632	0.3198	-0.023
Mof_C 	C 	0.3386	0.7502	0.4128	-0.141
Mof_C 	C 	0.3003	0.8082	0.469	0.066
Mof_C 	C 	0.4167	0.6724	0.4514	0.479
Mof_C 	C 	0.6451	0.4732	0.7976	0.326
Mof_C 	C 	0.71	0.4356	0.8888	-0.124
Mof_C 	C 	0.8237	0.4362	0.9234	0.06
Mof_C 	C 	0.8843	0.4053	0.008	-0.149
Mof_C 	C 	0.8323	0.3751	0.0582	0.094
Mof_C 	C 	0.7177	0.3723	0.024	-0.148
Mof_C 	C 	0.6566	0.4014	0.9364	0.055
Mof_C 	C 	0.8938	0.3474	0.1532	-0.017
Mof_C 	C 	0.3138	0.435	0.4926	0.416
Mof_C 	C 	0.2106	0.3749	0.4314	-0.134
Mof_C 	C 	0.1539	0.3852	0.3378	-0.038
Mof_C 	C 	0.0568	0.3326	0.2832	0.057
Mof_C 	C 	0.0168	0.2632	0.3198	-0.036
Mof_C 	C 	0.0742	0.2502	0.4128	-0.133
Mof_C 	C 	0.1687	0.3082	0.469	0.061
Mof_C 	C 	0.0347	0.1724	0.4514	0.466
Mof_C 	C 	0.8475	0.0268	0.2024	0.34
Mof_C 	C 	0.8212	0.0644	0.1112	-0.131
Mof_C 	C 	0.9003	0.0638	0.0766	0.069
Mof_C 	C 	0.8763	0.0947	0.992	-0.155
Mof_C 	C 	0.7741	0.1249	0.9418	0.1
Mof_C 	C 	0.6937	0.1277	0.976	-0.155
Mof_C 	C 	0.7202	0.0986	0.0636	0.064
Mof_C 	C 	0.7406	0.1526	0.8468	-0.021
Mof_C 	C 	0.8212	0.065	0.5074	0.415
Mof_C 	C 	0.7792	0.1251	0.5686	-0.135
Mof_C 	C 	0.8161	0.1148	0.6622	-0.035
Mof_C 	C 	0.7736	0.1674	0.7168	0.053
Mof_C 	C 	0.697	0.2368	0.6802	-0.023
Mof_C 	C 	0.6614	0.2498	0.5872	-0.141
Mof_C 	C 	0.6997	0.1918	0.531	0.066
Mof_C 	C 	0.5833	0.3276	0.5486	0.479
Mof_N 	N 	0.99836	0.6473	0.80892	-0.116
Mof_N 	N 	0.18944	0.8527	0.19108	-0.113
Mof_N 	N 	0.00164	0.3527	0.19108	-0.116
Mof_N 	N 	0.81056	0.1473	0.80892	-0.113
Mof_O 	O 	0.30461	0.4999	0.24782	-0.427
Mof_O 	O 	0.46021	0.5243	0.22982	-0.439
Mof_O 	O 	0.62238	0.5325	0.54176	-0.589
Mof_O 	O 	0.66209	0.5456	0.42258	-0.466
Mof_O 	O 	0.05347	0.8745	0.59994	-0.476
Mof_O 	O 	0.90415	0.8389	0.4657	-0.54
Mof_O 	O 	0.05679	0.0001	0.75218	-0.439
Mof_O 	O 	0.23039	0.9757	0.77018	-0.438
Mof_O 	O 	0.08062	0.9675	0.45824	-0.58
Mof_O 	O 	0.23951	0.9544	0.57742	-0.461
Mof_O 	O 	0.45353	0.6255	0.40006	-0.488
Mof_O 	O 	0.43845	0.6611	0.5343	-0.544
Mof_O 	O 	0.69539	0.5001	0.75218	-0.427
Mof_O 	O 	0.53979	0.4757	0.77018	-0.439
Mof_O 	O 	0.37762	0.4675	0.45824	-0.589
Mof_O 	O 	0.33791	0.4544	0.57742	-0.466
Mof_O 	O 	0.94653	0.1255	0.40006	-0.476
Mof_O 	O 	0.09585	0.1611	0.5343	-0.54
Mof_O 	O 	0.94321	0.9999	0.24782	-0.439
Mof_O 	O 	0.76961	0.0243	0.22982	-0.438
Mof_O 	O 	0.91938	0.0325	0.54176	-0.58
Mof_O 	O 	0.76049	0.0456	0.42258	-0.461
Mof_O 	O 	0.54647	0.3745	0.59994	-0.488
Mof_O 	O 	0.56155	0.3389	0.4657	-0.544
_end
