data_functionalizedCrystal
_audit_creation_method	'EQeq! by Chris Wilmer'
_symmetry_space_group_name_H-M	'P1'
_symmetry_Int_Tables_number	1
_symmetry_cell_setting	triclinic
loop_
_symmetry_equiv_pos_as_xyz
  x,y,z
_cell_length_a	8.1387
_cell_length_b	18.4609
_cell_length_c	18.6553
_cell_angle_alpha	90
_cell_angle_beta	90
_cell_angle_gamma	90
loop_
_atom_site_label
_atom_site_type_symbol
_atom_site_fract_x
_atom_site_fract_y
_atom_site_fract_z
_atom_site_charge
Mof_Cu	Cu	0.79067	0.93076	0.41436	0.901
Mof_Cu	Cu	0.79067	0.56924	0.08564	0.873
Mof_Cu	Cu	0.70933	0.06924	0.91436	0.863
Mof_Cu	Cu	0.70933	0.43076	0.58564	0.875
Mof_Cu	Cu	0.20933	0.06924	0.58564	0.846
Mof_Cu	Cu	0.20933	0.43076	0.91436	0.873
Mof_Cu	Cu	0.29067	0.93076	0.08564	0.885
Mof_Cu	Cu	0.29067	0.56924	0.41436	0.872
Mof_Cu	Cu	-4.70904e-33	0.5	0.5	0.908
Mof_Cu	Cu	-0	0	-0	0.853
Mof_Cu	Cu	0.5	0.5	-0	0.905
Mof_Cu	Cu	0.5	0	0.5	0.898
Mof_H 	H 	0.8058	0.7104	0.5167	0.073
Mof_H 	H 	0.577	0.6304	0.6903	0.079
Mof_H 	H 	0.5832	0.8446	0.6555	0.086
Mof_H 	H 	0.3895	0.7081	0.7565	0.128
Mof_H 	H 	0.995	0.446	0.629	0.185
Mof_H 	H 	0.8058	0.7896	0.9833	0.086
Mof_H 	H 	0.577	0.8696	0.8097	0.086
Mof_H 	H 	0.5832	0.6554	0.8445	0.077
Mof_H 	H 	0.3895	0.7919	0.7435	0.13
Mof_H 	H 	0.995	0.054	0.871	0.168
Mof_H 	H 	0.6942	0.2896	0.0167	0.063
Mof_H 	H 	0.923	0.3696	0.1903	0.11
Mof_H 	H 	0.9168	0.1554	0.1555	0.11
Mof_H 	H 	0.1105	0.2919	0.2565	0.17
Mof_H 	H 	0.505	0.554	0.129	0.17
Mof_H 	H 	0.6942	0.2104	0.4833	0.073
Mof_H 	H 	0.923	0.1304	0.3097	0.102
Mof_H 	H 	0.9168	0.3446	0.3445	0.111
Mof_H 	H 	0.1105	0.2081	0.2435	0.168
Mof_H 	H 	0.505	0.946	0.371	0.184
Mof_H 	H 	0.1942	0.2896	0.4833	0.047
Mof_H 	H 	0.423	0.3696	0.3097	0.069
Mof_H 	H 	0.4168	0.1554	0.3445	0.063
Mof_H 	H 	0.6105	0.2919	0.2435	0.123
Mof_H 	H 	0.005	0.554	0.371	0.158
Mof_H 	H 	0.1942	0.2104	0.0167	0.035
Mof_H 	H 	0.423	0.1304	0.1903	0.063
Mof_H 	H 	0.4168	0.3446	0.1555	0.073
Mof_H 	H 	0.6105	0.2081	0.2565	0.12
Mof_H 	H 	0.005	0.946	0.129	0.172
Mof_H 	H 	0.3058	0.7104	0.9833	0.058
Mof_H 	H 	0.077	0.6304	0.8097	0.038
Mof_H 	H 	0.0832	0.8446	0.8445	0.042
Mof_H 	H 	0.8895	0.7081	0.7435	0.081
Mof_H 	H 	0.495	0.446	0.871	0.172
Mof_H 	H 	0.3058	0.7896	0.5167	0.048
Mof_H 	H 	0.077	0.8696	0.6903	0.047
Mof_H 	H 	0.0832	0.6554	0.6555	0.038
Mof_H 	H 	0.8895	0.7919	0.7565	0.083
Mof_H 	H 	0.495	0.054	0.629	0.158
Mof_C 	C 	0.7011	0.7872	0.57847	-0.013
Mof_C 	C 	0.7458	0.7178	0.5585	-0.03
Mof_C 	C 	0.701	0.659	0.6007	-0.036
Mof_C 	C 	0.6083	0.6699	0.66259	-0.112
Mof_C 	C 	0.5624	0.7394	0.68306	0.136
Mof_C 	C 	0.6109	0.7979	0.6414	-0.12
Mof_C 	C 	0.7456	0.8504	0.532	0.295
Mof_C 	C 	0.7498	0.5836	0.5798	0.341
Mof_C 	C 	0.7011	0.7128	0.92153	-0.03
Mof_C 	C 	0.7458	0.7822	0.9415	-0.02
Mof_C 	C 	0.701	0.841	0.8993	-0.027
Mof_C 	C 	0.6083	0.8301	0.83741	-0.113
Mof_C 	C 	0.5624	0.7606	0.81694	0.133
Mof_C 	C 	0.6109	0.7021	0.8586	-0.108
Mof_C 	C 	0.7456	0.6496	0.968	0.366
Mof_C 	C 	0.7498	0.9164	0.9202	0.334
Mof_C 	C 	0.7989	0.2128	0.07847	0.025
Mof_C 	C 	0.7542	0.2822	0.0585	-0.068
Mof_C 	C 	0.799	0.341	0.1007	-0.007
Mof_C 	C 	0.8917	0.3301	0.16259	-0.178
Mof_C 	C 	0.9376	0.2606	0.18306	0.252
Mof_C 	C 	0.8891	0.2021	0.1414	-0.189
Mof_C 	C 	0.7544	0.1496	0.032	0.229
Mof_C 	C 	0.7502	0.4164	0.0798	0.332
Mof_C 	C 	0.7989	0.2872	0.42153	0.014
Mof_C 	C 	0.7542	0.2178	0.4415	-0.056
Mof_C 	C 	0.799	0.159	0.3993	-0.012
Mof_C 	C 	0.8917	0.1699	0.33741	-0.172
Mof_C 	C 	0.9376	0.2394	0.31694	0.247
Mof_C 	C 	0.8891	0.2979	0.3586	-0.18
Mof_C 	C 	0.7544	0.3504	0.468	0.29
Mof_C 	C 	0.7502	0.0836	0.4202	0.335
Mof_C 	C 	0.2989	0.2128	0.42153	-0.051
Mof_C 	C 	0.2542	0.2822	0.4415	-0.014
Mof_C 	C 	0.299	0.341	0.3993	-0.067
Mof_C 	C 	0.3917	0.3301	0.33741	-0.099
Mof_C 	C 	0.4376	0.2606	0.31694	0.111
Mof_C 	C 	0.3891	0.2021	0.3586	-0.102
Mof_C 	C 	0.2544	0.1496	0.468	0.308
Mof_C 	C 	0.2502	0.4164	0.4202	0.347
Mof_C 	C 	0.2989	0.2872	0.07847	-0.032
Mof_C 	C 	0.2542	0.2178	0.0585	-0.025
Mof_C 	C 	0.299	0.159	0.1007	-0.073
Mof_C 	C 	0.3917	0.1699	0.16259	-0.1
Mof_C 	C 	0.4376	0.2394	0.18306	0.114
Mof_C 	C 	0.3891	0.2979	0.1414	-0.115
Mof_C 	C 	0.2544	0.3504	0.032	0.238
Mof_C 	C 	0.2502	0.0836	0.0798	0.35
Mof_C 	C 	0.2011	0.7872	0.92153	-0.087
Mof_C 	C 	0.2458	0.7178	0.9415	0.023
Mof_C 	C 	0.201	0.659	0.8993	-0.095
Mof_C 	C 	0.1083	0.6699	0.83741	-0.034
Mof_C 	C 	0.0624	0.7394	0.81694	-0.003
Mof_C 	C 	0.1109	0.7979	0.8586	-0.035
Mof_C 	C 	0.2456	0.8504	0.968	0.375
Mof_C 	C 	0.2498	0.5836	0.9202	0.356
Mof_C 	C 	0.2011	0.7128	0.57847	-0.076
Mof_C 	C 	0.2458	0.7822	0.5585	0.011
Mof_C 	C 	0.201	0.841	0.6007	-0.089
Mof_C 	C 	0.1083	0.8301	0.66259	-0.04
Mof_C 	C 	0.0624	0.7606	0.68306	0.002
Mof_C 	C 	0.1109	0.7021	0.6414	-0.043
Mof_C 	C 	0.2456	0.6496	0.532	0.314
Mof_C 	C 	0.2498	0.9164	0.5798	0.352
Mof_C 	C 	0.4598	0.75	0.75	-0.316
Mof_C 	C 	0.0402	0.25	0.25	-0.511
Mof_C 	C 	0.5402	0.25	0.25	-0.298
Mof_C 	C 	0.9598	0.75	0.75	-0.105
Mof_O 	O 	0.7525	0.91257	0.55707	-0.312
Mof_O 	O 	0.7727	0.83678	0.46543	-0.38
Mof_O 	O 	0.8487	0.57776	0.52771	-0.388
Mof_O 	O 	0.6922	0.53271	0.61523	-0.435
Mof_O 	O 	0.9467	0.44281	0.58315	-0.52
Mof_O 	O 	0.7525	0.58743	0.94293	-0.334
Mof_O 	O 	0.7727	0.66322	0.03457	-0.444
Mof_O 	O 	0.8487	0.92224	0.97229	-0.334
Mof_O 	O 	0.6922	0.96729	0.88477	-0.39
Mof_O 	O 	0.9467	0.05719	0.91685	-0.512
Mof_O 	O 	0.7475	0.08743	0.05707	-0.352
Mof_O 	O 	0.7273	0.16322	0.96543	-0.335
Mof_O 	O 	0.6513	0.42224	0.02771	-0.422
Mof_O 	O 	0.8078	0.46729	0.11523	-0.433
Mof_O 	O 	0.5533	0.55719	0.08315	-0.554
Mof_O 	O 	0.7475	0.41257	0.44293	-0.335
Mof_O 	O 	0.7273	0.33678	0.53457	-0.388
Mof_O 	O 	0.6513	0.07776	0.47229	-0.421
Mof_O 	O 	0.8078	0.03271	0.38477	-0.464
Mof_O 	O 	0.5533	0.94281	0.41685	-0.512
Mof_O 	O 	0.2475	0.08743	0.44293	-0.38
Mof_O 	O 	0.2273	0.16322	0.53457	-0.413
Mof_O 	O 	0.1513	0.42224	0.47229	-0.428
Mof_O 	O 	0.3078	0.46729	0.38477	-0.446
Mof_O 	O 	0.0533	0.55719	0.41685	-0.551
Mof_O 	O 	0.2475	0.41257	0.05707	-0.36
Mof_O 	O 	0.2273	0.33678	0.96543	-0.349
Mof_O 	O 	0.1513	0.07776	0.02771	-0.461
Mof_O 	O 	0.3078	0.03271	0.11523	-0.487
Mof_O 	O 	0.0533	0.94281	0.08315	-0.538
Mof_O 	O 	0.2525	0.91257	0.94293	-0.333
Mof_O 	O 	0.2727	0.83678	0.03457	-0.458
Mof_O 	O 	0.3487	0.57776	0.97229	-0.392
Mof_O 	O 	0.1922	0.53271	0.88477	-0.448
Mof_O 	O 	0.4467	0.44281	0.91685	-0.516
Mof_O 	O 	0.2525	0.58743	0.55707	-0.359
Mof_O 	O 	0.2727	0.66322	0.46543	-0.404
Mof_O 	O 	0.3487	0.92224	0.52771	-0.39
Mof_O 	O 	0.1922	0.96729	0.61523	-0.415
Mof_O 	O 	0.4467	0.05719	0.58315	-0.555
_end
