# CIF file generated by openbabel 3.1.0, see https://openbabel.org
data_I
_chemical_name_common 'image0'
_cell_length_a 24.5377
_cell_length_b 24.5377
_cell_length_c 72.0873
_cell_angle_alpha 90
_cell_angle_beta 90
_cell_angle_gamma 90
_space_group_name_H-M_alt 'P 1'
_space_group_name_Hall 'P 1'
loop_
    _symmetry_equiv_pos_as_xyz
    x,y,z
loop_
    _atom_site_label
    _atom_site_type_symbol
    _atom_site_fract_x
    _atom_site_fract_y
    _atom_site_fract_z
    _atom_site_occupancy
    O1       O        0.92983    0.01080    0.11761    1.000
    O2       O        0.99497    0.07244    0.11870    1.000
    O3       O        0.92683    0.48595    0.09400    1.000
    C1       C        0.95140    0.05320    0.11178    1.000
    C2       C        0.87551    0.14043    0.06770    1.000
    C3       C        0.85072    0.09310    0.07490    1.000
    H1       H        0.81790    0.08080    0.07000    1.000
    C4       C        0.87570    0.06440    0.08956    1.000
    H2       H        0.85930    0.03320    0.09430    1.000
    C5       C        0.92539    0.08304    0.09703    1.000
    C6       C        0.95018    0.13037    0.08984    1.000
    H3       H        0.98300    0.14270    0.09480    1.000
    C7       C        0.92524    0.15907    0.07517    1.000
    H4       H        0.94160    0.19030    0.07040    1.000
    Cu1      Cu       0.04058    0.46451    0.11259    1.000
    C8       C        0.82988    0.25589    0.03601    1.000
    C9       C        0.83401    0.31312    0.03500    1.000
    C10      C        0.80887    0.34154    0.02031    1.000
    H5       H        0.81160    0.37930    0.01960    1.000
    C11      C        0.77960    0.31270    0.00663    1.000
    C12      C        0.77548    0.25550    0.00764    1.000
    C13      C        0.80062    0.22707    0.02233    1.000
    C14      C        0.85240    0.22750    0.05094    1.000
    H6       H        0.87010    0.24680    0.06030    1.000
    C15      C        0.84920    0.17160    0.05226    1.000
    C16      C        0.82050    0.14210    0.03827    1.000
    H7       H        0.81810    0.10430    0.03890    1.000
    C17      C        0.79620    0.16970    0.02392    1.000
    H8       H        0.77650    0.15040    0.01510    1.000
    C18      C        0.86528    0.34742    0.04815    1.000
    C19      C        0.83879    0.39126    0.05701    1.000
    H9       H        0.80260    0.39900    0.05430    1.000
    C20      C        0.86720    0.42339    0.07003    1.000
    H10      H        0.84970    0.45230    0.07590    1.000
    C21      C        0.92212    0.41168    0.07418    1.000
    C22      C        0.94862    0.36784    0.06532    1.000
    H11      H        0.98480    0.36010    0.06810    1.000
    C23      C        0.92020    0.33571    0.05230    1.000
    H12      H        0.93770    0.30680    0.04650    1.000
    O4       O        0.99720    0.42953    0.09265    1.000
    C24      C        0.94930    0.44530    0.08807    1.000
    O5       O        0.75300    0.33740    0.99233    1.000
    C25      C        0.68700    0.40060    0.98000    1.000
    C26      C        0.73380    0.39480    0.99380    1.000
    C27      C        0.76600    0.39590    0.99160    1.000
    C28      C        0.73500    0.42440    0.97650    1.000
    O6       O        0.42983    0.51080    0.61761    1.000
    O7       O        0.49497    0.57244    0.61870    1.000
    O8       O        0.42683    0.98595    0.59400    1.000
    C29      C        0.45140    0.55320    0.61178    1.000
    C30      C        0.37551    0.64043    0.56770    1.000
    C31      C        0.35072    0.59310    0.57490    1.000
    H13      H        0.31790    0.58080    0.57000    1.000
    C32      C        0.37570    0.56440    0.58956    1.000
    H14      H        0.35930    0.53320    0.59430    1.000
    C33      C        0.42539    0.58304    0.59703    1.000
    C34      C        0.45018    0.63037    0.58984    1.000
    H15      H        0.48300    0.64270    0.59480    1.000
    C35      C        0.42524    0.65907    0.57517    1.000
    H16      H        0.44160    0.69030    0.57040    1.000
    Cu2      Cu       0.54058    0.96451    0.61259    1.000
    C36      C        0.32988    0.75589    0.53601    1.000
    C37      C        0.33401    0.81312    0.53500    1.000
    C38      C        0.30887    0.84154    0.52031    1.000
    H17      H        0.31160    0.87930    0.51960    1.000
    C39      C        0.27960    0.81270    0.50663    1.000
    C40      C        0.27548    0.75550    0.50764    1.000
    C41      C        0.30062    0.72707    0.52233    1.000
    C42      C        0.35240    0.72750    0.55094    1.000
    H18      H        0.37010    0.74680    0.56030    1.000
    C43      C        0.34920    0.67160    0.55226    1.000
    C44      C        0.32050    0.64210    0.53827    1.000
    H19      H        0.31810    0.60430    0.53890    1.000
    C45      C        0.29620    0.66970    0.52392    1.000
    H20      H        0.27650    0.65040    0.51510    1.000
    C46      C        0.36528    0.84742    0.54815    1.000
    C47      C        0.33879    0.89126    0.55701    1.000
    H21      H        0.30260    0.89900    0.55430    1.000
    C48      C        0.36720    0.92339    0.57003    1.000
    H22      H        0.34970    0.95230    0.57590    1.000
    C49      C        0.42212    0.91168    0.57418    1.000
    C50      C        0.44862    0.86784    0.56532    1.000
    H23      H        0.48480    0.86010    0.56810    1.000
    C51      C        0.42020    0.83571    0.55230    1.000
    H24      H        0.43770    0.80680    0.54650    1.000
    O9       O        0.49720    0.92953    0.59265    1.000
    C52      C        0.44930    0.94530    0.58807    1.000
    O10      O        0.25300    0.83740    0.49233    1.000
    C53      C        0.18700    0.90060    0.48000    1.000
    C54      C        0.23380    0.89480    0.49380    1.000
    C55      C        0.26600    0.89590    0.49160    1.000
    C56      C        0.23500    0.92440    0.47650    1.000
    O11      O        0.57017    0.48920    0.61761    1.000
    O12      O        0.50503    0.42756    0.61870    1.000
    O13      O        0.57317    0.01405    0.59400    1.000
    C57      C        0.54860    0.44680    0.61178    1.000
    C58      C        0.62449    0.35957    0.56770    1.000
    C59      C        0.64928    0.40690    0.57490    1.000
    H25      H        0.68210    0.41920    0.57000    1.000
    C60      C        0.62430    0.43560    0.58956    1.000
    H26      H        0.64070    0.46680    0.59430    1.000
    C61      C        0.57461    0.41696    0.59703    1.000
    C62      C        0.54982    0.36963    0.58984    1.000
    H27      H        0.51700    0.35730    0.59480    1.000
    C63      C        0.57476    0.34093    0.57517    1.000
    H28      H        0.55840    0.30970    0.57040    1.000
    Cu3      Cu       0.45942    0.03549    0.61259    1.000
    C64      C        0.67012    0.24411    0.53601    1.000
    C65      C        0.66599    0.18688    0.53500    1.000
    C66      C        0.69113    0.15846    0.52031    1.000
    H29      H        0.68840    0.12070    0.51960    1.000
    C67      C        0.72040    0.18730    0.50663    1.000
    C68      C        0.72452    0.24450    0.50764    1.000
    C69      C        0.69938    0.27293    0.52233    1.000
    C70      C        0.64760    0.27250    0.55094    1.000
    H30      H        0.62990    0.25320    0.56030    1.000
    C71      C        0.65080    0.32840    0.55226    1.000
    C72      C        0.67950    0.35790    0.53827    1.000
    H31      H        0.68190    0.39570    0.53890    1.000
    C73      C        0.70380    0.33030    0.52392    1.000
    H32      H        0.72350    0.34960    0.51510    1.000
    C74      C        0.63472    0.15258    0.54815    1.000
    C75      C        0.66121    0.10874    0.55701    1.000
    H33      H        0.69740    0.10100    0.55430    1.000
    C76      C        0.63280    0.07661    0.57003    1.000
    H34      H        0.65030    0.04770    0.57590    1.000
    C77      C        0.57788    0.08832    0.57418    1.000
    C78      C        0.55138    0.13216    0.56532    1.000
    H35      H        0.51520    0.13990    0.56810    1.000
    C79      C        0.57980    0.16429    0.55230    1.000
    H36      H        0.56230    0.19320    0.54650    1.000
    O14      O        0.50280    0.07047    0.59265    1.000
    C80      C        0.55070    0.05470    0.58807    1.000
    O15      O        0.74700    0.16260    0.49233    1.000
    C81      C        0.81300    0.09940    0.48000    1.000
    C82      C        0.76620    0.10520    0.49380    1.000
    C83      C        0.73400    0.10410    0.49160    1.000
    C84      C        0.76500    0.07560    0.47650    1.000
    O16      O        0.07017    0.98920    0.11761    1.000
    O17      O        0.00503    0.92756    0.11870    1.000
    O18      O        0.07317    0.51405    0.09400    1.000
    C85      C        0.04860    0.94680    0.11178    1.000
    C86      C        0.12449    0.85957    0.06770    1.000
    C87      C        0.14928    0.90690    0.07490    1.000
    H37      H        0.18210    0.91920    0.07000    1.000
    C88      C        0.12430    0.93560    0.08956    1.000
    H38      H        0.14070    0.96680    0.09430    1.000
    C89      C        0.07461    0.91696    0.09703    1.000
    C90      C        0.04982    0.86963    0.08984    1.000
    H39      H        0.01700    0.85730    0.09480    1.000
    C91      C        0.07476    0.84093    0.07517    1.000
    H40      H        0.05840    0.80970    0.07040    1.000
    Cu4      Cu       0.95942    0.53549    0.11259    1.000
    C92      C        0.17012    0.74411    0.03601    1.000
    C93      C        0.16599    0.68688    0.03500    1.000
    C94      C        0.19113    0.65846    0.02031    1.000
    H41      H        0.18840    0.62070    0.01960    1.000
    C95      C        0.22040    0.68730    0.00663    1.000
    C96      C        0.22452    0.74450    0.00764    1.000
    C97      C        0.19938    0.77293    0.02233    1.000
    C98      C        0.14760    0.77250    0.05094    1.000
    H42      H        0.12990    0.75320    0.06030    1.000
    C99      C        0.15080    0.82840    0.05226    1.000
    C100     C        0.17950    0.85790    0.03827    1.000
    H43      H        0.18190    0.89570    0.03890    1.000
    C101     C        0.20380    0.83030    0.02392    1.000
    H44      H        0.22350    0.84960    0.01510    1.000
    C102     C        0.13472    0.65258    0.04815    1.000
    C103     C        0.16121    0.60874    0.05701    1.000
    H45      H        0.19740    0.60100    0.05430    1.000
    C104     C        0.13280    0.57661    0.07003    1.000
    H46      H        0.15030    0.54770    0.07590    1.000
    C105     C        0.07788    0.58832    0.07418    1.000
    C106     C        0.05138    0.63216    0.06532    1.000
    H47      H        0.01520    0.63990    0.06810    1.000
    C107     C        0.07980    0.66429    0.05230    1.000
    H48      H        0.06230    0.69320    0.04650    1.000
    O19      O        0.00280    0.57047    0.09265    1.000
    C108     C        0.05070    0.55470    0.08807    1.000
    O20      O        0.24700    0.66260    0.99233    1.000
    C109     C        0.31300    0.59940    0.98000    1.000
    C110     C        0.26620    0.60520    0.99380    1.000
    C111     C        0.23400    0.60410    0.99160    1.000
    C112     C        0.26500    0.57560    0.97650    1.000
    O21      O        0.98920    0.42983    0.36761    1.000
    O22      O        0.92756    0.49497    0.36870    1.000
    O23      O        0.51405    0.42683    0.34400    1.000
    C113     C        0.94680    0.45140    0.36178    1.000
    C114     C        0.85957    0.37551    0.31770    1.000
    C115     C        0.90690    0.35072    0.32490    1.000
    H49      H        0.91920    0.31790    0.32000    1.000
    C116     C        0.93560    0.37570    0.33956    1.000
    H50      H        0.96680    0.35930    0.34430    1.000
    C117     C        0.91696    0.42539    0.34703    1.000
    C118     C        0.86963    0.45018    0.33984    1.000
    H51      H        0.85730    0.48300    0.34480    1.000
    C119     C        0.84093    0.42524    0.32517    1.000
    H52      H        0.80970    0.44160    0.32040    1.000
    Cu5      Cu       0.53549    0.54058    0.36259    1.000
    C120     C        0.74411    0.32988    0.28601    1.000
    C121     C        0.68688    0.33401    0.28500    1.000
    C122     C        0.65846    0.30887    0.27031    1.000
    H53      H        0.62070    0.31160    0.26960    1.000
    C123     C        0.68730    0.27960    0.25663    1.000
    C124     C        0.74450    0.27548    0.25764    1.000
    C125     C        0.77293    0.30062    0.27233    1.000
    C126     C        0.77250    0.35240    0.30094    1.000
    H54      H        0.75320    0.37010    0.31030    1.000
    C127     C        0.82840    0.34920    0.30226    1.000
    C128     C        0.85790    0.32050    0.28827    1.000
    H55      H        0.89570    0.31810    0.28890    1.000
    C129     C        0.83030    0.29620    0.27392    1.000
    H56      H        0.84960    0.27650    0.26510    1.000
    C130     C        0.65258    0.36528    0.29815    1.000
    C131     C        0.60874    0.33879    0.30701    1.000
    H57      H        0.60100    0.30260    0.30430    1.000
    C132     C        0.57661    0.36720    0.32003    1.000
    H58      H        0.54770    0.34970    0.32590    1.000
    C133     C        0.58832    0.42212    0.32418    1.000
    C134     C        0.63216    0.44862    0.31532    1.000
    H59      H        0.63990    0.48480    0.31810    1.000
    C135     C        0.66429    0.42020    0.30230    1.000
    H60      H        0.69320    0.43770    0.29650    1.000
    O24      O        0.57047    0.49720    0.34265    1.000
    C136     C        0.55470    0.44930    0.33807    1.000
    O25      O        0.66260    0.25300    0.24233    1.000
    C137     C        0.59940    0.18700    0.23000    1.000
    C138     C        0.60520    0.23380    0.24380    1.000
    C139     C        0.60410    0.26600    0.24160    1.000
    C140     C        0.57560    0.23500    0.22650    1.000
    O26      O        0.48920    0.92983    0.86761    1.000
    O27      O        0.42756    0.99497    0.86870    1.000
    O28      O        0.01405    0.92683    0.84400    1.000
    C141     C        0.44680    0.95140    0.86178    1.000
    C142     C        0.35957    0.87551    0.81770    1.000
    C143     C        0.40690    0.85072    0.82490    1.000
    H61      H        0.41920    0.81790    0.82000    1.000
    C144     C        0.43560    0.87570    0.83956    1.000
    H62      H        0.46680    0.85930    0.84430    1.000
    C145     C        0.41696    0.92539    0.84703    1.000
    C146     C        0.36963    0.95018    0.83984    1.000
    H63      H        0.35730    0.98300    0.84480    1.000
    C147     C        0.34093    0.92524    0.82517    1.000
    H64      H        0.30970    0.94160    0.82040    1.000
    Cu6      Cu       0.03549    0.04058    0.86259    1.000
    C148     C        0.24411    0.82988    0.78601    1.000
    C149     C        0.18688    0.83401    0.78500    1.000
    C150     C        0.15846    0.80887    0.77031    1.000
    H65      H        0.12070    0.81160    0.76960    1.000
    C151     C        0.18730    0.77960    0.75663    1.000
    C152     C        0.24450    0.77548    0.75764    1.000
    C153     C        0.27293    0.80062    0.77233    1.000
    C154     C        0.27250    0.85240    0.80094    1.000
    H66      H        0.25320    0.87010    0.81030    1.000
    C155     C        0.32840    0.84920    0.80226    1.000
    C156     C        0.35790    0.82050    0.78827    1.000
    H67      H        0.39570    0.81810    0.78890    1.000
    C157     C        0.33030    0.79620    0.77392    1.000
    H68      H        0.34960    0.77650    0.76510    1.000
    C158     C        0.15258    0.86528    0.79815    1.000
    C159     C        0.10874    0.83879    0.80701    1.000
    H69      H        0.10100    0.80260    0.80430    1.000
    C160     C        0.07661    0.86720    0.82003    1.000
    H70      H        0.04770    0.84970    0.82590    1.000
    C161     C        0.08832    0.92212    0.82418    1.000
    C162     C        0.13216    0.94862    0.81532    1.000
    H71      H        0.13990    0.98480    0.81810    1.000
    C163     C        0.16429    0.92020    0.80230    1.000
    H72      H        0.19320    0.93770    0.79650    1.000
    O29      O        0.07047    0.99720    0.84265    1.000
    C164     C        0.05470    0.94930    0.83807    1.000
    O30      O        0.16260    0.75300    0.74233    1.000
    C165     C        0.09940    0.68700    0.73000    1.000
    C166     C        0.10520    0.73380    0.74380    1.000
    C167     C        0.10410    0.76600    0.74160    1.000
    C168     C        0.07560    0.73500    0.72650    1.000
    O31      O        0.51080    0.07017    0.86761    1.000
    O32      O        0.57244    0.00503    0.86870    1.000
    O33      O        0.98595    0.07317    0.84400    1.000
    C169     C        0.55320    0.04860    0.86178    1.000
    C170     C        0.64043    0.12449    0.81770    1.000
    C171     C        0.59310    0.14928    0.82490    1.000
    H73      H        0.58080    0.18210    0.82000    1.000
    C172     C        0.56440    0.12430    0.83956    1.000
    H74      H        0.53320    0.14070    0.84430    1.000
    C173     C        0.58304    0.07461    0.84703    1.000
    C174     C        0.63037    0.04982    0.83984    1.000
    H75      H        0.64270    0.01700    0.84480    1.000
    C175     C        0.65907    0.07476    0.82517    1.000
    H76      H        0.69030    0.05840    0.82040    1.000
    Cu7      Cu       0.96451    0.95942    0.86259    1.000
    C176     C        0.75589    0.17012    0.78601    1.000
    C177     C        0.81312    0.16599    0.78500    1.000
    C178     C        0.84154    0.19113    0.77031    1.000
    H77      H        0.87930    0.18840    0.76960    1.000
    C179     C        0.81270    0.22040    0.75663    1.000
    C180     C        0.75550    0.22452    0.75764    1.000
    C181     C        0.72707    0.19938    0.77233    1.000
    C182     C        0.72750    0.14760    0.80094    1.000
    H78      H        0.74680    0.12990    0.81030    1.000
    C183     C        0.67160    0.15080    0.80226    1.000
    C184     C        0.64210    0.17950    0.78827    1.000
    H79      H        0.60430    0.18190    0.78890    1.000
    C185     C        0.66970    0.20380    0.77392    1.000
    H80      H        0.65040    0.22350    0.76510    1.000
    C186     C        0.84742    0.13472    0.79815    1.000
    C187     C        0.89126    0.16121    0.80701    1.000
    H81      H        0.89900    0.19740    0.80430    1.000
    C188     C        0.92339    0.13280    0.82003    1.000
    H82      H        0.95230    0.15030    0.82590    1.000
    C189     C        0.91168    0.07788    0.82418    1.000
    C190     C        0.86784    0.05138    0.81532    1.000
    H83      H        0.86010    0.01520    0.81810    1.000
    C191     C        0.83571    0.07980    0.80230    1.000
    H84      H        0.80680    0.06230    0.79650    1.000
    O34      O        0.92953    0.00280    0.84265    1.000
    C192     C        0.94530    0.05070    0.83807    1.000
    O35      O        0.83740    0.24700    0.74233    1.000
    C193     C        0.90060    0.31300    0.73000    1.000
    C194     C        0.89480    0.26620    0.74380    1.000
    C195     C        0.89590    0.23400    0.74160    1.000
    C196     C        0.92440    0.26500    0.72650    1.000
    O36      O        0.01080    0.57017    0.36761    1.000
    O37      O        0.07244    0.50503    0.36870    1.000
    O38      O        0.48595    0.57317    0.34400    1.000
    C197     C        0.05320    0.54860    0.36178    1.000
    C198     C        0.14043    0.62449    0.31770    1.000
    C199     C        0.09310    0.64928    0.32490    1.000
    H85      H        0.08080    0.68210    0.32000    1.000
    C200     C        0.06440    0.62430    0.33956    1.000
    H86      H        0.03320    0.64070    0.34430    1.000
    C201     C        0.08304    0.57461    0.34703    1.000
    C202     C        0.13037    0.54982    0.33984    1.000
    H87      H        0.14270    0.51700    0.34480    1.000
    C203     C        0.15907    0.57476    0.32517    1.000
    H88      H        0.19030    0.55840    0.32040    1.000
    Cu8      Cu       0.46451    0.45942    0.36259    1.000
    C204     C        0.25589    0.67012    0.28601    1.000
    C205     C        0.31312    0.66599    0.28500    1.000
    C206     C        0.34154    0.69113    0.27031    1.000
    H89      H        0.37930    0.68840    0.26960    1.000
    C207     C        0.31270    0.72040    0.25663    1.000
    C208     C        0.25550    0.72452    0.25764    1.000
    C209     C        0.22707    0.69938    0.27233    1.000
    C210     C        0.22750    0.64760    0.30094    1.000
    H90      H        0.24680    0.62990    0.31030    1.000
    C211     C        0.17160    0.65080    0.30226    1.000
    C212     C        0.14210    0.67950    0.28827    1.000
    H91      H        0.10430    0.68190    0.28890    1.000
    C213     C        0.16970    0.70380    0.27392    1.000
    H92      H        0.15040    0.72350    0.26510    1.000
    C214     C        0.34742    0.63472    0.29815    1.000
    C215     C        0.39126    0.66121    0.30701    1.000
    H93      H        0.39900    0.69740    0.30430    1.000
    C216     C        0.42339    0.63280    0.32003    1.000
    H94      H        0.45230    0.65030    0.32590    1.000
    C217     C        0.41168    0.57788    0.32418    1.000
    C218     C        0.36784    0.55138    0.31532    1.000
    H95      H        0.36010    0.51520    0.31810    1.000
    C219     C        0.33571    0.57980    0.30230    1.000
    H96      H        0.30680    0.56230    0.29650    1.000
    O39      O        0.42953    0.50280    0.34265    1.000
    C220     C        0.44530    0.55070    0.33807    1.000
    O40      O        0.33740    0.74700    0.24233    1.000
    C221     C        0.40060    0.81300    0.23000    1.000
    C222     C        0.39480    0.76620    0.24380    1.000
    C223     C        0.39590    0.73400    0.24160    1.000
    C224     C        0.42440    0.76500    0.22650    1.000
    O41      O        0.57017    0.01080    0.63239    1.000
    O42      O        0.50503    0.07244    0.63130    1.000
    O43      O        0.57317    0.48595    0.65600    1.000
    C225     C        0.54860    0.05320    0.63822    1.000
    C226     C        0.62449    0.14043    0.68230    1.000
    C227     C        0.64928    0.09310    0.67510    1.000
    H97      H        0.68210    0.08080    0.68000    1.000
    C228     C        0.62430    0.06440    0.66044    1.000
    H98      H        0.64070    0.03320    0.65570    1.000
    C229     C        0.57461    0.08304    0.65297    1.000
    C230     C        0.54982    0.13037    0.66016    1.000
    H99      H        0.51700    0.14270    0.65520    1.000
    C231     C        0.57476    0.15907    0.67483    1.000
    H100     H        0.55840    0.19030    0.67960    1.000
    Cu9      Cu       0.45942    0.46451    0.63741    1.000
    C232     C        0.67012    0.25589    0.71399    1.000
    C233     C        0.66599    0.31312    0.71500    1.000
    C234     C        0.69113    0.34154    0.72969    1.000
    H101     H        0.68840    0.37930    0.73040    1.000
    C235     C        0.72040    0.31270    0.74337    1.000
    C236     C        0.72452    0.25550    0.74236    1.000
    C237     C        0.69938    0.22707    0.72767    1.000
    C238     C        0.64760    0.22750    0.69906    1.000
    H102     H        0.62990    0.24680    0.68970    1.000
    C239     C        0.65080    0.17160    0.69774    1.000
    C240     C        0.67950    0.14210    0.71173    1.000
    H103     H        0.68190    0.10430    0.71110    1.000
    C241     C        0.70380    0.16970    0.72608    1.000
    H104     H        0.72350    0.15040    0.73490    1.000
    C242     C        0.63472    0.34742    0.70185    1.000
    C243     C        0.66121    0.39126    0.69299    1.000
    H105     H        0.69740    0.39900    0.69570    1.000
    C244     C        0.63280    0.42339    0.67997    1.000
    H106     H        0.65030    0.45230    0.67410    1.000
    C245     C        0.57788    0.41168    0.67582    1.000
    C246     C        0.55138    0.36784    0.68468    1.000
    H107     H        0.51520    0.36010    0.68190    1.000
    C247     C        0.57980    0.33571    0.69770    1.000
    H108     H        0.56230    0.30680    0.70350    1.000
    O44      O        0.50280    0.42953    0.65735    1.000
    C248     C        0.55070    0.44530    0.66193    1.000
    O45      O        0.74700    0.33740    0.75767    1.000
    C249     C        0.81300    0.40060    0.77000    1.000
    C250     C        0.76620    0.39480    0.75620    1.000
    C251     C        0.73400    0.39590    0.75840    1.000
    C252     C        0.76500    0.42440    0.77350    1.000
    O46      O        0.07017    0.51080    0.13239    1.000
    O47      O        0.00503    0.57244    0.13130    1.000
    O48      O        0.07317    0.98595    0.15600    1.000
    C253     C        0.04860    0.55320    0.13822    1.000
    C254     C        0.12449    0.64043    0.18230    1.000
    C255     C        0.14928    0.59310    0.17510    1.000
    H109     H        0.18210    0.58080    0.18000    1.000
    C256     C        0.12430    0.56440    0.16044    1.000
    H110     H        0.14070    0.53320    0.15570    1.000
    C257     C        0.07461    0.58304    0.15297    1.000
    C258     C        0.04982    0.63037    0.16016    1.000
    H111     H        0.01700    0.64270    0.15520    1.000
    C259     C        0.07476    0.65907    0.17483    1.000
    H112     H        0.05840    0.69030    0.17960    1.000
    Cu10     Cu       0.95942    0.96451    0.13741    1.000
    C260     C        0.17012    0.75589    0.21399    1.000
    C261     C        0.16599    0.81312    0.21500    1.000
    C262     C        0.19113    0.84154    0.22969    1.000
    H113     H        0.18840    0.87930    0.23040    1.000
    C263     C        0.22040    0.81270    0.24337    1.000
    C264     C        0.22452    0.75550    0.24236    1.000
    C265     C        0.19938    0.72707    0.22767    1.000
    C266     C        0.14760    0.72750    0.19906    1.000
    H114     H        0.12990    0.74680    0.18970    1.000
    C267     C        0.15080    0.67160    0.19774    1.000
    C268     C        0.17950    0.64210    0.21173    1.000
    H115     H        0.18190    0.60430    0.21110    1.000
    C269     C        0.20380    0.66970    0.22608    1.000
    H116     H        0.22350    0.65040    0.23490    1.000
    C270     C        0.13472    0.84742    0.20185    1.000
    C271     C        0.16121    0.89126    0.19299    1.000
    H117     H        0.19740    0.89900    0.19570    1.000
    C272     C        0.13280    0.92339    0.17997    1.000
    H118     H        0.15030    0.95230    0.17410    1.000
    C273     C        0.07788    0.91168    0.17582    1.000
    C274     C        0.05138    0.86784    0.18468    1.000
    H119     H        0.01520    0.86010    0.18190    1.000
    C275     C        0.07980    0.83571    0.19770    1.000
    H120     H        0.06230    0.80680    0.20350    1.000
    O49      O        0.00280    0.92953    0.15735    1.000
    C276     C        0.05070    0.94530    0.16193    1.000
    O50      O        0.24700    0.83740    0.25767    1.000
    C277     C        0.31300    0.90060    0.27000    1.000
    C278     C        0.26620    0.89480    0.25620    1.000
    C279     C        0.23400    0.89590    0.25840    1.000
    C280     C        0.26500    0.92440    0.27350    1.000
    O51      O        0.92983    0.48920    0.13239    1.000
    O52      O        0.99497    0.42756    0.13130    1.000
    O53      O        0.92683    0.01405    0.15600    1.000
    C281     C        0.95140    0.44680    0.13822    1.000
    C282     C        0.87551    0.35957    0.18230    1.000
    C283     C        0.85072    0.40690    0.17510    1.000
    H121     H        0.81790    0.41920    0.18000    1.000
    C284     C        0.87570    0.43560    0.16044    1.000
    H122     H        0.85930    0.46680    0.15570    1.000
    C285     C        0.92539    0.41696    0.15297    1.000
    C286     C        0.95018    0.36963    0.16016    1.000
    H123     H        0.98300    0.35730    0.15520    1.000
    C287     C        0.92524    0.34093    0.17483    1.000
    H124     H        0.94160    0.30970    0.17960    1.000
    Cu11     Cu       0.04058    0.03549    0.13741    1.000
    C288     C        0.82988    0.24411    0.21399    1.000
    C289     C        0.83401    0.18688    0.21500    1.000
    C290     C        0.80887    0.15846    0.22969    1.000
    H125     H        0.81160    0.12070    0.23040    1.000
    C291     C        0.77960    0.18730    0.24337    1.000
    C292     C        0.77548    0.24450    0.24236    1.000
    C293     C        0.80062    0.27293    0.22767    1.000
    C294     C        0.85240    0.27250    0.19906    1.000
    H126     H        0.87010    0.25320    0.18970    1.000
    C295     C        0.84920    0.32840    0.19774    1.000
    C296     C        0.82050    0.35790    0.21173    1.000
    H127     H        0.81810    0.39570    0.21110    1.000
    C297     C        0.79620    0.33030    0.22608    1.000
    H128     H        0.77650    0.34960    0.23490    1.000
    C298     C        0.86528    0.15258    0.20185    1.000
    C299     C        0.83879    0.10874    0.19299    1.000
    H129     H        0.80260    0.10100    0.19570    1.000
    C300     C        0.86720    0.07661    0.17997    1.000
    H130     H        0.84970    0.04770    0.17410    1.000
    C301     C        0.92212    0.08832    0.17582    1.000
    C302     C        0.94862    0.13216    0.18468    1.000
    H131     H        0.98480    0.13990    0.18190    1.000
    C303     C        0.92020    0.16429    0.19770    1.000
    H132     H        0.93770    0.19320    0.20350    1.000
    O54      O        0.99720    0.07047    0.15735    1.000
    C304     C        0.94930    0.05470    0.16193    1.000
    O55      O        0.75300    0.16260    0.25767    1.000
    C305     C        0.68700    0.09940    0.27000    1.000
    C306     C        0.73380    0.10520    0.25620    1.000
    C307     C        0.76600    0.10410    0.25840    1.000
    C308     C        0.73500    0.07560    0.27350    1.000
    O56      O        0.42983    0.98920    0.63239    1.000
    O57      O        0.49497    0.92756    0.63130    1.000
    O58      O        0.42683    0.51405    0.65600    1.000
    C309     C        0.45140    0.94680    0.63822    1.000
    C310     C        0.37551    0.85957    0.68230    1.000
    C311     C        0.35072    0.90690    0.67510    1.000
    H133     H        0.31790    0.91920    0.68000    1.000
    C312     C        0.37570    0.93560    0.66044    1.000
    H134     H        0.35930    0.96680    0.65570    1.000
    C313     C        0.42539    0.91696    0.65297    1.000
    C314     C        0.45018    0.86963    0.66016    1.000
    H135     H        0.48300    0.85730    0.65520    1.000
    C315     C        0.42524    0.84093    0.67483    1.000
    H136     H        0.44160    0.80970    0.67960    1.000
    Cu12     Cu       0.54058    0.53549    0.63741    1.000
    C316     C        0.32988    0.74411    0.71399    1.000
    C317     C        0.33401    0.68688    0.71500    1.000
    C318     C        0.30887    0.65846    0.72969    1.000
    H137     H        0.31160    0.62070    0.73040    1.000
    C319     C        0.27960    0.68730    0.74337    1.000
    C320     C        0.27548    0.74450    0.74236    1.000
    C321     C        0.30062    0.77293    0.72767    1.000
    C322     C        0.35240    0.77250    0.69906    1.000
    H138     H        0.37010    0.75320    0.68970    1.000
    C323     C        0.34920    0.82840    0.69774    1.000
    C324     C        0.32050    0.85790    0.71173    1.000
    H139     H        0.31810    0.89570    0.71110    1.000
    C325     C        0.29620    0.83030    0.72608    1.000
    H140     H        0.27650    0.84960    0.73490    1.000
    C326     C        0.36528    0.65258    0.70185    1.000
    C327     C        0.33879    0.60874    0.69299    1.000
    H141     H        0.30260    0.60100    0.69570    1.000
    C328     C        0.36720    0.57661    0.67997    1.000
    H142     H        0.34970    0.54770    0.67410    1.000
    C329     C        0.42212    0.58832    0.67582    1.000
    C330     C        0.44862    0.63216    0.68468    1.000
    H143     H        0.48480    0.63990    0.68190    1.000
    C331     C        0.42020    0.66429    0.69770    1.000
    H144     H        0.43770    0.69320    0.70350    1.000
    O59      O        0.49720    0.57047    0.65735    1.000
    C332     C        0.44930    0.55470    0.66193    1.000
    O60      O        0.25300    0.66260    0.75767    1.000
    C333     C        0.18700    0.59940    0.77000    1.000
    C334     C        0.23380    0.60520    0.75620    1.000
    C335     C        0.26600    0.60410    0.75840    1.000
    C336     C        0.23500    0.57560    0.77350    1.000
    O61      O        0.51080    0.42983    0.38239    1.000
    O62      O        0.57244    0.49497    0.38130    1.000
    O63      O        0.98595    0.42683    0.40600    1.000
    C337     C        0.55320    0.45140    0.38822    1.000
    C338     C        0.64043    0.37551    0.43230    1.000
    C339     C        0.59310    0.35072    0.42510    1.000
    H145     H        0.58080    0.31790    0.43000    1.000
    C340     C        0.56440    0.37570    0.41044    1.000
    H146     H        0.53320    0.35930    0.40570    1.000
    C341     C        0.58304    0.42539    0.40297    1.000
    C342     C        0.63037    0.45018    0.41016    1.000
    H147     H        0.64270    0.48300    0.40520    1.000
    C343     C        0.65907    0.42524    0.42483    1.000
    H148     H        0.69030    0.44160    0.42960    1.000
    Cu13     Cu       0.96451    0.54058    0.38741    1.000
    C344     C        0.75589    0.32988    0.46399    1.000
    C345     C        0.81312    0.33401    0.46500    1.000
    C346     C        0.84154    0.30887    0.47969    1.000
    H149     H        0.87930    0.31160    0.48040    1.000
    C347     C        0.81270    0.27960    0.49337    1.000
    C348     C        0.75550    0.27548    0.49236    1.000
    C349     C        0.72707    0.30062    0.47767    1.000
    C350     C        0.72750    0.35240    0.44906    1.000
    H150     H        0.74680    0.37010    0.43970    1.000
    C351     C        0.67160    0.34920    0.44774    1.000
    C352     C        0.64210    0.32050    0.46173    1.000
    H151     H        0.60430    0.31810    0.46110    1.000
    C353     C        0.66970    0.29620    0.47608    1.000
    H152     H        0.65040    0.27650    0.48490    1.000
    C354     C        0.84742    0.36528    0.45185    1.000
    C355     C        0.89126    0.33879    0.44299    1.000
    H153     H        0.89900    0.30260    0.44570    1.000
    C356     C        0.92339    0.36720    0.42997    1.000
    H154     H        0.95230    0.34970    0.42410    1.000
    C357     C        0.91168    0.42212    0.42582    1.000
    C358     C        0.86784    0.44862    0.43468    1.000
    H155     H        0.86010    0.48480    0.43190    1.000
    C359     C        0.83571    0.42020    0.44770    1.000
    H156     H        0.80680    0.43770    0.45350    1.000
    O64      O        0.92953    0.49720    0.40735    1.000
    C360     C        0.94530    0.44930    0.41193    1.000
    O65      O        0.83740    0.25300    0.50767    1.000
    C361     C        0.90060    0.18700    0.52000    1.000
    C362     C        0.89480    0.23380    0.50620    1.000
    C363     C        0.89590    0.26600    0.50840    1.000
    C364     C        0.92440    0.23500    0.52350    1.000
    O66      O        0.01080    0.92983    0.88239    1.000
    O67      O        0.07244    0.99497    0.88130    1.000
    O68      O        0.48595    0.92683    0.90600    1.000
    C365     C        0.05320    0.95140    0.88822    1.000
    C366     C        0.14043    0.87551    0.93230    1.000
    C367     C        0.09310    0.85072    0.92510    1.000
    H157     H        0.08080    0.81790    0.93000    1.000
    C368     C        0.06440    0.87570    0.91044    1.000
    H158     H        0.03320    0.85930    0.90570    1.000
    C369     C        0.08304    0.92539    0.90297    1.000
    C370     C        0.13037    0.95018    0.91016    1.000
    H159     H        0.14270    0.98300    0.90520    1.000
    C371     C        0.15907    0.92524    0.92483    1.000
    H160     H        0.19030    0.94160    0.92960    1.000
    Cu14     Cu       0.46451    0.04058    0.88741    1.000
    C372     C        0.25589    0.82988    0.96399    1.000
    C373     C        0.31312    0.83401    0.96500    1.000
    C374     C        0.34154    0.80887    0.97969    1.000
    H161     H        0.37930    0.81160    0.98040    1.000
    C375     C        0.31270    0.77960    0.99337    1.000
    C376     C        0.25550    0.77548    0.99236    1.000
    C377     C        0.22707    0.80062    0.97767    1.000
    C378     C        0.22750    0.85240    0.94906    1.000
    H162     H        0.24680    0.87010    0.93970    1.000
    C379     C        0.17160    0.84920    0.94774    1.000
    C380     C        0.14210    0.82050    0.96173    1.000
    H163     H        0.10430    0.81810    0.96110    1.000
    C381     C        0.16970    0.79620    0.97608    1.000
    H164     H        0.15040    0.77650    0.98490    1.000
    C382     C        0.34742    0.86528    0.95185    1.000
    C383     C        0.39126    0.83879    0.94299    1.000
    H165     H        0.39900    0.80260    0.94570    1.000
    C384     C        0.42339    0.86720    0.92997    1.000
    H166     H        0.45230    0.84970    0.92410    1.000
    C385     C        0.41168    0.92212    0.92582    1.000
    C386     C        0.36784    0.94862    0.93468    1.000
    H167     H        0.36010    0.98480    0.93190    1.000
    C387     C        0.33571    0.92020    0.94770    1.000
    H168     H        0.30680    0.93770    0.95350    1.000
    O69      O        0.42953    0.99720    0.90735    1.000
    C388     C        0.44530    0.94930    0.91193    1.000
    O70      O        0.33740    0.75300    0.00767    1.000
    C389     C        0.40060    0.68700    0.02000    1.000
    C390     C        0.39480    0.73380    0.00620    1.000
    C391     C        0.39590    0.76600    0.00840    1.000
    C392     C        0.42440    0.73500    0.02350    1.000
    O71      O        0.98920    0.07017    0.88239    1.000
    O72      O        0.92756    0.00503    0.88130    1.000
    O73      O        0.51405    0.07317    0.90600    1.000
    C393     C        0.94680    0.04860    0.88822    1.000
    C394     C        0.85957    0.12449    0.93230    1.000
    C395     C        0.90690    0.14928    0.92510    1.000
    H169     H        0.91920    0.18210    0.93000    1.000
    C396     C        0.93560    0.12430    0.91044    1.000
    H170     H        0.96680    0.14070    0.90570    1.000
    C397     C        0.91696    0.07461    0.90297    1.000
    C398     C        0.86963    0.04982    0.91016    1.000
    H171     H        0.85730    0.01700    0.90520    1.000
    C399     C        0.84093    0.07476    0.92483    1.000
    H172     H        0.80970    0.05840    0.92960    1.000
    Cu15     Cu       0.53549    0.95942    0.88741    1.000
    C400     C        0.74411    0.17012    0.96399    1.000
    C401     C        0.68688    0.16599    0.96500    1.000
    C402     C        0.65846    0.19113    0.97969    1.000
    H173     H        0.62070    0.18840    0.98040    1.000
    C403     C        0.68730    0.22040    0.99337    1.000
    C404     C        0.74450    0.22452    0.99236    1.000
    C405     C        0.77293    0.19938    0.97767    1.000
    C406     C        0.77250    0.14760    0.94906    1.000
    H174     H        0.75320    0.12990    0.93970    1.000
    C407     C        0.82840    0.15080    0.94774    1.000
    C408     C        0.85790    0.17950    0.96173    1.000
    H175     H        0.89570    0.18190    0.96110    1.000
    C409     C        0.83030    0.20380    0.97608    1.000
    H176     H        0.84960    0.22350    0.98490    1.000
    C410     C        0.65258    0.13472    0.95185    1.000
    C411     C        0.60874    0.16121    0.94299    1.000
    H177     H        0.60100    0.19740    0.94570    1.000
    C412     C        0.57661    0.13280    0.92997    1.000
    H178     H        0.54770    0.15030    0.92410    1.000
    C413     C        0.58832    0.07788    0.92582    1.000
    C414     C        0.63216    0.05138    0.93468    1.000
    H179     H        0.63990    0.01520    0.93190    1.000
    C415     C        0.66429    0.07980    0.94770    1.000
    H180     H        0.69320    0.06230    0.95350    1.000
    O74      O        0.57047    0.00280    0.90735    1.000
    C416     C        0.55470    0.05070    0.91193    1.000
    O75      O        0.66260    0.24700    0.00767    1.000
    C417     C        0.59940    0.31300    0.02000    1.000
    C418     C        0.60520    0.26620    0.00620    1.000
    C419     C        0.60410    0.23400    0.00840    1.000
    C420     C        0.57560    0.26500    0.02350    1.000
    O76      O        0.48920    0.57017    0.38239    1.000
    O77      O        0.42756    0.50503    0.38130    1.000
    O78      O        0.01405    0.57317    0.40600    1.000
    C421     C        0.44680    0.54860    0.38822    1.000
    C422     C        0.35957    0.62449    0.43230    1.000
    C423     C        0.40690    0.64928    0.42510    1.000
    H181     H        0.41920    0.68210    0.43000    1.000
    C424     C        0.43560    0.62430    0.41044    1.000
    H182     H        0.46680    0.64070    0.40570    1.000
    C425     C        0.41696    0.57461    0.40297    1.000
    C426     C        0.36963    0.54982    0.41016    1.000
    H183     H        0.35730    0.51700    0.40520    1.000
    C427     C        0.34093    0.57476    0.42483    1.000
    H184     H        0.30970    0.55840    0.42960    1.000
    Cu16     Cu       0.03549    0.45942    0.38741    1.000
    C428     C        0.24411    0.67012    0.46399    1.000
    C429     C        0.18688    0.66599    0.46500    1.000
    C430     C        0.15846    0.69113    0.47969    1.000
    H185     H        0.12070    0.68840    0.48040    1.000
    C431     C        0.18730    0.72040    0.49337    1.000
    C432     C        0.24450    0.72452    0.49236    1.000
    C433     C        0.27293    0.69938    0.47767    1.000
    C434     C        0.27250    0.64760    0.44906    1.000
    H186     H        0.25320    0.62990    0.43970    1.000
    C435     C        0.32840    0.65080    0.44774    1.000
    C436     C        0.35790    0.67950    0.46173    1.000
    H187     H        0.39570    0.68190    0.46110    1.000
    C437     C        0.33030    0.70380    0.47608    1.000
    H188     H        0.34960    0.72350    0.48490    1.000
    C438     C        0.15258    0.63472    0.45185    1.000
    C439     C        0.10874    0.66121    0.44299    1.000
    H189     H        0.10100    0.69740    0.44570    1.000
    C440     C        0.07661    0.63280    0.42997    1.000
    H190     H        0.04770    0.65030    0.42410    1.000
    C441     C        0.08832    0.57788    0.42582    1.000
    C442     C        0.13216    0.55138    0.43468    1.000
    H191     H        0.13990    0.51520    0.43190    1.000
    C443     C        0.16429    0.57980    0.44770    1.000
    H192     H        0.19320    0.56230    0.45350    1.000
    O79      O        0.07047    0.50280    0.40735    1.000
    C444     C        0.05470    0.55070    0.41193    1.000
    O80      O        0.16260    0.74700    0.50767    1.000
    C445     C        0.09940    0.81300    0.52000    1.000
    C446     C        0.10520    0.76620    0.50620    1.000
    C447     C        0.10410    0.73400    0.50840    1.000
    C448     C        0.07560    0.76500    0.52350    1.000
