# CIF file generated by openbabel 3.1.0, see https://openbabel.org
data_I
_chemical_name_common 'image0'
_cell_length_a 23.7776
_cell_length_b 23.7776
_cell_length_c 75.9896
_cell_angle_alpha 90
_cell_angle_beta 90
_cell_angle_gamma 90
_space_group_name_H-M_alt 'P 1'
_space_group_name_Hall 'P 1'
loop_
    _symmetry_equiv_pos_as_xyz
    x,y,z
loop_
    _atom_site_label
    _atom_site_type_symbol
    _atom_site_fract_x
    _atom_site_fract_y
    _atom_site_fract_z
    _atom_site_occupancy
    Cu1      Cu       0.95678    0.96532    0.13911    1.000
    C1       C        0.15377    0.80139    0.21660    1.000
    C2       C        0.17670    0.82838    0.23116    1.000
    H1       H        0.17440    0.86730    0.23210    1.000
    C3       C        0.20310    0.79720    0.24424    1.000
    C4       C        0.20653    0.73903    0.24277    1.000
    C5       C        0.18361    0.71204    0.22822    1.000
    C6       C        0.15723    0.74322    0.21513    1.000
    C7       C        0.13540    0.71570    0.19981    1.000
    H2       H        0.12020    0.73700    0.19070    1.000
    C8       C        0.13660    0.65750    0.19839    1.000
    C9       C        0.16110    0.62630    0.21240    1.000
    H3       H        0.16130    0.58730    0.21190    1.000
    C10      C        0.18410    0.65270    0.22631    1.000
    H4       H        0.20110    0.63120    0.23500    1.000
    C11      C        0.12350    0.83960    0.20268    1.000
    C12      C        0.06920    0.82780    0.19696    1.000
    H5       H        0.04940    0.79780    0.20180    1.000
    C13      C        0.04455    0.86080    0.18397    1.000
    H6       H        0.00820    0.85290    0.18010    1.000
    C14      C        0.07410    0.90552    0.17671    1.000
    C15      C        0.12840    0.91732    0.18243    1.000
    H7       H        0.14820    0.94730    0.17760    1.000
    C16      C        0.15306    0.88440    0.19541    1.000
    H8       H        0.18940    0.89230    0.19920    1.000
    O1       O        0.99980    0.92540    0.15765    1.000
    O2       O        0.00300    0.57240    0.12943    1.000
    O3       O        0.07280    0.51150    0.12986    1.000
    C17      C        0.11270    0.63050    0.18234    1.000
    C18      C        0.14007    0.58460    0.17487    1.000
    H9       H        0.17260    0.57050    0.18000    1.000
    C19      C        0.11890    0.56004    0.15966    1.000
    H10      H        0.13710    0.52940    0.15470    1.000
    C20      C        0.07030    0.58130    0.15193    1.000
    C21      C        0.04298    0.62710    0.15941    1.000
    H11      H        0.01050    0.64130    0.15420    1.000
    C22      C        0.06420    0.65169    0.17461    1.000
    H12      H        0.04590    0.68230    0.17960    1.000
    C23      C        0.04780    0.93960    0.16308    1.000
    C24      C        0.04990    0.55180    0.13595    1.000
    C25      C        0.20830    0.88630    0.26250    1.000
    C26      C        0.19300    0.90600    0.27330    1.000
    O4       O        0.07250    0.98150    0.15690    1.000
    O5       O        0.22660    0.82160    0.25843    1.000
    C27      C        0.75740    0.38110    0.99290    1.000
    C28      C        0.74410    0.40160    0.97390    1.000
    Cu2      Cu       0.45678    0.46532    0.63911    1.000
    C29      C        0.65377    0.30139    0.71660    1.000
    C30      C        0.67670    0.32838    0.73116    1.000
    H13      H        0.67440    0.36730    0.73210    1.000
    C31      C        0.70310    0.29720    0.74424    1.000
    C32      C        0.70653    0.23903    0.74277    1.000
    C33      C        0.68361    0.21204    0.72822    1.000
    C34      C        0.65723    0.24322    0.71513    1.000
    C35      C        0.63540    0.21570    0.69981    1.000
    H14      H        0.62020    0.23700    0.69070    1.000
    C36      C        0.63660    0.15750    0.69839    1.000
    C37      C        0.66110    0.12630    0.71240    1.000
    H15      H        0.66130    0.08730    0.71190    1.000
    C38      C        0.68410    0.15270    0.72631    1.000
    H16      H        0.70110    0.13120    0.73500    1.000
    C39      C        0.62350    0.33960    0.70268    1.000
    C40      C        0.56920    0.32780    0.69696    1.000
    H17      H        0.54940    0.29780    0.70180    1.000
    C41      C        0.54455    0.36080    0.68397    1.000
    H18      H        0.50820    0.35290    0.68010    1.000
    C42      C        0.57410    0.40552    0.67671    1.000
    C43      C        0.62840    0.41732    0.68243    1.000
    H19      H        0.64820    0.44730    0.67760    1.000
    C44      C        0.65306    0.38440    0.69541    1.000
    H20      H        0.68940    0.39230    0.69920    1.000
    O6       O        0.49980    0.42540    0.65765    1.000
    O7       O        0.50300    0.07240    0.62943    1.000
    O8       O        0.57280    0.01150    0.62986    1.000
    C45      C        0.61270    0.13050    0.68234    1.000
    C46      C        0.64007    0.08460    0.67487    1.000
    H21      H        0.67260    0.07050    0.68000    1.000
    C47      C        0.61890    0.06004    0.65966    1.000
    H22      H        0.63710    0.02940    0.65470    1.000
    C48      C        0.57030    0.08130    0.65193    1.000
    C49      C        0.54298    0.12710    0.65941    1.000
    H23      H        0.51050    0.14130    0.65420    1.000
    C50      C        0.56420    0.15169    0.67461    1.000
    H24      H        0.54590    0.18230    0.67960    1.000
    C51      C        0.54780    0.43960    0.66308    1.000
    C52      C        0.54990    0.05180    0.63595    1.000
    C53      C        0.70830    0.38630    0.76250    1.000
    C54      C        0.69300    0.40600    0.77330    1.000
    O9       O        0.57250    0.48150    0.65690    1.000
    O10      O        0.72660    0.32160    0.75843    1.000
    C55      C        0.25740    0.88110    0.49290    1.000
    C56      C        0.24410    0.90160    0.47390    1.000
    Cu3      Cu       0.54322    0.53468    0.63911    1.000
    C57      C        0.34623    0.69861    0.71660    1.000
    C58      C        0.32330    0.67162    0.73116    1.000
    H25      H        0.32560    0.63270    0.73210    1.000
    C59      C        0.29690    0.70280    0.74424    1.000
    C60      C        0.29347    0.76097    0.74277    1.000
    C61      C        0.31639    0.78796    0.72822    1.000
    C62      C        0.34277    0.75678    0.71513    1.000
    C63      C        0.36460    0.78430    0.69981    1.000
    H26      H        0.37980    0.76300    0.69070    1.000
    C64      C        0.36340    0.84250    0.69839    1.000
    C65      C        0.33890    0.87370    0.71240    1.000
    H27      H        0.33870    0.91270    0.71190    1.000
    C66      C        0.31590    0.84730    0.72631    1.000
    H28      H        0.29890    0.86880    0.73500    1.000
    C67      C        0.37650    0.66040    0.70268    1.000
    C68      C        0.43080    0.67220    0.69696    1.000
    H29      H        0.45060    0.70220    0.70180    1.000
    C69      C        0.45545    0.63920    0.68397    1.000
    H30      H        0.49180    0.64710    0.68010    1.000
    C70      C        0.42590    0.59448    0.67671    1.000
    C71      C        0.37160    0.58268    0.68243    1.000
    H31      H        0.35180    0.55270    0.67760    1.000
    C72      C        0.34694    0.61560    0.69541    1.000
    H32      H        0.31060    0.60770    0.69920    1.000
    O11      O        0.50020    0.57460    0.65765    1.000
    O12      O        0.49700    0.92760    0.62943    1.000
    O13      O        0.42720    0.98850    0.62986    1.000
    C73      C        0.38730    0.86950    0.68234    1.000
    C74      C        0.35993    0.91540    0.67487    1.000
    H33      H        0.32740    0.92950    0.68000    1.000
    C75      C        0.38110    0.93996    0.65966    1.000
    H34      H        0.36290    0.97060    0.65470    1.000
    C76      C        0.42970    0.91870    0.65193    1.000
    C77      C        0.45702    0.87290    0.65941    1.000
    H35      H        0.48950    0.85870    0.65420    1.000
    C78      C        0.43580    0.84831    0.67461    1.000
    H36      H        0.45410    0.81770    0.67960    1.000
    C79      C        0.45220    0.56040    0.66308    1.000
    C80      C        0.45010    0.94820    0.63595    1.000
    C81      C        0.29170    0.61370    0.76250    1.000
    C82      C        0.30700    0.59400    0.77330    1.000
    O14      O        0.42750    0.51850    0.65690    1.000
    O15      O        0.27340    0.67840    0.75843    1.000
    C83      C        0.74260    0.11890    0.49290    1.000
    C84      C        0.75590    0.09840    0.47390    1.000
    Cu4      Cu       0.04322    0.03468    0.13911    1.000
    C85      C        0.84623    0.19861    0.21660    1.000
    C86      C        0.82330    0.17162    0.23116    1.000
    H37      H        0.82560    0.13270    0.23210    1.000
    C87      C        0.79690    0.20280    0.24424    1.000
    C88      C        0.79347    0.26097    0.24277    1.000
    C89      C        0.81639    0.28796    0.22822    1.000
    C90      C        0.84277    0.25678    0.21513    1.000
    C91      C        0.86460    0.28430    0.19981    1.000
    H38      H        0.87980    0.26300    0.19070    1.000
    C92      C        0.86340    0.34250    0.19839    1.000
    C93      C        0.83890    0.37370    0.21240    1.000
    H39      H        0.83870    0.41270    0.21190    1.000
    C94      C        0.81590    0.34730    0.22631    1.000
    H40      H        0.79890    0.36880    0.23500    1.000
    C95      C        0.87650    0.16040    0.20268    1.000
    C96      C        0.93080    0.17220    0.19696    1.000
    H41      H        0.95060    0.20220    0.20180    1.000
    C97      C        0.95545    0.13920    0.18397    1.000
    H42      H        0.99180    0.14710    0.18010    1.000
    C98      C        0.92590    0.09448    0.17671    1.000
    C99      C        0.87160    0.08268    0.18243    1.000
    H43      H        0.85180    0.05270    0.17760    1.000
    C100     C        0.84694    0.11560    0.19541    1.000
    H44      H        0.81060    0.10770    0.19920    1.000
    O16      O        0.00020    0.07460    0.15765    1.000
    O17      O        0.99700    0.42760    0.12943    1.000
    O18      O        0.92720    0.48850    0.12986    1.000
    C101     C        0.88730    0.36950    0.18234    1.000
    C102     C        0.85993    0.41540    0.17487    1.000
    H45      H        0.82740    0.42950    0.18000    1.000
    C103     C        0.88110    0.43996    0.15966    1.000
    H46      H        0.86290    0.47060    0.15470    1.000
    C104     C        0.92970    0.41870    0.15193    1.000
    C105     C        0.95702    0.37290    0.15941    1.000
    H47      H        0.98950    0.35870    0.15420    1.000
    C106     C        0.93580    0.34831    0.17461    1.000
    H48      H        0.95410    0.31770    0.17960    1.000
    C107     C        0.95220    0.06040    0.16308    1.000
    C108     C        0.95010    0.44820    0.13595    1.000
    C109     C        0.79170    0.11370    0.26250    1.000
    C110     C        0.80700    0.09400    0.27330    1.000
    O19      O        0.92750    0.01850    0.15690    1.000
    O20      O        0.77340    0.17840    0.25843    1.000
    C111     C        0.24260    0.61890    0.99290    1.000
    C112     C        0.25590    0.59840    0.97390    1.000
    Cu5      Cu       0.03468    0.45678    0.38911    1.000
    C113     C        0.19861    0.65377    0.46660    1.000
    C114     C        0.17162    0.67670    0.48116    1.000
    H49      H        0.13270    0.67440    0.48210    1.000
    C115     C        0.20280    0.70310    0.49424    1.000
    C116     C        0.26097    0.70653    0.49277    1.000
    C117     C        0.28796    0.68361    0.47822    1.000
    C118     C        0.25678    0.65723    0.46513    1.000
    C119     C        0.28430    0.63540    0.44981    1.000
    H50      H        0.26300    0.62020    0.44070    1.000
    C120     C        0.34250    0.63660    0.44839    1.000
    C121     C        0.37370    0.66110    0.46240    1.000
    H51      H        0.41270    0.66130    0.46190    1.000
    C122     C        0.34730    0.68410    0.47631    1.000
    H52      H        0.36880    0.70110    0.48500    1.000
    C123     C        0.16040    0.62350    0.45268    1.000
    C124     C        0.17220    0.56920    0.44696    1.000
    H53      H        0.20220    0.54940    0.45180    1.000
    C125     C        0.13920    0.54455    0.43397    1.000
    H54      H        0.14710    0.50820    0.43010    1.000
    C126     C        0.09448    0.57410    0.42671    1.000
    C127     C        0.08268    0.62840    0.43243    1.000
    H55      H        0.05270    0.64820    0.42760    1.000
    C128     C        0.11560    0.65306    0.44541    1.000
    H56      H        0.10770    0.68940    0.44920    1.000
    O21      O        0.07460    0.49980    0.40765    1.000
    O22      O        0.42760    0.50300    0.37943    1.000
    O23      O        0.48850    0.57280    0.37986    1.000
    C129     C        0.36950    0.61270    0.43234    1.000
    C130     C        0.41540    0.64007    0.42487    1.000
    H57      H        0.42950    0.67260    0.43000    1.000
    C131     C        0.43996    0.61890    0.40966    1.000
    H58      H        0.47060    0.63710    0.40470    1.000
    C132     C        0.41870    0.57030    0.40193    1.000
    C133     C        0.37290    0.54298    0.40941    1.000
    H59      H        0.35870    0.51050    0.40420    1.000
    C134     C        0.34831    0.56420    0.42461    1.000
    H60      H        0.31770    0.54590    0.42960    1.000
    C135     C        0.06040    0.54780    0.41308    1.000
    C136     C        0.44820    0.54990    0.38595    1.000
    C137     C        0.11370    0.70830    0.51250    1.000
    C138     C        0.09400    0.69300    0.52330    1.000
    O24      O        0.01850    0.57250    0.40690    1.000
    O25      O        0.17840    0.72660    0.50843    1.000
    C139     C        0.61890    0.25740    0.24290    1.000
    C140     C        0.59840    0.24410    0.22390    1.000
    Cu6      Cu       0.53468    0.95678    0.88911    1.000
    C141     C        0.69861    0.15377    0.96660    1.000
    C142     C        0.67162    0.17670    0.98116    1.000
    H61      H        0.63270    0.17440    0.98210    1.000
    C143     C        0.70280    0.20310    0.99424    1.000
    C144     C        0.76097    0.20653    0.99277    1.000
    C145     C        0.78796    0.18361    0.97822    1.000
    C146     C        0.75678    0.15723    0.96513    1.000
    C147     C        0.78430    0.13540    0.94981    1.000
    H62      H        0.76300    0.12020    0.94070    1.000
    C148     C        0.84250    0.13660    0.94839    1.000
    C149     C        0.87370    0.16110    0.96240    1.000
    H63      H        0.91270    0.16130    0.96190    1.000
    C150     C        0.84730    0.18410    0.97631    1.000
    H64      H        0.86880    0.20110    0.98500    1.000
    C151     C        0.66040    0.12350    0.95268    1.000
    C152     C        0.67220    0.06920    0.94696    1.000
    H65      H        0.70220    0.04940    0.95180    1.000
    C153     C        0.63920    0.04455    0.93397    1.000
    H66      H        0.64710    0.00820    0.93010    1.000
    C154     C        0.59448    0.07410    0.92671    1.000
    C155     C        0.58268    0.12840    0.93243    1.000
    H67      H        0.55270    0.14820    0.92760    1.000
    C156     C        0.61560    0.15306    0.94541    1.000
    H68      H        0.60770    0.18940    0.94920    1.000
    O26      O        0.57460    0.99980    0.90765    1.000
    O27      O        0.92760    0.00300    0.87943    1.000
    O28      O        0.98850    0.07280    0.87986    1.000
    C157     C        0.86950    0.11270    0.93234    1.000
    C158     C        0.91540    0.14007    0.92487    1.000
    H69      H        0.92950    0.17260    0.93000    1.000
    C159     C        0.93996    0.11890    0.90966    1.000
    H70      H        0.97060    0.13710    0.90470    1.000
    C160     C        0.91870    0.07030    0.90193    1.000
    C161     C        0.87290    0.04298    0.90941    1.000
    H71      H        0.85870    0.01050    0.90420    1.000
    C162     C        0.84831    0.06420    0.92461    1.000
    H72      H        0.81770    0.04590    0.92960    1.000
    C163     C        0.56040    0.04780    0.91308    1.000
    C164     C        0.94820    0.04990    0.88595    1.000
    C165     C        0.61370    0.20830    0.01250    1.000
    C166     C        0.59400    0.19300    0.02330    1.000
    O29      O        0.51850    0.07250    0.90690    1.000
    O30      O        0.67840    0.22660    0.00843    1.000
    C167     C        0.11890    0.75740    0.74290    1.000
    C168     C        0.09840    0.74410    0.72390    1.000
    Cu7      Cu       0.46532    0.04322    0.88911    1.000
    C169     C        0.30139    0.84623    0.96660    1.000
    C170     C        0.32838    0.82330    0.98116    1.000
    H73      H        0.36730    0.82560    0.98210    1.000
    C171     C        0.29720    0.79690    0.99424    1.000
    C172     C        0.23903    0.79347    0.99277    1.000
    C173     C        0.21204    0.81639    0.97822    1.000
    C174     C        0.24322    0.84277    0.96513    1.000
    C175     C        0.21570    0.86460    0.94981    1.000
    H74      H        0.23700    0.87980    0.94070    1.000
    C176     C        0.15750    0.86340    0.94839    1.000
    C177     C        0.12630    0.83890    0.96240    1.000
    H75      H        0.08730    0.83870    0.96190    1.000
    C178     C        0.15270    0.81590    0.97631    1.000
    H76      H        0.13120    0.79890    0.98500    1.000
    C179     C        0.33960    0.87650    0.95268    1.000
    C180     C        0.32780    0.93080    0.94696    1.000
    H77      H        0.29780    0.95060    0.95180    1.000
    C181     C        0.36080    0.95545    0.93397    1.000
    H78      H        0.35290    0.99180    0.93010    1.000
    C182     C        0.40552    0.92590    0.92671    1.000
    C183     C        0.41732    0.87160    0.93243    1.000
    H79      H        0.44730    0.85180    0.92760    1.000
    C184     C        0.38440    0.84694    0.94541    1.000
    H80      H        0.39230    0.81060    0.94920    1.000
    O31      O        0.42540    0.00020    0.90765    1.000
    O32      O        0.07240    0.99700    0.87943    1.000
    O33      O        0.01150    0.92720    0.87986    1.000
    C185     C        0.13050    0.88730    0.93234    1.000
    C186     C        0.08460    0.85993    0.92487    1.000
    H81      H        0.07050    0.82740    0.93000    1.000
    C187     C        0.06004    0.88110    0.90966    1.000
    H82      H        0.02940    0.86290    0.90470    1.000
    C188     C        0.08130    0.92970    0.90193    1.000
    C189     C        0.12710    0.95702    0.90941    1.000
    H83      H        0.14130    0.98950    0.90420    1.000
    C190     C        0.15169    0.93580    0.92461    1.000
    H84      H        0.18230    0.95410    0.92960    1.000
    C191     C        0.43960    0.95220    0.91308    1.000
    C192     C        0.05180    0.95010    0.88595    1.000
    C193     C        0.38630    0.79170    0.01250    1.000
    C194     C        0.40600    0.80700    0.02330    1.000
    O34      O        0.48150    0.92750    0.90690    1.000
    O35      O        0.32160    0.77340    0.00843    1.000
    C195     C        0.88110    0.24260    0.74290    1.000
    C196     C        0.90160    0.25590    0.72390    1.000
    Cu8      Cu       0.96532    0.54322    0.38911    1.000
    C197     C        0.80139    0.34623    0.46660    1.000
    C198     C        0.82838    0.32330    0.48116    1.000
    H85      H        0.86730    0.32560    0.48210    1.000
    C199     C        0.79720    0.29690    0.49424    1.000
    C200     C        0.73903    0.29347    0.49277    1.000
    C201     C        0.71204    0.31639    0.47822    1.000
    C202     C        0.74322    0.34277    0.46513    1.000
    C203     C        0.71570    0.36460    0.44981    1.000
    H86      H        0.73700    0.37980    0.44070    1.000
    C204     C        0.65750    0.36340    0.44839    1.000
    C205     C        0.62630    0.33890    0.46240    1.000
    H87      H        0.58730    0.33870    0.46190    1.000
    C206     C        0.65270    0.31590    0.47631    1.000
    H88      H        0.63120    0.29890    0.48500    1.000
    C207     C        0.83960    0.37650    0.45268    1.000
    C208     C        0.82780    0.43080    0.44696    1.000
    H89      H        0.79780    0.45060    0.45180    1.000
    C209     C        0.86080    0.45545    0.43397    1.000
    H90      H        0.85290    0.49180    0.43010    1.000
    C210     C        0.90552    0.42590    0.42671    1.000
    C211     C        0.91732    0.37160    0.43243    1.000
    H91      H        0.94730    0.35180    0.42760    1.000
    C212     C        0.88440    0.34694    0.44541    1.000
    H92      H        0.89230    0.31060    0.44920    1.000
    O36      O        0.92540    0.50020    0.40765    1.000
    O37      O        0.57240    0.49700    0.37943    1.000
    O38      O        0.51150    0.42720    0.37986    1.000
    C213     C        0.63050    0.38730    0.43234    1.000
    C214     C        0.58460    0.35993    0.42487    1.000
    H93      H        0.57050    0.32740    0.43000    1.000
    C215     C        0.56004    0.38110    0.40966    1.000
    H94      H        0.52940    0.36290    0.40470    1.000
    C216     C        0.58130    0.42970    0.40193    1.000
    C217     C        0.62710    0.45702    0.40941    1.000
    H95      H        0.64130    0.48950    0.40420    1.000
    C218     C        0.65169    0.43580    0.42461    1.000
    H96      H        0.68230    0.45410    0.42960    1.000
    C219     C        0.93960    0.45220    0.41308    1.000
    C220     C        0.55180    0.45010    0.38595    1.000
    C221     C        0.88630    0.29170    0.51250    1.000
    C222     C        0.90600    0.30700    0.52330    1.000
    O39      O        0.98150    0.42750    0.40690    1.000
    O40      O        0.82160    0.27340    0.50843    1.000
    C223     C        0.38110    0.74260    0.24290    1.000
    C224     C        0.40160    0.75590    0.22390    1.000
    Cu9      Cu       0.54322    0.96532    0.61089    1.000
    C225     C        0.34623    0.80139    0.53340    1.000
    C226     C        0.32330    0.82838    0.51884    1.000
    H97      H        0.32560    0.86730    0.51790    1.000
    C227     C        0.29690    0.79720    0.50576    1.000
    C228     C        0.29347    0.73903    0.50723    1.000
    C229     C        0.31639    0.71204    0.52178    1.000
    C230     C        0.34277    0.74322    0.53487    1.000
    C231     C        0.36460    0.71570    0.55019    1.000
    H98      H        0.37980    0.73700    0.55930    1.000
    C232     C        0.36340    0.65750    0.55161    1.000
    C233     C        0.33890    0.62630    0.53760    1.000
    H99      H        0.33870    0.58730    0.53810    1.000
    C234     C        0.31590    0.65270    0.52369    1.000
    H100     H        0.29890    0.63120    0.51500    1.000
    C235     C        0.37650    0.83960    0.54732    1.000
    C236     C        0.43080    0.82780    0.55304    1.000
    H101     H        0.45060    0.79780    0.54820    1.000
    C237     C        0.45545    0.86080    0.56603    1.000
    H102     H        0.49180    0.85290    0.56990    1.000
    C238     C        0.42590    0.90552    0.57329    1.000
    C239     C        0.37160    0.91732    0.56757    1.000
    H103     H        0.35180    0.94730    0.57240    1.000
    C240     C        0.34694    0.88440    0.55459    1.000
    H104     H        0.31060    0.89230    0.55080    1.000
    O41      O        0.50020    0.92540    0.59235    1.000
    O42      O        0.49700    0.57240    0.62057    1.000
    O43      O        0.42720    0.51150    0.62014    1.000
    C241     C        0.38730    0.63050    0.56766    1.000
    C242     C        0.35993    0.58460    0.57513    1.000
    H105     H        0.32740    0.57050    0.57000    1.000
    C243     C        0.38110    0.56004    0.59034    1.000
    H106     H        0.36290    0.52940    0.59530    1.000
    C244     C        0.42970    0.58130    0.59807    1.000
    C245     C        0.45702    0.62710    0.59059    1.000
    H107     H        0.48950    0.64130    0.59580    1.000
    C246     C        0.43580    0.65169    0.57539    1.000
    H108     H        0.45410    0.68230    0.57040    1.000
    C247     C        0.45220    0.93960    0.58692    1.000
    C248     C        0.45010    0.55180    0.61405    1.000
    C249     C        0.29170    0.88630    0.48750    1.000
    C250     C        0.30700    0.90600    0.47670    1.000
    O44      O        0.42750    0.98150    0.59310    1.000
    O45      O        0.27340    0.82160    0.49157    1.000
    C251     C        0.74260    0.38110    0.75710    1.000
    C252     C        0.75590    0.40160    0.77610    1.000
    Cu10     Cu       0.04322    0.46532    0.11089    1.000
    C253     C        0.84623    0.30139    0.03340    1.000
    C254     C        0.82330    0.32838    0.01884    1.000
    H109     H        0.82560    0.36730    0.01790    1.000
    C255     C        0.79690    0.29720    0.00576    1.000
    C256     C        0.79347    0.23903    0.00723    1.000
    C257     C        0.81639    0.21204    0.02178    1.000
    C258     C        0.84277    0.24322    0.03487    1.000
    C259     C        0.86460    0.21570    0.05019    1.000
    H110     H        0.87980    0.23700    0.05930    1.000
    C260     C        0.86340    0.15750    0.05161    1.000
    C261     C        0.83890    0.12630    0.03760    1.000
    H111     H        0.83870    0.08730    0.03810    1.000
    C262     C        0.81590    0.15270    0.02369    1.000
    H112     H        0.79890    0.13120    0.01500    1.000
    C263     C        0.87650    0.33960    0.04732    1.000
    C264     C        0.93080    0.32780    0.05304    1.000
    H113     H        0.95060    0.29780    0.04820    1.000
    C265     C        0.95545    0.36080    0.06603    1.000
    H114     H        0.99180    0.35290    0.06990    1.000
    C266     C        0.92590    0.40552    0.07329    1.000
    C267     C        0.87160    0.41732    0.06757    1.000
    H115     H        0.85180    0.44730    0.07240    1.000
    C268     C        0.84694    0.38440    0.05459    1.000
    H116     H        0.81060    0.39230    0.05080    1.000
    O46      O        0.00020    0.42540    0.09235    1.000
    O47      O        0.99700    0.07240    0.12057    1.000
    O48      O        0.92720    0.01150    0.12014    1.000
    C269     C        0.88730    0.13050    0.06766    1.000
    C270     C        0.85993    0.08460    0.07513    1.000
    H117     H        0.82740    0.07050    0.07000    1.000
    C271     C        0.88110    0.06004    0.09034    1.000
    H118     H        0.86290    0.02940    0.09530    1.000
    C272     C        0.92970    0.08130    0.09807    1.000
    C273     C        0.95702    0.12710    0.09059    1.000
    H119     H        0.98950    0.14130    0.09580    1.000
    C274     C        0.93580    0.15169    0.07539    1.000
    H120     H        0.95410    0.18230    0.07040    1.000
    C275     C        0.95220    0.43960    0.08692    1.000
    C276     C        0.95010    0.05180    0.11405    1.000
    C277     C        0.79170    0.38630    0.98750    1.000
    C278     C        0.80700    0.40600    0.97670    1.000
    O49      O        0.92750    0.48150    0.09310    1.000
    O50      O        0.77340    0.32160    0.99157    1.000
    C279     C        0.24260    0.88110    0.25710    1.000
    C280     C        0.25590    0.90160    0.27610    1.000
    Cu11     Cu       0.95678    0.53468    0.11089    1.000
    C281     C        0.15377    0.69861    0.03340    1.000
    C282     C        0.17670    0.67162    0.01884    1.000
    H121     H        0.17440    0.63270    0.01790    1.000
    C283     C        0.20310    0.70280    0.00576    1.000
    C284     C        0.20653    0.76097    0.00723    1.000
    C285     C        0.18361    0.78796    0.02178    1.000
    C286     C        0.15723    0.75678    0.03487    1.000
    C287     C        0.13540    0.78430    0.05019    1.000
    H122     H        0.12020    0.76300    0.05930    1.000
    C288     C        0.13660    0.84250    0.05161    1.000
    C289     C        0.16110    0.87370    0.03760    1.000
    H123     H        0.16130    0.91270    0.03810    1.000
    C290     C        0.18410    0.84730    0.02369    1.000
    H124     H        0.20110    0.86880    0.01500    1.000
    C291     C        0.12350    0.66040    0.04732    1.000
    C292     C        0.06920    0.67220    0.05304    1.000
    H125     H        0.04940    0.70220    0.04820    1.000
    C293     C        0.04455    0.63920    0.06603    1.000
    H126     H        0.00820    0.64710    0.06990    1.000
    C294     C        0.07410    0.59448    0.07329    1.000
    C295     C        0.12840    0.58268    0.06757    1.000
    H127     H        0.14820    0.55270    0.07240    1.000
    C296     C        0.15306    0.61560    0.05459    1.000
    H128     H        0.18940    0.60770    0.05080    1.000
    O51      O        0.99980    0.57460    0.09235    1.000
    O52      O        0.00300    0.92760    0.12057    1.000
    O53      O        0.07280    0.98850    0.12014    1.000
    C297     C        0.11270    0.86950    0.06766    1.000
    C298     C        0.14007    0.91540    0.07513    1.000
    H129     H        0.17260    0.92950    0.07000    1.000
    C299     C        0.11890    0.93996    0.09034    1.000
    H130     H        0.13710    0.97060    0.09530    1.000
    C300     C        0.07030    0.91870    0.09807    1.000
    C301     C        0.04298    0.87290    0.09059    1.000
    H131     H        0.01050    0.85870    0.09580    1.000
    C302     C        0.06420    0.84831    0.07539    1.000
    H132     H        0.04590    0.81770    0.07040    1.000
    C303     C        0.04780    0.56040    0.08692    1.000
    C304     C        0.04990    0.94820    0.11405    1.000
    C305     C        0.20830    0.61370    0.98750    1.000
    C306     C        0.19300    0.59400    0.97670    1.000
    O54      O        0.07250    0.51850    0.09310    1.000
    O55      O        0.22660    0.67840    0.99157    1.000
    C307     C        0.75740    0.11890    0.25710    1.000
    C308     C        0.74410    0.09840    0.27610    1.000
    Cu12     Cu       0.45678    0.03468    0.61089    1.000
    C309     C        0.65377    0.19861    0.53340    1.000
    C310     C        0.67670    0.17162    0.51884    1.000
    H133     H        0.67440    0.13270    0.51790    1.000
    C311     C        0.70310    0.20280    0.50576    1.000
    C312     C        0.70653    0.26097    0.50723    1.000
    C313     C        0.68361    0.28796    0.52178    1.000
    C314     C        0.65723    0.25678    0.53487    1.000
    C315     C        0.63540    0.28430    0.55019    1.000
    H134     H        0.62020    0.26300    0.55930    1.000
    C316     C        0.63660    0.34250    0.55161    1.000
    C317     C        0.66110    0.37370    0.53760    1.000
    H135     H        0.66130    0.41270    0.53810    1.000
    C318     C        0.68410    0.34730    0.52369    1.000
    H136     H        0.70110    0.36880    0.51500    1.000
    C319     C        0.62350    0.16040    0.54732    1.000
    C320     C        0.56920    0.17220    0.55304    1.000
    H137     H        0.54940    0.20220    0.54820    1.000
    C321     C        0.54455    0.13920    0.56603    1.000
    H138     H        0.50820    0.14710    0.56990    1.000
    C322     C        0.57410    0.09448    0.57329    1.000
    C323     C        0.62840    0.08268    0.56757    1.000
    H139     H        0.64820    0.05270    0.57240    1.000
    C324     C        0.65306    0.11560    0.55459    1.000
    H140     H        0.68940    0.10770    0.55080    1.000
    O56      O        0.49980    0.07460    0.59235    1.000
    O57      O        0.50300    0.42760    0.62057    1.000
    O58      O        0.57280    0.48850    0.62014    1.000
    C325     C        0.61270    0.36950    0.56766    1.000
    C326     C        0.64007    0.41540    0.57513    1.000
    H141     H        0.67260    0.42950    0.57000    1.000
    C327     C        0.61890    0.43996    0.59034    1.000
    H142     H        0.63710    0.47060    0.59530    1.000
    C328     C        0.57030    0.41870    0.59807    1.000
    C329     C        0.54298    0.37290    0.59059    1.000
    H143     H        0.51050    0.35870    0.59580    1.000
    C330     C        0.56420    0.34831    0.57539    1.000
    H144     H        0.54590    0.31770    0.57040    1.000
    C331     C        0.54780    0.06040    0.58692    1.000
    C332     C        0.54990    0.44820    0.61405    1.000
    C333     C        0.70830    0.11370    0.48750    1.000
    C334     C        0.69300    0.09400    0.47670    1.000
    O59      O        0.57250    0.01850    0.59310    1.000
    O60      O        0.72660    0.17840    0.49157    1.000
    C335     C        0.25740    0.61890    0.75710    1.000
    C336     C        0.24410    0.59840    0.77610    1.000
    Cu13     Cu       0.46532    0.45678    0.36089    1.000
    C337     C        0.30139    0.65377    0.28340    1.000
    C338     C        0.32838    0.67670    0.26884    1.000
    H145     H        0.36730    0.67440    0.26790    1.000
    C339     C        0.29720    0.70310    0.25576    1.000
    C340     C        0.23903    0.70653    0.25723    1.000
    C341     C        0.21204    0.68361    0.27178    1.000
    C342     C        0.24322    0.65723    0.28487    1.000
    C343     C        0.21570    0.63540    0.30019    1.000
    H146     H        0.23700    0.62020    0.30930    1.000
    C344     C        0.15750    0.63660    0.30161    1.000
    C345     C        0.12630    0.66110    0.28760    1.000
    H147     H        0.08730    0.66130    0.28810    1.000
    C346     C        0.15270    0.68410    0.27369    1.000
    H148     H        0.13120    0.70110    0.26500    1.000
    C347     C        0.33960    0.62350    0.29732    1.000
    C348     C        0.32780    0.56920    0.30304    1.000
    H149     H        0.29780    0.54940    0.29820    1.000
    C349     C        0.36080    0.54455    0.31603    1.000
    H150     H        0.35290    0.50820    0.31990    1.000
    C350     C        0.40552    0.57410    0.32329    1.000
    C351     C        0.41732    0.62840    0.31757    1.000
    H151     H        0.44730    0.64820    0.32240    1.000
    C352     C        0.38440    0.65306    0.30459    1.000
    H152     H        0.39230    0.68940    0.30080    1.000
    O61      O        0.42540    0.49980    0.34235    1.000
    O62      O        0.07240    0.50300    0.37057    1.000
    O63      O        0.01150    0.57280    0.37014    1.000
    C353     C        0.13050    0.61270    0.31766    1.000
    C354     C        0.08460    0.64007    0.32513    1.000
    H153     H        0.07050    0.67260    0.32000    1.000
    C355     C        0.06004    0.61890    0.34034    1.000
    H154     H        0.02940    0.63710    0.34530    1.000
    C356     C        0.08130    0.57030    0.34807    1.000
    C357     C        0.12710    0.54298    0.34059    1.000
    H155     H        0.14130    0.51050    0.34580    1.000
    C358     C        0.15169    0.56420    0.32539    1.000
    H156     H        0.18230    0.54590    0.32040    1.000
    C359     C        0.43960    0.54780    0.33692    1.000
    C360     C        0.05180    0.54990    0.36405    1.000
    C361     C        0.38630    0.70830    0.23750    1.000
    C362     C        0.40600    0.69300    0.22670    1.000
    O64      O        0.48150    0.57250    0.34310    1.000
    O65      O        0.32160    0.72660    0.24157    1.000
    C363     C        0.88110    0.25740    0.50710    1.000
    C364     C        0.90160    0.24410    0.52610    1.000
    Cu14     Cu       0.96532    0.95678    0.86089    1.000
    C365     C        0.80139    0.15377    0.78340    1.000
    C366     C        0.82838    0.17670    0.76884    1.000
    H157     H        0.86730    0.17440    0.76790    1.000
    C367     C        0.79720    0.20310    0.75576    1.000
    C368     C        0.73903    0.20653    0.75723    1.000
    C369     C        0.71204    0.18361    0.77178    1.000
    C370     C        0.74322    0.15723    0.78487    1.000
    C371     C        0.71570    0.13540    0.80019    1.000
    H158     H        0.73700    0.12020    0.80930    1.000
    C372     C        0.65750    0.13660    0.80161    1.000
    C373     C        0.62630    0.16110    0.78760    1.000
    H159     H        0.58730    0.16130    0.78810    1.000
    C374     C        0.65270    0.18410    0.77369    1.000
    H160     H        0.63120    0.20110    0.76500    1.000
    C375     C        0.83960    0.12350    0.79732    1.000
    C376     C        0.82780    0.06920    0.80304    1.000
    H161     H        0.79780    0.04940    0.79820    1.000
    C377     C        0.86080    0.04455    0.81603    1.000
    H162     H        0.85290    0.00820    0.81990    1.000
    C378     C        0.90552    0.07410    0.82329    1.000
    C379     C        0.91732    0.12840    0.81757    1.000
    H163     H        0.94730    0.14820    0.82240    1.000
    C380     C        0.88440    0.15306    0.80459    1.000
    H164     H        0.89230    0.18940    0.80080    1.000
    O66      O        0.92540    0.99980    0.84235    1.000
    O67      O        0.57240    0.00300    0.87057    1.000
    O68      O        0.51150    0.07280    0.87014    1.000
    C381     C        0.63050    0.11270    0.81766    1.000
    C382     C        0.58460    0.14007    0.82513    1.000
    H165     H        0.57050    0.17260    0.82000    1.000
    C383     C        0.56004    0.11890    0.84034    1.000
    H166     H        0.52940    0.13710    0.84530    1.000
    C384     C        0.58130    0.07030    0.84807    1.000
    C385     C        0.62710    0.04298    0.84059    1.000
    H167     H        0.64130    0.01050    0.84580    1.000
    C386     C        0.65169    0.06420    0.82539    1.000
    H168     H        0.68230    0.04590    0.82040    1.000
    C387     C        0.93960    0.04780    0.83692    1.000
    C388     C        0.55180    0.04990    0.86405    1.000
    C389     C        0.88630    0.20830    0.73750    1.000
    C390     C        0.90600    0.19300    0.72670    1.000
    O69      O        0.98150    0.07250    0.84310    1.000
    O70      O        0.82160    0.22660    0.74157    1.000
    C391     C        0.38110    0.75740    0.00710    1.000
    C392     C        0.40160    0.74410    0.02610    1.000
    Cu15     Cu       0.03468    0.04322    0.86089    1.000
    C393     C        0.19861    0.84623    0.78340    1.000
    C394     C        0.17162    0.82330    0.76884    1.000
    H169     H        0.13270    0.82560    0.76790    1.000
    C395     C        0.20280    0.79690    0.75576    1.000
    C396     C        0.26097    0.79347    0.75723    1.000
    C397     C        0.28796    0.81639    0.77178    1.000
    C398     C        0.25678    0.84277    0.78487    1.000
    C399     C        0.28430    0.86460    0.80019    1.000
    H170     H        0.26300    0.87980    0.80930    1.000
    C400     C        0.34250    0.86340    0.80161    1.000
    C401     C        0.37370    0.83890    0.78760    1.000
    H171     H        0.41270    0.83870    0.78810    1.000
    C402     C        0.34730    0.81590    0.77369    1.000
    H172     H        0.36880    0.79890    0.76500    1.000
    C403     C        0.16040    0.87650    0.79732    1.000
    C404     C        0.17220    0.93080    0.80304    1.000
    H173     H        0.20220    0.95060    0.79820    1.000
    C405     C        0.13920    0.95545    0.81603    1.000
    H174     H        0.14710    0.99180    0.81990    1.000
    C406     C        0.09448    0.92590    0.82329    1.000
    C407     C        0.08268    0.87160    0.81757    1.000
    H175     H        0.05270    0.85180    0.82240    1.000
    C408     C        0.11560    0.84694    0.80459    1.000
    H176     H        0.10770    0.81060    0.80080    1.000
    O71      O        0.07460    0.00020    0.84235    1.000
    O72      O        0.42760    0.99700    0.87057    1.000
    O73      O        0.48850    0.92720    0.87014    1.000
    C409     C        0.36950    0.88730    0.81766    1.000
    C410     C        0.41540    0.85993    0.82513    1.000
    H177     H        0.42950    0.82740    0.82000    1.000
    C411     C        0.43996    0.88110    0.84034    1.000
    H178     H        0.47060    0.86290    0.84530    1.000
    C412     C        0.41870    0.92970    0.84807    1.000
    C413     C        0.37290    0.95702    0.84059    1.000
    H179     H        0.35870    0.98950    0.84580    1.000
    C414     C        0.34831    0.93580    0.82539    1.000
    H180     H        0.31770    0.95410    0.82040    1.000
    C415     C        0.06040    0.95220    0.83692    1.000
    C416     C        0.44820    0.95010    0.86405    1.000
    C417     C        0.11370    0.79170    0.73750    1.000
    C418     C        0.09400    0.80700    0.72670    1.000
    O74      O        0.01850    0.92750    0.84310    1.000
    O75      O        0.17840    0.77340    0.74157    1.000
    C419     C        0.61890    0.24260    0.00710    1.000
    C420     C        0.59840    0.25590    0.02610    1.000
    Cu16     Cu       0.53468    0.54322    0.36089    1.000
    C421     C        0.69861    0.34623    0.28340    1.000
    C422     C        0.67162    0.32330    0.26884    1.000
    H181     H        0.63270    0.32560    0.26790    1.000
    C423     C        0.70280    0.29690    0.25576    1.000
    C424     C        0.76097    0.29347    0.25723    1.000
    C425     C        0.78796    0.31639    0.27178    1.000
    C426     C        0.75678    0.34277    0.28487    1.000
    C427     C        0.78430    0.36460    0.30019    1.000
    H182     H        0.76300    0.37980    0.30930    1.000
    C428     C        0.84250    0.36340    0.30161    1.000
    C429     C        0.87370    0.33890    0.28760    1.000
    H183     H        0.91270    0.33870    0.28810    1.000
    C430     C        0.84730    0.31590    0.27369    1.000
    H184     H        0.86880    0.29890    0.26500    1.000
    C431     C        0.66040    0.37650    0.29732    1.000
    C432     C        0.67220    0.43080    0.30304    1.000
    H185     H        0.70220    0.45060    0.29820    1.000
    C433     C        0.63920    0.45545    0.31603    1.000
    H186     H        0.64710    0.49180    0.31990    1.000
    C434     C        0.59448    0.42590    0.32329    1.000
    C435     C        0.58268    0.37160    0.31757    1.000
    H187     H        0.55270    0.35180    0.32240    1.000
    C436     C        0.61560    0.34694    0.30459    1.000
    H188     H        0.60770    0.31060    0.30080    1.000
    O76      O        0.57460    0.50020    0.34235    1.000
    O77      O        0.92760    0.49700    0.37057    1.000
    O78      O        0.98850    0.42720    0.37014    1.000
    C437     C        0.86950    0.38730    0.31766    1.000
    C438     C        0.91540    0.35993    0.32513    1.000
    H189     H        0.92950    0.32740    0.32000    1.000
    C439     C        0.93996    0.38110    0.34034    1.000
    H190     H        0.97060    0.36290    0.34530    1.000
    C440     C        0.91870    0.42970    0.34807    1.000
    C441     C        0.87290    0.45702    0.34059    1.000
    H191     H        0.85870    0.48950    0.34580    1.000
    C442     C        0.84831    0.43580    0.32539    1.000
    H192     H        0.81770    0.45410    0.32040    1.000
    C443     C        0.56040    0.45220    0.33692    1.000
    C444     C        0.94820    0.45010    0.36405    1.000
    C445     C        0.61370    0.29170    0.23750    1.000
    C446     C        0.59400    0.30700    0.22670    1.000
    O79      O        0.51850    0.42750    0.34310    1.000
    O80      O        0.67840    0.27340    0.24157    1.000
    C447     C        0.11890    0.74260    0.50710    1.000
    C448     C        0.09840    0.75590    0.52610    1.000
