data_functionalizedCrystal
_audit_creation_method	'EQeq! by Chris Wilmer'
_symmetry_space_group_name_H-M	'P1'
_symmetry_Int_Tables_number	1
_symmetry_cell_setting	triclinic
loop_
_symmetry_equiv_pos_as_xyz
  x,y,z
_cell_length_a	27.865
_cell_length_b	13.7117
_cell_length_c	45.65
_cell_angle_alpha	90
_cell_angle_beta	90
_cell_angle_gamma	90
loop_
_atom_site_label
_atom_site_type_symbol
_atom_site_fract_x
_atom_site_fract_y
_atom_site_fract_z
_atom_site_charge
Mof_C 	C 	0.0553	0.0051	0.5315	0.075
Mof_H 	H 	0.0376	0.0344	0.5469	-0.011
Mof_C 	C 	0.0668	0.0617	0.5074	-0.125
Mof_H 	H 	0.0565	0.1276	0.5062	0.091
Mof_C 	C 	0.0937	0.0205	0.4852	0.057
Mof_C 	C 	0.1059	0.9234	0.4876	-0.117
Mof_H 	H 	0.1237	0.8925	0.4725	0.079
Mof_C 	C 	0.0922	0.8712	0.5122	0.07
Mof_H 	H 	0.1007	0.8043	0.5135	-0.007
Mof_C 	C 	0.108	0.0779	0.459	0.1
Mof_C 	C 	0.1083	0.2179	0.4334	0.1
Mof_C 	C 	0.1411	0.0832	0.4138	0.108
Mof_C 	C 	0.0924	0.3222	0.4298	0.059
Mof_C 	C 	0.0669	0.3667	0.4517	-0.131
Mof_H 	H 	0.0609	0.3343	0.4697	0.088
Mof_C 	C 	0.0498	0.4612	0.4467	0.074
Mof_H 	H 	0.0326	0.4932	0.4619	-0.006
Mof_C 	C 	0.0815	0.4632	0.4005	0.071
Mof_H 	H 	0.0866	0.4966	0.3826	-0.006
Mof_C 	C 	0.1001	0.3699	0.4037	-0.126
Mof_H 	H 	0.1177	0.3399	0.3883	0.097
Mof_C 	C 	0.1634	0.0313	0.389	0.062
Mof_C 	C 	0.1851	0.079	0.366	-0.121
Mof_H 	H 	0.1859	0.1483	0.3656	0.08
Mof_C 	C 	0.2055	0.0278	0.3437	0.073
Mof_H 	H 	0.2201	0.0627	0.328	-0.014
Mof_C 	C 	0.1842	0.8825	0.3645	0.066
Mof_H 	H 	0.183	0.8133	0.3641	-0.008
Mof_C 	C 	0.163	0.9325	0.3881	-0.111
Mof_H 	H 	0.1482	0.8967	0.4035	0.082
Mof_C 	C 	0.3087	0.0616	0.7625	0.079
Mof_H 	H 	0.336	0.0793	0.7737	-0.015
Mof_C 	C 	0.3161	0.0274	0.7342	-0.126
Mof_H 	H 	0.3476	0.0223	0.7263	0.083
Mof_C 	C 	0.2766	0.0013	0.7182	0.057
Mof_C 	C 	0.2321	0.0056	0.7308	-0.113
Mof_H 	H 	0.2046	0.9849	0.7202	0.081
Mof_C 	C 	0.2277	0.0407	0.7594	0.058
Mof_H 	H 	0.1969	0.0434	0.7683	0.001
Mof_C 	C 	0.2813	0.9703	0.6867	0.101
Mof_C 	C 	0.3265	0.9358	0.6471	0.105
Mof_C 	C 	0.2451	0.9329	0.64396	0.105
Mof_C 	C 	0.3736	0.9235	0.6328	0.049
Mof_C 	C 	0.4156	0.9292	0.6484	-0.111
Mof_H 	H 	0.4152	0.9438	0.6688	0.078
Mof_C 	C 	0.459	0.9133	0.6338	0.063
Mof_H 	H 	0.488	0.9173	0.6447	-0.006
Mof_C 	C 	0.421	0.8886	0.5902	0.069
Mof_H 	H 	0.4225	0.8752	0.5698	-0.007
Mof_C 	C 	0.3762	0.9032	0.6029	-0.11
Mof_H 	H 	0.3478	0.8994	0.5914	0.08
Mof_C 	C 	0.2017	0.9161	0.6267	0.047
Mof_C 	C 	0.2041	0.8854	0.5975	-0.117
Mof_H 	H 	0.2341	0.8776	0.5879	0.079
Mof_C 	C 	0.1615	0.867	0.5831	0.073
Mof_H 	H 	0.163	0.8447	0.5634	-0.016
Mof_C 	C 	0.1164	0.9119	0.6227	0.06
Mof_H 	H 	0.0858	0.9239	0.6311	-0.007
Mof_C 	C 	0.1565	0.9296	0.6393	-0.112
Mof_H 	H 	0.1536	0.9507	0.6591	0.078
Mof_I 	I 	0.98845	0.91799	0.60026	-0.366
Mof_I 	I 	0.07129	0.6561	0.56378	-0.38
Mof_I 	I 	0.19586	0.69184	0.30449	-0.371
Mof_I 	I 	0.3309	0.84346	0.32608	-0.375
Mof_I 	I 	0.07341	0.7288	0.37407	-0.366
Mof_I 	I 	0.00899	0.71916	0.46423	-0.393
Mof_N 	N 	0.0676	0.9114	0.53413	-0.274
Mof_N 	N 	0.096	0.1719	0.45777	-0.143
Mof_N 	N 	0.1319	0.1787	0.41068	-0.133
Mof_N 	N 	0.1301	0.0296	0.43711	-0.137
Mof_N 	N 	0.0568	0.5079	0.42161	-0.275
Mof_N 	N 	0.2059	0.9291	0.34281	-0.277
Mof_N 	N 	0.2663	0.0709	0.77457	-0.274
Mof_N 	N 	0.3256	0.9606	0.67544	-0.139
Mof_N 	N 	0.2878	0.9209	0.63077	-0.14
Mof_N 	N 	0.2405	0.9575	0.67194	-0.14
Mof_N 	N 	0.4618	0.8925	0.60513	-0.271
Mof_N 	N 	0.1185	0.8786	0.59512	-0.271
Mof_Zn	Zn	0.05678	0.83735	0.57289	1.163
Mof_Zn	Zn	0.24251	0.85001	0.31245	1.165
Mof_Zn	Zn	0.02628	0.64309	0.4143	1.163
Mof_C 	C 	0.4447	0.9949	0.0315	0.073
Mof_H 	H 	0.4624	0.9656	0.0469	-0.012
Mof_C 	C 	0.4332	0.9383	0.0074	-0.125
Mof_H 	H 	0.4435	0.8724	0.0062	0.09
Mof_C 	C 	0.4063	0.9795	0.9852	0.054
Mof_C 	C 	0.3941	0.0766	0.9876	-0.116
Mof_H 	H 	0.3763	0.1075	0.9725	0.077
Mof_C 	C 	0.4078	0.1288	0.0122	0.069
Mof_H 	H 	0.3993	0.1957	0.0135	-0.008
Mof_C 	C 	0.392	0.9221	0.959	0.099
Mof_C 	C 	0.3917	0.7821	0.9334	0.099
Mof_C 	C 	0.3589	0.9168	0.9138	0.107
Mof_C 	C 	0.4076	0.6778	0.9298	0.058
Mof_C 	C 	0.4331	0.6333	0.9517	-0.132
Mof_H 	H 	0.4391	0.6657	0.9697	0.087
Mof_C 	C 	0.4502	0.5388	0.9467	0.073
Mof_H 	H 	0.4674	0.5068	0.9619	-0.007
Mof_C 	C 	0.4185	0.5368	0.9005	0.07
Mof_H 	H 	0.4134	0.5034	0.8826	-0.007
Mof_C 	C 	0.3999	0.6301	0.9037	-0.127
Mof_H 	H 	0.3823	0.6601	0.8883	0.096
Mof_C 	C 	0.3366	0.9687	0.889	0.06
Mof_C 	C 	0.3149	0.921	0.866	-0.121
Mof_H 	H 	0.3141	0.8517	0.8656	0.079
Mof_C 	C 	0.2945	0.9722	0.8437	0.072
Mof_H 	H 	0.2799	0.9373	0.828	-0.013
Mof_C 	C 	0.3158	0.1175	0.8645	0.066
Mof_H 	H 	0.317	0.1867	0.8641	-0.007
Mof_C 	C 	0.337	0.0675	0.8881	-0.11
Mof_H 	H 	0.3518	0.1033	0.9035	0.082
Mof_C 	C 	0.1913	0.9384	0.2625	0.079
Mof_H 	H 	0.164	0.9207	0.2737	-0.015
Mof_C 	C 	0.1839	0.9726	0.2342	-0.126
Mof_H 	H 	0.1524	0.9777	0.2263	0.083
Mof_C 	C 	0.2234	0.9987	0.2182	0.057
Mof_C 	C 	0.2679	0.9944	0.2308	-0.114
Mof_H 	H 	0.2954	0.0151	0.2202	0.082
Mof_C 	C 	0.2723	0.9593	0.2594	0.058
Mof_H 	H 	0.3031	0.9566	0.2683	0.001
Mof_C 	C 	0.2187	0.0297	0.1867	0.101
Mof_C 	C 	0.1735	0.0642	0.1471	0.105
Mof_C 	C 	0.2549	0.0671	0.14396	0.105
Mof_C 	C 	0.1264	0.0765	0.1328	0.049
Mof_C 	C 	0.0844	0.0708	0.1484	-0.111
Mof_H 	H 	0.0848	0.0562	0.1688	0.079
Mof_C 	C 	0.041	0.0867	0.1338	0.063
Mof_H 	H 	0.012	0.0827	0.1447	-0.006
Mof_C 	C 	0.079	0.1114	0.0902	0.069
Mof_H 	H 	0.0775	0.1248	0.0698	-0.007
Mof_C 	C 	0.1238	0.0968	0.1029	-0.11
Mof_H 	H 	0.1522	0.1006	0.0914	0.08
Mof_C 	C 	0.2983	0.0839	0.1267	0.047
Mof_C 	C 	0.2959	0.1146	0.0975	-0.117
Mof_H 	H 	0.2659	0.1224	0.0879	0.079
Mof_C 	C 	0.3385	0.133	0.0831	0.073
Mof_H 	H 	0.337	0.1553	0.0634	-0.016
Mof_C 	C 	0.3836	0.0881	0.1227	0.06
Mof_H 	H 	0.4142	0.0761	0.1311	-0.007
Mof_C 	C 	0.3435	0.0704	0.1393	-0.112
Mof_H 	H 	0.3464	0.0493	0.1591	0.078
Mof_I 	I 	0.51155	0.08201	0.10026	-0.366
Mof_I 	I 	0.42871	0.3439	0.06378	-0.38
Mof_I 	I 	0.30414	0.30816	0.80449	-0.371
Mof_I 	I 	0.1691	0.15654	0.82608	-0.375
Mof_I 	I 	0.42659	0.2712	0.87407	-0.366
Mof_I 	I 	0.49101	0.28084	0.96423	-0.393
Mof_N 	N 	0.4324	0.0886	0.03413	-0.274
Mof_N 	N 	0.404	0.8281	0.95777	-0.143
Mof_N 	N 	0.3681	0.8213	0.91068	-0.133
Mof_N 	N 	0.3699	0.9704	0.93711	-0.137
Mof_N 	N 	0.4432	0.4921	0.92161	-0.275
Mof_N 	N 	0.2941	0.0709	0.84281	-0.276
Mof_N 	N 	0.2337	0.9291	0.27457	-0.274
Mof_N 	N 	0.1744	0.0394	0.17544	-0.139
Mof_N 	N 	0.2122	0.0791	0.13077	-0.14
Mof_N 	N 	0.2595	0.0425	0.17194	-0.14
Mof_N 	N 	0.0382	0.1075	0.10513	-0.271
Mof_N 	N 	0.3815	0.1214	0.09512	-0.271
Mof_Zn	Zn	0.44322	0.16265	0.07289	1.163
Mof_Zn	Zn	0.25749	0.14999	0.81245	1.165
Mof_Zn	Zn	0.47372	0.35691	0.9143	1.163
Mof_C 	C 	0.9447	0.5051	0.9685	0.073
Mof_H 	H 	0.9624	0.5344	0.9531	-0.012
Mof_C 	C 	0.9332	0.5617	0.9926	-0.126
Mof_H 	H 	0.9435	0.6276	0.9938	0.09
Mof_C 	C 	0.9063	0.5205	0.0148	0.055
Mof_C 	C 	0.8941	0.4234	0.0124	-0.117
Mof_H 	H 	0.8763	0.3925	0.0275	0.077
Mof_C 	C 	0.9078	0.3712	0.9878	0.069
Mof_H 	H 	0.8993	0.3043	0.9865	-0.008
Mof_C 	C 	0.892	0.5779	0.041	0.099
Mof_C 	C 	0.8917	0.7179	0.0666	0.098
Mof_C 	C 	0.8589	0.5832	0.0862	0.107
Mof_C 	C 	0.9076	0.8222	0.0702	0.058
Mof_C 	C 	0.9331	0.8667	0.0483	-0.132
Mof_H 	H 	0.9391	0.8343	0.0303	0.087
Mof_C 	C 	0.9502	0.9612	0.0533	0.074
Mof_H 	H 	0.9674	0.9932	0.0381	-0.007
Mof_C 	C 	0.9185	0.9632	0.0995	0.071
Mof_H 	H 	0.9134	0.9966	0.1174	-0.007
Mof_C 	C 	0.8999	0.8699	0.0963	-0.127
Mof_H 	H 	0.8823	0.8399	0.1117	0.096
Mof_C 	C 	0.8366	0.5313	0.111	0.061
Mof_C 	C 	0.8149	0.579	0.134	-0.121
Mof_H 	H 	0.8141	0.6483	0.1344	0.079
Mof_C 	C 	0.7945	0.5278	0.1563	0.072
Mof_H 	H 	0.7799	0.5627	0.172	-0.013
Mof_C 	C 	0.8158	0.3825	0.1355	0.066
Mof_H 	H 	0.817	0.3133	0.1359	-0.008
Mof_C 	C 	0.837	0.4325	0.1119	-0.11
Mof_H 	H 	0.8518	0.3967	0.0965	0.082
Mof_C 	C 	0.6913	0.5616	0.7375	0.079
Mof_H 	H 	0.664	0.5793	0.7263	-0.015
Mof_C 	C 	0.6839	0.5274	0.7658	-0.126
Mof_H 	H 	0.6524	0.5223	0.7737	0.083
Mof_C 	C 	0.7234	0.5013	0.7818	0.057
Mof_C 	C 	0.7679	0.5056	0.7692	-0.114
Mof_H 	H 	0.7954	0.4849	0.7798	0.081
Mof_C 	C 	0.7723	0.5407	0.7406	0.058
Mof_H 	H 	0.8031	0.5434	0.7317	0.001
Mof_C 	C 	0.7187	0.4703	0.8133	0.101
Mof_C 	C 	0.6735	0.4358	0.8529	0.105
Mof_C 	C 	0.7549	0.4329	0.85604	0.105
Mof_C 	C 	0.6264	0.4235	0.8672	0.049
Mof_C 	C 	0.5844	0.4292	0.8516	-0.111
Mof_H 	H 	0.5848	0.4438	0.8312	0.078
Mof_C 	C 	0.541	0.4133	0.8662	0.063
Mof_H 	H 	0.512	0.4173	0.8553	-0.006
Mof_C 	C 	0.579	0.3886	0.9098	0.069
Mof_H 	H 	0.5775	0.3752	0.9302	-0.007
Mof_C 	C 	0.6238	0.4032	0.8971	-0.11
Mof_H 	H 	0.6522	0.3994	0.9086	0.08
Mof_C 	C 	0.7983	0.4161	0.8733	0.047
Mof_C 	C 	0.7959	0.3854	0.9025	-0.117
Mof_H 	H 	0.7659	0.3776	0.9121	0.079
Mof_C 	C 	0.8385	0.367	0.9169	0.073
Mof_H 	H 	0.837	0.3447	0.9366	-0.016
Mof_C 	C 	0.8836	0.4119	0.8773	0.06
Mof_H 	H 	0.9142	0.4239	0.8689	-0.007
Mof_C 	C 	0.8435	0.4296	0.8607	-0.112
Mof_H 	H 	0.8464	0.4507	0.8409	0.078
Mof_I 	I 	0.01155	0.41799	0.89974	-0.366
Mof_I 	I 	0.92871	0.1561	0.93622	-0.38
Mof_I 	I 	0.80414	0.19184	0.19551	-0.371
Mof_I 	I 	0.6691	0.34346	0.17392	-0.375
Mof_I 	I 	0.92659	0.2288	0.12593	-0.367
Mof_I 	I 	0.99101	0.21916	0.03577	-0.393
Mof_N 	N 	0.9324	0.4114	0.96587	-0.274
Mof_N 	N 	0.904	0.6719	0.04223	-0.143
Mof_N 	N 	0.8681	0.6787	0.08932	-0.133
Mof_N 	N 	0.8699	0.5296	0.06289	-0.137
Mof_N 	N 	0.9432	0.0079	0.07839	-0.276
Mof_N 	N 	0.7941	0.4291	0.15719	-0.277
Mof_N 	N 	0.7337	0.5709	0.72543	-0.274
Mof_N 	N 	0.6744	0.4606	0.82456	-0.139
Mof_N 	N 	0.7122	0.4209	0.86923	-0.14
Mof_N 	N 	0.7595	0.4575	0.82806	-0.14
Mof_N 	N 	0.5382	0.3925	0.89487	-0.271
Mof_N 	N 	0.8815	0.3786	0.90488	-0.271
Mof_Zn	Zn	0.94322	0.33735	0.92711	1.163
Mof_Zn	Zn	0.75749	0.35001	0.18755	1.165
Mof_Zn	Zn	0.97372	0.14309	0.0857	1.163
Mof_C 	C 	0.5553	0.4949	0.4685	0.073
Mof_H 	H 	0.5376	0.4656	0.4531	-0.012
Mof_C 	C 	0.5668	0.4383	0.4926	-0.126
Mof_H 	H 	0.5565	0.3724	0.4938	0.09
Mof_C 	C 	0.5937	0.4795	0.5148	0.055
Mof_C 	C 	0.6059	0.5766	0.5124	-0.117
Mof_H 	H 	0.6237	0.6075	0.5275	0.077
Mof_C 	C 	0.5922	0.6288	0.4878	0.069
Mof_H 	H 	0.6007	0.6957	0.4865	-0.008
Mof_C 	C 	0.608	0.4221	0.541	0.099
Mof_C 	C 	0.6083	0.2821	0.5666	0.099
Mof_C 	C 	0.6411	0.4168	0.5862	0.107
Mof_C 	C 	0.5924	0.1778	0.5702	0.058
Mof_C 	C 	0.5669	0.1333	0.5483	-0.132
Mof_H 	H 	0.5609	0.1657	0.5303	0.087
Mof_C 	C 	0.5498	0.0388	0.5533	0.073
Mof_H 	H 	0.5326	0.0068	0.5381	-0.007
Mof_C 	C 	0.5815	0.0368	0.5995	0.07
Mof_H 	H 	0.5866	0.0034	0.6174	-0.007
Mof_C 	C 	0.6001	0.1301	0.5963	-0.127
Mof_H 	H 	0.6177	0.1601	0.6117	0.096
Mof_C 	C 	0.6634	0.4687	0.611	0.061
Mof_C 	C 	0.6851	0.421	0.634	-0.121
Mof_H 	H 	0.6859	0.3517	0.6344	0.079
Mof_C 	C 	0.7055	0.4722	0.6563	0.072
Mof_H 	H 	0.7201	0.4373	0.672	-0.013
Mof_C 	C 	0.6842	0.6175	0.6355	0.066
Mof_H 	H 	0.683	0.6867	0.6359	-0.008
Mof_C 	C 	0.663	0.5675	0.6119	-0.11
Mof_H 	H 	0.6482	0.6033	0.5965	0.082
Mof_C 	C 	0.8087	0.4384	0.2375	0.079
Mof_H 	H 	0.836	0.4207	0.2263	-0.015
Mof_C 	C 	0.8161	0.4726	0.2658	-0.126
Mof_H 	H 	0.8476	0.4777	0.2737	0.083
Mof_C 	C 	0.7766	0.4987	0.2818	0.057
Mof_C 	C 	0.7321	0.4944	0.2692	-0.114
Mof_H 	H 	0.7046	0.5151	0.2798	0.081
Mof_C 	C 	0.7277	0.4593	0.2406	0.058
Mof_H 	H 	0.6969	0.4566	0.2317	0.001
Mof_C 	C 	0.7813	0.5297	0.3133	0.101
Mof_C 	C 	0.8265	0.5642	0.3529	0.105
Mof_C 	C 	0.7451	0.5671	0.35604	0.105
Mof_C 	C 	0.8736	0.5765	0.3672	0.049
Mof_C 	C 	0.9156	0.5708	0.3516	-0.111
Mof_H 	H 	0.9152	0.5562	0.3312	0.078
Mof_C 	C 	0.959	0.5867	0.3662	0.063
Mof_H 	H 	0.988	0.5827	0.3553	-0.006
Mof_C 	C 	0.921	0.6114	0.4098	0.069
Mof_H 	H 	0.9225	0.6248	0.4302	-0.007
Mof_C 	C 	0.8762	0.5968	0.3971	-0.11
Mof_H 	H 	0.8478	0.6006	0.4086	0.08
Mof_C 	C 	0.7017	0.5839	0.3733	0.047
Mof_C 	C 	0.7041	0.6146	0.4025	-0.117
Mof_H 	H 	0.7341	0.6224	0.4121	0.079
Mof_C 	C 	0.6615	0.633	0.4169	0.073
Mof_H 	H 	0.663	0.6553	0.4366	-0.016
Mof_C 	C 	0.6164	0.5881	0.3773	0.06
Mof_H 	H 	0.5858	0.5761	0.3689	-0.007
Mof_C 	C 	0.6565	0.5704	0.3607	-0.112
Mof_H 	H 	0.6536	0.5493	0.3409	0.078
Mof_I 	I 	0.48845	0.58201	0.39974	-0.366
Mof_I 	I 	0.57129	0.8439	0.43622	-0.38
Mof_I 	I 	0.69586	0.80816	0.69551	-0.371
Mof_I 	I 	0.8309	0.65654	0.67392	-0.375
Mof_I 	I 	0.57341	0.7712	0.62593	-0.366
Mof_I 	I 	0.50899	0.78084	0.53577	-0.393
Mof_N 	N 	0.5676	0.5886	0.46587	-0.274
Mof_N 	N 	0.596	0.3281	0.54223	-0.143
Mof_N 	N 	0.6319	0.3213	0.58932	-0.133
Mof_N 	N 	0.6301	0.4704	0.56289	-0.137
Mof_N 	N 	0.5568	0.9921	0.57839	-0.275
Mof_N 	N 	0.7059	0.5709	0.65719	-0.277
Mof_N 	N 	0.7663	0.4291	0.22543	-0.274
Mof_N 	N 	0.8256	0.5394	0.32456	-0.139
Mof_N 	N 	0.7878	0.5791	0.36923	-0.14
Mof_N 	N 	0.7405	0.5425	0.32806	-0.14
Mof_N 	N 	0.9618	0.6075	0.39487	-0.271
Mof_N 	N 	0.6185	0.6214	0.40488	-0.271
Mof_Zn	Zn	0.55678	0.66265	0.42711	1.163
Mof_Zn	Zn	0.74251	0.64999	0.68755	1.165
Mof_Zn	Zn	0.52628	0.85691	0.5857	1.163
Mof_C 	C 	0.9447	0.9949	0.4685	0.074
Mof_H 	H 	0.9624	0.9656	0.4531	-0.012
Mof_C 	C 	0.9332	0.9383	0.4926	-0.126
Mof_H 	H 	0.9435	0.8724	0.4938	0.09
Mof_C 	C 	0.9063	0.9795	0.5148	0.056
Mof_C 	C 	0.8941	0.0766	0.5124	-0.118
Mof_H 	H 	0.8763	0.1075	0.5275	0.078
Mof_C 	C 	0.9078	0.1288	0.4878	0.069
Mof_H 	H 	0.8993	0.1957	0.4865	-0.008
Mof_C 	C 	0.892	0.9221	0.541	0.099
Mof_C 	C 	0.8917	0.7821	0.5666	0.099
Mof_C 	C 	0.8589	0.9168	0.5862	0.107
Mof_C 	C 	0.9076	0.6778	0.5702	0.058
Mof_C 	C 	0.9331	0.6333	0.5483	-0.132
Mof_H 	H 	0.9391	0.6657	0.5303	0.087
Mof_C 	C 	0.9502	0.5388	0.5533	0.073
Mof_H 	H 	0.9674	0.5068	0.5381	-0.007
Mof_C 	C 	0.9185	0.5368	0.5995	0.07
Mof_H 	H 	0.9134	0.5034	0.6174	-0.007
Mof_C 	C 	0.8999	0.6301	0.5963	-0.127
Mof_H 	H 	0.8823	0.6601	0.6117	0.096
Mof_C 	C 	0.8366	0.9687	0.611	0.061
Mof_C 	C 	0.8149	0.921	0.634	-0.122
Mof_H 	H 	0.8141	0.8517	0.6344	0.079
Mof_C 	C 	0.7945	0.9722	0.6563	0.073
Mof_H 	H 	0.7799	0.9373	0.672	-0.014
Mof_C 	C 	0.8158	0.1175	0.6355	0.066
Mof_H 	H 	0.817	0.1867	0.6359	-0.008
Mof_C 	C 	0.837	0.0675	0.6119	-0.111
Mof_H 	H 	0.8518	0.1033	0.5965	0.082
Mof_C 	C 	0.6913	0.9384	0.2375	0.079
Mof_H 	H 	0.664	0.9207	0.2263	-0.015
Mof_C 	C 	0.6839	0.9726	0.2658	-0.126
Mof_H 	H 	0.6524	0.9777	0.2737	0.083
Mof_C 	C 	0.7234	0.9987	0.2818	0.057
Mof_C 	C 	0.7679	0.9944	0.2692	-0.113
Mof_H 	H 	0.7954	0.0151	0.2798	0.081
Mof_C 	C 	0.7723	0.9593	0.2406	0.058
Mof_H 	H 	0.8031	0.9566	0.2317	0.001
Mof_C 	C 	0.7187	0.0297	0.3133	0.101
Mof_C 	C 	0.6735	0.0642	0.3529	0.105
Mof_C 	C 	0.7549	0.0671	0.35604	0.105
Mof_C 	C 	0.6264	0.0765	0.3672	0.049
Mof_C 	C 	0.5844	0.0708	0.3516	-0.111
Mof_H 	H 	0.5848	0.0562	0.3312	0.078
Mof_C 	C 	0.541	0.0867	0.3662	0.063
Mof_H 	H 	0.512	0.0827	0.3553	-0.006
Mof_C 	C 	0.579	0.1114	0.4098	0.069
Mof_H 	H 	0.5775	0.1248	0.4302	-0.007
Mof_C 	C 	0.6238	0.0968	0.3971	-0.11
Mof_H 	H 	0.6522	0.1006	0.4086	0.08
Mof_C 	C 	0.7983	0.0839	0.3733	0.047
Mof_C 	C 	0.7959	0.1146	0.4025	-0.117
Mof_H 	H 	0.7659	0.1224	0.4121	0.079
Mof_C 	C 	0.8385	0.133	0.4169	0.073
Mof_H 	H 	0.837	0.1553	0.4366	-0.016
Mof_C 	C 	0.8836	0.0881	0.3773	0.06
Mof_H 	H 	0.9142	0.0761	0.3689	-0.007
Mof_C 	C 	0.8435	0.0704	0.3607	-0.112
Mof_H 	H 	0.8464	0.0493	0.3409	0.078
Mof_I 	I 	0.01155	0.08201	0.39974	-0.366
Mof_I 	I 	0.92871	0.3439	0.43622	-0.38
Mof_I 	I 	0.80414	0.30816	0.69551	-0.371
Mof_I 	I 	0.6691	0.15654	0.67392	-0.375
Mof_I 	I 	0.92659	0.2712	0.62593	-0.366
Mof_I 	I 	0.99101	0.28084	0.53577	-0.393
Mof_N 	N 	0.9324	0.0886	0.46587	-0.274
Mof_N 	N 	0.904	0.8281	0.54223	-0.143
Mof_N 	N 	0.8681	0.8213	0.58932	-0.133
Mof_N 	N 	0.8699	0.9704	0.56289	-0.137
Mof_N 	N 	0.9432	0.4921	0.57839	-0.275
Mof_N 	N 	0.7941	0.0709	0.65719	-0.277
Mof_N 	N 	0.7337	0.9291	0.22543	-0.274
Mof_N 	N 	0.6744	0.0394	0.32456	-0.139
Mof_N 	N 	0.7122	0.0791	0.36923	-0.14
Mof_N 	N 	0.7595	0.0425	0.32806	-0.14
Mof_N 	N 	0.5382	0.1075	0.39487	-0.271
Mof_N 	N 	0.8815	0.1214	0.40488	-0.271
Mof_Zn	Zn	0.94322	0.16265	0.42711	1.163
Mof_Zn	Zn	0.75749	0.14999	0.68755	1.165
Mof_Zn	Zn	0.97372	0.35691	0.5857	1.163
Mof_C 	C 	0.5553	0.0051	0.9685	0.073
Mof_H 	H 	0.5376	0.0344	0.9531	-0.012
Mof_C 	C 	0.5668	0.0617	0.9926	-0.125
Mof_H 	H 	0.5565	0.1276	0.9938	0.09
Mof_C 	C 	0.5937	0.0205	0.0148	0.054
Mof_C 	C 	0.6059	0.9234	0.0124	-0.116
Mof_H 	H 	0.6237	0.8925	0.0275	0.077
Mof_C 	C 	0.5922	0.8712	0.9878	0.069
Mof_H 	H 	0.6007	0.8043	0.9865	-0.008
Mof_C 	C 	0.608	0.0779	0.041	0.099
Mof_C 	C 	0.6083	0.2179	0.0666	0.099
Mof_C 	C 	0.6411	0.0832	0.0862	0.107
Mof_C 	C 	0.5924	0.3222	0.0702	0.058
Mof_C 	C 	0.5669	0.3667	0.0483	-0.132
Mof_H 	H 	0.5609	0.3343	0.0303	0.087
Mof_C 	C 	0.5498	0.4612	0.0533	0.073
Mof_H 	H 	0.5326	0.4932	0.0381	-0.007
Mof_C 	C 	0.5815	0.4632	0.0995	0.07
Mof_H 	H 	0.5866	0.4966	0.1174	-0.007
Mof_C 	C 	0.6001	0.3699	0.0963	-0.127
Mof_H 	H 	0.6177	0.3399	0.1117	0.096
Mof_C 	C 	0.6634	0.0313	0.111	0.06
Mof_C 	C 	0.6851	0.079	0.134	-0.121
Mof_H 	H 	0.6859	0.1483	0.1344	0.079
Mof_C 	C 	0.7055	0.0278	0.1563	0.072
Mof_H 	H 	0.7201	0.0627	0.172	-0.013
Mof_C 	C 	0.6842	0.8825	0.1355	0.066
Mof_H 	H 	0.683	0.8133	0.1359	-0.007
Mof_C 	C 	0.663	0.9325	0.1119	-0.11
Mof_H 	H 	0.6482	0.8967	0.0965	0.082
Mof_C 	C 	0.8087	0.0616	0.7375	0.079
Mof_H 	H 	0.836	0.0793	0.7263	-0.015
Mof_C 	C 	0.8161	0.0274	0.7658	-0.126
Mof_H 	H 	0.8476	0.0223	0.7737	0.083
Mof_C 	C 	0.7766	0.0013	0.7818	0.057
Mof_C 	C 	0.7321	0.0056	0.7692	-0.114
Mof_H 	H 	0.7046	0.9849	0.7798	0.082
Mof_C 	C 	0.7277	0.0407	0.7406	0.058
Mof_H 	H 	0.6969	0.0434	0.7317	0.001
Mof_C 	C 	0.7813	0.9703	0.8133	0.101
Mof_C 	C 	0.8265	0.9358	0.8529	0.105
Mof_C 	C 	0.7451	0.9329	0.85604	0.105
Mof_C 	C 	0.8736	0.9235	0.8672	0.049
Mof_C 	C 	0.9156	0.9292	0.8516	-0.111
Mof_H 	H 	0.9152	0.9438	0.8312	0.079
Mof_C 	C 	0.959	0.9133	0.8662	0.063
Mof_H 	H 	0.988	0.9173	0.8553	-0.006
Mof_C 	C 	0.921	0.8886	0.9098	0.069
Mof_H 	H 	0.9225	0.8752	0.9302	-0.007
Mof_C 	C 	0.8762	0.9032	0.8971	-0.11
Mof_H 	H 	0.8478	0.8994	0.9086	0.08
Mof_C 	C 	0.7017	0.9161	0.8733	0.047
Mof_C 	C 	0.7041	0.8854	0.9025	-0.117
Mof_H 	H 	0.7341	0.8776	0.9121	0.079
Mof_C 	C 	0.6615	0.867	0.9169	0.073
Mof_H 	H 	0.663	0.8447	0.9366	-0.016
Mof_C 	C 	0.6164	0.9119	0.8773	0.06
Mof_H 	H 	0.5858	0.9239	0.8689	-0.007
Mof_C 	C 	0.6565	0.9296	0.8607	-0.112
Mof_H 	H 	0.6536	0.9507	0.8409	0.078
Mof_I 	I 	0.48845	0.91799	0.89974	-0.366
Mof_I 	I 	0.57129	0.6561	0.93622	-0.38
Mof_I 	I 	0.69586	0.69184	0.19551	-0.371
Mof_I 	I 	0.8309	0.84346	0.17392	-0.375
Mof_I 	I 	0.57341	0.7288	0.12593	-0.366
Mof_I 	I 	0.50899	0.71916	0.03577	-0.393
Mof_N 	N 	0.5676	0.9114	0.96587	-0.274
Mof_N 	N 	0.596	0.1719	0.04223	-0.143
Mof_N 	N 	0.6319	0.1787	0.08932	-0.133
Mof_N 	N 	0.6301	0.0296	0.06289	-0.137
Mof_N 	N 	0.5568	0.5079	0.07839	-0.275
Mof_N 	N 	0.7059	0.9291	0.15719	-0.276
Mof_N 	N 	0.7663	0.0709	0.72543	-0.274
Mof_N 	N 	0.8256	0.9606	0.82456	-0.139
Mof_N 	N 	0.7878	0.9209	0.86923	-0.14
Mof_N 	N 	0.7405	0.9575	0.82806	-0.14
Mof_N 	N 	0.9618	0.8925	0.89487	-0.271
Mof_N 	N 	0.6185	0.8786	0.90488	-0.271
Mof_Zn	Zn	0.55678	0.83735	0.92711	1.163
Mof_Zn	Zn	0.74251	0.85001	0.18755	1.165
Mof_Zn	Zn	0.52628	0.64309	0.0857	1.163
Mof_C 	C 	0.0553	0.4949	0.0315	0.073
Mof_H 	H 	0.0376	0.4656	0.0469	-0.012
Mof_C 	C 	0.0668	0.4383	0.0074	-0.126
Mof_H 	H 	0.0565	0.3724	0.0062	0.09
Mof_C 	C 	0.0937	0.4795	0.9852	0.055
Mof_C 	C 	0.1059	0.5766	0.9876	-0.117
Mof_H 	H 	0.1237	0.6075	0.9725	0.077
Mof_C 	C 	0.0922	0.6288	0.0122	0.069
Mof_H 	H 	0.1007	0.6957	0.0135	-0.008
Mof_C 	C 	0.108	0.4221	0.959	0.099
Mof_C 	C 	0.1083	0.2821	0.9334	0.098
Mof_C 	C 	0.1411	0.4168	0.9138	0.107
Mof_C 	C 	0.0924	0.1778	0.9298	0.058
Mof_C 	C 	0.0669	0.1333	0.9517	-0.132
Mof_H 	H 	0.0609	0.1657	0.9697	0.087
Mof_C 	C 	0.0498	0.0388	0.9467	0.074
Mof_H 	H 	0.0326	0.0068	0.9619	-0.007
Mof_C 	C 	0.0815	0.0368	0.9005	0.071
Mof_H 	H 	0.0866	0.0034	0.8826	-0.007
Mof_C 	C 	0.1001	0.1301	0.9037	-0.127
Mof_H 	H 	0.1177	0.1601	0.8883	0.096
Mof_C 	C 	0.1634	0.4687	0.889	0.061
Mof_C 	C 	0.1851	0.421	0.866	-0.121
Mof_H 	H 	0.1859	0.3517	0.8656	0.079
Mof_C 	C 	0.2055	0.4722	0.8437	0.072
Mof_H 	H 	0.2201	0.4373	0.828	-0.013
Mof_C 	C 	0.1842	0.6175	0.8645	0.066
Mof_H 	H 	0.183	0.6867	0.8641	-0.008
Mof_C 	C 	0.163	0.5675	0.8881	-0.11
Mof_H 	H 	0.1482	0.6033	0.9035	0.082
Mof_C 	C 	0.3087	0.4384	0.2625	0.079
Mof_H 	H 	0.336	0.4207	0.2737	-0.015
Mof_C 	C 	0.3161	0.4726	0.2342	-0.126
Mof_H 	H 	0.3476	0.4777	0.2263	0.083
Mof_C 	C 	0.2766	0.4987	0.2182	0.057
Mof_C 	C 	0.2321	0.4944	0.2308	-0.114
Mof_H 	H 	0.2046	0.5151	0.2202	0.081
Mof_C 	C 	0.2277	0.4593	0.2594	0.058
Mof_H 	H 	0.1969	0.4566	0.2683	0.001
Mof_C 	C 	0.2813	0.5297	0.1867	0.101
Mof_C 	C 	0.3265	0.5642	0.1471	0.105
Mof_C 	C 	0.2451	0.5671	0.14396	0.105
Mof_C 	C 	0.3736	0.5765	0.1328	0.049
Mof_C 	C 	0.4156	0.5708	0.1484	-0.111
Mof_H 	H 	0.4152	0.5562	0.1688	0.078
Mof_C 	C 	0.459	0.5867	0.1338	0.063
Mof_H 	H 	0.488	0.5827	0.1447	-0.006
Mof_C 	C 	0.421	0.6114	0.0902	0.069
Mof_H 	H 	0.4225	0.6248	0.0698	-0.007
Mof_C 	C 	0.3762	0.5968	0.1029	-0.11
Mof_H 	H 	0.3478	0.6006	0.0914	0.08
Mof_C 	C 	0.2017	0.5839	0.1267	0.047
Mof_C 	C 	0.2041	0.6146	0.0975	-0.117
Mof_H 	H 	0.2341	0.6224	0.0879	0.079
Mof_C 	C 	0.1615	0.633	0.0831	0.073
Mof_H 	H 	0.163	0.6553	0.0634	-0.016
Mof_C 	C 	0.1164	0.5881	0.1227	0.06
Mof_H 	H 	0.0858	0.5761	0.1311	-0.007
Mof_C 	C 	0.1565	0.5704	0.1393	-0.112
Mof_H 	H 	0.1536	0.5493	0.1591	0.078
Mof_I 	I 	0.98845	0.58201	0.10026	-0.366
Mof_I 	I 	0.07129	0.8439	0.06378	-0.38
Mof_I 	I 	0.19586	0.80816	0.80449	-0.371
Mof_I 	I 	0.3309	0.65654	0.82608	-0.375
Mof_I 	I 	0.07341	0.7712	0.87407	-0.367
Mof_I 	I 	0.00899	0.78084	0.96423	-0.393
Mof_N 	N 	0.0676	0.5886	0.03413	-0.274
Mof_N 	N 	0.096	0.3281	0.95777	-0.143
Mof_N 	N 	0.1319	0.3213	0.91068	-0.133
Mof_N 	N 	0.1301	0.4704	0.93711	-0.137
Mof_N 	N 	0.0568	0.9921	0.92161	-0.276
Mof_N 	N 	0.2059	0.5709	0.84281	-0.277
Mof_N 	N 	0.2663	0.4291	0.27457	-0.274
Mof_N 	N 	0.3256	0.5394	0.17544	-0.139
Mof_N 	N 	0.2878	0.5791	0.13077	-0.14
Mof_N 	N 	0.2405	0.5425	0.17194	-0.14
Mof_N 	N 	0.4618	0.6075	0.10513	-0.271
Mof_N 	N 	0.1185	0.6214	0.09512	-0.271
Mof_Zn	Zn	0.05678	0.66265	0.07289	1.163
Mof_Zn	Zn	0.24251	0.64999	0.81245	1.165
Mof_Zn	Zn	0.02628	0.85691	0.9143	1.163
Mof_C 	C 	0.4447	0.5051	0.5315	0.073
Mof_H 	H 	0.4624	0.5344	0.5469	-0.012
Mof_C 	C 	0.4332	0.5617	0.5074	-0.126
Mof_H 	H 	0.4435	0.6276	0.5062	0.09
Mof_C 	C 	0.4063	0.5205	0.4852	0.055
Mof_C 	C 	0.3941	0.4234	0.4876	-0.117
Mof_H 	H 	0.3763	0.3925	0.4725	0.077
Mof_C 	C 	0.4078	0.3712	0.5122	0.069
Mof_H 	H 	0.3993	0.3043	0.5135	-0.008
Mof_C 	C 	0.392	0.5779	0.459	0.099
Mof_C 	C 	0.3917	0.7179	0.4334	0.099
Mof_C 	C 	0.3589	0.5832	0.4138	0.107
Mof_C 	C 	0.4076	0.8222	0.4298	0.058
Mof_C 	C 	0.4331	0.8667	0.4517	-0.132
Mof_H 	H 	0.4391	0.8343	0.4697	0.087
Mof_C 	C 	0.4502	0.9612	0.4467	0.073
Mof_H 	H 	0.4674	0.9932	0.4619	-0.007
Mof_C 	C 	0.4185	0.9632	0.4005	0.07
Mof_H 	H 	0.4134	0.9966	0.3826	-0.007
Mof_C 	C 	0.3999	0.8699	0.4037	-0.127
Mof_H 	H 	0.3823	0.8399	0.3883	0.096
Mof_C 	C 	0.3366	0.5313	0.389	0.061
Mof_C 	C 	0.3149	0.579	0.366	-0.121
Mof_H 	H 	0.3141	0.6483	0.3656	0.079
Mof_C 	C 	0.2945	0.5278	0.3437	0.072
Mof_H 	H 	0.2799	0.5627	0.328	-0.013
Mof_C 	C 	0.3158	0.3825	0.3645	0.066
Mof_H 	H 	0.317	0.3133	0.3641	-0.008
Mof_C 	C 	0.337	0.4325	0.3881	-0.11
Mof_H 	H 	0.3518	0.3967	0.4035	0.082
Mof_C 	C 	0.1913	0.5616	0.7625	0.079
Mof_H 	H 	0.164	0.5793	0.7737	-0.015
Mof_C 	C 	0.1839	0.5274	0.7342	-0.126
Mof_H 	H 	0.1524	0.5223	0.7263	0.083
Mof_C 	C 	0.2234	0.5013	0.7182	0.057
Mof_C 	C 	0.2679	0.5056	0.7308	-0.114
Mof_H 	H 	0.2954	0.4849	0.7202	0.081
Mof_C 	C 	0.2723	0.5407	0.7594	0.058
Mof_H 	H 	0.3031	0.5434	0.7683	0.001
Mof_C 	C 	0.2187	0.4703	0.6867	0.101
Mof_C 	C 	0.1735	0.4358	0.6471	0.105
Mof_C 	C 	0.2549	0.4329	0.64396	0.105
Mof_C 	C 	0.1264	0.4235	0.6328	0.049
Mof_C 	C 	0.0844	0.4292	0.6484	-0.111
Mof_H 	H 	0.0848	0.4438	0.6688	0.078
Mof_C 	C 	0.041	0.4133	0.6338	0.063
Mof_H 	H 	0.012	0.4173	0.6447	-0.006
Mof_C 	C 	0.079	0.3886	0.5902	0.069
Mof_H 	H 	0.0775	0.3752	0.5698	-0.007
Mof_C 	C 	0.1238	0.4032	0.6029	-0.11
Mof_H 	H 	0.1522	0.3994	0.5914	0.08
Mof_C 	C 	0.2983	0.4161	0.6267	0.047
Mof_C 	C 	0.2959	0.3854	0.5975	-0.117
Mof_H 	H 	0.2659	0.3776	0.5879	0.079
Mof_C 	C 	0.3385	0.367	0.5831	0.073
Mof_H 	H 	0.337	0.3447	0.5634	-0.016
Mof_C 	C 	0.3836	0.4119	0.6227	0.06
Mof_H 	H 	0.4142	0.4239	0.6311	-0.007
Mof_C 	C 	0.3435	0.4296	0.6393	-0.112
Mof_H 	H 	0.3464	0.4507	0.6591	0.078
Mof_I 	I 	0.51155	0.41799	0.60026	-0.366
Mof_I 	I 	0.42871	0.1561	0.56378	-0.38
Mof_I 	I 	0.30414	0.19184	0.30449	-0.371
Mof_I 	I 	0.1691	0.34346	0.32608	-0.375
Mof_I 	I 	0.42659	0.2288	0.37407	-0.366
Mof_I 	I 	0.49101	0.21916	0.46423	-0.393
Mof_N 	N 	0.4324	0.4114	0.53413	-0.274
Mof_N 	N 	0.404	0.6719	0.45777	-0.143
Mof_N 	N 	0.3681	0.6787	0.41068	-0.133
Mof_N 	N 	0.3699	0.5296	0.43711	-0.137
Mof_N 	N 	0.4432	0.0079	0.42161	-0.275
Mof_N 	N 	0.2941	0.4291	0.34281	-0.277
Mof_N 	N 	0.2337	0.5709	0.77457	-0.274
Mof_N 	N 	0.1744	0.4606	0.67544	-0.139
Mof_N 	N 	0.2122	0.4209	0.63077	-0.14
Mof_N 	N 	0.2595	0.4575	0.67194	-0.14
Mof_N 	N 	0.0382	0.3925	0.60513	-0.271
Mof_N 	N 	0.3815	0.3786	0.59512	-0.271
Mof_Zn	Zn	0.44322	0.33735	0.57289	1.163
Mof_Zn	Zn	0.25749	0.35001	0.31245	1.165
Mof_Zn	Zn	0.47372	0.14309	0.4143	1.163
_end
