data_functionalizedCrystal
_audit_creation_method	'EQeq! by Chris Wilmer'
_symmetry_space_group_name_H-M	'P1'
_symmetry_Int_Tables_number	1
_symmetry_cell_setting	triclinic
loop_
_symmetry_equiv_pos_as_xyz
  x,y,z
_cell_length_a	10.8158
_cell_length_b	10.9331
_cell_length_c	15.5514
_cell_angle_alpha	90
_cell_angle_beta	90
_cell_angle_gamma	100.557
loop_
_atom_site_label
_atom_site_type_symbol
_atom_site_fract_x
_atom_site_fract_y
_atom_site_fract_z
_atom_site_charge
Mof_Er	Er	0.64303	0.39723	0.89801	1.718
Mof_Er	Er	0.85697	0.10277	0.39801	1.696
Mof_Er	Er	0.35697	0.60277	0.10199	1.718
Mof_Er	Er	0.14303	0.89723	0.60199	1.696
Mof_H 	H 	0.1002	0.4099	0.9536	0.027
Mof_H 	H 	0.948	0.1811	0.7656	0.021
Mof_H 	H 	0.3157	0.2218	0.8141	-0.009
Mof_H 	H 	0.3998	0.0901	0.4536	0.029
Mof_H 	H 	0.552	0.3189	0.2656	0.032
Mof_H 	H 	0.1843	0.2782	0.3141	-0.006
Mof_H 	H 	0.8998	0.5901	0.0464	0.027
Mof_H 	H 	0.052	0.8189	0.2344	0.021
Mof_H 	H 	0.6843	0.7782	0.1859	-0.009
Mof_H 	H 	0.6002	0.9099	0.5464	0.029
Mof_H 	H 	0.448	0.6811	0.7344	0.032
Mof_H 	H 	0.8157	0.7218	0.6859	-0.006
Mof_C 	C 	0.3397	0.3845	0.9444	0.525
Mof_C 	C 	0.8777	0.3359	0.8775	0.334
Mof_C 	C 	0.143	0.0961	0.7082	0.322
Mof_C 	C 	0.2271	0.3249	0.892	-0.206
Mof_C 	C 	0.1086	0.3544	0.9096	0.094
Mof_C 	C 	0.0047	0.3017	0.8622	-0.136
Mof_C 	C 	0.0181	0.2175	0.7972	0.079
Mof_C 	C 	0.1339	0.1868	0.7788	-0.147
Mof_C 	C 	0.2374	0.2414	0.8264	0.11
Mof_C 	C 	0.1603	0.1155	0.4444	0.52
Mof_C 	C 	0.6223	0.1641	0.3775	0.336
Mof_C 	C 	0.357	0.4039	0.2082	0.319
Mof_C 	C 	0.2729	0.1751	0.392	-0.201
Mof_C 	C 	0.3914	0.1456	0.4096	0.09
Mof_C 	C 	0.4953	0.1983	0.3622	-0.133
Mof_C 	C 	0.4819	0.2825	0.2972	0.062
Mof_C 	C 	0.3661	0.3132	0.2788	-0.14
Mof_C 	C 	0.2626	0.2586	0.3264	0.105
Mof_C 	C 	0.6603	0.6155	0.0556	0.525
Mof_C 	C 	0.1223	0.6641	0.1225	0.334
Mof_C 	C 	0.857	0.9039	0.2918	0.322
Mof_C 	C 	0.7729	0.6751	0.108	-0.206
Mof_C 	C 	0.8914	0.6456	0.0904	0.094
Mof_C 	C 	0.9953	0.6983	0.1378	-0.136
Mof_C 	C 	0.9819	0.7825	0.2028	0.079
Mof_C 	C 	0.8661	0.8132	0.2212	-0.147
Mof_C 	C 	0.7626	0.7586	0.1736	0.11
Mof_C 	C 	0.8397	0.8845	0.5556	0.52
Mof_C 	C 	0.3777	0.8359	0.6225	0.336
Mof_C 	C 	0.643	0.5961	0.7918	0.319
Mof_C 	C 	0.7271	0.8249	0.608	-0.201
Mof_C 	C 	0.6086	0.8544	0.5904	0.09
Mof_C 	C 	0.5047	0.8017	0.6378	-0.133
Mof_C 	C 	0.5181	0.7175	0.7028	0.062
Mof_C 	C 	0.6339	0.6868	0.7212	-0.14
Mof_C 	C 	0.7374	0.7414	0.6736	0.105
Mof_O 	O 	0.4378	0.3369	0.9371	-0.533
Mof_O 	O 	0.3294	0.475	0.9897	-0.532
Mof_O 	O 	0.8635	0.4094	0.9365	-0.398
Mof_O 	O 	0.7879	0.2883	0.8295	-0.445
Mof_O 	O 	0.0482	0.059	0.6624	-0.409
Mof_O 	O 	0.2435	0.0534	0.699	-0.407
Mof_O 	O 	0.0622	0.1631	0.4371	-0.526
Mof_O 	O 	0.1706	0.025	0.4897	-0.525
Mof_O 	O 	0.6365	0.0906	0.4365	-0.398
Mof_O 	O 	0.7121	0.2117	0.3295	-0.443
Mof_O 	O 	0.4518	0.441	0.1624	-0.414
Mof_O 	O 	0.2565	0.4466	0.199	-0.411
Mof_O 	O 	0.5622	0.6631	0.0629	-0.533
Mof_O 	O 	0.6706	0.525	0.0103	-0.532
Mof_O 	O 	0.1365	0.5906	0.0635	-0.398
Mof_O 	O 	0.2121	0.7117	0.1705	-0.445
Mof_O 	O 	0.9518	0.941	0.3376	-0.409
Mof_O 	O 	0.7565	0.9466	0.301	-0.407
Mof_O 	O 	0.9378	0.8369	0.5629	-0.526
Mof_O 	O 	0.8294	0.975	0.5103	-0.525
Mof_O 	O 	0.3635	0.9094	0.5635	-0.398
Mof_O 	O 	0.2879	0.7883	0.6705	-0.443
Mof_O 	O 	0.5482	0.559	0.8376	-0.414
Mof_O 	O 	0.7435	0.5534	0.801	-0.411
_end
