data_functionalizedCrystal
_audit_creation_method	'EQeq! by Chris Wilmer'
_symmetry_space_group_name_H-M	'P1'
_symmetry_Int_Tables_number	1
_symmetry_cell_setting	triclinic
loop_
_symmetry_equiv_pos_as_xyz
  x,y,z
_cell_length_a	10.5226
_cell_length_b	11.2071
_cell_length_c	12.8682
_cell_angle_alpha	100.129
_cell_angle_beta	110.717
_cell_angle_gamma	100.768
loop_
_atom_site_label
_atom_site_type_symbol
_atom_site_fract_x
_atom_site_fract_y
_atom_site_fract_z
_atom_site_charge
Mof_Gd	Gd	0.39209	0.45251	0.32524	1.767
Mof_O 	O 	0.3157	0.2674	0.1608	-0.433
Mof_O 	O 	0.1632	0.29	0.236	-0.415
Mof_C 	C 	0.1977	0.2286	0.1655	0.564
Mof_C 	C 	0.0954	0.1112	0.0794	-0.658
Mof_C 	C 	0.1378	0.0336	0.01	0.564
Mof_H 	H 	0.2328	0.0547	0.0171	-1.257
Mof_N 	N 	0.279	0.0588	0.0157	1.329
Mof_H 	H 	0.3436	0.1265	0.0652	-0.222
Mof_H 	H 	0.3011	0.0066	0.9696	-0.261
Mof_C 	C 	0.9593	0.0768	0.0714	0.947
Mof_H 	H 	0.0697	0.8721	0.879	-1.681
Mof_N 	N 	0.9061	0.1542	0.1415	1.75
Mof_H 	H 	0.962	0.2257	0.1911	-0.347
Mof_H 	H 	0.8182	0.1292	0.134	-0.41
Mof_O 	O 	0.4983	0.673	0.405	-0.506
Mof_O 	O 	0.5701	0.7208	0.5959	-0.461
Mof_C 	C 	0.5298	0.7472	0.5017	0.597
Mof_C 	C 	0.517	0.8795	0.5019	-0.483
Mof_C 	C 	0.5139	0.9587	0.5995	1.864
Mof_H 	H 	0.477	0.0696	0.3334	-2.637
Mof_N 	N 	0.5226	0.9199	0.7028	2.172
Mof_H 	H 	0.53	0.8421	0.7072	-0.075
Mof_H 	H 	0.5203	0.9735	0.7626	1.409
Mof_H 	H 	0.4465	0.1476	0.293	-0.238
Mof_C 	C 	0.507	0.035	0.204	-2.979
Mof_O 	O 	0.498	0.924	0.169	0.551
Mof_O 	O 	0.541	0.121	0.167	0.788
Mof_C 	C 	0.5027	0.9221	0.4045	-0.766
Mof_H 	H 	0.5043	0.8685	0.3392	0.284
Mof_O 	O 	0.6195	0.4414	0.3282	-0.45
Mof_O 	O 	0.6572	0.5068	0.511	-0.522
Mof_C 	C 	0.7018	0.4778	0.4335	0.449
Mof_C 	C 	0.8556	0.4879	0.4665	-0.198
Mof_C 	C 	0.9058	0.4424	0.3856	0.394
Mof_H 	H 	0.1569	0.5958	0.6925	-0.554
Mof_N 	N 	0.8223	0.382	0.2759	0.459
Mof_H 	H 	0.7303	0.3693	0.2517	-0.022
Mof_H 	H 	0.8593	0.355	0.2278	-0.059
Mof_C 	C 	0.9495	0.5459	0.5788	-0.156
Mof_H 	H 	0.9149	0.5789	0.6334	0.112
Mof_O 	O 	0.1991	0.5395	0.2376	-0.21
Mof_C 	C 	0.1903	0.6501	0.2565	0.229
Mof_H 	H 	0.256	0.7061	0.328	-0.04
Mof_N 	N 	0.0992	0.6972	0.1876	0.058
Mof_C 	C 	0.994	0.617	0.0749	0.442
Mof_C 	C 	0.0914	0.827	0.2102	-0.067
Mof_O 	O 	0.204	0.5586	0.2701	-0.181
Mof_C 	C 	0.201	0.6311	0.2115	0.045
Mof_H 	H 	0.2888	0.6771	0.2157	-0.033
Mof_N 	N 	0.0848	0.6527	0.1411	-0.367
Mof_H 	H 	0.0953	0.7081	0.102	0.068
Mof_C 	C 	0.942	0.591	0.124	-0.432
Mof_H 	H 	0.9318	0.6088	0.1987	0.171
Mof_H 	H 	0.9231	0.4988	0.0961	0.115
Mof_C 	C 	0.835	0.639	0.037	-0.264
Mof_H 	H 	0.7397	0.6023	0.0304	0.093
Mof_H 	H 	0.8394	0.6145	0.9612	0.058
Mof_H 	H 	0.8581	0.7311	0.0622	0.105
Mof_Gd	Gd	0.60791	0.54749	0.67476	1.767
Mof_O 	O 	0.6843	0.7326	0.8392	-0.433
Mof_O 	O 	0.8368	0.71	0.764	-0.415
Mof_C 	C 	0.8023	0.7714	0.8345	0.564
Mof_C 	C 	0.9046	0.8888	0.9206	-0.658
Mof_C 	C 	0.8622	0.9664	0.99	0.564
Mof_H 	H 	0.7672	0.9453	0.9829	-1.257
Mof_N 	N 	0.721	0.9412	0.9843	1.329
Mof_H 	H 	0.6564	0.8735	0.9348	-0.222
Mof_H 	H 	0.6989	0.9934	0.0304	-0.261
Mof_C 	C 	0.0407	0.9232	0.9286	0.947
Mof_H 	H 	0.9303	0.1279	0.121	-1.681
Mof_N 	N 	0.0939	0.8458	0.8585	1.75
Mof_H 	H 	0.038	0.7743	0.8089	-0.347
Mof_H 	H 	0.1818	0.8708	0.866	-0.41
Mof_O 	O 	0.5017	0.327	0.595	-0.506
Mof_O 	O 	0.4299	0.2792	0.4041	-0.461
Mof_C 	C 	0.4702	0.2528	0.4983	0.597
Mof_C 	C 	0.483	0.1205	0.4981	-0.483
Mof_C 	C 	0.4861	0.0413	0.4005	1.864
Mof_H 	H 	0.523	0.9304	0.6666	-2.637
Mof_N 	N 	0.4774	0.0801	0.2972	2.172
Mof_H 	H 	0.47	0.1579	0.2928	-0.075
Mof_H 	H 	0.4797	0.0265	0.2374	1.409
Mof_H 	H 	0.5535	0.8524	0.707	-0.238
Mof_C 	C 	0.493	0.965	0.796	-2.979
Mof_O 	O 	0.502	0.076	0.831	0.551
Mof_O 	O 	0.459	0.879	0.833	0.788
Mof_C 	C 	0.4973	0.0779	0.5955	-0.766
Mof_H 	H 	0.4957	0.1315	0.6608	0.284
Mof_O 	O 	0.3805	0.5586	0.6718	-0.45
Mof_O 	O 	0.3428	0.4932	0.489	-0.522
Mof_C 	C 	0.2982	0.5222	0.5665	0.449
Mof_C 	C 	0.1444	0.5121	0.5335	-0.198
Mof_C 	C 	0.0942	0.5576	0.6144	0.394
Mof_H 	H 	0.8431	0.4042	0.3075	-0.554
Mof_N 	N 	0.1777	0.618	0.7241	0.459
Mof_H 	H 	0.2697	0.6307	0.7483	-0.022
Mof_H 	H 	0.1407	0.645	0.7722	-0.059
Mof_C 	C 	0.0505	0.4541	0.4212	-0.156
Mof_H 	H 	0.0851	0.4211	0.3666	0.112
Mof_O 	O 	0.8009	0.4605	0.7624	-0.21
Mof_C 	C 	0.8097	0.3499	0.7435	0.229
Mof_H 	H 	0.744	0.2939	0.672	-0.04
Mof_N 	N 	0.9008	0.3028	0.8124	0.058
Mof_C 	C 	0.006	0.383	0.9251	0.442
Mof_C 	C 	0.9086	0.173	0.7898	-0.067
Mof_O 	O 	0.796	0.4414	0.7299	-0.181
Mof_C 	C 	0.799	0.3689	0.7885	0.045
Mof_H 	H 	0.7112	0.3229	0.7843	-0.033
Mof_N 	N 	0.9152	0.3473	0.8589	-0.367
Mof_H 	H 	0.9047	0.2919	0.898	0.068
Mof_C 	C 	0.058	0.409	0.876	-0.432
Mof_H 	H 	0.0682	0.3912	0.8013	0.171
Mof_H 	H 	0.0769	0.5012	0.9039	0.115
Mof_C 	C 	0.165	0.361	0.963	-0.264
Mof_H 	H 	0.2603	0.3977	0.9696	0.093
Mof_H 	H 	0.1606	0.3855	0.0388	0.058
Mof_H 	H 	0.1419	0.2689	0.9378	0.105
_end
