data_functionalizedCrystal
_audit_creation_method	'EQeq! by Chris Wilmer'
_symmetry_space_group_name_H-M	'P1'
_symmetry_Int_Tables_number	1
_symmetry_cell_setting	triclinic
loop_
_symmetry_equiv_pos_as_xyz
  x,y,z
_cell_length_a	14.05
_cell_length_b	20.156
_cell_length_c	20.378
_cell_angle_alpha	90
_cell_angle_beta	101.717
_cell_angle_gamma	90
loop_
_atom_site_label
_atom_site_type_symbol
_atom_site_fract_x
_atom_site_fract_y
_atom_site_fract_z
_atom_site_charge
Mof_Cd	Cd	0.10294	0.04019	0.03415	0.521
Mof_Cd	Cd	0.10294	0.45981	0.53415	0.522
Mof_Cd	Cd	0.89706	0.54019	0.46585	0.522
Mof_Cd	Cd	0.89706	0.95981	0.96585	0.521
Mof_H 	H 	0.0506	0.2085	0.8787	0.047
Mof_H 	H 	0.7553	0.4318	0.5786	0.077
Mof_H 	H 	0.5432	0.9958	0.9519	0.005
Mof_H 	H 	0.8031	0.3907	0.3102	0.044
Mof_H 	H 	0.0006	0.2911	0.7993	0.075
Mof_H 	H 	0.4506	0.7975	0.8559	0.086
Mof_H 	H 	0.4568	0.4958	0.5481	0.005
Mof_H 	H 	0.9994	0.7089	0.2007	0.075
Mof_H 	H 	0.4568	0.0042	0.0481	0.005
Mof_H 	H 	0.7553	0.0682	0.0786	0.076
Mof_H 	H 	0.4506	0.7025	0.3559	0.086
Mof_H 	H 	0.0506	0.2915	0.3787	0.045
Mof_H 	H 	0.3856	0.1764	0.1144	0.025
Mof_H 	H 	0.5494	0.2025	0.1441	0.086
Mof_H 	H 	0.2473	0.6905	0.7653	0.071
Mof_H 	H 	0.0299	0.8246	0.8127	0.071
Mof_H 	H 	0.9494	0.7085	0.6213	0.045
Mof_H 	H 	0.8031	0.1093	0.8102	0.044
Mof_H 	H 	0.5432	0.5042	0.4519	0.005
Mof_H 	H 	0.3848	0.5292	0.4181	0.105
Mof_H 	H 	0.6144	0.8236	0.8856	0.025
Mof_H 	H 	0.6956	0.2022	0.2084	0.059
Mof_H 	H 	0.9701	0.3246	0.6873	0.071
Mof_H 	H 	0.6144	0.6764	0.3856	0.025
Mof_H 	H 	0.5494	0.2975	0.6441	0.086
Mof_H 	H 	0.2447	0.5682	0.4214	0.076
Mof_H 	H 	0.9701	0.1754	0.1873	0.071
Mof_H 	H 	0.6152	0.4708	0.5819	0.105
Mof_H 	H 	0.1969	0.6093	0.6898	0.044
Mof_H 	H 	0.9494	0.7915	0.1213	0.046
Mof_H 	H 	0.2447	0.9318	0.9214	0.076
Mof_H 	H 	0.0006	0.2089	0.2993	0.075
Mof_H 	H 	0.7527	0.1905	0.7347	0.071
Mof_H 	H 	0.7527	0.3095	0.2347	0.071
Mof_H 	H 	0.1969	0.8907	0.1898	0.044
Mof_H 	H 	0.6152	0.0292	0.0819	0.105
Mof_H 	H 	0.6956	0.2978	0.7084	0.059
Mof_H 	H 	0.3044	0.7022	0.2916	0.059
Mof_H 	H 	0.0299	0.6754	0.3127	0.071
Mof_H 	H 	0.3856	0.3236	0.6144	0.025
Mof_H 	H 	0.2473	0.8095	0.2653	0.071
Mof_H 	H 	0.3848	0.9708	0.9181	0.105
Mof_H 	H 	0.9994	0.7911	0.7007	0.075
Mof_H 	H 	0.3044	0.7978	0.7916	0.059
Mof_C 	C 	0.4323	0.145	0.1097	0.08
Mof_C 	C 	0.4688	0.6603	0.3722	-0.147
Mof_C 	C 	0.8375	0.1988	0.2061	0.019
Mof_C 	C 	0.7018	0.9349	0.9359	0.404
Mof_C 	C 	0.0393	0.7547	0.6985	-0.098
Mof_C 	C 	0.5699	0.4404	0.5912	-0.179
Mof_C 	C 	0.8133	0.3058	0.2631	-0.1
Mof_C 	C 	0.2246	0.8986	0.8899	-0.049
Mof_C 	C 	0.8709	0.2499	0.7573	0.05
Mof_C 	C 	0.5269	0.9564	0.9285	0.122
Mof_C 	C 	0.0091	0.7951	0.1508	0.025
Mof_C 	C 	0.0957	0.6654	0.3248	-0.055
Mof_C 	C 	0.5312	0.3397	0.6278	-0.147
Mof_C 	C 	0.5961	0.9193	0.9161	-0.167
Mof_C 	C 	0.2598	0.6811	0.3125	-0.073
Mof_C 	C 	0.6033	0.3852	0.6223	0.105
Mof_C 	C 	0.0957	0.8346	0.8248	-0.055
Mof_C 	C 	0.9332	0.1512	0.8524	-0.079
Mof_C 	C 	0.9909	0.2049	0.8492	0.025
Mof_C 	C 	0.5961	0.5807	0.4161	-0.167
Mof_C 	C 	0.0668	0.6512	0.6476	-0.081
Mof_C 	C 	0.2982	0.0651	0.0641	0.404
Mof_C 	C 	0.9431	0.4162	0.5904	0.298
Mof_C 	C 	0.3967	0.6148	0.3777	0.105
Mof_C 	C 	0.1291	0.7499	0.7427	0.05
Mof_C 	C 	0.1867	0.8058	0.2369	-0.1
Mof_C 	C 	0.9043	0.1654	0.1752	-0.055
Mof_C 	C 	0.4731	0.0436	0.0715	0.122
Mof_C 	C 	0.5699	0.0596	0.0912	-0.179
Mof_C 	C 	0.1867	0.6942	0.7369	-0.1
Mof_C 	C 	0.1273	0.6176	0.3734	-0.025
Mof_C 	C 	0.2936	0.6333	0.3609	0.001
Mof_C 	C 	0.7064	0.3667	0.6391	0.001
Mof_C 	C 	0.6033	0.1148	0.1223	0.105
Mof_C 	C 	0.5677	0.855	0.8903	0.08
Mof_C 	C 	0.4039	0.4193	0.5839	-0.167
Mof_C 	C 	0.2982	0.4349	0.5641	0.404
Mof_C 	C 	0.5312	0.1603	0.1278	-0.147
Mof_C 	C 	0.9633	0.4036	0.405	0.332
Mof_C 	C 	0.9633	0.0964	0.905	0.33
Mof_C 	C 	0.3967	0.8852	0.8777	0.105
Mof_C 	C 	0.0569	0.5838	0.4096	0.298
Mof_C 	C 	0.4301	0.9404	0.9088	-0.179
Mof_C 	C 	0.0367	0.9036	0.095	0.33
Mof_C 	C 	0.9909	0.2951	0.3492	0.027
Mof_C 	C 	0.1625	0.6988	0.2939	0.019
Mof_C 	C 	0.0668	0.8488	0.1476	-0.079
Mof_C 	C 	0.4731	0.4564	0.5715	0.121
Mof_C 	C 	0.8709	0.2501	0.2573	0.05
Mof_C 	C 	0.5677	0.645	0.3903	0.08
Mof_C 	C 	0.8426	0.354	0.3082	0.028
Mof_C 	C 	0.5269	0.5436	0.4285	0.121
Mof_C 	C 	0.8727	0.3824	0.6266	-0.025
Mof_C 	C 	0.2598	0.8189	0.8125	-0.073
Mof_C 	C 	0.1574	0.854	0.1918	0.027
Mof_C 	C 	0.4039	0.0807	0.0839	-0.167
Mof_C 	C 	0.8133	0.1942	0.7631	-0.1
Mof_C 	C 	0.1574	0.646	0.6918	0.028
Mof_C 	C 	0.8727	0.1176	0.1266	-0.026
Mof_C 	C 	0.0569	0.9162	0.9096	0.298
Mof_C 	C 	0.4323	0.355	0.6097	0.08
Mof_C 	C 	0.2246	0.6014	0.3899	-0.049
Mof_C 	C 	0.4301	0.5596	0.4088	-0.179
Mof_C 	C 	0.7402	0.3189	0.6875	-0.073
Mof_C 	C 	0.7018	0.5651	0.4359	0.404
Mof_C 	C 	0.0367	0.5964	0.595	0.332
Mof_C 	C 	0.4688	0.8397	0.8722	-0.147
Mof_C 	C 	0.0393	0.7453	0.1985	-0.099
Mof_C 	C 	0.1291	0.7501	0.2427	0.05
Mof_C 	C 	0.9607	0.2547	0.8015	-0.099
Mof_C 	C 	0.7754	0.3986	0.6101	-0.049
Mof_C 	C 	0.8375	0.3012	0.7061	0.019
Mof_C 	C 	0.0091	0.7049	0.6508	0.027
Mof_C 	C 	0.1273	0.8824	0.8734	-0.026
Mof_C 	C 	0.9431	0.0838	0.0904	0.298
Mof_C 	C 	0.7402	0.1811	0.1875	-0.073
Mof_C 	C 	0.7754	0.1014	0.1101	-0.049
Mof_C 	C 	0.2936	0.8667	0.8609	0.001
Mof_C 	C 	0.1625	0.8012	0.7939	0.019
Mof_C 	C 	0.9043	0.3346	0.6752	-0.055
Mof_C 	C 	0.9607	0.2453	0.3015	-0.098
Mof_C 	C 	0.8426	0.146	0.8082	0.027
Mof_C 	C 	0.9332	0.3488	0.3524	-0.081
Mof_C 	C 	0.7064	0.1333	0.1391	0.001
Mof_O 	O 	0.728	0.5195	0.4692	-0.307
Mof_O 	O 	0.0934	0.5497	0.5975	-0.283
Mof_O 	O 	0.728	0.9805	0.9692	-0.307
Mof_O 	O 	0.0427	0.3945	0.446	-0.272
Mof_O 	O 	0.97	0.8971	0.8974	-0.256
Mof_O 	O 	0.2384	0.1029	0.0797	-0.287
Mof_O 	O 	0.911	0.0396	0.049	-0.27
Mof_O 	O 	0.7616	0.6029	0.4203	-0.287
Mof_O 	O 	0.03	0.3971	0.6026	-0.255
Mof_O 	O 	0.2384	0.3971	0.5797	-0.287
Mof_O 	O 	0.9066	0.4503	0.4025	-0.283
Mof_O 	O 	0.272	0.0195	0.0308	-0.307
Mof_O 	O 	0.03	0.1029	0.1026	-0.256
Mof_O 	O 	0.089	0.5396	0.451	-0.27
Mof_O 	O 	0.0934	0.9503	0.0975	-0.282
Mof_O 	O 	0.272	0.4805	0.5308	-0.307
Mof_O 	O 	0.089	0.9604	0.951	-0.27
Mof_O 	O 	0.7616	0.8971	0.9203	-0.287
Mof_O 	O 	0.9066	0.0497	0.9025	-0.282
Mof_O 	O 	0.97	0.6029	0.3974	-0.255
Mof_O 	O 	0.0427	0.1055	0.946	-0.271
Mof_O 	O 	0.9573	0.6055	0.554	-0.272
Mof_O 	O 	0.9573	0.8945	0.054	-0.271
Mof_O 	O 	0.911	0.4604	0.549	-0.27
_end
