data_functionalizedCrystal
_audit_creation_method	'EQeq! by Chris Wilmer'
_symmetry_space_group_name_H-M	'P1'
_symmetry_Int_Tables_number	1
_symmetry_cell_setting	triclinic
loop_
_symmetry_equiv_pos_as_xyz
  x,y,z
_cell_length_a	8.8244
_cell_length_b	20.6223
_cell_length_c	34.123
_cell_angle_alpha	90
_cell_angle_beta	90
_cell_angle_gamma	90
loop_
_atom_site_label
_atom_site_type_symbol
_atom_site_fract_x
_atom_site_fract_y
_atom_site_fract_z
_atom_site_charge
Mof_O 	O 	0.242	0.3326	0.6792	-0.559
Mof_C 	C 	0.1034	0.32	0.6821	0.563
Mof_O 	O 	0.0081	0.3355	0.657	-0.609
Mof_C 	C 	0.0495	0.2844	0.7178	-0.159
Mof_C 	C 	0.1498	0.2648	0.7458	0.01
Mof_C 	C 	0.1011	0.2301	0.7779	0.01
Mof_O 	O 	0.2449	0.4575	0.6343	-0.589
Mof_C 	C 	0.2593	0.59149	0.6249	0.013
Mof_H 	H 	0.2535	0.2756	0.7432	0.041
Mof_H 	H 	0.1722	0.2158	0.7968	0.029
Mof_H 	H 	0.3522	0.5687	0.6262	0.035
Mof_O 	O 	0.242	0.8326	0.1792	-0.559
Mof_C 	C 	0.1034	0.82	0.1821	0.558
Mof_O 	O 	0.0081	0.8355	0.157	-0.607
Mof_C 	C 	0.0495	0.7844	0.2178	-0.149
Mof_C 	C 	0.1498	0.7648	0.2458	-0.001
Mof_C 	C 	0.1011	0.7301	0.2779	0.021
Mof_O 	O 	0.2449	0.9575	0.1343	-0.59
Mof_C 	C 	0.2593	0.09149	0.1249	0.014
Mof_H 	H 	0.2535	0.7756	0.2432	0.044
Mof_H 	H 	0.1722	0.7158	0.2968	0.026
Mof_H 	H 	0.3522	0.0687	0.1262	0.034
Mof_O 	O 	0.742	0.3326	0.1792	-0.56
Mof_C 	C 	0.6034	0.32	0.1821	0.561
Mof_O 	O 	0.5081	0.3355	0.157	-0.61
Mof_C 	C 	0.5495	0.2844	0.2178	-0.155
Mof_C 	C 	0.6498	0.2648	0.2458	0.004
Mof_C 	C 	0.6011	0.2301	0.2779	0.016
Mof_O 	O 	0.7449	0.4575	0.1343	-0.59
Mof_C 	C 	0.7593	0.59149	0.1249	0.011
Mof_H 	H 	0.7535	0.2756	0.2432	0.043
Mof_H 	H 	0.6722	0.2158	0.2968	0.027
Mof_H 	H 	0.8522	0.5687	0.1262	0.035
Mof_O 	O 	0.742	0.8326	0.6792	-0.56
Mof_C 	C 	0.6034	0.82	0.6821	0.561
Mof_O 	O 	0.5081	0.8355	0.657	-0.61
Mof_C 	C 	0.5495	0.7844	0.7178	-0.155
Mof_C 	C 	0.6498	0.7648	0.7458	0.004
Mof_C 	C 	0.6011	0.7301	0.7779	0.016
Mof_O 	O 	0.7449	0.9575	0.6343	-0.59
Mof_C 	C 	0.7593	0.09149	0.6249	0.011
Mof_H 	H 	0.7535	0.7756	0.7432	0.042
Mof_H 	H 	0.6722	0.7158	0.7968	0.027
Mof_H 	H 	0.8522	0.0687	0.6262	0.036
Mof_O 	O 	0.508	0.4174	0.6792	-0.56
Mof_C 	C 	0.6466	0.43	0.6821	0.561
Mof_O 	O 	0.7419	0.4145	0.657	-0.61
Mof_C 	C 	0.7005	0.4656	0.7178	-0.155
Mof_C 	C 	0.6002	0.4852	0.7458	0.004
Mof_C 	C 	0.6489	0.5199	0.7779	0.016
Mof_O 	O 	0.5051	0.2925	0.6343	-0.59
Mof_C 	C 	0.4907	0.15851	0.6249	0.012
Mof_H 	H 	0.4965	0.4744	0.7432	0.043
Mof_H 	H 	0.5778	0.5342	0.7968	0.027
Mof_H 	H 	0.3978	0.1813	0.6262	0.035
Mof_O 	O 	0.508	0.9174	0.1792	-0.559
Mof_C 	C 	0.6466	0.93	0.1821	0.558
Mof_O 	O 	0.7419	0.9145	0.157	-0.609
Mof_C 	C 	0.7005	0.9656	0.2178	-0.149
Mof_C 	C 	0.6002	0.9852	0.2458	-0.003
Mof_C 	C 	0.6489	0.0199	0.2779	0.023
Mof_O 	O 	0.5051	0.7925	0.1343	-0.59
Mof_C 	C 	0.4907	0.65851	0.1249	0.011
Mof_H 	H 	0.4965	0.9744	0.2432	0.045
Mof_H 	H 	0.5778	0.0342	0.2968	0.025
Mof_H 	H 	0.3978	0.6813	0.1262	0.035
Mof_O 	O 	0.008	0.4174	0.1792	-0.559
Mof_C 	C 	0.1466	0.43	0.1821	0.561
Mof_O 	O 	0.2419	0.4145	0.157	-0.61
Mof_C 	C 	0.2005	0.4656	0.2178	-0.156
Mof_C 	C 	0.1002	0.4852	0.2458	0.005
Mof_C 	C 	0.1489	0.5199	0.2779	0.015
Mof_O 	O 	0.0051	0.2925	0.1343	-0.59
Mof_C 	C 	0.9907	0.15851	0.1249	0.009
Mof_H 	H 	0.9965	0.4744	0.2432	0.042
Mof_H 	H 	0.0778	0.5342	0.2968	0.027
Mof_H 	H 	0.8978	0.1813	0.1262	0.036
Mof_O 	O 	0.008	0.9174	0.6792	-0.558
Mof_C 	C 	0.1466	0.93	0.6821	0.563
Mof_O 	O 	0.2419	0.9145	0.657	-0.61
Mof_C 	C 	0.2005	0.9656	0.7178	-0.162
Mof_C 	C 	0.1002	0.9852	0.7458	0.018
Mof_C 	C 	0.1489	0.0199	0.7779	0.005
Mof_O 	O 	0.0051	0.7925	0.6343	-0.588
Mof_C 	C 	0.9907	0.65851	0.6249	0.008
Mof_H 	H 	0.9965	0.9744	0.7432	0.037
Mof_H 	H 	0.0778	0.0342	0.7968	0.03
Mof_H 	H 	0.8978	0.6813	0.6262	0.036
Mof_O 	O 	0.508	0.3326	0.0708	-0.56
Mof_C 	C 	0.6466	0.32	0.0679	0.56
Mof_O 	O 	0.7419	0.3355	0.093	-0.609
Mof_C 	C 	0.7005	0.2844	0.0322	-0.152
Mof_C 	C 	0.6002	0.2648	0.0042	0.001
Mof_C 	C 	0.6489	0.2301	0.9721	0.019
Mof_O 	O 	0.5051	0.4575	0.1157	-0.59
Mof_C 	C 	0.4907	0.59149	0.1251	0.011
Mof_H 	H 	0.4965	0.2756	0.0068	0.044
Mof_H 	H 	0.5778	0.2158	0.9532	0.026
Mof_H 	H 	0.3978	0.5687	0.1238	0.035
Mof_O 	O 	0.508	0.8326	0.5708	-0.56
Mof_C 	C 	0.6466	0.82	0.5679	0.561
Mof_O 	O 	0.7419	0.8355	0.593	-0.61
Mof_C 	C 	0.7005	0.7844	0.5322	-0.156
Mof_C 	C 	0.6002	0.7648	0.5042	0.006
Mof_C 	C 	0.6489	0.7301	0.4721	0.014
Mof_O 	O 	0.5051	0.9575	0.6157	-0.59
Mof_C 	C 	0.4907	0.09149	0.6251	0.011
Mof_H 	H 	0.4965	0.7756	0.5068	0.042
Mof_H 	H 	0.5778	0.7158	0.4532	0.028
Mof_H 	H 	0.3978	0.0687	0.6238	0.035
Mof_O 	O 	0.008	0.3326	0.5708	-0.56
Mof_C 	C 	0.1466	0.32	0.5679	0.56
Mof_O 	O 	0.2419	0.3355	0.593	-0.61
Mof_C 	C 	0.2005	0.2844	0.5322	-0.154
Mof_C 	C 	0.1002	0.2648	0.5042	0.001
Mof_C 	C 	0.1489	0.2301	0.4721	0.018
Mof_O 	O 	0.0051	0.4575	0.6157	-0.59
Mof_C 	C 	0.9907	0.59149	0.6251	0.011
Mof_H 	H 	0.9965	0.2756	0.5068	0.044
Mof_H 	H 	0.0778	0.2158	0.4532	0.026
Mof_H 	H 	0.8978	0.5687	0.6238	0.035
Mof_O 	O 	0.008	0.8326	0.0708	-0.558
Mof_C 	C 	0.1466	0.82	0.0679	0.562
Mof_O 	O 	0.2419	0.8355	0.093	-0.61
Mof_C 	C 	0.2005	0.7844	0.0322	-0.159
Mof_C 	C 	0.1002	0.7648	0.0042	0.012
Mof_C 	C 	0.1489	0.7301	0.9721	0.01
Mof_O 	O 	0.0051	0.9575	0.1157	-0.588
Mof_C 	C 	0.9907	0.09149	0.1251	0.014
Mof_H 	H 	0.9965	0.7756	0.0068	0.038
Mof_H 	H 	0.0778	0.7158	0.9532	0.029
Mof_H 	H 	0.8978	0.0687	0.1238	0.034
Mof_O 	O 	0.242	0.4174	0.0708	-0.56
Mof_C 	C 	0.1034	0.43	0.0679	0.56
Mof_O 	O 	0.0081	0.4145	0.093	-0.609
Mof_C 	C 	0.0495	0.4656	0.0322	-0.154
Mof_C 	C 	0.1498	0.4852	0.0042	0.005
Mof_C 	C 	0.1011	0.5199	0.9721	0.014
Mof_O 	O 	0.2449	0.2925	0.1157	-0.59
Mof_C 	C 	0.2593	0.15851	0.1251	0.009
Mof_H 	H 	0.2535	0.4744	0.0068	0.042
Mof_H 	H 	0.1722	0.5342	0.9532	0.028
Mof_H 	H 	0.3522	0.1813	0.1238	0.036
Mof_O 	O 	0.242	0.9174	0.5708	-0.559
Mof_C 	C 	0.1034	0.93	0.5679	0.56
Mof_O 	O 	0.0081	0.9145	0.593	-0.607
Mof_C 	C 	0.0495	0.9656	0.5322	-0.152
Mof_C 	C 	0.1498	0.9852	0.5042	0.008
Mof_C 	C 	0.1011	0.0199	0.4721	0.009
Mof_O 	O 	0.2449	0.7925	0.6157	-0.59
Mof_C 	C 	0.2593	0.65851	0.6251	0.01
Mof_H 	H 	0.2535	0.9744	0.5068	0.042
Mof_H 	H 	0.1722	0.0342	0.4532	0.029
Mof_H 	H 	0.3522	0.6813	0.6238	0.036
Mof_O 	O 	0.742	0.4174	0.5708	-0.56
Mof_C 	C 	0.6034	0.43	0.5679	0.561
Mof_O 	O 	0.5081	0.4145	0.593	-0.61
Mof_C 	C 	0.5495	0.4656	0.5322	-0.155
Mof_C 	C 	0.6498	0.4852	0.5042	0.004
Mof_C 	C 	0.6011	0.5199	0.4721	0.016
Mof_O 	O 	0.7449	0.2925	0.6157	-0.59
Mof_C 	C 	0.7593	0.15851	0.6251	0.012
Mof_H 	H 	0.7535	0.4744	0.5068	0.043
Mof_H 	H 	0.6722	0.5342	0.4532	0.027
Mof_H 	H 	0.8522	0.1813	0.6238	0.035
Mof_O 	O 	0.742	0.9174	0.0708	-0.56
Mof_C 	C 	0.6034	0.93	0.0679	0.561
Mof_O 	O 	0.5081	0.9145	0.093	-0.61
Mof_C 	C 	0.5495	0.9656	0.0322	-0.155
Mof_C 	C 	0.6498	0.9852	0.0042	0.003
Mof_C 	C 	0.6011	0.0199	0.9721	0.017
Mof_O 	O 	0.7449	0.7925	0.1157	-0.59
Mof_C 	C 	0.7593	0.65851	0.1251	0.011
Mof_H 	H 	0.7535	0.9744	0.0068	0.042
Mof_H 	H 	0.6722	0.0342	0.9532	0.027
Mof_H 	H 	0.8522	0.6813	0.1238	0.035
Mof_O 	O 	0.758	0.6674	0.3208	-0.56
Mof_C 	C 	0.8966	0.68	0.3179	0.562
Mof_O 	O 	0.9919	0.6645	0.343	-0.61
Mof_C 	C 	0.9505	0.7156	0.2822	-0.16
Mof_C 	C 	0.8502	0.7352	0.2542	0.009
Mof_C 	C 	0.8989	0.7699	0.2221	0.009
Mof_O 	O 	0.7551	0.5425	0.3657	-0.59
Mof_C 	C 	0.7407	0.40851	0.3751	0.012
Mof_H 	H 	0.7465	0.7244	0.2568	0.041
Mof_H 	H 	0.8278	0.7842	0.2032	0.029
Mof_H 	H 	0.6478	0.4313	0.3738	0.035
Mof_O 	O 	0.758	0.1674	0.8208	-0.559
Mof_C 	C 	0.8966	0.18	0.8179	0.558
Mof_O 	O 	0.9919	0.1645	0.843	-0.607
Mof_C 	C 	0.9505	0.2156	0.7822	-0.149
Mof_C 	C 	0.8502	0.2352	0.7542	-0.001
Mof_C 	C 	0.8989	0.2699	0.7221	0.021
Mof_O 	O 	0.7551	0.0425	0.8657	-0.59
Mof_C 	C 	0.7407	0.90851	0.8751	0.014
Mof_H 	H 	0.7465	0.2244	0.7568	0.044
Mof_H 	H 	0.8278	0.2842	0.7032	0.026
Mof_H 	H 	0.6478	0.9313	0.8738	0.034
Mof_O 	O 	0.258	0.6674	0.8208	-0.56
Mof_C 	C 	0.3966	0.68	0.8179	0.561
Mof_O 	O 	0.4919	0.6645	0.843	-0.61
Mof_C 	C 	0.4505	0.7156	0.7822	-0.155
Mof_C 	C 	0.3502	0.7352	0.7542	0.004
Mof_C 	C 	0.3989	0.7699	0.7221	0.016
Mof_O 	O 	0.2551	0.5425	0.8657	-0.59
Mof_C 	C 	0.2407	0.40851	0.8751	0.011
Mof_H 	H 	0.2465	0.7244	0.7568	0.043
Mof_H 	H 	0.3278	0.7842	0.7032	0.027
Mof_H 	H 	0.1478	0.4313	0.8738	0.035
Mof_O 	O 	0.258	0.1674	0.3208	-0.56
Mof_C 	C 	0.3966	0.18	0.3179	0.561
Mof_O 	O 	0.4919	0.1645	0.343	-0.61
Mof_C 	C 	0.4505	0.2156	0.2822	-0.155
Mof_C 	C 	0.3502	0.2352	0.2542	0.004
Mof_C 	C 	0.3989	0.2699	0.2221	0.016
Mof_O 	O 	0.2551	0.0425	0.3657	-0.59
Mof_C 	C 	0.2407	0.90851	0.3751	0.011
Mof_H 	H 	0.2465	0.2244	0.2568	0.042
Mof_H 	H 	0.3278	0.2842	0.2032	0.027
Mof_H 	H 	0.1478	0.9313	0.3738	0.036
Mof_O 	O 	0.492	0.5826	0.3208	-0.56
Mof_C 	C 	0.3534	0.57	0.3179	0.561
Mof_O 	O 	0.2581	0.5855	0.343	-0.61
Mof_C 	C 	0.2995	0.5344	0.2822	-0.155
Mof_C 	C 	0.3998	0.5148	0.2542	0.004
Mof_C 	C 	0.3511	0.4801	0.2221	0.016
Mof_O 	O 	0.4949	0.7075	0.3657	-0.59
Mof_C 	C 	0.5093	0.84149	0.3751	0.012
Mof_H 	H 	0.5035	0.5256	0.2568	0.043
Mof_H 	H 	0.4222	0.4658	0.2032	0.027
Mof_H 	H 	0.6022	0.8187	0.3738	0.035
Mof_O 	O 	0.492	0.0826	0.8208	-0.559
Mof_C 	C 	0.3534	0.07	0.8179	0.558
Mof_O 	O 	0.2581	0.0855	0.843	-0.609
Mof_C 	C 	0.2995	0.0344	0.7822	-0.149
Mof_C 	C 	0.3998	0.0148	0.7542	-0.003
Mof_C 	C 	0.3511	0.9801	0.7221	0.023
Mof_O 	O 	0.4949	0.2075	0.8657	-0.59
Mof_C 	C 	0.5093	0.34149	0.8751	0.011
Mof_H 	H 	0.5035	0.0256	0.7568	0.045
Mof_H 	H 	0.4222	0.9658	0.7032	0.025
Mof_H 	H 	0.6022	0.3187	0.8738	0.035
Mof_O 	O 	0.992	0.5826	0.8208	-0.559
Mof_C 	C 	0.8534	0.57	0.8179	0.561
Mof_O 	O 	0.7581	0.5855	0.843	-0.61
Mof_C 	C 	0.7995	0.5344	0.7822	-0.156
Mof_C 	C 	0.8998	0.5148	0.7542	0.005
Mof_C 	C 	0.8511	0.4801	0.7221	0.015
Mof_O 	O 	0.9949	0.7075	0.8657	-0.59
Mof_C 	C 	0.0093	0.84149	0.8751	0.009
Mof_H 	H 	0.0035	0.5256	0.7568	0.042
Mof_H 	H 	0.9222	0.4658	0.7032	0.027
Mof_H 	H 	0.1022	0.8187	0.8738	0.036
Mof_O 	O 	0.992	0.0826	0.3208	-0.558
Mof_C 	C 	0.8534	0.07	0.3179	0.563
Mof_O 	O 	0.7581	0.0855	0.343	-0.61
Mof_C 	C 	0.7995	0.0344	0.2822	-0.162
Mof_C 	C 	0.8998	0.0148	0.2542	0.018
Mof_C 	C 	0.8511	0.9801	0.2221	0.005
Mof_O 	O 	0.9949	0.2075	0.3657	-0.588
Mof_C 	C 	0.0093	0.34149	0.3751	0.008
Mof_H 	H 	0.0035	0.0256	0.2568	0.037
Mof_H 	H 	0.9222	0.9658	0.2032	0.03
Mof_H 	H 	0.1022	0.3187	0.3738	0.036
Mof_O 	O 	0.492	0.6674	0.9292	-0.56
Mof_C 	C 	0.3534	0.68	0.9321	0.56
Mof_O 	O 	0.2581	0.6645	0.907	-0.609
Mof_C 	C 	0.2995	0.7156	0.9678	-0.152
Mof_C 	C 	0.3998	0.7352	0.9958	0.001
Mof_C 	C 	0.3511	0.7699	0.0279	0.019
Mof_O 	O 	0.4949	0.5425	0.8843	-0.59
Mof_C 	C 	0.5093	0.40851	0.8749	0.011
Mof_H 	H 	0.5035	0.7244	0.9932	0.044
Mof_H 	H 	0.4222	0.7842	0.0468	0.026
Mof_H 	H 	0.6022	0.4313	0.8762	0.035
Mof_O 	O 	0.492	0.1674	0.4292	-0.56
Mof_C 	C 	0.3534	0.18	0.4321	0.561
Mof_O 	O 	0.2581	0.1645	0.407	-0.61
Mof_C 	C 	0.2995	0.2156	0.4678	-0.156
Mof_C 	C 	0.3998	0.2352	0.4958	0.006
Mof_C 	C 	0.3511	0.2699	0.5279	0.014
Mof_O 	O 	0.4949	0.0425	0.3843	-0.59
Mof_C 	C 	0.5093	0.90851	0.3749	0.011
Mof_H 	H 	0.5035	0.2244	0.4932	0.042
Mof_H 	H 	0.4222	0.2842	0.5468	0.028
Mof_H 	H 	0.6022	0.9313	0.3762	0.035
Mof_O 	O 	0.992	0.6674	0.4292	-0.56
Mof_C 	C 	0.8534	0.68	0.4321	0.56
Mof_O 	O 	0.7581	0.6645	0.407	-0.61
Mof_C 	C 	0.7995	0.7156	0.4678	-0.154
Mof_C 	C 	0.8998	0.7352	0.4958	0.001
Mof_C 	C 	0.8511	0.7699	0.5279	0.018
Mof_O 	O 	0.9949	0.5425	0.3843	-0.59
Mof_C 	C 	0.0093	0.40851	0.3749	0.011
Mof_H 	H 	0.0035	0.7244	0.4932	0.044
Mof_H 	H 	0.9222	0.7842	0.5468	0.026
Mof_H 	H 	0.1022	0.4313	0.3762	0.035
Mof_O 	O 	0.992	0.1674	0.9292	-0.558
Mof_C 	C 	0.8534	0.18	0.9321	0.562
Mof_O 	O 	0.7581	0.1645	0.907	-0.61
Mof_C 	C 	0.7995	0.2156	0.9678	-0.159
Mof_C 	C 	0.8998	0.2352	0.9958	0.012
Mof_C 	C 	0.8511	0.2699	0.0279	0.01
Mof_O 	O 	0.9949	0.0425	0.8843	-0.588
Mof_C 	C 	0.0093	0.90851	0.8749	0.014
Mof_H 	H 	0.0035	0.2244	0.9932	0.038
Mof_H 	H 	0.9222	0.2842	0.0468	0.029
Mof_H 	H 	0.1022	0.9313	0.8762	0.034
Mof_O 	O 	0.758	0.5826	0.9292	-0.56
Mof_C 	C 	0.8966	0.57	0.9321	0.56
Mof_O 	O 	0.9919	0.5855	0.907	-0.609
Mof_C 	C 	0.9505	0.5344	0.9678	-0.154
Mof_C 	C 	0.8502	0.5148	0.9958	0.005
Mof_C 	C 	0.8989	0.4801	0.0279	0.014
Mof_O 	O 	0.7551	0.7075	0.8843	-0.59
Mof_C 	C 	0.7407	0.84149	0.8749	0.009
Mof_H 	H 	0.7465	0.5256	0.9932	0.042
Mof_H 	H 	0.8278	0.4658	0.0468	0.028
Mof_H 	H 	0.6478	0.8187	0.8762	0.036
Mof_O 	O 	0.758	0.0826	0.4292	-0.559
Mof_C 	C 	0.8966	0.07	0.4321	0.56
Mof_O 	O 	0.9919	0.0855	0.407	-0.607
Mof_C 	C 	0.9505	0.0344	0.4678	-0.152
Mof_C 	C 	0.8502	0.0148	0.4958	0.008
Mof_C 	C 	0.8989	0.9801	0.5279	0.009
Mof_O 	O 	0.7551	0.2075	0.3843	-0.59
Mof_C 	C 	0.7407	0.34149	0.3749	0.01
Mof_H 	H 	0.7465	0.0256	0.4932	0.042
Mof_H 	H 	0.8278	0.9658	0.5468	0.029
Mof_H 	H 	0.6478	0.3187	0.3762	0.036
Mof_O 	O 	0.258	0.5826	0.4292	-0.56
Mof_C 	C 	0.3966	0.57	0.4321	0.561
Mof_O 	O 	0.4919	0.5855	0.407	-0.61
Mof_C 	C 	0.4505	0.5344	0.4678	-0.155
Mof_C 	C 	0.3502	0.5148	0.4958	0.004
Mof_C 	C 	0.3989	0.4801	0.5279	0.016
Mof_O 	O 	0.2551	0.7075	0.3843	-0.59
Mof_C 	C 	0.2407	0.84149	0.3749	0.012
Mof_H 	H 	0.2465	0.5256	0.4932	0.043
Mof_H 	H 	0.3278	0.4658	0.5468	0.027
Mof_H 	H 	0.1478	0.8187	0.3762	0.035
Mof_O 	O 	0.258	0.0826	0.9292	-0.56
Mof_C 	C 	0.3966	0.07	0.9321	0.561
Mof_O 	O 	0.4919	0.0855	0.907	-0.61
Mof_C 	C 	0.4505	0.0344	0.9678	-0.155
Mof_C 	C 	0.3502	0.0148	0.9958	0.003
Mof_C 	C 	0.3989	0.9801	0.0279	0.017
Mof_O 	O 	0.2551	0.2075	0.8843	-0.59
Mof_C 	C 	0.2407	0.34149	0.8749	0.011
Mof_H 	H 	0.2465	0.0256	0.9932	0.042
Mof_H 	H 	0.3278	0.9658	0.0468	0.027
Mof_H 	H 	0.1478	0.3187	0.8762	0.035
Mof_Sc	Sc	0.375	0.375	0.63518	2.027
Mof_Sc	Sc	0.375	0.875	0.13518	2.027
Mof_Sc	Sc	0.875	0.375	0.13518	2.025
Mof_Sc	Sc	0.875	0.875	0.63518	2.021
Mof_Sc	Sc	0.375	0.375	0.11482	2.027
Mof_Sc	Sc	0.375	0.875	0.61482	2.027
Mof_Sc	Sc	0.875	0.375	0.61482	2.027
Mof_Sc	Sc	0.875	0.875	0.11482	2.019
Mof_Sc	Sc	0.625	0.625	0.36482	2.027
Mof_Sc	Sc	0.625	0.125	0.86482	2.027
Mof_Sc	Sc	0.125	0.625	0.86482	2.025
Mof_Sc	Sc	0.125	0.125	0.36482	2.021
Mof_Sc	Sc	0.625	0.625	0.88518	2.027
Mof_Sc	Sc	0.625	0.125	0.38518	2.027
Mof_Sc	Sc	0.125	0.625	0.38518	2.027
Mof_Sc	Sc	0.125	0.125	0.88518	2.019
Mof_C 	C 	0.125	0.486	0.625	0.568
Mof_C 	C 	0.125	0.5582	0.625	-0.158
Mof_C 	C 	0.125	0.986	0.125	0.57
Mof_C 	C 	0.125	0.0582	0.125	-0.163
Mof_C 	C 	0.625	0.986	0.625	0.567
Mof_C 	C 	0.625	0.0582	0.625	-0.157
Mof_C 	C 	0.625	0.264	0.625	0.568
Mof_C 	C 	0.625	0.1918	0.625	-0.159
Mof_C 	C 	0.625	0.764	0.125	0.567
Mof_C 	C 	0.625	0.6918	0.125	-0.159
Mof_C 	C 	0.625	0.486	0.125	0.568
Mof_C 	C 	0.625	0.5582	0.125	-0.159
Mof_C 	C 	0.125	0.264	0.125	0.567
Mof_C 	C 	0.125	0.1918	0.125	-0.157
Mof_C 	C 	0.125	0.764	0.625	0.566
Mof_C 	C 	0.125	0.6918	0.625	-0.156
Mof_C 	C 	0.875	0.514	0.375	0.568
Mof_C 	C 	0.875	0.4418	0.375	-0.158
Mof_C 	C 	0.875	0.014	0.875	0.57
Mof_C 	C 	0.875	0.9418	0.875	-0.163
Mof_C 	C 	0.375	0.736	0.375	0.568
Mof_C 	C 	0.375	0.8082	0.375	-0.159
Mof_C 	C 	0.375	0.236	0.875	0.567
Mof_C 	C 	0.375	0.3082	0.875	-0.159
Mof_C 	C 	0.375	0.514	0.875	0.568
Mof_C 	C 	0.375	0.4418	0.875	-0.159
Mof_C 	C 	0.375	0.014	0.375	0.567
Mof_C 	C 	0.375	0.9418	0.375	-0.157
Mof_C 	C 	0.875	0.736	0.875	0.567
Mof_C 	C 	0.875	0.8082	0.875	-0.157
Mof_C 	C 	0.875	0.236	0.375	0.566
Mof_C 	C 	0.875	0.3082	0.375	-0.156
_end
