data_functionalizedCrystal
_audit_creation_method	'EQeq! by Chris Wilmer'
_symmetry_space_group_name_H-M	'P1'
_symmetry_Int_Tables_number	1
_symmetry_cell_setting	triclinic
loop_
_symmetry_equiv_pos_as_xyz
  x,y,z
_cell_length_a	4.9967
_cell_length_b	11.1001
_cell_length_c	12.733
_cell_angle_alpha	91.7322
_cell_angle_beta	101.315
_cell_angle_gamma	81.1378
loop_
_atom_site_label
_atom_site_type_symbol
_atom_site_fract_x
_atom_site_fract_y
_atom_site_fract_z
_atom_site_charge
Mof_Cu	Cu	0.35076	0.1048	0.22704	0.917
Mof_Cu	Cu	0.12372	0.6048	0.77296	0.91
Mof_H 	H 	0.9841	0.3726	0.6618	0.062
Mof_H 	H 	0.0582	0.2621	0.5124	0.056
Mof_H 	H 	0.5362	0.5008	0.4546	0.076
Mof_H 	H 	0.4589	0.6026	0.6088	0.023
Mof_H 	H 	0.3572	0.1757	0.0016	0.016
Mof_H 	H 	0.1167	0.3125	0.8714	0.079
Mof_H 	H 	0.5883	0.4242	0.0662	0.083
Mof_H 	H 	0.8549	0.2906	0.1944	0.021
Mof_H 	H 	0.3223	0.8726	0.3382	0.01
Mof_H 	H 	0.5458	0.7621	0.4876	0.073
Mof_H 	H 	0.0816	0.0008	0.5454	0.061
Mof_H 	H 	0.8501	0.1026	0.3912	0.025
Mof_H 	H 	0.3556	0.6757	0.9984	0.015
Mof_H 	H 	0.2453	0.8125	0.1286	0.08
Mof_H 	H 	0.5221	0.9242	0.9338	0.081
Mof_H 	H 	0.6605	0.7906	0.8056	0.017
Mof_C 	C 	0.09763	0.3982	0.61986	-0.01
Mof_C 	C 	0.13887	0.332	0.52954	-0.042
Mof_C 	C 	0.30035	0.3703	0.4651	-0.027
Mof_C 	C 	0.42334	0.4731	0.49568	-0.067
Mof_C 	C 	0.37567	0.5339	0.58834	0.044
Mof_C 	C 	0.35412	0.3004	0.36504	0.3
Mof_C 	C 	0.2032	0.2277	0.0152	0.068
Mof_C 	C 	0.05778	0.3093	0.93596	-0.123
Mof_C 	C 	0.82577	0.3856	0.95374	0.014
Mof_C 	C 	0.74666	0.3761	0.05192	-0.095
Mof_C 	C 	0.6603	0.4733	0.868	0.32
Mof_C 	C 	0.90626	0.2943	0.12832	0.086
Mof_C 	C 	0.47777	0.8982	0.38014	0.054
Mof_C 	C 	0.60933	0.832	0.47046	-0.073
Mof_C 	C 	0.83525	0.8703	0.5349	-0.02
Mof_C 	C 	0.92766	0.9731	0.50432	-0.058
Mof_C 	C 	0.78733	0.0339	0.41166	0.068
Mof_C 	C 	0.98908	0.8004	0.63496	0.33
Mof_C 	C 	0.188	0.7277	0.9848	0.069
Mof_C 	C 	0.12182	0.8093	0.06404	-0.127
Mof_C 	C 	0.87203	0.8856	0.04626	0.019
Mof_C 	C 	0.69474	0.8761	0.94808	-0.099
Mof_C 	C 	0.7923	0.9733	0.132	0.29
Mof_C 	C 	0.77794	0.7943	0.87168	0.085
Mof_N 	N 	0.21357	0.4973	0.64954	-0.19
Mof_N 	N 	0.13083	0.2207	0.11026	-0.222
Mof_N 	N 	0.56403	0.9973	0.35046	-0.209
Mof_N 	N 	0.02057	0.7207	0.88974	-0.224
Mof_O 	O 	0.22428	0.2101	0.34116	-0.377
Mof_O 	O 	0.52088	0.3312	0.31576	-0.281
Mof_O 	O 	0.41395	0.51016	0.8785	-0.39
Mof_O 	O 	0.77188	0.50175	0.79556	-0.346
Mof_O 	O 	0.88312	0.7101	0.65884	-0.366
Mof_O 	O 	0.20512	0.8312	0.68424	-0.309
Mof_O 	O 	0.53545	0.01016	0.1215	-0.373
Mof_O 	O 	0.97632	0.00175	0.20444	-0.324
_end
