# CIF file generated by openbabel 3.1.0, see https://openbabel.org
data_I
_chemical_name_common 'image0'
_cell_length_a 24.561
_cell_length_b 6.986
_cell_length_c 9.1333
_cell_angle_alpha 90
_cell_angle_beta 90
_cell_angle_gamma 90
_space_group_name_H-M_alt 'P 1'
_space_group_name_Hall 'P 1'
loop_
    _symmetry_equiv_pos_as_xyz
    x,y,z
loop_
    _atom_site_label
    _atom_site_type_symbol
    _atom_site_fract_x
    _atom_site_fract_y
    _atom_site_fract_z
    _atom_site_occupancy
    N1       N        0.44234    0.15430    0.59820    1.000
    H1       H        0.38320    0.96460    0.65910    1.000
    C1       C        0.39417    0.09410    0.64730    1.000
    C2       C        0.27770    0.08600    0.73410    1.000
    H2       H        0.29600    0.96710    0.72390    1.000
    N2       N        0.39417    0.40590    0.64730    1.000
    N3       N        0.94234    0.65430    0.09820    1.000
    H3       H        0.88320    0.46460    0.15910    1.000
    C3       C        0.89417    0.59410    0.14730    1.000
    C4       C        0.77770    0.58600    0.23410    1.000
    H4       H        0.79600    0.46710    0.22390    1.000
    N4       N        0.89417    0.90590    0.14730    1.000
    N5       N        0.55766    0.34570    0.59820    1.000
    H5       H        0.61680    0.53540    0.65910    1.000
    C5       C        0.60583    0.40590    0.64730    1.000
    C6       C        0.72230    0.41400    0.73410    1.000
    H6       H        0.70400    0.53290    0.72390    1.000
    N6       N        0.60583    0.09410    0.64730    1.000
    N7       N        0.05766    0.84570    0.09820    1.000
    H7       H        0.11680    0.03540    0.15910    1.000
    C7       C        0.10583    0.90590    0.14730    1.000
    C8       C        0.22230    0.91400    0.23410    1.000
    H8       H        0.20400    0.03290    0.22390    1.000
    N8       N        0.10583    0.59410    0.14730    1.000
    N9       N        0.55766    0.65430    0.40180    1.000
    H9       H        0.61680    0.46460    0.34090    1.000
    C9       C        0.60583    0.59410    0.35270    1.000
    C10      C        0.72230    0.58600    0.26590    1.000
    H10      H        0.70400    0.46710    0.27610    1.000
    N10      N        0.60583    0.90590    0.35270    1.000
    N11      N        0.05766    0.15430    0.90180    1.000
    H11      H        0.11680    0.96460    0.84090    1.000
    C11      C        0.10583    0.09410    0.85270    1.000
    C12      C        0.22230    0.08600    0.76590    1.000
    H12      H        0.20400    0.96710    0.77610    1.000
    N12      N        0.10583    0.40590    0.85270    1.000
    N13      N        0.44234    0.84570    0.40180    1.000
    H13      H        0.38320    0.03540    0.34090    1.000
    C13      C        0.39417    0.90590    0.35270    1.000
    C14      C        0.27770    0.91400    0.26590    1.000
    H14      H        0.29600    0.03290    0.27610    1.000
    N14      N        0.39417    0.59410    0.35270    1.000
    N15      N        0.94234    0.34570    0.90180    1.000
    H15      H        0.88320    0.53540    0.84090    1.000
    C15      C        0.89417    0.40590    0.85270    1.000
    C16      C        0.77770    0.41400    0.76590    1.000
    H16      H        0.79600    0.53290    0.77610    1.000
    N16      N        0.89417    0.09410    0.85270    1.000
    N17      N        0.55766    0.84570    0.40180    1.000
    H17      H        0.61680    0.03540    0.34090    1.000
    C17      C        0.72230    0.91400    0.26590    1.000
    H18      H        0.70400    0.03290    0.27610    1.000
    N18      N        0.05766    0.34570    0.90180    1.000
    H19      H        0.11680    0.53540    0.84090    1.000
    C18      C        0.22230    0.41400    0.76590    1.000
    H20      H        0.20400    0.53290    0.77610    1.000
    N19      N        0.44234    0.65430    0.40180    1.000
    H21      H        0.38320    0.46460    0.34090    1.000
    C19      C        0.27770    0.58600    0.26590    1.000
    H22      H        0.29600    0.46710    0.27610    1.000
    N20      N        0.94234    0.15430    0.90180    1.000
    H23      H        0.88320    0.96460    0.84090    1.000
    C20      C        0.77770    0.08600    0.76590    1.000
    H24      H        0.79600    0.96710    0.77610    1.000
    N21      N        0.44234    0.34570    0.59820    1.000
    H25      H        0.38320    0.53540    0.65910    1.000
    C21      C        0.27770    0.41400    0.73410    1.000
    H26      H        0.29600    0.53290    0.72390    1.000
    N22      N        0.94234    0.84570    0.09820    1.000
    H27      H        0.88320    0.03540    0.15910    1.000
    C22      C        0.77770    0.91400    0.23410    1.000
    H28      H        0.79600    0.03290    0.22390    1.000
    N23      N        0.55766    0.15430    0.59820    1.000
    H29      H        0.61680    0.96460    0.65910    1.000
    C23      C        0.72230    0.08600    0.73410    1.000
    H30      H        0.70400    0.96710    0.72390    1.000
    N24      N        0.05766    0.65430    0.09820    1.000
    H31      H        0.11680    0.46460    0.15910    1.000
    C24      C        0.22230    0.58600    0.23410    1.000
    H32      H        0.20400    0.46710    0.22390    1.000
    Cu1      Cu       0.50000    0.00000    0.50000    1.000
    Cu2      Cu       0.00000    0.50000    0.00000    1.000
    Cu3      Cu       0.50000    0.50000    0.50000    1.000
    Cu4      Cu       0.00000    0.00000    0.00000    1.000
    C25      C        0.36390    0.25000    0.67720    1.000
    C26      C        0.30600    0.25000    0.71740    1.000
    C27      C        0.86390    0.75000    0.17720    1.000
    C28      C        0.80600    0.75000    0.21740    1.000
    C29      C        0.63610    0.25000    0.67720    1.000
    C30      C        0.69400    0.25000    0.71740    1.000
    C31      C        0.13610    0.75000    0.17720    1.000
    C32      C        0.19400    0.75000    0.21740    1.000
    C33      C        0.63610    0.75000    0.32280    1.000
    C34      C        0.69400    0.75000    0.28260    1.000
    C35      C        0.13610    0.25000    0.82280    1.000
    C36      C        0.19400    0.25000    0.78260    1.000
    C37      C        0.36390    0.75000    0.32280    1.000
    C38      C        0.30600    0.75000    0.28260    1.000
    C39      C        0.86390    0.25000    0.82280    1.000
    C40      C        0.80600    0.25000    0.78260    1.000
