# CIF file generated by openbabel 3.1.0, see https://openbabel.org
data_I
_chemical_name_common 'image0'
_cell_length_a 16.205
_cell_length_b 24.834
_cell_length_c 13.514
_cell_angle_alpha 90
_cell_angle_beta 124.244
_cell_angle_gamma 90
_space_group_name_H-M_alt 'P 1'
_space_group_name_Hall 'P 1'
loop_
    _symmetry_equiv_pos_as_xyz
    x,y,z
loop_
    _atom_site_label
    _atom_site_type_symbol
    _atom_site_fract_x
    _atom_site_fract_y
    _atom_site_fract_z
    _atom_site_occupancy
    Zn1      Zn       0.32251    0.05251    0.72840    1.000
    O1       O        0.74207    0.06221    0.94579    1.000
    O2       O        0.62419    0.12105    0.90758    1.000
    O3       O        0.65123    0.02988    0.08091    1.000
    O4       O        0.75197    0.01222    0.27671    1.000
    O5       O        0.97000    0.15628    0.53610    1.000
    O6       O        0.01600    0.21801    0.46910    1.000
    O7       O        0.45881    0.03861    0.84512    1.000
    H1       H        0.49750    0.06160    0.84480    1.000
    N1       N        0.96730    0.17845    0.45490    1.000
    N2       N        0.45984    0.07047    0.05932    1.000
    N3       N        0.23892    0.38414    0.23500    1.000
    C1       C        0.77125    0.11771    0.10448    1.000
    C2       C        0.78330    0.08986    0.20186    1.000
    C3       C        0.84886    0.10949    0.31740    1.000
    H2       H        0.85840    0.09110    0.38300    1.000
    C4       C        0.89959    0.15690    0.33280    1.000
    C5       C        0.88850    0.18572    0.23870    1.000
    H3       H        0.92320    0.21770    0.25170    1.000
    C6       C        0.82410    0.16546    0.12440    1.000
    H4       H        0.81570    0.18400    0.05960    1.000
    C7       C        0.70465    0.09846    0.97597    1.000
    C8       C        0.72341    0.03987    0.18355    1.000
    C9       C        0.47972    0.12112    0.04483    1.000
    H5       H        0.51780    0.12650    0.01380    1.000
    C10      C        0.44626    0.16581    0.07390    1.000
    H6       H        0.46220    0.20030    0.06280    1.000
    C11      C        0.38821    0.15869    0.12000    1.000
    C12      C        0.36784    0.10600    0.13420    1.000
    H7       H        0.32940    0.09930    0.16430    1.000
    C13      C        0.40453    0.06363    0.10380    1.000
    H8       H        0.39030    0.02870    0.11460    1.000
    C14      C        0.34849    0.20299    0.15390    1.000
    H9       H        0.30820    0.19350    0.17990    1.000
    C15      C        0.36448    0.25486    0.15090    1.000
    H10      H        0.40590    0.26460    0.12670    1.000
    C16      C        0.29460    0.39267    0.19150    1.000
    H11      H        0.30540    0.42800    0.17840    1.000
    C17      C        0.33640    0.35165    0.16540    1.000
    H12      H        0.37460    0.35970    0.13570    1.000
    C18      C        0.32190    0.29875    0.18290    1.000
    C19      C        0.26510    0.28988    0.22980    1.000
    H13      H        0.25440    0.25500    0.24530    1.000
    C20      C        0.22500    0.33299    0.25300    1.000
    H14      H        0.18620    0.32620    0.28260    1.000
    Zn2      Zn       0.82251    0.55251    0.72840    1.000
    O8       O        0.24207    0.56221    0.94579    1.000
    O9       O        0.12419    0.62105    0.90758    1.000
    O10      O        0.15123    0.52988    0.08091    1.000
    O11      O        0.25197    0.51222    0.27671    1.000
    O12      O        0.47000    0.65628    0.53610    1.000
    O13      O        0.51600    0.71801    0.46910    1.000
    O14      O        0.95881    0.53861    0.84512    1.000
    H15      H        0.99750    0.56160    0.84480    1.000
    N4       N        0.46730    0.67845    0.45490    1.000
    N5       N        0.95984    0.57047    0.05932    1.000
    N6       N        0.73892    0.88414    0.23500    1.000
    C21      C        0.27125    0.61771    0.10448    1.000
    C22      C        0.28330    0.58986    0.20186    1.000
    C23      C        0.34886    0.60949    0.31740    1.000
    H16      H        0.35840    0.59110    0.38300    1.000
    C24      C        0.39959    0.65690    0.33280    1.000
    C25      C        0.38850    0.68572    0.23870    1.000
    H17      H        0.42320    0.71770    0.25170    1.000
    C26      C        0.32410    0.66546    0.12440    1.000
    H18      H        0.31570    0.68400    0.05960    1.000
    C27      C        0.20465    0.59846    0.97597    1.000
    C28      C        0.22341    0.53987    0.18355    1.000
    C29      C        0.97972    0.62112    0.04483    1.000
    H19      H        0.01780    0.62650    0.01380    1.000
    C30      C        0.94626    0.66581    0.07390    1.000
    H20      H        0.96220    0.70030    0.06280    1.000
    C31      C        0.88821    0.65869    0.12000    1.000
    C32      C        0.86784    0.60600    0.13420    1.000
    H21      H        0.82940    0.59930    0.16430    1.000
    C33      C        0.90453    0.56363    0.10380    1.000
    H22      H        0.89030    0.52870    0.11460    1.000
    C34      C        0.84849    0.70299    0.15390    1.000
    H23      H        0.80820    0.69350    0.17990    1.000
    C35      C        0.86448    0.75486    0.15090    1.000
    H24      H        0.90590    0.76460    0.12670    1.000
    C36      C        0.79460    0.89267    0.19150    1.000
    H25      H        0.80540    0.92800    0.17840    1.000
    C37      C        0.83640    0.85165    0.16540    1.000
    H26      H        0.87460    0.85970    0.13570    1.000
    C38      C        0.82190    0.79875    0.18290    1.000
    C39      C        0.76510    0.78988    0.22980    1.000
    H27      H        0.75440    0.75500    0.24530    1.000
    C40      C        0.72500    0.83299    0.25300    1.000
    H28      H        0.68620    0.82620    0.28260    1.000
    Zn3      Zn       0.67749    0.05251    0.77160    1.000
    O15      O        0.25793    0.06221    0.55421    1.000
    O16      O        0.37581    0.12105    0.59242    1.000
    O17      O        0.34877    0.02988    0.41909    1.000
    O18      O        0.24803    0.01222    0.22329    1.000
    O19      O        0.03000    0.15628    0.96390    1.000
    O20      O        0.98400    0.21801    0.03090    1.000
    O21      O        0.54119    0.03861    0.65488    1.000
    H29      H        0.50250    0.06160    0.65520    1.000
    N7       N        0.03270    0.17845    0.04510    1.000
    N8       N        0.54016    0.07047    0.44068    1.000
    N9       N        0.76108    0.38414    0.26500    1.000
    C41      C        0.22875    0.11771    0.39552    1.000
    C42      C        0.21670    0.08986    0.29814    1.000
    C43      C        0.15114    0.10949    0.18260    1.000
    H30      H        0.14160    0.09110    0.11700    1.000
    C44      C        0.10041    0.15690    0.16720    1.000
    C45      C        0.11150    0.18572    0.26130    1.000
    H31      H        0.07680    0.21770    0.24830    1.000
    C46      C        0.17590    0.16546    0.37560    1.000
    H32      H        0.18430    0.18400    0.44040    1.000
    C47      C        0.29535    0.09846    0.52403    1.000
    C48      C        0.27659    0.03987    0.31645    1.000
    C49      C        0.52028    0.12112    0.45517    1.000
    H33      H        0.48220    0.12650    0.48620    1.000
    C50      C        0.55374    0.16581    0.42610    1.000
    H34      H        0.53780    0.20030    0.43720    1.000
    C51      C        0.61179    0.15869    0.38000    1.000
    C52      C        0.63216    0.10600    0.36580    1.000
    H35      H        0.67060    0.09930    0.33570    1.000
    C53      C        0.59547    0.06363    0.39620    1.000
    H36      H        0.60970    0.02870    0.38540    1.000
    C54      C        0.65151    0.20299    0.34610    1.000
    H37      H        0.69180    0.19350    0.32010    1.000
    C55      C        0.63552    0.25486    0.34910    1.000
    H38      H        0.59410    0.26460    0.37330    1.000
    C56      C        0.70540    0.39267    0.30850    1.000
    H39      H        0.69460    0.42800    0.32160    1.000
    C57      C        0.66360    0.35165    0.33460    1.000
    H40      H        0.62540    0.35970    0.36430    1.000
    C58      C        0.67810    0.29875    0.31710    1.000
    C59      C        0.73490    0.28988    0.27020    1.000
    H41      H        0.74560    0.25500    0.25470    1.000
    C60      C        0.77500    0.33299    0.24700    1.000
    H42      H        0.81380    0.32620    0.21740    1.000
    Zn4      Zn       0.17749    0.55251    0.77160    1.000
    O22      O        0.75793    0.56221    0.55421    1.000
    O23      O        0.87581    0.62105    0.59242    1.000
    O24      O        0.84877    0.52988    0.41909    1.000
    O25      O        0.74803    0.51222    0.22329    1.000
    O26      O        0.53000    0.65628    0.96390    1.000
    O27      O        0.48400    0.71801    0.03090    1.000
    O28      O        0.04119    0.53861    0.65488    1.000
    H43      H        0.00250    0.56160    0.65520    1.000
    N10      N        0.53270    0.67845    0.04510    1.000
    N11      N        0.04016    0.57047    0.44068    1.000
    N12      N        0.26108    0.88414    0.26500    1.000
    C61      C        0.72875    0.61771    0.39552    1.000
    C62      C        0.71670    0.58986    0.29814    1.000
    C63      C        0.65114    0.60949    0.18260    1.000
    H44      H        0.64160    0.59110    0.11700    1.000
    C64      C        0.60041    0.65690    0.16720    1.000
    C65      C        0.61150    0.68572    0.26130    1.000
    H45      H        0.57680    0.71770    0.24830    1.000
    C66      C        0.67590    0.66546    0.37560    1.000
    H46      H        0.68430    0.68400    0.44040    1.000
    C67      C        0.79535    0.59846    0.52403    1.000
    C68      C        0.77659    0.53987    0.31645    1.000
    C69      C        0.02028    0.62112    0.45517    1.000
    H47      H        0.98220    0.62650    0.48620    1.000
    C70      C        0.05374    0.66581    0.42610    1.000
    H48      H        0.03780    0.70030    0.43720    1.000
    C71      C        0.11179    0.65869    0.38000    1.000
    C72      C        0.13216    0.60600    0.36580    1.000
    H49      H        0.17060    0.59930    0.33570    1.000
    C73      C        0.09547    0.56363    0.39620    1.000
    H50      H        0.10970    0.52870    0.38540    1.000
    C74      C        0.15151    0.70299    0.34610    1.000
    H51      H        0.19180    0.69350    0.32010    1.000
    C75      C        0.13552    0.75486    0.34910    1.000
    H52      H        0.09410    0.76460    0.37330    1.000
    C76      C        0.20540    0.89267    0.30850    1.000
    H53      H        0.19460    0.92800    0.32160    1.000
    C77      C        0.16360    0.85165    0.33460    1.000
    H54      H        0.12540    0.85970    0.36430    1.000
    C78      C        0.17810    0.79875    0.31710    1.000
    C79      C        0.23490    0.78988    0.27020    1.000
    H55      H        0.24560    0.75500    0.25470    1.000
    C80      C        0.27500    0.83299    0.24700    1.000
    H56      H        0.31380    0.82620    0.21740    1.000
    Zn5      Zn       0.67749    0.94749    0.27160    1.000
    O29      O        0.25793    0.93779    0.05421    1.000
    O30      O        0.37581    0.87895    0.09242    1.000
    O31      O        0.34877    0.97012    0.91909    1.000
    O32      O        0.24803    0.98778    0.72329    1.000
    O33      O        0.03000    0.84372    0.46390    1.000
    O34      O        0.98400    0.78199    0.53090    1.000
    O35      O        0.54119    0.96139    0.15488    1.000
    H57      H        0.50250    0.93840    0.15520    1.000
    N13      N        0.03270    0.82155    0.54510    1.000
    N14      N        0.54016    0.92953    0.94068    1.000
    N15      N        0.76108    0.61586    0.76500    1.000
    C81      C        0.22875    0.88229    0.89552    1.000
    C82      C        0.21670    0.91014    0.79814    1.000
    C83      C        0.15114    0.89051    0.68260    1.000
    H58      H        0.14160    0.90890    0.61700    1.000
    C84      C        0.10041    0.84310    0.66720    1.000
    C85      C        0.11150    0.81428    0.76130    1.000
    H59      H        0.07680    0.78230    0.74830    1.000
    C86      C        0.17590    0.83454    0.87560    1.000
    H60      H        0.18430    0.81600    0.94040    1.000
    C87      C        0.29535    0.90154    0.02403    1.000
    C88      C        0.27659    0.96013    0.81645    1.000
    C89      C        0.52028    0.87888    0.95517    1.000
    H61      H        0.48220    0.87350    0.98620    1.000
    C90      C        0.55374    0.83419    0.92610    1.000
    H62      H        0.53780    0.79970    0.93720    1.000
    C91      C        0.61179    0.84131    0.88000    1.000
    C92      C        0.63216    0.89400    0.86580    1.000
    H63      H        0.67060    0.90070    0.83570    1.000
    C93      C        0.59547    0.93637    0.89620    1.000
    H64      H        0.60970    0.97130    0.88540    1.000
    C94      C        0.65151    0.79701    0.84610    1.000
    H65      H        0.69180    0.80650    0.82010    1.000
    C95      C        0.63552    0.74514    0.84910    1.000
    H66      H        0.59410    0.73540    0.87330    1.000
    C96      C        0.70540    0.60733    0.80850    1.000
    H67      H        0.69460    0.57200    0.82160    1.000
    C97      C        0.66360    0.64835    0.83460    1.000
    H68      H        0.62540    0.64030    0.86430    1.000
    C98      C        0.67810    0.70125    0.81710    1.000
    C99      C        0.73490    0.71012    0.77020    1.000
    H69      H        0.74560    0.74500    0.75470    1.000
    C100     C        0.77500    0.66701    0.74700    1.000
    H70      H        0.81380    0.67380    0.71740    1.000
    Zn6      Zn       0.17749    0.44749    0.27160    1.000
    O36      O        0.75793    0.43779    0.05421    1.000
    O37      O        0.87581    0.37895    0.09242    1.000
    O38      O        0.84877    0.47012    0.91909    1.000
    O39      O        0.74803    0.48778    0.72329    1.000
    O40      O        0.53000    0.34372    0.46390    1.000
    O41      O        0.48400    0.28199    0.53090    1.000
    O42      O        0.04119    0.46139    0.15488    1.000
    H71      H        0.00250    0.43840    0.15520    1.000
    N16      N        0.53270    0.32155    0.54510    1.000
    N17      N        0.04016    0.42953    0.94068    1.000
    N18      N        0.26108    0.11586    0.76500    1.000
    C101     C        0.72875    0.38229    0.89552    1.000
    C102     C        0.71670    0.41014    0.79814    1.000
    C103     C        0.65114    0.39051    0.68260    1.000
    H72      H        0.64160    0.40890    0.61700    1.000
    C104     C        0.60041    0.34310    0.66720    1.000
    C105     C        0.61150    0.31428    0.76130    1.000
    H73      H        0.57680    0.28230    0.74830    1.000
    C106     C        0.67590    0.33454    0.87560    1.000
    H74      H        0.68430    0.31600    0.94040    1.000
    C107     C        0.79535    0.40154    0.02403    1.000
    C108     C        0.77659    0.46013    0.81645    1.000
    C109     C        0.02028    0.37888    0.95517    1.000
    H75      H        0.98220    0.37350    0.98620    1.000
    C110     C        0.05374    0.33419    0.92610    1.000
    H76      H        0.03780    0.29970    0.93720    1.000
    C111     C        0.11179    0.34131    0.88000    1.000
    C112     C        0.13216    0.39400    0.86580    1.000
    H77      H        0.17060    0.40070    0.83570    1.000
    C113     C        0.09547    0.43637    0.89620    1.000
    H78      H        0.10970    0.47130    0.88540    1.000
    C114     C        0.15151    0.29701    0.84610    1.000
    H79      H        0.19180    0.30650    0.82010    1.000
    C115     C        0.13552    0.24514    0.84910    1.000
    H80      H        0.09410    0.23540    0.87330    1.000
    C116     C        0.20540    0.10733    0.80850    1.000
    H81      H        0.19460    0.07200    0.82160    1.000
    C117     C        0.16360    0.14835    0.83460    1.000
    H82      H        0.12540    0.14030    0.86430    1.000
    C118     C        0.17810    0.20125    0.81710    1.000
    C119     C        0.23490    0.21012    0.77020    1.000
    H83      H        0.24560    0.24500    0.75470    1.000
    C120     C        0.27500    0.16701    0.74700    1.000
    H84      H        0.31380    0.17380    0.71740    1.000
    Zn7      Zn       0.32251    0.94749    0.22840    1.000
    O43      O        0.74207    0.93779    0.44579    1.000
    O44      O        0.62419    0.87895    0.40758    1.000
    O45      O        0.65123    0.97012    0.58091    1.000
    O46      O        0.75197    0.98778    0.77671    1.000
    O47      O        0.97000    0.84372    0.03610    1.000
    O48      O        0.01600    0.78199    0.96910    1.000
    O49      O        0.45881    0.96139    0.34512    1.000
    H85      H        0.49750    0.93840    0.34480    1.000
    N19      N        0.96730    0.82155    0.95490    1.000
    N20      N        0.45984    0.92953    0.55932    1.000
    N21      N        0.23892    0.61586    0.73500    1.000
    C121     C        0.77125    0.88229    0.60448    1.000
    C122     C        0.78330    0.91014    0.70186    1.000
    C123     C        0.84886    0.89051    0.81740    1.000
    H86      H        0.85840    0.90890    0.88300    1.000
    C124     C        0.89959    0.84310    0.83280    1.000
    C125     C        0.88850    0.81428    0.73870    1.000
    H87      H        0.92320    0.78230    0.75170    1.000
    C126     C        0.82410    0.83454    0.62440    1.000
    H88      H        0.81570    0.81600    0.55960    1.000
    C127     C        0.70465    0.90154    0.47597    1.000
    C128     C        0.72341    0.96013    0.68355    1.000
    C129     C        0.47972    0.87888    0.54483    1.000
    H89      H        0.51780    0.87350    0.51380    1.000
    C130     C        0.44626    0.83419    0.57390    1.000
    H90      H        0.46220    0.79970    0.56280    1.000
    C131     C        0.38821    0.84131    0.62000    1.000
    C132     C        0.36784    0.89400    0.63420    1.000
    H91      H        0.32940    0.90070    0.66430    1.000
    C133     C        0.40453    0.93637    0.60380    1.000
    H92      H        0.39030    0.97130    0.61460    1.000
    C134     C        0.34849    0.79701    0.65390    1.000
    H93      H        0.30820    0.80650    0.67990    1.000
    C135     C        0.36448    0.74514    0.65090    1.000
    H94      H        0.40590    0.73540    0.62670    1.000
    C136     C        0.29460    0.60733    0.69150    1.000
    H95      H        0.30540    0.57200    0.67840    1.000
    C137     C        0.33640    0.64835    0.66540    1.000
    H96      H        0.37460    0.64030    0.63570    1.000
    C138     C        0.32190    0.70125    0.68290    1.000
    C139     C        0.26510    0.71012    0.72980    1.000
    H97      H        0.25440    0.74500    0.74530    1.000
    C140     C        0.22500    0.66701    0.75300    1.000
    H98      H        0.18620    0.67380    0.78260    1.000
    Zn8      Zn       0.82251    0.44749    0.22840    1.000
    O50      O        0.24207    0.43779    0.44579    1.000
    O51      O        0.12419    0.37895    0.40758    1.000
    O52      O        0.15123    0.47012    0.58091    1.000
    O53      O        0.25197    0.48778    0.77671    1.000
    O54      O        0.47000    0.34372    0.03610    1.000
    O55      O        0.51600    0.28199    0.96910    1.000
    O56      O        0.95881    0.46139    0.34512    1.000
    H99      H        0.99750    0.43840    0.34480    1.000
    N22      N        0.46730    0.32155    0.95490    1.000
    N23      N        0.95984    0.42953    0.55932    1.000
    N24      N        0.73892    0.11586    0.73500    1.000
    C141     C        0.27125    0.38229    0.60448    1.000
    C142     C        0.28330    0.41014    0.70186    1.000
    C143     C        0.34886    0.39051    0.81740    1.000
    H100     H        0.35840    0.40890    0.88300    1.000
    C144     C        0.39959    0.34310    0.83280    1.000
    C145     C        0.38850    0.31428    0.73870    1.000
    H101     H        0.42320    0.28230    0.75170    1.000
    C146     C        0.32410    0.33454    0.62440    1.000
    H102     H        0.31570    0.31600    0.55960    1.000
    C147     C        0.20465    0.40154    0.47597    1.000
    C148     C        0.22341    0.46013    0.68355    1.000
    C149     C        0.97972    0.37888    0.54483    1.000
    H103     H        0.01780    0.37350    0.51380    1.000
    C150     C        0.94626    0.33419    0.57390    1.000
    H104     H        0.96220    0.29970    0.56280    1.000
    C151     C        0.88821    0.34131    0.62000    1.000
    C152     C        0.86784    0.39400    0.63420    1.000
    H105     H        0.82940    0.40070    0.66430    1.000
    C153     C        0.90453    0.43637    0.60380    1.000
    H106     H        0.89030    0.47130    0.61460    1.000
    C154     C        0.84849    0.29701    0.65390    1.000
    H107     H        0.80820    0.30650    0.67990    1.000
    C155     C        0.86448    0.24514    0.65090    1.000
    H108     H        0.90590    0.23540    0.62670    1.000
    C156     C        0.79460    0.10733    0.69150    1.000
    H109     H        0.80540    0.07200    0.67840    1.000
    C157     C        0.83640    0.14835    0.66540    1.000
    H110     H        0.87460    0.14030    0.63570    1.000
    C158     C        0.82190    0.20125    0.68290    1.000
    C159     C        0.76510    0.21012    0.72980    1.000
    H111     H        0.75440    0.24500    0.74530    1.000
    C160     C        0.72500    0.16701    0.75300    1.000
    H112     H        0.68620    0.17380    0.78260    1.000
    Zn9      Zn       0.50000    0.00000    0.00000    1.000
    Zn10     Zn       0.00000    0.50000    0.00000    1.000
    Zn11     Zn       0.50000    0.00000    0.50000    1.000
    Zn12     Zn       0.00000    0.50000    0.50000    1.000
