# CIF file generated by openbabel 3.1.0, see https://openbabel.org
data_I
_chemical_name_common 'image0'
_cell_length_a 18.666
_cell_length_b 13.998
_cell_length_c 27.179
_cell_angle_alpha 90
_cell_angle_beta 131.032
_cell_angle_gamma 90
_space_group_name_H-M_alt 'P 1'
_space_group_name_Hall 'P 1'
loop_
    _symmetry_equiv_pos_as_xyz
    x,y,z
loop_
    _atom_site_label
    _atom_site_type_symbol
    _atom_site_fract_x
    _atom_site_fract_y
    _atom_site_fract_z
    _atom_site_occupancy
    C1       C        0.40150    0.94540    0.92750    1.000
    H1       H        0.39900    0.97980    0.95560    1.000
    C2       C        0.39750    0.99430    0.88310    1.000
    H2       H        0.38980    0.06020    0.88030    1.000
    C3       C        0.40430    0.94920    0.84290    1.000
    C4       C        0.41690    0.85430    0.85090    1.000
    H3       H        0.42530    0.81980    0.82580    1.000
    C5       C        0.41770    0.80660    0.89620    1.000
    H4       H        0.42480    0.74060    0.89980    1.000
    C6       C        0.39560    0.00100    0.79020    1.000
    C7       C        0.39810    0.09730    0.78800    1.000
    H5       H        0.40770    0.13320    0.82060    1.000
    C8       C        0.38650    0.14450    0.73740    1.000
    C9       C        0.37880    0.08910    0.69290    1.000
    H6       H        0.37230    0.11810    0.65930    1.000
    C10      C        0.37270    0.93140    0.64910    1.000
    C11      C        0.36910    0.97220    0.60060    1.000
    H7       H        0.36580    0.03830    0.59580    1.000
    C12      C        0.37030    0.91530    0.55950    1.000
    H8       H        0.36630    0.94470    0.52700    1.000
    C13      C        0.37510    0.83350    0.65100    1.000
    H9       H        0.37380    0.80150    0.68040    1.000
    C14      C        0.37960    0.78170    0.60960    1.000
    H10      H        0.38480    0.71560    0.61390    1.000
    C15      C        0.38480    0.24970    0.73170    1.000
    C16      C        0.38060    0.31030    0.77130    1.000
    H11      H        0.37990    0.28440    0.80250    1.000
    C17      C        0.37780    0.40790    0.76370    1.000
    H12      H        0.37670    0.44620    0.79120    1.000
    C18      C        0.38180    0.39580    0.68430    1.000
    H13      H        0.38380    0.42470    0.65430    1.000
    C19      C        0.38510    0.29710    0.68710    1.000
    H14      H        0.38750    0.26250    0.65900    1.000
    C20      C        0.57820    0.68670    0.07760    1.000
    C21      C        0.67210    0.63170    0.12100    1.000
    C22      C        0.75430    0.67580    0.17370    1.000
    H15      H        0.75250    0.74000    0.18160    1.000
    C23      C        0.83910    0.62690    0.21490    1.000
    C24      C        0.84210    0.53330    0.20070    1.000
    H16      H        0.89910    0.49980    0.22810    1.000
    C25      C        0.76250    0.48810    0.14680    1.000
    C26      C        0.67660    0.53820    0.10660    1.000
    H17      H        0.62220    0.50860    0.07000    1.000
    C27      C        0.93080    0.67420    0.27120    1.000
    C28      C        0.76940    0.38780    0.13070    1.000
    C29      C        0.12240    0.71710    0.97910    1.000
    H18      H        0.12570    0.78300    0.98440    1.000
    C30      C        0.12620    0.66220    0.02200    1.000
    H19      H        0.13240    0.69110    0.05550    1.000
    C31      C        0.12070    0.56450    0.01630    1.000
    C32      C        0.10950    0.52800    0.96370    1.000
    H20      H        0.10330    0.46250    0.95640    1.000
    C33      C        0.10740    0.58850    0.92190    1.000
    H21      H        0.10100    0.56180    0.88780    1.000
    C34      C        0.12380    0.50690    0.06250    1.000
    C35      C        0.13010    0.54550    0.10980    1.000
    H22      H        0.13290    0.61160    0.11440    1.000
    C36      C        0.13250    0.48960    0.15120    1.000
    C37      C        0.13090    0.39310    0.14790    1.000
    H23      H        0.13370    0.35650    0.17770    1.000
    C38      C        0.12510    0.35000    0.10010    1.000
    C39      C        0.13700    0.53900    0.20180    1.000
    C40      C        0.16250    0.63470    0.21830    1.000
    H24      H        0.17910    0.66990    0.19810    1.000
    C41      C        0.16330    0.67780    0.26450    1.000
    H25      H        0.18470    0.74060    0.27580    1.000
    C42      C        0.11440    0.54550    0.27920    1.000
    H26      H        0.09740    0.51270    0.30000    1.000
    C43      C        0.11500    0.49500    0.23580    1.000
    H27      H        0.10040    0.43020    0.22940    1.000
    C44      C        0.11970    0.24260    0.09310    1.000
    C45      C        0.13860    0.18560    0.14230    1.000
    H28      H        0.15340    0.21360    0.17900    1.000
    C46      C        0.13520    0.08670    0.13660    1.000
    H29      H        0.14790    0.04850    0.16950    1.000
    N1       N        0.11300    0.04480    0.08160    1.000
    C47      C        0.09410    0.10180    0.03240    1.000
    H30      H        0.07930    0.07380    0.99560    1.000
    C48      C        0.09750    0.20080    0.03810    1.000
    H31      H        0.08480    0.23890    0.00520    1.000
    C49      C        0.38050    0.99470    0.69660    1.000
    Cd1      Cd       0.39886    0.76300    0.00104    1.000
    Cd2      Cd       0.11916    0.77715    0.86077    1.000
    N2       N        0.40870    0.85160    0.93360    1.000
    N3       N        0.37680    0.82210    0.56420    1.000
    N4       N        0.11430    0.68220    0.92900    1.000
    N5       N        0.13620    0.63700    0.29350    1.000
    N6       N        0.37640    0.45060    0.71930    1.000
    N7       N        0.38640    0.94720    0.74370    1.000
    N8       N        0.12170    0.40770    0.05650    1.000
    O1       O        0.50930    0.64500    0.02700    1.000
    O2       O        0.57290    0.76820    0.09350    1.000
    O3       O        0.85060    0.35180    0.16870    1.000
    O4       O        0.69800    0.34850    0.08190    1.000
    O5       O        0.94020    0.76170    0.27210    1.000
    O6       O        0.99700    0.62060    0.31630    1.000
    C50      C        0.59850    0.44540    0.57250    1.000
    H32      H        0.60100    0.47980    0.54440    1.000
    C51      C        0.60250    0.49430    0.61690    1.000
    H33      H        0.61020    0.56020    0.61970    1.000
    C52      C        0.59570    0.44920    0.65710    1.000
    C53      C        0.58310    0.35430    0.64910    1.000
    H34      H        0.57470    0.31980    0.67420    1.000
    C54      C        0.58230    0.30660    0.60380    1.000
    H35      H        0.57520    0.24060    0.60020    1.000
    C55      C        0.60440    0.50100    0.70980    1.000
    C56      C        0.60190    0.59730    0.71200    1.000
    H36      H        0.59230    0.63320    0.67940    1.000
    C57      C        0.61350    0.64450    0.76260    1.000
    C58      C        0.62120    0.58910    0.80710    1.000
    H37      H        0.62770    0.61810    0.84070    1.000
    C59      C        0.62730    0.43140    0.85090    1.000
    C60      C        0.63090    0.47220    0.89940    1.000
    H38      H        0.63420    0.53830    0.90420    1.000
    C61      C        0.62970    0.41530    0.94050    1.000
    H39      H        0.63370    0.44470    0.97300    1.000
    C62      C        0.62490    0.33350    0.84900    1.000
    H40      H        0.62620    0.30150    0.81960    1.000
    C63      C        0.62040    0.28170    0.89040    1.000
    H41      H        0.61520    0.21560    0.88610    1.000
    C64      C        0.61520    0.74970    0.76830    1.000
    C65      C        0.61940    0.81030    0.72870    1.000
    H42      H        0.62010    0.78440    0.69750    1.000
    C66      C        0.62220    0.90790    0.73630    1.000
    H43      H        0.62330    0.94620    0.70880    1.000
    C67      C        0.61820    0.89580    0.81570    1.000
    H44      H        0.61620    0.92470    0.84570    1.000
    C68      C        0.61490    0.79710    0.81290    1.000
    H45      H        0.61250    0.76250    0.84100    1.000
    C69      C        0.42180    0.18670    0.42240    1.000
    C70      C        0.32790    0.13170    0.37900    1.000
    C71      C        0.24570    0.17580    0.32630    1.000
    H46      H        0.24750    0.24000    0.31840    1.000
    C72      C        0.16090    0.12690    0.28510    1.000
    C73      C        0.15790    0.03330    0.29930    1.000
    H47      H        0.10090    0.99980    0.27190    1.000
    C74      C        0.23750    0.98810    0.35320    1.000
    C75      C        0.32340    0.03820    0.39340    1.000
    H48      H        0.37780    0.00860    0.43000    1.000
    C76      C        0.06920    0.17420    0.22880    1.000
    C77      C        0.23060    0.88780    0.36930    1.000
    C78      C        0.87760    0.21710    0.52090    1.000
    H49      H        0.87430    0.28300    0.51560    1.000
    C79      C        0.87380    0.16220    0.47800    1.000
    H50      H        0.86760    0.19110    0.44450    1.000
    C80      C        0.87930    0.06450    0.48370    1.000
    C81      C        0.89050    0.02800    0.53630    1.000
    H51      H        0.89670    0.96250    0.54360    1.000
    C82      C        0.89260    0.08850    0.57810    1.000
    H52      H        0.89900    0.06180    0.61220    1.000
    C83      C        0.87620    0.00690    0.43750    1.000
    C84      C        0.86990    0.04550    0.39020    1.000
    H53      H        0.86710    0.11160    0.38560    1.000
    C85      C        0.86750    0.98960    0.34880    1.000
    C86      C        0.86910    0.89310    0.35210    1.000
    H54      H        0.86630    0.85650    0.32230    1.000
    C87      C        0.87490    0.85000    0.39990    1.000
    C88      C        0.86300    0.03900    0.29820    1.000
    C89      C        0.83750    0.13470    0.28170    1.000
    H55      H        0.82090    0.16990    0.30190    1.000
    C90      C        0.83670    0.17780    0.23550    1.000
    H56      H        0.81530    0.24060    0.22420    1.000
    C91      C        0.88560    0.04550    0.22080    1.000
    H57      H        0.90260    0.01270    0.20000    1.000
    C92      C        0.88500    0.99500    0.26420    1.000
    H58      H        0.89960    0.93020    0.27060    1.000
    C93      C        0.88030    0.74260    0.40690    1.000
    C94      C        0.86140    0.68560    0.35770    1.000
    H59      H        0.84660    0.71360    0.32100    1.000
    C95      C        0.86480    0.58670    0.36340    1.000
    H60      H        0.85210    0.54850    0.33050    1.000
    N9       N        0.88700    0.54480    0.41840    1.000
    C96      C        0.90590    0.60180    0.46760    1.000
    H61      H        0.92070    0.57380    0.50440    1.000
    C97      C        0.90250    0.70080    0.46190    1.000
    H62      H        0.91520    0.73890    0.49480    1.000
    C98      C        0.61950    0.49470    0.80340    1.000
    Cd3      Cd       0.60114    0.26300    0.49896    1.000
    Cd4      Cd       0.88084    0.27715    0.63923    1.000
    N10      N        0.59130    0.35160    0.56640    1.000
    N11      N        0.62320    0.32210    0.93580    1.000
    N12      N        0.88570    0.18220    0.57100    1.000
    N13      N        0.86380    0.13700    0.20650    1.000
    N14      N        0.62360    0.95060    0.78070    1.000
    N15      N        0.61360    0.44720    0.75630    1.000
    N16      N        0.87830    0.90770    0.44350    1.000
    O7       O        0.49070    0.14500    0.47300    1.000
    O8       O        0.42710    0.26820    0.40650    1.000
    O9       O        0.14940    0.85180    0.33130    1.000
    O10      O        0.30200    0.84850    0.41810    1.000
    O11      O        0.05980    0.26170    0.22790    1.000
    O12      O        0.00300    0.12060    0.18370    1.000
    C99      C        0.59850    0.05460    0.07250    1.000
    H63      H        0.60100    0.02020    0.04440    1.000
    C100     C        0.60250    0.00570    0.11690    1.000
    H64      H        0.61020    0.93980    0.11970    1.000
    C101     C        0.59570    0.05080    0.15710    1.000
    C102     C        0.58310    0.14570    0.14910    1.000
    H65      H        0.57470    0.18020    0.17420    1.000
    C103     C        0.58230    0.19340    0.10380    1.000
    H66      H        0.57520    0.25940    0.10020    1.000
    C104     C        0.60440    0.99900    0.20980    1.000
    C105     C        0.60190    0.90270    0.21200    1.000
    H67      H        0.59230    0.86680    0.17940    1.000
    C106     C        0.61350    0.85550    0.26260    1.000
    C107     C        0.62120    0.91090    0.30710    1.000
    H68      H        0.62770    0.88190    0.34070    1.000
    C108     C        0.62730    0.06860    0.35090    1.000
    C109     C        0.63090    0.02780    0.39940    1.000
    H69      H        0.63420    0.96170    0.40420    1.000
    C110     C        0.62970    0.08470    0.44050    1.000
    H70      H        0.63370    0.05530    0.47300    1.000
    C111     C        0.62490    0.16650    0.34900    1.000
    H71      H        0.62620    0.19850    0.31960    1.000
    C112     C        0.62040    0.21830    0.39040    1.000
    H72      H        0.61520    0.28440    0.38610    1.000
    C113     C        0.61520    0.75030    0.26830    1.000
    C114     C        0.61940    0.68970    0.22870    1.000
    H73      H        0.62010    0.71560    0.19750    1.000
    C115     C        0.62220    0.59210    0.23630    1.000
    H74      H        0.62330    0.55380    0.20880    1.000
    C116     C        0.61820    0.60420    0.31570    1.000
    H75      H        0.61620    0.57530    0.34570    1.000
    C117     C        0.61490    0.70290    0.31290    1.000
    H76      H        0.61250    0.73750    0.34100    1.000
    C118     C        0.42180    0.31330    0.92240    1.000
    C119     C        0.32790    0.36830    0.87900    1.000
    C120     C        0.24570    0.32420    0.82630    1.000
    H77      H        0.24750    0.26000    0.81840    1.000
    C121     C        0.16090    0.37310    0.78510    1.000
    C122     C        0.15790    0.46670    0.79930    1.000
    H78      H        0.10090    0.50020    0.77190    1.000
    C123     C        0.23750    0.51190    0.85320    1.000
    C124     C        0.32340    0.46180    0.89340    1.000
    H79      H        0.37780    0.49140    0.93000    1.000
    C125     C        0.06920    0.32580    0.72880    1.000
    C126     C        0.23060    0.61220    0.86930    1.000
    C127     C        0.87760    0.28290    0.02090    1.000
    H80      H        0.87430    0.21700    0.01560    1.000
    C128     C        0.87380    0.33780    0.97800    1.000
    H81      H        0.86760    0.30890    0.94450    1.000
    C129     C        0.87930    0.43550    0.98370    1.000
    C130     C        0.89050    0.47200    0.03630    1.000
    H82      H        0.89670    0.53750    0.04360    1.000
    C131     C        0.89260    0.41150    0.07810    1.000
    H83      H        0.89900    0.43820    0.11220    1.000
    C132     C        0.87620    0.49310    0.93750    1.000
    C133     C        0.86990    0.45450    0.89020    1.000
    H84      H        0.86710    0.38840    0.88560    1.000
    C134     C        0.86750    0.51040    0.84880    1.000
    C135     C        0.86910    0.60690    0.85210    1.000
    H85      H        0.86630    0.64350    0.82230    1.000
    C136     C        0.87490    0.65000    0.89990    1.000
    C137     C        0.86300    0.46100    0.79820    1.000
    C138     C        0.83750    0.36530    0.78170    1.000
    H86      H        0.82090    0.33010    0.80190    1.000
    C139     C        0.83670    0.32220    0.73550    1.000
    H87      H        0.81530    0.25940    0.72420    1.000
    C140     C        0.88560    0.45450    0.72080    1.000
    H88      H        0.90260    0.48730    0.70000    1.000
    C141     C        0.88500    0.50500    0.76420    1.000
    H89      H        0.89960    0.56980    0.77060    1.000
    C142     C        0.88030    0.75740    0.90690    1.000
    C143     C        0.86140    0.81440    0.85770    1.000
    H90      H        0.84660    0.78640    0.82100    1.000
    C144     C        0.86480    0.91330    0.86340    1.000
    H91      H        0.85210    0.95150    0.83050    1.000
    N17      N        0.88700    0.95520    0.91840    1.000
    C145     C        0.90590    0.89820    0.96760    1.000
    H92      H        0.92070    0.92620    0.00440    1.000
    C146     C        0.90250    0.79920    0.96190    1.000
    H93      H        0.91520    0.76110    0.99480    1.000
    C147     C        0.61950    0.00530    0.30340    1.000
    Cd5      Cd       0.60114    0.23700    0.99896    1.000
    Cd6      Cd       0.88084    0.22285    0.13923    1.000
    N18      N        0.59130    0.14840    0.06640    1.000
    N19      N        0.62320    0.17790    0.43580    1.000
    N20      N        0.88570    0.31780    0.07100    1.000
    N21      N        0.86380    0.36300    0.70650    1.000
    N22      N        0.62360    0.54940    0.28070    1.000
    N23      N        0.61360    0.05280    0.25630    1.000
    N24      N        0.87830    0.59230    0.94350    1.000
    O13      O        0.49070    0.35500    0.97300    1.000
    O14      O        0.42710    0.23180    0.90650    1.000
    O15      O        0.14940    0.64820    0.83130    1.000
    O16      O        0.30200    0.65150    0.91810    1.000
    O17      O        0.05980    0.23830    0.72790    1.000
    O18      O        0.00300    0.37940    0.68370    1.000
    C148     C        0.40150    0.55460    0.42750    1.000
    H94      H        0.39900    0.52020    0.45560    1.000
    C149     C        0.39750    0.50570    0.38310    1.000
    H95      H        0.38980    0.43980    0.38030    1.000
    C150     C        0.40430    0.55080    0.34290    1.000
    C151     C        0.41690    0.64570    0.35090    1.000
    H96      H        0.42530    0.68020    0.32580    1.000
    C152     C        0.41770    0.69340    0.39620    1.000
    H97      H        0.42480    0.75940    0.39980    1.000
    C153     C        0.39560    0.49900    0.29020    1.000
    C154     C        0.39810    0.40270    0.28800    1.000
    H98      H        0.40770    0.36680    0.32060    1.000
    C155     C        0.38650    0.35550    0.23740    1.000
    C156     C        0.37880    0.41090    0.19290    1.000
    H99      H        0.37230    0.38190    0.15930    1.000
    C157     C        0.37270    0.56860    0.14910    1.000
    C158     C        0.36910    0.52780    0.10060    1.000
    H100     H        0.36580    0.46170    0.09580    1.000
    C159     C        0.37030    0.58470    0.05950    1.000
    H101     H        0.36630    0.55530    0.02700    1.000
    C160     C        0.37510    0.66650    0.15100    1.000
    H102     H        0.37380    0.69850    0.18040    1.000
    C161     C        0.37960    0.71830    0.10960    1.000
    H103     H        0.38480    0.78440    0.11390    1.000
    C162     C        0.38480    0.25030    0.23170    1.000
    C163     C        0.38060    0.18970    0.27130    1.000
    H104     H        0.37990    0.21560    0.30250    1.000
    C164     C        0.37780    0.09210    0.26370    1.000
    H105     H        0.37670    0.05380    0.29120    1.000
    C165     C        0.38180    0.10420    0.18430    1.000
    H106     H        0.38380    0.07530    0.15430    1.000
    C166     C        0.38510    0.20290    0.18710    1.000
    H107     H        0.38750    0.23750    0.15900    1.000
    C167     C        0.57820    0.81330    0.57760    1.000
    C168     C        0.67210    0.86830    0.62100    1.000
    C169     C        0.75430    0.82420    0.67370    1.000
    H108     H        0.75250    0.76000    0.68160    1.000
    C170     C        0.83910    0.87310    0.71490    1.000
    C171     C        0.84210    0.96670    0.70070    1.000
    H109     H        0.89910    0.00020    0.72810    1.000
    C172     C        0.76250    0.01190    0.64680    1.000
    C173     C        0.67660    0.96180    0.60660    1.000
    H110     H        0.62220    0.99140    0.57000    1.000
    C174     C        0.93080    0.82580    0.77120    1.000
    C175     C        0.76940    0.11220    0.63070    1.000
    C176     C        0.12240    0.78290    0.47910    1.000
    H111     H        0.12570    0.71700    0.48440    1.000
    C177     C        0.12620    0.83780    0.52200    1.000
    H112     H        0.13240    0.80890    0.55550    1.000
    C178     C        0.12070    0.93550    0.51630    1.000
    C179     C        0.10950    0.97200    0.46370    1.000
    H113     H        0.10330    0.03750    0.45640    1.000
    C180     C        0.10740    0.91150    0.42190    1.000
    H114     H        0.10100    0.93820    0.38780    1.000
    C181     C        0.12380    0.99310    0.56250    1.000
    C182     C        0.13010    0.95450    0.60980    1.000
    H115     H        0.13290    0.88840    0.61440    1.000
    C183     C        0.13250    0.01040    0.65120    1.000
    C184     C        0.13090    0.10690    0.64790    1.000
    H116     H        0.13370    0.14350    0.67770    1.000
    C185     C        0.12510    0.15000    0.60010    1.000
    C186     C        0.13700    0.96100    0.70180    1.000
    C187     C        0.16250    0.86530    0.71830    1.000
    H117     H        0.17910    0.83010    0.69810    1.000
    C188     C        0.16330    0.82220    0.76450    1.000
    H118     H        0.18470    0.75940    0.77580    1.000
    C189     C        0.11440    0.95450    0.77920    1.000
    H119     H        0.09740    0.98730    0.80000    1.000
    C190     C        0.11500    0.00500    0.73580    1.000
    H120     H        0.10040    0.06980    0.72940    1.000
    C191     C        0.11970    0.25740    0.59310    1.000
    C192     C        0.13860    0.31440    0.64230    1.000
    H121     H        0.15340    0.28640    0.67900    1.000
    C193     C        0.13520    0.41330    0.63660    1.000
    H122     H        0.14790    0.45150    0.66950    1.000
    N25      N        0.11300    0.45520    0.58160    1.000
    C194     C        0.09410    0.39820    0.53240    1.000
    H123     H        0.07930    0.42620    0.49560    1.000
    C195     C        0.09750    0.29920    0.53810    1.000
    H124     H        0.08480    0.26110    0.50520    1.000
    C196     C        0.38050    0.50530    0.19660    1.000
    Cd7      Cd       0.39886    0.73700    0.50104    1.000
    Cd8      Cd       0.11916    0.72285    0.36077    1.000
    N26      N        0.40870    0.64840    0.43360    1.000
    N27      N        0.37680    0.67790    0.06420    1.000
    N28      N        0.11430    0.81780    0.42900    1.000
    N29      N        0.13620    0.86300    0.79350    1.000
    N30      N        0.37640    0.04940    0.21930    1.000
    N31      N        0.38640    0.55280    0.24370    1.000
    N32      N        0.12170    0.09230    0.55650    1.000
    O19      O        0.50930    0.85500    0.52700    1.000
    O20      O        0.57290    0.73180    0.59350    1.000
    O21      O        0.85060    0.14820    0.66870    1.000
    O22      O        0.69800    0.15150    0.58190    1.000
    O23      O        0.94020    0.73830    0.77210    1.000
    O24      O        0.99700    0.87940    0.81630    1.000
