data_functionalizedCrystal
_audit_creation_method	'EQeq! by Chris Wilmer'
_symmetry_space_group_name_H-M	'P1'
_symmetry_Int_Tables_number	1
_symmetry_cell_setting	triclinic
loop_
_symmetry_equiv_pos_as_xyz
  x,y,z
_cell_length_a	13.8618
_cell_length_b	13.8618
_cell_length_c	18.5079
_cell_angle_alpha	90
_cell_angle_beta	90
_cell_angle_gamma	120
loop_
_atom_site_label
_atom_site_type_symbol
_atom_site_fract_x
_atom_site_fract_y
_atom_site_fract_z
_atom_site_charge
Mof_O 	O 	0.6483	0.1355	0.1645	-0.697
Mof_C 	C 	0.5988	0.0266	0.0333	-0.359
Mof_H 	H 	0.6662	0.0446	0.055	0.121
Mof_O 	O 	0.8645	0.5128	0.1645	-0.731
Mof_C 	C 	0.9734	0.5722	0.0333	0.363
Mof_H 	H 	0.9554	0.6216	0.055	-0.086
Mof_O 	O 	0.4872	0.3517	0.1645	-0.714
Mof_C 	C 	0.4278	0.4012	0.0333	-0.002
Mof_H 	H 	0.3784	0.3338	0.055	0.003
Mof_O 	O 	0.3517	0.8645	0.6645	-0.731
Mof_C 	C 	0.4012	0.9734	0.5333	0.37
Mof_H 	H 	0.3338	0.9554	0.555	-0.096
Mof_O 	O 	0.1355	0.4872	0.6645	-0.698
Mof_C 	C 	0.0266	0.4278	0.5333	-0.371
Mof_H 	H 	0.0446	0.3784	0.555	0.113
Mof_O 	O 	0.5128	0.6483	0.6645	-0.714
Mof_C 	C 	0.5722	0.5988	0.5333	0.003
Mof_H 	H 	0.6216	0.6662	0.555	0.022
Mof_O 	O 	0.1355	0.6483	0.8355	-0.698
Mof_C 	C 	0.0266	0.5988	0.9667	-0.36
Mof_H 	H 	0.0446	0.6662	0.945	0.121
Mof_O 	O 	0.5128	0.8645	0.8355	-0.731
Mof_C 	C 	0.5722	0.9734	0.9667	0.363
Mof_H 	H 	0.6216	0.9554	0.945	-0.086
Mof_O 	O 	0.3517	0.4872	0.8355	-0.714
Mof_C 	C 	0.4012	0.4278	0.9667	-0.002
Mof_H 	H 	0.3338	0.3784	0.945	0.003
Mof_O 	O 	0.8645	0.3517	0.3355	-0.731
Mof_C 	C 	0.9734	0.4012	0.4667	0.37
Mof_H 	H 	0.9554	0.3338	0.445	-0.096
Mof_O 	O 	0.4872	0.1355	0.3355	-0.698
Mof_C 	C 	0.4278	0.0266	0.4667	-0.371
Mof_H 	H 	0.3784	0.0446	0.445	0.113
Mof_O 	O 	0.6483	0.5128	0.3355	-0.714
Mof_C 	C 	0.5988	0.5722	0.4667	0.003
Mof_H 	H 	0.6662	0.6216	0.445	0.022
Mof_O 	O 	0.3517	0.8645	0.8355	-0.731
Mof_C 	C 	0.4012	0.9734	0.9667	0.366
Mof_H 	H 	0.3338	0.9554	0.945	-0.095
Mof_O 	O 	0.1355	0.4872	0.8355	-0.698
Mof_C 	C 	0.0266	0.4278	0.9667	-0.366
Mof_H 	H 	0.0446	0.3784	0.945	0.112
Mof_O 	O 	0.5128	0.6483	0.8355	-0.715
Mof_C 	C 	0.5722	0.5988	0.9667	0.003
Mof_H 	H 	0.6216	0.6662	0.945	0.022
Mof_O 	O 	0.6483	0.1355	0.3355	-0.697
Mof_C 	C 	0.5988	0.0266	0.4667	-0.365
Mof_H 	H 	0.6662	0.0446	0.445	0.123
Mof_O 	O 	0.8645	0.5128	0.3355	-0.731
Mof_C 	C 	0.9734	0.5722	0.4667	0.369
Mof_H 	H 	0.9554	0.6216	0.445	-0.087
Mof_O 	O 	0.4872	0.3517	0.3355	-0.715
Mof_C 	C 	0.4278	0.4012	0.4667	-0.002
Mof_H 	H 	0.3784	0.3338	0.445	0.003
Mof_O 	O 	0.8645	0.3517	0.1645	-0.731
Mof_C 	C 	0.9734	0.4012	0.0333	0.366
Mof_H 	H 	0.9554	0.3338	0.055	-0.095
Mof_O 	O 	0.4872	0.1355	0.1645	-0.698
Mof_C 	C 	0.4278	0.0266	0.0333	-0.366
Mof_H 	H 	0.3784	0.0446	0.055	0.112
Mof_O 	O 	0.6483	0.5128	0.1645	-0.715
Mof_C 	C 	0.5988	0.5722	0.0333	0.003
Mof_H 	H 	0.6662	0.6216	0.055	0.022
Mof_O 	O 	0.1355	0.6483	0.6645	-0.697
Mof_C 	C 	0.0266	0.5988	0.5333	-0.365
Mof_H 	H 	0.0446	0.6662	0.555	0.123
Mof_O 	O 	0.5128	0.8645	0.6645	-0.731
Mof_C 	C 	0.5722	0.9734	0.5333	0.369
Mof_H 	H 	0.6216	0.9554	0.555	-0.087
Mof_O 	O 	0.3517	0.4872	0.6645	-0.715
Mof_C 	C 	0.4012	0.4278	0.5333	-0.002
Mof_H 	H 	0.3338	0.3784	0.555	0.003
Mof_In	In	0.75136	0.24864	0.25	2.641
Mof_N 	N 	0.8412	0.1588	0.25	-0.404
Mof_In	In	0.75136	0.50272	0.25	2.673
Mof_N 	N 	0.8412	0.6824	0.25	-0.403
Mof_In	In	0.49728	0.24864	0.25	2.607
Mof_N 	N 	0.3176	0.1588	0.25	-0.406
Mof_In	In	0.24864	0.75136	0.75	2.641
Mof_N 	N 	0.1588	0.8412	0.75	-0.404
Mof_In	In	0.24864	0.49728	0.75	2.607
Mof_N 	N 	0.1588	0.3176	0.75	-0.406
Mof_In	In	0.50272	0.75136	0.75	2.673
Mof_N 	N 	0.6824	0.8412	0.75	-0.403
Mof_O 	O 	0.66667	0.33333	0.25	-1.394
Mof_O 	O 	0.33333	0.66667	0.75	-1.394
Mof_C 	C 	0.5567	0.1134	0.1378	0.478
Mof_C 	C 	0.5267	0.0534	0.0678	0.059
Mof_C 	C 	0.8866	0.4433	0.1378	0.671
Mof_C 	C 	0.9466	0.4733	0.0678	-0.399
Mof_C 	C 	0.5567	0.4433	0.1378	0.575
Mof_C 	C 	0.5267	0.4733	0.0678	-0.17
Mof_C 	C 	0.4433	0.8866	0.6378	0.672
Mof_C 	C 	0.4733	0.9466	0.5678	-0.402
Mof_C 	C 	0.1134	0.5567	0.6378	0.477
Mof_C 	C 	0.0534	0.5267	0.5678	0.062
Mof_C 	C 	0.4433	0.5567	0.6378	0.575
Mof_C 	C 	0.4733	0.5267	0.5678	-0.17
Mof_C 	C 	0.1134	0.5567	0.8622	0.478
Mof_C 	C 	0.0534	0.5267	0.9322	0.059
Mof_C 	C 	0.4433	0.8866	0.8622	0.671
Mof_C 	C 	0.4733	0.9466	0.9322	-0.399
Mof_C 	C 	0.4433	0.5567	0.8622	0.575
Mof_C 	C 	0.4733	0.5267	0.9322	-0.17
Mof_C 	C 	0.8866	0.4433	0.3622	0.672
Mof_C 	C 	0.9466	0.4733	0.4322	-0.402
Mof_C 	C 	0.5567	0.1134	0.3622	0.477
Mof_C 	C 	0.5267	0.0534	0.4322	0.062
Mof_C 	C 	0.5567	0.4433	0.3622	0.575
Mof_C 	C 	0.5267	0.4733	0.4322	-0.17
Mof_C 	C 	0.8748	0.1252	0.307	0.142
Mof_H 	H 	0.8621	0.1379	0.3545	-0.08
Mof_N 	N 	0.9279	0.0721	0.2893	-0.237
Mof_C 	C 	0.8748	0.7496	0.307	0.155
Mof_H 	H 	0.8621	0.7242	0.3545	-0.064
Mof_N 	N 	0.9279	0.8558	0.2893	-0.201
Mof_C 	C 	0.2504	0.1252	0.307	0.127
Mof_H 	H 	0.2758	0.1379	0.3545	-0.098
Mof_N 	N 	0.1442	0.0721	0.2893	-0.281
Mof_C 	C 	0.1252	0.8748	0.807	0.142
Mof_H 	H 	0.1379	0.8621	0.8545	-0.08
Mof_N 	N 	0.0721	0.9279	0.7893	-0.237
Mof_C 	C 	0.1252	0.2504	0.807	0.127
Mof_H 	H 	0.1379	0.2758	0.8545	-0.098
Mof_N 	N 	0.0721	0.1442	0.7893	-0.281
Mof_C 	C 	0.7496	0.8748	0.807	0.155
Mof_H 	H 	0.7242	0.8621	0.8545	-0.065
Mof_N 	N 	0.8558	0.9279	0.7893	-0.201
Mof_C 	C 	0.1252	0.8748	0.693	0.142
Mof_H 	H 	0.1379	0.8621	0.6455	-0.08
Mof_N 	N 	0.0721	0.9279	0.7107	-0.237
Mof_C 	C 	0.7496	0.8748	0.693	0.155
Mof_H 	H 	0.7242	0.8621	0.6455	-0.064
Mof_N 	N 	0.8558	0.9279	0.7107	-0.201
Mof_C 	C 	0.1252	0.2504	0.693	0.127
Mof_H 	H 	0.1379	0.2758	0.6455	-0.098
Mof_N 	N 	0.0721	0.1442	0.7107	-0.281
Mof_C 	C 	0.8748	0.1252	0.193	0.142
Mof_H 	H 	0.8621	0.1379	0.1455	-0.08
Mof_N 	N 	0.9279	0.0721	0.2107	-0.237
Mof_C 	C 	0.2504	0.1252	0.193	0.127
Mof_H 	H 	0.2758	0.1379	0.1455	-0.098
Mof_N 	N 	0.1442	0.0721	0.2107	-0.281
Mof_C 	C 	0.8748	0.7496	0.193	0.155
Mof_H 	H 	0.8621	0.7242	0.1455	-0.065
Mof_N 	N 	0.9279	0.8558	0.2107	-0.201
Mof_Ni	Ni	-4.0982e-33	-8.1964e-33	0.36051	0.871
Mof_Ni	Ni	8.1964e-33	0	0.86051	0.871
Mof_Ni	Ni	8.1964e-33	-3.27856e-32	0.63949	0.871
Mof_Ni	Ni	2.0491e-33	0	0.13949	0.871
_end
