data_functionalizedCrystal
_audit_creation_method	'EQeq! by Chris Wilmer'
_symmetry_space_group_name_H-M	'P1'
_symmetry_Int_Tables_number	1
_symmetry_cell_setting	triclinic
loop_
_symmetry_equiv_pos_as_xyz
  x,y,z
_cell_length_a	24.148
_cell_length_b	15.173
_cell_length_c	15.497
_cell_angle_alpha	90
_cell_angle_beta	118.979
_cell_angle_gamma	90
loop_
_atom_site_label
_atom_site_type_symbol
_atom_site_fract_x
_atom_site_fract_y
_atom_site_fract_z
_atom_site_charge
Mof_Cu	Cu	0.23574	0.14314	0.4547	0.799
Mof_Cu	Cu	0.31542	0.23144	0.32811	0.805
Mof_Cu	Cu	0.56792	0.38922	0.51369	0.831
Mof_N 	N 	0.4221	0.2074	0.6359	-0.32
Mof_N 	N 	0.3217	0.1814	0.5269	-0.289
Mof_N 	N 	0.3502	0.2172	0.4789	-0.256
Mof_N 	N 	0.3914	0.2846	0.343	-0.319
Mof_N 	N 	0.4858	0.3468	0.417	-0.259
Mof_N 	N 	0.4602	0.3615	0.3162	-0.259
Mof_N 	N 	0.5726	0.5026	0.3595	-0.249
Mof_N 	N 	0.5994	0.4873	0.4627	-0.259
Mof_N 	N 	0.6606	0.5809	0.4368	-0.298
Mof_N 	N 	0.6356	0.647	0.1426	-0.293
Mof_N 	N 	0.7311	0.6903	0.2565	-0.278
Mof_N 	N 	0.7013	0.654	0.3038	-0.245
Mof_C 	C 	0.3562	0.1376	0.7036	-0.495
Mof_H 	H 	0.3107	0.1336	0.6805	0.099
Mof_H 	H 	0.3761	0.1752	0.7624	0.125
Mof_H 	H 	0.375	0.0786	0.72	0.103
Mof_C 	C 	0.3671	0.1773	0.6228	0.148
Mof_C 	C 	0.4095	0.2327	0.5449	0.148
Mof_C 	C 	0.4578	0.279	0.5304	-0.431
Mof_H 	H 	0.4962	0.2422	0.5582	0.482
Mof_H 	H 	0.4688	0.3341	0.5701	0.214
Mof_C 	C 	0.4425	0.304	0.4287	0.172
Mof_C 	C 	0.4051	0.3243	0.2776	0.182
Mof_C 	C 	0.3604	0.3227	0.1682	-0.506
Mof_H 	H 	0.3206	0.3514	0.1541	0.118
Mof_H 	H 	0.3521	0.2614	0.1453	0.115
Mof_H 	H 	0.3796	0.3541	0.1339	0.11
Mof_C 	C 	0.6923	0.5412	0.6131	-0.472
Mof_H 	H 	0.671	0.514	0.6465	0.119
Mof_H 	H 	0.7009	0.6034	0.6322	0.076
Mof_H 	H 	0.7323	0.5105	0.632	0.106
Mof_C 	C 	0.6505	0.5348	0.5036	0.172
Mof_C 	C 	0.6098	0.5566	0.3486	0.147
Mof_C 	C 	0.5948	0.5906	0.248	-0.346
Mof_H 	H 	0.5766	0.541	0.2009	0.059
Mof_H 	H 	0.5611	0.6355	0.2286	0.086
Mof_C 	C 	0.6447	0.6288	0.234	0.167
Mof_C 	C 	0.6896	0.6857	0.1593	0.188
Mof_C 	C 	0.7028	0.7158	0.0807	-0.542
Mof_H 	H 	0.7196	0.6666	0.0594	0.135
Mof_H 	H 	0.734	0.7636	0.1058	0.123
Mof_H 	H 	0.6636	0.7372	0.0246	0.124
Mof_O 	O 	0.514	0.281	0.586	-0.653
Mof_Cu	Cu	0.73574	0.64314	0.4547	0.8
Mof_Cu	Cu	0.81542	0.73144	0.32811	0.808
Mof_Cu	Cu	0.06792	0.88922	0.51369	0.82
Mof_N 	N 	0.9221	0.7074	0.6359	-0.309
Mof_N 	N 	0.8217	0.6814	0.5269	-0.288
Mof_N 	N 	0.8502	0.7172	0.4789	-0.256
Mof_N 	N 	0.8914	0.7846	0.343	-0.321
Mof_N 	N 	0.9858	0.8468	0.417	-0.24
Mof_N 	N 	0.9602	0.8615	0.3162	-0.244
Mof_N 	N 	0.0726	0.0026	0.3595	-0.255
Mof_N 	N 	0.0994	0.9873	0.4627	-0.264
Mof_N 	N 	0.1606	0.0809	0.4368	-0.298
Mof_N 	N 	0.1356	0.147	0.1426	-0.292
Mof_N 	N 	0.2311	0.1903	0.2565	-0.278
Mof_N 	N 	0.2013	0.154	0.3038	-0.245
Mof_C 	C 	0.8562	0.6376	0.7036	-0.504
Mof_H 	H 	0.8107	0.6336	0.6805	0.102
Mof_H 	H 	0.8761	0.6752	0.7624	0.133
Mof_H 	H 	0.875	0.5786	0.72	0.114
Mof_C 	C 	0.8671	0.6773	0.6228	0.154
Mof_C 	C 	0.9095	0.7327	0.5449	0.161
Mof_C 	C 	0.9578	0.779	0.5304	-0.469
Mof_H 	H 	0.9962	0.7422	0.5582	0.609
Mof_H 	H 	0.9688	0.8341	0.5701	0.268
Mof_C 	C 	0.9425	0.804	0.4287	0.19
Mof_C 	C 	0.9051	0.8243	0.2776	0.189
Mof_C 	C 	0.8604	0.8227	0.1682	-0.514
Mof_H 	H 	0.8206	0.8514	0.1541	0.121
Mof_H 	H 	0.8521	0.7614	0.1453	0.122
Mof_H 	H 	0.8796	0.8541	0.1339	0.119
Mof_C 	C 	0.1923	0.0412	0.6131	-0.472
Mof_H 	H 	0.171	0.014	0.6465	0.119
Mof_H 	H 	0.2009	0.1034	0.6322	0.076
Mof_H 	H 	0.2323	0.0105	0.632	0.105
Mof_C 	C 	0.1505	0.0348	0.5036	0.172
Mof_C 	C 	0.1098	0.0566	0.3486	0.143
Mof_C 	C 	0.0948	0.0906	0.248	-0.34
Mof_H 	H 	0.0766	0.041	0.2009	0.051
Mof_H 	H 	0.0611	0.1355	0.2286	0.078
Mof_C 	C 	0.1447	0.1288	0.234	0.166
Mof_C 	C 	0.1896	0.1857	0.1593	0.184
Mof_C 	C 	0.2028	0.2158	0.0807	-0.534
Mof_H 	H 	0.2196	0.1666	0.0594	0.131
Mof_H 	H 	0.234	0.2636	0.1058	0.12
Mof_H 	H 	0.1636	0.2372	0.0246	0.118
Mof_O 	O 	0.014	0.781	0.586	-0.806
Mof_Cu	Cu	0.76426	0.14314	0.0453	0.8
Mof_Cu	Cu	0.68458	0.23144	0.17189	0.807
Mof_Cu	Cu	0.43208	0.38922	0.98631	0.83
Mof_N 	N 	0.5779	0.2074	0.8641	-0.319
Mof_N 	N 	0.6783	0.1814	0.9731	-0.29
Mof_N 	N 	0.6498	0.2172	0.0211	-0.252
Mof_N 	N 	0.6086	0.2846	0.157	-0.32
Mof_N 	N 	0.5142	0.3468	0.083	-0.259
Mof_N 	N 	0.5398	0.3615	0.1838	-0.259
Mof_N 	N 	0.4274	0.5026	0.1405	-0.249
Mof_N 	N 	0.4006	0.4873	0.0373	-0.255
Mof_N 	N 	0.3394	0.5809	0.0632	-0.296
Mof_N 	N 	0.3644	0.647	0.3574	-0.293
Mof_N 	N 	0.2689	0.6903	0.2435	-0.278
Mof_N 	N 	0.2987	0.654	0.1962	-0.246
Mof_C 	C 	0.6438	0.1376	0.7964	-0.495
Mof_H 	H 	0.6893	0.1336	0.8195	0.099
Mof_H 	H 	0.6239	0.1752	0.7376	0.125
Mof_H 	H 	0.625	0.0786	0.78	0.103
Mof_C 	C 	0.6329	0.1773	0.8772	0.148
Mof_C 	C 	0.5905	0.2327	0.9551	0.146
Mof_C 	C 	0.5422	0.279	0.9696	-0.434
Mof_H 	H 	0.5038	0.2422	0.9418	0.482
Mof_H 	H 	0.5312	0.3341	0.9299	0.214
Mof_C 	C 	0.5575	0.304	0.0713	0.175
Mof_C 	C 	0.5949	0.3243	0.2224	0.181
Mof_C 	C 	0.6396	0.3227	0.3318	-0.506
Mof_H 	H 	0.6794	0.3514	0.3459	0.119
Mof_H 	H 	0.6479	0.2614	0.3547	0.114
Mof_H 	H 	0.6204	0.3541	0.3661	0.109
Mof_C 	C 	0.3077	0.5412	0.8869	-0.463
Mof_H 	H 	0.329	0.514	0.8535	0.116
Mof_H 	H 	0.2991	0.6034	0.8678	0.073
Mof_H 	H 	0.2677	0.5105	0.868	0.101
Mof_C 	C 	0.3495	0.5348	0.9964	0.164
Mof_C 	C 	0.3902	0.5566	0.1514	0.147
Mof_C 	C 	0.4052	0.5906	0.252	-0.346
Mof_H 	H 	0.4234	0.541	0.2991	0.059
Mof_H 	H 	0.4389	0.6355	0.2714	0.086
Mof_C 	C 	0.3553	0.6288	0.266	0.167
Mof_C 	C 	0.3104	0.6857	0.3407	0.186
Mof_C 	C 	0.2972	0.7158	0.4193	-0.536
Mof_H 	H 	0.2804	0.6666	0.4406	0.131
Mof_H 	H 	0.266	0.7636	0.3942	0.12
Mof_H 	H 	0.3364	0.7372	0.4754	0.121
Mof_O 	O 	0.486	0.281	0.914	-0.653
Mof_Cu	Cu	0.26426	0.64314	0.0453	0.801
Mof_Cu	Cu	0.18458	0.73144	0.17189	0.805
Mof_Cu	Cu	0.93208	0.88922	0.98631	0.842
Mof_N 	N 	0.0779	0.7074	0.8641	-0.321
Mof_N 	N 	0.1783	0.6814	0.9731	-0.291
Mof_N 	N 	0.1498	0.7172	0.0211	-0.25
Mof_N 	N 	0.1086	0.7846	0.157	-0.318
Mof_N 	N 	0.0142	0.8468	0.083	-0.275
Mof_N 	N 	0.0398	0.8615	0.1838	-0.267
Mof_N 	N 	0.9274	0.0026	0.1405	-0.236
Mof_N 	N 	0.9006	0.9873	0.0373	-0.249
Mof_N 	N 	0.8394	0.0809	0.0632	-0.297
Mof_N 	N 	0.8644	0.147	0.3574	-0.294
Mof_N 	N 	0.7689	0.1903	0.2435	-0.278
Mof_N 	N 	0.7987	0.154	0.1962	-0.246
Mof_C 	C 	0.1438	0.6376	0.7964	-0.485
Mof_H 	H 	0.1893	0.6336	0.8195	0.095
Mof_H 	H 	0.1239	0.6752	0.7376	0.119
Mof_H 	H 	0.125	0.5786	0.78	0.094
Mof_C 	C 	0.1329	0.6773	0.8772	0.143
Mof_C 	C 	0.0905	0.7327	0.9551	0.134
Mof_C 	C 	0.0422	0.779	0.9696	-0.399
Mof_H 	H 	0.0038	0.7422	0.9418	0.359
Mof_H 	H 	0.0312	0.8341	0.9299	0.162
Mof_C 	C 	0.0575	0.804	0.0713	0.16
Mof_C 	C 	0.0949	0.8243	0.2224	0.176
Mof_C 	C 	0.1396	0.8227	0.3318	-0.499
Mof_H 	H 	0.1794	0.8514	0.3459	0.116
Mof_H 	H 	0.1479	0.7614	0.3547	0.108
Mof_H 	H 	0.1204	0.8541	0.3661	0.104
Mof_C 	C 	0.8077	0.0412	0.8869	-0.464
Mof_H 	H 	0.829	0.014	0.8535	0.117
Mof_H 	H 	0.7991	0.1034	0.8678	0.073
Mof_H 	H 	0.7677	0.0105	0.868	0.102
Mof_C 	C 	0.8495	0.0348	0.9964	0.163
Mof_C 	C 	0.8902	0.0566	0.1514	0.153
Mof_C 	C 	0.9052	0.0906	0.252	-0.355
Mof_H 	H 	0.9234	0.041	0.2991	0.069
Mof_H 	H 	0.9389	0.1355	0.2714	0.098
Mof_C 	C 	0.8553	0.1288	0.266	0.169
Mof_C 	C 	0.8104	0.1857	0.3407	0.19
Mof_C 	C 	0.7972	0.2158	0.4193	-0.544
Mof_H 	H 	0.7804	0.1666	0.4406	0.134
Mof_H 	H 	0.766	0.2636	0.3942	0.124
Mof_H 	H 	0.8364	0.2372	0.4754	0.128
Mof_O 	O 	0.986	0.781	0.914	-0.501
Mof_Cu	Cu	0.76426	0.85686	0.5453	0.799
Mof_Cu	Cu	0.68458	0.76856	0.67189	0.806
Mof_Cu	Cu	0.43208	0.61078	0.48631	0.832
Mof_N 	N 	0.5779	0.7926	0.3641	-0.319
Mof_N 	N 	0.6783	0.8186	0.4731	-0.289
Mof_N 	N 	0.6498	0.7828	0.5211	-0.255
Mof_N 	N 	0.6086	0.7154	0.657	-0.319
Mof_N 	N 	0.5142	0.6532	0.583	-0.259
Mof_N 	N 	0.5398	0.6385	0.6838	-0.259
Mof_N 	N 	0.4274	0.4974	0.6405	-0.249
Mof_N 	N 	0.4006	0.5127	0.5373	-0.258
Mof_N 	N 	0.3394	0.4191	0.5632	-0.299
Mof_N 	N 	0.3644	0.353	0.8574	-0.293
Mof_N 	N 	0.2689	0.3097	0.7435	-0.278
Mof_N 	N 	0.2987	0.346	0.6962	-0.246
Mof_C 	C 	0.6438	0.8624	0.2964	-0.495
Mof_H 	H 	0.6893	0.8664	0.3195	0.099
Mof_H 	H 	0.6239	0.8248	0.2376	0.126
Mof_H 	H 	0.625	0.9214	0.28	0.104
Mof_C 	C 	0.6329	0.8227	0.3772	0.148
Mof_C 	C 	0.5905	0.7673	0.4551	0.148
Mof_C 	C 	0.5422	0.721	0.4696	-0.431
Mof_H 	H 	0.5038	0.7578	0.4418	0.482
Mof_H 	H 	0.5312	0.6659	0.4299	0.214
Mof_C 	C 	0.5575	0.696	0.5713	0.172
Mof_C 	C 	0.5949	0.6757	0.7224	0.181
Mof_C 	C 	0.6396	0.6773	0.8318	-0.503
Mof_H 	H 	0.6794	0.6486	0.8459	0.118
Mof_H 	H 	0.6479	0.7386	0.8547	0.112
Mof_H 	H 	0.6204	0.6459	0.8661	0.108
Mof_C 	C 	0.3077	0.4588	0.3869	-0.469
Mof_H 	H 	0.329	0.486	0.3535	0.118
Mof_H 	H 	0.2991	0.3966	0.3678	0.075
Mof_H 	H 	0.2677	0.4895	0.368	0.102
Mof_C 	C 	0.3495	0.4652	0.4964	0.17
Mof_C 	C 	0.3902	0.4434	0.6514	0.146
Mof_C 	C 	0.4052	0.4094	0.752	-0.346
Mof_H 	H 	0.4234	0.459	0.7991	0.058
Mof_H 	H 	0.4389	0.3645	0.7714	0.086
Mof_C 	C 	0.3553	0.3712	0.766	0.167
Mof_C 	C 	0.3104	0.3143	0.8407	0.185
Mof_C 	C 	0.2972	0.2842	0.9193	-0.535
Mof_H 	H 	0.2804	0.3334	0.9406	0.13
Mof_H 	H 	0.266	0.2364	0.8942	0.12
Mof_H 	H 	0.3364	0.2628	0.9754	0.12
Mof_O 	O 	0.486	0.719	0.414	-0.653
Mof_Cu	Cu	0.26426	0.35686	0.5453	0.799
Mof_Cu	Cu	0.18458	0.26856	0.67189	0.805
Mof_Cu	Cu	0.93208	0.11078	0.48631	0.844
Mof_N 	N 	0.0779	0.2926	0.3641	-0.321
Mof_N 	N 	0.1783	0.3186	0.4731	-0.289
Mof_N 	N 	0.1498	0.2828	0.5211	-0.253
Mof_N 	N 	0.1086	0.2154	0.657	-0.317
Mof_N 	N 	0.0142	0.1532	0.583	-0.276
Mof_N 	N 	0.0398	0.1385	0.6838	-0.267
Mof_N 	N 	0.9274	0.9974	0.6405	-0.236
Mof_N 	N 	0.9006	0.0127	0.5373	-0.253
Mof_N 	N 	0.8394	0.9191	0.5632	-0.299
Mof_N 	N 	0.8644	0.853	0.8574	-0.294
Mof_N 	N 	0.7689	0.8097	0.7435	-0.278
Mof_N 	N 	0.7987	0.846	0.6962	-0.246
Mof_C 	C 	0.1438	0.3624	0.2964	-0.486
Mof_H 	H 	0.1893	0.3664	0.3195	0.096
Mof_H 	H 	0.1239	0.3248	0.2376	0.119
Mof_H 	H 	0.125	0.4214	0.28	0.095
Mof_C 	C 	0.1329	0.3227	0.3772	0.144
Mof_C 	C 	0.0905	0.2673	0.4551	0.137
Mof_C 	C 	0.0422	0.221	0.4696	-0.394
Mof_H 	H 	0.0038	0.2578	0.4418	0.356
Mof_H 	H 	0.0312	0.1659	0.4299	0.161
Mof_C 	C 	0.0575	0.196	0.5713	0.155
Mof_C 	C 	0.0949	0.1757	0.7224	0.176
Mof_C 	C 	0.1396	0.1773	0.8318	-0.498
Mof_H 	H 	0.1794	0.1486	0.8459	0.116
Mof_H 	H 	0.1479	0.2386	0.8547	0.108
Mof_H 	H 	0.1204	0.1459	0.8661	0.103
Mof_C 	C 	0.8077	0.9588	0.3869	-0.469
Mof_H 	H 	0.829	0.986	0.3535	0.119
Mof_H 	H 	0.7991	0.8966	0.3678	0.075
Mof_H 	H 	0.7677	0.9895	0.368	0.103
Mof_C 	C 	0.8495	0.9652	0.4964	0.17
Mof_C 	C 	0.8902	0.9434	0.6514	0.152
Mof_C 	C 	0.9052	0.9094	0.752	-0.354
Mof_H 	H 	0.9234	0.959	0.7991	0.069
Mof_H 	H 	0.9389	0.8645	0.7714	0.098
Mof_C 	C 	0.8553	0.8712	0.766	0.169
Mof_C 	C 	0.8104	0.8143	0.8407	0.188
Mof_C 	C 	0.7972	0.7842	0.9193	-0.54
Mof_H 	H 	0.7804	0.8334	0.9406	0.131
Mof_H 	H 	0.766	0.7364	0.8942	0.122
Mof_H 	H 	0.8364	0.7628	0.9754	0.125
Mof_O 	O 	0.986	0.219	0.414	-0.498
Mof_Cu	Cu	0.23574	0.85686	0.9547	0.798
Mof_Cu	Cu	0.31542	0.76856	0.82811	0.806
Mof_Cu	Cu	0.56792	0.61078	0.01369	0.833
Mof_N 	N 	0.4221	0.7926	0.1359	-0.32
Mof_N 	N 	0.3217	0.8186	0.0269	-0.286
Mof_N 	N 	0.3502	0.7828	0.9789	-0.258
Mof_N 	N 	0.3914	0.7154	0.843	-0.319
Mof_N 	N 	0.4858	0.6532	0.917	-0.26
Mof_N 	N 	0.4602	0.6385	0.8162	-0.259
Mof_N 	N 	0.5726	0.4974	0.8595	-0.249
Mof_N 	N 	0.5994	0.5127	0.9627	-0.262
Mof_N 	N 	0.6606	0.4191	0.9368	-0.301
Mof_N 	N 	0.6356	0.353	0.6426	-0.293
Mof_N 	N 	0.7311	0.3097	0.7565	-0.277
Mof_N 	N 	0.7013	0.346	0.8038	-0.246
Mof_C 	C 	0.3562	0.8624	0.2036	-0.495
Mof_H 	H 	0.3107	0.8664	0.1805	0.099
Mof_H 	H 	0.3761	0.8248	0.2624	0.125
Mof_H 	H 	0.375	0.9214	0.22	0.104
Mof_C 	C 	0.3671	0.8227	0.1228	0.149
Mof_C 	C 	0.4095	0.7673	0.0449	0.151
Mof_C 	C 	0.4578	0.721	0.0304	-0.427
Mof_H 	H 	0.4962	0.7578	0.0582	0.481
Mof_H 	H 	0.4688	0.6659	0.0701	0.213
Mof_C 	C 	0.4425	0.696	0.9287	0.168
Mof_C 	C 	0.4051	0.6757	0.7776	0.181
Mof_C 	C 	0.3604	0.6773	0.6682	-0.504
Mof_H 	H 	0.3206	0.6486	0.6541	0.117
Mof_H 	H 	0.3521	0.7386	0.6453	0.113
Mof_H 	H 	0.3796	0.6459	0.6339	0.109
Mof_C 	C 	0.6923	0.4588	0.1131	-0.478
Mof_H 	H 	0.671	0.486	0.1465	0.121
Mof_H 	H 	0.7009	0.3966	0.1322	0.078
Mof_H 	H 	0.7323	0.4895	0.132	0.108
Mof_C 	C 	0.6505	0.4652	0.0036	0.179
Mof_C 	C 	0.6098	0.4434	0.8486	0.146
Mof_C 	C 	0.5948	0.4094	0.748	-0.346
Mof_H 	H 	0.5766	0.459	0.7009	0.059
Mof_H 	H 	0.5611	0.3645	0.7286	0.086
Mof_C 	C 	0.6447	0.3712	0.734	0.167
Mof_C 	C 	0.6896	0.3143	0.6593	0.187
Mof_C 	C 	0.7028	0.2842	0.5807	-0.538
Mof_H 	H 	0.7196	0.3334	0.5594	0.133
Mof_H 	H 	0.734	0.2364	0.6058	0.122
Mof_H 	H 	0.6636	0.2628	0.5246	0.122
Mof_O 	O 	0.514	0.719	0.086	-0.652
Mof_Cu	Cu	0.73574	0.35686	0.9547	0.799
Mof_Cu	Cu	0.81542	0.26856	0.82811	0.808
Mof_Cu	Cu	0.06792	0.11078	0.01369	0.822
Mof_N 	N 	0.9221	0.2926	0.1359	-0.309
Mof_N 	N 	0.8217	0.3186	0.0269	-0.286
Mof_N 	N 	0.8502	0.2828	0.9789	-0.259
Mof_N 	N 	0.8914	0.2154	0.843	-0.321
Mof_N 	N 	0.9858	0.1532	0.917	-0.241
Mof_N 	N 	0.9602	0.1385	0.8162	-0.245
Mof_N 	N 	0.0726	0.9974	0.8595	-0.257
Mof_N 	N 	0.0994	0.0127	0.9627	-0.266
Mof_N 	N 	0.1606	0.9191	0.9368	-0.301
Mof_N 	N 	0.1356	0.853	0.6426	-0.292
Mof_N 	N 	0.2311	0.8097	0.7565	-0.278
Mof_N 	N 	0.2013	0.846	0.8038	-0.246
Mof_C 	C 	0.8562	0.3624	0.2036	-0.505
Mof_H 	H 	0.8107	0.3664	0.1805	0.103
Mof_H 	H 	0.8761	0.3248	0.2624	0.134
Mof_H 	H 	0.875	0.4214	0.22	0.115
Mof_C 	C 	0.8671	0.3227	0.1228	0.155
Mof_C 	C 	0.9095	0.2673	0.0449	0.164
Mof_C 	C 	0.9578	0.221	0.0304	-0.465
Mof_H 	H 	0.9962	0.2578	0.0582	0.607
Mof_H 	H 	0.9688	0.1659	0.0701	0.267
Mof_C 	C 	0.9425	0.196	0.9287	0.186
Mof_C 	C 	0.9051	0.1757	0.7776	0.188
Mof_C 	C 	0.8604	0.1773	0.6682	-0.511
Mof_H 	H 	0.8206	0.1486	0.6541	0.12
Mof_H 	H 	0.8521	0.2386	0.6453	0.12
Mof_H 	H 	0.8796	0.1459	0.6339	0.117
Mof_C 	C 	0.1923	0.9588	0.1131	-0.478
Mof_H 	H 	0.171	0.986	0.1465	0.12
Mof_H 	H 	0.2009	0.8966	0.1322	0.078
Mof_H 	H 	0.2323	0.9895	0.132	0.106
Mof_C 	C 	0.1505	0.9652	0.0036	0.18
Mof_C 	C 	0.1098	0.9434	0.8486	0.142
Mof_C 	C 	0.0948	0.9094	0.748	-0.339
Mof_H 	H 	0.0766	0.959	0.7009	0.05
Mof_H 	H 	0.0611	0.8645	0.7286	0.078
Mof_C 	C 	0.1447	0.8712	0.734	0.165
Mof_C 	C 	0.1896	0.8143	0.6593	0.183
Mof_C 	C 	0.2028	0.7842	0.5807	-0.531
Mof_H 	H 	0.2196	0.8334	0.5594	0.129
Mof_H 	H 	0.234	0.7364	0.6058	0.118
Mof_H 	H 	0.1636	0.7628	0.5246	0.116
Mof_O 	O 	0.014	0.219	0.086	-0.804
Mof_Cu	Cu	0.5	0.2077	0.75	0.817
Mof_Cu	Cu	2.67896e-33	0.7077	0.75	0.793
Mof_Cu	Cu	0.5	0.7923	0.25	0.817
Mof_Cu	Cu	8.92987e-34	0.2923	0.25	0.794
Mof_Cu	Cu	0.5	0.4326	0.25	0.824
Mof_Cu	Cu	8.92987e-34	0.9326	0.25	0.8
Mof_Cu	Cu	0.5	0.5674	0.75	0.824
Mof_Cu	Cu	2.67896e-33	0.0674	0.75	0.801
_end
