# CIF file generated by openbabel 3.1.0, see https://openbabel.org
data_I
_chemical_name_common 'image0'
_cell_length_a 28.735
_cell_length_b 14.2112
_cell_length_c 14.3322
_cell_angle_alpha 90
_cell_angle_beta 95.126
_cell_angle_gamma 90
_space_group_name_H-M_alt 'P 1'
_space_group_name_Hall 'P 1'
loop_
    _symmetry_equiv_pos_as_xyz
    x,y,z
loop_
    _atom_site_label
    _atom_site_type_symbol
    _atom_site_fract_x
    _atom_site_fract_y
    _atom_site_fract_z
    _atom_site_occupancy
    Eu1      Eu       0.31478    0.19578    0.52389    1.000
    C1       C        0.40240    0.25350    0.46980    1.000
    C2       C        0.44610    0.28660    0.43140    1.000
    C3       C        0.47340    0.22350    0.39030    1.000
    H1       H        0.46340    0.16170    0.38080    1.000
    C4       C        0.51640    0.25200    0.36250    1.000
    H2       H        0.53630    0.20730    0.34050    1.000
    C5       C        0.52970    0.34270    0.36680    1.000
    C6       C        0.50230    0.40640    0.40240    1.000
    H3       H        0.51130    0.46920    0.40460    1.000
    C7       C        0.45950    0.38000    0.43710    1.000
    H4       H        0.44080    0.42460    0.46310    1.000
    C8       C        0.57650    0.37090    0.33400    1.000
    H5       H        0.59400    0.31600    0.35400    1.000
    C9       C        0.74390    0.60290    0.39220    1.000
    C10      C        0.71240    0.53880    0.33380    1.000
    C11      C        0.66550    0.53030    0.34950    1.000
    H6       H        0.65270    0.57150    0.39070    1.000
    C12      C        0.63770    0.46240    0.30550    1.000
    C13      C        0.65580    0.40800    0.23600    1.000
    H7       H        0.63680    0.36460    0.20240    1.000
    C14      C        0.70230    0.41830    0.21660    1.000
    C15      C        0.73050    0.48290    0.26670    1.000
    H8       H        0.76170    0.48880    0.25530    1.000
    C16      C        0.72190    0.35500    0.14540    1.000
    N1       N        0.59180    0.44980    0.33310    1.000
    O1       O        0.38150    0.30800    0.52190    1.000
    O2       O        0.38760    0.17370    0.45080    1.000
    O3       O        0.78710    0.58510    0.40290    1.000
    O4       O        0.72700    0.67210    0.43400    1.000
    O5       O        0.76230    0.37310    0.12380    1.000
    O6       O        0.69580    0.28990    0.11210    1.000
    Eu2      Eu       0.81478    0.69578    0.52389    1.000
    C17      C        0.90240    0.75350    0.46980    1.000
    C18      C        0.94610    0.78660    0.43140    1.000
    C19      C        0.97340    0.72350    0.39030    1.000
    H9       H        0.96340    0.66170    0.38080    1.000
    C20      C        0.01640    0.75200    0.36250    1.000
    H10      H        0.03630    0.70730    0.34050    1.000
    C21      C        0.02970    0.84270    0.36680    1.000
    C22      C        0.00230    0.90640    0.40240    1.000
    H11      H        0.01130    0.96920    0.40460    1.000
    C23      C        0.95950    0.88000    0.43710    1.000
    H12      H        0.94080    0.92460    0.46310    1.000
    C24      C        0.07650    0.87090    0.33400    1.000
    H13      H        0.09400    0.81600    0.35400    1.000
    C25      C        0.24390    0.10290    0.39220    1.000
    C26      C        0.21240    0.03880    0.33380    1.000
    C27      C        0.16550    0.03030    0.34950    1.000
    H14      H        0.15270    0.07150    0.39070    1.000
    C28      C        0.13770    0.96240    0.30550    1.000
    C29      C        0.15580    0.90800    0.23600    1.000
    H15      H        0.13680    0.86460    0.20240    1.000
    C30      C        0.20230    0.91830    0.21660    1.000
    C31      C        0.23050    0.98290    0.26670    1.000
    H16      H        0.26170    0.98880    0.25530    1.000
    C32      C        0.22190    0.85500    0.14540    1.000
    N2       N        0.09180    0.94980    0.33310    1.000
    O7       O        0.88150    0.80800    0.52190    1.000
    O8       O        0.88760    0.67370    0.45080    1.000
    O9       O        0.28710    0.08510    0.40290    1.000
    O10      O        0.22700    0.17210    0.43400    1.000
    O11      O        0.26230    0.87310    0.12380    1.000
    O12      O        0.19580    0.78990    0.11210    1.000
    Eu3      Eu       0.68522    0.19578    0.97611    1.000
    C33      C        0.59760    0.25350    0.03020    1.000
    C34      C        0.55390    0.28660    0.06860    1.000
    C35      C        0.52660    0.22350    0.10970    1.000
    H17      H        0.53660    0.16170    0.11920    1.000
    C36      C        0.48360    0.25200    0.13750    1.000
    H18      H        0.46370    0.20730    0.15950    1.000
    C37      C        0.47030    0.34270    0.13320    1.000
    C38      C        0.49770    0.40640    0.09760    1.000
    H19      H        0.48870    0.46920    0.09540    1.000
    C39      C        0.54050    0.38000    0.06290    1.000
    H20      H        0.55920    0.42460    0.03690    1.000
    C40      C        0.42350    0.37090    0.16600    1.000
    H21      H        0.40600    0.31600    0.14600    1.000
    C41      C        0.25610    0.60290    0.10780    1.000
    C42      C        0.28760    0.53880    0.16620    1.000
    C43      C        0.33450    0.53030    0.15050    1.000
    H22      H        0.34730    0.57150    0.10930    1.000
    C44      C        0.36230    0.46240    0.19450    1.000
    C45      C        0.34420    0.40800    0.26400    1.000
    H23      H        0.36320    0.36460    0.29760    1.000
    C46      C        0.29770    0.41830    0.28340    1.000
    C47      C        0.26950    0.48290    0.23330    1.000
    H24      H        0.23830    0.48880    0.24470    1.000
    C48      C        0.27810    0.35500    0.35460    1.000
    N3       N        0.40820    0.44980    0.16690    1.000
    O13      O        0.61850    0.30800    0.97810    1.000
    O14      O        0.61240    0.17370    0.04920    1.000
    O15      O        0.21290    0.58510    0.09710    1.000
    O16      O        0.27300    0.67210    0.06600    1.000
    O17      O        0.23770    0.37310    0.37620    1.000
    O18      O        0.30420    0.28990    0.38790    1.000
    Eu4      Eu       0.18522    0.69578    0.97611    1.000
    C49      C        0.09760    0.75350    0.03020    1.000
    C50      C        0.05390    0.78660    0.06860    1.000
    C51      C        0.02660    0.72350    0.10970    1.000
    H25      H        0.03660    0.66170    0.11920    1.000
    C52      C        0.98360    0.75200    0.13750    1.000
    H26      H        0.96370    0.70730    0.15950    1.000
    C53      C        0.97030    0.84270    0.13320    1.000
    C54      C        0.99770    0.90640    0.09760    1.000
    H27      H        0.98870    0.96920    0.09540    1.000
    C55      C        0.04050    0.88000    0.06290    1.000
    H28      H        0.05920    0.92460    0.03690    1.000
    C56      C        0.92350    0.87090    0.16600    1.000
    H29      H        0.90600    0.81600    0.14600    1.000
    C57      C        0.75610    0.10290    0.10780    1.000
    C58      C        0.78760    0.03880    0.16620    1.000
    C59      C        0.83450    0.03030    0.15050    1.000
    H30      H        0.84730    0.07150    0.10930    1.000
    C60      C        0.86230    0.96240    0.19450    1.000
    C61      C        0.84420    0.90800    0.26400    1.000
    H31      H        0.86320    0.86460    0.29760    1.000
    C62      C        0.79770    0.91830    0.28340    1.000
    C63      C        0.76950    0.98290    0.23330    1.000
    H32      H        0.73830    0.98880    0.24470    1.000
    C64      C        0.77810    0.85500    0.35460    1.000
    N4       N        0.90820    0.94980    0.16690    1.000
    O19      O        0.11850    0.80800    0.97810    1.000
    O20      O        0.11240    0.67370    0.04920    1.000
    O21      O        0.71290    0.08510    0.09710    1.000
    O22      O        0.77300    0.17210    0.06600    1.000
    O23      O        0.73770    0.87310    0.37620    1.000
    O24      O        0.80420    0.78990    0.38790    1.000
    Eu5      Eu       0.68522    0.80422    0.47611    1.000
    C65      C        0.59760    0.74650    0.53020    1.000
    C66      C        0.55390    0.71340    0.56860    1.000
    C67      C        0.52660    0.77650    0.60970    1.000
    H33      H        0.53660    0.83830    0.61920    1.000
    C68      C        0.48360    0.74800    0.63750    1.000
    H34      H        0.46370    0.79270    0.65950    1.000
    C69      C        0.47030    0.65730    0.63320    1.000
    C70      C        0.49770    0.59360    0.59760    1.000
    H35      H        0.48870    0.53080    0.59540    1.000
    C71      C        0.54050    0.62000    0.56290    1.000
    H36      H        0.55920    0.57540    0.53690    1.000
    C72      C        0.42350    0.62910    0.66600    1.000
    H37      H        0.40600    0.68400    0.64600    1.000
    C73      C        0.25610    0.39710    0.60780    1.000
    C74      C        0.28760    0.46120    0.66620    1.000
    C75      C        0.33450    0.46970    0.65050    1.000
    H38      H        0.34730    0.42850    0.60930    1.000
    C76      C        0.36230    0.53760    0.69450    1.000
    C77      C        0.34420    0.59200    0.76400    1.000
    H39      H        0.36320    0.63540    0.79760    1.000
    C78      C        0.29770    0.58170    0.78340    1.000
    C79      C        0.26950    0.51710    0.73330    1.000
    H40      H        0.23830    0.51120    0.74470    1.000
    C80      C        0.27810    0.64500    0.85460    1.000
    N5       N        0.40820    0.55020    0.66690    1.000
    O25      O        0.61850    0.69200    0.47810    1.000
    O26      O        0.61240    0.82630    0.54920    1.000
    O27      O        0.21290    0.41490    0.59710    1.000
    O28      O        0.27300    0.32790    0.56600    1.000
    O29      O        0.23770    0.62690    0.87620    1.000
    O30      O        0.30420    0.71010    0.88790    1.000
    Eu6      Eu       0.18522    0.30422    0.47611    1.000
    C81      C        0.09760    0.24650    0.53020    1.000
    C82      C        0.05390    0.21340    0.56860    1.000
    C83      C        0.02660    0.27650    0.60970    1.000
    H41      H        0.03660    0.33830    0.61920    1.000
    C84      C        0.98360    0.24800    0.63750    1.000
    H42      H        0.96370    0.29270    0.65950    1.000
    C85      C        0.97030    0.15730    0.63320    1.000
    C86      C        0.99770    0.09360    0.59760    1.000
    H43      H        0.98870    0.03080    0.59540    1.000
    C87      C        0.04050    0.12000    0.56290    1.000
    H44      H        0.05920    0.07540    0.53690    1.000
    C88      C        0.92350    0.12910    0.66600    1.000
    H45      H        0.90600    0.18400    0.64600    1.000
    C89      C        0.75610    0.89710    0.60780    1.000
    C90      C        0.78760    0.96120    0.66620    1.000
    C91      C        0.83450    0.96970    0.65050    1.000
    H46      H        0.84730    0.92850    0.60930    1.000
    C92      C        0.86230    0.03760    0.69450    1.000
    C93      C        0.84420    0.09200    0.76400    1.000
    H47      H        0.86320    0.13540    0.79760    1.000
    C94      C        0.79770    0.08170    0.78340    1.000
    C95      C        0.76950    0.01710    0.73330    1.000
    H48      H        0.73830    0.01120    0.74470    1.000
    C96      C        0.77810    0.14500    0.85460    1.000
    N6       N        0.90820    0.05020    0.66690    1.000
    O31      O        0.11850    0.19200    0.47810    1.000
    O32      O        0.11240    0.32630    0.54920    1.000
    O33      O        0.71290    0.91490    0.59710    1.000
    O34      O        0.77300    0.82790    0.56600    1.000
    O35      O        0.73770    0.12690    0.87620    1.000
    O36      O        0.80420    0.21010    0.88790    1.000
    Eu7      Eu       0.31478    0.80422    0.02389    1.000
    C97      C        0.40240    0.74650    0.96980    1.000
    C98      C        0.44610    0.71340    0.93140    1.000
    C99      C        0.47340    0.77650    0.89030    1.000
    H49      H        0.46340    0.83830    0.88080    1.000
    C100     C        0.51640    0.74800    0.86250    1.000
    H50      H        0.53630    0.79270    0.84050    1.000
    C101     C        0.52970    0.65730    0.86680    1.000
    C102     C        0.50230    0.59360    0.90240    1.000
    H51      H        0.51130    0.53080    0.90460    1.000
    C103     C        0.45950    0.62000    0.93710    1.000
    H52      H        0.44080    0.57540    0.96310    1.000
    C104     C        0.57650    0.62910    0.83400    1.000
    H53      H        0.59400    0.68400    0.85400    1.000
    C105     C        0.74390    0.39710    0.89220    1.000
    C106     C        0.71240    0.46120    0.83380    1.000
    C107     C        0.66550    0.46970    0.84950    1.000
    H54      H        0.65270    0.42850    0.89070    1.000
    C108     C        0.63770    0.53760    0.80550    1.000
    C109     C        0.65580    0.59200    0.73600    1.000
    H55      H        0.63680    0.63540    0.70240    1.000
    C110     C        0.70230    0.58170    0.71660    1.000
    C111     C        0.73050    0.51710    0.76670    1.000
    H56      H        0.76170    0.51120    0.75530    1.000
    C112     C        0.72190    0.64500    0.64540    1.000
    N7       N        0.59180    0.55020    0.83310    1.000
    O37      O        0.38150    0.69200    0.02190    1.000
    O38      O        0.38760    0.82630    0.95080    1.000
    O39      O        0.78710    0.41490    0.90290    1.000
    O40      O        0.72700    0.32790    0.93400    1.000
    O41      O        0.76230    0.62690    0.62380    1.000
    O42      O        0.69580    0.71010    0.61210    1.000
    Eu8      Eu       0.81478    0.30422    0.02389    1.000
    C113     C        0.90240    0.24650    0.96980    1.000
    C114     C        0.94610    0.21340    0.93140    1.000
    C115     C        0.97340    0.27650    0.89030    1.000
    H57      H        0.96340    0.33830    0.88080    1.000
    C116     C        0.01640    0.24800    0.86250    1.000
    H58      H        0.03630    0.29270    0.84050    1.000
    C117     C        0.02970    0.15730    0.86680    1.000
    C118     C        0.00230    0.09360    0.90240    1.000
    H59      H        0.01130    0.03080    0.90460    1.000
    C119     C        0.95950    0.12000    0.93710    1.000
    H60      H        0.94080    0.07540    0.96310    1.000
    C120     C        0.07650    0.12910    0.83400    1.000
    H61      H        0.09400    0.18400    0.85400    1.000
    C121     C        0.24390    0.89710    0.89220    1.000
    C122     C        0.21240    0.96120    0.83380    1.000
    C123     C        0.16550    0.96970    0.84950    1.000
    H62      H        0.15270    0.92850    0.89070    1.000
    C124     C        0.13770    0.03760    0.80550    1.000
    C125     C        0.15580    0.09200    0.73600    1.000
    H63      H        0.13680    0.13540    0.70240    1.000
    C126     C        0.20230    0.08170    0.71660    1.000
    C127     C        0.23050    0.01710    0.76670    1.000
    H64      H        0.26170    0.01120    0.75530    1.000
    C128     C        0.22190    0.14500    0.64540    1.000
    N8       N        0.09180    0.05020    0.83310    1.000
    O43      O        0.88150    0.19200    0.02190    1.000
    O44      O        0.88760    0.32630    0.95080    1.000
    O45      O        0.28710    0.91490    0.90290    1.000
    O46      O        0.22700    0.82790    0.93400    1.000
    O47      O        0.26230    0.12690    0.62380    1.000
    O48      O        0.19580    0.21010    0.61210    1.000
