data_functionalizedCrystal
_audit_creation_method	'EQeq! by Chris Wilmer'
_symmetry_space_group_name_H-M	'P1'
_symmetry_Int_Tables_number	1
_symmetry_cell_setting	triclinic
loop_
_symmetry_equiv_pos_as_xyz
  x,y,z
_cell_length_a	29.846
_cell_length_b	21.31
_cell_length_c	12.09
_cell_angle_alpha	90
_cell_angle_beta	90
_cell_angle_gamma	90
loop_
_atom_site_label
_atom_site_type_symbol
_atom_site_fract_x
_atom_site_fract_y
_atom_site_fract_z
_atom_site_charge
Mof_Fe	Fe	0.47485	0.24062	0.15566	0.695
Mof_Fe	Fe	0.64892	0.11245	0.6638	0.648
Mof_Fe	Fe	0.65784	0.54653	0.16011	0.649
Mof_N 	N 	0.5175	0.1797	0.256	-0.213
Mof_C 	C 	0.5372	0.1466	0.3098	0.19
Mof_N 	N 	0.5565	0.1049	0.3702	-0.197
Mof_C 	C 	0.5844	0.1139	0.4453	0.211
Mof_N 	N 	0.6087	0.114	0.5128	-0.226
Mof_N 	N 	0.5304	0.3025	0.1207	-0.207
Mof_C 	C 	0.5522	0.3416	0.0826	0.179
Mof_N 	N 	0.5758	0.3802	0.0288	-0.174
Mof_C 	C 	0.5986	0.4249	0.0893	0.173
Mof_N 	N 	0.6179	0.4654	0.1211	-0.207
Mof_N 	N 	0.4321	0.3007	0.0634	-0.2
Mof_C 	C 	0.4264	0.3454	0.0078	0.157
Mof_N 	N 	0.4278	0.4016	0.9626	-0.174
Mof_C 	C 	0.3999	0.4103	0.8829	0.176
Mof_N 	N 	0.3811	0.4294	0.8096	-0.209
Mof_N 	N 	0.4906	0.1917	0.0103	-0.208
Mof_C 	C 	0.5034	0.1734	0.9277	0.162
Mof_N 	N 	0.5126	0.1516	0.8233	-0.165
Mof_C 	C 	0.5554	0.1473	0.7903	0.167
Mof_N 	N 	0.5897	0.1431	0.7508	-0.211
Mof_N 	N 	0.4214	0.1756	0.1927	-0.2
Mof_C 	C 	0.4061	0.1301	0.2306	0.165
Mof_N 	N 	0.3878	0.0816	0.2827	-0.174
Mof_C 	C 	0.3769	0.0302	0.234	0.176
Mof_N 	N 	0.3666	0.9836	0.1916	-0.204
Mof_N 	N 	0.4577	0.2954	0.3046	-0.208
Mof_C 	C 	0.4508	0.3146	0.3895	0.182
Mof_N 	N 	0.4497	0.3414	0.4847	-0.175
Mof_C 	C 	0.4129	0.3692	0.5183	0.154
Mof_N 	N 	0.3835	0.3972	0.567	-0.208
Mof_N 	N 	0.6899	0.1116	0.8118	-0.214
Mof_C 	C 	0.7063	0.0928	0.8898	0.181
Mof_N 	N 	0.725	0.065	0.9714	-0.185
Mof_C 	C 	0.7612	0.0828	0.0206	0.176
Mof_N 	N 	0.7936	0.0916	0.071	-0.215
Mof_N 	N 	0.7022	0.4947	0.2615	-0.209
Mof_C 	C 	0.7349	0.4871	0.3083	0.154
Mof_N 	N 	0.7726	0.466	0.3591	-0.167
Mof_C 	C 	0.7877	0.4963	0.4522	0.173
Mof_N 	N 	0.8001	0.5245	0.5208	-0.219
Mof_Fe	Fe	0.52515	0.75938	0.65566	0.696
Mof_Fe	Fe	0.35108	0.88755	0.1638	0.65
Mof_Fe	Fe	0.34216	0.45347	0.66011	0.649
Mof_N 	N 	0.4825	0.8203	0.756	-0.213
Mof_C 	C 	0.4628	0.8534	0.8098	0.189
Mof_N 	N 	0.4435	0.8951	0.8702	-0.196
Mof_C 	C 	0.4156	0.8861	0.9453	0.207
Mof_N 	N 	0.3913	0.886	0.0128	-0.224
Mof_N 	N 	0.4696	0.6975	0.6207	-0.207
Mof_C 	C 	0.4478	0.6584	0.5826	0.178
Mof_N 	N 	0.4242	0.6198	0.5288	-0.174
Mof_C 	C 	0.4014	0.5751	0.5893	0.172
Mof_N 	N 	0.3821	0.5346	0.6211	-0.207
Mof_N 	N 	0.5679	0.6993	0.5634	-0.2
Mof_C 	C 	0.5736	0.6546	0.5078	0.155
Mof_N 	N 	0.5722	0.5984	0.4626	-0.173
Mof_C 	C 	0.6001	0.5897	0.3829	0.176
Mof_N 	N 	0.6189	0.5706	0.3096	-0.209
Mof_N 	N 	0.5094	0.8083	0.5103	-0.209
Mof_C 	C 	0.4966	0.8266	0.4277	0.165
Mof_N 	N 	0.4874	0.8484	0.3233	-0.165
Mof_C 	C 	0.4446	0.8527	0.2903	0.168
Mof_N 	N 	0.4103	0.8569	0.2508	-0.211
Mof_N 	N 	0.5786	0.8244	0.6927	-0.2
Mof_C 	C 	0.5939	0.8699	0.7306	0.164
Mof_N 	N 	0.6122	0.9184	0.7827	-0.175
Mof_C 	C 	0.6231	0.9698	0.734	0.176
Mof_N 	N 	0.6334	0.0164	0.6916	-0.205
Mof_N 	N 	0.5423	0.7046	0.8046	-0.208
Mof_C 	C 	0.5492	0.6854	0.8895	0.182
Mof_N 	N 	0.5503	0.6586	0.9847	-0.176
Mof_C 	C 	0.5871	0.6308	0.0183	0.156
Mof_N 	N 	0.6165	0.6028	0.067	-0.208
Mof_N 	N 	0.3101	0.8884	0.3118	-0.214
Mof_C 	C 	0.2937	0.9072	0.3898	0.181
Mof_N 	N 	0.275	0.935	0.4714	-0.184
Mof_C 	C 	0.2388	0.9172	0.5206	0.174
Mof_N 	N 	0.2064	0.9084	0.571	-0.214
Mof_N 	N 	0.2978	0.5053	0.7615	-0.209
Mof_C 	C 	0.2651	0.5129	0.8083	0.154
Mof_N 	N 	0.2274	0.534	0.8591	-0.166
Mof_C 	C 	0.2123	0.5037	0.9522	0.17
Mof_N 	N 	0.1999	0.4755	0.0208	-0.217
Mof_Fe	Fe	0.97485	0.75938	0.15566	0.696
Mof_Fe	Fe	0.14892	0.88755	0.6638	0.649
Mof_Fe	Fe	0.15784	0.45347	0.16011	0.65
Mof_N 	N 	0.0175	0.8203	0.256	-0.212
Mof_C 	C 	0.0372	0.8534	0.3098	0.19
Mof_N 	N 	0.0565	0.8951	0.3702	-0.197
Mof_C 	C 	0.0844	0.8861	0.4453	0.211
Mof_N 	N 	0.1087	0.886	0.5128	-0.226
Mof_N 	N 	0.0304	0.6975	0.1207	-0.207
Mof_C 	C 	0.0522	0.6584	0.0826	0.179
Mof_N 	N 	0.0758	0.6198	0.0288	-0.174
Mof_C 	C 	0.0986	0.5751	0.0893	0.173
Mof_N 	N 	0.1179	0.5346	0.1211	-0.207
Mof_N 	N 	0.9321	0.6993	0.0634	-0.2
Mof_C 	C 	0.9264	0.6546	0.0078	0.157
Mof_N 	N 	0.9278	0.5984	0.9626	-0.174
Mof_C 	C 	0.8999	0.5897	0.8829	0.176
Mof_N 	N 	0.8811	0.5706	0.8096	-0.209
Mof_N 	N 	0.9906	0.8083	0.0103	-0.208
Mof_C 	C 	0.0034	0.8266	0.9277	0.162
Mof_N 	N 	0.0126	0.8484	0.8233	-0.165
Mof_C 	C 	0.0554	0.8527	0.7903	0.167
Mof_N 	N 	0.0897	0.8569	0.7508	-0.211
Mof_N 	N 	0.9214	0.8244	0.1927	-0.2
Mof_C 	C 	0.9061	0.8699	0.2306	0.165
Mof_N 	N 	0.8878	0.9184	0.2827	-0.174
Mof_C 	C 	0.8769	0.9698	0.234	0.176
Mof_N 	N 	0.8666	0.0164	0.1916	-0.204
Mof_N 	N 	0.9577	0.7046	0.3046	-0.208
Mof_C 	C 	0.9508	0.6854	0.3895	0.182
Mof_N 	N 	0.9497	0.6586	0.4847	-0.175
Mof_C 	C 	0.9129	0.6308	0.5183	0.154
Mof_N 	N 	0.8835	0.6028	0.567	-0.208
Mof_N 	N 	0.1899	0.8884	0.8118	-0.214
Mof_C 	C 	0.2063	0.9072	0.8898	0.181
Mof_N 	N 	0.225	0.935	0.9714	-0.185
Mof_C 	C 	0.2612	0.9172	0.0206	0.176
Mof_N 	N 	0.2936	0.9084	0.071	-0.215
Mof_N 	N 	0.2022	0.5053	0.2615	-0.209
Mof_C 	C 	0.2349	0.5129	0.3083	0.154
Mof_N 	N 	0.2726	0.534	0.3591	-0.167
Mof_C 	C 	0.2877	0.5037	0.4522	0.173
Mof_N 	N 	0.3001	0.4755	0.5208	-0.219
Mof_Fe	Fe	0.02515	0.24062	0.65566	0.696
Mof_Fe	Fe	0.85108	0.11245	0.1638	0.65
Mof_Fe	Fe	0.84216	0.54653	0.66011	0.649
Mof_N 	N 	0.9825	0.1797	0.756	-0.212
Mof_C 	C 	0.9628	0.1466	0.8098	0.189
Mof_N 	N 	0.9435	0.1049	0.8702	-0.196
Mof_C 	C 	0.9156	0.1139	0.9453	0.208
Mof_N 	N 	0.8913	0.114	0.0128	-0.224
Mof_N 	N 	0.9696	0.3025	0.6207	-0.207
Mof_C 	C 	0.9478	0.3416	0.5826	0.178
Mof_N 	N 	0.9242	0.3802	0.5288	-0.174
Mof_C 	C 	0.9014	0.4249	0.5893	0.172
Mof_N 	N 	0.8821	0.4654	0.6211	-0.207
Mof_N 	N 	0.0679	0.3007	0.5634	-0.2
Mof_C 	C 	0.0736	0.3454	0.5078	0.155
Mof_N 	N 	0.0722	0.4016	0.4626	-0.173
Mof_C 	C 	0.1001	0.4103	0.3829	0.176
Mof_N 	N 	0.1189	0.4294	0.3096	-0.209
Mof_N 	N 	0.0094	0.1917	0.5103	-0.209
Mof_C 	C 	0.9966	0.1734	0.4277	0.165
Mof_N 	N 	0.9874	0.1516	0.3233	-0.165
Mof_C 	C 	0.9446	0.1473	0.2903	0.168
Mof_N 	N 	0.9103	0.1431	0.2508	-0.211
Mof_N 	N 	0.0786	0.1756	0.6927	-0.2
Mof_C 	C 	0.0939	0.1301	0.7306	0.164
Mof_N 	N 	0.1122	0.0816	0.7827	-0.175
Mof_C 	C 	0.1231	0.0302	0.734	0.175
Mof_N 	N 	0.1334	0.9836	0.6916	-0.204
Mof_N 	N 	0.0423	0.2954	0.8046	-0.208
Mof_C 	C 	0.0492	0.3146	0.8895	0.182
Mof_N 	N 	0.0503	0.3414	0.9847	-0.177
Mof_C 	C 	0.0871	0.3692	0.0183	0.157
Mof_N 	N 	0.1165	0.3972	0.067	-0.208
Mof_N 	N 	0.8101	0.1116	0.3118	-0.214
Mof_C 	C 	0.7937	0.0928	0.3898	0.181
Mof_N 	N 	0.775	0.065	0.4714	-0.184
Mof_C 	C 	0.7388	0.0828	0.5206	0.174
Mof_N 	N 	0.7064	0.0916	0.571	-0.214
Mof_N 	N 	0.7978	0.4947	0.7615	-0.209
Mof_C 	C 	0.7651	0.4871	0.8083	0.154
Mof_N 	N 	0.7274	0.466	0.8591	-0.166
Mof_C 	C 	0.7123	0.4963	0.9522	0.17
Mof_N 	N 	0.6999	0.5245	0.0208	-0.217
_end
