data_functionalizedCrystal
_audit_creation_method	'EQeq! by Chris Wilmer'
_symmetry_space_group_name_H-M	'P1'
_symmetry_Int_Tables_number	1
_symmetry_cell_setting	triclinic
loop_
_symmetry_equiv_pos_as_xyz
  x,y,z
_cell_length_a	13.057
_cell_length_b	13.2639
_cell_length_c	19.966
_cell_angle_alpha	82.1573
_cell_angle_beta	73.9049
_cell_angle_gamma	60.5147
loop_
_atom_site_label
_atom_site_type_symbol
_atom_site_fract_x
_atom_site_fract_y
_atom_site_fract_z
_atom_site_charge
Mof_Cu	Cu	0.5	0.5	0.5	0.845
Mof_Cu	Cu	-0	0.5	-0	0.795
Mof_Cu	Cu	-0	0	-0	0.77
Mof_Cu	Cu	-6.48834e-18	0	0.5	0.792
Mof_H 	H 	0.5104	0.6474	0.6006	-0.031
Mof_H 	H 	0.6302	0.6244	0.673	0.103
Mof_H 	H 	0.8073	0.2838	0.6399	0.113
Mof_H 	H 	0.6874	0.307	0.5676	-0.036
Mof_H 	H 	0.8263	0.5036	0.7013	0.086
Mof_H 	H 	0.8828	0.3688	0.6999	0.092
Mof_H 	H 	0.8454	0.2188	0.0733	-0.025
Mof_H 	H 	0.6669	0.3872	0.077	0.095
Mof_H 	H 	0.6099	0.2558	0.932	0.084
Mof_H 	H 	0.7933	0.0936	0.9279	-0.027
Mof_H 	H 	0.454	0.4376	0.9776	0.173
Mof_H 	H 	0.4431	0.4538	0.0562	0.137
Mof_H 	H 	0.7082	0.4384	0.3765	-0.043
Mof_H 	H 	0.817	0.5156	0.2997	0.105
Mof_H 	H 	0.6184	0.8082	0.4101	0.1
Mof_H 	H 	0.5148	0.722	0.4845	-0.034
Mof_H 	H 	0.8071	0.7008	0.2448	0.09
Mof_H 	H 	0.8778	0.6932	0.2985	0.091
Mof_H 	H 	0.8268	0.9112	0.0572	-0.042
Mof_H 	H 	0.7263	0.8654	0.1585	0.11
Mof_H 	H 	0.8865	0.9568	0.2626	0.145
Mof_H 	H 	0.9765	0.01	0.1579	-0.109
Mof_H 	H 	0.6573	0.8888	0.2931	0.084
Mof_H 	H 	0.7538	0.879	0.3297	0.084
Mof_H 	H 	0.8422	0.6474	0.8994	-0.022
Mof_H 	H 	0.7454	0.6244	0.827	0.121
Mof_H 	H 	0.9089	0.2838	0.8601	0.16
Mof_H 	H 	0.0056	0.307	0.9324	-0.139
Mof_H 	H 	0.6701	0.5036	0.7987	0.087
Mof_H 	H 	0.7484	0.3688	0.8001	0.088
Mof_H 	H 	0.9358	0.2188	0.4267	-0.046
Mof_H 	H 	0.9459	0.3872	0.423	0.081
Mof_H 	H 	0.1343	0.2558	0.568	0.079
Mof_H 	H 	0.1131	0.0936	0.5721	-0.052
Mof_H 	H 	0.1084	0.4376	0.5224	0.076
Mof_H 	H 	0.1031	0.4538	0.4438	0.07
Mof_H 	H 	0.8534	0.4384	0.1235	-0.032
Mof_H 	H 	0.6674	0.5156	0.2003	0.091
Mof_H 	H 	0.5734	0.8082	0.0899	0.089
Mof_H 	H 	0.7632	0.722	0.0155	-0.036
Mof_H 	H 	0.4921	0.7008	0.2552	0.073
Mof_H 	H 	0.429	0.6932	0.2015	0.065
Mof_H 	H 	0.262	0.9112	0.4428	-0.042
Mof_H 	H 	0.4083	0.8654	0.3415	0.113
Mof_H 	H 	0.1567	0.9568	0.2374	0.127
Mof_H 	H 	0.0135	0.01	0.3421	-0.166
Mof_H 	H 	0.4539	0.8888	0.2069	0.088
Mof_H 	H 	0.3672	0.879	0.1703	0.082
Mof_H 	H 	0.4896	0.3526	0.3994	-0.036
Mof_H 	H 	0.3698	0.3756	0.327	0.084
Mof_H 	H 	0.1927	0.7162	0.3601	0.089
Mof_H 	H 	0.3126	0.693	0.4324	-0.035
Mof_H 	H 	0.1737	0.4964	0.2987	0.062
Mof_H 	H 	0.1172	0.6312	0.3001	0.058
Mof_H 	H 	0.1546	0.7812	0.9267	-0.057
Mof_H 	H 	0.3331	0.6128	0.923	0.104
Mof_H 	H 	0.3901	0.7442	0.068	0.11
Mof_H 	H 	0.2067	0.9064	0.0721	-0.049
Mof_H 	H 	0.546	0.5624	0.0224	-0.014
Mof_H 	H 	0.5569	0.5462	0.9438	0.021
Mof_H 	H 	0.2918	0.5616	0.6235	-0.043
Mof_H 	H 	0.183	0.4844	0.7003	0.087
Mof_H 	H 	0.3816	0.1918	0.5899	0.085
Mof_H 	H 	0.4852	0.278	0.5155	-0.04
Mof_H 	H 	0.1929	0.2992	0.7552	0.076
Mof_H 	H 	0.1222	0.3068	0.7015	0.062
Mof_H 	H 	0.1732	0.0888	0.9428	-0.033
Mof_H 	H 	0.2737	0.1346	0.8415	0.081
Mof_H 	H 	0.1135	0.0432	0.7374	0.036
Mof_H 	H 	0.0235	0.99	0.8421	0.045
Mof_H 	H 	0.3427	0.1112	0.7069	0.056
Mof_H 	H 	0.2462	0.121	0.6703	0.048
Mof_H 	H 	0.1578	0.3526	0.1006	-0.044
Mof_H 	H 	0.2546	0.3756	0.173	0.065
Mof_H 	H 	0.0911	0.7162	0.1399	0.04
Mof_H 	H 	0.9944	0.693	0.0676	0.077
Mof_H 	H 	0.3299	0.4964	0.2013	0.06
Mof_H 	H 	0.2516	0.6312	0.1999	0.061
Mof_H 	H 	0.0642	0.7812	0.5733	-0.041
Mof_H 	H 	0.0541	0.6128	0.577	0.118
Mof_H 	H 	0.8657	0.7442	0.432	0.115
Mof_H 	H 	0.8869	0.9064	0.4279	-0.027
Mof_H 	H 	0.8916	0.5624	0.4776	0.08
Mof_H 	H 	0.8969	0.5462	0.5562	0.088
Mof_H 	H 	0.1466	0.5616	0.8765	-0.048
Mof_H 	H 	0.3326	0.4844	0.7997	0.098
Mof_H 	H 	0.4266	0.1918	0.9101	0.095
Mof_H 	H 	0.2368	0.278	0.9845	-0.032
Mof_H 	H 	0.5079	0.2992	0.7448	0.09
Mof_H 	H 	0.571	0.3068	0.7985	0.084
Mof_H 	H 	0.738	0.0888	0.5572	-0.038
Mof_H 	H 	0.5917	0.1346	0.6585	0.082
Mof_H 	H 	0.8433	0.0432	0.7626	0.067
Mof_H 	H 	0.9865	0.99	0.6579	0.071
Mof_H 	H 	0.5461	0.1112	0.7931	0.057
Mof_H 	H 	0.6328	0.121	0.8297	0.055
Mof_C 	C 	0.5704	0.574	0.6086	0.107
Mof_C 	C 	0.6418	0.5602	0.6516	-0.213
Mof_C 	C 	0.7303	0.4518	0.6633	0.162
Mof_C 	C 	0.7472	0.3574	0.632	-0.212
Mof_C 	C 	0.6758	0.3712	0.5889	0.11
Mof_C 	C 	0.807	0.4404	0.7113	-0.174
Mof_C 	C 	0.7987	0.2278	0.043	0.053
Mof_C 	C 	0.6901	0.3282	0.0467	-0.207
Mof_C 	C 	0.6163	0.3402	0.005	0.151
Mof_C 	C 	0.6574	0.2508	0.9608	-0.167
Mof_C 	C 	0.7681	0.1534	0.9581	0.101
Mof_C 	C 	0.49359	0.44642	0.0093	-0.41
Mof_C 	C 	0.6886	0.5146	0.383	0.121
Mof_C 	C 	0.7546	0.5606	0.3364	-0.217
Mof_C 	C 	0.7281	0.674	0.344	0.153
Mof_C 	C 	0.6378	0.7328	0.4014	-0.211
Mof_C 	C 	0.5753	0.6804	0.4462	0.112
Mof_C 	C 	0.7973	0.7258	0.2906	-0.177
Mof_C 	C 	0.8405	0.9196	0.0989	0.141
Mof_C 	C 	0.7815	0.8898	0.1597	-0.236
Mof_C 	C 	0.8028	0.8954	0.2233	0.202
Mof_C 	C 	0.8743	0.9444	0.2214	-0.284
Mof_C 	C 	0.9291	0.976	0.1576	0.26
Mof_C 	C 	0.7435	0.8542	0.2897	-0.193
Mof_C 	C 	0.8556	0.574	0.8914	0.145
Mof_C 	C 	0.798	0.5602	0.8484	-0.249
Mof_C 	C 	0.8179	0.4518	0.8367	0.222
Mof_C 	C 	0.8954	0.3574	0.868	-0.312
Mof_C 	C 	0.953	0.3712	0.9111	0.293
Mof_C 	C 	0.7526	0.4404	0.7887	-0.205
Mof_C 	C 	0.9735	0.2278	0.457	0.154
Mof_C 	C 	0.9817	0.3282	0.4533	-0.121
Mof_C 	C 	0.0435	0.3402	0.495	0.064
Mof_C 	C 	0.0918	0.2508	0.5392	-0.192
Mof_C 	C 	0.0785	0.1534	0.5419	0.078
Mof_C 	C 	0.05999	0.44642	0.4907	-0.207
Mof_C 	C 	0.7968	0.5146	0.117	0.112
Mof_C 	C 	0.6848	0.5606	0.1636	-0.202
Mof_C 	C 	0.5979	0.674	0.156	0.133
Mof_C 	C 	0.6294	0.7328	0.0986	-0.199
Mof_C 	C 	0.7443	0.6804	0.0538	0.103
Mof_C 	C 	0.4769	0.7258	0.2094	-0.148
Mof_C 	C 	0.2399	0.9196	0.4011	0.139
Mof_C 	C 	0.3287	0.8898	0.3403	-0.246
Mof_C 	C 	0.3018	0.8954	0.2767	0.205
Mof_C 	C 	0.1813	0.9444	0.2786	-0.31
Mof_C 	C 	0.0949	0.976	0.3424	0.266
Mof_C 	C 	0.4023	0.8542	0.2103	-0.213
Mof_C 	C 	0.4296	0.426	0.3914	0.097
Mof_C 	C 	0.3582	0.4398	0.3484	-0.203
Mof_C 	C 	0.2697	0.5482	0.3367	0.142
Mof_C 	C 	0.2528	0.6426	0.368	-0.202
Mof_C 	C 	0.3242	0.6288	0.4111	0.098
Mof_C 	C 	0.193	0.5596	0.2887	-0.174
Mof_C 	C 	0.2013	0.7722	0.957	0.182
Mof_C 	C 	0.3099	0.6718	0.9533	-0.225
Mof_C 	C 	0.3837	0.6598	0.995	0.168
Mof_C 	C 	0.3426	0.7492	0.0392	-0.269
Mof_C 	C 	0.2319	0.8466	0.0419	0.133
Mof_C 	C 	0.50641	0.55358	0.9907	0.054
Mof_C 	C 	0.3114	0.4854	0.617	0.113
Mof_C 	C 	0.2454	0.4394	0.6636	-0.212
Mof_C 	C 	0.2719	0.326	0.656	0.142
Mof_C 	C 	0.3622	0.2672	0.5986	-0.205
Mof_C 	C 	0.4247	0.3196	0.5538	0.106
Mof_C 	C 	0.2027	0.2742	0.7094	-0.185
Mof_C 	C 	0.1595	0.0804	0.9011	0.079
Mof_C 	C 	0.2185	0.1102	0.8403	-0.172
Mof_C 	C 	0.1972	0.1046	0.7767	0.086
Mof_C 	C 	0.1257	0.0556	0.7786	-0.129
Mof_C 	C 	0.0709	0.024	0.8424	-0.043
Mof_C 	C 	0.2565	0.1458	0.7103	-0.131
Mof_C 	C 	0.1444	0.426	0.1086	0.057
Mof_C 	C 	0.202	0.4398	0.1516	-0.165
Mof_C 	C 	0.1821	0.5482	0.1633	0.079
Mof_C 	C 	0.1046	0.6426	0.132	-0.096
Mof_C 	C 	0.047	0.6288	0.0889	-0.092
Mof_C 	C 	0.2474	0.5596	0.2113	-0.141
Mof_C 	C 	0.0265	0.7722	0.543	0.088
Mof_C 	C 	0.0183	0.6718	0.5467	-0.31
Mof_C 	C 	0.9565	0.6598	0.505	0.252
Mof_C 	C 	0.9082	0.7492	0.4608	-0.247
Mof_C 	C 	0.9215	0.8466	0.4581	0.155
Mof_C 	C 	0.94001	0.55358	0.5093	-0.147
Mof_C 	C 	0.2032	0.4854	0.883	0.118
Mof_C 	C 	0.3152	0.4394	0.8364	-0.222
Mof_C 	C 	0.4021	0.326	0.844	0.156
Mof_C 	C 	0.3706	0.2672	0.9014	-0.213
Mof_C 	C 	0.2557	0.3196	0.9462	0.113
Mof_C 	C 	0.5231	0.2742	0.7906	-0.203
Mof_C 	C 	0.7601	0.0804	0.5989	0.089
Mof_C 	C 	0.6713	0.1102	0.6597	-0.175
Mof_C 	C 	0.6982	0.1046	0.7233	0.1
Mof_C 	C 	0.8187	0.0556	0.7214	-0.131
Mof_C 	C 	0.9051	0.024	0.6576	-0.005
Mof_C 	C 	0.5977	0.1458	0.7897	-0.127
Mof_N 	N 	0.5875	0.4794	0.5772	-0.244
Mof_N 	N 	0.84027	0.14266	0.998	-0.206
Mof_N 	N 	0.59875	0.5727	0.43654	-0.256
Mof_N 	N 	0.91728	0.96024	0.09689	-0.251
Mof_N 	N 	0.9331	0.4794	0.9228	-0.247
Mof_N 	N 	0.01707	0.14266	0.502	-0.302
Mof_N 	N 	0.82855	0.5727	0.06346	-0.243
Mof_N 	N 	0.12248	0.96024	0.40311	-0.277
Mof_N 	N 	0.4125	0.5206	0.4228	-0.242
Mof_N 	N 	0.15973	0.85734	0.002	-0.288
Mof_N 	N 	0.40125	0.4273	0.56346	-0.255
Mof_N 	N 	0.08272	0.03976	0.90311	-0.228
Mof_N 	N 	0.0669	0.5206	0.0772	-0.226
Mof_N 	N 	0.98293	0.85734	0.498	-0.206
Mof_N 	N 	0.17145	0.4273	0.93654	-0.251
Mof_N 	N 	0.87752	0.03976	0.59689	-0.215
_end
