data_functionalizedCrystal
_audit_creation_method	'EQeq! by Chris Wilmer'
_symmetry_space_group_name_H-M	'P1'
_symmetry_Int_Tables_number	1
_symmetry_cell_setting	triclinic
loop_
_symmetry_equiv_pos_as_xyz
  x,y,z
_cell_length_a	29.162
_cell_length_b	13.4545
_cell_length_c	13.903
_cell_angle_alpha	90
_cell_angle_beta	98.219
_cell_angle_gamma	90
loop_
_atom_site_label
_atom_site_type_symbol
_atom_site_fract_x
_atom_site_fract_y
_atom_site_fract_z
_atom_site_charge
Mof_Ho	Ho	0.31541	0.30093	0.54077	1.775
Mof_C 	C 	0.7044	0.1218	0.242	-0.159
Mof_C 	C 	0.7324	0.0537	0.2991	0.088
Mof_H 	H 	0.7636	0.0473	0.2929	0.01
Mof_C 	C 	0.7129	0.9957	0.3653	-0.17
Mof_C 	C 	0.6663	0.0063	0.3749	0.037
Mof_H 	H 	0.6534	0.9651	0.4175	0.017
Mof_C 	C 	0.6391	0.077	0.3223	-0.073
Mof_C 	C 	0.6591	0.1354	0.254	0.042
Mof_H 	H 	0.6413	0.1831	0.2174	0.029
Mof_C 	C 	0.725	0.1797	0.1641	0.459
Mof_C 	C 	0.7429	0.9227	0.4274	0.455
Mof_C 	C 	0.5908	0.0953	0.3416	0.095
Mof_C 	C 	0.5632	0.0175	0.3635	-0.12
Mof_H 	H 	0.5746	0.953	0.3632	0.073
Mof_C 	C 	0.5195	0.0323	0.3854	-0.005
Mof_H 	H 	0.5011	0.9779	0.3956	0.032
Mof_C 	C 	0.5019	0.1294	0.3929	-0.029
Mof_C 	C 	0.4592	0.1505	0.4246	-0.017
Mof_H 	H 	0.4409	0.0982	0.4406	0.049
Mof_C 	C 	0.4441	0.245	0.4323	-0.085
Mof_C 	C 	0.4706	0.3245	0.406	0.026
Mof_H 	H 	0.4597	0.389	0.4102	0.026
Mof_C 	C 	0.5125	0.3094	0.374	-0.13
Mof_H 	H 	0.5295	0.3631	0.3561	0.07
Mof_C 	C 	0.5298	0.2108	0.3684	0.089
Mof_C 	C 	0.5737	0.19	0.3416	-0.159
Mof_H 	H 	0.5915	0.2422	0.3234	0.088
Mof_C 	C 	0.3998	0.2644	0.4738	0.312
Mof_O 	O 	0.7	0.2478	0.1211	-0.464
Mof_O 	O 	0.7652	0.1564	0.1516	-0.514
Mof_O 	O 	0.785	0.9439	0.4507	-0.458
Mof_O 	O 	0.7254	0.8459	0.4546	-0.564
Mof_O 	O 	0.383	0.3513	0.4678	-0.412
Mof_O 	O 	0.3806	0.1952	0.5131	-0.419
Mof_Ho	Ho	0.81541	0.80093	0.54077	1.775
Mof_C 	C 	0.2044	0.6218	0.242	-0.159
Mof_C 	C 	0.2324	0.5537	0.2991	0.092
Mof_H 	H 	0.2636	0.5473	0.2929	0.01
Mof_C 	C 	0.2129	0.4957	0.3653	-0.172
Mof_C 	C 	0.1663	0.5063	0.3749	0.042
Mof_H 	H 	0.1534	0.4651	0.4175	0.015
Mof_C 	C 	0.1391	0.577	0.3223	-0.074
Mof_C 	C 	0.1591	0.6354	0.254	0.043
Mof_H 	H 	0.1413	0.6831	0.2174	0.029
Mof_C 	C 	0.225	0.6797	0.1641	0.459
Mof_C 	C 	0.2429	0.4227	0.4274	0.456
Mof_C 	C 	0.0908	0.5953	0.3416	0.095
Mof_C 	C 	0.0632	0.5175	0.3635	-0.119
Mof_H 	H 	0.0746	0.453	0.3632	0.073
Mof_C 	C 	0.0195	0.5323	0.3854	-0.004
Mof_H 	H 	0.0011	0.4779	0.3956	0.032
Mof_C 	C 	0.0019	0.6294	0.3929	-0.03
Mof_C 	C 	0.9592	0.6505	0.4246	-0.017
Mof_H 	H 	0.9409	0.5982	0.4406	0.049
Mof_C 	C 	0.9441	0.745	0.4323	-0.085
Mof_C 	C 	0.9706	0.8245	0.406	0.026
Mof_H 	H 	0.9597	0.889	0.4102	0.026
Mof_C 	C 	0.0125	0.8094	0.374	-0.13
Mof_H 	H 	0.0295	0.8631	0.3561	0.07
Mof_C 	C 	0.0298	0.7108	0.3684	0.089
Mof_C 	C 	0.0737	0.69	0.3416	-0.159
Mof_H 	H 	0.0915	0.7422	0.3234	0.088
Mof_C 	C 	0.8998	0.7644	0.4738	0.313
Mof_O 	O 	0.2	0.7478	0.1211	-0.462
Mof_O 	O 	0.2652	0.6564	0.1516	-0.514
Mof_O 	O 	0.285	0.4439	0.4507	-0.458
Mof_O 	O 	0.2254	0.3459	0.4546	-0.564
Mof_O 	O 	0.883	0.8513	0.4678	-0.412
Mof_O 	O 	0.8806	0.6952	0.5131	-0.419
Mof_Ho	Ho	0.68459	0.30093	0.95923	1.777
Mof_C 	C 	0.2956	0.1218	0.258	-0.155
Mof_C 	C 	0.2676	0.0537	0.2009	0.085
Mof_H 	H 	0.2364	0.0473	0.2071	0.012
Mof_C 	C 	0.2871	0.9957	0.1347	-0.164
Mof_C 	C 	0.3337	0.0063	0.1251	0.031
Mof_H 	H 	0.3466	0.9651	0.0825	0.02
Mof_C 	C 	0.3609	0.077	0.1777	-0.069
Mof_C 	C 	0.3409	0.1354	0.246	0.039
Mof_H 	H 	0.3587	0.1831	0.2826	0.03
Mof_C 	C 	0.275	0.1797	0.3359	0.458
Mof_C 	C 	0.2571	0.9227	0.0726	0.453
Mof_C 	C 	0.4092	0.0953	0.1584	0.093
Mof_C 	C 	0.4368	0.0175	0.1365	-0.119
Mof_H 	H 	0.4254	0.953	0.1368	0.073
Mof_C 	C 	0.4805	0.0323	0.1146	-0.009
Mof_H 	H 	0.4989	0.9779	0.1044	0.035
Mof_C 	C 	0.4981	0.1294	0.1071	-0.027
Mof_C 	C 	0.5408	0.1505	0.0754	-0.019
Mof_H 	H 	0.5591	0.0982	0.0594	0.049
Mof_C 	C 	0.5559	0.245	0.0677	-0.084
Mof_C 	C 	0.5294	0.3245	0.094	0.024
Mof_H 	H 	0.5403	0.389	0.0898	0.027
Mof_C 	C 	0.4875	0.3094	0.126	-0.128
Mof_H 	H 	0.4705	0.3631	0.1439	0.069
Mof_C 	C 	0.4702	0.2108	0.1316	0.087
Mof_C 	C 	0.4263	0.19	0.1584	-0.157
Mof_H 	H 	0.4085	0.2422	0.1766	0.087
Mof_C 	C 	0.6002	0.2644	0.0262	0.31
Mof_O 	O 	0.3	0.2478	0.3789	-0.463
Mof_O 	O 	0.2348	0.1564	0.3484	-0.514
Mof_O 	O 	0.215	0.9439	0.0493	-0.456
Mof_O 	O 	0.2746	0.8459	0.0454	-0.563
Mof_O 	O 	0.617	0.3513	0.0322	-0.412
Mof_O 	O 	0.6194	0.1952	0.9869	-0.418
Mof_Ho	Ho	0.18459	0.80093	0.95923	1.772
Mof_C 	C 	0.7956	0.6218	0.258	-0.159
Mof_C 	C 	0.7676	0.5537	0.2009	0.092
Mof_H 	H 	0.7364	0.5473	0.2071	0.01
Mof_C 	C 	0.7871	0.4957	0.1347	-0.172
Mof_C 	C 	0.8337	0.5063	0.1251	0.042
Mof_H 	H 	0.8466	0.4651	0.0825	0.015
Mof_C 	C 	0.8609	0.577	0.1777	-0.074
Mof_C 	C 	0.8409	0.6354	0.246	0.043
Mof_H 	H 	0.8587	0.6831	0.2826	0.029
Mof_C 	C 	0.775	0.6797	0.3359	0.459
Mof_C 	C 	0.7571	0.4227	0.0726	0.455
Mof_C 	C 	0.9092	0.5953	0.1584	0.096
Mof_C 	C 	0.9368	0.5175	0.1365	-0.12
Mof_H 	H 	0.9254	0.453	0.1368	0.073
Mof_C 	C 	0.9805	0.5323	0.1146	-0.004
Mof_H 	H 	0.9989	0.4779	0.1044	0.031
Mof_C 	C 	0.9981	0.6294	0.1071	-0.031
Mof_C 	C 	0.0408	0.6505	0.0754	-0.015
Mof_H 	H 	0.0591	0.5982	0.0594	0.048
Mof_C 	C 	0.0559	0.745	0.0677	-0.086
Mof_C 	C 	0.0294	0.8245	0.094	0.027
Mof_H 	H 	0.0403	0.889	0.0898	0.026
Mof_C 	C 	0.9875	0.8094	0.126	-0.131
Mof_H 	H 	0.9705	0.8631	0.1439	0.07
Mof_C 	C 	0.9702	0.7108	0.1316	0.09
Mof_C 	C 	0.9263	0.69	0.1584	-0.16
Mof_H 	H 	0.9085	0.7422	0.1766	0.088
Mof_C 	C 	0.1002	0.7644	0.0262	0.314
Mof_O 	O 	0.8	0.7478	0.3789	-0.463
Mof_O 	O 	0.7348	0.6564	0.3484	-0.514
Mof_O 	O 	0.715	0.4439	0.0493	-0.459
Mof_O 	O 	0.7746	0.3459	0.0454	-0.564
Mof_O 	O 	0.117	0.8513	0.0322	-0.411
Mof_O 	O 	0.1194	0.6952	0.9869	-0.42
Mof_Ho	Ho	0.68459	0.69907	0.45923	1.776
Mof_C 	C 	0.2956	0.8782	0.758	-0.158
Mof_C 	C 	0.2676	0.9463	0.7009	0.089
Mof_H 	H 	0.2364	0.9527	0.7071	0.011
Mof_C 	C 	0.2871	0.0043	0.6347	-0.169
Mof_C 	C 	0.3337	0.9937	0.6251	0.038
Mof_H 	H 	0.3466	0.0349	0.5825	0.017
Mof_C 	C 	0.3609	0.923	0.6777	-0.073
Mof_C 	C 	0.3409	0.8646	0.746	0.042
Mof_H 	H 	0.3587	0.8169	0.7826	0.029
Mof_C 	C 	0.275	0.8203	0.8359	0.459
Mof_C 	C 	0.2571	0.0773	0.5726	0.455
Mof_C 	C 	0.4092	0.9047	0.6584	0.095
Mof_C 	C 	0.4368	0.9825	0.6365	-0.12
Mof_H 	H 	0.4254	0.047	0.6368	0.073
Mof_C 	C 	0.4805	0.9677	0.6146	-0.005
Mof_H 	H 	0.4989	0.0221	0.6044	0.032
Mof_C 	C 	0.4981	0.8706	0.6071	-0.029
Mof_C 	C 	0.5408	0.8495	0.5754	-0.017
Mof_H 	H 	0.5591	0.9018	0.5594	0.049
Mof_C 	C 	0.5559	0.755	0.5677	-0.085
Mof_C 	C 	0.5294	0.6755	0.594	0.026
Mof_H 	H 	0.5403	0.611	0.5898	0.026
Mof_C 	C 	0.4875	0.6906	0.626	-0.13
Mof_H 	H 	0.4705	0.6369	0.6439	0.07
Mof_C 	C 	0.4702	0.7892	0.6316	0.089
Mof_C 	C 	0.4263	0.81	0.6584	-0.159
Mof_H 	H 	0.4085	0.7578	0.6766	0.088
Mof_C 	C 	0.6002	0.7356	0.5262	0.312
Mof_O 	O 	0.3	0.7522	0.8789	-0.464
Mof_O 	O 	0.2348	0.8436	0.8484	-0.514
Mof_O 	O 	0.215	0.0561	0.5493	-0.458
Mof_O 	O 	0.2746	0.1541	0.5454	-0.564
Mof_O 	O 	0.617	0.6487	0.5322	-0.412
Mof_O 	O 	0.6194	0.8048	0.4869	-0.419
Mof_Ho	Ho	0.18459	0.19907	0.45923	1.775
Mof_C 	C 	0.7956	0.3782	0.758	-0.159
Mof_C 	C 	0.7676	0.4463	0.7009	0.092
Mof_H 	H 	0.7364	0.4527	0.7071	0.01
Mof_C 	C 	0.7871	0.5043	0.6347	-0.172
Mof_C 	C 	0.8337	0.4937	0.6251	0.042
Mof_H 	H 	0.8466	0.5349	0.5825	0.015
Mof_C 	C 	0.8609	0.423	0.6777	-0.074
Mof_C 	C 	0.8409	0.3646	0.746	0.043
Mof_H 	H 	0.8587	0.3169	0.7826	0.029
Mof_C 	C 	0.775	0.3203	0.8359	0.459
Mof_C 	C 	0.7571	0.5773	0.5726	0.456
Mof_C 	C 	0.9092	0.4047	0.6584	0.095
Mof_C 	C 	0.9368	0.4825	0.6365	-0.119
Mof_H 	H 	0.9254	0.547	0.6368	0.073
Mof_C 	C 	0.9805	0.4677	0.6146	-0.004
Mof_H 	H 	0.9989	0.5221	0.6044	0.032
Mof_C 	C 	0.9981	0.3706	0.6071	-0.03
Mof_C 	C 	0.0408	0.3495	0.5754	-0.017
Mof_H 	H 	0.0591	0.4018	0.5594	0.049
Mof_C 	C 	0.0559	0.255	0.5677	-0.085
Mof_C 	C 	0.0294	0.1755	0.594	0.026
Mof_H 	H 	0.0403	0.111	0.5898	0.026
Mof_C 	C 	0.9875	0.1906	0.626	-0.13
Mof_H 	H 	0.9705	0.1369	0.6439	0.07
Mof_C 	C 	0.9702	0.2892	0.6316	0.089
Mof_C 	C 	0.9263	0.31	0.6584	-0.159
Mof_H 	H 	0.9085	0.2578	0.6766	0.088
Mof_C 	C 	0.1002	0.2356	0.5262	0.313
Mof_O 	O 	0.8	0.2522	0.8789	-0.462
Mof_O 	O 	0.7348	0.3436	0.8484	-0.514
Mof_O 	O 	0.715	0.5561	0.5493	-0.458
Mof_O 	O 	0.7746	0.6541	0.5454	-0.564
Mof_O 	O 	0.117	0.1487	0.5322	-0.412
Mof_O 	O 	0.1194	0.3048	0.4869	-0.419
Mof_Ho	Ho	0.31541	0.69907	0.04077	1.777
Mof_C 	C 	0.7044	0.8782	0.742	-0.155
Mof_C 	C 	0.7324	0.9463	0.7991	0.085
Mof_H 	H 	0.7636	0.9527	0.7929	0.012
Mof_C 	C 	0.7129	0.0043	0.8653	-0.164
Mof_C 	C 	0.6663	0.9937	0.8749	0.031
Mof_H 	H 	0.6534	0.0349	0.9175	0.02
Mof_C 	C 	0.6391	0.923	0.8223	-0.069
Mof_C 	C 	0.6591	0.8646	0.754	0.039
Mof_H 	H 	0.6413	0.8169	0.7174	0.03
Mof_C 	C 	0.725	0.8203	0.6641	0.458
Mof_C 	C 	0.7429	0.0773	0.9274	0.453
Mof_C 	C 	0.5908	0.9047	0.8416	0.093
Mof_C 	C 	0.5632	0.9825	0.8635	-0.119
Mof_H 	H 	0.5746	0.047	0.8632	0.073
Mof_C 	C 	0.5195	0.9677	0.8854	-0.009
Mof_H 	H 	0.5011	0.0221	0.8956	0.035
Mof_C 	C 	0.5019	0.8706	0.8929	-0.027
Mof_C 	C 	0.4592	0.8495	0.9246	-0.019
Mof_H 	H 	0.4409	0.9018	0.9406	0.049
Mof_C 	C 	0.4441	0.755	0.9323	-0.084
Mof_C 	C 	0.4706	0.6755	0.906	0.024
Mof_H 	H 	0.4597	0.611	0.9102	0.027
Mof_C 	C 	0.5125	0.6906	0.874	-0.128
Mof_H 	H 	0.5295	0.6369	0.8561	0.069
Mof_C 	C 	0.5298	0.7892	0.8684	0.087
Mof_C 	C 	0.5737	0.81	0.8416	-0.157
Mof_H 	H 	0.5915	0.7578	0.8234	0.087
Mof_C 	C 	0.3998	0.7356	0.9738	0.31
Mof_O 	O 	0.7	0.7522	0.6211	-0.463
Mof_O 	O 	0.7652	0.8436	0.6516	-0.514
Mof_O 	O 	0.785	0.0561	0.9507	-0.456
Mof_O 	O 	0.7254	0.1541	0.9546	-0.563
Mof_O 	O 	0.383	0.6487	0.9678	-0.412
Mof_O 	O 	0.3806	0.8048	0.0131	-0.418
Mof_Ho	Ho	0.81541	0.19907	0.04077	1.772
Mof_C 	C 	0.2044	0.3782	0.742	-0.159
Mof_C 	C 	0.2324	0.4463	0.7991	0.092
Mof_H 	H 	0.2636	0.4527	0.7929	0.01
Mof_C 	C 	0.2129	0.5043	0.8653	-0.172
Mof_C 	C 	0.1663	0.4937	0.8749	0.042
Mof_H 	H 	0.1534	0.5349	0.9175	0.015
Mof_C 	C 	0.1391	0.423	0.8223	-0.074
Mof_C 	C 	0.1591	0.3646	0.754	0.043
Mof_H 	H 	0.1413	0.3169	0.7174	0.029
Mof_C 	C 	0.225	0.3203	0.6641	0.459
Mof_C 	C 	0.2429	0.5773	0.9274	0.455
Mof_C 	C 	0.0908	0.4047	0.8416	0.096
Mof_C 	C 	0.0632	0.4825	0.8635	-0.12
Mof_H 	H 	0.0746	0.547	0.8632	0.073
Mof_C 	C 	0.0195	0.4677	0.8854	-0.004
Mof_H 	H 	0.0011	0.5221	0.8956	0.031
Mof_C 	C 	0.0019	0.3706	0.8929	-0.031
Mof_C 	C 	0.9592	0.3495	0.9246	-0.015
Mof_H 	H 	0.9409	0.4018	0.9406	0.048
Mof_C 	C 	0.9441	0.255	0.9323	-0.086
Mof_C 	C 	0.9706	0.1755	0.906	0.027
Mof_H 	H 	0.9597	0.111	0.9102	0.026
Mof_C 	C 	0.0125	0.1906	0.874	-0.131
Mof_H 	H 	0.0295	0.1369	0.8561	0.07
Mof_C 	C 	0.0298	0.2892	0.8684	0.09
Mof_C 	C 	0.0737	0.31	0.8416	-0.16
Mof_H 	H 	0.0915	0.2578	0.8234	0.088
Mof_C 	C 	0.8998	0.2356	0.9738	0.314
Mof_O 	O 	0.2	0.2522	0.6211	-0.463
Mof_O 	O 	0.2652	0.3436	0.6516	-0.514
Mof_O 	O 	0.285	0.5561	0.9507	-0.459
Mof_O 	O 	0.2254	0.6541	0.9546	-0.564
Mof_O 	O 	0.883	0.1487	0.9678	-0.411
Mof_O 	O 	0.8806	0.3048	0.0131	-0.42
_end
