# CIF file generated by openbabel 3.1.0, see https://openbabel.org
data_I
_chemical_name_common 'image0'
_cell_length_a 21.8154
_cell_length_b 21.8154
_cell_length_c 16.1967
_cell_angle_alpha 90
_cell_angle_beta 90
_cell_angle_gamma 90
_space_group_name_H-M_alt 'P 1'
_space_group_name_Hall 'P 1'
loop_
    _symmetry_equiv_pos_as_xyz
    x,y,z
loop_
    _atom_site_label
    _atom_site_type_symbol
    _atom_site_fract_x
    _atom_site_fract_y
    _atom_site_fract_z
    _atom_site_occupancy
    Y1       Y        0.33502    0.36759    0.87377    1.000
    O1       O        0.25470    0.38940    0.77450    1.000
    O2       O        0.22380    0.42750    0.65380    1.000
    O3       O        0.52410    0.41990    0.80410    1.000
    O4       O        0.44190    0.38570    0.86720    1.000
    N1       N        0.36860    0.42020    0.74740    1.000
    C1       C        0.42720    0.43500    0.73880    1.000
    C2       C        0.44920    0.46920    0.67120    1.000
    H1       H        0.49040    0.47940    0.66590    1.000
    C3       C        0.40640    0.48680    0.61330    1.000
    H2       H        0.41870    0.51060    0.56870    1.000
    C4       C        0.34500    0.46970    0.62020    1.000
    H3       H        0.31630    0.48000    0.58000    1.000
    C5       C        0.32920    0.43700    0.68890    1.000
    C6       C        0.26460    0.41620    0.70450    1.000
    C7       C        0.46750    0.41230    0.80770    1.000
    Y2       Y        0.83502    0.86759    0.37377    1.000
    O5       O        0.75470    0.88940    0.27450    1.000
    O6       O        0.72380    0.92750    0.15380    1.000
    O7       O        0.02410    0.91990    0.30410    1.000
    O8       O        0.94190    0.88570    0.36720    1.000
    N2       N        0.86860    0.92020    0.24740    1.000
    C8       C        0.92720    0.93500    0.23880    1.000
    C9       C        0.94920    0.96920    0.17120    1.000
    H4       H        0.99040    0.97940    0.16590    1.000
    C10      C        0.90640    0.98680    0.11330    1.000
    H5       H        0.91870    0.01060    0.06870    1.000
    C11      C        0.84500    0.96970    0.12020    1.000
    H6       H        0.81630    0.98000    0.08000    1.000
    C12      C        0.82920    0.93700    0.18890    1.000
    C13      C        0.76460    0.91620    0.20450    1.000
    C14      C        0.96750    0.91230    0.30770    1.000
    Y3       Y        0.16498    0.63241    0.37377    1.000
    O9       O        0.24530    0.61060    0.27450    1.000
    O10      O        0.27620    0.57250    0.15380    1.000
    O11      O        0.97590    0.58010    0.30410    1.000
    O12      O        0.05810    0.61430    0.36720    1.000
    N3       N        0.13140    0.57980    0.24740    1.000
    C15      C        0.07280    0.56500    0.23880    1.000
    C16      C        0.05080    0.53080    0.17120    1.000
    H7       H        0.00960    0.52060    0.16590    1.000
    C17      C        0.09360    0.51320    0.11330    1.000
    H8       H        0.08130    0.48940    0.06870    1.000
    C18      C        0.15500    0.53030    0.12020    1.000
    H9       H        0.18370    0.52000    0.08000    1.000
    C19      C        0.17080    0.56300    0.18890    1.000
    C20      C        0.23540    0.58380    0.20450    1.000
    C21      C        0.03250    0.58770    0.30770    1.000
    Y4       Y        0.66498    0.13241    0.87377    1.000
    O13      O        0.74530    0.11060    0.77450    1.000
    O14      O        0.77620    0.07250    0.65380    1.000
    O15      O        0.47590    0.08010    0.80410    1.000
    O16      O        0.55810    0.11430    0.86720    1.000
    N4       N        0.63140    0.07980    0.74740    1.000
    C22      C        0.57280    0.06500    0.73880    1.000
    C23      C        0.55080    0.03080    0.67120    1.000
    H10      H        0.50960    0.02060    0.66590    1.000
    C24      C        0.59360    0.01320    0.61330    1.000
    H11      H        0.58130    0.98940    0.56870    1.000
    C25      C        0.65500    0.03030    0.62020    1.000
    H12      H        0.68370    0.02000    0.58000    1.000
    C26      C        0.67080    0.06300    0.68890    1.000
    C27      C        0.73540    0.08380    0.70450    1.000
    C28      C        0.53250    0.08770    0.80770    1.000
    Y5       Y        0.38241    0.58502    0.12377    1.000
    O17      O        0.36060    0.50470    0.02450    1.000
    O18      O        0.32250    0.47380    0.90380    1.000
    O19      O        0.33010    0.77410    0.05410    1.000
    O20      O        0.36430    0.69190    0.11720    1.000
    N5       N        0.32980    0.61860    0.99740    1.000
    C29      C        0.31500    0.67720    0.98880    1.000
    C30      C        0.28080    0.69920    0.92120    1.000
    H13      H        0.27060    0.74040    0.91590    1.000
    C31      C        0.26320    0.65640    0.86330    1.000
    H14      H        0.23940    0.66870    0.81870    1.000
    C32      C        0.28030    0.59500    0.87020    1.000
    H15      H        0.27000    0.56630    0.83000    1.000
    C33      C        0.31300    0.57920    0.93890    1.000
    C34      C        0.33380    0.51460    0.95450    1.000
    C35      C        0.33770    0.71750    0.05770    1.000
    Y6       Y        0.88241    0.08502    0.62377    1.000
    O21      O        0.86060    0.00470    0.52450    1.000
    O22      O        0.82250    0.97380    0.40380    1.000
    O23      O        0.83010    0.27410    0.55410    1.000
    O24      O        0.86430    0.19190    0.61720    1.000
    N6       N        0.82980    0.11860    0.49740    1.000
    C36      C        0.81500    0.17720    0.48880    1.000
    C37      C        0.78080    0.19920    0.42120    1.000
    H16      H        0.77060    0.24040    0.41590    1.000
    C38      C        0.76320    0.15640    0.36330    1.000
    H17      H        0.73940    0.16870    0.31870    1.000
    C39      C        0.78030    0.09500    0.37020    1.000
    H18      H        0.77000    0.06630    0.33000    1.000
    C40      C        0.81300    0.07920    0.43890    1.000
    C41      C        0.83380    0.01460    0.45450    1.000
    C42      C        0.83770    0.21750    0.55770    1.000
    Y7       Y        0.11759    0.41498    0.62377    1.000
    O25      O        0.13940    0.49530    0.52450    1.000
    O26      O        0.17750    0.52620    0.40380    1.000
    O27      O        0.16990    0.22590    0.55410    1.000
    O28      O        0.13570    0.30810    0.61720    1.000
    N7       N        0.17020    0.38140    0.49740    1.000
    C43      C        0.18500    0.32280    0.48880    1.000
    C44      C        0.21920    0.30080    0.42120    1.000
    H19      H        0.22940    0.25960    0.41590    1.000
    C45      C        0.23680    0.34360    0.36330    1.000
    H20      H        0.26060    0.33130    0.31870    1.000
    C46      C        0.21970    0.40500    0.37020    1.000
    H21      H        0.23000    0.43370    0.33000    1.000
    C47      C        0.18700    0.42080    0.43890    1.000
    C48      C        0.16620    0.48540    0.45450    1.000
    C49      C        0.16230    0.28250    0.55770    1.000
    Y8       Y        0.61759    0.91498    0.12377    1.000
    O29      O        0.63940    0.99530    0.02450    1.000
    O30      O        0.67750    0.02620    0.90380    1.000
    O31      O        0.66990    0.72590    0.05410    1.000
    O32      O        0.63570    0.80810    0.11720    1.000
    N8       N        0.67020    0.88140    0.99740    1.000
    C50      C        0.68500    0.82280    0.98880    1.000
    C51      C        0.71920    0.80080    0.92120    1.000
    H22      H        0.72940    0.75960    0.91590    1.000
    C52      C        0.73680    0.84360    0.86330    1.000
    H23      H        0.76060    0.83130    0.81870    1.000
    C53      C        0.71970    0.90500    0.87020    1.000
    H24      H        0.73000    0.93370    0.83000    1.000
    C54      C        0.68700    0.92080    0.93890    1.000
    C55      C        0.66620    0.98540    0.95450    1.000
    C56      C        0.66230    0.78250    0.05770    1.000
    Y9       Y        0.66498    0.63241    0.12623    1.000
    O33      O        0.74530    0.61060    0.22550    1.000
    O34      O        0.77620    0.57250    0.34620    1.000
    O35      O        0.47590    0.58010    0.19590    1.000
    O36      O        0.55810    0.61430    0.13280    1.000
    N9       N        0.63140    0.57980    0.25260    1.000
    C57      C        0.57280    0.56500    0.26120    1.000
    C58      C        0.55080    0.53080    0.32880    1.000
    H25      H        0.50960    0.52060    0.33410    1.000
    C59      C        0.59360    0.51320    0.38670    1.000
    H26      H        0.58130    0.48940    0.43130    1.000
    C60      C        0.65500    0.53030    0.37980    1.000
    H27      H        0.68370    0.52000    0.42000    1.000
    C61      C        0.67080    0.56300    0.31110    1.000
    C62      C        0.73540    0.58380    0.29550    1.000
    C63      C        0.53250    0.58770    0.19230    1.000
    Y10      Y        0.16498    0.13241    0.62623    1.000
    O37      O        0.24530    0.11060    0.72550    1.000
    O38      O        0.27620    0.07250    0.84620    1.000
    O39      O        0.97590    0.08010    0.69590    1.000
    O40      O        0.05810    0.11430    0.63280    1.000
    N10      N        0.13140    0.07980    0.75260    1.000
    C64      C        0.07280    0.06500    0.76120    1.000
    C65      C        0.05080    0.03080    0.82880    1.000
    H28      H        0.00960    0.02060    0.83410    1.000
    C66      C        0.09360    0.01320    0.88670    1.000
    H29      H        0.08130    0.98940    0.93130    1.000
    C67      C        0.15500    0.03030    0.87980    1.000
    H30      H        0.18370    0.02000    0.92000    1.000
    C68      C        0.17080    0.06300    0.81110    1.000
    C69      C        0.23540    0.08380    0.79550    1.000
    C70      C        0.03250    0.08770    0.69230    1.000
    Y11      Y        0.83502    0.36759    0.62623    1.000
    O41      O        0.75470    0.38940    0.72550    1.000
    O42      O        0.72380    0.42750    0.84620    1.000
    O43      O        0.02410    0.41990    0.69590    1.000
    O44      O        0.94190    0.38570    0.63280    1.000
    N11      N        0.86860    0.42020    0.75260    1.000
    C71      C        0.92720    0.43500    0.76120    1.000
    C72      C        0.94920    0.46920    0.82880    1.000
    H31      H        0.99040    0.47940    0.83410    1.000
    C73      C        0.90640    0.48680    0.88670    1.000
    H32      H        0.91870    0.51060    0.93130    1.000
    C74      C        0.84500    0.46970    0.87980    1.000
    H33      H        0.81630    0.48000    0.92000    1.000
    C75      C        0.82920    0.43700    0.81110    1.000
    C76      C        0.76460    0.41620    0.79550    1.000
    C77      C        0.96750    0.41230    0.69230    1.000
    Y12      Y        0.33502    0.86759    0.12623    1.000
    O45      O        0.25470    0.88940    0.22550    1.000
    O46      O        0.22380    0.92750    0.34620    1.000
    O47      O        0.52410    0.91990    0.19590    1.000
    O48      O        0.44190    0.88570    0.13280    1.000
    N12      N        0.36860    0.92020    0.25260    1.000
    C78      C        0.42720    0.93500    0.26120    1.000
    C79      C        0.44920    0.96920    0.32880    1.000
    H34      H        0.49040    0.97940    0.33410    1.000
    C80      C        0.40640    0.98680    0.38670    1.000
    H35      H        0.41870    0.01060    0.43130    1.000
    C81      C        0.34500    0.96970    0.37980    1.000
    H36      H        0.31630    0.98000    0.42000    1.000
    C82      C        0.32920    0.93700    0.31110    1.000
    C83      C        0.26460    0.91620    0.29550    1.000
    C84      C        0.46750    0.91230    0.19230    1.000
    Y13      Y        0.61759    0.41498    0.87623    1.000
    O49      O        0.63940    0.49530    0.97550    1.000
    O50      O        0.67750    0.52620    0.09620    1.000
    O51      O        0.66990    0.22590    0.94590    1.000
    O52      O        0.63570    0.30810    0.88280    1.000
    N13      N        0.67020    0.38140    0.00260    1.000
    C85      C        0.68500    0.32280    0.01120    1.000
    C86      C        0.71920    0.30080    0.07880    1.000
    H37      H        0.72940    0.25960    0.08410    1.000
    C87      C        0.73680    0.34360    0.13670    1.000
    H38      H        0.76060    0.33130    0.18130    1.000
    C88      C        0.71970    0.40500    0.12980    1.000
    H39      H        0.73000    0.43370    0.17000    1.000
    C89      C        0.68700    0.42080    0.06110    1.000
    C90      C        0.66620    0.48540    0.04550    1.000
    C91      C        0.66230    0.28250    0.94230    1.000
    Y14      Y        0.11759    0.91498    0.37623    1.000
    O53      O        0.13940    0.99530    0.47550    1.000
    O54      O        0.17750    0.02620    0.59620    1.000
    O55      O        0.16990    0.72590    0.44590    1.000
    O56      O        0.13570    0.80810    0.38280    1.000
    N14      N        0.17020    0.88140    0.50260    1.000
    C92      C        0.18500    0.82280    0.51120    1.000
    C93      C        0.21920    0.80080    0.57880    1.000
    H40      H        0.22940    0.75960    0.58410    1.000
    C94      C        0.23680    0.84360    0.63670    1.000
    H41      H        0.26060    0.83130    0.68130    1.000
    C95      C        0.21970    0.90500    0.62980    1.000
    H42      H        0.23000    0.93370    0.67000    1.000
    C96      C        0.18700    0.92080    0.56110    1.000
    C97      C        0.16620    0.98540    0.54550    1.000
    C98      C        0.16230    0.78250    0.44230    1.000
    Y15      Y        0.88241    0.58502    0.37623    1.000
    O57      O        0.86060    0.50470    0.47550    1.000
    O58      O        0.82250    0.47380    0.59620    1.000
    O59      O        0.83010    0.77410    0.44590    1.000
    O60      O        0.86430    0.69190    0.38280    1.000
    N15      N        0.82980    0.61860    0.50260    1.000
    C99      C        0.81500    0.67720    0.51120    1.000
    C100     C        0.78080    0.69920    0.57880    1.000
    H43      H        0.77060    0.74040    0.58410    1.000
    C101     C        0.76320    0.65640    0.63670    1.000
    H44      H        0.73940    0.66870    0.68130    1.000
    C102     C        0.78030    0.59500    0.62980    1.000
    H45      H        0.77000    0.56630    0.67000    1.000
    C103     C        0.81300    0.57920    0.56110    1.000
    C104     C        0.83380    0.51460    0.54550    1.000
    C105     C        0.83770    0.71750    0.44230    1.000
    Y16      Y        0.38241    0.08502    0.87623    1.000
    O61      O        0.36060    0.00470    0.97550    1.000
    O62      O        0.32250    0.97380    0.09620    1.000
    O63      O        0.33010    0.27410    0.94590    1.000
    O64      O        0.36430    0.19190    0.88280    1.000
    N16      N        0.32980    0.11860    0.00260    1.000
    C106     C        0.31500    0.17720    0.01120    1.000
    C107     C        0.28080    0.19920    0.07880    1.000
    H46      H        0.27060    0.24040    0.08410    1.000
    C108     C        0.26320    0.15640    0.13670    1.000
    H47      H        0.23940    0.16870    0.18130    1.000
    C109     C        0.28030    0.09500    0.12980    1.000
    H48      H        0.27000    0.06630    0.17000    1.000
    C110     C        0.31300    0.07920    0.06110    1.000
    C111     C        0.33380    0.01460    0.04550    1.000
    C112     C        0.33770    0.21750    0.94230    1.000
