# CIF file generated by openbabel 3.1.0, see https://openbabel.org
data_I
_chemical_name_common 'LUSHUD_clean'
_cell_length_a 12.564
_cell_length_b 12.6461
_cell_length_c 12.6461
_cell_angle_alpha 91.6371
_cell_angle_beta 113.87
_cell_angle_gamma 113.87
_space_group_name_H-M_alt 'P 1'
_space_group_name_Hall 'P 1'
loop_
    _symmetry_equiv_pos_as_xyz
    x,y,z
loop_
    _atom_site_label
    _atom_site_type_symbol
    _atom_site_fract_x
    _atom_site_fract_y
    _atom_site_fract_z
    _atom_site_occupancy
    Mn1      Mn       0.25000    0.69610    0.30390    1.000
    Mn2      Mn       0.75000    0.30390    0.69610    1.000
    Mn3      Mn       0.00000    0.50000    0.00000    1.000
    Mn4      Mn       0.50000    0.00000    0.50000    1.000
    H1       H        0.50480    0.57720    0.34540    1.000
    H2       H        0.60060    0.46710    0.45090    1.000
    H3       H        0.27690    0.16760    0.24600    1.000
    H4       H        0.18760    0.27710    0.13430    1.000
    H5       H        0.13660    0.78510    0.96430    1.000
    H6       H        0.09130    0.93910    0.90730    1.000
    H7       H        0.95340    0.92620    0.14340    1.000
    H8       H        0.00450    0.77460    0.19900    1.000
    H9       H        0.99520    0.65460    0.42280    1.000
    H10      H        0.89940    0.54910    0.53290    1.000
    H11      H        0.22310    0.75400    0.83240    1.000
    H12      H        0.31240    0.86570    0.72290    1.000
    H13      H        0.36340    0.03570    0.21490    1.000
    H14      H        0.40870    0.09270    0.06090    1.000
    H15      H        0.54660    0.85660    0.07380    1.000
    H16      H        0.49550    0.80100    0.22540    1.000
    H17      H        0.49520    0.42280    0.65460    1.000
    H18      H        0.39940    0.53290    0.54910    1.000
    H19      H        0.72310    0.83240    0.75400    1.000
    H20      H        0.81240    0.72290    0.86570    1.000
    H21      H        0.86340    0.21490    0.03570    1.000
    H22      H        0.90870    0.06090    0.09270    1.000
    H23      H        0.04660    0.07380    0.85660    1.000
    H24      H        0.99550    0.22540    0.80100    1.000
    H25      H        0.00480    0.34540    0.57720    1.000
    H26      H        0.10060    0.45090    0.46710    1.000
    H27      H        0.77690    0.24600    0.16760    1.000
    H28      H        0.68760    0.13430    0.27710    1.000
    H29      H        0.63660    0.96430    0.78510    1.000
    H30      H        0.59130    0.90730    0.93910    1.000
    H31      H        0.45340    0.14340    0.92620    1.000
    H32      H        0.50450    0.19900    0.77460    1.000
    C1       C        0.26840    0.51040    0.16720    1.000
    C2       C        0.33390    0.43895    0.22965    1.000
    C3       C        0.45890    0.49470    0.32490    1.000
    C4       C        0.51580    0.42870    0.38950    1.000
    C5       C        0.44670    0.30550    0.36290    1.000
    C6       C        0.32340    0.25010    0.26630    1.000
    C7       C        0.26930    0.31590    0.20010    1.000
    C8       C        0.50630    0.23640    0.44100    1.000
    C9       C        0.10090    0.81520    0.00140    1.000
    C10      C        0.07270    0.90690    0.96650    1.000
    C11      C        0.01660    0.95190    0.01890    1.000
    C12      C        0.99160    0.89950    0.10650    1.000
    C13      C        0.02220    0.80850    0.14010    1.000
    C14      C        0.23160    0.83280    0.48960    1.000
    C15      C        0.16610    0.77035    0.56105    1.000
    C16      C        0.04110    0.67510    0.50530    1.000
    C17      C        0.98420    0.61050    0.57130    1.000
    C18      C        0.05330    0.63710    0.69450    1.000
    C19      C        0.17660    0.73370    0.74990    1.000
    C20      C        0.23070    0.79990    0.68410    1.000
    C21      C        0.99370    0.55900    0.76360    1.000
    C22      C        0.39910    0.99860    0.18480    1.000
    C23      C        0.42730    0.03350    0.09310    1.000
    C24      C        0.48340    0.98110    0.04810    1.000
    C25      C        0.50840    0.89350    0.10050    1.000
    C26      C        0.47780    0.85990    0.19150    1.000
    C27      C        0.73160    0.48960    0.83280    1.000
    C28      C        0.66610    0.56105    0.77035    1.000
    C29      C        0.54110    0.50530    0.67510    1.000
    C30      C        0.48420    0.57130    0.61050    1.000
    C31      C        0.55330    0.69450    0.63710    1.000
    C32      C        0.67660    0.74990    0.73370    1.000
    C33      C        0.73070    0.68410    0.79990    1.000
    C34      C        0.49370    0.76360    0.55900    1.000
    C35      C        0.89910    0.18480    0.99860    1.000
    C36      C        0.92730    0.09310    0.03350    1.000
    C37      C        0.98340    0.04810    0.98110    1.000
    C38      C        0.00840    0.10050    0.89350    1.000
    C39      C        0.97780    0.19150    0.85990    1.000
    C40      C        0.76840    0.16720    0.51040    1.000
    C41      C        0.83390    0.22965    0.43895    1.000
    C42      C        0.95890    0.32490    0.49470    1.000
    C43      C        0.01580    0.38950    0.42870    1.000
    C44      C        0.94670    0.36290    0.30550    1.000
    C45      C        0.82340    0.26630    0.25010    1.000
    C46      C        0.76930    0.20010    0.31590    1.000
    C47      C        0.00630    0.44100    0.23640    1.000
    C48      C        0.60090    0.00140    0.81520    1.000
    C49      C        0.57270    0.96650    0.90690    1.000
    C50      C        0.51660    0.01890    0.95190    1.000
    C51      C        0.49160    0.10650    0.89950    1.000
    C52      C        0.52220    0.14010    0.80850    1.000
    N1       N        0.07730    0.76938    0.08802    1.000
    N2       N        0.42270    0.91198    0.23062    1.000
    N3       N        0.92270    0.23062    0.91198    1.000
    N4       N        0.57730    0.08802    0.76938    1.000
    O1       O        0.32300    0.62002    0.21322    1.000
    O2       O        0.16260    0.45760    0.07248    1.000
    O3       O        0.61870    0.29552    0.52406    1.000
    O4       O        0.43690    0.12459    0.41729    1.000
    O5       O        0.10700    0.68209    0.12189    1.000
    O6       O        0.17700    0.78678    0.37998    1.000
    O7       O        0.33740    0.92752    0.54240    1.000
    O8       O        0.88130    0.47594    0.70448    1.000
    O9       O        0.06310    0.58271    0.87541    1.000
    O10      O        0.39300    0.87811    0.31791    1.000
    O11      O        0.67700    0.37998    0.78678    1.000
    O12      O        0.83740    0.54240    0.92752    1.000
    O13      O        0.38130    0.70448    0.47594    1.000
    O14      O        0.56310    0.87541    0.58271    1.000
    O15      O        0.89300    0.31791    0.87811    1.000
    O16      O        0.82300    0.21322    0.62002    1.000
    O17      O        0.66260    0.07248    0.45760    1.000
    O18      O        0.11870    0.52406    0.29552    1.000
    O19      O        0.93690    0.41729    0.12459    1.000
    O20      O        0.60700    0.12189    0.68209    1.000
