data_functionalizedCrystal
_audit_creation_method	'EQeq! by Chris Wilmer'
_symmetry_space_group_name_H-M	'P1'
_symmetry_Int_Tables_number	1
_symmetry_cell_setting	triclinic
loop_
_symmetry_equiv_pos_as_xyz
  x,y,z
_cell_length_a	7.038
_cell_length_b	23.12
_cell_length_c	20.675
_cell_angle_alpha	90
_cell_angle_beta	90
_cell_angle_gamma	90
loop_
_atom_site_label
_atom_site_type_symbol
_atom_site_fract_x
_atom_site_fract_y
_atom_site_fract_z
_atom_site_charge
Mof_O 	O 	0.3321	0.1503	0.9504	-0.596
Mof_O 	O 	0.364	0.3249	0.9341	-0.565
Mof_O 	O 	0.414	0.2651	0.9697	-0.711
Mof_C 	C 	0.588	0.0395	0.4655	0.071
Mof_C 	C 	0.405	0.0202	0.5487	0.027
Mof_O 	O 	0.133	0.3817	0.8828	-0.299
Mof_O 	O 	0.8321	0.6503	0.9504	-0.357
Mof_O 	O 	0.864	0.8249	0.9341	-0.412
Mof_O 	O 	0.914	0.7651	0.9697	-0.371
Mof_C 	C 	0.088	0.5395	0.4655	-0.109
Mof_C 	C 	0.905	0.5202	0.5487	0.198
Mof_O 	O 	0.633	0.8817	0.8828	-0.486
Mof_O 	O 	0.6679	0.3497	0.4504	-0.546
Mof_O 	O 	0.636	0.1751	0.4341	-0.531
Mof_O 	O 	0.586	0.2349	0.4697	-0.694
Mof_C 	C 	0.412	0.4605	0.9655	0.03
Mof_C 	C 	0.595	0.4798	0.0487	0.089
Mof_O 	O 	0.867	0.1183	0.3828	-0.085
Mof_O 	O 	0.1679	0.8497	0.4504	-0.518
Mof_O 	O 	0.136	0.6751	0.4341	-0.553
Mof_O 	O 	0.086	0.7349	0.4697	-0.696
Mof_C 	C 	0.912	0.9605	0.9655	0.27
Mof_C 	C 	0.095	0.9798	0.0487	-0.024
Mof_O 	O 	0.367	0.6183	0.3828	-0.524
Mof_O 	O 	0.6679	0.6503	0.5496	-0.546
Mof_O 	O 	0.636	0.8249	0.5659	-0.531
Mof_O 	O 	0.586	0.7651	0.5303	-0.694
Mof_C 	C 	0.412	0.5395	0.0345	0.03
Mof_C 	C 	0.595	0.5202	0.9513	0.089
Mof_O 	O 	0.867	0.8817	0.6172	-0.085
Mof_O 	O 	0.1679	0.1503	0.5496	-0.518
Mof_O 	O 	0.136	0.3249	0.5659	-0.553
Mof_O 	O 	0.086	0.2651	0.5303	-0.696
Mof_C 	C 	0.912	0.0395	0.0345	0.27
Mof_C 	C 	0.095	0.0202	0.9513	-0.024
Mof_O 	O 	0.367	0.3817	0.6172	-0.524
Mof_O 	O 	0.3321	0.8497	0.0496	-0.597
Mof_O 	O 	0.364	0.6751	0.0659	-0.566
Mof_O 	O 	0.414	0.7349	0.0303	-0.712
Mof_C 	C 	0.588	0.9605	0.5345	0.07
Mof_C 	C 	0.405	0.9798	0.4513	0.026
Mof_O 	O 	0.133	0.6183	0.1172	-0.3
Mof_O 	O 	0.8321	0.3497	0.0496	-0.358
Mof_O 	O 	0.864	0.1751	0.0659	-0.413
Mof_O 	O 	0.914	0.2349	0.0303	-0.371
Mof_C 	C 	0.088	0.4605	0.5345	-0.109
Mof_C 	C 	0.905	0.4798	0.4513	0.198
Mof_O 	O 	0.633	0.1183	0.1172	-0.486
Mof_O 	O 	0.6679	0.8497	0.0496	-0.546
Mof_O 	O 	0.636	0.6751	0.0659	-0.532
Mof_O 	O 	0.586	0.7349	0.0303	-0.693
Mof_C 	C 	0.412	0.9605	0.5345	0.029
Mof_C 	C 	0.595	0.9798	0.4513	0.089
Mof_O 	O 	0.867	0.6183	0.1172	-0.086
Mof_O 	O 	0.1679	0.3497	0.0496	-0.519
Mof_O 	O 	0.136	0.1751	0.0659	-0.554
Mof_O 	O 	0.086	0.2349	0.0303	-0.697
Mof_C 	C 	0.912	0.4605	0.5345	0.275
Mof_C 	C 	0.095	0.4798	0.4513	-0.026
Mof_O 	O 	0.367	0.1183	0.1172	-0.524
Mof_O 	O 	0.3321	0.6503	0.5496	-0.598
Mof_O 	O 	0.364	0.8249	0.5659	-0.566
Mof_O 	O 	0.414	0.7651	0.5303	-0.713
Mof_C 	C 	0.588	0.5395	0.0345	0.071
Mof_C 	C 	0.405	0.5202	0.9513	0.026
Mof_O 	O 	0.133	0.8817	0.6172	-0.299
Mof_O 	O 	0.8321	0.1503	0.5496	-0.357
Mof_O 	O 	0.864	0.3249	0.5659	-0.411
Mof_O 	O 	0.914	0.2651	0.5303	-0.368
Mof_C 	C 	0.088	0.0395	0.0345	-0.11
Mof_C 	C 	0.905	0.0202	0.9513	0.198
Mof_O 	O 	0.633	0.3817	0.6172	-0.486
Mof_O 	O 	0.3321	0.3497	0.4504	-0.598
Mof_O 	O 	0.364	0.1751	0.4341	-0.566
Mof_O 	O 	0.414	0.2349	0.4697	-0.713
Mof_C 	C 	0.588	0.4605	0.9655	0.071
Mof_C 	C 	0.405	0.4798	0.0487	0.026
Mof_O 	O 	0.133	0.1183	0.3828	-0.299
Mof_O 	O 	0.8321	0.8497	0.4504	-0.357
Mof_O 	O 	0.864	0.6751	0.4341	-0.411
Mof_O 	O 	0.914	0.7349	0.4697	-0.368
Mof_C 	C 	0.088	0.9605	0.9655	-0.11
Mof_C 	C 	0.905	0.9798	0.0487	0.198
Mof_O 	O 	0.633	0.6183	0.3828	-0.486
Mof_O 	O 	0.6679	0.1503	0.9504	-0.546
Mof_O 	O 	0.636	0.3249	0.9341	-0.532
Mof_O 	O 	0.586	0.2651	0.9697	-0.693
Mof_C 	C 	0.412	0.0395	0.4655	0.029
Mof_C 	C 	0.595	0.0202	0.5487	0.089
Mof_O 	O 	0.867	0.3817	0.8828	-0.086
Mof_O 	O 	0.1679	0.6503	0.9504	-0.519
Mof_O 	O 	0.136	0.8249	0.9341	-0.554
Mof_O 	O 	0.086	0.7651	0.9697	-0.697
Mof_C 	C 	0.912	0.5395	0.4655	0.275
Mof_C 	C 	0.095	0.5202	0.5487	-0.026
Mof_O 	O 	0.367	0.8817	0.8828	-0.524
Mof_Cd	Cd	0.5	0.15649	0.54015	0.499
Mof_S 	S 	0.5	0.14191	0.90962	0.492
Mof_C 	C 	0.5	0.1766	0.7838	-0.004
Mof_H 	H 	0.5	0.1366	0.7755	0.09
Mof_C 	C 	0.5	0.2148	0.7323	-0.117
Mof_O 	O 	0.5	0.1397	0.6542	-0.3
Mof_O 	O 	0.5	0.2287	0.6177	-0.836
Mof_C 	C 	0.5	0.1927	0.6637	0.553
Mof_N 	N 	0.5	0.0584	0.5148	-0.162
Mof_C 	C 	0.5	0.1956	0.8472	0.061
Mof_C 	C 	0.5	0.2549	0.8591	-0.351
Mof_C 	C 	0.5	0.2844	0.9252	1.136
Mof_C 	C 	0.5	0.2732	0.7442	0
Mof_H 	H 	0.5	0.2994	0.7095	0.001
Mof_C 	C 	0.5	0.2931	0.8062	0.109
Mof_H 	H 	0.5	0.3332	0.8138	0.012
Mof_O 	O 	0.5	0.0887	0.8784	-0.229
Mof_Na	Na	0.5	0.3091	0.5504	3.992
Mof_O 	O 	0.5	0.3926	0.616	0.045
Mof_Cd	Cd	-2.40649e-32	0.65649	0.54015	0.348
Mof_S 	S 	4.00331e-32	0.64191	0.90962	0.254
Mof_C 	C 	-2.13812e-32	0.6766	0.7838	-0.025
Mof_H 	H 	8.54161e-33	0.6366	0.7755	0.046
Mof_C 	C 	8.31015e-32	0.7148	0.7323	-0.183
Mof_O 	O 	-7.80156e-33	0.6397	0.6542	-0.365
Mof_O 	O 	-8.20359e-33	0.7287	0.6177	-0.799
Mof_C 	C 	6.73387e-32	0.6927	0.6637	0.491
Mof_N 	N 	5.67018e-33	0.5584	0.5148	-0.297
Mof_C 	C 	-2.06829e-32	0.6956	0.8472	-0.011
Mof_C 	C 	-8.05804e-32	0.7549	0.8591	-0.305
Mof_C 	C 	1.01905e-32	0.7844	0.9252	0.726
Mof_C 	C 	8.19686e-33	0.7732	0.7442	-0.014
Mof_H 	H 	6.78432e-32	0.7994	0.7095	-0.042
Mof_C 	C 	-2.11345e-32	0.7931	0.8062	0.01
Mof_H 	H 	8.96346e-33	0.8332	0.8138	-0.011
Mof_O 	O 	9.67498e-33	0.5887	0.8784	-0.262
Mof_Na	Na	-2.3952e-32	0.8091	0.5504	3.197
Mof_O 	O 	3.67991e-32	0.8926	0.616	-0.356
Mof_Cd	Cd	0.5	0.34351	0.04015	0.499
Mof_S 	S 	0.5	0.35809	0.40962	0.492
Mof_C 	C 	0.5	0.3234	0.2838	-0.004
Mof_H 	H 	0.5	0.3634	0.2755	0.09
Mof_C 	C 	0.5	0.2852	0.2323	-0.117
Mof_O 	O 	0.5	0.3603	0.1542	-0.3
Mof_O 	O 	0.5	0.2713	0.1177	-0.835
Mof_C 	C 	0.5	0.3073	0.1637	0.552
Mof_N 	N 	0.5	0.4416	0.0148	-0.163
Mof_C 	C 	0.5	0.3044	0.3472	0.062
Mof_C 	C 	0.5	0.2451	0.3591	-0.351
Mof_C 	C 	0.5	0.2156	0.4252	1.136
Mof_C 	C 	0.5	0.2268	0.2442	0
Mof_H 	H 	0.5	0.2006	0.2095	0.001
Mof_C 	C 	0.5	0.2069	0.3062	0.109
Mof_H 	H 	0.5	0.1668	0.3138	0.012
Mof_O 	O 	0.5	0.4113	0.3784	-0.229
Mof_Na	Na	0.5	0.1909	0.0504	3.989
Mof_O 	O 	0.5	0.1074	0.116	0.044
Mof_Cd	Cd	2.48288e-32	0.84351	0.04015	0.351
Mof_S 	S 	-1.04954e-32	0.85809	0.40962	0.253
Mof_C 	C 	1.8133e-32	0.8234	0.2838	-0.024
Mof_H 	H 	3.03445e-33	0.8634	0.2755	0.046
Mof_C 	C 	3.25729e-32	0.7852	0.2323	-0.183
Mof_O 	O 	5.45019e-33	0.8603	0.1542	-0.365
Mof_O 	O 	1.63035e-32	0.7713	0.1177	-0.8
Mof_C 	C 	9.30661e-33	0.8073	0.1637	0.491
Mof_N 	N 	-3.05961e-34	0.9416	0.0148	-0.293
Mof_C 	C 	2.63349e-32	0.8044	0.3472	-0.012
Mof_C 	C 	6.39838e-32	0.7451	0.3591	-0.304
Mof_C 	C 	1.96904e-32	0.7156	0.4252	0.722
Mof_C 	C 	2.52004e-32	0.7268	0.2442	-0.013
Mof_H 	H 	-2.02032e-32	0.7006	0.2095	-0.043
Mof_C 	C 	1.08762e-32	0.7069	0.3062	0.009
Mof_H 	H 	-1.90544e-32	0.6668	0.3138	-0.01
Mof_O 	O 	1.9175e-32	0.9113	0.3784	-0.262
Mof_Na	Na	6.1828e-33	0.6909	0.0504	3.206
Mof_O 	O 	-9.97769e-33	0.6074	0.116	-0.356
Mof_Cd	Cd	0.5	0.65649	0.95985	0.499
Mof_S 	S 	0.5	0.64191	0.59038	0.492
Mof_C 	C 	0.5	0.6766	0.7162	-0.004
Mof_H 	H 	0.5	0.6366	0.7245	0.09
Mof_C 	C 	0.5	0.7148	0.7677	-0.117
Mof_O 	O 	0.5	0.6397	0.8458	-0.3
Mof_O 	O 	0.5	0.7287	0.8823	-0.835
Mof_C 	C 	0.5	0.6927	0.8363	0.552
Mof_N 	N 	0.5	0.5584	0.9852	-0.163
Mof_C 	C 	0.5	0.6956	0.6528	0.062
Mof_C 	C 	0.5	0.7549	0.6409	-0.351
Mof_C 	C 	0.5	0.7844	0.5748	1.136
Mof_C 	C 	0.5	0.7732	0.7558	0
Mof_H 	H 	0.5	0.7994	0.7905	0.001
Mof_C 	C 	0.5	0.7931	0.6938	0.109
Mof_H 	H 	0.5	0.8332	0.6862	0.012
Mof_O 	O 	0.5	0.5887	0.6216	-0.229
Mof_Na	Na	0.5	0.8091	0.9496	3.989
Mof_O 	O 	0.5	0.8926	0.884	0.044
Mof_Cd	Cd	-1.94422e-32	0.15649	0.95985	0.351
Mof_S 	S 	6.50264e-33	0.14191	0.59038	0.253
Mof_C 	C 	-3.71329e-32	0.1766	0.7162	-0.024
Mof_H 	H 	-2.20344e-32	0.1366	0.7245	0.046
Mof_C 	C 	-2.15586e-32	0.2148	0.7677	-0.183
Mof_O 	O 	-2.06984e-32	0.1397	0.8458	-0.365
Mof_O 	O 	-2.02963e-32	0.2287	0.8823	-0.8
Mof_C 	C 	-2.0803e-32	0.1927	0.8363	0.491
Mof_N 	N 	-1.9163e-32	0.0584	0.9852	-0.293
Mof_C 	C 	7.19015e-33	0.1956	0.6528	-0.012
Mof_C 	C 	-7.94805e-33	0.2549	0.6409	-0.304
Mof_C 	C 	-2.36832e-32	0.2844	0.5748	0.722
Mof_C 	C 	-5.17039e-32	0.2732	0.7558	-0.013
Mof_H 	H 	8.70683e-33	0.2994	0.7905	-0.043
Mof_C 	C 	7.64174e-33	0.2931	0.6938	0.009
Mof_H 	H 	-7.4491e-33	0.3332	0.6862	-0.01
Mof_O 	O 	-8.16063e-33	0.0887	0.6216	-0.262
Mof_Na	Na	-1.95551e-32	0.3091	0.9496	3.206
Mof_O 	O 	9.73667e-33	0.3926	0.884	-0.356
Mof_Cd	Cd	0.5	0.84351	0.45985	0.499
Mof_S 	S 	0.5	0.85809	0.09038	0.492
Mof_C 	C 	0.5	0.8234	0.2162	-0.004
Mof_H 	H 	0.5	0.8634	0.2245	0.09
Mof_C 	C 	0.5	0.7852	0.2677	-0.117
Mof_O 	O 	0.5	0.8603	0.3458	-0.3
Mof_O 	O 	0.5	0.7713	0.3823	-0.836
Mof_C 	C 	0.5	0.8073	0.3363	0.553
Mof_N 	N 	0.5	0.9416	0.4852	-0.162
Mof_C 	C 	0.5	0.8044	0.1528	0.061
Mof_C 	C 	0.5	0.7451	0.1409	-0.351
Mof_C 	C 	0.5	0.7156	0.0748	1.136
Mof_C 	C 	0.5	0.7268	0.2558	0
Mof_H 	H 	0.5	0.7006	0.2905	0.001
Mof_C 	C 	0.5	0.7069	0.1938	0.109
Mof_H 	H 	0.5	0.6668	0.1862	0.012
Mof_O 	O 	0.5	0.9113	0.1216	-0.229
Mof_Na	Na	0.5	0.6909	0.4496	3.992
Mof_O 	O 	0.5	0.6074	0.384	0.045
Mof_Cd	Cd	5.06494e-33	0.34351	0.45985	0.348
Mof_S 	S 	-4.6322e-33	0.35809	0.09038	0.254
Mof_C 	C 	-5.12227e-33	0.3234	0.2162	-0.025
Mof_H 	H 	2.47272e-33	0.3634	0.2245	0.046
Mof_C 	C 	-4.55503e-33	0.2852	0.2677	-0.183
Mof_O 	O 	-1.11984e-32	0.3603	0.3458	-0.365
Mof_O 	O 	4.21078e-33	0.2713	0.3823	-0.799
Mof_C 	C 	-1.1303e-32	0.3073	0.3363	0.491
Mof_N 	N 	-9.66298e-33	0.4416	0.4852	-0.297
Mof_C 	C 	-2.06879e-33	0.3044	0.1528	-0.011
Mof_C 	C 	-2.19987e-33	0.2451	0.1409	-0.305
Mof_C 	C 	-4.8038e-33	0.2156	0.0748	0.726
Mof_C 	C 	-1.21897e-32	0.2268	0.2558	-0.014
Mof_H 	H 	3.19966e-33	0.2006	0.2905	-0.042
Mof_C 	C 	-5.36899e-33	0.2069	0.1938	0.01
Mof_H 	H 	2.05087e-33	0.1668	0.1862	-0.011
Mof_O 	O 	1.33934e-33	0.4113	0.1216	-0.262
Mof_Na	Na	-1.00551e-32	0.1909	0.4496	3.197
Mof_O 	O 	-1.07776e-32	0.1074	0.384	-0.356
_end
