# CIF file generated by openbabel 3.1.0, see https://openbabel.org
data_I
_chemical_name_common 'image0'
_cell_length_a 9.4111
_cell_length_b 9.1066
_cell_length_c 9.695
_cell_angle_alpha 90
_cell_angle_beta 117.272
_cell_angle_gamma 90
_space_group_name_H-M_alt 'P 1'
_space_group_name_Hall 'P 1'
loop_
    _symmetry_equiv_pos_as_xyz
    x,y,z
loop_
    _atom_site_label
    _atom_site_type_symbol
    _atom_site_fract_x
    _atom_site_fract_y
    _atom_site_fract_z
    _atom_site_occupancy
    P1       P        0.83172    0.10162    0.06395    1.000
    P2       P        0.35592    0.34309    0.02725    1.000
    O1       O        0.73368    0.22278    0.09113    1.000
    O2       O        0.74714    0.05986    0.89182    1.000
    O3       O        0.84059    0.96350    0.16485    1.000
    H1       H        0.74910    0.92630    0.13200    1.000
    O4       O        0.00394    0.14504    0.11785    1.000
    O5       O        0.25602    0.26612    0.09126    1.000
    O6       O        0.41231    0.22249    0.94313    1.000
    H2       H        0.51110    0.20860    0.99510    1.000
    O7       O        0.50552    0.41304    0.15275    1.000
    O8       O        0.24952    0.44982    0.90361    1.000
    P3       P        0.66828    0.10162    0.43605    1.000
    P4       P        0.14408    0.34309    0.47275    1.000
    O9       O        0.76632    0.22278    0.40887    1.000
    O10      O        0.75286    0.05986    0.60818    1.000
    O11      O        0.65941    0.96350    0.33515    1.000
    H3       H        0.75090    0.92630    0.36800    1.000
    O12      O        0.49606    0.14504    0.38215    1.000
    O13      O        0.24398    0.26612    0.40874    1.000
    O14      O        0.08769    0.22249    0.55687    1.000
    H4       H        0.98890    0.20860    0.50490    1.000
    O15      O        0.99448    0.41304    0.34725    1.000
    O16      O        0.25048    0.44982    0.59639    1.000
    P5       P        0.16828    0.89838    0.93605    1.000
    P6       P        0.64408    0.65691    0.97275    1.000
    O17      O        0.26632    0.77722    0.90887    1.000
    O18      O        0.25286    0.94014    0.10818    1.000
    O19      O        0.15941    0.03650    0.83515    1.000
    H5       H        0.25090    0.07370    0.86800    1.000
    O20      O        0.99606    0.85496    0.88215    1.000
    O21      O        0.74398    0.73388    0.90874    1.000
    O22      O        0.58769    0.77751    0.05687    1.000
    H6       H        0.48890    0.79140    0.00490    1.000
    O23      O        0.49448    0.58696    0.84725    1.000
    O24      O        0.75048    0.55018    0.09639    1.000
    P7       P        0.33172    0.89838    0.56395    1.000
    P8       P        0.85592    0.65691    0.52725    1.000
    O25      O        0.23368    0.77722    0.59113    1.000
    O26      O        0.24714    0.94014    0.39182    1.000
    O27      O        0.34059    0.03650    0.66485    1.000
    H7       H        0.24910    0.07370    0.63200    1.000
    O28      O        0.50394    0.85496    0.61785    1.000
    O29      O        0.75602    0.73388    0.59126    1.000
    O30      O        0.91231    0.77751    0.44313    1.000
    H8       H        0.01110    0.79140    0.49510    1.000
    O31      O        0.00552    0.58696    0.65275    1.000
    O32      O        0.74952    0.55018    0.40361    1.000
    Sc1      Sc       0.75000    0.39364    0.25000    1.000
    Sc2      Sc       0.25000    0.60636    0.75000    1.000
    Sc3      Sc       0.75000    0.88254    0.75000    1.000
    Sc4      Sc       0.25000    0.11746    0.25000    1.000
