# CIF file generated by openbabel 3.1.0, see https://openbabel.org
data_I
_chemical_name_common 'DIMQOH_clean'
_cell_length_a 10.5841
_cell_length_b 10.5841
_cell_length_c 12.2246
_cell_angle_alpha 90
_cell_angle_beta 90
_cell_angle_gamma 112.854
_space_group_name_H-M_alt 'P 1'
_space_group_name_Hall 'P 1'
loop_
    _symmetry_equiv_pos_as_xyz
    x,y,z
loop_
    _atom_site_label
    _atom_site_type_symbol
    _atom_site_fract_x
    _atom_site_fract_y
    _atom_site_fract_z
    _atom_site_occupancy
    Mn1      Mn       0.50000    0.50000    0.00000    1.000
    Mn2      Mn       0.00000    0.00000    0.50000    1.000
    Ag1      Ag       0.75429    0.24571    0.75789    1.000
    Ag2      Ag       0.74571    0.25429    0.25789    1.000
    Ag3      Ag       0.25429    0.74571    0.74211    1.000
    Ag4      Ag       0.24571    0.75429    0.24211    1.000
    H1       H        0.73320    0.69920    0.84420    1.000
    H2       H        0.91100    0.91540    0.83730    1.000
    H3       H        0.76680    0.80080    0.34420    1.000
    H4       H        0.58900    0.58460    0.33730    1.000
    H5       H        0.80080    0.76680    0.65580    1.000
    H6       H        0.58460    0.58900    0.66270    1.000
    H7       H        0.69920    0.73320    0.15580    1.000
    H8       H        0.91540    0.91100    0.16270    1.000
    H9       H        0.26680    0.30080    0.15580    1.000
    H10      H        0.08900    0.08460    0.16270    1.000
    H11      H        0.23320    0.19920    0.65580    1.000
    H12      H        0.41100    0.41540    0.66270    1.000
    H13      H        0.19920    0.23320    0.34420    1.000
    H14      H        0.41540    0.41100    0.33730    1.000
    H15      H        0.30080    0.26680    0.84420    1.000
    H16      H        0.08460    0.08900    0.83730    1.000
    C1       C        0.76290    0.74870    0.91050    1.000
    C2       C        0.87690    0.87470    0.90600    1.000
    C3       C        0.73710    0.75130    0.41050    1.000
    C4       C        0.62310    0.62530    0.40600    1.000
    C5       C        0.75130    0.73710    0.58950    1.000
    C6       C        0.62530    0.62310    0.59400    1.000
    C7       C        0.74870    0.76290    0.08950    1.000
    C8       C        0.87470    0.87690    0.09400    1.000
    C9       C        0.23710    0.25130    0.08950    1.000
    C10      C        0.12310    0.12530    0.09400    1.000
    C11      C        0.26290    0.24870    0.58950    1.000
    C12      C        0.37690    0.37470    0.59400    1.000
    C13      C        0.24870    0.26290    0.41050    1.000
    C14      C        0.37470    0.37690    0.40600    1.000
    C15      C        0.25130    0.23710    0.91050    1.000
    C16      C        0.12530    0.12310    0.90600    1.000
    C17      C        0.64900    0.35100    0.83110    1.000
    C18      C        0.85860    0.14140    0.68310    1.000
    C19      C        0.85100    0.14900    0.33110    1.000
    C20      C        0.64140    0.35860    0.18310    1.000
    C21      C        0.14900    0.85100    0.66890    1.000
    C22      C        0.35860    0.64140    0.81690    1.000
    C23      C        0.35100    0.64900    0.16890    1.000
    C24      C        0.14140    0.85860    0.31690    1.000
    C25      C        0.93820    0.93820    0.00000    1.000
    C26      C        0.56180    0.56180    0.50000    1.000
    C27      C        0.06180    0.06180    0.00000    1.000
    C28      C        0.43820    0.43820    0.50000    1.000
    N1       N        0.59280    0.40720    0.87650    1.000
    N2       N        0.91420    0.08580    0.63260    1.000
    N3       N        0.90720    0.09280    0.37650    1.000
    N4       N        0.58580    0.41420    0.13260    1.000
    N5       N        0.09280    0.90720    0.62350    1.000
    N6       N        0.41420    0.58580    0.86740    1.000
    N7       N        0.40720    0.59280    0.12350    1.000
    N8       N        0.08580    0.91420    0.36740    1.000
    N9       N        0.69560    0.69560    0.00000    1.000
    N10      N        0.80440    0.80440    0.50000    1.000
    N11      N        0.30440    0.30440    0.00000    1.000
    N12      N        0.19560    0.19560    0.50000    1.000
