# CIF file generated by openbabel 3.1.0, see https://openbabel.org
data_I
_chemical_name_common 'image0'
_cell_length_a 21.535
_cell_length_b 9.028
_cell_length_c 12.186
_cell_angle_alpha 90
_cell_angle_beta 90
_cell_angle_gamma 90
_space_group_name_H-M_alt 'P 1'
_space_group_name_Hall 'P 1'
loop_
    _symmetry_equiv_pos_as_xyz
    x,y,z
loop_
    _atom_site_label
    _atom_site_type_symbol
    _atom_site_fract_x
    _atom_site_fract_y
    _atom_site_fract_z
    _atom_site_occupancy
    C1       C        0.99570    0.79490    0.79670    1.000
    C2       C        0.00680    0.95600    0.75460    1.000
    C3       C        0.03630    0.63270    0.93720    1.000
    C4       C        0.08100    0.64600    0.03630    1.000
    C5       C        0.94260    0.77590    0.96750    1.000
    C6       C        0.91530    0.93640    0.98190    1.000
    C7       C        0.25470    0.26030    0.36160    1.000
    C8       C        0.25000    0.41280    0.42440    1.000
    C9       C        0.24020    0.14150    0.19050    1.000
    C10      C        0.17190    0.16110    0.15680    1.000
    C11      C        0.32940    0.30560    0.21840    1.000
    C12      C        0.34440    0.46590    0.19410    1.000
    Dy1      Dy       0.06120    0.99870    0.00000    1.000
    Dy2      Dy       0.19550    0.49940    0.18660    1.000
    N1       N        0.00410    0.77720    0.91290    1.000
    N2       N        0.26250    0.27640    0.24600    1.000
    O1       O        0.04150    0.03740    0.81320    1.000
    O2       O        0.98340    0.99480    0.67000    1.000
    O3       O        0.08890    0.77410    0.07480    1.000
    O4       O        0.10800    0.53100    0.06250    1.000
    O5       O        0.95300    0.04560    0.97970    1.000
    O6       O        0.85840    0.94550    0.99120    1.000
    O7       O        0.22690    0.51580    0.37480    1.000
    O8       O        0.27020    0.41060    0.51980    1.000
    O9       O        0.14500    0.27230    0.17960    1.000
    O10      O        0.14910    0.04960    0.10670    1.000
    O11      O        0.30190    0.55700    0.18500    1.000
    O12      O        0.39970    0.49880    0.18110    1.000
    C13      C        0.00430    0.20510    0.29670    1.000
    C14      C        0.99320    0.04400    0.25460    1.000
    C15      C        0.96370    0.36730    0.43720    1.000
    C16      C        0.91900    0.35400    0.53630    1.000
    C17      C        0.05740    0.22410    0.46750    1.000
    C18      C        0.08470    0.06360    0.48190    1.000
    C19      C        0.74530    0.73970    0.86160    1.000
    C20      C        0.75000    0.58720    0.92440    1.000
    C21      C        0.75980    0.85850    0.69050    1.000
    C22      C        0.82810    0.83890    0.65680    1.000
    C23      C        0.67060    0.69440    0.71840    1.000
    C24      C        0.65560    0.53410    0.69410    1.000
    Dy3      Dy       0.93880    0.00130    0.50000    1.000
    Dy4      Dy       0.80450    0.50060    0.68660    1.000
    N3       N        0.99590    0.22280    0.41290    1.000
    N4       N        0.73750    0.72360    0.74600    1.000
    O13      O        0.95850    0.96260    0.31320    1.000
    O14      O        0.01660    0.00520    0.17000    1.000
    O15      O        0.91110    0.22590    0.57480    1.000
    O16      O        0.89200    0.46900    0.56250    1.000
    O17      O        0.04700    0.95440    0.47970    1.000
    O18      O        0.14160    0.05450    0.49120    1.000
    O19      O        0.77310    0.48420    0.87480    1.000
    O20      O        0.72980    0.58940    0.01980    1.000
    O21      O        0.85500    0.72770    0.67960    1.000
    O22      O        0.85090    0.95040    0.60670    1.000
    O23      O        0.69810    0.44300    0.68500    1.000
    O24      O        0.60030    0.50120    0.68110    1.000
    C25      C        0.49570    0.20510    0.79670    1.000
    C26      C        0.50680    0.04400    0.75460    1.000
    C27      C        0.53630    0.36730    0.93720    1.000
    C28      C        0.58100    0.35400    0.03630    1.000
    C29      C        0.44260    0.22410    0.96750    1.000
    C30      C        0.41530    0.06360    0.98190    1.000
    C31      C        0.75470    0.73970    0.36160    1.000
    C32      C        0.75000    0.58720    0.42440    1.000
    C33      C        0.74020    0.85850    0.19050    1.000
    C34      C        0.67190    0.83890    0.15680    1.000
    C35      C        0.82940    0.69440    0.21840    1.000
    C36      C        0.84440    0.53410    0.19410    1.000
    Dy5      Dy       0.56120    0.00130    0.00000    1.000
    Dy6      Dy       0.69550    0.50060    0.18660    1.000
    N5       N        0.50410    0.22280    0.91290    1.000
    N6       N        0.76250    0.72360    0.24600    1.000
    O25      O        0.54150    0.96260    0.81320    1.000
    O26      O        0.48340    0.00520    0.67000    1.000
    O27      O        0.58890    0.22590    0.07480    1.000
    O28      O        0.60800    0.46900    0.06250    1.000
    O29      O        0.45300    0.95440    0.97970    1.000
    O30      O        0.35840    0.05450    0.99120    1.000
    O31      O        0.72690    0.48420    0.37480    1.000
    O32      O        0.77020    0.58940    0.51980    1.000
    O33      O        0.64500    0.72770    0.17960    1.000
    O34      O        0.64910    0.95040    0.10670    1.000
    O35      O        0.80190    0.44300    0.18500    1.000
    O36      O        0.89970    0.50120    0.18110    1.000
    C37      C        0.50430    0.79490    0.29670    1.000
    C38      C        0.49320    0.95600    0.25460    1.000
    C39      C        0.46370    0.63270    0.43720    1.000
    C40      C        0.41900    0.64600    0.53630    1.000
    C41      C        0.55740    0.77590    0.46750    1.000
    C42      C        0.58470    0.93640    0.48190    1.000
    C43      C        0.24530    0.26030    0.86160    1.000
    C44      C        0.25000    0.41280    0.92440    1.000
    C45      C        0.25980    0.14150    0.69050    1.000
    C46      C        0.32810    0.16110    0.65680    1.000
    C47      C        0.17060    0.30560    0.71840    1.000
    C48      C        0.15560    0.46590    0.69410    1.000
    Dy7      Dy       0.43880    0.99870    0.50000    1.000
    Dy8      Dy       0.30450    0.49940    0.68660    1.000
    N7       N        0.49590    0.77720    0.41290    1.000
    N8       N        0.23750    0.27640    0.74600    1.000
    O37      O        0.45850    0.03740    0.31320    1.000
    O38      O        0.51660    0.99480    0.17000    1.000
    O39      O        0.41110    0.77410    0.57480    1.000
    O40      O        0.39200    0.53100    0.56250    1.000
    O41      O        0.54700    0.04560    0.47970    1.000
    O42      O        0.64160    0.94550    0.49120    1.000
    O43      O        0.27310    0.51580    0.87480    1.000
    O44      O        0.22980    0.41060    0.01980    1.000
    O45      O        0.35500    0.27230    0.67960    1.000
    O46      O        0.35090    0.04960    0.60670    1.000
    O47      O        0.19810    0.55700    0.68500    1.000
    O48      O        0.10030    0.49880    0.68110    1.000
