data_functionalizedCrystal
_audit_creation_method	'EQeq! by Chris Wilmer'
_symmetry_space_group_name_H-M	'P1'
_symmetry_Int_Tables_number	1
_symmetry_cell_setting	triclinic
loop_
_symmetry_equiv_pos_as_xyz
  x,y,z
_cell_length_a	41.512
_cell_length_b	41.512
_cell_length_c	41.512
_cell_angle_alpha	90
_cell_angle_beta	90
_cell_angle_gamma	90
loop_
_atom_site_label
_atom_site_type_symbol
_atom_site_fract_x
_atom_site_fract_y
_atom_site_fract_z
_atom_site_charge
Mof_O 	O 	0.43873	0.29619	0.06014	-0.646
Mof_O 	O 	0.47277	0.248	0.09341	-0.64
Mof_O 	O 	0.46837	0.1644	0.96592	-0.64
Mof_C 	C 	0.4717	0.22	0.18886	-0.192
Mof_H 	H 	0.4517	0.2163	0.1994	0.099
Mof_C 	C 	0.4714	0.2294	0.15711	0.143
Mof_H 	H 	0.4515	0.2318	0.1461	0.001
Mof_C 	C 	0.373	0.07846	0.8803	-0.028
Mof_C 	C 	0.38287	0.0612	0.8534	-0.018
Mof_H 	H 	0.4033	0.0654	0.8439	0.039
Mof_C 	C 	0.3629	0.0377	0.84026	-0.082
Mof_H 	H 	0.3697	0.0259	0.8219	0.061
Mof_C 	C 	0.333	0.0315	0.8541	0.058
Mof_C 	C 	0.32314	0.0488	0.881	-0.084
Mof_H 	H 	0.3027	0.0445	0.8904	0.066
Mof_C 	C 	0.3431	0.0723	0.8941	-0.017
Mof_H 	H 	0.3363	0.0841	0.9125	0.042
Mof_C 	C 	0.39438	0.10334	0.89406	0.088
Mof_C 	C 	0.38794	0.13581	0.88901	-0.142
Mof_H 	H 	0.3712	0.1421	0.8747	0.082
Mof_C 	C 	0.40593	0.15912	0.90494	0.086
Mof_H 	H 	0.4015	0.1813	0.9015	0.023
Mof_C 	C 	0.43037	0.14997	0.92591	-0.164
Mof_C 	C 	0.43682	0.11751	0.93096	0.085
Mof_H 	H 	0.4535	0.1113	0.9453	0.021
Mof_C 	C 	0.41883	0.09419	0.91504	-0.142
Mof_H 	H 	0.4232	0.072	0.9185	0.082
Mof_C 	C 	0.44801	0.175	0.9447	0.499
Mof_O 	O 	0.0787	0.0254	0.9449	-0.583
Mof_C 	C 	0.2616	0.0243	0.8594	-0.021
Mof_C 	C 	0.1344	0.9717	0.9117	0.083
Mof_H 	H 	0.1212	0.9532	0.9093	0.034
Mof_C 	C 	0.2293	0.0247	0.8746	0.014
Mof_C 	C 	0.1713	0.9735	0.8999	-0.151
Mof_H 	H 	0.1816	0.9551	0.8911	0.09
Mof_C 	C 	0.4754	0.2039	0.2574	0.028
Mof_C 	C 	0.4745	0.1915	0.2882	-0.032
Mof_O 	O 	0.56127	0.70381	0.06014	-0.646
Mof_O 	O 	0.52723	0.752	0.09341	-0.64
Mof_O 	O 	0.53163	0.8356	0.96592	-0.64
Mof_C 	C 	0.5283	0.78	0.18886	-0.192
Mof_H 	H 	0.5483	0.7837	0.1994	0.099
Mof_C 	C 	0.5286	0.7706	0.15711	0.143
Mof_H 	H 	0.5485	0.7682	0.1461	0.001
Mof_C 	C 	0.627	0.92154	0.8803	-0.028
Mof_C 	C 	0.61713	0.9388	0.8534	-0.018
Mof_H 	H 	0.5967	0.9346	0.8439	0.039
Mof_C 	C 	0.6371	0.9623	0.84026	-0.082
Mof_H 	H 	0.6303	0.9741	0.8219	0.06
Mof_C 	C 	0.667	0.9685	0.8541	0.057
Mof_C 	C 	0.67686	0.9512	0.881	-0.085
Mof_H 	H 	0.6973	0.9555	0.8904	0.065
Mof_C 	C 	0.6569	0.9277	0.8941	-0.018
Mof_H 	H 	0.6637	0.9159	0.9125	0.041
Mof_C 	C 	0.60562	0.89666	0.89406	0.087
Mof_C 	C 	0.61206	0.86419	0.88901	-0.143
Mof_H 	H 	0.6288	0.8579	0.8747	0.081
Mof_C 	C 	0.59407	0.84088	0.90494	0.085
Mof_H 	H 	0.5985	0.8187	0.9015	0.022
Mof_C 	C 	0.56963	0.85003	0.92591	-0.165
Mof_C 	C 	0.56318	0.88249	0.93096	0.084
Mof_H 	H 	0.5465	0.8887	0.9453	0.02
Mof_C 	C 	0.58117	0.90581	0.91504	-0.143
Mof_H 	H 	0.5768	0.928	0.9185	0.081
Mof_C 	C 	0.55199	0.825	0.9447	0.498
Mof_O 	O 	0.9213	0.9746	0.9449	-0.584
Mof_C 	C 	0.7384	0.9757	0.8594	-0.022
Mof_C 	C 	0.8656	0.0283	0.9117	0.082
Mof_H 	H 	0.8788	0.0468	0.9093	0.033
Mof_C 	C 	0.7707	0.9753	0.8746	0.013
Mof_C 	C 	0.8287	0.0265	0.8999	-0.152
Mof_H 	H 	0.8184	0.0449	0.8911	0.089
Mof_C 	C 	0.5246	0.7961	0.2574	0.027
Mof_C 	C 	0.5255	0.8085	0.2882	-0.033
Mof_O 	O 	0.56127	0.29619	0.93986	-0.647
Mof_O 	O 	0.52723	0.248	0.90659	-0.641
Mof_O 	O 	0.53163	0.1644	0.03408	-0.64
Mof_C 	C 	0.5283	0.22	0.81114	-0.193
Mof_H 	H 	0.5483	0.2163	0.8006	0.098
Mof_C 	C 	0.5286	0.2294	0.84289	0.142
Mof_H 	H 	0.5485	0.2318	0.8539	0
Mof_C 	C 	0.627	0.07846	0.1197	-0.029
Mof_C 	C 	0.61713	0.0612	0.1466	-0.019
Mof_H 	H 	0.5967	0.0654	0.1561	0.038
Mof_C 	C 	0.6371	0.0377	0.15974	-0.083
Mof_H 	H 	0.6303	0.0259	0.1781	0.06
Mof_C 	C 	0.667	0.0315	0.1459	0.057
Mof_C 	C 	0.67686	0.0488	0.119	-0.085
Mof_H 	H 	0.6973	0.0445	0.1096	0.065
Mof_C 	C 	0.6569	0.0723	0.1059	-0.018
Mof_H 	H 	0.6637	0.0841	0.0875	0.041
Mof_C 	C 	0.60562	0.10334	0.10594	0.087
Mof_C 	C 	0.61206	0.13581	0.11099	-0.143
Mof_H 	H 	0.6288	0.1421	0.1253	0.081
Mof_C 	C 	0.59407	0.15912	0.09506	0.085
Mof_H 	H 	0.5985	0.1813	0.0985	0.022
Mof_C 	C 	0.56963	0.14997	0.07409	-0.165
Mof_C 	C 	0.56318	0.11751	0.06904	0.084
Mof_H 	H 	0.5465	0.1113	0.0547	0.02
Mof_C 	C 	0.58117	0.09419	0.08496	-0.143
Mof_H 	H 	0.5768	0.072	0.0815	0.081
Mof_C 	C 	0.55199	0.175	0.0553	0.498
Mof_O 	O 	0.9213	0.0254	0.0551	-0.584
Mof_C 	C 	0.7384	0.0243	0.1406	-0.022
Mof_C 	C 	0.8656	0.9717	0.0883	0.082
Mof_H 	H 	0.8788	0.9532	0.0907	0.033
Mof_C 	C 	0.7707	0.0247	0.1254	0.013
Mof_C 	C 	0.8287	0.9735	0.1001	-0.152
Mof_H 	H 	0.8184	0.9551	0.1089	0.089
Mof_C 	C 	0.5246	0.2039	0.7426	0.027
Mof_C 	C 	0.5255	0.1915	0.7118	-0.033
Mof_O 	O 	0.43873	0.70381	0.93986	-0.647
Mof_O 	O 	0.47277	0.752	0.90659	-0.641
Mof_O 	O 	0.46837	0.8356	0.03408	-0.64
Mof_C 	C 	0.4717	0.78	0.81114	-0.193
Mof_H 	H 	0.4517	0.7837	0.8006	0.098
Mof_C 	C 	0.4714	0.7706	0.84289	0.142
Mof_H 	H 	0.4515	0.7682	0.8539	0
Mof_C 	C 	0.373	0.92154	0.1197	-0.029
Mof_C 	C 	0.38287	0.9388	0.1466	-0.019
Mof_H 	H 	0.4033	0.9346	0.1561	0.038
Mof_C 	C 	0.3629	0.9623	0.15974	-0.083
Mof_H 	H 	0.3697	0.9741	0.1781	0.06
Mof_C 	C 	0.333	0.9685	0.1459	0.057
Mof_C 	C 	0.32314	0.9512	0.119	-0.085
Mof_H 	H 	0.3027	0.9555	0.1096	0.065
Mof_C 	C 	0.3431	0.9277	0.1059	-0.018
Mof_H 	H 	0.3363	0.9159	0.0875	0.041
Mof_C 	C 	0.39438	0.89666	0.10594	0.087
Mof_C 	C 	0.38794	0.86419	0.11099	-0.143
Mof_H 	H 	0.3712	0.8579	0.1253	0.081
Mof_C 	C 	0.40593	0.84088	0.09506	0.085
Mof_H 	H 	0.4015	0.8187	0.0985	0.022
Mof_C 	C 	0.43037	0.85003	0.07409	-0.165
Mof_C 	C 	0.43682	0.88249	0.06904	0.084
Mof_H 	H 	0.4535	0.8887	0.0547	0.02
Mof_C 	C 	0.41883	0.90581	0.08496	-0.143
Mof_H 	H 	0.4232	0.928	0.0815	0.081
Mof_C 	C 	0.44801	0.825	0.0553	0.498
Mof_O 	O 	0.0787	0.9746	0.0551	-0.584
Mof_C 	C 	0.2616	0.9757	0.1406	-0.022
Mof_C 	C 	0.1344	0.0283	0.0883	0.082
Mof_H 	H 	0.1212	0.0468	0.0907	0.033
Mof_C 	C 	0.2293	0.9753	0.1254	0.013
Mof_C 	C 	0.1713	0.0265	0.1001	-0.152
Mof_H 	H 	0.1816	0.0449	0.1089	0.089
Mof_C 	C 	0.4754	0.7961	0.7426	0.027
Mof_C 	C 	0.4745	0.8085	0.7118	-0.033
Mof_O 	O 	0.06014	0.43873	0.29619	-0.647
Mof_O 	O 	0.09341	0.47277	0.248	-0.641
Mof_O 	O 	0.96592	0.46837	0.1644	-0.641
Mof_C 	C 	0.18886	0.4717	0.22	-0.193
Mof_H 	H 	0.1994	0.4517	0.2163	0.098
Mof_C 	C 	0.15711	0.4714	0.2294	0.142
Mof_H 	H 	0.1461	0.4515	0.2318	0
Mof_C 	C 	0.8803	0.373	0.07846	-0.029
Mof_C 	C 	0.8534	0.38287	0.0612	-0.019
Mof_H 	H 	0.8439	0.4033	0.0654	0.038
Mof_C 	C 	0.84026	0.3629	0.0377	-0.083
Mof_H 	H 	0.8219	0.3697	0.0259	0.06
Mof_C 	C 	0.8541	0.333	0.0315	0.057
Mof_C 	C 	0.881	0.32314	0.0488	-0.085
Mof_H 	H 	0.8904	0.3027	0.0445	0.065
Mof_C 	C 	0.8941	0.3431	0.0723	-0.018
Mof_H 	H 	0.9125	0.3363	0.0841	0.041
Mof_C 	C 	0.89406	0.39438	0.10334	0.087
Mof_C 	C 	0.88901	0.38794	0.13581	-0.143
Mof_H 	H 	0.8747	0.3712	0.1421	0.081
Mof_C 	C 	0.90494	0.40593	0.15912	0.085
Mof_H 	H 	0.9015	0.4015	0.1813	0.022
Mof_C 	C 	0.92591	0.43037	0.14997	-0.165
Mof_C 	C 	0.93096	0.43682	0.11751	0.084
Mof_H 	H 	0.9453	0.4535	0.1113	0.02
Mof_C 	C 	0.91504	0.41883	0.09419	-0.143
Mof_H 	H 	0.9185	0.4232	0.072	0.081
Mof_C 	C 	0.9447	0.44801	0.175	0.498
Mof_O 	O 	0.9449	0.0787	0.0254	-0.584
Mof_C 	C 	0.8594	0.2616	0.0243	-0.022
Mof_C 	C 	0.9117	0.1344	0.9717	0.082
Mof_H 	H 	0.9093	0.1212	0.9532	0.033
Mof_C 	C 	0.8746	0.2293	0.0247	0.013
Mof_C 	C 	0.8999	0.1713	0.9735	-0.152
Mof_H 	H 	0.8911	0.1816	0.9551	0.089
Mof_C 	C 	0.2574	0.4754	0.2039	0.027
Mof_C 	C 	0.2882	0.4745	0.1915	-0.033
Mof_O 	O 	0.06014	0.56127	0.70381	-0.647
Mof_O 	O 	0.09341	0.52723	0.752	-0.641
Mof_O 	O 	0.96592	0.53163	0.8356	-0.641
Mof_C 	C 	0.18886	0.5283	0.78	-0.193
Mof_H 	H 	0.1994	0.5483	0.7837	0.098
Mof_C 	C 	0.15711	0.5286	0.7706	0.142
Mof_H 	H 	0.1461	0.5485	0.7682	0
Mof_C 	C 	0.8803	0.627	0.92154	-0.029
Mof_C 	C 	0.8534	0.61713	0.9388	-0.019
Mof_H 	H 	0.8439	0.5967	0.9346	0.038
Mof_C 	C 	0.84026	0.6371	0.9623	-0.083
Mof_H 	H 	0.8219	0.6303	0.9741	0.06
Mof_C 	C 	0.8541	0.667	0.9685	0.057
Mof_C 	C 	0.881	0.67686	0.9512	-0.085
Mof_H 	H 	0.8904	0.6973	0.9555	0.065
Mof_C 	C 	0.8941	0.6569	0.9277	-0.018
Mof_H 	H 	0.9125	0.6637	0.9159	0.041
Mof_C 	C 	0.89406	0.60562	0.89666	0.087
Mof_C 	C 	0.88901	0.61206	0.86419	-0.143
Mof_H 	H 	0.8747	0.6288	0.8579	0.081
Mof_C 	C 	0.90494	0.59407	0.84088	0.085
Mof_H 	H 	0.9015	0.5985	0.8187	0.022
Mof_C 	C 	0.92591	0.56963	0.85003	-0.165
Mof_C 	C 	0.93096	0.56318	0.88249	0.084
Mof_H 	H 	0.9453	0.5465	0.8887	0.02
Mof_C 	C 	0.91504	0.58117	0.90581	-0.143
Mof_H 	H 	0.9185	0.5768	0.928	0.081
Mof_C 	C 	0.9447	0.55199	0.825	0.498
Mof_O 	O 	0.9449	0.9213	0.9746	-0.584
Mof_C 	C 	0.8594	0.7384	0.9757	-0.022
Mof_C 	C 	0.9117	0.8656	0.0283	0.082
Mof_H 	H 	0.9093	0.8788	0.0468	0.033
Mof_C 	C 	0.8746	0.7707	0.9753	0.013
Mof_C 	C 	0.8999	0.8287	0.0265	-0.152
Mof_H 	H 	0.8911	0.8184	0.0449	0.089
Mof_C 	C 	0.2574	0.5246	0.7961	0.027
Mof_C 	C 	0.2882	0.5255	0.8085	-0.033
Mof_O 	O 	0.93986	0.56127	0.29619	-0.647
Mof_O 	O 	0.90659	0.52723	0.248	-0.641
Mof_O 	O 	0.03408	0.53163	0.1644	-0.64
Mof_C 	C 	0.81114	0.5283	0.22	-0.193
Mof_H 	H 	0.8006	0.5483	0.2163	0.098
Mof_C 	C 	0.84289	0.5286	0.2294	0.142
Mof_H 	H 	0.8539	0.5485	0.2318	0
Mof_C 	C 	0.1197	0.627	0.07846	-0.029
Mof_C 	C 	0.1466	0.61713	0.0612	-0.019
Mof_H 	H 	0.1561	0.5967	0.0654	0.038
Mof_C 	C 	0.15974	0.6371	0.0377	-0.083
Mof_H 	H 	0.1781	0.6303	0.0259	0.06
Mof_C 	C 	0.1459	0.667	0.0315	0.057
Mof_C 	C 	0.119	0.67686	0.0488	-0.085
Mof_H 	H 	0.1096	0.6973	0.0445	0.065
Mof_C 	C 	0.1059	0.6569	0.0723	-0.018
Mof_H 	H 	0.0875	0.6637	0.0841	0.041
Mof_C 	C 	0.10594	0.60562	0.10334	0.087
Mof_C 	C 	0.11099	0.61206	0.13581	-0.143
Mof_H 	H 	0.1253	0.6288	0.1421	0.081
Mof_C 	C 	0.09506	0.59407	0.15912	0.085
Mof_H 	H 	0.0985	0.5985	0.1813	0.022
Mof_C 	C 	0.07409	0.56963	0.14997	-0.165
Mof_C 	C 	0.06904	0.56318	0.11751	0.084
Mof_H 	H 	0.0547	0.5465	0.1113	0.02
Mof_C 	C 	0.08496	0.58117	0.09419	-0.143
Mof_H 	H 	0.0815	0.5768	0.072	0.081
Mof_C 	C 	0.0553	0.55199	0.175	0.498
Mof_O 	O 	0.0551	0.9213	0.0254	-0.584
Mof_C 	C 	0.1406	0.7384	0.0243	-0.022
Mof_C 	C 	0.0883	0.8656	0.9717	0.082
Mof_H 	H 	0.0907	0.8788	0.9532	0.033
Mof_C 	C 	0.1254	0.7707	0.0247	0.013
Mof_C 	C 	0.1001	0.8287	0.9735	-0.152
Mof_H 	H 	0.1089	0.8184	0.9551	0.089
Mof_C 	C 	0.7426	0.5246	0.2039	0.027
Mof_C 	C 	0.7118	0.5255	0.1915	-0.033
Mof_O 	O 	0.93986	0.43873	0.70381	-0.647
Mof_O 	O 	0.90659	0.47277	0.752	-0.641
Mof_O 	O 	0.03408	0.46837	0.8356	-0.64
Mof_C 	C 	0.81114	0.4717	0.78	-0.193
Mof_H 	H 	0.8006	0.4517	0.7837	0.098
Mof_C 	C 	0.84289	0.4714	0.7706	0.142
Mof_H 	H 	0.8539	0.4515	0.7682	0
Mof_C 	C 	0.1197	0.373	0.92154	-0.029
Mof_C 	C 	0.1466	0.38287	0.9388	-0.019
Mof_H 	H 	0.1561	0.4033	0.9346	0.038
Mof_C 	C 	0.15974	0.3629	0.9623	-0.083
Mof_H 	H 	0.1781	0.3697	0.9741	0.06
Mof_C 	C 	0.1459	0.333	0.9685	0.057
Mof_C 	C 	0.119	0.32314	0.9512	-0.085
Mof_H 	H 	0.1096	0.3027	0.9555	0.065
Mof_C 	C 	0.1059	0.3431	0.9277	-0.018
Mof_H 	H 	0.0875	0.3363	0.9159	0.041
Mof_C 	C 	0.10594	0.39438	0.89666	0.087
Mof_C 	C 	0.11099	0.38794	0.86419	-0.143
Mof_H 	H 	0.1253	0.3712	0.8579	0.081
Mof_C 	C 	0.09506	0.40593	0.84088	0.085
Mof_H 	H 	0.0985	0.4015	0.8187	0.022
Mof_C 	C 	0.07409	0.43037	0.85003	-0.165
Mof_C 	C 	0.06904	0.43682	0.88249	0.084
Mof_H 	H 	0.0547	0.4535	0.8887	0.02
Mof_C 	C 	0.08496	0.41883	0.90581	-0.143
Mof_H 	H 	0.0815	0.4232	0.928	0.081
Mof_C 	C 	0.0553	0.44801	0.825	0.498
Mof_O 	O 	0.0551	0.0787	0.9746	-0.584
Mof_C 	C 	0.1406	0.2616	0.9757	-0.022
Mof_C 	C 	0.0883	0.1344	0.0283	0.082
Mof_H 	H 	0.0907	0.1212	0.0468	0.033
Mof_C 	C 	0.1254	0.2293	0.9753	0.013
Mof_C 	C 	0.1001	0.1713	0.0265	-0.152
Mof_H 	H 	0.1089	0.1816	0.0449	0.089
Mof_C 	C 	0.7426	0.4754	0.7961	0.027
Mof_C 	C 	0.7118	0.4745	0.8085	-0.033
Mof_O 	O 	0.29619	0.06014	0.43873	-0.647
Mof_O 	O 	0.248	0.09341	0.47277	-0.641
Mof_O 	O 	0.1644	0.96592	0.46837	-0.641
Mof_C 	C 	0.22	0.18886	0.4717	-0.193
Mof_H 	H 	0.2163	0.1994	0.4517	0.098
Mof_C 	C 	0.2294	0.15711	0.4714	0.142
Mof_H 	H 	0.2318	0.1461	0.4515	0
Mof_C 	C 	0.07846	0.8803	0.373	-0.029
Mof_C 	C 	0.0612	0.8534	0.38287	-0.019
Mof_H 	H 	0.0654	0.8439	0.4033	0.038
Mof_C 	C 	0.0377	0.84026	0.3629	-0.083
Mof_H 	H 	0.0259	0.8219	0.3697	0.06
Mof_C 	C 	0.0315	0.8541	0.333	0.057
Mof_C 	C 	0.0488	0.881	0.32314	-0.085
Mof_H 	H 	0.0445	0.8904	0.3027	0.065
Mof_C 	C 	0.0723	0.8941	0.3431	-0.018
Mof_H 	H 	0.0841	0.9125	0.3363	0.041
Mof_C 	C 	0.10334	0.89406	0.39438	0.087
Mof_C 	C 	0.13581	0.88901	0.38794	-0.143
Mof_H 	H 	0.1421	0.8747	0.3712	0.081
Mof_C 	C 	0.15912	0.90494	0.40593	0.085
Mof_H 	H 	0.1813	0.9015	0.4015	0.022
Mof_C 	C 	0.14997	0.92591	0.43037	-0.165
Mof_C 	C 	0.11751	0.93096	0.43682	0.084
Mof_H 	H 	0.1113	0.9453	0.4535	0.02
Mof_C 	C 	0.09419	0.91504	0.41883	-0.143
Mof_H 	H 	0.072	0.9185	0.4232	0.081
Mof_C 	C 	0.175	0.9447	0.44801	0.498
Mof_O 	O 	0.0254	0.9449	0.0787	-0.584
Mof_C 	C 	0.0243	0.8594	0.2616	-0.022
Mof_C 	C 	0.9717	0.9117	0.1344	0.082
Mof_H 	H 	0.9532	0.9093	0.1212	0.033
Mof_C 	C 	0.0247	0.8746	0.2293	0.013
Mof_C 	C 	0.9735	0.8999	0.1713	-0.152
Mof_H 	H 	0.9551	0.8911	0.1816	0.089
Mof_C 	C 	0.2039	0.2574	0.4754	0.027
Mof_C 	C 	0.1915	0.2882	0.4745	-0.033
Mof_O 	O 	0.70381	0.06014	0.56127	-0.647
Mof_O 	O 	0.752	0.09341	0.52723	-0.641
Mof_O 	O 	0.8356	0.96592	0.53163	-0.641
Mof_C 	C 	0.78	0.18886	0.5283	-0.193
Mof_H 	H 	0.7837	0.1994	0.5483	0.098
Mof_C 	C 	0.7706	0.15711	0.5286	0.142
Mof_H 	H 	0.7682	0.1461	0.5485	0
Mof_C 	C 	0.92154	0.8803	0.627	-0.029
Mof_C 	C 	0.9388	0.8534	0.61713	-0.019
Mof_H 	H 	0.9346	0.8439	0.5967	0.038
Mof_C 	C 	0.9623	0.84026	0.6371	-0.083
Mof_H 	H 	0.9741	0.8219	0.6303	0.06
Mof_C 	C 	0.9685	0.8541	0.667	0.057
Mof_C 	C 	0.9512	0.881	0.67686	-0.085
Mof_H 	H 	0.9555	0.8904	0.6973	0.065
Mof_C 	C 	0.9277	0.8941	0.6569	-0.018
Mof_H 	H 	0.9159	0.9125	0.6637	0.041
Mof_C 	C 	0.89666	0.89406	0.60562	0.087
Mof_C 	C 	0.86419	0.88901	0.61206	-0.143
Mof_H 	H 	0.8579	0.8747	0.6288	0.081
Mof_C 	C 	0.84088	0.90494	0.59407	0.085
Mof_H 	H 	0.8187	0.9015	0.5985	0.022
Mof_C 	C 	0.85003	0.92591	0.56963	-0.165
Mof_C 	C 	0.88249	0.93096	0.56318	0.084
Mof_H 	H 	0.8887	0.9453	0.5465	0.02
Mof_C 	C 	0.90581	0.91504	0.58117	-0.143
Mof_H 	H 	0.928	0.9185	0.5768	0.081
Mof_C 	C 	0.825	0.9447	0.55199	0.498
Mof_O 	O 	0.9746	0.9449	0.9213	-0.584
Mof_C 	C 	0.9757	0.8594	0.7384	-0.022
Mof_C 	C 	0.0283	0.9117	0.8656	0.082
Mof_H 	H 	0.0468	0.9093	0.8788	0.033
Mof_C 	C 	0.9753	0.8746	0.7707	0.013
Mof_C 	C 	0.0265	0.8999	0.8287	-0.152
Mof_H 	H 	0.0449	0.8911	0.8184	0.089
Mof_C 	C 	0.7961	0.2574	0.5246	0.027
Mof_C 	C 	0.8085	0.2882	0.5255	-0.033
Mof_O 	O 	0.29619	0.93986	0.56127	-0.647
Mof_O 	O 	0.248	0.90659	0.52723	-0.641
Mof_O 	O 	0.1644	0.03408	0.53163	-0.64
Mof_C 	C 	0.22	0.81114	0.5283	-0.193
Mof_H 	H 	0.2163	0.8006	0.5483	0.098
Mof_C 	C 	0.2294	0.84289	0.5286	0.142
Mof_H 	H 	0.2318	0.8539	0.5485	0
Mof_C 	C 	0.07846	0.1197	0.627	-0.029
Mof_C 	C 	0.0612	0.1466	0.61713	-0.019
Mof_H 	H 	0.0654	0.1561	0.5967	0.038
Mof_C 	C 	0.0377	0.15974	0.6371	-0.083
Mof_H 	H 	0.0259	0.1781	0.6303	0.06
Mof_C 	C 	0.0315	0.1459	0.667	0.057
Mof_C 	C 	0.0488	0.119	0.67686	-0.085
Mof_H 	H 	0.0445	0.1096	0.6973	0.065
Mof_C 	C 	0.0723	0.1059	0.6569	-0.018
Mof_H 	H 	0.0841	0.0875	0.6637	0.041
Mof_C 	C 	0.10334	0.10594	0.60562	0.087
Mof_C 	C 	0.13581	0.11099	0.61206	-0.143
Mof_H 	H 	0.1421	0.1253	0.6288	0.081
Mof_C 	C 	0.15912	0.09506	0.59407	0.085
Mof_H 	H 	0.1813	0.0985	0.5985	0.022
Mof_C 	C 	0.14997	0.07409	0.56963	-0.165
Mof_C 	C 	0.11751	0.06904	0.56318	0.084
Mof_H 	H 	0.1113	0.0547	0.5465	0.02
Mof_C 	C 	0.09419	0.08496	0.58117	-0.143
Mof_H 	H 	0.072	0.0815	0.5768	0.081
Mof_C 	C 	0.175	0.0553	0.55199	0.498
Mof_O 	O 	0.0254	0.0551	0.9213	-0.584
Mof_C 	C 	0.0243	0.1406	0.7384	-0.022
Mof_C 	C 	0.9717	0.0883	0.8656	0.082
Mof_H 	H 	0.9532	0.0907	0.8788	0.033
Mof_C 	C 	0.0247	0.1254	0.7707	0.013
Mof_C 	C 	0.9735	0.1001	0.8287	-0.152
Mof_H 	H 	0.9551	0.1089	0.8184	0.089
Mof_C 	C 	0.2039	0.7426	0.5246	0.027
Mof_C 	C 	0.1915	0.7118	0.5255	-0.033
Mof_O 	O 	0.70381	0.93986	0.43873	-0.647
Mof_O 	O 	0.752	0.90659	0.47277	-0.641
Mof_O 	O 	0.8356	0.03408	0.46837	-0.64
Mof_C 	C 	0.78	0.81114	0.4717	-0.193
Mof_H 	H 	0.7837	0.8006	0.4517	0.098
Mof_C 	C 	0.7706	0.84289	0.4714	0.142
Mof_H 	H 	0.7682	0.8539	0.4515	0
Mof_C 	C 	0.92154	0.1197	0.373	-0.029
Mof_C 	C 	0.9388	0.1466	0.38287	-0.019
Mof_H 	H 	0.9346	0.1561	0.4033	0.038
Mof_C 	C 	0.9623	0.15974	0.3629	-0.083
Mof_H 	H 	0.9741	0.1781	0.3697	0.06
Mof_C 	C 	0.9685	0.1459	0.333	0.057
Mof_C 	C 	0.9512	0.119	0.32314	-0.085
Mof_H 	H 	0.9555	0.1096	0.3027	0.065
Mof_C 	C 	0.9277	0.1059	0.3431	-0.018
Mof_H 	H 	0.9159	0.0875	0.3363	0.041
Mof_C 	C 	0.89666	0.10594	0.39438	0.087
Mof_C 	C 	0.86419	0.11099	0.38794	-0.143
Mof_H 	H 	0.8579	0.1253	0.3712	0.081
Mof_C 	C 	0.84088	0.09506	0.40593	0.085
Mof_H 	H 	0.8187	0.0985	0.4015	0.022
Mof_C 	C 	0.85003	0.07409	0.43037	-0.165
Mof_C 	C 	0.88249	0.06904	0.43682	0.084
Mof_H 	H 	0.8887	0.0547	0.4535	0.02
Mof_C 	C 	0.90581	0.08496	0.41883	-0.143
Mof_H 	H 	0.928	0.0815	0.4232	0.081
Mof_C 	C 	0.825	0.0553	0.44801	0.498
Mof_O 	O 	0.9746	0.0551	0.0787	-0.584
Mof_C 	C 	0.9757	0.1406	0.2616	-0.022
Mof_C 	C 	0.0283	0.0883	0.1344	0.082
Mof_H 	H 	0.0468	0.0907	0.1212	0.033
Mof_C 	C 	0.9753	0.1254	0.2293	0.013
Mof_C 	C 	0.0265	0.1001	0.1713	-0.152
Mof_H 	H 	0.0449	0.1089	0.1816	0.089
Mof_C 	C 	0.7961	0.7426	0.4754	0.027
Mof_C 	C 	0.8085	0.7118	0.4745	-0.033
Mof_O 	O 	0.79619	0.93873	0.43986	-0.647
Mof_O 	O 	0.748	0.97277	0.40659	-0.641
Mof_O 	O 	0.6644	0.96837	0.53408	-0.641
Mof_C 	C 	0.72	0.9717	0.31114	-0.193
Mof_H 	H 	0.7163	0.9517	0.3006	0.098
Mof_C 	C 	0.7294	0.9714	0.34289	0.142
Mof_H 	H 	0.7318	0.9515	0.3539	0
Mof_C 	C 	0.57846	0.873	0.6197	-0.029
Mof_C 	C 	0.5612	0.88287	0.6466	-0.019
Mof_H 	H 	0.5654	0.9033	0.6561	0.038
Mof_C 	C 	0.5377	0.8629	0.65974	-0.083
Mof_H 	H 	0.5259	0.8697	0.6781	0.06
Mof_C 	C 	0.5315	0.833	0.6459	0.057
Mof_C 	C 	0.5488	0.82314	0.619	-0.085
Mof_H 	H 	0.5445	0.8027	0.6096	0.065
Mof_C 	C 	0.5723	0.8431	0.6059	-0.018
Mof_H 	H 	0.5841	0.8363	0.5875	0.041
Mof_C 	C 	0.60334	0.89438	0.60594	0.087
Mof_C 	C 	0.63581	0.88794	0.61099	-0.143
Mof_H 	H 	0.6421	0.8712	0.6253	0.081
Mof_C 	C 	0.65912	0.90593	0.59506	0.085
Mof_H 	H 	0.6813	0.9015	0.5985	0.022
Mof_C 	C 	0.64997	0.93037	0.57409	-0.165
Mof_C 	C 	0.61751	0.93682	0.56904	0.084
Mof_H 	H 	0.6113	0.9535	0.5547	0.02
Mof_C 	C 	0.59419	0.91883	0.58496	-0.143
Mof_H 	H 	0.572	0.9232	0.5815	0.081
Mof_C 	C 	0.675	0.94801	0.5553	0.498
Mof_O 	O 	0.5254	0.5787	0.5551	-0.584
Mof_C 	C 	0.5243	0.7616	0.6406	-0.022
Mof_C 	C 	0.4717	0.6344	0.5883	0.082
Mof_H 	H 	0.4532	0.6212	0.5907	0.033
Mof_C 	C 	0.5247	0.7293	0.6254	0.013
Mof_C 	C 	0.4735	0.6713	0.6001	-0.152
Mof_H 	H 	0.4551	0.6816	0.6089	0.089
Mof_C 	C 	0.7039	0.9754	0.2426	0.027
Mof_C 	C 	0.6915	0.9745	0.2118	-0.033
Mof_O 	O 	0.20381	0.06127	0.43986	-0.647
Mof_O 	O 	0.252	0.02723	0.40659	-0.641
Mof_O 	O 	0.3356	0.03163	0.53408	-0.64
Mof_C 	C 	0.28	0.0283	0.31114	-0.193
Mof_H 	H 	0.2837	0.0483	0.3006	0.098
Mof_C 	C 	0.2706	0.0286	0.34289	0.142
Mof_H 	H 	0.2682	0.0485	0.3539	0
Mof_C 	C 	0.42154	0.127	0.6197	-0.029
Mof_C 	C 	0.4388	0.11713	0.6466	-0.019
Mof_H 	H 	0.4346	0.0967	0.6561	0.038
Mof_C 	C 	0.4623	0.1371	0.65974	-0.083
Mof_H 	H 	0.4741	0.1303	0.6781	0.06
Mof_C 	C 	0.4685	0.167	0.6459	0.057
Mof_C 	C 	0.4512	0.17686	0.619	-0.085
Mof_H 	H 	0.4555	0.1973	0.6096	0.065
Mof_C 	C 	0.4277	0.1569	0.6059	-0.018
Mof_H 	H 	0.4159	0.1637	0.5875	0.041
Mof_C 	C 	0.39666	0.10562	0.60594	0.087
Mof_C 	C 	0.36419	0.11206	0.61099	-0.143
Mof_H 	H 	0.3579	0.1288	0.6253	0.081
Mof_C 	C 	0.34088	0.09407	0.59506	0.085
Mof_H 	H 	0.3187	0.0985	0.5985	0.022
Mof_C 	C 	0.35003	0.06963	0.57409	-0.165
Mof_C 	C 	0.38249	0.06318	0.56904	0.084
Mof_H 	H 	0.3887	0.0465	0.5547	0.02
Mof_C 	C 	0.40581	0.08117	0.58496	-0.143
Mof_H 	H 	0.428	0.0768	0.5815	0.081
Mof_C 	C 	0.325	0.05199	0.5553	0.498
Mof_O 	O 	0.4746	0.4213	0.5551	-0.584
Mof_C 	C 	0.4757	0.2384	0.6406	-0.022
Mof_C 	C 	0.5283	0.3656	0.5883	0.082
Mof_H 	H 	0.5468	0.3788	0.5907	0.033
Mof_C 	C 	0.4753	0.2707	0.6254	0.013
Mof_C 	C 	0.5265	0.3287	0.6001	-0.152
Mof_H 	H 	0.5449	0.3184	0.6089	0.089
Mof_C 	C 	0.2961	0.0246	0.2426	0.027
Mof_C 	C 	0.3085	0.0255	0.2118	-0.033
Mof_O 	O 	0.79619	0.06127	0.56014	-0.647
Mof_O 	O 	0.748	0.02723	0.59341	-0.641
Mof_O 	O 	0.6644	0.03163	0.46592	-0.64
Mof_C 	C 	0.72	0.0283	0.68886	-0.193
Mof_H 	H 	0.7163	0.0483	0.6994	0.098
Mof_C 	C 	0.7294	0.0286	0.65711	0.142
Mof_H 	H 	0.7318	0.0485	0.6461	0
Mof_C 	C 	0.57846	0.127	0.3803	-0.029
Mof_C 	C 	0.5612	0.11713	0.3534	-0.019
Mof_H 	H 	0.5654	0.0967	0.3439	0.038
Mof_C 	C 	0.5377	0.1371	0.34026	-0.083
Mof_H 	H 	0.5259	0.1303	0.3219	0.06
Mof_C 	C 	0.5315	0.167	0.3541	0.057
Mof_C 	C 	0.5488	0.17686	0.381	-0.085
Mof_H 	H 	0.5445	0.1973	0.3904	0.065
Mof_C 	C 	0.5723	0.1569	0.3941	-0.018
Mof_H 	H 	0.5841	0.1637	0.4125	0.041
Mof_C 	C 	0.60334	0.10562	0.39406	0.087
Mof_C 	C 	0.63581	0.11206	0.38901	-0.143
Mof_H 	H 	0.6421	0.1288	0.3747	0.081
Mof_C 	C 	0.65912	0.09407	0.40494	0.085
Mof_H 	H 	0.6813	0.0985	0.4015	0.022
Mof_C 	C 	0.64997	0.06963	0.42591	-0.165
Mof_C 	C 	0.61751	0.06318	0.43096	0.084
Mof_H 	H 	0.6113	0.0465	0.4453	0.02
Mof_C 	C 	0.59419	0.08117	0.41504	-0.143
Mof_H 	H 	0.572	0.0768	0.4185	0.081
Mof_C 	C 	0.675	0.05199	0.4447	0.498
Mof_O 	O 	0.5254	0.4213	0.4449	-0.584
Mof_C 	C 	0.5243	0.2384	0.3594	-0.022
Mof_C 	C 	0.4717	0.3656	0.4117	0.082
Mof_H 	H 	0.4532	0.3788	0.4093	0.033
Mof_C 	C 	0.5247	0.2707	0.3746	0.013
Mof_C 	C 	0.4735	0.3287	0.3999	-0.152
Mof_H 	H 	0.4551	0.3184	0.3911	0.089
Mof_C 	C 	0.7039	0.0246	0.7574	0.027
Mof_C 	C 	0.6915	0.0255	0.7882	-0.033
Mof_O 	O 	0.20381	0.93873	0.56014	-0.647
Mof_O 	O 	0.252	0.97277	0.59341	-0.641
Mof_O 	O 	0.3356	0.96837	0.46592	-0.641
Mof_C 	C 	0.28	0.9717	0.68886	-0.193
Mof_H 	H 	0.2837	0.9517	0.6994	0.098
Mof_C 	C 	0.2706	0.9714	0.65711	0.142
Mof_H 	H 	0.2682	0.9515	0.6461	0
Mof_C 	C 	0.42154	0.873	0.3803	-0.029
Mof_C 	C 	0.4388	0.88287	0.3534	-0.019
Mof_H 	H 	0.4346	0.9033	0.3439	0.038
Mof_C 	C 	0.4623	0.8629	0.34026	-0.083
Mof_H 	H 	0.4741	0.8697	0.3219	0.06
Mof_C 	C 	0.4685	0.833	0.3541	0.057
Mof_C 	C 	0.4512	0.82314	0.381	-0.085
Mof_H 	H 	0.4555	0.8027	0.3904	0.065
Mof_C 	C 	0.4277	0.8431	0.3941	-0.018
Mof_H 	H 	0.4159	0.8363	0.4125	0.041
Mof_C 	C 	0.39666	0.89438	0.39406	0.087
Mof_C 	C 	0.36419	0.88794	0.38901	-0.143
Mof_H 	H 	0.3579	0.8712	0.3747	0.081
Mof_C 	C 	0.34088	0.90593	0.40494	0.085
Mof_H 	H 	0.3187	0.9015	0.4015	0.022
Mof_C 	C 	0.35003	0.93037	0.42591	-0.165
Mof_C 	C 	0.38249	0.93682	0.43096	0.084
Mof_H 	H 	0.3887	0.9535	0.4453	0.02
Mof_C 	C 	0.40581	0.91883	0.41504	-0.143
Mof_H 	H 	0.428	0.9232	0.4185	0.081
Mof_C 	C 	0.325	0.94801	0.4447	0.498
Mof_O 	O 	0.4746	0.5787	0.4449	-0.584
Mof_C 	C 	0.4757	0.7616	0.3594	-0.022
Mof_C 	C 	0.5283	0.6344	0.4117	0.082
Mof_H 	H 	0.5468	0.6212	0.4093	0.033
Mof_C 	C 	0.4753	0.7293	0.3746	0.013
Mof_C 	C 	0.5265	0.6713	0.3999	-0.152
Mof_H 	H 	0.5449	0.6816	0.3911	0.089
Mof_C 	C 	0.2961	0.9754	0.7574	0.027
Mof_C 	C 	0.3085	0.9745	0.7882	-0.033
Mof_O 	O 	0.93873	0.56014	0.20381	-0.647
Mof_O 	O 	0.97277	0.59341	0.252	-0.641
Mof_O 	O 	0.96837	0.46592	0.3356	-0.641
Mof_C 	C 	0.9717	0.68886	0.28	-0.193
Mof_H 	H 	0.9517	0.6994	0.2837	0.098
Mof_C 	C 	0.9714	0.65711	0.2706	0.142
Mof_H 	H 	0.9515	0.6461	0.2682	0
Mof_C 	C 	0.873	0.3803	0.42154	-0.029
Mof_C 	C 	0.88287	0.3534	0.4388	-0.019
Mof_H 	H 	0.9033	0.3439	0.4346	0.038
Mof_C 	C 	0.8629	0.34026	0.4623	-0.083
Mof_H 	H 	0.8697	0.3219	0.4741	0.06
Mof_C 	C 	0.833	0.3541	0.4685	0.057
Mof_C 	C 	0.82314	0.381	0.4512	-0.085
Mof_H 	H 	0.8027	0.3904	0.4555	0.065
Mof_C 	C 	0.8431	0.3941	0.4277	-0.018
Mof_H 	H 	0.8363	0.4125	0.4159	0.041
Mof_C 	C 	0.89438	0.39406	0.39666	0.087
Mof_C 	C 	0.88794	0.38901	0.36419	-0.143
Mof_H 	H 	0.8712	0.3747	0.3579	0.081
Mof_C 	C 	0.90593	0.40494	0.34088	0.085
Mof_H 	H 	0.9015	0.4015	0.3187	0.022
Mof_C 	C 	0.93037	0.42591	0.35003	-0.165
Mof_C 	C 	0.93682	0.43096	0.38249	0.084
Mof_H 	H 	0.9535	0.4453	0.3887	0.02
Mof_C 	C 	0.91883	0.41504	0.40581	-0.143
Mof_H 	H 	0.9232	0.4185	0.428	0.081
Mof_C 	C 	0.94801	0.4447	0.325	0.498
Mof_O 	O 	0.5787	0.4449	0.4746	-0.584
Mof_C 	C 	0.7616	0.3594	0.4757	-0.022
Mof_C 	C 	0.6344	0.4117	0.5283	0.082
Mof_H 	H 	0.6212	0.4093	0.5468	0.033
Mof_C 	C 	0.7293	0.3746	0.4753	0.013
Mof_C 	C 	0.6713	0.3999	0.5265	-0.152
Mof_H 	H 	0.6816	0.3911	0.5449	0.089
Mof_C 	C 	0.9754	0.7574	0.2961	0.027
Mof_C 	C 	0.9745	0.7882	0.3085	-0.033
Mof_O 	O 	0.06127	0.56014	0.79619	-0.647
Mof_O 	O 	0.02723	0.59341	0.748	-0.641
Mof_O 	O 	0.03163	0.46592	0.6644	-0.64
Mof_C 	C 	0.0283	0.68886	0.72	-0.193
Mof_H 	H 	0.0483	0.6994	0.7163	0.098
Mof_C 	C 	0.0286	0.65711	0.7294	0.142
Mof_H 	H 	0.0485	0.6461	0.7318	0
Mof_C 	C 	0.127	0.3803	0.57846	-0.029
Mof_C 	C 	0.11713	0.3534	0.5612	-0.019
Mof_H 	H 	0.0967	0.3439	0.5654	0.038
Mof_C 	C 	0.1371	0.34026	0.5377	-0.083
Mof_H 	H 	0.1303	0.3219	0.5259	0.06
Mof_C 	C 	0.167	0.3541	0.5315	0.057
Mof_C 	C 	0.17686	0.381	0.5488	-0.085
Mof_H 	H 	0.1973	0.3904	0.5445	0.065
Mof_C 	C 	0.1569	0.3941	0.5723	-0.018
Mof_H 	H 	0.1637	0.4125	0.5841	0.041
Mof_C 	C 	0.10562	0.39406	0.60334	0.087
Mof_C 	C 	0.11206	0.38901	0.63581	-0.143
Mof_H 	H 	0.1288	0.3747	0.6421	0.081
Mof_C 	C 	0.09407	0.40494	0.65912	0.085
Mof_H 	H 	0.0985	0.4015	0.6813	0.022
Mof_C 	C 	0.06963	0.42591	0.64997	-0.165
Mof_C 	C 	0.06318	0.43096	0.61751	0.084
Mof_H 	H 	0.0465	0.4453	0.6113	0.02
Mof_C 	C 	0.08117	0.41504	0.59419	-0.143
Mof_H 	H 	0.0768	0.4185	0.572	0.081
Mof_C 	C 	0.05199	0.4447	0.675	0.498
Mof_O 	O 	0.4213	0.4449	0.5254	-0.584
Mof_C 	C 	0.2384	0.3594	0.5243	-0.022
Mof_C 	C 	0.3656	0.4117	0.4717	0.082
Mof_H 	H 	0.3788	0.4093	0.4532	0.033
Mof_C 	C 	0.2707	0.3746	0.5247	0.013
Mof_C 	C 	0.3287	0.3999	0.4735	-0.152
Mof_H 	H 	0.3184	0.3911	0.4551	0.089
Mof_C 	C 	0.0246	0.7574	0.7039	0.027
Mof_C 	C 	0.0255	0.7882	0.6915	-0.033
Mof_O 	O 	0.06127	0.43986	0.20381	-0.647
Mof_O 	O 	0.02723	0.40659	0.252	-0.641
Mof_O 	O 	0.03163	0.53408	0.3356	-0.64
Mof_C 	C 	0.0283	0.31114	0.28	-0.193
Mof_H 	H 	0.0483	0.3006	0.2837	0.098
Mof_C 	C 	0.0286	0.34289	0.2706	0.142
Mof_H 	H 	0.0485	0.3539	0.2682	0
Mof_C 	C 	0.127	0.6197	0.42154	-0.029
Mof_C 	C 	0.11713	0.6466	0.4388	-0.019
Mof_H 	H 	0.0967	0.6561	0.4346	0.038
Mof_C 	C 	0.1371	0.65974	0.4623	-0.083
Mof_H 	H 	0.1303	0.6781	0.4741	0.06
Mof_C 	C 	0.167	0.6459	0.4685	0.057
Mof_C 	C 	0.17686	0.619	0.4512	-0.085
Mof_H 	H 	0.1973	0.6096	0.4555	0.065
Mof_C 	C 	0.1569	0.6059	0.4277	-0.018
Mof_H 	H 	0.1637	0.5875	0.4159	0.041
Mof_C 	C 	0.10562	0.60594	0.39666	0.087
Mof_C 	C 	0.11206	0.61099	0.36419	-0.143
Mof_H 	H 	0.1288	0.6253	0.3579	0.081
Mof_C 	C 	0.09407	0.59506	0.34088	0.085
Mof_H 	H 	0.0985	0.5985	0.3187	0.022
Mof_C 	C 	0.06963	0.57409	0.35003	-0.165
Mof_C 	C 	0.06318	0.56904	0.38249	0.084
Mof_H 	H 	0.0465	0.5547	0.3887	0.02
Mof_C 	C 	0.08117	0.58496	0.40581	-0.143
Mof_H 	H 	0.0768	0.5815	0.428	0.081
Mof_C 	C 	0.05199	0.5553	0.325	0.498
Mof_O 	O 	0.4213	0.5551	0.4746	-0.584
Mof_C 	C 	0.2384	0.6406	0.4757	-0.022
Mof_C 	C 	0.3656	0.5883	0.5283	0.082
Mof_H 	H 	0.3788	0.5907	0.5468	0.033
Mof_C 	C 	0.2707	0.6254	0.4753	0.013
Mof_C 	C 	0.3287	0.6001	0.5265	-0.152
Mof_H 	H 	0.3184	0.6089	0.5449	0.089
Mof_C 	C 	0.0246	0.2426	0.2961	0.027
Mof_C 	C 	0.0255	0.2118	0.3085	-0.033
Mof_O 	O 	0.93873	0.43986	0.79619	-0.647
Mof_O 	O 	0.97277	0.40659	0.748	-0.641
Mof_O 	O 	0.96837	0.53408	0.6644	-0.641
Mof_C 	C 	0.9717	0.31114	0.72	-0.193
Mof_H 	H 	0.9517	0.3006	0.7163	0.098
Mof_C 	C 	0.9714	0.34289	0.7294	0.142
Mof_H 	H 	0.9515	0.3539	0.7318	0
Mof_C 	C 	0.873	0.6197	0.57846	-0.029
Mof_C 	C 	0.88287	0.6466	0.5612	-0.019
Mof_H 	H 	0.9033	0.6561	0.5654	0.038
Mof_C 	C 	0.8629	0.65974	0.5377	-0.083
Mof_H 	H 	0.8697	0.6781	0.5259	0.06
Mof_C 	C 	0.833	0.6459	0.5315	0.057
Mof_C 	C 	0.82314	0.619	0.5488	-0.085
Mof_H 	H 	0.8027	0.6096	0.5445	0.065
Mof_C 	C 	0.8431	0.6059	0.5723	-0.018
Mof_H 	H 	0.8363	0.5875	0.5841	0.041
Mof_C 	C 	0.89438	0.60594	0.60334	0.087
Mof_C 	C 	0.88794	0.61099	0.63581	-0.143
Mof_H 	H 	0.8712	0.6253	0.6421	0.081
Mof_C 	C 	0.90593	0.59506	0.65912	0.085
Mof_H 	H 	0.9015	0.5985	0.6813	0.022
Mof_C 	C 	0.93037	0.57409	0.64997	-0.165
Mof_C 	C 	0.93682	0.56904	0.61751	0.084
Mof_H 	H 	0.9535	0.5547	0.6113	0.02
Mof_C 	C 	0.91883	0.58496	0.59419	-0.143
Mof_H 	H 	0.9232	0.5815	0.572	0.081
Mof_C 	C 	0.94801	0.5553	0.675	0.498
Mof_O 	O 	0.5787	0.5551	0.5254	-0.584
Mof_C 	C 	0.7616	0.6406	0.5243	-0.022
Mof_C 	C 	0.6344	0.5883	0.4717	0.082
Mof_H 	H 	0.6212	0.5907	0.4532	0.033
Mof_C 	C 	0.7293	0.6254	0.5247	0.013
Mof_C 	C 	0.6713	0.6001	0.4735	-0.152
Mof_H 	H 	0.6816	0.6089	0.4551	0.089
Mof_C 	C 	0.9754	0.2426	0.7039	0.027
Mof_C 	C 	0.9745	0.2118	0.6915	-0.033
Mof_O 	O 	0.56014	0.79619	0.06127	-0.647
Mof_O 	O 	0.59341	0.748	0.02723	-0.641
Mof_O 	O 	0.46592	0.6644	0.03163	-0.64
Mof_C 	C 	0.68886	0.72	0.0283	-0.193
Mof_H 	H 	0.6994	0.7163	0.0483	0.098
Mof_C 	C 	0.65711	0.7294	0.0286	0.142
Mof_H 	H 	0.6461	0.7318	0.0485	0
Mof_C 	C 	0.3803	0.57846	0.127	-0.029
Mof_C 	C 	0.3534	0.5612	0.11713	-0.019
Mof_H 	H 	0.3439	0.5654	0.0967	0.038
Mof_C 	C 	0.34026	0.5377	0.1371	-0.083
Mof_H 	H 	0.3219	0.5259	0.1303	0.06
Mof_C 	C 	0.3541	0.5315	0.167	0.057
Mof_C 	C 	0.381	0.5488	0.17686	-0.085
Mof_H 	H 	0.3904	0.5445	0.1973	0.065
Mof_C 	C 	0.3941	0.5723	0.1569	-0.018
Mof_H 	H 	0.4125	0.5841	0.1637	0.041
Mof_C 	C 	0.39406	0.60334	0.10562	0.087
Mof_C 	C 	0.38901	0.63581	0.11206	-0.143
Mof_H 	H 	0.3747	0.6421	0.1288	0.081
Mof_C 	C 	0.40494	0.65912	0.09407	0.085
Mof_H 	H 	0.4015	0.6813	0.0985	0.022
Mof_C 	C 	0.42591	0.64997	0.06963	-0.165
Mof_C 	C 	0.43096	0.61751	0.06318	0.084
Mof_H 	H 	0.4453	0.6113	0.0465	0.02
Mof_C 	C 	0.41504	0.59419	0.08117	-0.143
Mof_H 	H 	0.4185	0.572	0.0768	0.081
Mof_C 	C 	0.4447	0.675	0.05199	0.498
Mof_O 	O 	0.4449	0.5254	0.4213	-0.584
Mof_C 	C 	0.3594	0.5243	0.2384	-0.022
Mof_C 	C 	0.4117	0.4717	0.3656	0.082
Mof_H 	H 	0.4093	0.4532	0.3788	0.033
Mof_C 	C 	0.3746	0.5247	0.2707	0.013
Mof_C 	C 	0.3999	0.4735	0.3287	-0.152
Mof_H 	H 	0.3911	0.4551	0.3184	0.089
Mof_C 	C 	0.7574	0.7039	0.0246	0.027
Mof_C 	C 	0.7882	0.6915	0.0255	-0.033
Mof_O 	O 	0.56014	0.20381	0.93873	-0.647
Mof_O 	O 	0.59341	0.252	0.97277	-0.641
Mof_O 	O 	0.46592	0.3356	0.96837	-0.641
Mof_C 	C 	0.68886	0.28	0.9717	-0.193
Mof_H 	H 	0.6994	0.2837	0.9517	0.098
Mof_C 	C 	0.65711	0.2706	0.9714	0.142
Mof_H 	H 	0.6461	0.2682	0.9515	0
Mof_C 	C 	0.3803	0.42154	0.873	-0.029
Mof_C 	C 	0.3534	0.4388	0.88287	-0.019
Mof_H 	H 	0.3439	0.4346	0.9033	0.038
Mof_C 	C 	0.34026	0.4623	0.8629	-0.083
Mof_H 	H 	0.3219	0.4741	0.8697	0.06
Mof_C 	C 	0.3541	0.4685	0.833	0.057
Mof_C 	C 	0.381	0.4512	0.82314	-0.085
Mof_H 	H 	0.3904	0.4555	0.8027	0.065
Mof_C 	C 	0.3941	0.4277	0.8431	-0.018
Mof_H 	H 	0.4125	0.4159	0.8363	0.041
Mof_C 	C 	0.39406	0.39666	0.89438	0.087
Mof_C 	C 	0.38901	0.36419	0.88794	-0.143
Mof_H 	H 	0.3747	0.3579	0.8712	0.081
Mof_C 	C 	0.40494	0.34088	0.90593	0.085
Mof_H 	H 	0.4015	0.3187	0.9015	0.022
Mof_C 	C 	0.42591	0.35003	0.93037	-0.165
Mof_C 	C 	0.43096	0.38249	0.93682	0.084
Mof_H 	H 	0.4453	0.3887	0.9535	0.02
Mof_C 	C 	0.41504	0.40581	0.91883	-0.143
Mof_H 	H 	0.4185	0.428	0.9232	0.081
Mof_C 	C 	0.4447	0.325	0.94801	0.498
Mof_O 	O 	0.4449	0.4746	0.5787	-0.584
Mof_C 	C 	0.3594	0.4757	0.7616	-0.022
Mof_C 	C 	0.4117	0.5283	0.6344	0.082
Mof_H 	H 	0.4093	0.5468	0.6212	0.033
Mof_C 	C 	0.3746	0.4753	0.7293	0.013
Mof_C 	C 	0.3999	0.5265	0.6713	-0.152
Mof_H 	H 	0.3911	0.5449	0.6816	0.089
Mof_C 	C 	0.7574	0.2961	0.9754	0.027
Mof_C 	C 	0.7882	0.3085	0.9745	-0.033
Mof_O 	O 	0.43986	0.79619	0.93873	-0.647
Mof_O 	O 	0.40659	0.748	0.97277	-0.641
Mof_O 	O 	0.53408	0.6644	0.96837	-0.641
Mof_C 	C 	0.31114	0.72	0.9717	-0.193
Mof_H 	H 	0.3006	0.7163	0.9517	0.098
Mof_C 	C 	0.34289	0.7294	0.9714	0.142
Mof_H 	H 	0.3539	0.7318	0.9515	0
Mof_C 	C 	0.6197	0.57846	0.873	-0.029
Mof_C 	C 	0.6466	0.5612	0.88287	-0.019
Mof_H 	H 	0.6561	0.5654	0.9033	0.038
Mof_C 	C 	0.65974	0.5377	0.8629	-0.083
Mof_H 	H 	0.6781	0.5259	0.8697	0.06
Mof_C 	C 	0.6459	0.5315	0.833	0.057
Mof_C 	C 	0.619	0.5488	0.82314	-0.085
Mof_H 	H 	0.6096	0.5445	0.8027	0.065
Mof_C 	C 	0.6059	0.5723	0.8431	-0.018
Mof_H 	H 	0.5875	0.5841	0.8363	0.041
Mof_C 	C 	0.60594	0.60334	0.89438	0.087
Mof_C 	C 	0.61099	0.63581	0.88794	-0.143
Mof_H 	H 	0.6253	0.6421	0.8712	0.081
Mof_C 	C 	0.59506	0.65912	0.90593	0.085
Mof_H 	H 	0.5985	0.6813	0.9015	0.022
Mof_C 	C 	0.57409	0.64997	0.93037	-0.165
Mof_C 	C 	0.56904	0.61751	0.93682	0.084
Mof_H 	H 	0.5547	0.6113	0.9535	0.02
Mof_C 	C 	0.58496	0.59419	0.91883	-0.143
Mof_H 	H 	0.5815	0.572	0.9232	0.081
Mof_C 	C 	0.5553	0.675	0.94801	0.498
Mof_O 	O 	0.5551	0.5254	0.5787	-0.584
Mof_C 	C 	0.6406	0.5243	0.7616	-0.022
Mof_C 	C 	0.5883	0.4717	0.6344	0.082
Mof_H 	H 	0.5907	0.4532	0.6212	0.033
Mof_C 	C 	0.6254	0.5247	0.7293	0.013
Mof_C 	C 	0.6001	0.4735	0.6713	-0.152
Mof_H 	H 	0.6089	0.4551	0.6816	0.089
Mof_C 	C 	0.2426	0.7039	0.9754	0.027
Mof_C 	C 	0.2118	0.6915	0.9745	-0.033
Mof_O 	O 	0.43986	0.20381	0.06127	-0.647
Mof_O 	O 	0.40659	0.252	0.02723	-0.641
Mof_O 	O 	0.53408	0.3356	0.03163	-0.64
Mof_C 	C 	0.31114	0.28	0.0283	-0.193
Mof_H 	H 	0.3006	0.2837	0.0483	0.098
Mof_C 	C 	0.34289	0.2706	0.0286	0.142
Mof_H 	H 	0.3539	0.2682	0.0485	0
Mof_C 	C 	0.6197	0.42154	0.127	-0.029
Mof_C 	C 	0.6466	0.4388	0.11713	-0.019
Mof_H 	H 	0.6561	0.4346	0.0967	0.038
Mof_C 	C 	0.65974	0.4623	0.1371	-0.083
Mof_H 	H 	0.6781	0.4741	0.1303	0.06
Mof_C 	C 	0.6459	0.4685	0.167	0.057
Mof_C 	C 	0.619	0.4512	0.17686	-0.085
Mof_H 	H 	0.6096	0.4555	0.1973	0.065
Mof_C 	C 	0.6059	0.4277	0.1569	-0.018
Mof_H 	H 	0.5875	0.4159	0.1637	0.041
Mof_C 	C 	0.60594	0.39666	0.10562	0.087
Mof_C 	C 	0.61099	0.36419	0.11206	-0.143
Mof_H 	H 	0.6253	0.3579	0.1288	0.081
Mof_C 	C 	0.59506	0.34088	0.09407	0.085
Mof_H 	H 	0.5985	0.3187	0.0985	0.022
Mof_C 	C 	0.57409	0.35003	0.06963	-0.165
Mof_C 	C 	0.56904	0.38249	0.06318	0.084
Mof_H 	H 	0.5547	0.3887	0.0465	0.02
Mof_C 	C 	0.58496	0.40581	0.08117	-0.143
Mof_H 	H 	0.5815	0.428	0.0768	0.081
Mof_C 	C 	0.5553	0.325	0.05199	0.498
Mof_O 	O 	0.5551	0.4746	0.4213	-0.584
Mof_C 	C 	0.6406	0.4757	0.2384	-0.022
Mof_C 	C 	0.5883	0.5283	0.3656	0.082
Mof_H 	H 	0.5907	0.5468	0.3788	0.033
Mof_C 	C 	0.6254	0.4753	0.2707	0.013
Mof_C 	C 	0.6001	0.5265	0.3287	-0.152
Mof_H 	H 	0.6089	0.5449	0.3184	0.089
Mof_C 	C 	0.2426	0.2961	0.0246	0.027
Mof_C 	C 	0.2118	0.3085	0.0255	-0.033
Mof_O 	O 	0.56127	0.70381	0.93986	-0.647
Mof_O 	O 	0.52723	0.752	0.90659	-0.641
Mof_O 	O 	0.53163	0.8356	0.03408	-0.64
Mof_C 	C 	0.5283	0.78	0.81114	-0.193
Mof_H 	H 	0.5483	0.7837	0.8006	0.098
Mof_C 	C 	0.5286	0.7706	0.84289	0.142
Mof_H 	H 	0.5485	0.7682	0.8539	0
Mof_C 	C 	0.627	0.92154	0.1197	-0.029
Mof_C 	C 	0.61713	0.9388	0.1466	-0.019
Mof_H 	H 	0.5967	0.9346	0.1561	0.038
Mof_C 	C 	0.6371	0.9623	0.15974	-0.083
Mof_H 	H 	0.6303	0.9741	0.1781	0.06
Mof_C 	C 	0.667	0.9685	0.1459	0.057
Mof_C 	C 	0.67686	0.9512	0.119	-0.085
Mof_H 	H 	0.6973	0.9555	0.1096	0.065
Mof_C 	C 	0.6569	0.9277	0.1059	-0.018
Mof_H 	H 	0.6637	0.9159	0.0875	0.041
Mof_C 	C 	0.60562	0.89666	0.10594	0.087
Mof_C 	C 	0.61206	0.86419	0.11099	-0.143
Mof_H 	H 	0.6288	0.8579	0.1253	0.081
Mof_C 	C 	0.59407	0.84088	0.09506	0.085
Mof_H 	H 	0.5985	0.8187	0.0985	0.022
Mof_C 	C 	0.56963	0.85003	0.07409	-0.165
Mof_C 	C 	0.56318	0.88249	0.06904	0.084
Mof_H 	H 	0.5465	0.8887	0.0547	0.02
Mof_C 	C 	0.58117	0.90581	0.08496	-0.143
Mof_H 	H 	0.5768	0.928	0.0815	0.081
Mof_C 	C 	0.55199	0.825	0.0553	0.498
Mof_O 	O 	0.9213	0.9746	0.0551	-0.584
Mof_C 	C 	0.7384	0.9757	0.1406	-0.022
Mof_C 	C 	0.8656	0.0283	0.0883	0.082
Mof_H 	H 	0.8788	0.0468	0.0907	0.033
Mof_C 	C 	0.7707	0.9753	0.1254	0.013
Mof_C 	C 	0.8287	0.0265	0.1001	-0.152
Mof_H 	H 	0.8184	0.0449	0.1089	0.089
Mof_C 	C 	0.5246	0.7961	0.7426	0.027
Mof_C 	C 	0.5255	0.8085	0.7118	-0.033
Mof_O 	O 	0.43873	0.29619	0.93986	-0.647
Mof_O 	O 	0.47277	0.248	0.90659	-0.641
Mof_O 	O 	0.46837	0.1644	0.03408	-0.64
Mof_C 	C 	0.4717	0.22	0.81114	-0.193
Mof_H 	H 	0.4517	0.2163	0.8006	0.098
Mof_C 	C 	0.4714	0.2294	0.84289	0.142
Mof_H 	H 	0.4515	0.2318	0.8539	0
Mof_C 	C 	0.373	0.07846	0.1197	-0.029
Mof_C 	C 	0.38287	0.0612	0.1466	-0.019
Mof_H 	H 	0.4033	0.0654	0.1561	0.038
Mof_C 	C 	0.3629	0.0377	0.15974	-0.083
Mof_H 	H 	0.3697	0.0259	0.1781	0.06
Mof_C 	C 	0.333	0.0315	0.1459	0.057
Mof_C 	C 	0.32314	0.0488	0.119	-0.085
Mof_H 	H 	0.3027	0.0445	0.1096	0.065
Mof_C 	C 	0.3431	0.0723	0.1059	-0.018
Mof_H 	H 	0.3363	0.0841	0.0875	0.041
Mof_C 	C 	0.39438	0.10334	0.10594	0.087
Mof_C 	C 	0.38794	0.13581	0.11099	-0.143
Mof_H 	H 	0.3712	0.1421	0.1253	0.081
Mof_C 	C 	0.40593	0.15912	0.09506	0.085
Mof_H 	H 	0.4015	0.1813	0.0985	0.022
Mof_C 	C 	0.43037	0.14997	0.07409	-0.165
Mof_C 	C 	0.43682	0.11751	0.06904	0.084
Mof_H 	H 	0.4535	0.1113	0.0547	0.02
Mof_C 	C 	0.41883	0.09419	0.08496	-0.143
Mof_H 	H 	0.4232	0.072	0.0815	0.081
Mof_C 	C 	0.44801	0.175	0.0553	0.498
Mof_O 	O 	0.0787	0.0254	0.0551	-0.584
Mof_C 	C 	0.2616	0.0243	0.1406	-0.022
Mof_C 	C 	0.1344	0.9717	0.0883	0.082
Mof_H 	H 	0.1212	0.9532	0.0907	0.033
Mof_C 	C 	0.2293	0.0247	0.1254	0.013
Mof_C 	C 	0.1713	0.9735	0.1001	-0.152
Mof_H 	H 	0.1816	0.9551	0.1089	0.089
Mof_C 	C 	0.4754	0.2039	0.7426	0.027
Mof_C 	C 	0.4745	0.1915	0.7118	-0.033
Mof_O 	O 	0.43873	0.70381	0.06014	-0.647
Mof_O 	O 	0.47277	0.752	0.09341	-0.641
Mof_O 	O 	0.46837	0.8356	0.96592	-0.641
Mof_C 	C 	0.4717	0.78	0.18886	-0.193
Mof_H 	H 	0.4517	0.7837	0.1994	0.098
Mof_C 	C 	0.4714	0.7706	0.15711	0.142
Mof_H 	H 	0.4515	0.7682	0.1461	0
Mof_C 	C 	0.373	0.92154	0.8803	-0.029
Mof_C 	C 	0.38287	0.9388	0.8534	-0.019
Mof_H 	H 	0.4033	0.9346	0.8439	0.038
Mof_C 	C 	0.3629	0.9623	0.84026	-0.083
Mof_H 	H 	0.3697	0.9741	0.8219	0.06
Mof_C 	C 	0.333	0.9685	0.8541	0.057
Mof_C 	C 	0.32314	0.9512	0.881	-0.085
Mof_H 	H 	0.3027	0.9555	0.8904	0.065
Mof_C 	C 	0.3431	0.9277	0.8941	-0.018
Mof_H 	H 	0.3363	0.9159	0.9125	0.041
Mof_C 	C 	0.39438	0.89666	0.89406	0.087
Mof_C 	C 	0.38794	0.86419	0.88901	-0.143
Mof_H 	H 	0.3712	0.8579	0.8747	0.081
Mof_C 	C 	0.40593	0.84088	0.90494	0.085
Mof_H 	H 	0.4015	0.8187	0.9015	0.022
Mof_C 	C 	0.43037	0.85003	0.92591	-0.165
Mof_C 	C 	0.43682	0.88249	0.93096	0.084
Mof_H 	H 	0.4535	0.8887	0.9453	0.02
Mof_C 	C 	0.41883	0.90581	0.91504	-0.143
Mof_H 	H 	0.4232	0.928	0.9185	0.081
Mof_C 	C 	0.44801	0.825	0.9447	0.498
Mof_O 	O 	0.0787	0.9746	0.9449	-0.584
Mof_C 	C 	0.2616	0.9757	0.8594	-0.022
Mof_C 	C 	0.1344	0.0283	0.9117	0.082
Mof_H 	H 	0.1212	0.0468	0.9093	0.033
Mof_C 	C 	0.2293	0.9753	0.8746	0.013
Mof_C 	C 	0.1713	0.0265	0.8999	-0.152
Mof_H 	H 	0.1816	0.0449	0.8911	0.089
Mof_C 	C 	0.4754	0.7961	0.2574	0.027
Mof_C 	C 	0.4745	0.8085	0.2882	-0.033
Mof_O 	O 	0.56127	0.29619	0.06014	-0.647
Mof_O 	O 	0.52723	0.248	0.09341	-0.641
Mof_O 	O 	0.53163	0.1644	0.96592	-0.641
Mof_C 	C 	0.5283	0.22	0.18886	-0.193
Mof_H 	H 	0.5483	0.2163	0.1994	0.098
Mof_C 	C 	0.5286	0.2294	0.15711	0.142
Mof_H 	H 	0.5485	0.2318	0.1461	0
Mof_C 	C 	0.627	0.07846	0.8803	-0.029
Mof_C 	C 	0.61713	0.0612	0.8534	-0.019
Mof_H 	H 	0.5967	0.0654	0.8439	0.038
Mof_C 	C 	0.6371	0.0377	0.84026	-0.083
Mof_H 	H 	0.6303	0.0259	0.8219	0.06
Mof_C 	C 	0.667	0.0315	0.8541	0.057
Mof_C 	C 	0.67686	0.0488	0.881	-0.085
Mof_H 	H 	0.6973	0.0445	0.8904	0.065
Mof_C 	C 	0.6569	0.0723	0.8941	-0.018
Mof_H 	H 	0.6637	0.0841	0.9125	0.041
Mof_C 	C 	0.60562	0.10334	0.89406	0.087
Mof_C 	C 	0.61206	0.13581	0.88901	-0.143
Mof_H 	H 	0.6288	0.1421	0.8747	0.081
Mof_C 	C 	0.59407	0.15912	0.90494	0.085
Mof_H 	H 	0.5985	0.1813	0.9015	0.022
Mof_C 	C 	0.56963	0.14997	0.92591	-0.165
Mof_C 	C 	0.56318	0.11751	0.93096	0.084
Mof_H 	H 	0.5465	0.1113	0.9453	0.02
Mof_C 	C 	0.58117	0.09419	0.91504	-0.143
Mof_H 	H 	0.5768	0.072	0.9185	0.081
Mof_C 	C 	0.55199	0.175	0.9447	0.498
Mof_O 	O 	0.9213	0.0254	0.9449	-0.584
Mof_C 	C 	0.7384	0.0243	0.8594	-0.022
Mof_C 	C 	0.8656	0.9717	0.9117	0.082
Mof_H 	H 	0.8788	0.9532	0.9093	0.033
Mof_C 	C 	0.7707	0.0247	0.8746	0.013
Mof_C 	C 	0.8287	0.9735	0.8999	-0.152
Mof_H 	H 	0.8184	0.9551	0.8911	0.089
Mof_C 	C 	0.5246	0.2039	0.2574	0.027
Mof_C 	C 	0.5255	0.1915	0.2882	-0.033
Mof_O 	O 	0.93986	0.56127	0.70381	-0.647
Mof_O 	O 	0.90659	0.52723	0.752	-0.641
Mof_O 	O 	0.03408	0.53163	0.8356	-0.64
Mof_C 	C 	0.81114	0.5283	0.78	-0.193
Mof_H 	H 	0.8006	0.5483	0.7837	0.098
Mof_C 	C 	0.84289	0.5286	0.7706	0.142
Mof_H 	H 	0.8539	0.5485	0.7682	0
Mof_C 	C 	0.1197	0.627	0.92154	-0.029
Mof_C 	C 	0.1466	0.61713	0.9388	-0.019
Mof_H 	H 	0.1561	0.5967	0.9346	0.038
Mof_C 	C 	0.15974	0.6371	0.9623	-0.083
Mof_H 	H 	0.1781	0.6303	0.9741	0.06
Mof_C 	C 	0.1459	0.667	0.9685	0.057
Mof_C 	C 	0.119	0.67686	0.9512	-0.085
Mof_H 	H 	0.1096	0.6973	0.9555	0.065
Mof_C 	C 	0.1059	0.6569	0.9277	-0.018
Mof_H 	H 	0.0875	0.6637	0.9159	0.041
Mof_C 	C 	0.10594	0.60562	0.89666	0.087
Mof_C 	C 	0.11099	0.61206	0.86419	-0.143
Mof_H 	H 	0.1253	0.6288	0.8579	0.081
Mof_C 	C 	0.09506	0.59407	0.84088	0.085
Mof_H 	H 	0.0985	0.5985	0.8187	0.022
Mof_C 	C 	0.07409	0.56963	0.85003	-0.165
Mof_C 	C 	0.06904	0.56318	0.88249	0.084
Mof_H 	H 	0.0547	0.5465	0.8887	0.02
Mof_C 	C 	0.08496	0.58117	0.90581	-0.143
Mof_H 	H 	0.0815	0.5768	0.928	0.081
Mof_C 	C 	0.0553	0.55199	0.825	0.498
Mof_O 	O 	0.0551	0.9213	0.9746	-0.584
Mof_C 	C 	0.1406	0.7384	0.9757	-0.022
Mof_C 	C 	0.0883	0.8656	0.0283	0.082
Mof_H 	H 	0.0907	0.8788	0.0468	0.033
Mof_C 	C 	0.1254	0.7707	0.9753	0.013
Mof_C 	C 	0.1001	0.8287	0.0265	-0.152
Mof_H 	H 	0.1089	0.8184	0.0449	0.089
Mof_C 	C 	0.7426	0.5246	0.7961	0.027
Mof_C 	C 	0.7118	0.5255	0.8085	-0.033
Mof_O 	O 	0.93986	0.43873	0.29619	-0.647
Mof_O 	O 	0.90659	0.47277	0.248	-0.641
Mof_O 	O 	0.03408	0.46837	0.1644	-0.64
Mof_C 	C 	0.81114	0.4717	0.22	-0.193
Mof_H 	H 	0.8006	0.4517	0.2163	0.098
Mof_C 	C 	0.84289	0.4714	0.2294	0.142
Mof_H 	H 	0.8539	0.4515	0.2318	0
Mof_C 	C 	0.1197	0.373	0.07846	-0.029
Mof_C 	C 	0.1466	0.38287	0.0612	-0.019
Mof_H 	H 	0.1561	0.4033	0.0654	0.038
Mof_C 	C 	0.15974	0.3629	0.0377	-0.083
Mof_H 	H 	0.1781	0.3697	0.0259	0.06
Mof_C 	C 	0.1459	0.333	0.0315	0.057
Mof_C 	C 	0.119	0.32314	0.0488	-0.085
Mof_H 	H 	0.1096	0.3027	0.0445	0.065
Mof_C 	C 	0.1059	0.3431	0.0723	-0.018
Mof_H 	H 	0.0875	0.3363	0.0841	0.041
Mof_C 	C 	0.10594	0.39438	0.10334	0.087
Mof_C 	C 	0.11099	0.38794	0.13581	-0.143
Mof_H 	H 	0.1253	0.3712	0.1421	0.081
Mof_C 	C 	0.09506	0.40593	0.15912	0.085
Mof_H 	H 	0.0985	0.4015	0.1813	0.022
Mof_C 	C 	0.07409	0.43037	0.14997	-0.165
Mof_C 	C 	0.06904	0.43682	0.11751	0.084
Mof_H 	H 	0.0547	0.4535	0.1113	0.02
Mof_C 	C 	0.08496	0.41883	0.09419	-0.143
Mof_H 	H 	0.0815	0.4232	0.072	0.081
Mof_C 	C 	0.0553	0.44801	0.175	0.498
Mof_O 	O 	0.0551	0.0787	0.0254	-0.584
Mof_C 	C 	0.1406	0.2616	0.0243	-0.022
Mof_C 	C 	0.0883	0.1344	0.9717	0.082
Mof_H 	H 	0.0907	0.1212	0.9532	0.033
Mof_C 	C 	0.1254	0.2293	0.0247	0.013
Mof_C 	C 	0.1001	0.1713	0.9735	-0.152
Mof_H 	H 	0.1089	0.1816	0.9551	0.089
Mof_C 	C 	0.7426	0.4754	0.2039	0.027
Mof_C 	C 	0.7118	0.4745	0.1915	-0.033
Mof_O 	O 	0.06014	0.43873	0.70381	-0.647
Mof_O 	O 	0.09341	0.47277	0.752	-0.641
Mof_O 	O 	0.96592	0.46837	0.8356	-0.641
Mof_C 	C 	0.18886	0.4717	0.78	-0.193
Mof_H 	H 	0.1994	0.4517	0.7837	0.098
Mof_C 	C 	0.15711	0.4714	0.7706	0.142
Mof_H 	H 	0.1461	0.4515	0.7682	0
Mof_C 	C 	0.8803	0.373	0.92154	-0.029
Mof_C 	C 	0.8534	0.38287	0.9388	-0.019
Mof_H 	H 	0.8439	0.4033	0.9346	0.038
Mof_C 	C 	0.84026	0.3629	0.9623	-0.083
Mof_H 	H 	0.8219	0.3697	0.9741	0.06
Mof_C 	C 	0.8541	0.333	0.9685	0.057
Mof_C 	C 	0.881	0.32314	0.9512	-0.085
Mof_H 	H 	0.8904	0.3027	0.9555	0.065
Mof_C 	C 	0.8941	0.3431	0.9277	-0.018
Mof_H 	H 	0.9125	0.3363	0.9159	0.041
Mof_C 	C 	0.89406	0.39438	0.89666	0.087
Mof_C 	C 	0.88901	0.38794	0.86419	-0.143
Mof_H 	H 	0.8747	0.3712	0.8579	0.081
Mof_C 	C 	0.90494	0.40593	0.84088	0.085
Mof_H 	H 	0.9015	0.4015	0.8187	0.022
Mof_C 	C 	0.92591	0.43037	0.85003	-0.165
Mof_C 	C 	0.93096	0.43682	0.88249	0.084
Mof_H 	H 	0.9453	0.4535	0.8887	0.02
Mof_C 	C 	0.91504	0.41883	0.90581	-0.143
Mof_H 	H 	0.9185	0.4232	0.928	0.081
Mof_C 	C 	0.9447	0.44801	0.825	0.498
Mof_O 	O 	0.9449	0.0787	0.9746	-0.584
Mof_C 	C 	0.8594	0.2616	0.9757	-0.022
Mof_C 	C 	0.9117	0.1344	0.0283	0.082
Mof_H 	H 	0.9093	0.1212	0.0468	0.033
Mof_C 	C 	0.8746	0.2293	0.9753	0.013
Mof_C 	C 	0.8999	0.1713	0.0265	-0.152
Mof_H 	H 	0.8911	0.1816	0.0449	0.089
Mof_C 	C 	0.2574	0.4754	0.7961	0.027
Mof_C 	C 	0.2882	0.4745	0.8085	-0.033
Mof_O 	O 	0.06014	0.56127	0.29619	-0.647
Mof_O 	O 	0.09341	0.52723	0.248	-0.641
Mof_O 	O 	0.96592	0.53163	0.1644	-0.641
Mof_C 	C 	0.18886	0.5283	0.22	-0.193
Mof_H 	H 	0.1994	0.5483	0.2163	0.098
Mof_C 	C 	0.15711	0.5286	0.2294	0.142
Mof_H 	H 	0.1461	0.5485	0.2318	0
Mof_C 	C 	0.8803	0.627	0.07846	-0.029
Mof_C 	C 	0.8534	0.61713	0.0612	-0.019
Mof_H 	H 	0.8439	0.5967	0.0654	0.038
Mof_C 	C 	0.84026	0.6371	0.0377	-0.083
Mof_H 	H 	0.8219	0.6303	0.0259	0.06
Mof_C 	C 	0.8541	0.667	0.0315	0.057
Mof_C 	C 	0.881	0.67686	0.0488	-0.085
Mof_H 	H 	0.8904	0.6973	0.0445	0.065
Mof_C 	C 	0.8941	0.6569	0.0723	-0.018
Mof_H 	H 	0.9125	0.6637	0.0841	0.041
Mof_C 	C 	0.89406	0.60562	0.10334	0.087
Mof_C 	C 	0.88901	0.61206	0.13581	-0.143
Mof_H 	H 	0.8747	0.6288	0.1421	0.081
Mof_C 	C 	0.90494	0.59407	0.15912	0.085
Mof_H 	H 	0.9015	0.5985	0.1813	0.022
Mof_C 	C 	0.92591	0.56963	0.14997	-0.165
Mof_C 	C 	0.93096	0.56318	0.11751	0.084
Mof_H 	H 	0.9453	0.5465	0.1113	0.02
Mof_C 	C 	0.91504	0.58117	0.09419	-0.143
Mof_H 	H 	0.9185	0.5768	0.072	0.081
Mof_C 	C 	0.9447	0.55199	0.175	0.498
Mof_O 	O 	0.9449	0.9213	0.0254	-0.584
Mof_C 	C 	0.8594	0.7384	0.0243	-0.022
Mof_C 	C 	0.9117	0.8656	0.9717	0.082
Mof_H 	H 	0.9093	0.8788	0.9532	0.033
Mof_C 	C 	0.8746	0.7707	0.0247	0.013
Mof_C 	C 	0.8999	0.8287	0.9735	-0.152
Mof_H 	H 	0.8911	0.8184	0.9551	0.089
Mof_C 	C 	0.2574	0.5246	0.2039	0.027
Mof_C 	C 	0.2882	0.5255	0.1915	-0.033
Mof_O 	O 	0.70381	0.93986	0.56127	-0.647
Mof_O 	O 	0.752	0.90659	0.52723	-0.641
Mof_O 	O 	0.8356	0.03408	0.53163	-0.64
Mof_C 	C 	0.78	0.81114	0.5283	-0.193
Mof_H 	H 	0.7837	0.8006	0.5483	0.098
Mof_C 	C 	0.7706	0.84289	0.5286	0.142
Mof_H 	H 	0.7682	0.8539	0.5485	0
Mof_C 	C 	0.92154	0.1197	0.627	-0.029
Mof_C 	C 	0.9388	0.1466	0.61713	-0.019
Mof_H 	H 	0.9346	0.1561	0.5967	0.038
Mof_C 	C 	0.9623	0.15974	0.6371	-0.083
Mof_H 	H 	0.9741	0.1781	0.6303	0.06
Mof_C 	C 	0.9685	0.1459	0.667	0.057
Mof_C 	C 	0.9512	0.119	0.67686	-0.085
Mof_H 	H 	0.9555	0.1096	0.6973	0.065
Mof_C 	C 	0.9277	0.1059	0.6569	-0.018
Mof_H 	H 	0.9159	0.0875	0.6637	0.041
Mof_C 	C 	0.89666	0.10594	0.60562	0.087
Mof_C 	C 	0.86419	0.11099	0.61206	-0.143
Mof_H 	H 	0.8579	0.1253	0.6288	0.081
Mof_C 	C 	0.84088	0.09506	0.59407	0.085
Mof_H 	H 	0.8187	0.0985	0.5985	0.022
Mof_C 	C 	0.85003	0.07409	0.56963	-0.165
Mof_C 	C 	0.88249	0.06904	0.56318	0.084
Mof_H 	H 	0.8887	0.0547	0.5465	0.02
Mof_C 	C 	0.90581	0.08496	0.58117	-0.143
Mof_H 	H 	0.928	0.0815	0.5768	0.081
Mof_C 	C 	0.825	0.0553	0.55199	0.498
Mof_O 	O 	0.9746	0.0551	0.9213	-0.584
Mof_C 	C 	0.9757	0.1406	0.7384	-0.022
Mof_C 	C 	0.0283	0.0883	0.8656	0.082
Mof_H 	H 	0.0468	0.0907	0.8788	0.033
Mof_C 	C 	0.9753	0.1254	0.7707	0.013
Mof_C 	C 	0.0265	0.1001	0.8287	-0.152
Mof_H 	H 	0.0449	0.1089	0.8184	0.089
Mof_C 	C 	0.7961	0.7426	0.5246	0.027
Mof_C 	C 	0.8085	0.7118	0.5255	-0.033
Mof_O 	O 	0.29619	0.93986	0.43873	-0.647
Mof_O 	O 	0.248	0.90659	0.47277	-0.641
Mof_O 	O 	0.1644	0.03408	0.46837	-0.64
Mof_C 	C 	0.22	0.81114	0.4717	-0.193
Mof_H 	H 	0.2163	0.8006	0.4517	0.098
Mof_C 	C 	0.2294	0.84289	0.4714	0.142
Mof_H 	H 	0.2318	0.8539	0.4515	0
Mof_C 	C 	0.07846	0.1197	0.373	-0.029
Mof_C 	C 	0.0612	0.1466	0.38287	-0.019
Mof_H 	H 	0.0654	0.1561	0.4033	0.038
Mof_C 	C 	0.0377	0.15974	0.3629	-0.083
Mof_H 	H 	0.0259	0.1781	0.3697	0.06
Mof_C 	C 	0.0315	0.1459	0.333	0.057
Mof_C 	C 	0.0488	0.119	0.32314	-0.085
Mof_H 	H 	0.0445	0.1096	0.3027	0.065
Mof_C 	C 	0.0723	0.1059	0.3431	-0.018
Mof_H 	H 	0.0841	0.0875	0.3363	0.041
Mof_C 	C 	0.10334	0.10594	0.39438	0.087
Mof_C 	C 	0.13581	0.11099	0.38794	-0.143
Mof_H 	H 	0.1421	0.1253	0.3712	0.081
Mof_C 	C 	0.15912	0.09506	0.40593	0.085
Mof_H 	H 	0.1813	0.0985	0.4015	0.022
Mof_C 	C 	0.14997	0.07409	0.43037	-0.165
Mof_C 	C 	0.11751	0.06904	0.43682	0.084
Mof_H 	H 	0.1113	0.0547	0.4535	0.02
Mof_C 	C 	0.09419	0.08496	0.41883	-0.143
Mof_H 	H 	0.072	0.0815	0.4232	0.081
Mof_C 	C 	0.175	0.0553	0.44801	0.498
Mof_O 	O 	0.0254	0.0551	0.0787	-0.584
Mof_C 	C 	0.0243	0.1406	0.2616	-0.022
Mof_C 	C 	0.9717	0.0883	0.1344	0.082
Mof_H 	H 	0.9532	0.0907	0.1212	0.033
Mof_C 	C 	0.0247	0.1254	0.2293	0.013
Mof_C 	C 	0.9735	0.1001	0.1713	-0.152
Mof_H 	H 	0.9551	0.1089	0.1816	0.089
Mof_C 	C 	0.2039	0.7426	0.4754	0.027
Mof_C 	C 	0.1915	0.7118	0.4745	-0.033
Mof_O 	O 	0.70381	0.06014	0.43873	-0.647
Mof_O 	O 	0.752	0.09341	0.47277	-0.641
Mof_O 	O 	0.8356	0.96592	0.46837	-0.641
Mof_C 	C 	0.78	0.18886	0.4717	-0.193
Mof_H 	H 	0.7837	0.1994	0.4517	0.098
Mof_C 	C 	0.7706	0.15711	0.4714	0.142
Mof_H 	H 	0.7682	0.1461	0.4515	0
Mof_C 	C 	0.92154	0.8803	0.373	-0.029
Mof_C 	C 	0.9388	0.8534	0.38287	-0.019
Mof_H 	H 	0.9346	0.8439	0.4033	0.038
Mof_C 	C 	0.9623	0.84026	0.3629	-0.083
Mof_H 	H 	0.9741	0.8219	0.3697	0.06
Mof_C 	C 	0.9685	0.8541	0.333	0.057
Mof_C 	C 	0.9512	0.881	0.32314	-0.085
Mof_H 	H 	0.9555	0.8904	0.3027	0.065
Mof_C 	C 	0.9277	0.8941	0.3431	-0.018
Mof_H 	H 	0.9159	0.9125	0.3363	0.041
Mof_C 	C 	0.89666	0.89406	0.39438	0.087
Mof_C 	C 	0.86419	0.88901	0.38794	-0.143
Mof_H 	H 	0.8579	0.8747	0.3712	0.081
Mof_C 	C 	0.84088	0.90494	0.40593	0.085
Mof_H 	H 	0.8187	0.9015	0.4015	0.022
Mof_C 	C 	0.85003	0.92591	0.43037	-0.165
Mof_C 	C 	0.88249	0.93096	0.43682	0.084
Mof_H 	H 	0.8887	0.9453	0.4535	0.02
Mof_C 	C 	0.90581	0.91504	0.41883	-0.143
Mof_H 	H 	0.928	0.9185	0.4232	0.081
Mof_C 	C 	0.825	0.9447	0.44801	0.498
Mof_O 	O 	0.9746	0.9449	0.0787	-0.584
Mof_C 	C 	0.9757	0.8594	0.2616	-0.022
Mof_C 	C 	0.0283	0.9117	0.1344	0.082
Mof_H 	H 	0.0468	0.9093	0.1212	0.033
Mof_C 	C 	0.9753	0.8746	0.2293	0.013
Mof_C 	C 	0.0265	0.8999	0.1713	-0.152
Mof_H 	H 	0.0449	0.8911	0.1816	0.089
Mof_C 	C 	0.7961	0.2574	0.4754	0.027
Mof_C 	C 	0.8085	0.2882	0.4745	-0.033
Mof_O 	O 	0.29619	0.06014	0.56127	-0.647
Mof_O 	O 	0.248	0.09341	0.52723	-0.641
Mof_O 	O 	0.1644	0.96592	0.53163	-0.641
Mof_C 	C 	0.22	0.18886	0.5283	-0.193
Mof_H 	H 	0.2163	0.1994	0.5483	0.098
Mof_C 	C 	0.2294	0.15711	0.5286	0.142
Mof_H 	H 	0.2318	0.1461	0.5485	0
Mof_C 	C 	0.07846	0.8803	0.627	-0.029
Mof_C 	C 	0.0612	0.8534	0.61713	-0.019
Mof_H 	H 	0.0654	0.8439	0.5967	0.038
Mof_C 	C 	0.0377	0.84026	0.6371	-0.083
Mof_H 	H 	0.0259	0.8219	0.6303	0.06
Mof_C 	C 	0.0315	0.8541	0.667	0.057
Mof_C 	C 	0.0488	0.881	0.67686	-0.085
Mof_H 	H 	0.0445	0.8904	0.6973	0.065
Mof_C 	C 	0.0723	0.8941	0.6569	-0.018
Mof_H 	H 	0.0841	0.9125	0.6637	0.041
Mof_C 	C 	0.10334	0.89406	0.60562	0.087
Mof_C 	C 	0.13581	0.88901	0.61206	-0.143
Mof_H 	H 	0.1421	0.8747	0.6288	0.081
Mof_C 	C 	0.15912	0.90494	0.59407	0.085
Mof_H 	H 	0.1813	0.9015	0.5985	0.022
Mof_C 	C 	0.14997	0.92591	0.56963	-0.165
Mof_C 	C 	0.11751	0.93096	0.56318	0.084
Mof_H 	H 	0.1113	0.9453	0.5465	0.02
Mof_C 	C 	0.09419	0.91504	0.58117	-0.143
Mof_H 	H 	0.072	0.9185	0.5768	0.081
Mof_C 	C 	0.175	0.9447	0.55199	0.498
Mof_O 	O 	0.0254	0.9449	0.9213	-0.584
Mof_C 	C 	0.0243	0.8594	0.7384	-0.022
Mof_C 	C 	0.9717	0.9117	0.8656	0.082
Mof_H 	H 	0.9532	0.9093	0.8788	0.033
Mof_C 	C 	0.0247	0.8746	0.7707	0.013
Mof_C 	C 	0.9735	0.8999	0.8287	-0.152
Mof_H 	H 	0.9551	0.8911	0.8184	0.089
Mof_C 	C 	0.2039	0.2574	0.5246	0.027
Mof_C 	C 	0.1915	0.2882	0.5255	-0.033
Mof_O 	O 	0.20381	0.06127	0.56014	-0.647
Mof_O 	O 	0.252	0.02723	0.59341	-0.641
Mof_O 	O 	0.3356	0.03163	0.46592	-0.64
Mof_C 	C 	0.28	0.0283	0.68886	-0.193
Mof_H 	H 	0.2837	0.0483	0.6994	0.098
Mof_C 	C 	0.2706	0.0286	0.65711	0.142
Mof_H 	H 	0.2682	0.0485	0.6461	0
Mof_C 	C 	0.42154	0.127	0.3803	-0.029
Mof_C 	C 	0.4388	0.11713	0.3534	-0.019
Mof_H 	H 	0.4346	0.0967	0.3439	0.038
Mof_C 	C 	0.4623	0.1371	0.34026	-0.083
Mof_H 	H 	0.4741	0.1303	0.3219	0.06
Mof_C 	C 	0.4685	0.167	0.3541	0.057
Mof_C 	C 	0.4512	0.17686	0.381	-0.085
Mof_H 	H 	0.4555	0.1973	0.3904	0.065
Mof_C 	C 	0.4277	0.1569	0.3941	-0.018
Mof_H 	H 	0.4159	0.1637	0.4125	0.041
Mof_C 	C 	0.39666	0.10562	0.39406	0.087
Mof_C 	C 	0.36419	0.11206	0.38901	-0.143
Mof_H 	H 	0.3579	0.1288	0.3747	0.081
Mof_C 	C 	0.34088	0.09407	0.40494	0.085
Mof_H 	H 	0.3187	0.0985	0.4015	0.022
Mof_C 	C 	0.35003	0.06963	0.42591	-0.165
Mof_C 	C 	0.38249	0.06318	0.43096	0.084
Mof_H 	H 	0.3887	0.0465	0.4453	0.02
Mof_C 	C 	0.40581	0.08117	0.41504	-0.143
Mof_H 	H 	0.428	0.0768	0.4185	0.081
Mof_C 	C 	0.325	0.05199	0.4447	0.498
Mof_O 	O 	0.4746	0.4213	0.4449	-0.584
Mof_C 	C 	0.4757	0.2384	0.3594	-0.022
Mof_C 	C 	0.5283	0.3656	0.4117	0.082
Mof_H 	H 	0.5468	0.3788	0.4093	0.033
Mof_C 	C 	0.4753	0.2707	0.3746	0.013
Mof_C 	C 	0.5265	0.3287	0.3999	-0.152
Mof_H 	H 	0.5449	0.3184	0.3911	0.089
Mof_C 	C 	0.2961	0.0246	0.7574	0.027
Mof_C 	C 	0.3085	0.0255	0.7882	-0.033
Mof_O 	O 	0.79619	0.93873	0.56014	-0.647
Mof_O 	O 	0.748	0.97277	0.59341	-0.641
Mof_O 	O 	0.6644	0.96837	0.46592	-0.641
Mof_C 	C 	0.72	0.9717	0.68886	-0.193
Mof_H 	H 	0.7163	0.9517	0.6994	0.098
Mof_C 	C 	0.7294	0.9714	0.65711	0.142
Mof_H 	H 	0.7318	0.9515	0.6461	0
Mof_C 	C 	0.57846	0.873	0.3803	-0.029
Mof_C 	C 	0.5612	0.88287	0.3534	-0.019
Mof_H 	H 	0.5654	0.9033	0.3439	0.038
Mof_C 	C 	0.5377	0.8629	0.34026	-0.083
Mof_H 	H 	0.5259	0.8697	0.3219	0.06
Mof_C 	C 	0.5315	0.833	0.3541	0.057
Mof_C 	C 	0.5488	0.82314	0.381	-0.085
Mof_H 	H 	0.5445	0.8027	0.3904	0.065
Mof_C 	C 	0.5723	0.8431	0.3941	-0.018
Mof_H 	H 	0.5841	0.8363	0.4125	0.041
Mof_C 	C 	0.60334	0.89438	0.39406	0.087
Mof_C 	C 	0.63581	0.88794	0.38901	-0.143
Mof_H 	H 	0.6421	0.8712	0.3747	0.081
Mof_C 	C 	0.65912	0.90593	0.40494	0.085
Mof_H 	H 	0.6813	0.9015	0.4015	0.022
Mof_C 	C 	0.64997	0.93037	0.42591	-0.165
Mof_C 	C 	0.61751	0.93682	0.43096	0.084
Mof_H 	H 	0.6113	0.9535	0.4453	0.02
Mof_C 	C 	0.59419	0.91883	0.41504	-0.143
Mof_H 	H 	0.572	0.9232	0.4185	0.081
Mof_C 	C 	0.675	0.94801	0.4447	0.498
Mof_O 	O 	0.5254	0.5787	0.4449	-0.584
Mof_C 	C 	0.5243	0.7616	0.3594	-0.022
Mof_C 	C 	0.4717	0.6344	0.4117	0.082
Mof_H 	H 	0.4532	0.6212	0.4093	0.033
Mof_C 	C 	0.5247	0.7293	0.3746	0.013
Mof_C 	C 	0.4735	0.6713	0.3999	-0.152
Mof_H 	H 	0.4551	0.6816	0.3911	0.089
Mof_C 	C 	0.7039	0.9754	0.7574	0.027
Mof_C 	C 	0.6915	0.9745	0.7882	-0.033
Mof_O 	O 	0.20381	0.93873	0.43986	-0.647
Mof_O 	O 	0.252	0.97277	0.40659	-0.641
Mof_O 	O 	0.3356	0.96837	0.53408	-0.641
Mof_C 	C 	0.28	0.9717	0.31114	-0.193
Mof_H 	H 	0.2837	0.9517	0.3006	0.098
Mof_C 	C 	0.2706	0.9714	0.34289	0.142
Mof_H 	H 	0.2682	0.9515	0.3539	0
Mof_C 	C 	0.42154	0.873	0.6197	-0.029
Mof_C 	C 	0.4388	0.88287	0.6466	-0.019
Mof_H 	H 	0.4346	0.9033	0.6561	0.038
Mof_C 	C 	0.4623	0.8629	0.65974	-0.083
Mof_H 	H 	0.4741	0.8697	0.6781	0.06
Mof_C 	C 	0.4685	0.833	0.6459	0.057
Mof_C 	C 	0.4512	0.82314	0.619	-0.085
Mof_H 	H 	0.4555	0.8027	0.6096	0.065
Mof_C 	C 	0.4277	0.8431	0.6059	-0.018
Mof_H 	H 	0.4159	0.8363	0.5875	0.041
Mof_C 	C 	0.39666	0.89438	0.60594	0.087
Mof_C 	C 	0.36419	0.88794	0.61099	-0.143
Mof_H 	H 	0.3579	0.8712	0.6253	0.081
Mof_C 	C 	0.34088	0.90593	0.59506	0.085
Mof_H 	H 	0.3187	0.9015	0.5985	0.022
Mof_C 	C 	0.35003	0.93037	0.57409	-0.165
Mof_C 	C 	0.38249	0.93682	0.56904	0.084
Mof_H 	H 	0.3887	0.9535	0.5547	0.02
Mof_C 	C 	0.40581	0.91883	0.58496	-0.143
Mof_H 	H 	0.428	0.9232	0.5815	0.081
Mof_C 	C 	0.325	0.94801	0.5553	0.498
Mof_O 	O 	0.4746	0.5787	0.5551	-0.584
Mof_C 	C 	0.4757	0.7616	0.6406	-0.022
Mof_C 	C 	0.5283	0.6344	0.5883	0.082
Mof_H 	H 	0.5468	0.6212	0.5907	0.033
Mof_C 	C 	0.4753	0.7293	0.6254	0.013
Mof_C 	C 	0.5265	0.6713	0.6001	-0.152
Mof_H 	H 	0.5449	0.6816	0.6089	0.089
Mof_C 	C 	0.2961	0.9754	0.2426	0.027
Mof_C 	C 	0.3085	0.9745	0.2118	-0.033
Mof_O 	O 	0.79619	0.06127	0.43986	-0.647
Mof_O 	O 	0.748	0.02723	0.40659	-0.641
Mof_O 	O 	0.6644	0.03163	0.53408	-0.64
Mof_C 	C 	0.72	0.0283	0.31114	-0.193
Mof_H 	H 	0.7163	0.0483	0.3006	0.098
Mof_C 	C 	0.7294	0.0286	0.34289	0.142
Mof_H 	H 	0.7318	0.0485	0.3539	0
Mof_C 	C 	0.57846	0.127	0.6197	-0.029
Mof_C 	C 	0.5612	0.11713	0.6466	-0.019
Mof_H 	H 	0.5654	0.0967	0.6561	0.038
Mof_C 	C 	0.5377	0.1371	0.65974	-0.083
Mof_H 	H 	0.5259	0.1303	0.6781	0.06
Mof_C 	C 	0.5315	0.167	0.6459	0.057
Mof_C 	C 	0.5488	0.17686	0.619	-0.085
Mof_H 	H 	0.5445	0.1973	0.6096	0.065
Mof_C 	C 	0.5723	0.1569	0.6059	-0.018
Mof_H 	H 	0.5841	0.1637	0.5875	0.041
Mof_C 	C 	0.60334	0.10562	0.60594	0.087
Mof_C 	C 	0.63581	0.11206	0.61099	-0.143
Mof_H 	H 	0.6421	0.1288	0.6253	0.081
Mof_C 	C 	0.65912	0.09407	0.59506	0.085
Mof_H 	H 	0.6813	0.0985	0.5985	0.022
Mof_C 	C 	0.64997	0.06963	0.57409	-0.165
Mof_C 	C 	0.61751	0.06318	0.56904	0.084
Mof_H 	H 	0.6113	0.0465	0.5547	0.02
Mof_C 	C 	0.59419	0.08117	0.58496	-0.143
Mof_H 	H 	0.572	0.0768	0.5815	0.081
Mof_C 	C 	0.675	0.05199	0.5553	0.498
Mof_O 	O 	0.5254	0.4213	0.5551	-0.584
Mof_C 	C 	0.5243	0.2384	0.6406	-0.022
Mof_C 	C 	0.4717	0.3656	0.5883	0.082
Mof_H 	H 	0.4532	0.3788	0.5907	0.033
Mof_C 	C 	0.5247	0.2707	0.6254	0.013
Mof_C 	C 	0.4735	0.3287	0.6001	-0.152
Mof_H 	H 	0.4551	0.3184	0.6089	0.089
Mof_C 	C 	0.7039	0.0246	0.2426	0.027
Mof_C 	C 	0.6915	0.0255	0.2118	-0.033
Mof_O 	O 	0.06127	0.43986	0.79619	-0.647
Mof_O 	O 	0.02723	0.40659	0.748	-0.641
Mof_O 	O 	0.03163	0.53408	0.6644	-0.64
Mof_C 	C 	0.0283	0.31114	0.72	-0.193
Mof_H 	H 	0.0483	0.3006	0.7163	0.098
Mof_C 	C 	0.0286	0.34289	0.7294	0.142
Mof_H 	H 	0.0485	0.3539	0.7318	0
Mof_C 	C 	0.127	0.6197	0.57846	-0.029
Mof_C 	C 	0.11713	0.6466	0.5612	-0.019
Mof_H 	H 	0.0967	0.6561	0.5654	0.038
Mof_C 	C 	0.1371	0.65974	0.5377	-0.083
Mof_H 	H 	0.1303	0.6781	0.5259	0.06
Mof_C 	C 	0.167	0.6459	0.5315	0.057
Mof_C 	C 	0.17686	0.619	0.5488	-0.085
Mof_H 	H 	0.1973	0.6096	0.5445	0.065
Mof_C 	C 	0.1569	0.6059	0.5723	-0.018
Mof_H 	H 	0.1637	0.5875	0.5841	0.041
Mof_C 	C 	0.10562	0.60594	0.60334	0.087
Mof_C 	C 	0.11206	0.61099	0.63581	-0.143
Mof_H 	H 	0.1288	0.6253	0.6421	0.081
Mof_C 	C 	0.09407	0.59506	0.65912	0.085
Mof_H 	H 	0.0985	0.5985	0.6813	0.022
Mof_C 	C 	0.06963	0.57409	0.64997	-0.165
Mof_C 	C 	0.06318	0.56904	0.61751	0.084
Mof_H 	H 	0.0465	0.5547	0.6113	0.02
Mof_C 	C 	0.08117	0.58496	0.59419	-0.143
Mof_H 	H 	0.0768	0.5815	0.572	0.081
Mof_C 	C 	0.05199	0.5553	0.675	0.498
Mof_O 	O 	0.4213	0.5551	0.5254	-0.584
Mof_C 	C 	0.2384	0.6406	0.5243	-0.022
Mof_C 	C 	0.3656	0.5883	0.4717	0.082
Mof_H 	H 	0.3788	0.5907	0.4532	0.033
Mof_C 	C 	0.2707	0.6254	0.5247	0.013
Mof_C 	C 	0.3287	0.6001	0.4735	-0.152
Mof_H 	H 	0.3184	0.6089	0.4551	0.089
Mof_C 	C 	0.0246	0.2426	0.7039	0.027
Mof_C 	C 	0.0255	0.2118	0.6915	-0.033
Mof_O 	O 	0.93873	0.43986	0.20381	-0.647
Mof_O 	O 	0.97277	0.40659	0.252	-0.641
Mof_O 	O 	0.96837	0.53408	0.3356	-0.641
Mof_C 	C 	0.9717	0.31114	0.28	-0.193
Mof_H 	H 	0.9517	0.3006	0.2837	0.098
Mof_C 	C 	0.9714	0.34289	0.2706	0.142
Mof_H 	H 	0.9515	0.3539	0.2682	0
Mof_C 	C 	0.873	0.6197	0.42154	-0.029
Mof_C 	C 	0.88287	0.6466	0.4388	-0.019
Mof_H 	H 	0.9033	0.6561	0.4346	0.038
Mof_C 	C 	0.8629	0.65974	0.4623	-0.083
Mof_H 	H 	0.8697	0.6781	0.4741	0.06
Mof_C 	C 	0.833	0.6459	0.4685	0.057
Mof_C 	C 	0.82314	0.619	0.4512	-0.085
Mof_H 	H 	0.8027	0.6096	0.4555	0.065
Mof_C 	C 	0.8431	0.6059	0.4277	-0.018
Mof_H 	H 	0.8363	0.5875	0.4159	0.041
Mof_C 	C 	0.89438	0.60594	0.39666	0.087
Mof_C 	C 	0.88794	0.61099	0.36419	-0.143
Mof_H 	H 	0.8712	0.6253	0.3579	0.081
Mof_C 	C 	0.90593	0.59506	0.34088	0.085
Mof_H 	H 	0.9015	0.5985	0.3187	0.022
Mof_C 	C 	0.93037	0.57409	0.35003	-0.165
Mof_C 	C 	0.93682	0.56904	0.38249	0.084
Mof_H 	H 	0.9535	0.5547	0.3887	0.02
Mof_C 	C 	0.91883	0.58496	0.40581	-0.143
Mof_H 	H 	0.9232	0.5815	0.428	0.081
Mof_C 	C 	0.94801	0.5553	0.325	0.498
Mof_O 	O 	0.5787	0.5551	0.4746	-0.584
Mof_C 	C 	0.7616	0.6406	0.4757	-0.022
Mof_C 	C 	0.6344	0.5883	0.5283	0.082
Mof_H 	H 	0.6212	0.5907	0.5468	0.033
Mof_C 	C 	0.7293	0.6254	0.4753	0.013
Mof_C 	C 	0.6713	0.6001	0.5265	-0.152
Mof_H 	H 	0.6816	0.6089	0.5449	0.089
Mof_C 	C 	0.9754	0.2426	0.2961	0.027
Mof_C 	C 	0.9745	0.2118	0.3085	-0.033
Mof_O 	O 	0.93873	0.56014	0.79619	-0.647
Mof_O 	O 	0.97277	0.59341	0.748	-0.641
Mof_O 	O 	0.96837	0.46592	0.6644	-0.641
Mof_C 	C 	0.9717	0.68886	0.72	-0.193
Mof_H 	H 	0.9517	0.6994	0.7163	0.098
Mof_C 	C 	0.9714	0.65711	0.7294	0.142
Mof_H 	H 	0.9515	0.6461	0.7318	0
Mof_C 	C 	0.873	0.3803	0.57846	-0.029
Mof_C 	C 	0.88287	0.3534	0.5612	-0.019
Mof_H 	H 	0.9033	0.3439	0.5654	0.038
Mof_C 	C 	0.8629	0.34026	0.5377	-0.083
Mof_H 	H 	0.8697	0.3219	0.5259	0.06
Mof_C 	C 	0.833	0.3541	0.5315	0.057
Mof_C 	C 	0.82314	0.381	0.5488	-0.085
Mof_H 	H 	0.8027	0.3904	0.5445	0.065
Mof_C 	C 	0.8431	0.3941	0.5723	-0.018
Mof_H 	H 	0.8363	0.4125	0.5841	0.041
Mof_C 	C 	0.89438	0.39406	0.60334	0.087
Mof_C 	C 	0.88794	0.38901	0.63581	-0.143
Mof_H 	H 	0.8712	0.3747	0.6421	0.081
Mof_C 	C 	0.90593	0.40494	0.65912	0.085
Mof_H 	H 	0.9015	0.4015	0.6813	0.022
Mof_C 	C 	0.93037	0.42591	0.64997	-0.165
Mof_C 	C 	0.93682	0.43096	0.61751	0.084
Mof_H 	H 	0.9535	0.4453	0.6113	0.02
Mof_C 	C 	0.91883	0.41504	0.59419	-0.143
Mof_H 	H 	0.9232	0.4185	0.572	0.081
Mof_C 	C 	0.94801	0.4447	0.675	0.498
Mof_O 	O 	0.5787	0.4449	0.5254	-0.584
Mof_C 	C 	0.7616	0.3594	0.5243	-0.022
Mof_C 	C 	0.6344	0.4117	0.4717	0.082
Mof_H 	H 	0.6212	0.4093	0.4532	0.033
Mof_C 	C 	0.7293	0.3746	0.5247	0.013
Mof_C 	C 	0.6713	0.3999	0.4735	-0.152
Mof_H 	H 	0.6816	0.3911	0.4551	0.089
Mof_C 	C 	0.9754	0.7574	0.7039	0.027
Mof_C 	C 	0.9745	0.7882	0.6915	-0.033
Mof_O 	O 	0.06127	0.56014	0.20381	-0.647
Mof_O 	O 	0.02723	0.59341	0.252	-0.641
Mof_O 	O 	0.03163	0.46592	0.3356	-0.64
Mof_C 	C 	0.0283	0.68886	0.28	-0.193
Mof_H 	H 	0.0483	0.6994	0.2837	0.098
Mof_C 	C 	0.0286	0.65711	0.2706	0.142
Mof_H 	H 	0.0485	0.6461	0.2682	0
Mof_C 	C 	0.127	0.3803	0.42154	-0.029
Mof_C 	C 	0.11713	0.3534	0.4388	-0.019
Mof_H 	H 	0.0967	0.3439	0.4346	0.038
Mof_C 	C 	0.1371	0.34026	0.4623	-0.083
Mof_H 	H 	0.1303	0.3219	0.4741	0.06
Mof_C 	C 	0.167	0.3541	0.4685	0.057
Mof_C 	C 	0.17686	0.381	0.4512	-0.085
Mof_H 	H 	0.1973	0.3904	0.4555	0.065
Mof_C 	C 	0.1569	0.3941	0.4277	-0.018
Mof_H 	H 	0.1637	0.4125	0.4159	0.041
Mof_C 	C 	0.10562	0.39406	0.39666	0.087
Mof_C 	C 	0.11206	0.38901	0.36419	-0.143
Mof_H 	H 	0.1288	0.3747	0.3579	0.081
Mof_C 	C 	0.09407	0.40494	0.34088	0.085
Mof_H 	H 	0.0985	0.4015	0.3187	0.022
Mof_C 	C 	0.06963	0.42591	0.35003	-0.165
Mof_C 	C 	0.06318	0.43096	0.38249	0.084
Mof_H 	H 	0.0465	0.4453	0.3887	0.02
Mof_C 	C 	0.08117	0.41504	0.40581	-0.143
Mof_H 	H 	0.0768	0.4185	0.428	0.081
Mof_C 	C 	0.05199	0.4447	0.325	0.498
Mof_O 	O 	0.4213	0.4449	0.4746	-0.584
Mof_C 	C 	0.2384	0.3594	0.4757	-0.022
Mof_C 	C 	0.3656	0.4117	0.5283	0.082
Mof_H 	H 	0.3788	0.4093	0.5468	0.033
Mof_C 	C 	0.2707	0.3746	0.4753	0.013
Mof_C 	C 	0.3287	0.3999	0.5265	-0.152
Mof_H 	H 	0.3184	0.3911	0.5449	0.089
Mof_C 	C 	0.0246	0.7574	0.2961	0.027
Mof_C 	C 	0.0255	0.7882	0.3085	-0.033
Mof_O 	O 	0.43986	0.20381	0.93873	-0.647
Mof_O 	O 	0.40659	0.252	0.97277	-0.641
Mof_O 	O 	0.53408	0.3356	0.96837	-0.641
Mof_C 	C 	0.31114	0.28	0.9717	-0.193
Mof_H 	H 	0.3006	0.2837	0.9517	0.098
Mof_C 	C 	0.34289	0.2706	0.9714	0.142
Mof_H 	H 	0.3539	0.2682	0.9515	0
Mof_C 	C 	0.6197	0.42154	0.873	-0.029
Mof_C 	C 	0.6466	0.4388	0.88287	-0.019
Mof_H 	H 	0.6561	0.4346	0.9033	0.038
Mof_C 	C 	0.65974	0.4623	0.8629	-0.083
Mof_H 	H 	0.6781	0.4741	0.8697	0.06
Mof_C 	C 	0.6459	0.4685	0.833	0.057
Mof_C 	C 	0.619	0.4512	0.82314	-0.085
Mof_H 	H 	0.6096	0.4555	0.8027	0.065
Mof_C 	C 	0.6059	0.4277	0.8431	-0.018
Mof_H 	H 	0.5875	0.4159	0.8363	0.041
Mof_C 	C 	0.60594	0.39666	0.89438	0.087
Mof_C 	C 	0.61099	0.36419	0.88794	-0.143
Mof_H 	H 	0.6253	0.3579	0.8712	0.081
Mof_C 	C 	0.59506	0.34088	0.90593	0.085
Mof_H 	H 	0.5985	0.3187	0.9015	0.022
Mof_C 	C 	0.57409	0.35003	0.93037	-0.165
Mof_C 	C 	0.56904	0.38249	0.93682	0.084
Mof_H 	H 	0.5547	0.3887	0.9535	0.02
Mof_C 	C 	0.58496	0.40581	0.91883	-0.143
Mof_H 	H 	0.5815	0.428	0.9232	0.081
Mof_C 	C 	0.5553	0.325	0.94801	0.498
Mof_O 	O 	0.5551	0.4746	0.5787	-0.584
Mof_C 	C 	0.6406	0.4757	0.7616	-0.022
Mof_C 	C 	0.5883	0.5283	0.6344	0.082
Mof_H 	H 	0.5907	0.5468	0.6212	0.033
Mof_C 	C 	0.6254	0.4753	0.7293	0.013
Mof_C 	C 	0.6001	0.5265	0.6713	-0.152
Mof_H 	H 	0.6089	0.5449	0.6816	0.089
Mof_C 	C 	0.2426	0.2961	0.9754	0.027
Mof_C 	C 	0.2118	0.3085	0.9745	-0.033
Mof_O 	O 	0.43986	0.79619	0.06127	-0.647
Mof_O 	O 	0.40659	0.748	0.02723	-0.641
Mof_O 	O 	0.53408	0.6644	0.03163	-0.64
Mof_C 	C 	0.31114	0.72	0.0283	-0.193
Mof_H 	H 	0.3006	0.7163	0.0483	0.098
Mof_C 	C 	0.34289	0.7294	0.0286	0.142
Mof_H 	H 	0.3539	0.7318	0.0485	0
Mof_C 	C 	0.6197	0.57846	0.127	-0.029
Mof_C 	C 	0.6466	0.5612	0.11713	-0.019
Mof_H 	H 	0.6561	0.5654	0.0967	0.038
Mof_C 	C 	0.65974	0.5377	0.1371	-0.083
Mof_H 	H 	0.6781	0.5259	0.1303	0.06
Mof_C 	C 	0.6459	0.5315	0.167	0.057
Mof_C 	C 	0.619	0.5488	0.17686	-0.085
Mof_H 	H 	0.6096	0.5445	0.1973	0.065
Mof_C 	C 	0.6059	0.5723	0.1569	-0.018
Mof_H 	H 	0.5875	0.5841	0.1637	0.041
Mof_C 	C 	0.60594	0.60334	0.10562	0.087
Mof_C 	C 	0.61099	0.63581	0.11206	-0.143
Mof_H 	H 	0.6253	0.6421	0.1288	0.081
Mof_C 	C 	0.59506	0.65912	0.09407	0.085
Mof_H 	H 	0.5985	0.6813	0.0985	0.022
Mof_C 	C 	0.57409	0.64997	0.06963	-0.165
Mof_C 	C 	0.56904	0.61751	0.06318	0.084
Mof_H 	H 	0.5547	0.6113	0.0465	0.02
Mof_C 	C 	0.58496	0.59419	0.08117	-0.143
Mof_H 	H 	0.5815	0.572	0.0768	0.081
Mof_C 	C 	0.5553	0.675	0.05199	0.498
Mof_O 	O 	0.5551	0.5254	0.4213	-0.584
Mof_C 	C 	0.6406	0.5243	0.2384	-0.022
Mof_C 	C 	0.5883	0.4717	0.3656	0.082
Mof_H 	H 	0.5907	0.4532	0.3788	0.033
Mof_C 	C 	0.6254	0.5247	0.2707	0.013
Mof_C 	C 	0.6001	0.4735	0.3287	-0.152
Mof_H 	H 	0.6089	0.4551	0.3184	0.089
Mof_C 	C 	0.2426	0.7039	0.0246	0.027
Mof_C 	C 	0.2118	0.6915	0.0255	-0.033
Mof_O 	O 	0.56014	0.20381	0.06127	-0.647
Mof_O 	O 	0.59341	0.252	0.02723	-0.641
Mof_O 	O 	0.46592	0.3356	0.03163	-0.64
Mof_C 	C 	0.68886	0.28	0.0283	-0.193
Mof_H 	H 	0.6994	0.2837	0.0483	0.098
Mof_C 	C 	0.65711	0.2706	0.0286	0.142
Mof_H 	H 	0.6461	0.2682	0.0485	0
Mof_C 	C 	0.3803	0.42154	0.127	-0.029
Mof_C 	C 	0.3534	0.4388	0.11713	-0.019
Mof_H 	H 	0.3439	0.4346	0.0967	0.038
Mof_C 	C 	0.34026	0.4623	0.1371	-0.083
Mof_H 	H 	0.3219	0.4741	0.1303	0.06
Mof_C 	C 	0.3541	0.4685	0.167	0.057
Mof_C 	C 	0.381	0.4512	0.17686	-0.085
Mof_H 	H 	0.3904	0.4555	0.1973	0.065
Mof_C 	C 	0.3941	0.4277	0.1569	-0.018
Mof_H 	H 	0.4125	0.4159	0.1637	0.041
Mof_C 	C 	0.39406	0.39666	0.10562	0.087
Mof_C 	C 	0.38901	0.36419	0.11206	-0.143
Mof_H 	H 	0.3747	0.3579	0.1288	0.081
Mof_C 	C 	0.40494	0.34088	0.09407	0.085
Mof_H 	H 	0.4015	0.3187	0.0985	0.022
Mof_C 	C 	0.42591	0.35003	0.06963	-0.165
Mof_C 	C 	0.43096	0.38249	0.06318	0.084
Mof_H 	H 	0.4453	0.3887	0.0465	0.02
Mof_C 	C 	0.41504	0.40581	0.08117	-0.143
Mof_H 	H 	0.4185	0.428	0.0768	0.081
Mof_C 	C 	0.4447	0.325	0.05199	0.498
Mof_O 	O 	0.4449	0.4746	0.4213	-0.584
Mof_C 	C 	0.3594	0.4757	0.2384	-0.022
Mof_C 	C 	0.4117	0.5283	0.3656	0.082
Mof_H 	H 	0.4093	0.5468	0.3788	0.033
Mof_C 	C 	0.3746	0.4753	0.2707	0.013
Mof_C 	C 	0.3999	0.5265	0.3287	-0.152
Mof_H 	H 	0.3911	0.5449	0.3184	0.089
Mof_C 	C 	0.7574	0.2961	0.0246	0.027
Mof_C 	C 	0.7882	0.3085	0.0255	-0.033
Mof_O 	O 	0.56014	0.79619	0.93873	-0.647
Mof_O 	O 	0.59341	0.748	0.97277	-0.641
Mof_O 	O 	0.46592	0.6644	0.96837	-0.641
Mof_C 	C 	0.68886	0.72	0.9717	-0.193
Mof_H 	H 	0.6994	0.7163	0.9517	0.098
Mof_C 	C 	0.65711	0.7294	0.9714	0.142
Mof_H 	H 	0.6461	0.7318	0.9515	0
Mof_C 	C 	0.3803	0.57846	0.873	-0.029
Mof_C 	C 	0.3534	0.5612	0.88287	-0.019
Mof_H 	H 	0.3439	0.5654	0.9033	0.038
Mof_C 	C 	0.34026	0.5377	0.8629	-0.083
Mof_H 	H 	0.3219	0.5259	0.8697	0.06
Mof_C 	C 	0.3541	0.5315	0.833	0.057
Mof_C 	C 	0.381	0.5488	0.82314	-0.085
Mof_H 	H 	0.3904	0.5445	0.8027	0.065
Mof_C 	C 	0.3941	0.5723	0.8431	-0.018
Mof_H 	H 	0.4125	0.5841	0.8363	0.041
Mof_C 	C 	0.39406	0.60334	0.89438	0.087
Mof_C 	C 	0.38901	0.63581	0.88794	-0.143
Mof_H 	H 	0.3747	0.6421	0.8712	0.081
Mof_C 	C 	0.40494	0.65912	0.90593	0.085
Mof_H 	H 	0.4015	0.6813	0.9015	0.022
Mof_C 	C 	0.42591	0.64997	0.93037	-0.165
Mof_C 	C 	0.43096	0.61751	0.93682	0.084
Mof_H 	H 	0.4453	0.6113	0.9535	0.02
Mof_C 	C 	0.41504	0.59419	0.91883	-0.143
Mof_H 	H 	0.4185	0.572	0.9232	0.081
Mof_C 	C 	0.4447	0.675	0.94801	0.498
Mof_O 	O 	0.4449	0.5254	0.5787	-0.584
Mof_C 	C 	0.3594	0.5243	0.7616	-0.022
Mof_C 	C 	0.4117	0.4717	0.6344	0.082
Mof_H 	H 	0.4093	0.4532	0.6212	0.033
Mof_C 	C 	0.3746	0.5247	0.7293	0.013
Mof_C 	C 	0.3999	0.4735	0.6713	-0.152
Mof_H 	H 	0.3911	0.4551	0.6816	0.089
Mof_C 	C 	0.7574	0.7039	0.9754	0.027
Mof_C 	C 	0.7882	0.6915	0.9745	-0.033
Mof_Zr	Zr	0.45785	0.25	0.04215	3.217
Mof_Zr	Zr	0.54215	0.75	0.04215	3.217
Mof_Zr	Zr	0.54215	0.25	0.95785	3.217
Mof_Zr	Zr	0.45785	0.75	0.95785	3.217
Mof_Zr	Zr	0.04215	0.45785	0.25	3.217
Mof_Zr	Zr	0.04215	0.54215	0.75	3.217
Mof_Zr	Zr	0.95785	0.54215	0.25	3.217
Mof_Zr	Zr	0.95785	0.45785	0.75	3.217
Mof_Zr	Zr	0.25	0.04215	0.45785	3.217
Mof_Zr	Zr	0.75	0.04215	0.54215	3.217
Mof_Zr	Zr	0.25	0.95785	0.54215	3.217
Mof_Zr	Zr	0.75	0.95785	0.45785	3.217
Mof_Zr	Zr	0.54215	0.75	0.95785	3.217
Mof_Zr	Zr	0.45785	0.25	0.95785	3.217
Mof_Zr	Zr	0.45785	0.75	0.04215	3.217
Mof_Zr	Zr	0.54215	0.25	0.04215	3.217
Mof_Zr	Zr	0.95785	0.54215	0.75	3.217
Mof_Zr	Zr	0.95785	0.45785	0.25	3.217
Mof_Zr	Zr	0.04215	0.45785	0.75	3.217
Mof_Zr	Zr	0.04215	0.54215	0.25	3.217
Mof_Zr	Zr	0.75	0.95785	0.54215	3.217
Mof_Zr	Zr	0.25	0.95785	0.45785	3.217
Mof_Zr	Zr	0.75	0.04215	0.45785	3.217
Mof_Zr	Zr	0.25	0.04215	0.54215	3.217
Mof_Zr	Zr	0.5	0.19011	-0	3.217
Mof_Zr	Zr	0.5	0.80989	-0	3.217
Mof_Zr	Zr	-2.11026e-33	0.5	0.19011	3.217
Mof_Zr	Zr	-1.39017e-32	0.5	0.80989	3.217
Mof_Zr	Zr	0.19011	0	0.5	3.217
Mof_Zr	Zr	0.80989	0	0.5	3.217
Mof_Zr	Zr	0.69011	0	0.5	3.217
Mof_Zr	Zr	0.30989	0	0.5	3.217
Mof_Zr	Zr	1.1619e-33	0.5	0.30989	3.217
Mof_Zr	Zr	-3.05861e-33	0.5	0.69011	3.217
Mof_Zr	Zr	0.5	0.69011	-0	3.217
Mof_Zr	Zr	0.5	0.30989	-0	3.217
Mof_Zr	Zr	0.03314	0.03314	0.96686	3.333
Mof_Zr	Zr	0.96686	0.96686	0.96686	3.333
Mof_Zr	Zr	0.96686	0.03314	0.03314	3.333
Mof_Zr	Zr	0.03314	0.96686	0.03314	3.333
Mof_Zr	Zr	0.53314	0.53314	0.53314	3.333
Mof_Zr	Zr	0.46686	0.46686	0.53314	3.333
Mof_Zr	Zr	0.53314	0.46686	0.46686	3.333
Mof_Zr	Zr	0.46686	0.53314	0.46686	3.333
Mof_Zr	Zr	0.96686	0.96686	0.03314	3.333
Mof_Zr	Zr	0.03314	0.03314	0.03314	3.333
Mof_Zr	Zr	0.03314	0.96686	0.96686	3.333
Mof_Zr	Zr	0.96686	0.03314	0.96686	3.333
Mof_Zr	Zr	0.46686	0.46686	0.46686	3.333
Mof_Zr	Zr	0.53314	0.53314	0.46686	3.333
Mof_Zr	Zr	0.46686	0.53314	0.53314	3.333
Mof_Zr	Zr	0.53314	0.46686	0.53314	3.333
Mof_O 	O 	0.5	0.28329	0.04803	-1.005
Mof_O 	O 	0.5	0.2248	0.03495	-1.426
Mof_C 	C 	0.5	0.2353	0.1413	-0.231
Mof_C 	C 	0.5	0.2441	0.1076	0.53
Mof_C 	C 	0.5	0.2157	0.2061	0.146
Mof_C 	C 	0.5	0.2073	0.2389	-0.085
Mof_O 	O 	0.5	0.71671	0.04803	-1.005
Mof_O 	O 	0.5	0.7752	0.03495	-1.426
Mof_C 	C 	0.5	0.7647	0.1413	-0.231
Mof_C 	C 	0.5	0.7559	0.1076	0.53
Mof_C 	C 	0.5	0.7843	0.2061	0.146
Mof_C 	C 	0.5	0.7927	0.2389	-0.085
Mof_O 	O 	0.5	0.28329	0.95197	-1.005
Mof_O 	O 	0.5	0.2248	0.96505	-1.426
Mof_C 	C 	0.5	0.2353	0.8587	-0.231
Mof_C 	C 	0.5	0.2441	0.8924	0.53
Mof_C 	C 	0.5	0.2157	0.7939	0.146
Mof_C 	C 	0.5	0.2073	0.7611	-0.085
Mof_O 	O 	0.5	0.71671	0.95197	-1.005
Mof_O 	O 	0.5	0.7752	0.96505	-1.426
Mof_C 	C 	0.5	0.7647	0.8587	-0.231
Mof_C 	C 	0.5	0.7559	0.8924	0.53
Mof_C 	C 	0.5	0.7843	0.7939	0.146
Mof_C 	C 	0.5	0.7927	0.7611	-0.085
Mof_O 	O 	0.04803	0.5	0.28329	-1.005
Mof_O 	O 	0.03495	0.5	0.2248	-1.426
Mof_C 	C 	0.1413	0.5	0.2353	-0.231
Mof_C 	C 	0.1076	0.5	0.2441	0.53
Mof_C 	C 	0.2061	0.5	0.2157	0.146
Mof_C 	C 	0.2389	0.5	0.2073	-0.085
Mof_O 	O 	0.04803	0.5	0.71671	-1.005
Mof_O 	O 	0.03495	0.5	0.7752	-1.426
Mof_C 	C 	0.1413	0.5	0.7647	-0.231
Mof_C 	C 	0.1076	0.5	0.7559	0.53
Mof_C 	C 	0.2061	0.5	0.7843	0.146
Mof_C 	C 	0.2389	0.5	0.7927	-0.085
Mof_O 	O 	0.95197	0.5	0.28329	-1.005
Mof_O 	O 	0.96505	0.5	0.2248	-1.426
Mof_C 	C 	0.8587	0.5	0.2353	-0.231
Mof_C 	C 	0.8924	0.5	0.2441	0.53
Mof_C 	C 	0.7939	0.5	0.2157	0.146
Mof_C 	C 	0.7611	0.5	0.2073	-0.085
Mof_O 	O 	0.95197	0.5	0.71671	-1.005
Mof_O 	O 	0.96505	0.5	0.7752	-1.426
Mof_C 	C 	0.8587	0.5	0.7647	-0.231
Mof_C 	C 	0.8924	0.5	0.7559	0.53
Mof_C 	C 	0.7939	0.5	0.7843	0.146
Mof_C 	C 	0.7611	0.5	0.7927	-0.085
Mof_O 	O 	0.28329	0.04803	0.5	-1.005
Mof_O 	O 	0.2248	0.03495	0.5	-1.426
Mof_C 	C 	0.2353	0.1413	0.5	-0.231
Mof_C 	C 	0.2441	0.1076	0.5	0.53
Mof_C 	C 	0.2157	0.2061	0.5	0.146
Mof_C 	C 	0.2073	0.2389	0.5	-0.085
Mof_O 	O 	0.71671	0.04803	0.5	-1.005
Mof_O 	O 	0.7752	0.03495	0.5	-1.426
Mof_C 	C 	0.7647	0.1413	0.5	-0.231
Mof_C 	C 	0.7559	0.1076	0.5	0.53
Mof_C 	C 	0.7843	0.2061	0.5	0.146
Mof_C 	C 	0.7927	0.2389	0.5	-0.085
Mof_O 	O 	0.28329	0.95197	0.5	-1.005
Mof_O 	O 	0.2248	0.96505	0.5	-1.426
Mof_C 	C 	0.2353	0.8587	0.5	-0.231
Mof_C 	C 	0.2441	0.8924	0.5	0.53
Mof_C 	C 	0.2157	0.7939	0.5	0.146
Mof_C 	C 	0.2073	0.7611	0.5	-0.085
Mof_O 	O 	0.71671	0.95197	0.5	-1.005
Mof_O 	O 	0.7752	0.96505	0.5	-1.426
Mof_C 	C 	0.7647	0.8587	0.5	-0.231
Mof_C 	C 	0.7559	0.8924	0.5	0.53
Mof_C 	C 	0.7843	0.7939	0.5	0.146
Mof_C 	C 	0.7927	0.7611	0.5	-0.085
Mof_O 	O 	0.78329	-5.64611e-33	0.45197	-1.004
Mof_O 	O 	0.7248	0	0.46505	-1.426
Mof_C 	C 	0.7353	-2.82306e-33	0.3587	-0.231
Mof_C 	C 	0.7441	-2.82306e-33	0.3924	0.53
Mof_C 	C 	0.7157	0	0.2939	0.146
Mof_C 	C 	0.7073	-2.82306e-33	0.2611	-0.085
Mof_O 	O 	0.21671	-5.64611e-33	0.45197	-1.004
Mof_O 	O 	0.2752	0	0.46505	-1.426
Mof_C 	C 	0.2647	-2.82306e-33	0.3587	-0.231
Mof_C 	C 	0.2559	-2.82306e-33	0.3924	0.53
Mof_C 	C 	0.2843	0	0.2939	0.146
Mof_C 	C 	0.2927	-2.82306e-33	0.2611	-0.085
Mof_O 	O 	0.78329	-5.64611e-33	0.54803	-1.004
Mof_O 	O 	0.7248	0	0.53495	-1.426
Mof_C 	C 	0.7353	-1.12922e-32	0.6413	-0.231
Mof_C 	C 	0.7441	-5.64611e-33	0.6076	0.53
Mof_C 	C 	0.7157	-5.64611e-33	0.7061	0.146
Mof_C 	C 	0.7073	-5.64611e-33	0.7389	-0.085
Mof_O 	O 	0.21671	-5.64611e-33	0.54803	-1.004
Mof_O 	O 	0.2752	0	0.53495	-1.426
Mof_C 	C 	0.2647	-1.12922e-32	0.6413	-0.231
Mof_C 	C 	0.2559	-5.64611e-33	0.6076	0.53
Mof_C 	C 	0.2843	-5.64611e-33	0.7061	0.146
Mof_C 	C 	0.2927	-5.64611e-33	0.7389	-0.085
Mof_O 	O 	-1.04797e-32	0.54803	0.21671	-1.004
Mof_O 	O 	1.03183e-33	0.53495	0.2752	-1.426
Mof_C 	C 	-1.83059e-33	0.6413	0.2647	-0.231
Mof_C 	C 	-4.68664e-33	0.6076	0.2559	0.53
Mof_C 	C 	-1.02263e-32	0.7061	0.2843	0.146
Mof_C 	C 	1.09745e-33	0.7389	0.2927	-0.085
Mof_O 	O 	-1.40015e-32	0.54803	0.78329	-1.004
Mof_O 	O 	-2.92855e-33	0.53495	0.7248	-1.426
Mof_C 	C 	-8.53529e-33	0.6413	0.7353	-0.231
Mof_C 	C 	2.78993e-33	0.6076	0.7441	0.53
Mof_C 	C 	-2.96267e-33	0.7061	0.7157	0.146
Mof_C 	C 	-1.42864e-32	0.7389	0.7073	-0.085
Mof_O 	O 	8.12532e-34	0.45197	0.21671	-1.004
Mof_O 	O 	-4.61428e-33	0.46505	0.2752	-1.426
Mof_C 	C 	-7.4767e-33	0.3587	0.2647	-0.231
Mof_C 	C 	-1.86358e-33	0.3924	0.2559	0.53
Mof_C 	C 	-1.7571e-33	0.2939	0.2843	0.146
Mof_C 	C 	1.09745e-33	0.2611	0.2927	-0.085
Mof_O 	O 	-1.40015e-32	0.45197	0.78329	-1.004
Mof_O 	O 	2.71756e-33	0.46505	0.7248	-1.426
Mof_C 	C 	-2.88918e-33	0.3587	0.7353	-0.231
Mof_C 	C 	-8.50229e-33	0.3924	0.7441	0.53
Mof_C 	C 	2.68345e-33	0.2939	0.7157	0.146
Mof_C 	C 	-2.99416e-33	0.2611	0.7073	-0.085
Mof_O 	O 	0.54803	0.78329	-0	-1.004
Mof_O 	O 	0.53495	0.7248	-0	-1.426
Mof_C 	C 	0.6413	0.7353	-0	-0.231
Mof_C 	C 	0.6076	0.7441	-0	0.53
Mof_C 	C 	0.7061	0.7157	-0	0.146
Mof_C 	C 	0.7389	0.7073	-0	-0.085
Mof_O 	O 	0.54803	0.21671	-0	-1.004
Mof_O 	O 	0.53495	0.2752	-0	-1.426
Mof_C 	C 	0.6413	0.2647	-0	-0.231
Mof_C 	C 	0.6076	0.2559	-0	0.53
Mof_C 	C 	0.7061	0.2843	-0	0.146
Mof_C 	C 	0.7389	0.2927	-0	-0.085
Mof_O 	O 	0.45197	0.78329	-0	-1.004
Mof_O 	O 	0.46505	0.7248	-0	-1.426
Mof_C 	C 	0.3587	0.7353	-0	-0.231
Mof_C 	C 	0.3924	0.7441	-0	0.53
Mof_C 	C 	0.2939	0.7157	-0	0.146
Mof_C 	C 	0.2611	0.7073	-0	-0.085
Mof_O 	O 	0.45197	0.21671	-0	-1.004
Mof_O 	O 	0.46505	0.2752	-0	-1.426
Mof_C 	C 	0.3587	0.2647	-0	-0.231
Mof_C 	C 	0.3924	0.2559	-0	0.53
Mof_C 	C 	0.2939	0.2843	-0	0.146
Mof_C 	C 	0.2611	0.2927	-0	-0.085
Mof_O 	O 	0.0282	0	0.9495	-1.707
Mof_C 	C 	0.3094	-1.12922e-32	0.8058	0.029
Mof_C 	C 	0.2832	-1.12922e-32	0.8577	0.015
Mof_C 	C 	0.3152	0	0.8418	-0.05
Mof_C 	C 	0.2185	0	0.8854	-0.062
Mof_C 	C 	0.1864	-1.12922e-32	0.9028	0.135
Mof_C 	C 	0.0914	0	0.9399	0.631
Mof_C 	C 	0.1243	0	0.9255	-0.181
Mof_O 	O 	0.9718	0	0.9495	-1.707
Mof_C 	C 	0.6906	-1.12922e-32	0.8058	0.029
Mof_C 	C 	0.7168	-1.12922e-32	0.8577	0.015
Mof_C 	C 	0.6848	0	0.8418	-0.05
Mof_C 	C 	0.7815	0	0.8854	-0.062
Mof_C 	C 	0.8136	-1.12922e-32	0.9028	0.135
Mof_C 	C 	0.9086	0	0.9399	0.631
Mof_C 	C 	0.8757	0	0.9255	-0.181
Mof_O 	O 	0.9718	0	0.0505	-1.707
Mof_C 	C 	0.6906	-1.41153e-33	0.1942	0.029
Mof_C 	C 	0.7168	-1.41153e-33	0.1423	0.015
Mof_C 	C 	0.6848	0	0.1582	-0.05
Mof_C 	C 	0.7815	-1.41153e-33	0.1146	-0.062
Mof_C 	C 	0.8136	-1.41153e-33	0.0972	0.135
Mof_C 	C 	0.9086	0	0.0601	0.631
Mof_C 	C 	0.8757	-7.05764e-34	0.0745	-0.181
Mof_O 	O 	0.0282	0	0.0505	-1.707
Mof_C 	C 	0.3094	-1.41153e-33	0.1942	0.029
Mof_C 	C 	0.2832	-1.41153e-33	0.1423	0.015
Mof_C 	C 	0.3152	0	0.1582	-0.05
Mof_C 	C 	0.2185	-1.41153e-33	0.1146	-0.062
Mof_C 	C 	0.1864	-1.41153e-33	0.0972	0.135
Mof_C 	C 	0.0914	0	0.0601	0.631
Mof_C 	C 	0.1243	-7.05764e-34	0.0745	-0.181
Mof_O 	O 	0.9495	0.0282	-0	-1.707
Mof_C 	C 	0.8058	0.3094	-0	0.029
Mof_C 	C 	0.8577	0.2832	-0	0.015
Mof_C 	C 	0.8418	0.3152	-0	-0.05
Mof_C 	C 	0.8854	0.2185	-0	-0.062
Mof_C 	C 	0.9028	0.1864	-0	0.135
Mof_C 	C 	0.9399	0.0914	-0	0.631
Mof_C 	C 	0.9255	0.1243	-0	-0.181
Mof_O 	O 	0.9495	0.9718	-0	-1.707
Mof_C 	C 	0.8058	0.6906	-0	0.029
Mof_C 	C 	0.8577	0.7168	-0	0.015
Mof_C 	C 	0.8418	0.6848	-0	-0.05
Mof_C 	C 	0.8854	0.7815	-0	-0.062
Mof_C 	C 	0.9028	0.8136	-0	0.135
Mof_C 	C 	0.9399	0.9086	-0	0.631
Mof_C 	C 	0.9255	0.8757	-0	-0.181
Mof_O 	O 	0.0505	0.9718	-0	-1.707
Mof_C 	C 	0.1942	0.6906	-0	0.029
Mof_C 	C 	0.1423	0.7168	-0	0.015
Mof_C 	C 	0.1582	0.6848	-0	-0.05
Mof_C 	C 	0.1146	0.7815	-0	-0.062
Mof_C 	C 	0.0972	0.8136	-0	0.135
Mof_C 	C 	0.0601	0.9086	-0	0.631
Mof_C 	C 	0.0745	0.8757	-0	-0.181
Mof_O 	O 	0.0505	0.0282	-0	-1.707
Mof_C 	C 	0.1942	0.3094	-0	0.029
Mof_C 	C 	0.1423	0.2832	-0	0.015
Mof_C 	C 	0.1582	0.3152	-0	-0.05
Mof_C 	C 	0.1146	0.2185	-0	-0.062
Mof_C 	C 	0.0972	0.1864	-0	0.135
Mof_C 	C 	0.0601	0.0914	-0	0.631
Mof_C 	C 	0.0745	0.1243	-0	-0.181
Mof_O 	O 	-4.12885e-33	0.9495	0.0282	-1.707
Mof_C 	C 	-7.3091e-33	0.8058	0.3094	0.029
Mof_C 	C 	-1.76123e-33	0.8577	0.2832	0.015
Mof_C 	C 	6.82792e-33	0.8418	0.3152	-0.05
Mof_C 	C 	-7.64992e-33	0.8854	0.2185	-0.062
Mof_C 	C 	-1.62394e-32	0.9028	0.1864	0.135
Mof_C 	C 	-1.02438e-32	0.9399	0.0914	0.631
Mof_C 	C 	-1.64723e-32	0.9255	0.1243	-0.181
Mof_O 	O 	-7.64856e-33	0.9495	0.9718	-1.707
Mof_C 	C 	-1.99951e-32	0.8058	0.6906	0.029
Mof_C 	C 	-8.60465e-33	0.8577	0.7168	0.015
Mof_C 	C 	1.38598e-32	0.8418	0.6848	-0.05
Mof_C 	C 	-2.71596e-33	0.8854	0.7815	-0.062
Mof_C 	C 	-1.95339e-32	0.9028	0.8136	0.135
Mof_C 	C 	-7.88552e-33	0.9399	0.9086	0.631
Mof_C 	C 	3.28335e-33	0.9255	0.8757	-0.181
Mof_O 	O 	3.64367e-33	0.0505	0.9718	-1.707
Mof_C 	C 	-3.05678e-33	0.1942	0.6906	0.029
Mof_C 	C 	-1.42508e-32	0.1423	0.7168	0.015
Mof_C 	C 	-3.07852e-33	0.1582	0.6848	-0.05
Mof_C 	C 	-2.71596e-33	0.1146	0.7815	-0.062
Mof_C 	C 	-8.24171e-33	0.0972	0.8136	0.135
Mof_C 	C 	-7.88552e-33	0.0601	0.9086	0.631
Mof_C 	C 	3.28335e-33	0.0745	0.8757	-0.181
Mof_O 	O 	1.05733e-34	0.0505	0.0282	-1.707
Mof_C 	C 	1.16006e-33	0.1942	0.3094	0.029
Mof_C 	C 	-1.76123e-33	0.1423	0.2832	0.015
Mof_C 	C 	-1.64124e-33	0.1582	0.3152	-0.05
Mof_C 	C 	-2.00381e-33	0.1146	0.2185	-0.062
Mof_C 	C 	6.98888e-34	0.0972	0.1864	0.135
Mof_C 	C 	3.42695e-34	0.0601	0.0914	0.631
Mof_C 	C 	4.6605e-34	0.0745	0.1243	-0.181
Mof_O 	O 	0.5	0.5282	0.5505	-1.707
Mof_C 	C 	0.5	0.8094	0.6942	0.029
Mof_C 	C 	0.5	0.7832	0.6423	0.015
Mof_C 	C 	0.5	0.8152	0.6582	-0.05
Mof_C 	C 	0.5	0.7185	0.6146	-0.062
Mof_C 	C 	0.5	0.6864	0.5972	0.135
Mof_C 	C 	0.5	0.5914	0.5601	0.631
Mof_C 	C 	0.5	0.6243	0.5745	-0.181
Mof_O 	O 	0.5	0.4718	0.5505	-1.707
Mof_C 	C 	0.5	0.1906	0.6942	0.029
Mof_C 	C 	0.5	0.2168	0.6423	0.015
Mof_C 	C 	0.5	0.1848	0.6582	-0.05
Mof_C 	C 	0.5	0.2815	0.6146	-0.062
Mof_C 	C 	0.5	0.3136	0.5972	0.135
Mof_C 	C 	0.5	0.4086	0.5601	0.631
Mof_C 	C 	0.5	0.3757	0.5745	-0.181
Mof_O 	O 	0.5	0.4718	0.4495	-1.707
Mof_C 	C 	0.5	0.1906	0.3058	0.029
Mof_C 	C 	0.5	0.2168	0.3577	0.015
Mof_C 	C 	0.5	0.1848	0.3418	-0.05
Mof_C 	C 	0.5	0.2815	0.3854	-0.062
Mof_C 	C 	0.5	0.3136	0.4028	0.135
Mof_C 	C 	0.5	0.4086	0.4399	0.631
Mof_C 	C 	0.5	0.3757	0.4255	-0.181
Mof_O 	O 	0.5	0.5282	0.4495	-1.707
Mof_C 	C 	0.5	0.8094	0.3058	0.029
Mof_C 	C 	0.5	0.7832	0.3577	0.015
Mof_C 	C 	0.5	0.8152	0.3418	-0.05
Mof_C 	C 	0.5	0.7185	0.3854	-0.062
Mof_C 	C 	0.5	0.6864	0.4028	0.135
Mof_C 	C 	0.5	0.5914	0.4399	0.631
Mof_C 	C 	0.5	0.6243	0.4255	-0.181
Mof_O 	O 	0.5282	0.4495	0.5	-1.707
Mof_C 	C 	0.8094	0.3058	0.5	0.029
Mof_C 	C 	0.7832	0.3577	0.5	0.015
Mof_C 	C 	0.8152	0.3418	0.5	-0.05
Mof_C 	C 	0.7185	0.3854	0.5	-0.062
Mof_C 	C 	0.6864	0.4028	0.5	0.135
Mof_C 	C 	0.5914	0.4399	0.5	0.631
Mof_C 	C 	0.6243	0.4255	0.5	-0.181
Mof_O 	O 	0.4718	0.4495	0.5	-1.707
Mof_C 	C 	0.1906	0.3058	0.5	0.029
Mof_C 	C 	0.2168	0.3577	0.5	0.015
Mof_C 	C 	0.1848	0.3418	0.5	-0.05
Mof_C 	C 	0.2815	0.3854	0.5	-0.062
Mof_C 	C 	0.3136	0.4028	0.5	0.135
Mof_C 	C 	0.4086	0.4399	0.5	0.631
Mof_C 	C 	0.3757	0.4255	0.5	-0.181
Mof_O 	O 	0.4718	0.5505	0.5	-1.707
Mof_C 	C 	0.1906	0.6942	0.5	0.029
Mof_C 	C 	0.2168	0.6423	0.5	0.015
Mof_C 	C 	0.1848	0.6582	0.5	-0.05
Mof_C 	C 	0.2815	0.6146	0.5	-0.062
Mof_C 	C 	0.3136	0.5972	0.5	0.135
Mof_C 	C 	0.4086	0.5601	0.5	0.631
Mof_C 	C 	0.3757	0.5745	0.5	-0.181
Mof_O 	O 	0.5282	0.5505	0.5	-1.707
Mof_C 	C 	0.8094	0.6942	0.5	0.029
Mof_C 	C 	0.7832	0.6423	0.5	0.015
Mof_C 	C 	0.8152	0.6582	0.5	-0.05
Mof_C 	C 	0.7185	0.6146	0.5	-0.062
Mof_C 	C 	0.6864	0.5972	0.5	0.135
Mof_C 	C 	0.5914	0.5601	0.5	0.631
Mof_C 	C 	0.6243	0.5745	0.5	-0.181
Mof_O 	O 	0.4495	0.5	0.4718	-1.707
Mof_C 	C 	0.3058	0.5	0.1906	0.029
Mof_C 	C 	0.3577	0.5	0.2168	0.015
Mof_C 	C 	0.3418	0.5	0.1848	-0.05
Mof_C 	C 	0.3854	0.5	0.2815	-0.062
Mof_C 	C 	0.4028	0.5	0.3136	0.135
Mof_C 	C 	0.4399	0.5	0.4086	0.631
Mof_C 	C 	0.4255	0.5	0.3757	-0.181
Mof_O 	O 	0.4495	0.5	0.5282	-1.707
Mof_C 	C 	0.3058	0.5	0.8094	0.029
Mof_C 	C 	0.3577	0.5	0.7832	0.015
Mof_C 	C 	0.3418	0.5	0.8152	-0.05
Mof_C 	C 	0.3854	0.5	0.7185	-0.062
Mof_C 	C 	0.4028	0.5	0.6864	0.135
Mof_C 	C 	0.4399	0.5	0.5914	0.631
Mof_C 	C 	0.4255	0.5	0.6243	-0.181
Mof_O 	O 	0.5505	0.5	0.5282	-1.707
Mof_C 	C 	0.6942	0.5	0.8094	0.029
Mof_C 	C 	0.6423	0.5	0.7832	0.015
Mof_C 	C 	0.6582	0.5	0.8152	-0.05
Mof_C 	C 	0.6146	0.5	0.7185	-0.062
Mof_C 	C 	0.5972	0.5	0.6864	0.135
Mof_C 	C 	0.5601	0.5	0.5914	0.631
Mof_C 	C 	0.5745	0.5	0.6243	-0.181
Mof_O 	O 	0.5505	0.5	0.4718	-1.707
Mof_C 	C 	0.6942	0.5	0.1906	0.029
Mof_C 	C 	0.6423	0.5	0.2168	0.015
Mof_C 	C 	0.6582	0.5	0.1848	-0.05
Mof_C 	C 	0.6146	0.5	0.2815	-0.062
Mof_C 	C 	0.5972	0.5	0.3136	0.135
Mof_C 	C 	0.5601	0.5	0.4086	0.631
Mof_C 	C 	0.5745	0.5	0.3757	-0.181
_end
