data_functionalizedCrystal
_audit_creation_method	'EQeq! by Chris Wilmer'
_symmetry_space_group_name_H-M	'P1'
_symmetry_Int_Tables_number	1
_symmetry_cell_setting	triclinic
loop_
_symmetry_equiv_pos_as_xyz
  x,y,z
_cell_length_a	8.8822
_cell_length_b	20.5861
_cell_length_c	33.922
_cell_angle_alpha	90
_cell_angle_beta	90
_cell_angle_gamma	90
loop_
_atom_site_label
_atom_site_type_symbol
_atom_site_fract_x
_atom_site_fract_y
_atom_site_fract_z
_atom_site_charge
Mof_O 	O 	0.7403	0.3337	0.67951	-0.579
Mof_O 	O 	0.5054	0.4575	0.61493	-0.587
Mof_O 	O 	0.5059	0.335	0.65666	-0.597
Mof_C 	C 	0.6063	0.3208	0.68223	0.558
Mof_C 	C 	0.5473	0.2853	0.7176	-0.151
Mof_C 	C 	0.5995	0.2329	0.7791	0.02
Mof_H 	H 	0.6675	0.2212	0.7987	0.026
Mof_C 	C 	0.6498	0.2687	0.7468	-0.007
Mof_H 	H 	0.7501	0.2812	0.7449	0.046
Mof_C 	C 	0.7599	0.5905	0.6254	0.004
Mof_H 	H 	0.8499	0.5675	0.6263	0.037
Mof_O 	O 	0.7403	0.8337	0.17951	-0.578
Mof_O 	O 	0.5054	0.9575	0.11493	-0.586
Mof_O 	O 	0.5059	0.835	0.15666	-0.596
Mof_C 	C 	0.6063	0.8208	0.18223	0.558
Mof_C 	C 	0.5473	0.7853	0.2176	-0.15
Mof_C 	C 	0.5995	0.7329	0.2791	0.02
Mof_H 	H 	0.6675	0.7212	0.2987	0.027
Mof_C 	C 	0.6498	0.7687	0.2468	-0.006
Mof_H 	H 	0.7501	0.7812	0.2449	0.047
Mof_C 	C 	0.7599	0.0905	0.1254	0.004
Mof_H 	H 	0.8499	0.0675	0.1263	0.039
Mof_O 	O 	0.2403	0.3337	0.17951	-0.578
Mof_O 	O 	0.0054	0.4575	0.11493	-0.585
Mof_O 	O 	0.0059	0.335	0.15666	-0.596
Mof_C 	C 	0.1063	0.3208	0.18223	0.56
Mof_C 	C 	0.0473	0.2853	0.2176	-0.153
Mof_C 	C 	0.0995	0.2329	0.2791	0.015
Mof_H 	H 	0.1675	0.2212	0.2987	0.029
Mof_C 	C 	0.1498	0.2687	0.2468	-0.002
Mof_H 	H 	0.2501	0.2812	0.2449	0.046
Mof_C 	C 	0.2599	0.5905	0.1254	0.005
Mof_H 	H 	0.3499	0.5675	0.1263	0.038
Mof_O 	O 	0.2403	0.8337	0.67951	-0.577
Mof_O 	O 	0.0054	0.9575	0.61493	-0.584
Mof_O 	O 	0.0059	0.835	0.65666	-0.594
Mof_C 	C 	0.1063	0.8208	0.68223	0.557
Mof_C 	C 	0.0473	0.7853	0.7176	-0.146
Mof_C 	C 	0.0995	0.7329	0.7791	0.024
Mof_H 	H 	0.1675	0.7212	0.7987	0.026
Mof_C 	C 	0.1498	0.7687	0.7468	-0.009
Mof_H 	H 	0.2501	0.7812	0.7449	0.048
Mof_C 	C 	0.2599	0.0905	0.6254	0.008
Mof_H 	H 	0.3499	0.0675	0.6263	0.037
Mof_O 	O 	0.0097	0.4163	0.67951	-0.578
Mof_O 	O 	0.2446	0.2925	0.61493	-0.586
Mof_O 	O 	0.2441	0.415	0.65666	-0.596
Mof_C 	C 	0.1437	0.4292	0.68223	0.559
Mof_C 	C 	0.2027	0.4647	0.7176	-0.15
Mof_C 	C 	0.1505	0.5171	0.7791	0.021
Mof_H 	H 	0.0825	0.5288	0.7987	0.027
Mof_C 	C 	0.1002	0.4813	0.7468	-0.007
Mof_H 	H 	0.9999	0.4688	0.7449	0.047
Mof_C 	C 	0.9901	0.1595	0.6254	0.004
Mof_H 	H 	0.9001	0.1825	0.6263	0.039
Mof_O 	O 	0.0097	0.9163	0.17951	-0.576
Mof_O 	O 	0.2446	0.7925	0.11493	-0.585
Mof_O 	O 	0.2441	0.915	0.15666	-0.597
Mof_C 	C 	0.1437	0.9292	0.18223	0.561
Mof_C 	C 	0.2027	0.9647	0.2176	-0.157
Mof_C 	C 	0.1505	0.0171	0.2791	0.008
Mof_H 	H 	0.0825	0.0288	0.2987	0.03
Mof_C 	C 	0.1002	0.9813	0.2468	0.009
Mof_H 	H 	0.9999	0.9688	0.2449	0.039
Mof_C 	C 	0.9901	0.6595	0.1254	0.001
Mof_H 	H 	0.9001	0.6825	0.1263	0.039
Mof_O 	O 	0.5097	0.4163	0.17951	-0.578
Mof_O 	O 	0.7446	0.2925	0.11493	-0.586
Mof_O 	O 	0.7441	0.415	0.15666	-0.596
Mof_C 	C 	0.6437	0.4292	0.18223	0.559
Mof_C 	C 	0.7027	0.4647	0.2176	-0.15
Mof_C 	C 	0.6505	0.5171	0.2791	0.02
Mof_H 	H 	0.5825	0.5288	0.2987	0.027
Mof_C 	C 	0.6002	0.4813	0.2468	-0.006
Mof_H 	H 	0.4999	0.4688	0.2449	0.047
Mof_C 	C 	0.4901	0.1595	0.1254	0.005
Mof_H 	H 	0.4001	0.1825	0.1263	0.038
Mof_O 	O 	0.5097	0.9163	0.67951	-0.577
Mof_O 	O 	0.7446	0.7925	0.61493	-0.586
Mof_O 	O 	0.7441	0.915	0.65666	-0.596
Mof_C 	C 	0.6437	0.9292	0.68223	0.556
Mof_C 	C 	0.7027	0.9647	0.7176	-0.143
Mof_C 	C 	0.6505	0.0171	0.7791	0.029
Mof_H 	H 	0.5825	0.0288	0.7987	0.024
Mof_C 	C 	0.6002	0.9813	0.7468	-0.014
Mof_H 	H 	0.4999	0.9688	0.7449	0.05
Mof_C 	C 	0.4901	0.6595	0.6254	0.005
Mof_H 	H 	0.4001	0.6825	0.6263	0.038
Mof_O 	O 	0.0097	0.3337	0.07049	-0.578
Mof_O 	O 	0.2446	0.4575	0.13507	-0.586
Mof_O 	O 	0.2441	0.335	0.09334	-0.597
Mof_C 	C 	0.1437	0.3208	0.06777	0.559
Mof_C 	C 	0.2027	0.2853	0.0324	-0.151
Mof_C 	C 	0.1505	0.2329	0.9709	0.019
Mof_H 	H 	0.0825	0.2212	0.9513	0.027
Mof_C 	C 	0.1002	0.2687	0.0032	-0.005
Mof_H 	H 	0.9999	0.2812	0.0051	0.047
Mof_C 	C 	0.9901	0.5905	0.1246	0.004
Mof_H 	H 	0.9001	0.5675	0.1237	0.038
Mof_O 	O 	0.0097	0.8337	0.57049	-0.576
Mof_O 	O 	0.2446	0.9575	0.63507	-0.586
Mof_O 	O 	0.2441	0.835	0.59334	-0.596
Mof_C 	C 	0.1437	0.8208	0.56777	0.559
Mof_C 	C 	0.2027	0.7853	0.5324	-0.152
Mof_C 	C 	0.1505	0.7329	0.4709	0.018
Mof_H 	H 	0.0825	0.7212	0.4513	0.028
Mof_C 	C 	0.1002	0.7687	0.5032	-0.001
Mof_H 	H 	0.9999	0.7812	0.5051	0.044
Mof_C 	C 	0.9901	0.0905	0.6246	0.009
Mof_H 	H 	0.9001	0.0675	0.6237	0.037
Mof_O 	O 	0.5097	0.3337	0.57049	-0.578
Mof_O 	O 	0.7446	0.4575	0.63507	-0.586
Mof_O 	O 	0.7441	0.335	0.59334	-0.596
Mof_C 	C 	0.6437	0.3208	0.56777	0.558
Mof_C 	C 	0.7027	0.2853	0.5324	-0.148
Mof_C 	C 	0.6505	0.2329	0.4709	0.022
Mof_H 	H 	0.5825	0.2212	0.4513	0.026
Mof_C 	C 	0.6002	0.2687	0.5032	-0.008
Mof_H 	H 	0.4999	0.2812	0.5051	0.047
Mof_C 	C 	0.4901	0.5905	0.6246	0.005
Mof_H 	H 	0.4001	0.5675	0.6237	0.038
Mof_O 	O 	0.5097	0.8337	0.07049	-0.578
Mof_O 	O 	0.7446	0.9575	0.13507	-0.586
Mof_O 	O 	0.7441	0.835	0.09334	-0.596
Mof_C 	C 	0.6437	0.8208	0.06777	0.558
Mof_C 	C 	0.7027	0.7853	0.0324	-0.149
Mof_C 	C 	0.6505	0.7329	0.9709	0.021
Mof_H 	H 	0.5825	0.7212	0.9513	0.027
Mof_C 	C 	0.6002	0.7687	0.0032	-0.007
Mof_H 	H 	0.4999	0.7812	0.0051	0.047
Mof_C 	C 	0.4901	0.0905	0.1246	0.004
Mof_H 	H 	0.4001	0.0675	0.1237	0.038
Mof_O 	O 	0.7403	0.4163	0.07049	-0.578
Mof_O 	O 	0.5054	0.2925	0.13507	-0.586
Mof_O 	O 	0.5059	0.415	0.09334	-0.596
Mof_C 	C 	0.6063	0.4292	0.06777	0.559
Mof_C 	C 	0.5473	0.4647	0.0324	-0.15
Mof_C 	C 	0.5995	0.5171	0.9709	0.021
Mof_H 	H 	0.6675	0.5288	0.9513	0.027
Mof_C 	C 	0.6498	0.4813	0.0032	-0.006
Mof_H 	H 	0.7501	0.4688	0.0051	0.047
Mof_C 	C 	0.7599	0.1595	0.1246	0.006
Mof_H 	H 	0.8499	0.1825	0.1237	0.038
Mof_O 	O 	0.7403	0.9163	0.57049	-0.578
Mof_O 	O 	0.5054	0.7925	0.63507	-0.586
Mof_O 	O 	0.5059	0.915	0.59334	-0.596
Mof_C 	C 	0.6063	0.9292	0.56777	0.558
Mof_C 	C 	0.5473	0.9647	0.5324	-0.15
Mof_C 	C 	0.5995	0.0171	0.4709	0.022
Mof_H 	H 	0.6675	0.0288	0.4513	0.027
Mof_C 	C 	0.6498	0.9813	0.5032	-0.007
Mof_H 	H 	0.7501	0.9688	0.5051	0.047
Mof_C 	C 	0.7599	0.6595	0.6246	0.005
Mof_H 	H 	0.8499	0.6825	0.6237	0.038
Mof_O 	O 	0.2403	0.4163	0.57049	-0.578
Mof_O 	O 	0.0054	0.2925	0.63507	-0.586
Mof_O 	O 	0.0059	0.415	0.59334	-0.596
Mof_C 	C 	0.1063	0.4292	0.56777	0.559
Mof_C 	C 	0.0473	0.4647	0.5324	-0.15
Mof_C 	C 	0.0995	0.5171	0.4709	0.02
Mof_H 	H 	0.1675	0.5288	0.4513	0.027
Mof_C 	C 	0.1498	0.4813	0.5032	-0.006
Mof_H 	H 	0.2501	0.4688	0.5051	0.047
Mof_C 	C 	0.2599	0.1595	0.6246	0.003
Mof_H 	H 	0.3499	0.1825	0.6237	0.039
Mof_O 	O 	0.2403	0.9163	0.07049	-0.577
Mof_O 	O 	0.0054	0.7925	0.13507	-0.583
Mof_O 	O 	0.0059	0.915	0.09334	-0.593
Mof_C 	C 	0.1063	0.9292	0.06777	0.557
Mof_C 	C 	0.0473	0.9647	0.0324	-0.145
Mof_C 	C 	0.0995	0.0171	0.9709	0.012
Mof_H 	H 	0.1675	0.0288	0.9513	0.029
Mof_C 	C 	0.1498	0.9813	0.0032	-0.002
Mof_H 	H 	0.2501	0.9688	0.0051	0.046
Mof_C 	C 	0.2599	0.6595	0.1246	0.004
Mof_H 	H 	0.3499	0.6825	0.1237	0.039
Mof_O 	O 	0.2597	0.6663	0.32049	-0.578
Mof_O 	O 	0.4946	0.5425	0.38507	-0.586
Mof_O 	O 	0.4941	0.665	0.34334	-0.596
Mof_C 	C 	0.3937	0.6792	0.31777	0.559
Mof_C 	C 	0.4527	0.7147	0.2824	-0.15
Mof_C 	C 	0.4005	0.7671	0.2209	0.021
Mof_H 	H 	0.3325	0.7788	0.2013	0.027
Mof_C 	C 	0.3502	0.7313	0.2532	-0.006
Mof_H 	H 	0.2499	0.7188	0.2551	0.047
Mof_C 	C 	0.2401	0.4095	0.3746	0.005
Mof_H 	H 	0.1501	0.4325	0.3737	0.038
Mof_O 	O 	0.2597	0.1663	0.82049	-0.577
Mof_O 	O 	0.4946	0.0425	0.88507	-0.586
Mof_O 	O 	0.4941	0.165	0.84334	-0.596
Mof_C 	C 	0.3937	0.1792	0.81777	0.558
Mof_C 	C 	0.4527	0.2147	0.7824	-0.15
Mof_C 	C 	0.4005	0.2671	0.7209	0.02
Mof_H 	H 	0.3325	0.2788	0.7013	0.027
Mof_C 	C 	0.3502	0.2313	0.7532	-0.006
Mof_H 	H 	0.2499	0.2188	0.7551	0.047
Mof_C 	C 	0.2401	0.9095	0.8746	0.004
Mof_H 	H 	0.1501	0.9325	0.8737	0.039
Mof_O 	O 	0.7597	0.6663	0.82049	-0.578
Mof_O 	O 	0.9946	0.5425	0.88507	-0.585
Mof_O 	O 	0.9941	0.665	0.84334	-0.596
Mof_C 	C 	0.8937	0.6792	0.81777	0.56
Mof_C 	C 	0.9527	0.7147	0.7824	-0.153
Mof_C 	C 	0.9005	0.7671	0.7209	0.015
Mof_H 	H 	0.8325	0.7788	0.7013	0.029
Mof_C 	C 	0.8502	0.7313	0.7532	-0.002
Mof_H 	H 	0.7499	0.7188	0.7551	0.046
Mof_C 	C 	0.7401	0.4095	0.8746	0.005
Mof_H 	H 	0.6501	0.4325	0.8737	0.038
Mof_O 	O 	0.7597	0.1663	0.32049	-0.577
Mof_O 	O 	0.9946	0.0425	0.38507	-0.584
Mof_O 	O 	0.9941	0.165	0.34334	-0.594
Mof_C 	C 	0.8937	0.1792	0.31777	0.557
Mof_C 	C 	0.9527	0.2147	0.2824	-0.146
Mof_C 	C 	0.9005	0.2671	0.2209	0.024
Mof_H 	H 	0.8325	0.2788	0.2013	0.026
Mof_C 	C 	0.8502	0.2313	0.2532	-0.009
Mof_H 	H 	0.7499	0.2188	0.2551	0.048
Mof_C 	C 	0.7401	0.9095	0.3746	0.008
Mof_H 	H 	0.6501	0.9325	0.3737	0.037
Mof_O 	O 	0.9903	0.5837	0.32049	-0.578
Mof_O 	O 	0.7554	0.7075	0.38507	-0.586
Mof_O 	O 	0.7559	0.585	0.34334	-0.596
Mof_C 	C 	0.8563	0.5708	0.31777	0.559
Mof_C 	C 	0.7973	0.5353	0.2824	-0.15
Mof_C 	C 	0.8495	0.4829	0.2209	0.021
Mof_H 	H 	0.9175	0.4712	0.2013	0.027
Mof_C 	C 	0.8998	0.5187	0.2532	-0.007
Mof_H 	H 	0.0001	0.5312	0.2551	0.047
Mof_C 	C 	0.0099	0.8405	0.3746	0.004
Mof_H 	H 	0.0999	0.8175	0.3737	0.039
Mof_O 	O 	0.9903	0.0837	0.82049	-0.576
Mof_O 	O 	0.7554	0.2075	0.88507	-0.585
Mof_O 	O 	0.7559	0.085	0.84334	-0.597
Mof_C 	C 	0.8563	0.0708	0.81777	0.561
Mof_C 	C 	0.7973	0.0353	0.7824	-0.157
Mof_C 	C 	0.8495	0.9829	0.7209	0.008
Mof_H 	H 	0.9175	0.9712	0.7013	0.03
Mof_C 	C 	0.8998	0.0187	0.7532	0.009
Mof_H 	H 	0.0001	0.0312	0.7551	0.039
Mof_C 	C 	0.0099	0.3405	0.8746	0.001
Mof_H 	H 	0.0999	0.3175	0.8737	0.039
Mof_O 	O 	0.4903	0.5837	0.82049	-0.578
Mof_O 	O 	0.2554	0.7075	0.88507	-0.586
Mof_O 	O 	0.2559	0.585	0.84334	-0.596
Mof_C 	C 	0.3563	0.5708	0.81777	0.559
Mof_C 	C 	0.2973	0.5353	0.7824	-0.15
Mof_C 	C 	0.3495	0.4829	0.7209	0.02
Mof_H 	H 	0.4175	0.4712	0.7013	0.027
Mof_C 	C 	0.3998	0.5187	0.7532	-0.006
Mof_H 	H 	0.5001	0.5312	0.7551	0.047
Mof_C 	C 	0.5099	0.8405	0.8746	0.005
Mof_H 	H 	0.5999	0.8175	0.8737	0.038
Mof_O 	O 	0.4903	0.0837	0.32049	-0.577
Mof_O 	O 	0.2554	0.2075	0.38507	-0.586
Mof_O 	O 	0.2559	0.085	0.34334	-0.596
Mof_C 	C 	0.3563	0.0708	0.31777	0.556
Mof_C 	C 	0.2973	0.0353	0.2824	-0.143
Mof_C 	C 	0.3495	0.9829	0.2209	0.029
Mof_H 	H 	0.4175	0.9712	0.2013	0.024
Mof_C 	C 	0.3998	0.0187	0.2532	-0.014
Mof_H 	H 	0.5001	0.0312	0.2551	0.05
Mof_C 	C 	0.5099	0.3405	0.3746	0.005
Mof_H 	H 	0.5999	0.3175	0.3737	0.038
Mof_O 	O 	0.9903	0.6663	0.92951	-0.578
Mof_O 	O 	0.7554	0.5425	0.86493	-0.586
Mof_O 	O 	0.7559	0.665	0.90666	-0.597
Mof_C 	C 	0.8563	0.6792	0.93223	0.559
Mof_C 	C 	0.7973	0.7147	0.9676	-0.151
Mof_C 	C 	0.8495	0.7671	0.0291	0.019
Mof_H 	H 	0.9175	0.7788	0.0487	0.027
Mof_C 	C 	0.8998	0.7313	0.9968	-0.005
Mof_H 	H 	0.0001	0.7188	0.9949	0.047
Mof_C 	C 	0.0099	0.4095	0.8754	0.004
Mof_H 	H 	0.0999	0.4325	0.8763	0.038
Mof_O 	O 	0.9903	0.1663	0.42951	-0.576
Mof_O 	O 	0.7554	0.0425	0.36493	-0.586
Mof_O 	O 	0.7559	0.165	0.40666	-0.596
Mof_C 	C 	0.8563	0.1792	0.43223	0.559
Mof_C 	C 	0.7973	0.2147	0.4676	-0.152
Mof_C 	C 	0.8495	0.2671	0.5291	0.018
Mof_H 	H 	0.9175	0.2788	0.5487	0.028
Mof_C 	C 	0.8998	0.2313	0.4968	-0.001
Mof_H 	H 	0.0001	0.2188	0.4949	0.044
Mof_C 	C 	0.0099	0.9095	0.3754	0.009
Mof_H 	H 	0.0999	0.9325	0.3763	0.037
Mof_O 	O 	0.4903	0.6663	0.42951	-0.578
Mof_O 	O 	0.2554	0.5425	0.36493	-0.586
Mof_O 	O 	0.2559	0.665	0.40666	-0.596
Mof_C 	C 	0.3563	0.6792	0.43223	0.558
Mof_C 	C 	0.2973	0.7147	0.4676	-0.148
Mof_C 	C 	0.3495	0.7671	0.5291	0.022
Mof_H 	H 	0.4175	0.7788	0.5487	0.026
Mof_C 	C 	0.3998	0.7313	0.4968	-0.008
Mof_H 	H 	0.5001	0.7188	0.4949	0.047
Mof_C 	C 	0.5099	0.4095	0.3754	0.005
Mof_H 	H 	0.5999	0.4325	0.3763	0.038
Mof_O 	O 	0.4903	0.1663	0.92951	-0.578
Mof_O 	O 	0.2554	0.0425	0.86493	-0.586
Mof_O 	O 	0.2559	0.165	0.90666	-0.596
Mof_C 	C 	0.3563	0.1792	0.93223	0.558
Mof_C 	C 	0.2973	0.2147	0.9676	-0.149
Mof_C 	C 	0.3495	0.2671	0.0291	0.021
Mof_H 	H 	0.4175	0.2788	0.0487	0.027
Mof_C 	C 	0.3998	0.2313	0.9968	-0.007
Mof_H 	H 	0.5001	0.2188	0.9949	0.047
Mof_C 	C 	0.5099	0.9095	0.8754	0.004
Mof_H 	H 	0.5999	0.9325	0.8763	0.038
Mof_O 	O 	0.2597	0.5837	0.92951	-0.578
Mof_O 	O 	0.4946	0.7075	0.86493	-0.586
Mof_O 	O 	0.4941	0.585	0.90666	-0.596
Mof_C 	C 	0.3937	0.5708	0.93223	0.559
Mof_C 	C 	0.4527	0.5353	0.9676	-0.15
Mof_C 	C 	0.4005	0.4829	0.0291	0.021
Mof_H 	H 	0.3325	0.4712	0.0487	0.027
Mof_C 	C 	0.3502	0.5187	0.9968	-0.006
Mof_H 	H 	0.2499	0.5312	0.9949	0.047
Mof_C 	C 	0.2401	0.8405	0.8754	0.006
Mof_H 	H 	0.1501	0.8175	0.8763	0.038
Mof_O 	O 	0.2597	0.0837	0.42951	-0.578
Mof_O 	O 	0.4946	0.2075	0.36493	-0.586
Mof_O 	O 	0.4941	0.085	0.40666	-0.596
Mof_C 	C 	0.3937	0.0708	0.43223	0.558
Mof_C 	C 	0.4527	0.0353	0.4676	-0.15
Mof_C 	C 	0.4005	0.9829	0.5291	0.022
Mof_H 	H 	0.3325	0.9712	0.5487	0.027
Mof_C 	C 	0.3502	0.0187	0.4968	-0.007
Mof_H 	H 	0.2499	0.0312	0.4949	0.047
Mof_C 	C 	0.2401	0.3405	0.3754	0.005
Mof_H 	H 	0.1501	0.3175	0.3763	0.038
Mof_O 	O 	0.7597	0.5837	0.42951	-0.578
Mof_O 	O 	0.9946	0.7075	0.36493	-0.586
Mof_O 	O 	0.9941	0.585	0.40666	-0.596
Mof_C 	C 	0.8937	0.5708	0.43223	0.559
Mof_C 	C 	0.9527	0.5353	0.4676	-0.15
Mof_C 	C 	0.9005	0.4829	0.5291	0.02
Mof_H 	H 	0.8325	0.4712	0.5487	0.027
Mof_C 	C 	0.8502	0.5187	0.4968	-0.006
Mof_H 	H 	0.7499	0.5312	0.4949	0.047
Mof_C 	C 	0.7401	0.8405	0.3754	0.003
Mof_H 	H 	0.6501	0.8175	0.3763	0.039
Mof_O 	O 	0.7597	0.0837	0.92951	-0.577
Mof_O 	O 	0.9946	0.2075	0.86493	-0.583
Mof_O 	O 	0.9941	0.085	0.90666	-0.593
Mof_C 	C 	0.8937	0.0708	0.93223	0.557
Mof_C 	C 	0.9527	0.0353	0.9676	-0.145
Mof_C 	C 	0.9005	0.9829	0.0291	0.012
Mof_H 	H 	0.8325	0.9712	0.0487	0.029
Mof_C 	C 	0.8502	0.0187	0.9968	-0.002
Mof_H 	H 	0.7499	0.0312	0.9949	0.046
Mof_C 	C 	0.7401	0.3405	0.8754	0.004
Mof_H 	H 	0.6501	0.3175	0.8763	0.039
Mof_Sc	Sc	0.375	0.375	0.61408	2.029
Mof_Sc	Sc	0.375	0.875	0.11408	2.03
Mof_Sc	Sc	0.875	0.375	0.11408	2.028
Mof_Sc	Sc	0.875	0.875	0.61408	2.023
Mof_Sc	Sc	0.375	0.375	0.13592	2.03
Mof_Sc	Sc	0.375	0.875	0.63592	2.029
Mof_Sc	Sc	0.875	0.375	0.63592	2.029
Mof_Sc	Sc	0.875	0.875	0.13592	2.022
Mof_Sc	Sc	0.625	0.625	0.38592	2.029
Mof_Sc	Sc	0.625	0.125	0.88592	2.03
Mof_Sc	Sc	0.125	0.625	0.88592	2.028
Mof_Sc	Sc	0.125	0.125	0.38592	2.023
Mof_Sc	Sc	0.625	0.625	0.86408	2.03
Mof_Sc	Sc	0.625	0.125	0.36408	2.029
Mof_Sc	Sc	0.125	0.625	0.36408	2.029
Mof_Sc	Sc	0.125	0.125	0.86408	2.022
Mof_C 	C 	0.625	0.5587	0.625	-0.143
Mof_C 	C 	0.625	0.4851	0.625	0.554
Mof_C 	C 	0.625	0.0587	0.125	-0.141
Mof_C 	C 	0.625	0.9851	0.125	0.553
Mof_C 	C 	0.125	0.1913	0.625	-0.142
Mof_C 	C 	0.125	0.2649	0.625	0.554
Mof_C 	C 	0.125	0.6913	0.125	-0.139
Mof_C 	C 	0.125	0.7649	0.125	0.552
Mof_C 	C 	0.625	0.6913	0.625	-0.143
Mof_C 	C 	0.625	0.7649	0.625	0.553
Mof_C 	C 	0.125	0.5587	0.125	-0.141
Mof_C 	C 	0.125	0.4851	0.125	0.553
Mof_C 	C 	0.125	0.0587	0.625	-0.147
Mof_C 	C 	0.125	0.9851	0.625	0.556
Mof_C 	C 	0.625	0.1913	0.125	-0.143
Mof_C 	C 	0.625	0.2649	0.125	0.554
Mof_C 	C 	0.375	0.4413	0.375	-0.143
Mof_C 	C 	0.375	0.5149	0.375	0.554
Mof_C 	C 	0.375	0.9413	0.875	-0.141
Mof_C 	C 	0.375	0.0149	0.875	0.553
Mof_C 	C 	0.875	0.8087	0.375	-0.142
Mof_C 	C 	0.875	0.7351	0.375	0.554
Mof_C 	C 	0.875	0.3087	0.875	-0.139
Mof_C 	C 	0.875	0.2351	0.875	0.552
Mof_C 	C 	0.875	0.4413	0.875	-0.141
Mof_C 	C 	0.875	0.5149	0.875	0.553
Mof_C 	C 	0.875	0.9413	0.375	-0.147
Mof_C 	C 	0.875	0.0149	0.375	0.556
Mof_C 	C 	0.375	0.8087	0.875	-0.143
Mof_C 	C 	0.375	0.7351	0.875	0.554
Mof_C 	C 	0.375	0.3087	0.375	-0.143
Mof_C 	C 	0.375	0.2351	0.375	0.553
_end
