data_functionalizedCrystal
_audit_creation_method	'EQeq! by Chris Wilmer'
_symmetry_space_group_name_H-M	'P1'
_symmetry_Int_Tables_number	1
_symmetry_cell_setting	triclinic
loop_
_symmetry_equiv_pos_as_xyz
  x,y,z
_cell_length_a	7.0303
_cell_length_b	12.5619
_cell_length_c	15.6408
_cell_angle_alpha	90
_cell_angle_beta	90
_cell_angle_gamma	100.918
loop_
_atom_site_label
_atom_site_type_symbol
_atom_site_fract_x
_atom_site_fract_y
_atom_site_fract_z
_atom_site_charge
Mof_Cu	Cu	0.5	9.30605e-33	0.5	0.863
Mof_Cu	Cu	2.09554e-17	0.5	-0	0.845
Mof_Cu	Cu	-1.86121e-32	9.30605e-33	0.5	0.855
Mof_Cu	Cu	0.5	0.5	-0	0.862
Mof_P 	P 	0.74084	0.21636	0.4138	0.477
Mof_P 	P 	0.26071	0.26823	0.07414	0.507
Mof_P 	P 	0.75916	0.28364	0.9138	0.488
Mof_P 	P 	0.23929	0.23177	0.57414	0.514
Mof_P 	P 	0.25916	0.78364	0.5862	0.506
Mof_P 	P 	0.73929	0.73177	0.92586	0.495
Mof_P 	P 	0.24084	0.71636	0.0862	0.492
Mof_P 	P 	0.76071	0.76823	0.42586	0.491
Mof_H 	H 	0.8105	0.2024	0.2324	0.088
Mof_H 	H 	0.6322	0.221	0.11	0.032
Mof_H 	H 	0.1886	0.2769	0.2551	0.066
Mof_H 	H 	0.3662	0.2565	0.3774	0.051
Mof_H 	H 	0.6416	0.9459	0.3249	0.207
Mof_H 	H 	0.5778	0.9524	0.2345	0.211
Mof_H 	H 	0.041	0.269	0.411	0.372
Mof_H 	H 	0.988	0.228	0.069	0.594
Mof_H 	H 	0.6895	0.2976	0.7324	0.113
Mof_H 	H 	0.8678	0.279	0.61	0.033
Mof_H 	H 	0.3114	0.2231	0.7551	0.048
Mof_H 	H 	0.1338	0.2435	0.8774	0.095
Mof_H 	H 	0.8584	0.5541	0.8249	0.183
Mof_H 	H 	0.9222	0.5476	0.7345	0.196
Mof_H 	H 	0.459	0.231	0.911	0.46
Mof_H 	H 	0.512	0.272	0.569	0.565
Mof_H 	H 	0.1895	0.7976	0.7676	0.077
Mof_H 	H 	0.3678	0.779	0.89	0.096
Mof_H 	H 	0.8114	0.7231	0.7449	0.09
Mof_H 	H 	0.6338	0.7435	0.6226	0.044
Mof_H 	H 	0.3584	0.0541	0.6751	0.156
Mof_H 	H 	0.4222	0.0476	0.7655	0.175
Mof_H 	H 	0.959	0.731	0.589	0.486
Mof_H 	H 	0.012	0.772	0.931	0.522
Mof_H 	H 	0.3105	0.7024	0.2676	0.057
Mof_H 	H 	0.1322	0.721	0.39	0.092
Mof_H 	H 	0.6886	0.7769	0.2449	0.105
Mof_H 	H 	0.8662	0.7565	0.1226	0.003
Mof_H 	H 	0.1416	0.4459	0.1751	0.181
Mof_H 	H 	0.0778	0.4524	0.2655	0.19
Mof_H 	H 	0.541	0.769	0.089	0.397
Mof_H 	H 	0.488	0.728	0.431	0.562
Mof_C 	C 	0.607	0.2282	0.3172	-0.044
Mof_C 	C 	0.6863	0.2173	0.2371	-0.048
Mof_C 	C 	0.5793	0.2287	0.1636	-0.013
Mof_C 	C 	0.3927	0.2517	0.1705	-0.061
Mof_C 	C 	0.3129	0.262	0.2504	-0.017
Mof_C 	C 	0.4199	0.25	0.3237	-0.035
Mof_C 	C 	0.1015	0.0059	0.3132	0.001
Mof_C 	C 	0.3946	0.9775	0.3141	0.285
Mof_C 	C 	0.893	0.2718	0.8172	0.043
Mof_C 	C 	0.8137	0.2827	0.7371	-0.102
Mof_C 	C 	0.9207	0.2713	0.6636	0.08
Mof_C 	C 	0.1073	0.2483	0.6705	-0.13
Mof_C 	C 	0.1871	0.238	0.7504	0.05
Mof_C 	C 	0.0801	0.25	0.8237	-0.135
Mof_C 	C 	0.3985	0.4941	0.8132	0.117
Mof_C 	C 	0.1054	0.5225	0.8141	0.224
Mof_C 	C 	0.393	0.7718	0.6828	-0.049
Mof_C 	C 	0.3137	0.7827	0.7629	0.007
Mof_C 	C 	0.4207	0.7713	0.8364	-0.04
Mof_C 	C 	0.6073	0.7483	0.8295	-0.01
Mof_C 	C 	0.6871	0.738	0.7496	-0.041
Mof_C 	C 	0.5801	0.75	0.6763	0.004
Mof_C 	C 	0.8985	0.9941	0.6868	0.231
Mof_C 	C 	0.6054	0.0225	0.6859	0.229
Mof_C 	C 	0.107	0.7282	0.1828	-0.123
Mof_C 	C 	0.1863	0.7173	0.2629	0.051
Mof_C 	C 	0.0793	0.7287	0.3364	-0.12
Mof_C 	C 	0.8927	0.7517	0.3295	0.049
Mof_C 	C 	0.8129	0.762	0.2496	-0.099
Mof_C 	C 	0.9199	0.75	0.1763	0.089
Mof_C 	C 	0.6015	0.5059	0.1868	0.115
Mof_C 	C 	0.8946	0.4775	0.1859	0.287
Mof_N 	N 	0.1535	0.0021	0.3937	-0.226
Mof_N 	N 	0.3435	0.9856	0.3943	-0.175
Mof_N 	N 	0.2485	0.9902	0.2607	-0.089
Mof_N 	N 	0.5554	0.9563	0.2884	-0.371
Mof_N 	N 	0.3465	0.4979	0.8937	-0.17
Mof_N 	N 	0.1565	0.5144	0.8943	-0.199
Mof_N 	N 	0.2515	0.5098	0.7607	-0.142
Mof_N 	N 	0.9446	0.5437	0.7884	-0.34
Mof_N 	N 	0.8465	0.9979	0.6063	-0.149
Mof_N 	N 	0.6565	0.0144	0.6057	-0.26
Mof_N 	N 	0.7515	0.0098	0.7393	-0.195
Mof_N 	N 	0.4446	0.0437	0.7116	-0.354
Mof_N 	N 	0.6535	0.5021	0.1063	-0.207
Mof_N 	N 	0.8435	0.4856	0.1057	-0.233
Mof_N 	N 	0.7485	0.4902	0.2393	-0.144
Mof_N 	N 	0.0554	0.4563	0.2116	-0.382
Mof_O 	O 	0.9549	0.2515	0.38471	-0.544
Mof_O 	O 	0.6859	0.2932	0.47951	-0.28
Mof_O 	O 	0.7114	0.0987	0.44283	-0.444
Mof_O 	O 	0.294	0.3864	0.04676	-0.462
Mof_O 	O 	0.3131	0.1918	0.00697	-0.361
Mof_O 	O 	0.0465	0.2338	0.1032	-0.855
Mof_O 	O 	0.5451	0.2485	0.88471	-0.623
Mof_O 	O 	0.8141	0.2068	0.97951	-0.233
Mof_O 	O 	0.7886	0.4013	0.94283	-0.366
Mof_O 	O 	0.206	0.1136	0.54676	-0.458
Mof_O 	O 	0.1869	0.3082	0.50697	-0.284
Mof_O 	O 	0.4535	0.2662	0.6032	-0.775
Mof_O 	O 	0.0451	0.7485	0.61529	-0.684
Mof_O 	O 	0.3141	0.7068	0.52049	-0.294
Mof_O 	O 	0.2886	0.9013	0.55717	-0.386
Mof_O 	O 	0.706	0.6136	0.95324	-0.371
Mof_O 	O 	0.6869	0.8082	0.99303	-0.191
Mof_O 	O 	0.9535	0.7662	0.8968	-0.677
Mof_O 	O 	0.4549	0.7515	0.11529	-0.605
Mof_O 	O 	0.1859	0.7932	0.02049	-0.336
Mof_O 	O 	0.2114	0.5987	0.05717	-0.457
Mof_O 	O 	0.794	0.8864	0.45324	-0.377
Mof_O 	O 	0.8131	0.6918	0.49303	-0.269
Mof_O 	O 	0.5465	0.7338	0.3968	-0.769
_end
