# CIF file generated by openbabel 3.1.0, see https://openbabel.org
data_I
_chemical_name_common 'image0'
_cell_length_a 15.5285
_cell_length_b 15.7542
_cell_length_c 15.8691
_cell_angle_alpha 107.604
_cell_angle_beta 109.573
_cell_angle_gamma 109.808
_space_group_name_H-M_alt 'P 1'
_space_group_name_Hall 'P 1'
loop_
    _symmetry_equiv_pos_as_xyz
    x,y,z
loop_
    _atom_site_label
    _atom_site_type_symbol
    _atom_site_fract_x
    _atom_site_fract_y
    _atom_site_fract_z
    _atom_site_occupancy
    Zn1      Zn       0.04769    0.30589    0.92891    1.000
    Zn2      Zn       0.40677    0.25939    0.88314    1.000
    O1       O        0.53810    0.32480    0.00930    1.000
    C1       C        0.31160    0.59180    0.30250    1.000
    H1       H        0.32410    0.64100    0.28060    1.000
    O2       O        0.92480    0.17210    0.85970    1.000
    O3       O        0.02600    0.12990    0.95330    1.000
    O4       O        0.19130    0.52430    0.09490    1.000
    C2       C        0.37610    0.61790    0.40130    1.000
    H2       H        0.43100    0.68450    0.44470    1.000
    C3       C        0.22900    0.49410    0.23590    1.000
    N1       N        0.99420    0.36640    0.83770    1.000
    C4       C        0.07460    0.79530    0.58310    1.000
    H3       H        0.01150    0.75920    0.52280    1.000
    O5       O        0.43390    0.22970    0.04780    1.000
    C5       C        0.21280    0.42370    0.27220    1.000
    H4       H        0.15710    0.35750    0.22880    1.000
    C6       C        0.86270    0.92950    0.86250    1.000
    H5       H        0.92730    0.94590    0.91210    1.000
    C7       C        0.27510    0.44790    0.36860    1.000
    H6       H        0.26130    0.39860    0.39010    1.000
    N2       N        0.45710    0.34320    0.81530    1.000
    C8       C        0.95500    0.49880    0.63840    1.000
    C9       C        0.70060    0.43780    0.21370    1.000
    H7       H        0.70660    0.46790    0.17230    1.000
    C10      C        0.13340    0.88950    0.61150    1.000
    H8       H        0.11070    0.92060    0.57440    1.000
    C11      C        0.77910    0.48350    0.31050    1.000
    H9       H        0.83770    0.54520    0.33420    1.000
    N3       N        0.93660    0.58790    0.51180    1.000
    C12      C        0.77510    0.44180    0.37460    1.000
    N4       N        0.23440    0.22310    0.98290    1.000
    H10      H        0.28250    0.20670    0.00090    1.000
    H11      H        0.18560    0.20590    0.99880    1.000
    N5       N        0.52100    0.66910    0.59220    1.000
    C13      C        0.77900    0.83250    0.81490    1.000
    H12      H        0.78750    0.78490    0.83490    1.000
    O6       O        0.09200    0.37290    0.07130    1.000
    C14      C        0.61030    0.34520    0.17590    1.000
    C15      C        0.36090    0.54710    0.43680    1.000
    C16      C        0.09870    0.74300    0.63630    1.000
    C17      C        0.48670    0.47060    0.72610    1.000
    C18      C        0.68290    0.80360    0.73840    1.000
    C19      C        0.58460    0.63560    0.73040    1.000
    H13      H        0.63570    0.65900    0.79600    1.000
    N6       N        0.20510    0.37160    0.86680    1.000
    C20      C        0.19770    0.79330    0.71850    1.000
    H14      H        0.22000    0.76020    0.75330    1.000
    C21      C        0.49900    0.53810    0.67800    1.000
    N7       N        0.28530    0.36770    0.86250    1.000
    C22      C        0.60430    0.30300    0.23970    1.000
    H15      H        0.54490    0.24210    0.21640    1.000
    C23      C        0.68510    0.34960    0.33770    1.000
    H16      H        0.67970    0.31970    0.37940    1.000
    C24      C        0.59380    0.69830    0.68470    1.000
    C25      C        0.75320    0.97420    0.75950    1.000
    H17      H        0.74400    0.02170    0.73970    1.000
    C26      C        0.96600    0.45210    0.70790    1.000
    C27      C        0.86390    0.49430    0.48060    1.000
    C28      C        0.53660    0.50790    0.82960    1.000
    H18      H        0.58180    0.57760    0.87190    1.000
    C29      C        0.67240    0.87940    0.71330    1.000
    H19      H        0.60800    0.86330    0.66360    1.000
    C30      C        0.23520    0.94750    0.70160    1.000
    C31      C        0.16720    0.46280    0.12500    1.000
    C32      C        0.86920    0.44630    0.54210    1.000
    H20      H        0.81650    0.38080    0.51880    1.000
    C33      C        0.85030    0.00360    0.83590    1.000
    C34      C        0.42370    0.36520    0.66870    1.000
    H21      H        0.39000    0.33550    0.59840    1.000
    C35      C        0.93260    0.34920    0.67220    1.000
    H22      H        0.89950    0.30620    0.60300    1.000
    C36      C        0.43670    0.57430    0.53990    1.000
    C37      C        0.51960    0.44220    0.87060    1.000
    H23      H        0.55400    0.46930    0.94070    1.000
    N8       N        0.30560    0.30530    0.90190    1.000
    C38      C        0.01190    0.50800    0.80990    1.000
    H24      H        0.03470    0.57780    0.83770    1.000
    C39      C        0.02570    0.46570    0.87250    1.000
    H25      H        0.05810    0.50730    0.94200    1.000
    C40      C        0.02920    0.59500    0.67010    1.000
    H26      H        0.08610    0.63180    0.73530    1.000
    C41      C        0.52150    0.29650    0.07200    1.000
    C42      C        0.42430    0.50810    0.58090    1.000
    H27      H        0.36580    0.44330    0.54350    1.000
    C43      C        0.94150    0.10790    0.88700    1.000
    C44      C        0.02070    0.63900    0.60570    1.000
    N9       N        0.17070    0.31360    0.90920    1.000
    C45      C        0.26520    0.89770    0.74900    1.000
    H28      H        0.33240    0.93190    0.80390    1.000
    C46      C        0.94850    0.31090    0.73890    1.000
    H29      H        0.92570    0.24120    0.71300    1.000
    C47      C        0.41110    0.30570    0.71430    1.000
    H30      H        0.36850    0.23540    0.67380    1.000
    C48      C        0.23520    0.27520    0.93020    1.000
    O7       O        0.37860    0.10530    0.81710    1.000
    C49      C        0.29140    0.05120    0.73290    1.000
    O8       O        0.26030    0.09890    0.68730    1.000
    Zn3      Zn       0.95231    0.69411    0.07109    1.000
    Zn4      Zn       0.59323    0.74061    0.11686    1.000
    O9       O        0.46190    0.67520    0.99070    1.000
    C50      C        0.68840    0.40820    0.69750    1.000
    H31      H        0.67590    0.35900    0.71940    1.000
    O10      O        0.07520    0.82790    0.14030    1.000
    O11      O        0.97400    0.87010    0.04670    1.000
    O12      O        0.80870    0.47570    0.90510    1.000
    C51      C        0.62390    0.38210    0.59870    1.000
    H32      H        0.56900    0.31550    0.55530    1.000
    C52      C        0.77100    0.50590    0.76410    1.000
    N10      N        0.00580    0.63360    0.16230    1.000
    C53      C        0.92540    0.20470    0.41690    1.000
    H33      H        0.98850    0.24080    0.47720    1.000
    O13      O        0.56610    0.77030    0.95220    1.000
    C54      C        0.78720    0.57630    0.72780    1.000
    H34      H        0.84290    0.64250    0.77120    1.000
    C55      C        0.13730    0.07050    0.13750    1.000
    H35      H        0.07270    0.05410    0.08790    1.000
    C56      C        0.72490    0.55210    0.63140    1.000
    H36      H        0.73870    0.60140    0.60990    1.000
    N11      N        0.54290    0.65680    0.18470    1.000
    C57      C        0.04500    0.50120    0.36160    1.000
    C58      C        0.29940    0.56220    0.78630    1.000
    H37      H        0.29340    0.53210    0.82770    1.000
    C59      C        0.86660    0.11050    0.38850    1.000
    H38      H        0.88930    0.07940    0.42560    1.000
    C60      C        0.22090    0.51650    0.68950    1.000
    H39      H        0.16230    0.45480    0.66580    1.000
    N12      N        0.06340    0.41210    0.48820    1.000
    C61      C        0.22490    0.55820    0.62540    1.000
    N13      N        0.76560    0.77690    0.01710    1.000
    H40      H        0.71750    0.79330    0.99910    1.000
    H41      H        0.81440    0.79410    0.00120    1.000
    N14      N        0.47900    0.33090    0.40780    1.000
    C62      C        0.22100    0.16750    0.18510    1.000
    H42      H        0.21250    0.21510    0.16510    1.000
    O14      O        0.90800    0.62710    0.92870    1.000
    C63      C        0.38970    0.65480    0.82410    1.000
    C64      C        0.63910    0.45290    0.56320    1.000
    C65      C        0.90130    0.25700    0.36370    1.000
    C66      C        0.51330    0.52940    0.27390    1.000
    C67      C        0.31710    0.19640    0.26160    1.000
    C68      C        0.41540    0.36440    0.26960    1.000
    H43      H        0.36430    0.34100    0.20400    1.000
    N15      N        0.79490    0.62840    0.13320    1.000
    C69      C        0.80230    0.20670    0.28150    1.000
    H44      H        0.78000    0.23980    0.24670    1.000
    C70      C        0.50100    0.46190    0.32200    1.000
    N16      N        0.71470    0.63230    0.13750    1.000
    C71      C        0.39570    0.69700    0.76030    1.000
    H45      H        0.45510    0.75790    0.78360    1.000
    C72      C        0.31490    0.65040    0.66230    1.000
    H46      H        0.32030    0.68030    0.62060    1.000
    C73      C        0.40620    0.30170    0.31530    1.000
    C74      C        0.24680    0.02580    0.24050    1.000
    H47      H        0.25600    0.97830    0.26030    1.000
    C75      C        0.03400    0.54790    0.29210    1.000
    C76      C        0.13610    0.50570    0.51940    1.000
    C77      C        0.46340    0.49210    0.17040    1.000
    H48      H        0.41820    0.42240    0.12810    1.000
    C78      C        0.32760    0.12060    0.28670    1.000
    H49      H        0.39200    0.13670    0.33640    1.000
    C79      C        0.76480    0.05250    0.29840    1.000
    C80      C        0.83280    0.53720    0.87500    1.000
    C81      C        0.13080    0.55370    0.45790    1.000
    H50      H        0.18350    0.61920    0.48120    1.000
    C82      C        0.14970    0.99640    0.16410    1.000
    C83      C        0.57630    0.63480    0.33130    1.000
    H51      H        0.61000    0.66450    0.40160    1.000
    C84      C        0.06740    0.65080    0.32780    1.000
    H52      H        0.10050    0.69380    0.39700    1.000
    C85      C        0.56330    0.42570    0.46010    1.000
    C86      C        0.48040    0.55780    0.12940    1.000
    H53      H        0.44600    0.53070    0.05930    1.000
    N17      N        0.69440    0.69470    0.09810    1.000
    C87      C        0.98810    0.49200    0.19010    1.000
    H54      H        0.96530    0.42220    0.16230    1.000
    C88      C        0.97430    0.53430    0.12750    1.000
    H55      H        0.94190    0.49270    0.05800    1.000
    C89      C        0.97080    0.40500    0.32990    1.000
    H56      H        0.91390    0.36820    0.26470    1.000
    C90      C        0.47850    0.70350    0.92800    1.000
    C91      C        0.57570    0.49190    0.41910    1.000
    H57      H        0.63420    0.55670    0.45650    1.000
    C92      C        0.05850    0.89210    0.11300    1.000
    C93      C        0.97930    0.36100    0.39430    1.000
    N18      N        0.82930    0.68640    0.09080    1.000
    C94      C        0.73480    0.10230    0.25100    1.000
    H58      H        0.66760    0.06810    0.19610    1.000
    C95      C        0.05150    0.68910    0.26110    1.000
    H59      H        0.07430    0.75880    0.28700    1.000
    C96      C        0.58890    0.69430    0.28570    1.000
    H60      H        0.63150    0.76460    0.32620    1.000
    C97      C        0.76480    0.72480    0.06980    1.000
    O15      O        0.62140    0.89470    0.18290    1.000
    C98      C        0.70860    0.94880    0.26710    1.000
    O16      O        0.73970    0.90110    0.31270    1.000
