data_functionalizedCrystal
_audit_creation_method	'EQeq! by Chris Wilmer'
_symmetry_space_group_name_H-M	'P1'
_symmetry_Int_Tables_number	1
_symmetry_cell_setting	triclinic
loop_
_symmetry_equiv_pos_as_xyz
  x,y,z
_cell_length_a	21.3209
_cell_length_b	14.1337
_cell_length_c	22.8816
_cell_angle_alpha	90
_cell_angle_beta	90.717
_cell_angle_gamma	90
loop_
_atom_site_label
_atom_site_type_symbol
_atom_site_fract_x
_atom_site_fract_y
_atom_site_fract_z
_atom_site_charge
Mof_Cr	Cr	0.39573	0.04609	0.48245	1.764
Mof_Cr	Cr	0.5341	0.26786	0.62588	1.742
Mof_Mn	Mn	0.14459	0.04556	0.50238	1.045
Mof_Mn	Mn	0.51183	0.77676	0.35978	1.045
Mof_C 	C 	0.4269	0.8699	0.4306	0.29
Mof_C 	C 	0.4671	0.95	0.399	0.251
Mof_C 	C 	0.5601	0.2387	0.7438	0.255
Mof_C 	C 	0.4872	0.2559	0.739	0.27
Mof_C 	C 	0.5751	0.4432	0.5842	0.269
Mof_C 	C 	0.6127	0.3682	0.5507	0.247
Mof_C 	C 	0.2671	0.0586	0.4591	0.244
Mof_C 	C 	0.2744	0.0516	0.5269	0.26
Mof_C 	C 	0.4842	0.1122	0.5663	0.27
Mof_C 	C 	0.4537	0.2022	0.5368	0.285
Mof_C 	C 	0.0902	0.2049	0.4503	0.254
Mof_C 	C 	0.0604	0.1191	0.4205	0.234
Mof_O 	O 	0.4567	0.0343	0.4137	-0.466
Mof_O 	O 	0.5045	0.9212	0.3613	-0.357
Mof_O 	O 	0.3924	0.9014	0.4699	-0.465
Mof_O 	O 	0.4363	0.7893	0.4167	-0.352
Mof_O 	O 	0.5804	0.2232	0.7955	-0.325
Mof_O 	O 	0.5902	0.2416	0.6988	-0.448
Mof_O 	O 	0.4565	0.2517	0.7851	-0.336
Mof_O 	O 	0.4658	0.2699	0.6899	-0.454
Mof_O 	O 	0.6056	0.2838	0.5659	-0.444
Mof_O 	O 	0.6467	0.3981	0.51	-0.338
Mof_O 	O 	0.5411	0.414	0.6243	-0.443
Mof_O 	O 	0.5802	0.5263	0.5687	-0.336
Mof_O 	O 	0.2245	0.0514	0.5552	-0.338
Mof_O 	O 	0.3279	0.0459	0.5474	-0.449
Mof_O 	O 	0.2128	0.0543	0.4389	-0.349
Mof_O 	O 	0.3175	0.0646	0.4308	-0.473
Mof_O 	O 	0.4668	0.0337	0.5455	-0.443
Mof_O 	O 	0.522	0.125	0.6059	-0.456
Mof_O 	O 	0.4158	0.1879	0.4957	-0.477
Mof_O 	O 	0.469	0.2788	0.557	-0.458
Mof_O 	O 	0.0757	0.0393	0.4383	-0.34
Mof_O 	O 	0.02	0.1345	0.3802	-0.334
Mof_O 	O 	0.1256	0.189	0.4918	-0.342
Mof_O 	O 	0.0758	0.2844	0.4299	-0.334
Mof_Cr	Cr	0.89573	0.54609	0.48245	1.774
Mof_Cr	Cr	0.0341	0.76786	0.62588	1.658
Mof_Mn	Mn	0.64459	0.54556	0.50238	1.046
Mof_Mn	Mn	0.01183	0.27676	0.35978	0.992
Mof_C 	C 	0.9269	0.3699	0.4306	0.276
Mof_C 	C 	0.9671	0.45	0.399	0.319
Mof_C 	C 	0.0601	0.7387	0.7438	0.211
Mof_C 	C 	0.9872	0.7559	0.739	0.318
Mof_C 	C 	0.0751	0.9432	0.5842	0.267
Mof_C 	C 	0.1127	0.8682	0.5507	0.242
Mof_C 	C 	0.7671	0.5586	0.4591	0.244
Mof_C 	C 	0.7744	0.5516	0.5269	0.259
Mof_C 	C 	0.9842	0.6122	0.5663	0.342
Mof_C 	C 	0.9537	0.7022	0.5368	0.268
Mof_C 	C 	0.5902	0.7049	0.4503	0.258
Mof_C 	C 	0.5604	0.6191	0.4205	0.234
Mof_O 	O 	0.9567	0.5343	0.4137	-0.464
Mof_O 	O 	0.0045	0.4212	0.3613	-0.404
Mof_O 	O 	0.8924	0.4014	0.4699	-0.456
Mof_O 	O 	0.9363	0.2893	0.4167	-0.319
Mof_O 	O 	0.0804	0.7232	0.7955	-0.314
Mof_O 	O 	0.0902	0.7416	0.6988	-0.432
Mof_O 	O 	0.9565	0.7517	0.7851	-0.319
Mof_O 	O 	0.9658	0.7699	0.6899	-0.432
Mof_O 	O 	0.1056	0.7838	0.5659	-0.44
Mof_O 	O 	0.1467	0.8981	0.51	-0.339
Mof_O 	O 	0.0411	0.914	0.6243	-0.449
Mof_O 	O 	0.0802	0.0263	0.5687	-0.343
Mof_O 	O 	0.7245	0.5514	0.5552	-0.337
Mof_O 	O 	0.8279	0.5459	0.5474	-0.447
Mof_O 	O 	0.7128	0.5543	0.4389	-0.349
Mof_O 	O 	0.8175	0.5646	0.4308	-0.471
Mof_O 	O 	0.9668	0.5337	0.5455	-0.446
Mof_O 	O 	0.022	0.625	0.6059	-0.504
Mof_O 	O 	0.9158	0.6879	0.4957	-0.466
Mof_O 	O 	0.969	0.7788	0.557	-0.415
Mof_O 	O 	0.5757	0.5393	0.4383	-0.333
Mof_O 	O 	0.52	0.6345	0.3802	-0.321
Mof_O 	O 	0.6256	0.689	0.4918	-0.34
Mof_O 	O 	0.5758	0.7844	0.4299	-0.331
Mof_Cr	Cr	0.39573	0.95391	0.98245	1.761
Mof_Cr	Cr	0.5341	0.73214	0.12588	1.741
Mof_Mn	Mn	0.14459	0.95444	0.00238	1.045
Mof_Mn	Mn	0.51183	0.22324	0.85978	1.045
Mof_C 	C 	0.4269	0.1301	0.9306	0.289
Mof_C 	C 	0.4671	0.05	0.899	0.253
Mof_C 	C 	0.5601	0.7613	0.2438	0.255
Mof_C 	C 	0.4872	0.7441	0.239	0.27
Mof_C 	C 	0.5751	0.5568	0.0842	0.269
Mof_C 	C 	0.6127	0.6318	0.0507	0.247
Mof_C 	C 	0.2671	0.9414	0.9591	0.244
Mof_C 	C 	0.2744	0.9484	0.0269	0.26
Mof_C 	C 	0.4842	0.8878	0.0663	0.27
Mof_C 	C 	0.4537	0.7978	0.0368	0.285
Mof_C 	C 	0.0902	0.7951	0.9503	0.254
Mof_C 	C 	0.0604	0.8809	0.9205	0.234
Mof_O 	O 	0.4567	0.9657	0.9137	-0.467
Mof_O 	O 	0.5045	0.0788	0.8613	-0.357
Mof_O 	O 	0.3924	0.0986	0.9699	-0.463
Mof_O 	O 	0.4363	0.2107	0.9167	-0.352
Mof_O 	O 	0.5804	0.7768	0.2955	-0.325
Mof_O 	O 	0.5902	0.7584	0.1988	-0.448
Mof_O 	O 	0.4565	0.7483	0.2851	-0.336
Mof_O 	O 	0.4658	0.7301	0.1899	-0.454
Mof_O 	O 	0.6056	0.7162	0.0659	-0.444
Mof_O 	O 	0.6467	0.6019	0.01	-0.338
Mof_O 	O 	0.5411	0.586	0.1243	-0.443
Mof_O 	O 	0.5802	0.4737	0.0687	-0.336
Mof_O 	O 	0.2245	0.9486	0.0552	-0.338
Mof_O 	O 	0.3279	0.9541	0.0474	-0.448
Mof_O 	O 	0.2128	0.9457	0.9389	-0.35
Mof_O 	O 	0.3175	0.9354	0.9308	-0.473
Mof_O 	O 	0.4668	0.9663	0.0455	-0.443
Mof_O 	O 	0.522	0.875	0.1059	-0.456
Mof_O 	O 	0.4158	0.8121	0.9957	-0.477
Mof_O 	O 	0.469	0.7212	0.057	-0.458
Mof_O 	O 	0.0757	0.9607	0.9383	-0.34
Mof_O 	O 	0.02	0.8655	0.8802	-0.334
Mof_O 	O 	0.1256	0.811	0.9918	-0.342
Mof_O 	O 	0.0758	0.7156	0.9299	-0.333
Mof_Cr	Cr	0.89573	0.45391	0.98245	1.774
Mof_Cr	Cr	0.0341	0.23214	0.12588	1.656
Mof_Mn	Mn	0.64459	0.45444	0.00238	1.045
Mof_Mn	Mn	0.01183	0.72324	0.85978	0.994
Mof_C 	C 	0.9269	0.6301	0.9306	0.276
Mof_C 	C 	0.9671	0.55	0.899	0.317
Mof_C 	C 	0.0601	0.2613	0.2438	0.21
Mof_C 	C 	0.9872	0.2441	0.239	0.319
Mof_C 	C 	0.0751	0.0568	0.0842	0.266
Mof_C 	C 	0.1127	0.1318	0.0507	0.242
Mof_C 	C 	0.7671	0.4414	0.9591	0.244
Mof_C 	C 	0.7744	0.4484	0.0269	0.259
Mof_C 	C 	0.9842	0.3878	0.0663	0.343
Mof_C 	C 	0.9537	0.2978	0.0368	0.267
Mof_C 	C 	0.5902	0.2951	0.9503	0.258
Mof_C 	C 	0.5604	0.3809	0.9205	0.235
Mof_O 	O 	0.9567	0.4657	0.9137	-0.464
Mof_O 	O 	0.0045	0.5788	0.8613	-0.402
Mof_O 	O 	0.8924	0.5986	0.9699	-0.456
Mof_O 	O 	0.9363	0.7107	0.9167	-0.32
Mof_O 	O 	0.0804	0.2768	0.2955	-0.314
Mof_O 	O 	0.0902	0.2584	0.1988	-0.431
Mof_O 	O 	0.9565	0.2483	0.2851	-0.318
Mof_O 	O 	0.9658	0.2301	0.1899	-0.431
Mof_O 	O 	0.1056	0.2162	0.0659	-0.441
Mof_O 	O 	0.1467	0.1019	0.01	-0.341
Mof_O 	O 	0.0411	0.086	0.1243	-0.449
Mof_O 	O 	0.0802	0.9737	0.0687	-0.342
Mof_O 	O 	0.7245	0.4486	0.0552	-0.337
Mof_O 	O 	0.8279	0.4541	0.0474	-0.447
Mof_O 	O 	0.7128	0.4457	0.9389	-0.349
Mof_O 	O 	0.8175	0.4354	0.9308	-0.471
Mof_O 	O 	0.9668	0.4663	0.0455	-0.446
Mof_O 	O 	0.022	0.375	0.1059	-0.505
Mof_O 	O 	0.9158	0.3121	0.9957	-0.466
Mof_O 	O 	0.969	0.2212	0.057	-0.415
Mof_O 	O 	0.5757	0.4607	0.9383	-0.332
Mof_O 	O 	0.52	0.3655	0.8802	-0.32
Mof_O 	O 	0.6256	0.311	0.9918	-0.339
Mof_O 	O 	0.5758	0.2156	0.9299	-0.33
Mof_In	In	0.18127	0.35638	0.80647	1.975
Mof_C 	C 	0.251	0.5275	0.8652	0.411
Mof_C 	C 	0.2565	0.6255	0.8675	0.334
Mof_H 	H 	0.2289	0.6633	0.8461	0.068
Mof_C 	C 	0.3032	0.6668	0.9018	0.091
Mof_H 	H 	0.3069	0.7324	0.9033	0.092
Mof_C 	C 	0.3445	0.6103	0.9338	-0.598
Mof_H 	H 	0.3758	0.638	0.9568	0.255
Mof_C 	C 	0.339	0.5124	0.9315	-0.003
Mof_H 	H 	0.3665	0.4745	0.953	0.038
Mof_C 	C 	0.2922	0.471	0.8972	-0.724
Mof_C 	C 	0.2927	0.3726	0.8972	0.711
Mof_H 	H 	0.3239	0.3428	0.9192	-0.201
Mof_C 	C 	0.2608	0.223	0.8765	-0.553
Mof_H 	H 	0.2806	0.2094	0.9139	0.185
Mof_H 	H 	0.2872	0.198	0.8459	0.149
Mof_C 	C 	0.1947	0.1749	0.8732	-0.034
Mof_H 	H 	0.2013	0.1081	0.8657	0.013
Mof_H 	H 	0.1765	0.1796	0.9117	0.017
Mof_C 	C 	0.0796	0.2093	0.8472	0.097
Mof_H 	H 	0.0553	0.2067	0.8111	-0.014
Mof_H 	H 	0.0689	0.1544	0.8704	0.022
Mof_C 	C 	0.065	0.2886	0.8767	-0.175
Mof_H 	H 	0.0904	0.2927	0.9121	0.048
Mof_H 	H 	0.0212	0.2869	0.8877	0.068
Mof_C 	C 	0.0417	0.3997	0.7893	0.034
Mof_H 	H 	0.031	0.3401	0.7706	0.04
Mof_H 	H 	0.0029	0.4267	0.8035	0.016
Mof_C 	C 	0.0628	0.4558	0.7492	0.074
Mof_H 	H 	0.0727	0.5178	0.7651	-0.01
Mof_H 	H 	0.033	0.4627	0.7172	0.003
Mof_C 	C 	0.1349	0.393	0.6749	0.192
Mof_H 	H 	0.1045	0.4152	0.6489	-0.025
Mof_C 	C 	0.1874	0.3528	0.6503	-0.334
Mof_C 	C 	0.1873	0.3516	0.5896	0.184
Mof_H 	H 	0.1533	0.376	0.5687	0.149
Mof_C 	C 	0.2382	0.3142	0.56	-0.272
Mof_H 	H 	0.2382	0.3134	0.5194	0.073
Mof_C 	C 	0.2891	0.2778	0.5912	0.153
Mof_H 	H 	0.3231	0.2527	0.5715	-0.098
Mof_C 	C 	0.2891	0.2789	0.652	-0.679
Mof_H 	H 	0.3232	0.2546	0.6728	0.431
Mof_C 	C 	0.2383	0.3164	0.6815	0.407
Mof_O 	O 	0.2088	0.4936	0.8254	0.781
Mof_O 	O 	0.2415	0.3115	0.7371	-0.257
Mof_N 	N 	0.2542	0.3199	0.8696	-0.022
Mof_N 	N 	0.1496	0.2066	0.8331	-0.146
Mof_H 	H 	0.1534	0.1696	0.8008	0.013
Mof_N 	N 	0.0778	0.3802	0.8356	-0.166
Mof_H 	H 	0.0776	0.4321	0.8591	0.087
Mof_N 	N 	0.123	0.4035	0.7294	0.05
Mof_C 	C 	0.2338	0.5537	0.8489	-0.82
Mof_C 	C 	0.2294	0.6514	0.8434	-0.001
Mof_C 	C 	0.2664	0.7098	0.8784	-0.514
Mof_C 	C 	0.3079	0.6704	0.919	0.053
Mof_C 	C 	0.3123	0.5727	0.9246	0.219
Mof_C 	C 	0.2752	0.5143	0.8895	0.391
Mof_C 	C 	0.274	0.4158	0.9113	-0.139
Mof_C 	C 	0.221	0.2685	0.9242	0.096
Mof_C 	C 	0.2152	0.1797	0.887	0.085
Mof_C 	C 	0.1083	0.1922	0.8665	-0.141
Mof_C 	C 	0.0842	0.2803	0.897	0.069
Mof_C 	C 	0.0414	0.3541	0.8082	0.062
Mof_C 	C 	0.0598	0.4039	0.752	-0.297
Mof_C 	C 	0.1384	0.3588	0.6786	0.002
Mof_C 	C 	0.2018	0.3304	0.6598	-0.072
Mof_C 	C 	0.2069	0.3247	0.5994	0.365
Mof_C 	C 	0.2625	0.2936	0.5748	-0.201
Mof_C 	C 	0.3129	0.2682	0.6105	0.364
Mof_C 	C 	0.3079	0.2739	0.6709	-0.043
Mof_C 	C 	0.2523	0.305	0.6956	0.085
Mof_H 	H 	0.2017	0.6777	0.8162	0.09
Mof_H 	H 	0.2635	0.7751	0.8747	0.226
Mof_H 	H 	0.3327	0.7095	0.9424	0.018
Mof_H 	H 	0.34	0.5464	0.9517	0.141
Mof_H 	H 	0.2966	0.4035	0.9456	0.055
Mof_H 	H 	0.1801	0.2856	0.9393	-0.015
Mof_H 	H 	0.2489	0.2568	0.9571	-0.002
Mof_H 	H 	0.2558	0.1628	0.8716	0.153
Mof_H 	H 	0.2003	0.1275	0.9107	-0.005
Mof_H 	H 	0.11	0.1414	0.895	0.078
Mof_H 	H 	0.0777	0.1743	0.8368	0.006
Mof_H 	H 	0.0405	0.273	0.9074	0.007
Mof_H 	H 	0.1087	0.2936	0.9321	-0.033
Mof_H 	H 	0.0041	0.3839	0.8235	0.002
Mof_H 	H 	0.0312	0.2887	0.7994	-0.015
Mof_H 	H 	0.0275	0.3937	0.7224	0.108
Mof_H 	H 	0.063	0.4714	0.7591	0.062
Mof_H 	H 	0.1089	0.371	0.6493	-0.005
Mof_H 	H 	0.1732	0.3417	0.5755	-0.296
Mof_H 	H 	0.2659	0.2897	0.5343	0.154
Mof_H 	H 	0.3501	0.2474	0.594	-0.059
Mof_H 	H 	0.3416	0.2569	0.6948	-0.165
Mof_H 	H 	0.1744	0.1559	0.8087	0.067
Mof_H 	H 	0.0887	0.4128	0.8725	0.013
Mof_N 	N 	0.246	0.3468	0.8883	-0.428
Mof_N 	N 	0.1704	0.198	0.8385	-0.129
Mof_N 	N 	0.0917	0.3566	0.8533	-0.173
Mof_N 	N 	0.1205	0.3679	0.7306	-0.338
Mof_O 	O 	0.1953	0.5101	0.8079	-1.013
Mof_O 	O 	0.2475	0.3087	0.752	-0.284
Mof_In	In	0.68127	0.85638	0.80647	1.971
Mof_C 	C 	0.751	0.0275	0.8652	0.411
Mof_C 	C 	0.7565	0.1255	0.8675	0.347
Mof_H 	H 	0.7289	0.1633	0.8461	0.069
Mof_C 	C 	0.8032	0.1668	0.9018	0.093
Mof_H 	H 	0.8069	0.2324	0.9033	0.095
Mof_C 	C 	0.8445	0.1103	0.9338	-0.621
Mof_H 	H 	0.8758	0.138	0.9568	0.27
Mof_C 	C 	0.839	0.0124	0.9315	-0.017
Mof_H 	H 	0.8665	0.9745	0.953	0.049
Mof_C 	C 	0.7922	0.971	0.8972	-0.73
Mof_C 	C 	0.7927	0.8726	0.8972	0.716
Mof_H 	H 	0.8239	0.8428	0.9192	-0.199
Mof_C 	C 	0.7608	0.723	0.8765	-0.563
Mof_H 	H 	0.7806	0.7094	0.9139	0.188
Mof_H 	H 	0.7872	0.698	0.8459	0.153
Mof_C 	C 	0.6947	0.6749	0.8732	-0.032
Mof_H 	H 	0.7013	0.6081	0.8657	0.013
Mof_H 	H 	0.6765	0.6796	0.9117	0.017
Mof_C 	C 	0.5796	0.7093	0.8472	0.094
Mof_H 	H 	0.5553	0.7067	0.8111	-0.009
Mof_H 	H 	0.5689	0.6544	0.8704	0.027
Mof_C 	C 	0.565	0.7886	0.8767	-0.181
Mof_H 	H 	0.5904	0.7927	0.9121	0.053
Mof_H 	H 	0.5212	0.7869	0.8877	0.08
Mof_C 	C 	0.5417	0.8997	0.7893	0.028
Mof_H 	H 	0.531	0.8401	0.7706	0.045
Mof_H 	H 	0.5029	0.9267	0.8035	0.023
Mof_C 	C 	0.5628	0.9558	0.7492	0.073
Mof_H 	H 	0.5727	0.0178	0.7651	-0.004
Mof_H 	H 	0.533	0.9627	0.7172	0.009
Mof_C 	C 	0.6349	0.893	0.6749	0.193
Mof_H 	H 	0.6045	0.9152	0.6489	-0.023
Mof_C 	C 	0.6874	0.8528	0.6503	-0.333
Mof_C 	C 	0.6873	0.8516	0.5896	0.183
Mof_H 	H 	0.6533	0.876	0.5687	0.154
Mof_C 	C 	0.7382	0.8142	0.56	-0.27
Mof_H 	H 	0.7382	0.8134	0.5194	0.073
Mof_C 	C 	0.7891	0.7778	0.5912	0.152
Mof_H 	H 	0.8231	0.7527	0.5715	-0.098
Mof_C 	C 	0.7891	0.7789	0.652	-0.672
Mof_H 	H 	0.8232	0.7546	0.6728	0.427
Mof_C 	C 	0.7383	0.8164	0.6815	0.407
Mof_O 	O 	0.7088	0.9936	0.8254	0.818
Mof_O 	O 	0.7415	0.8115	0.7371	-0.256
Mof_N 	N 	0.7542	0.8199	0.8696	-0.015
Mof_N 	N 	0.6496	0.7066	0.8331	-0.146
Mof_H 	H 	0.6534	0.6696	0.8008	0.016
Mof_N 	N 	0.5778	0.8802	0.8356	-0.166
Mof_H 	H 	0.5776	0.9321	0.8591	0.095
Mof_N 	N 	0.623	0.9035	0.7294	0.048
Mof_C 	C 	0.7338	0.0537	0.8489	-0.834
Mof_C 	C 	0.7294	0.1514	0.8434	-0.004
Mof_C 	C 	0.7664	0.2098	0.8784	-0.524
Mof_C 	C 	0.8079	0.1704	0.919	0.054
Mof_C 	C 	0.8123	0.0727	0.9246	0.24
Mof_C 	C 	0.7752	0.0143	0.8895	0.397
Mof_C 	C 	0.774	0.9158	0.9113	-0.138
Mof_C 	C 	0.721	0.7685	0.9242	0.1
Mof_C 	C 	0.7152	0.6797	0.887	0.086
Mof_C 	C 	0.6083	0.6922	0.8665	-0.138
Mof_C 	C 	0.5842	0.7803	0.897	0.069
Mof_C 	C 	0.5414	0.8541	0.8082	0.055
Mof_C 	C 	0.5598	0.9039	0.752	-0.29
Mof_C 	C 	0.6384	0.8588	0.6786	0.001
Mof_C 	C 	0.7018	0.8304	0.6598	-0.07
Mof_C 	C 	0.7069	0.8247	0.5994	0.367
Mof_C 	C 	0.7625	0.7936	0.5748	-0.201
Mof_C 	C 	0.8129	0.7682	0.6105	0.364
Mof_C 	C 	0.8079	0.7739	0.6709	-0.043
Mof_C 	C 	0.7523	0.805	0.6956	0.084
Mof_H 	H 	0.7017	0.1777	0.8162	0.093
Mof_H 	H 	0.7635	0.2751	0.8747	0.231
Mof_H 	H 	0.8327	0.2095	0.9424	0.02
Mof_H 	H 	0.84	0.0464	0.9517	0.151
Mof_H 	H 	0.7966	0.9035	0.9456	0.055
Mof_H 	H 	0.6801	0.7856	0.9393	-0.015
Mof_H 	H 	0.7489	0.7568	0.9571	-0.003
Mof_H 	H 	0.7558	0.6628	0.8716	0.156
Mof_H 	H 	0.7003	0.6275	0.9107	-0.006
Mof_H 	H 	0.61	0.6414	0.895	0.078
Mof_H 	H 	0.5777	0.6743	0.8368	0.006
Mof_H 	H 	0.5405	0.773	0.9074	0.011
Mof_H 	H 	0.6087	0.7936	0.9321	-0.032
Mof_H 	H 	0.5041	0.8839	0.8235	0.013
Mof_H 	H 	0.5312	0.7887	0.7994	-0.009
Mof_H 	H 	0.5275	0.8937	0.7224	0.111
Mof_H 	H 	0.563	0.9714	0.7591	0.058
Mof_H 	H 	0.6089	0.871	0.6493	-0.003
Mof_H 	H 	0.6732	0.8417	0.5755	-0.298
Mof_H 	H 	0.7659	0.7897	0.5343	0.154
Mof_H 	H 	0.8501	0.7474	0.594	-0.056
Mof_H 	H 	0.8416	0.7569	0.6948	-0.159
Mof_H 	H 	0.6744	0.6559	0.8087	0.066
Mof_H 	H 	0.5887	0.9128	0.8725	0.008
Mof_N 	N 	0.746	0.8468	0.8883	-0.435
Mof_N 	N 	0.6704	0.698	0.8385	-0.129
Mof_N 	N 	0.5917	0.8566	0.8533	-0.169
Mof_N 	N 	0.6205	0.8679	0.7306	-0.336
Mof_O 	O 	0.6953	0.0101	0.8079	-1.043
Mof_O 	O 	0.7475	0.8087	0.752	-0.282
Mof_In	In	0.18127	0.64362	0.30647	1.974
Mof_C 	C 	0.251	0.4725	0.3652	0.411
Mof_C 	C 	0.2565	0.3745	0.3675	0.334
Mof_H 	H 	0.2289	0.3367	0.3461	0.068
Mof_C 	C 	0.3032	0.3332	0.4018	0.091
Mof_H 	H 	0.3069	0.2676	0.4033	0.092
Mof_C 	C 	0.3445	0.3897	0.4338	-0.599
Mof_H 	H 	0.3758	0.362	0.4568	0.255
Mof_C 	C 	0.339	0.4876	0.4315	-0.003
Mof_H 	H 	0.3665	0.5255	0.453	0.038
Mof_C 	C 	0.2922	0.529	0.3972	-0.724
Mof_C 	C 	0.2927	0.6274	0.3972	0.711
Mof_H 	H 	0.3239	0.6572	0.4192	-0.201
Mof_C 	C 	0.2608	0.777	0.3765	-0.553
Mof_H 	H 	0.2806	0.7906	0.4139	0.185
Mof_H 	H 	0.2872	0.802	0.3459	0.149
Mof_C 	C 	0.1947	0.8251	0.3732	-0.034
Mof_H 	H 	0.2013	0.8919	0.3657	0.013
Mof_H 	H 	0.1765	0.8204	0.4117	0.017
Mof_C 	C 	0.0796	0.7907	0.3472	0.097
Mof_H 	H 	0.0553	0.7933	0.3111	-0.015
Mof_H 	H 	0.0689	0.8456	0.3704	0.022
Mof_C 	C 	0.065	0.7114	0.3767	-0.175
Mof_H 	H 	0.0904	0.7073	0.4121	0.048
Mof_H 	H 	0.0212	0.7131	0.3877	0.068
Mof_C 	C 	0.0417	0.6003	0.2893	0.034
Mof_H 	H 	0.031	0.6599	0.2706	0.039
Mof_H 	H 	0.0029	0.5733	0.3035	0.016
Mof_C 	C 	0.0628	0.5442	0.2492	0.074
Mof_H 	H 	0.0727	0.4822	0.2651	-0.01
Mof_H 	H 	0.033	0.5373	0.2172	0.003
Mof_C 	C 	0.1349	0.607	0.1749	0.192
Mof_H 	H 	0.1045	0.5848	0.1489	-0.025
Mof_C 	C 	0.1874	0.6472	0.1503	-0.334
Mof_C 	C 	0.1873	0.6484	0.0896	0.184
Mof_H 	H 	0.1533	0.624	0.0687	0.148
Mof_C 	C 	0.2382	0.6858	0.06	-0.272
Mof_H 	H 	0.2382	0.6866	0.0194	0.073
Mof_C 	C 	0.2891	0.7222	0.0912	0.153
Mof_H 	H 	0.3231	0.7473	0.0715	-0.098
Mof_C 	C 	0.2891	0.7211	0.152	-0.679
Mof_H 	H 	0.3232	0.7454	0.1728	0.431
Mof_C 	C 	0.2383	0.6836	0.1815	0.407
Mof_O 	O 	0.2088	0.5064	0.3254	0.781
Mof_O 	O 	0.2415	0.6885	0.2371	-0.257
Mof_N 	N 	0.2542	0.6801	0.3696	-0.021
Mof_N 	N 	0.1496	0.7934	0.3331	-0.146
Mof_H 	H 	0.1534	0.8304	0.3008	0.013
Mof_N 	N 	0.0778	0.6198	0.3356	-0.166
Mof_H 	H 	0.0776	0.5679	0.3591	0.087
Mof_N 	N 	0.123	0.5965	0.2294	0.05
Mof_C 	C 	0.2338	0.4463	0.3489	-0.819
Mof_C 	C 	0.2294	0.3486	0.3434	-0.001
Mof_C 	C 	0.2664	0.2902	0.3784	-0.514
Mof_C 	C 	0.3079	0.3296	0.419	0.053
Mof_C 	C 	0.3123	0.4273	0.4246	0.22
Mof_C 	C 	0.2752	0.4857	0.3895	0.391
Mof_C 	C 	0.274	0.5842	0.4113	-0.139
Mof_C 	C 	0.221	0.7315	0.4242	0.096
Mof_C 	C 	0.2152	0.8203	0.387	0.086
Mof_C 	C 	0.1083	0.8078	0.3665	-0.141
Mof_C 	C 	0.0842	0.7197	0.397	0.07
Mof_C 	C 	0.0414	0.6459	0.3082	0.062
Mof_C 	C 	0.0598	0.5961	0.252	-0.297
Mof_C 	C 	0.1384	0.6412	0.1786	0.002
Mof_C 	C 	0.2018	0.6696	0.1598	-0.072
Mof_C 	C 	0.2069	0.6753	0.0994	0.365
Mof_C 	C 	0.2625	0.7064	0.0748	-0.201
Mof_C 	C 	0.3129	0.7318	0.1105	0.363
Mof_C 	C 	0.3079	0.7261	0.1709	-0.043
Mof_C 	C 	0.2523	0.695	0.1956	0.085
Mof_H 	H 	0.2017	0.3223	0.3162	0.09
Mof_H 	H 	0.2635	0.2249	0.3747	0.226
Mof_H 	H 	0.3327	0.2905	0.4424	0.018
Mof_H 	H 	0.34	0.4536	0.4517	0.141
Mof_H 	H 	0.2966	0.5965	0.4456	0.054
Mof_H 	H 	0.1801	0.7144	0.4393	-0.015
Mof_H 	H 	0.2489	0.7432	0.4571	-0.003
Mof_H 	H 	0.2558	0.8372	0.3716	0.152
Mof_H 	H 	0.2003	0.8725	0.4107	-0.006
Mof_H 	H 	0.11	0.8586	0.395	0.077
Mof_H 	H 	0.0777	0.8257	0.3368	0.006
Mof_H 	H 	0.0405	0.727	0.4074	0.006
Mof_H 	H 	0.1087	0.7064	0.4321	-0.034
Mof_H 	H 	0.0041	0.6161	0.3235	0.002
Mof_H 	H 	0.0312	0.7113	0.2994	-0.015
Mof_H 	H 	0.0275	0.6063	0.2224	0.108
Mof_H 	H 	0.063	0.5286	0.2591	0.062
Mof_H 	H 	0.1089	0.629	0.1493	-0.005
Mof_H 	H 	0.1732	0.6583	0.0755	-0.296
Mof_H 	H 	0.2659	0.7103	0.0343	0.154
Mof_H 	H 	0.3501	0.7526	0.094	-0.059
Mof_H 	H 	0.3416	0.7431	0.1948	-0.165
Mof_H 	H 	0.1744	0.8441	0.3087	0.067
Mof_H 	H 	0.0887	0.5872	0.3725	0.013
Mof_N 	N 	0.246	0.6532	0.3883	-0.429
Mof_N 	N 	0.1704	0.802	0.3385	-0.129
Mof_N 	N 	0.0917	0.6434	0.3533	-0.173
Mof_N 	N 	0.1205	0.6321	0.2306	-0.338
Mof_O 	O 	0.1953	0.4899	0.3079	-1.013
Mof_O 	O 	0.2475	0.6913	0.252	-0.284
Mof_In	In	0.68127	0.14362	0.30647	1.974
Mof_C 	C 	0.751	0.9725	0.3652	0.406
Mof_C 	C 	0.7565	0.8745	0.3675	0.345
Mof_H 	H 	0.7289	0.8367	0.3461	0.065
Mof_C 	C 	0.8032	0.8332	0.4018	0.087
Mof_H 	H 	0.8069	0.7676	0.4033	0.096
Mof_C 	C 	0.8445	0.8897	0.4338	-0.589
Mof_H 	H 	0.8758	0.862	0.4568	0.259
Mof_C 	C 	0.839	0.9876	0.4315	-0.01
Mof_H 	H 	0.8665	0.0255	0.453	0.048
Mof_C 	C 	0.7922	0.029	0.3972	-0.716
Mof_C 	C 	0.7927	0.1274	0.3972	0.697
Mof_H 	H 	0.8239	0.1572	0.4192	-0.192
Mof_C 	C 	0.7608	0.277	0.3765	-0.56
Mof_H 	H 	0.7806	0.2906	0.4139	0.188
Mof_H 	H 	0.7872	0.302	0.3459	0.153
Mof_C 	C 	0.6947	0.3251	0.3732	-0.033
Mof_H 	H 	0.7013	0.3919	0.3657	0.013
Mof_H 	H 	0.6765	0.3204	0.4117	0.017
Mof_C 	C 	0.5796	0.2907	0.3472	0.095
Mof_H 	H 	0.5553	0.2933	0.3111	-0.009
Mof_H 	H 	0.5689	0.3456	0.3704	0.027
Mof_C 	C 	0.565	0.2114	0.3767	-0.181
Mof_H 	H 	0.5904	0.2073	0.4121	0.052
Mof_H 	H 	0.5212	0.2131	0.3877	0.08
Mof_C 	C 	0.5417	0.1003	0.2893	0.028
Mof_H 	H 	0.531	0.1599	0.2706	0.045
Mof_H 	H 	0.5029	0.0733	0.3035	0.024
Mof_C 	C 	0.5628	0.0442	0.2492	0.074
Mof_H 	H 	0.5727	0.9822	0.2651	-0.005
Mof_H 	H 	0.533	0.0373	0.2172	0.009
Mof_C 	C 	0.6349	0.107	0.1749	0.193
Mof_H 	H 	0.6045	0.0848	0.1489	-0.023
Mof_C 	C 	0.6874	0.1472	0.1503	-0.333
Mof_C 	C 	0.6873	0.1484	0.0896	0.183
Mof_H 	H 	0.6533	0.124	0.0687	0.153
Mof_C 	C 	0.7382	0.1858	0.06	-0.27
Mof_H 	H 	0.7382	0.1866	0.0194	0.072
Mof_C 	C 	0.7891	0.2222	0.0912	0.152
Mof_H 	H 	0.8231	0.2473	0.0715	-0.098
Mof_C 	C 	0.7891	0.2211	0.152	-0.672
Mof_H 	H 	0.8232	0.2454	0.1728	0.427
Mof_C 	C 	0.7383	0.1836	0.1815	0.407
Mof_O 	O 	0.7088	0.0064	0.3254	0.797
Mof_O 	O 	0.7415	0.1885	0.2371	-0.256
Mof_N 	N 	0.7542	0.1801	0.3696	-0.016
Mof_N 	N 	0.6496	0.2934	0.3331	-0.146
Mof_H 	H 	0.6534	0.3304	0.3008	0.015
Mof_N 	N 	0.5778	0.1198	0.3356	-0.166
Mof_H 	H 	0.5776	0.0679	0.3591	0.094
Mof_N 	N 	0.623	0.0965	0.2294	0.047
Mof_C 	C 	0.7338	0.9463	0.3489	-0.82
Mof_C 	C 	0.7294	0.8486	0.3434	-0.002
Mof_C 	C 	0.7664	0.7902	0.3784	-0.517
Mof_C 	C 	0.8079	0.8296	0.419	0.054
Mof_C 	C 	0.8123	0.9273	0.4246	0.218
Mof_C 	C 	0.7752	0.9857	0.3895	0.388
Mof_C 	C 	0.774	0.0842	0.4113	-0.129
Mof_C 	C 	0.721	0.2315	0.4242	0.097
Mof_C 	C 	0.7152	0.3203	0.387	0.086
Mof_C 	C 	0.6083	0.3078	0.3665	-0.139
Mof_C 	C 	0.5842	0.2197	0.397	0.069
Mof_C 	C 	0.5414	0.1459	0.3082	0.056
Mof_C 	C 	0.5598	0.0961	0.252	-0.292
Mof_C 	C 	0.6384	0.1412	0.1786	0.001
Mof_C 	C 	0.7018	0.1696	0.1598	-0.07
Mof_C 	C 	0.7069	0.1753	0.0994	0.367
Mof_C 	C 	0.7625	0.2064	0.0748	-0.201
Mof_C 	C 	0.8129	0.2318	0.1105	0.363
Mof_C 	C 	0.8079	0.2261	0.1709	-0.043
Mof_C 	C 	0.7523	0.195	0.1956	0.083
Mof_H 	H 	0.7017	0.8223	0.3162	0.093
Mof_H 	H 	0.7635	0.7249	0.3747	0.229
Mof_H 	H 	0.8327	0.7905	0.4424	0.018
Mof_H 	H 	0.84	0.9536	0.4517	0.144
Mof_H 	H 	0.7966	0.0965	0.4456	0.054
Mof_H 	H 	0.6801	0.2144	0.4393	-0.014
Mof_H 	H 	0.7489	0.2432	0.4571	-0.002
Mof_H 	H 	0.7558	0.3372	0.3716	0.155
Mof_H 	H 	0.7003	0.3725	0.4107	-0.006
Mof_H 	H 	0.61	0.3586	0.395	0.078
Mof_H 	H 	0.5777	0.3257	0.3368	0.006
Mof_H 	H 	0.5405	0.227	0.4074	0.011
Mof_H 	H 	0.6087	0.2064	0.4321	-0.032
Mof_H 	H 	0.5041	0.1161	0.3235	0.012
Mof_H 	H 	0.5312	0.2113	0.2994	-0.009
Mof_H 	H 	0.5275	0.1063	0.2224	0.112
Mof_H 	H 	0.563	0.0286	0.2591	0.059
Mof_H 	H 	0.6089	0.129	0.1493	-0.003
Mof_H 	H 	0.6732	0.1583	0.0755	-0.298
Mof_H 	H 	0.7659	0.2103	0.0343	0.154
Mof_H 	H 	0.8501	0.2526	0.094	-0.056
Mof_H 	H 	0.8416	0.2431	0.1948	-0.158
Mof_H 	H 	0.6744	0.3441	0.3087	0.067
Mof_H 	H 	0.5887	0.0872	0.3725	0.009
Mof_N 	N 	0.746	0.1532	0.3883	-0.43
Mof_N 	N 	0.6704	0.302	0.3385	-0.129
Mof_N 	N 	0.5917	0.1434	0.3533	-0.17
Mof_N 	N 	0.6205	0.1321	0.2306	-0.335
Mof_O 	O 	0.6953	0.9899	0.3079	-1.027
Mof_O 	O 	0.7475	0.1913	0.252	-0.282
_end
