data_functionalizedCrystal
_audit_creation_method	'EQeq! by Chris Wilmer'
_symmetry_space_group_name_H-M	'P1'
_symmetry_Int_Tables_number	1
_symmetry_cell_setting	triclinic
loop_
_symmetry_equiv_pos_as_xyz
  x,y,z
_cell_length_a	8.7011
_cell_length_b	20.857
_cell_length_c	8.2868
_cell_angle_alpha	90
_cell_angle_beta	90
_cell_angle_gamma	90
loop_
_atom_site_label
_atom_site_type_symbol
_atom_site_fract_x
_atom_site_fract_y
_atom_site_fract_z
_atom_site_charge
Mof_N 	N 	0.6193	0.9272	0.9177	-0.147
Mof_C 	C 	0.6848	0.8737	0.8723	0.069
Mof_H 	H 	0.6986	0.8611	0.7643	0.007
Mof_H 	H 	0.8745	0.7714	0.0959	0.061
Mof_N 	N 	0.1193	0.4272	0.9177	-0.173
Mof_C 	C 	0.1848	0.3737	0.8723	0.055
Mof_H 	H 	0.1986	0.3611	0.7643	-0.012
Mof_H 	H 	0.3745	0.2714	0.0959	0.043
Mof_N 	N 	0.3807	0.0728	0.9177	-0.174
Mof_C 	C 	0.3152	0.1263	0.8723	0.055
Mof_H 	H 	0.3014	0.1389	0.7643	-0.014
Mof_H 	H 	0.1255	0.2286	0.0959	0.02
Mof_N 	N 	0.8807	0.5728	0.9177	-0.146
Mof_C 	C 	0.8152	0.6263	0.8723	0.069
Mof_H 	H 	0.8014	0.6389	0.7643	0.005
Mof_H 	H 	0.6255	0.7286	0.0959	0.037
Mof_N 	N 	0.3807	0.9272	0.5823	-0.144
Mof_C 	C 	0.3152	0.8737	0.6277	0.091
Mof_H 	H 	0.3014	0.8611	0.7357	-0.017
Mof_H 	H 	0.1255	0.7714	0.4041	0.031
Mof_N 	N 	0.8807	0.4272	0.5823	-0.139
Mof_C 	C 	0.8152	0.3737	0.6277	0.097
Mof_H 	H 	0.8014	0.3611	0.7357	-0.006
Mof_H 	H 	0.6255	0.2714	0.4041	0.044
Mof_N 	N 	0.6193	0.0728	0.5823	-0.163
Mof_C 	C 	0.6848	0.1263	0.6277	0.09
Mof_H 	H 	0.6986	0.1389	0.7357	-0.013
Mof_H 	H 	0.8745	0.2286	0.4041	0.066
Mof_N 	N 	0.1193	0.5728	0.5823	-0.166
Mof_C 	C 	0.1848	0.6263	0.6277	0.083
Mof_H 	H 	0.1986	0.6389	0.7357	-0.023
Mof_H 	H 	0.3745	0.7286	0.4041	0.053
Mof_N 	N 	0.3807	0.0728	0.0823	-0.156
Mof_C 	C 	0.3152	0.1263	0.1277	0.09
Mof_H 	H 	0.3014	0.1389	0.2357	-0.022
Mof_H 	H 	0.1255	0.2286	0.9041	-0.002
Mof_N 	N 	0.8807	0.5728	0.0823	-0.128
Mof_C 	C 	0.8152	0.6263	0.1277	0.104
Mof_H 	H 	0.8014	0.6389	0.2357	-0.003
Mof_H 	H 	0.6255	0.7286	0.9041	0.015
Mof_N 	N 	0.6193	0.9272	0.0823	-0.13
Mof_C 	C 	0.6848	0.8737	0.1277	0.103
Mof_H 	H 	0.6986	0.8611	0.2357	-0.002
Mof_H 	H 	0.8745	0.7714	0.9041	0.04
Mof_N 	N 	0.1193	0.4272	0.0823	-0.155
Mof_C 	C 	0.1848	0.3737	0.1277	0.089
Mof_H 	H 	0.1986	0.3611	0.2357	-0.021
Mof_H 	H 	0.3745	0.2714	0.9041	0.022
Mof_N 	N 	0.6193	0.0728	0.4177	-0.163
Mof_C 	C 	0.6848	0.1263	0.3723	0.09
Mof_H 	H 	0.6986	0.1389	0.2643	-0.005
Mof_H 	H 	0.8745	0.2286	0.5959	0.063
Mof_N 	N 	0.1193	0.5728	0.4177	-0.166
Mof_C 	C 	0.1848	0.6263	0.3723	0.083
Mof_H 	H 	0.1986	0.6389	0.2643	-0.015
Mof_H 	H 	0.3745	0.7286	0.5959	0.05
Mof_N 	N 	0.3807	0.9272	0.4177	-0.144
Mof_C 	C 	0.3152	0.8737	0.3723	0.09
Mof_H 	H 	0.3014	0.8611	0.2643	-0.009
Mof_H 	H 	0.1255	0.7714	0.5959	0.028
Mof_N 	N 	0.8807	0.4272	0.4177	-0.139
Mof_C 	C 	0.8152	0.3737	0.3723	0.097
Mof_H 	H 	0.8014	0.3611	0.2643	0.002
Mof_H 	H 	0.6255	0.2714	0.5959	0.041
Mof_Ag	Ag	0.5	2.0982e-33	0.75	0.481
Mof_Ag	Ag	2.67815e-33	0.5	0.75	0.473
Mof_Ag	Ag	0.5	0	0.25	0.508
Mof_Ag	Ag	1.76783e-32	0.5	0.25	0.5
Mof_N 	N 	0.7295	0.8391	-0	-0.119
Mof_C 	C 	0.8093	0.7754	-0	-0.035
Mof_N 	N 	0.2295	0.3391	-0	-0.125
Mof_C 	C 	0.3093	0.2754	-0	-0.031
Mof_N 	N 	0.2705	0.1609	-0	-0.131
Mof_C 	C 	0.1907	0.2246	-0	-0.004
Mof_N 	N 	0.7705	0.6609	-0	-0.125
Mof_C 	C 	0.6907	0.7246	-0	-0.006
Mof_N 	N 	0.2705	0.8391	0.5	-0.142
Mof_C 	C 	0.1907	0.7754	0.5	-0.04
Mof_N 	N 	0.7705	0.3391	0.5	-0.138
Mof_C 	C 	0.6907	0.2754	0.5	-0.042
Mof_N 	N 	0.7295	0.1609	0.5	-0.134
Mof_C 	C 	0.8093	0.2246	0.5	-0.071
Mof_N 	N 	0.2295	0.6609	0.5	-0.137
Mof_C 	C 	0.3093	0.7246	0.5	-0.068
_end
