# CIF file generated by openbabel 3.1.0, see https://openbabel.org
data_I
_chemical_name_common 'image0'
_cell_length_a 19.504
_cell_length_b 19.504
_cell_length_c 37.93
_cell_angle_alpha 90
_cell_angle_beta 90
_cell_angle_gamma 120
_space_group_name_H-M_alt 'P 1'
_space_group_name_Hall 'P 1'
loop_
    _symmetry_equiv_pos_as_xyz
    x,y,z
loop_
    _atom_site_label
    _atom_site_type_symbol
    _atom_site_fract_x
    _atom_site_fract_y
    _atom_site_fract_z
    _atom_site_occupancy
    O1       O        0.00470    0.61080    0.79620    1.000
    O2       O        0.07190    0.66260    0.78900    1.000
    O3       O        0.11551    0.48472    0.98612    1.000
    O4       O        0.95652    0.40516    0.96445    1.000
    H1       H        0.12530    0.79210    0.12460    1.000
    C1       C        0.93730    0.40760    0.73259    1.000
    H2       H        0.94960    0.37160    0.74380    1.000
    C2       C        0.90020    0.38870    0.69984    1.000
    C3       C        0.01110    0.55440    0.80410    1.000
    C4       C        0.03990    0.47470    0.89140    1.000
    H3       H        0.03860    0.42830    0.90000    1.000
    C5       C        0.02170    0.47580    0.85600    1.000
    H4       H        0.00240    0.42960    0.84190    1.000
    C6       C        0.03240    0.54650    0.84200    1.000
    C7       C        0.04900    0.44200    0.86380    1.000
    H5       H        0.05020    0.39690    0.85530    1.000
    C8       C        0.06420    0.60120    0.89880    1.000
    H6       H        0.07910    0.64500    0.91410    1.000
    C9       C        0.10040    0.45720    0.01691    1.000
    O5       O        0.67137    0.94413    0.12953    1.000
    O6       O        0.73857    0.99593    0.12233    1.000
    O7       O        0.78218    0.81805    0.31945    1.000
    O8       O        0.62319    0.73849    0.29778    1.000
    H7       H        0.79197    0.12543    0.45793    1.000
    C10      C        0.60397    0.74093    0.06592    1.000
    H8       H        0.61627    0.70493    0.07713    1.000
    C11      C        0.56687    0.72203    0.03317    1.000
    C12      C        0.67777    0.88773    0.13743    1.000
    C13      C        0.70657    0.80803    0.22473    1.000
    H9       H        0.70527    0.76163    0.23333    1.000
    C14      C        0.68837    0.80913    0.18933    1.000
    H10      H        0.66907    0.76293    0.17523    1.000
    C15      C        0.69907    0.87983    0.17533    1.000
    C16      C        0.71567    0.77533    0.19713    1.000
    H11      H        0.71687    0.73023    0.18863    1.000
    C17      C        0.73087    0.93453    0.23213    1.000
    H12      H        0.74577    0.97833    0.24743    1.000
    C18      C        0.76707    0.79053    0.35024    1.000
    O9       O        0.33803    0.27747    0.46287    1.000
    O10      O        0.40523    0.32927    0.45567    1.000
    O11      O        0.44884    0.15139    0.65279    1.000
    O12      O        0.28985    0.07183    0.63112    1.000
    H13      H        0.45863    0.45877    0.79127    1.000
    C19      C        0.27063    0.07427    0.39926    1.000
    H14      H        0.28293    0.03827    0.41047    1.000
    C20      C        0.23353    0.05537    0.36651    1.000
    C21      C        0.34443    0.22107    0.47077    1.000
    C22      C        0.37323    0.14137    0.55807    1.000
    H15      H        0.37193    0.09497    0.56667    1.000
    C23      C        0.35503    0.14247    0.52267    1.000
    H16      H        0.33573    0.09627    0.50857    1.000
    C24      C        0.36573    0.21317    0.50867    1.000
    C25      C        0.38233    0.10867    0.53047    1.000
    H17      H        0.38353    0.06357    0.52197    1.000
    C26      C        0.39753    0.26787    0.56547    1.000
    H18      H        0.41243    0.31167    0.58077    1.000
    C27      C        0.43373    0.12387    0.68358    1.000
    O13      O        0.38920    0.39390    0.79620    1.000
    O14      O        0.33740    0.40930    0.78900    1.000
    O15      O        0.51528    0.63079    0.98612    1.000
    O16      O        0.59484    0.55136    0.96445    1.000
    H19      H        0.20790    0.33320    0.12460    1.000
    C28      C        0.59240    0.52970    0.73259    1.000
    H20      H        0.62840    0.57800    0.74380    1.000
    C29      C        0.61130    0.51150    0.69984    1.000
    C30      C        0.44560    0.45670    0.80410    1.000
    C31      C        0.52530    0.56520    0.89140    1.000
    H21      H        0.57170    0.61030    0.90000    1.000
    C32      C        0.52420    0.54590    0.85600    1.000
    H22      H        0.57040    0.57280    0.84190    1.000
    C33      C        0.45350    0.48590    0.84200    1.000
    C34      C        0.55800    0.60700    0.86380    1.000
    H23      H        0.60310    0.65330    0.85530    1.000
    C35      C        0.39880    0.46300    0.89880    1.000
    H24      H        0.35500    0.43410    0.91410    1.000
    C36      C        0.54280    0.64320    0.01691    1.000
    O17      O        0.05587    0.72723    0.12953    1.000
    O18      O        0.00407    0.74263    0.12233    1.000
    O19      O        0.18195    0.96412    0.31945    1.000
    O20      O        0.26151    0.88469    0.29778    1.000
    H25      H        0.87457    0.66653    0.45793    1.000
    C37      C        0.25907    0.86303    0.06592    1.000
    H26      H        0.29507    0.91133    0.07713    1.000
    C38      C        0.27797    0.84483    0.03317    1.000
    C39      C        0.11227    0.79003    0.13743    1.000
    C40      C        0.19197    0.89853    0.22473    1.000
    H27      H        0.23837    0.94363    0.23333    1.000
    C41      C        0.19087    0.87923    0.18933    1.000
    H28      H        0.23707    0.90613    0.17523    1.000
    C42      C        0.12017    0.81923    0.17533    1.000
    C43      C        0.22467    0.94033    0.19713    1.000
    H29      H        0.26977    0.98663    0.18863    1.000
    C44      C        0.06547    0.79633    0.23213    1.000
    H30      H        0.02167    0.76743    0.24743    1.000
    C45      C        0.20947    0.97653    0.35024    1.000
    O21      O        0.72253    0.06057    0.46287    1.000
    O22      O        0.67073    0.07597    0.45567    1.000
    O23      O        0.84861    0.29746    0.65279    1.000
    O24      O        0.92817    0.21803    0.63112    1.000
    H31      H        0.54123    0.99987    0.79127    1.000
    C46      C        0.92573    0.19637    0.39926    1.000
    H32      H        0.96173    0.24467    0.41047    1.000
    C47      C        0.94463    0.17817    0.36651    1.000
    C48      C        0.77893    0.12337    0.47077    1.000
    C49      C        0.85863    0.23187    0.55807    1.000
    H33      H        0.90503    0.27697    0.56667    1.000
    C50      C        0.85753    0.21257    0.52267    1.000
    H34      H        0.90373    0.23947    0.50857    1.000
    C51      C        0.78683    0.15257    0.50867    1.000
    C52      C        0.89133    0.27367    0.53047    1.000
    H35      H        0.93643    0.31997    0.52197    1.000
    C53      C        0.73213    0.12967    0.56547    1.000
    H36      H        0.68833    0.10077    0.58077    1.000
    C54      C        0.87613    0.30987    0.68358    1.000
    O25      O        0.60610    0.99530    0.79620    1.000
    O26      O        0.59070    0.92810    0.78900    1.000
    O27      O        0.36921    0.88449    0.98612    1.000
    O28      O        0.44864    0.04348    0.96445    1.000
    H37      H        0.66680    0.87470    0.12460    1.000
    C55      C        0.47030    0.06270    0.73259    1.000
    H38      H        0.42200    0.05040    0.74380    1.000
    C56      C        0.48850    0.09980    0.69984    1.000
    C57      C        0.54330    0.98890    0.80410    1.000
    C58      C        0.43480    0.96010    0.89140    1.000
    H39      H        0.38970    0.96140    0.90000    1.000
    C59      C        0.45410    0.97830    0.85600    1.000
    H40      H        0.42720    0.99760    0.84190    1.000
    C60      C        0.51410    0.96760    0.84200    1.000
    C61      C        0.39300    0.95100    0.86380    1.000
    H41      H        0.34670    0.94980    0.85530    1.000
    C62      C        0.53700    0.93580    0.89880    1.000
    H42      H        0.56590    0.92090    0.91410    1.000
    C63      C        0.35680    0.89960    0.01691    1.000
    O29      O        0.27277    0.32863    0.12953    1.000
    O30      O        0.25737    0.26143    0.12233    1.000
    O31      O        0.03588    0.21782    0.31945    1.000
    O32      O        0.11531    0.37681    0.29778    1.000
    H43      H        0.33347    0.20803    0.45793    1.000
    C64      C        0.13697    0.39603    0.06592    1.000
    H44      H        0.08867    0.38373    0.07713    1.000
    C65      C        0.15517    0.43313    0.03317    1.000
    C66      C        0.20997    0.32223    0.13743    1.000
    C67      C        0.10147    0.29343    0.22473    1.000
    H45      H        0.05637    0.29473    0.23333    1.000
    C68      C        0.12077    0.31163    0.18933    1.000
    H46      H        0.09387    0.33093    0.17523    1.000
    C69      C        0.18077    0.30093    0.17533    1.000
    C70      C        0.05967    0.28433    0.19713    1.000
    H47      H        0.01337    0.28313    0.18863    1.000
    C71      C        0.20367    0.26913    0.23213    1.000
    H48      H        0.23257    0.25423    0.24743    1.000
    C72      C        0.02347    0.23293    0.35024    1.000
    O33      O        0.93943    0.66197    0.46287    1.000
    O34      O        0.92403    0.59477    0.45567    1.000
    O35      O        0.70254    0.55116    0.65279    1.000
    O36      O        0.78197    0.71015    0.63112    1.000
    H49      H        0.00013    0.54137    0.79127    1.000
    C73      C        0.80363    0.72937    0.39926    1.000
    H50      H        0.75533    0.71707    0.41047    1.000
    C74      C        0.82183    0.76647    0.36651    1.000
    C75      C        0.87663    0.65557    0.47077    1.000
    C76      C        0.76813    0.62677    0.55807    1.000
    H51      H        0.72303    0.62807    0.56667    1.000
    C77      C        0.78743    0.64497    0.52267    1.000
    H52      H        0.76053    0.66427    0.50857    1.000
    C78      C        0.84743    0.63427    0.50867    1.000
    C79      C        0.72633    0.61767    0.53047    1.000
    H53      H        0.68003    0.61647    0.52197    1.000
    C80      C        0.87033    0.60247    0.56547    1.000
    H54      H        0.89923    0.58757    0.58077    1.000
    C81      C        0.69013    0.56627    0.68358    1.000
    O37      O        0.61080    0.00470    0.20380    1.000
    O38      O        0.66260    0.07190    0.21100    1.000
    O39      O        0.48472    0.11551    0.01388    1.000
    O40      O        0.40516    0.95652    0.03555    1.000
    H55      H        0.79210    0.12530    0.87540    1.000
    C82      C        0.40760    0.93730    0.26741    1.000
    H56      H        0.37160    0.94960    0.25620    1.000
    C83      C        0.38870    0.90020    0.30016    1.000
    C84      C        0.55440    0.01110    0.19590    1.000
    C85      C        0.47470    0.03990    0.10860    1.000
    H57      H        0.42830    0.03860    0.10000    1.000
    C86      C        0.47580    0.02170    0.14400    1.000
    H58      H        0.42960    0.00240    0.15810    1.000
    C87      C        0.54650    0.03240    0.15800    1.000
    C88      C        0.44200    0.04900    0.13620    1.000
    H59      H        0.39690    0.05020    0.14470    1.000
    C89      C        0.60120    0.06420    0.10120    1.000
    H60      H        0.64500    0.07910    0.08590    1.000
    C90      C        0.45720    0.10040    0.98309    1.000
    O41      O        0.27747    0.33803    0.53713    1.000
    O42      O        0.32927    0.40523    0.54433    1.000
    O43      O        0.15139    0.44884    0.34721    1.000
    O44      O        0.07183    0.28985    0.36888    1.000
    H61      H        0.45877    0.45863    0.20873    1.000
    C91      C        0.07427    0.27063    0.60074    1.000
    H62      H        0.03827    0.28293    0.58953    1.000
    C92      C        0.05537    0.23353    0.63349    1.000
    C93      C        0.22107    0.34443    0.52923    1.000
    C94      C        0.14137    0.37323    0.44193    1.000
    H63      H        0.09497    0.37193    0.43333    1.000
    C95      C        0.14247    0.35503    0.47733    1.000
    H64      H        0.09627    0.33573    0.49143    1.000
    C96      C        0.21317    0.36573    0.49133    1.000
    C97      C        0.10867    0.38233    0.46953    1.000
    H65      H        0.06357    0.38353    0.47803    1.000
    C98      C        0.26787    0.39753    0.43453    1.000
    H66      H        0.31167    0.41243    0.41923    1.000
    C99      C        0.12387    0.43373    0.31642    1.000
    O45      O        0.94413    0.67137    0.87047    1.000
    O46      O        0.99593    0.73857    0.87767    1.000
    O47      O        0.81805    0.78218    0.68055    1.000
    O48      O        0.73849    0.62319    0.70222    1.000
    H67      H        0.12543    0.79197    0.54207    1.000
    C100     C        0.74093    0.60397    0.93408    1.000
    H68      H        0.70493    0.61627    0.92287    1.000
    C101     C        0.72203    0.56687    0.96683    1.000
    C102     C        0.88773    0.67777    0.86257    1.000
    C103     C        0.80803    0.70657    0.77527    1.000
    H69      H        0.76163    0.70527    0.76667    1.000
    C104     C        0.80913    0.68837    0.81067    1.000
    H70      H        0.76293    0.66907    0.82477    1.000
    C105     C        0.87983    0.69907    0.82467    1.000
    C106     C        0.77533    0.71567    0.80287    1.000
    H71      H        0.73023    0.71687    0.81137    1.000
    C107     C        0.93453    0.73087    0.76787    1.000
    H72      H        0.97833    0.74577    0.75257    1.000
    C108     C        0.79053    0.76707    0.64976    1.000
    O49      O        0.39390    0.38920    0.20380    1.000
    O50      O        0.40930    0.33740    0.21100    1.000
    O51      O        0.63079    0.51528    0.01388    1.000
    O52      O        0.55136    0.59484    0.03555    1.000
    H73      H        0.33320    0.20790    0.87540    1.000
    C109     C        0.52970    0.59240    0.26741    1.000
    H74      H        0.57800    0.62840    0.25620    1.000
    C110     C        0.51150    0.61130    0.30016    1.000
    C111     C        0.45670    0.44560    0.19590    1.000
    C112     C        0.56520    0.52530    0.10860    1.000
    H75      H        0.61030    0.57170    0.10000    1.000
    C113     C        0.54590    0.52420    0.14400    1.000
    H76      H        0.57280    0.57040    0.15810    1.000
    C114     C        0.48590    0.45350    0.15800    1.000
    C115     C        0.60700    0.55800    0.13620    1.000
    H77      H        0.65330    0.60310    0.14470    1.000
    C116     C        0.46300    0.39880    0.10120    1.000
    H78      H        0.43410    0.35500    0.08590    1.000
    C117     C        0.64320    0.54280    0.98309    1.000
    O53      O        0.06057    0.72253    0.53713    1.000
    O54      O        0.07597    0.67073    0.54433    1.000
    O55      O        0.29746    0.84861    0.34721    1.000
    O56      O        0.21803    0.92817    0.36888    1.000
    H79      H        0.99987    0.54123    0.20873    1.000
    C118     C        0.19637    0.92573    0.60074    1.000
    H80      H        0.24467    0.96173    0.58953    1.000
    C119     C        0.17817    0.94463    0.63349    1.000
    C120     C        0.12337    0.77893    0.52923    1.000
    C121     C        0.23187    0.85863    0.44193    1.000
    H81      H        0.27697    0.90503    0.43333    1.000
    C122     C        0.21257    0.85753    0.47733    1.000
    H82      H        0.23947    0.90373    0.49143    1.000
    C123     C        0.15257    0.78683    0.49133    1.000
    C124     C        0.27367    0.89133    0.46953    1.000
    H83      H        0.31997    0.93643    0.47803    1.000
    C125     C        0.12967    0.73213    0.43453    1.000
    H84      H        0.10077    0.68833    0.41923    1.000
    C126     C        0.30987    0.87613    0.31642    1.000
    O57      O        0.72723    0.05587    0.87047    1.000
    O58      O        0.74263    0.00407    0.87767    1.000
    O59      O        0.96412    0.18195    0.68055    1.000
    O60      O        0.88469    0.26151    0.70222    1.000
    H85      H        0.66653    0.87457    0.54207    1.000
    C127     C        0.86303    0.25907    0.93408    1.000
    H86      H        0.91133    0.29507    0.92287    1.000
    C128     C        0.84483    0.27797    0.96683    1.000
    C129     C        0.79003    0.11227    0.86257    1.000
    C130     C        0.89853    0.19197    0.77527    1.000
    H87      H        0.94363    0.23837    0.76667    1.000
    C131     C        0.87923    0.19087    0.81067    1.000
    H88      H        0.90613    0.23707    0.82477    1.000
    C132     C        0.81923    0.12017    0.82467    1.000
    C133     C        0.94033    0.22467    0.80287    1.000
    H89      H        0.98663    0.26977    0.81137    1.000
    C134     C        0.79633    0.06547    0.76787    1.000
    H90      H        0.76743    0.02167    0.75257    1.000
    C135     C        0.97653    0.20947    0.64976    1.000
    O61      O        0.99530    0.60610    0.20380    1.000
    O62      O        0.92810    0.59070    0.21100    1.000
    O63      O        0.88449    0.36921    0.01388    1.000
    O64      O        0.04348    0.44864    0.03555    1.000
    H91      H        0.87470    0.66680    0.87540    1.000
    C136     C        0.06270    0.47030    0.26741    1.000
    H92      H        0.05040    0.42200    0.25620    1.000
    C137     C        0.09980    0.48850    0.30016    1.000
    C138     C        0.98890    0.54330    0.19590    1.000
    C139     C        0.96010    0.43480    0.10860    1.000
    H93      H        0.96140    0.38970    0.10000    1.000
    C140     C        0.97830    0.45410    0.14400    1.000
    H94      H        0.99760    0.42720    0.15810    1.000
    C141     C        0.96760    0.51410    0.15800    1.000
    C142     C        0.95100    0.39300    0.13620    1.000
    H95      H        0.94980    0.34670    0.14470    1.000
    C143     C        0.93580    0.53700    0.10120    1.000
    H96      H        0.92090    0.56590    0.08590    1.000
    C144     C        0.89960    0.35680    0.98309    1.000
    O65      O        0.66197    0.93943    0.53713    1.000
    O66      O        0.59477    0.92403    0.54433    1.000
    O67      O        0.55116    0.70254    0.34721    1.000
    O68      O        0.71015    0.78197    0.36888    1.000
    H97      H        0.54137    0.00013    0.20873    1.000
    C145     C        0.72937    0.80363    0.60074    1.000
    H98      H        0.71707    0.75533    0.58953    1.000
    C146     C        0.76647    0.82183    0.63349    1.000
    C147     C        0.65557    0.87663    0.52923    1.000
    C148     C        0.62677    0.76813    0.44193    1.000
    H99      H        0.62807    0.72303    0.43333    1.000
    C149     C        0.64497    0.78743    0.47733    1.000
    H100     H        0.66427    0.76053    0.49143    1.000
    C150     C        0.63427    0.84743    0.49133    1.000
    C151     C        0.61767    0.72633    0.46953    1.000
    H101     H        0.61647    0.68003    0.47803    1.000
    C152     C        0.60247    0.87033    0.43453    1.000
    H102     H        0.58757    0.89923    0.41923    1.000
    C153     C        0.56627    0.69013    0.31642    1.000
    O69      O        0.32863    0.27277    0.87047    1.000
    O70      O        0.26143    0.25737    0.87767    1.000
    O71      O        0.21782    0.03588    0.68055    1.000
    O72      O        0.37681    0.11531    0.70222    1.000
    H103     H        0.20803    0.33347    0.54207    1.000
    C154     C        0.39603    0.13697    0.93408    1.000
    H104     H        0.38373    0.08867    0.92287    1.000
    C155     C        0.43313    0.15517    0.96683    1.000
    C156     C        0.32223    0.20997    0.86257    1.000
    C157     C        0.29343    0.10147    0.77527    1.000
    H105     H        0.29473    0.05637    0.76667    1.000
    C158     C        0.31163    0.12077    0.81067    1.000
    H106     H        0.33093    0.09387    0.82477    1.000
    C159     C        0.30093    0.18077    0.82467    1.000
    C160     C        0.28433    0.05967    0.80287    1.000
    H107     H        0.28313    0.01337    0.81137    1.000
    C161     C        0.26913    0.20367    0.76787    1.000
    H108     H        0.25423    0.23257    0.75257    1.000
    C162     C        0.23293    0.02347    0.64976    1.000
    O73      O        0.99530    0.38920    0.20380    1.000
    O74      O        0.92810    0.33740    0.21100    1.000
    O75      O        0.88449    0.51528    0.01388    1.000
    O76      O        0.04348    0.59484    0.03555    1.000
    H109     H        0.87470    0.20790    0.87540    1.000
    C163     C        0.06270    0.59240    0.26741    1.000
    H110     H        0.05040    0.62840    0.25620    1.000
    C164     C        0.09980    0.61130    0.30016    1.000
    C165     C        0.98890    0.44560    0.19590    1.000
    C166     C        0.96010    0.52530    0.10860    1.000
    H111     H        0.96140    0.57170    0.10000    1.000
    C167     C        0.97830    0.52420    0.14400    1.000
    H112     H        0.99760    0.57040    0.15810    1.000
    C168     C        0.96760    0.45350    0.15800    1.000
    C169     C        0.95100    0.55800    0.13620    1.000
    H113     H        0.94980    0.60310    0.14470    1.000
    C170     C        0.93580    0.39880    0.10120    1.000
    H114     H        0.92090    0.35500    0.08590    1.000
    C171     C        0.89960    0.54280    0.98309    1.000
    O77      O        0.66197    0.72253    0.53713    1.000
    O78      O        0.59477    0.67073    0.54433    1.000
    O79      O        0.55116    0.84861    0.34721    1.000
    O80      O        0.71015    0.92817    0.36888    1.000
    H115     H        0.54137    0.54123    0.20873    1.000
    C172     C        0.72937    0.92573    0.60074    1.000
    H116     H        0.71707    0.96173    0.58953    1.000
    C173     C        0.76647    0.94463    0.63349    1.000
    C174     C        0.65557    0.77893    0.52923    1.000
    C175     C        0.62677    0.85863    0.44193    1.000
    H117     H        0.62807    0.90503    0.43333    1.000
    C176     C        0.64497    0.85753    0.47733    1.000
    H118     H        0.66427    0.90373    0.49143    1.000
    C177     C        0.63427    0.78683    0.49133    1.000
    C178     C        0.61767    0.89133    0.46953    1.000
    H119     H        0.61647    0.93643    0.47803    1.000
    C179     C        0.60247    0.73213    0.43453    1.000
    H120     H        0.58757    0.68833    0.41923    1.000
    C180     C        0.56627    0.87613    0.31642    1.000
    O81      O        0.32863    0.05587    0.87047    1.000
    O82      O        0.26143    0.00407    0.87767    1.000
    O83      O        0.21782    0.18195    0.68055    1.000
    O84      O        0.37681    0.26151    0.70222    1.000
    H121     H        0.20803    0.87457    0.54207    1.000
    C181     C        0.39603    0.25907    0.93408    1.000
    H122     H        0.38373    0.29507    0.92287    1.000
    C182     C        0.43313    0.27797    0.96683    1.000
    C183     C        0.32223    0.11227    0.86257    1.000
    C184     C        0.29343    0.19197    0.77527    1.000
    H123     H        0.29473    0.23837    0.76667    1.000
    C185     C        0.31163    0.19087    0.81067    1.000
    H124     H        0.33093    0.23707    0.82477    1.000
    C186     C        0.30093    0.12017    0.82467    1.000
    C187     C        0.28433    0.22467    0.80287    1.000
    H125     H        0.28313    0.26977    0.81137    1.000
    C188     C        0.26913    0.06547    0.76787    1.000
    H126     H        0.25423    0.02167    0.75257    1.000
    C189     C        0.23293    0.20947    0.64976    1.000
    O85      O        0.61080    0.60610    0.20380    1.000
    O86      O        0.66260    0.59070    0.21100    1.000
    O87      O        0.48472    0.36921    0.01388    1.000
    O88      O        0.40516    0.44864    0.03555    1.000
    H127     H        0.79210    0.66680    0.87540    1.000
    C190     C        0.40760    0.47030    0.26741    1.000
    H128     H        0.37160    0.42200    0.25620    1.000
    C191     C        0.38870    0.48850    0.30016    1.000
    C192     C        0.55440    0.54330    0.19590    1.000
    C193     C        0.47470    0.43480    0.10860    1.000
    H129     H        0.42830    0.38970    0.10000    1.000
    C194     C        0.47580    0.45410    0.14400    1.000
    H130     H        0.42960    0.42720    0.15810    1.000
    C195     C        0.54650    0.51410    0.15800    1.000
    C196     C        0.44200    0.39300    0.13620    1.000
    H131     H        0.39690    0.34670    0.14470    1.000
    C197     C        0.60120    0.53700    0.10120    1.000
    H132     H        0.64500    0.56590    0.08590    1.000
    C198     C        0.45720    0.35680    0.98309    1.000
    O89      O        0.27747    0.93943    0.53713    1.000
    O90      O        0.32927    0.92403    0.54433    1.000
    O91      O        0.15139    0.70254    0.34721    1.000
    O92      O        0.07183    0.78197    0.36888    1.000
    H133     H        0.45877    0.00013    0.20873    1.000
    C199     C        0.07427    0.80363    0.60074    1.000
    H134     H        0.03827    0.75533    0.58953    1.000
    C200     C        0.05537    0.82183    0.63349    1.000
    C201     C        0.22107    0.87663    0.52923    1.000
    C202     C        0.14137    0.76813    0.44193    1.000
    H135     H        0.09497    0.72303    0.43333    1.000
    C203     C        0.14247    0.78743    0.47733    1.000
    H136     H        0.09627    0.76053    0.49143    1.000
    C204     C        0.21317    0.84743    0.49133    1.000
    C205     C        0.10867    0.72633    0.46953    1.000
    H137     H        0.06357    0.68003    0.47803    1.000
    C206     C        0.26787    0.87033    0.43453    1.000
    H138     H        0.31167    0.89923    0.41923    1.000
    C207     C        0.12387    0.69013    0.31642    1.000
    O93      O        0.94413    0.27277    0.87047    1.000
    O94      O        0.99593    0.25737    0.87767    1.000
    O95      O        0.81805    0.03588    0.68055    1.000
    O96      O        0.73849    0.11531    0.70222    1.000
    H139     H        0.12543    0.33347    0.54207    1.000
    C208     C        0.74093    0.13697    0.93408    1.000
    H140     H        0.70493    0.08867    0.92287    1.000
    C209     C        0.72203    0.15517    0.96683    1.000
    C210     C        0.88773    0.20997    0.86257    1.000
    C211     C        0.80803    0.10147    0.77527    1.000
    H141     H        0.76163    0.05637    0.76667    1.000
    C212     C        0.80913    0.12077    0.81067    1.000
    H142     H        0.76293    0.09387    0.82477    1.000
    C213     C        0.87983    0.18077    0.82467    1.000
    C214     C        0.77533    0.05967    0.80287    1.000
    H143     H        0.73023    0.01337    0.81137    1.000
    C215     C        0.93453    0.20367    0.76787    1.000
    H144     H        0.97833    0.23257    0.75257    1.000
    C216     C        0.79053    0.02347    0.64976    1.000
    O97      O        0.39390    0.00470    0.20380    1.000
    O98      O        0.40930    0.07190    0.21100    1.000
    O99      O        0.63079    0.11551    0.01388    1.000
    O100     O        0.55136    0.95652    0.03555    1.000
    H145     H        0.33320    0.12530    0.87540    1.000
    C217     C        0.52970    0.93730    0.26741    1.000
    H146     H        0.57800    0.94960    0.25620    1.000
    C218     C        0.51150    0.90020    0.30016    1.000
    C219     C        0.45670    0.01110    0.19590    1.000
    C220     C        0.56520    0.03990    0.10860    1.000
    H147     H        0.61030    0.03860    0.10000    1.000
    C221     C        0.54590    0.02170    0.14400    1.000
    H148     H        0.57280    0.00240    0.15810    1.000
    C222     C        0.48590    0.03240    0.15800    1.000
    C223     C        0.60700    0.04900    0.13620    1.000
    H149     H        0.65330    0.05020    0.14470    1.000
    C224     C        0.46300    0.06420    0.10120    1.000
    H150     H        0.43410    0.07910    0.08590    1.000
    C225     C        0.64320    0.10040    0.98309    1.000
    O101     O        0.06057    0.33803    0.53713    1.000
    O102     O        0.07597    0.40523    0.54433    1.000
    O103     O        0.29746    0.44884    0.34721    1.000
    O104     O        0.21803    0.28985    0.36888    1.000
    H151     H        0.99987    0.45863    0.20873    1.000
    C226     C        0.19637    0.27063    0.60074    1.000
    H152     H        0.24467    0.28293    0.58953    1.000
    C227     C        0.17817    0.23353    0.63349    1.000
    C228     C        0.12337    0.34443    0.52923    1.000
    C229     C        0.23187    0.37323    0.44193    1.000
    H153     H        0.27697    0.37193    0.43333    1.000
    C230     C        0.21257    0.35503    0.47733    1.000
    H154     H        0.23947    0.33573    0.49143    1.000
    C231     C        0.15257    0.36573    0.49133    1.000
    C232     C        0.27367    0.38233    0.46953    1.000
    H155     H        0.31997    0.38353    0.47803    1.000
    C233     C        0.12967    0.39753    0.43453    1.000
    H156     H        0.10077    0.41243    0.41923    1.000
    C234     C        0.30987    0.43373    0.31642    1.000
    O105     O        0.72723    0.67137    0.87047    1.000
    O106     O        0.74263    0.73857    0.87767    1.000
    O107     O        0.96412    0.78218    0.68055    1.000
    O108     O        0.88469    0.62319    0.70222    1.000
    H157     H        0.66653    0.79197    0.54207    1.000
    C235     C        0.86303    0.60397    0.93408    1.000
    H158     H        0.91133    0.61627    0.92287    1.000
    C236     C        0.84483    0.56687    0.96683    1.000
    C237     C        0.79003    0.67777    0.86257    1.000
    C238     C        0.89853    0.70657    0.77527    1.000
    H159     H        0.94363    0.70527    0.76667    1.000
    C239     C        0.87923    0.68837    0.81067    1.000
    H160     H        0.90613    0.66907    0.82477    1.000
    C240     C        0.81923    0.69907    0.82467    1.000
    C241     C        0.94033    0.71567    0.80287    1.000
    H161     H        0.98663    0.71687    0.81137    1.000
    C242     C        0.79633    0.73087    0.76787    1.000
    H162     H        0.76743    0.74577    0.75257    1.000
    C243     C        0.97653    0.76707    0.64976    1.000
    O109     O        0.38920    0.99530    0.79620    1.000
    O110     O        0.33740    0.92810    0.78900    1.000
    O111     O        0.51528    0.88449    0.98612    1.000
    O112     O        0.59484    0.04348    0.96445    1.000
    H163     H        0.20790    0.87470    0.12460    1.000
    C244     C        0.59240    0.06270    0.73259    1.000
    H164     H        0.62840    0.05040    0.74380    1.000
    C245     C        0.61130    0.09980    0.69984    1.000
    C246     C        0.44560    0.98890    0.80410    1.000
    C247     C        0.52530    0.96010    0.89140    1.000
    H165     H        0.57170    0.96140    0.90000    1.000
    C248     C        0.52420    0.97830    0.85600    1.000
    H166     H        0.57040    0.99760    0.84190    1.000
    C249     C        0.45350    0.96760    0.84200    1.000
    C250     C        0.55800    0.95100    0.86380    1.000
    H167     H        0.60310    0.94980    0.85530    1.000
    C251     C        0.39880    0.93580    0.89880    1.000
    H168     H        0.35500    0.92090    0.91410    1.000
    C252     C        0.54280    0.89960    0.01691    1.000
    O113     O        0.05587    0.32863    0.12953    1.000
    O114     O        0.00407    0.26143    0.12233    1.000
    O115     O        0.18195    0.21782    0.31945    1.000
    O116     O        0.26151    0.37681    0.29778    1.000
    H169     H        0.87457    0.20803    0.45793    1.000
    C253     C        0.25907    0.39603    0.06592    1.000
    H170     H        0.29507    0.38373    0.07713    1.000
    C254     C        0.27797    0.43313    0.03317    1.000
    C255     C        0.11227    0.32223    0.13743    1.000
    C256     C        0.19197    0.29343    0.22473    1.000
    H171     H        0.23837    0.29473    0.23333    1.000
    C257     C        0.19087    0.31163    0.18933    1.000
    H172     H        0.23707    0.33093    0.17523    1.000
    C258     C        0.12017    0.30093    0.17533    1.000
    C259     C        0.22467    0.28433    0.19713    1.000
    H173     H        0.26977    0.28313    0.18863    1.000
    C260     C        0.06547    0.26913    0.23213    1.000
    H174     H        0.02167    0.25423    0.24743    1.000
    C261     C        0.20947    0.23293    0.35024    1.000
    O117     O        0.72253    0.66197    0.46287    1.000
    O118     O        0.67073    0.59477    0.45567    1.000
    O119     O        0.84861    0.55116    0.65279    1.000
    O120     O        0.92817    0.71015    0.63112    1.000
    H175     H        0.54123    0.54137    0.79127    1.000
    C262     C        0.92573    0.72937    0.39926    1.000
    H176     H        0.96173    0.71707    0.41047    1.000
    C263     C        0.94463    0.76647    0.36651    1.000
    C264     C        0.77893    0.65557    0.47077    1.000
    C265     C        0.85863    0.62677    0.55807    1.000
    H177     H        0.90503    0.62807    0.56667    1.000
    C266     C        0.85753    0.64497    0.52267    1.000
    H178     H        0.90373    0.66427    0.50857    1.000
    C267     C        0.78683    0.63427    0.50867    1.000
    C268     C        0.89133    0.61767    0.53047    1.000
    H179     H        0.93643    0.61647    0.52197    1.000
    C269     C        0.73213    0.60247    0.56547    1.000
    H180     H        0.68833    0.58757    0.58077    1.000
    C270     C        0.87613    0.56627    0.68358    1.000
    O121     O        0.60610    0.61080    0.79620    1.000
    O122     O        0.59070    0.66260    0.78900    1.000
    O123     O        0.36921    0.48472    0.98612    1.000
    O124     O        0.44864    0.40516    0.96445    1.000
    H181     H        0.66680    0.79210    0.12460    1.000
    C271     C        0.47030    0.40760    0.73259    1.000
    H182     H        0.42200    0.37160    0.74380    1.000
    C272     C        0.48850    0.38870    0.69984    1.000
    C273     C        0.54330    0.55440    0.80410    1.000
    C274     C        0.43480    0.47470    0.89140    1.000
    H183     H        0.38970    0.42830    0.90000    1.000
    C275     C        0.45410    0.47580    0.85600    1.000
    H184     H        0.42720    0.42960    0.84190    1.000
    C276     C        0.51410    0.54650    0.84200    1.000
    C277     C        0.39300    0.44200    0.86380    1.000
    H185     H        0.34670    0.39690    0.85530    1.000
    C278     C        0.53700    0.60120    0.89880    1.000
    H186     H        0.56590    0.64500    0.91410    1.000
    C279     C        0.35680    0.45720    0.01691    1.000
    O125     O        0.27277    0.94413    0.12953    1.000
    O126     O        0.25737    0.99593    0.12233    1.000
    O127     O        0.03588    0.81805    0.31945    1.000
    O128     O        0.11531    0.73849    0.29778    1.000
    H187     H        0.33347    0.12543    0.45793    1.000
    C280     C        0.13697    0.74093    0.06592    1.000
    H188     H        0.08867    0.70493    0.07713    1.000
    C281     C        0.15517    0.72203    0.03317    1.000
    C282     C        0.20997    0.88773    0.13743    1.000
    C283     C        0.10147    0.80803    0.22473    1.000
    H189     H        0.05637    0.76163    0.23333    1.000
    C284     C        0.12077    0.80913    0.18933    1.000
    H190     H        0.09387    0.76293    0.17523    1.000
    C285     C        0.18077    0.87983    0.17533    1.000
    C286     C        0.05967    0.77533    0.19713    1.000
    H191     H        0.01337    0.73023    0.18863    1.000
    C287     C        0.20367    0.93453    0.23213    1.000
    H192     H        0.23257    0.97833    0.24743    1.000
    C288     C        0.02347    0.79053    0.35024    1.000
    O129     O        0.93943    0.27747    0.46287    1.000
    O130     O        0.92403    0.32927    0.45567    1.000
    O131     O        0.70254    0.15139    0.65279    1.000
    O132     O        0.78197    0.07183    0.63112    1.000
    H193     H        0.00013    0.45877    0.79127    1.000
    C289     C        0.80363    0.07427    0.39926    1.000
    H194     H        0.75533    0.03827    0.41047    1.000
    C290     C        0.82183    0.05537    0.36651    1.000
    C291     C        0.87663    0.22107    0.47077    1.000
    C292     C        0.76813    0.14137    0.55807    1.000
    H195     H        0.72303    0.09497    0.56667    1.000
    C293     C        0.78743    0.14247    0.52267    1.000
    H196     H        0.76053    0.09627    0.50857    1.000
    C294     C        0.84743    0.21317    0.50867    1.000
    C295     C        0.72633    0.10867    0.53047    1.000
    H197     H        0.68003    0.06357    0.52197    1.000
    C296     C        0.87033    0.26787    0.56547    1.000
    H198     H        0.89923    0.31167    0.58077    1.000
    C297     C        0.69013    0.12387    0.68358    1.000
    O133     O        0.00470    0.39390    0.79620    1.000
    O134     O        0.07190    0.40930    0.78900    1.000
    O135     O        0.11551    0.63079    0.98612    1.000
    O136     O        0.95652    0.55136    0.96445    1.000
    H199     H        0.12530    0.33320    0.12460    1.000
    C298     C        0.93730    0.52970    0.73259    1.000
    H200     H        0.94960    0.57800    0.74380    1.000
    C299     C        0.90020    0.51150    0.69984    1.000
    C300     C        0.01110    0.45670    0.80410    1.000
    C301     C        0.03990    0.56520    0.89140    1.000
    H201     H        0.03860    0.61030    0.90000    1.000
    C302     C        0.02170    0.54590    0.85600    1.000
    H202     H        0.00240    0.57280    0.84190    1.000
    C303     C        0.03240    0.48590    0.84200    1.000
    C304     C        0.04900    0.60700    0.86380    1.000
    H203     H        0.05020    0.65330    0.85530    1.000
    C305     C        0.06420    0.46300    0.89880    1.000
    H204     H        0.07910    0.43410    0.91410    1.000
    C306     C        0.10040    0.64320    0.01691    1.000
    O137     O        0.67137    0.72723    0.12953    1.000
    O138     O        0.73857    0.74263    0.12233    1.000
    O139     O        0.78218    0.96412    0.31945    1.000
    O140     O        0.62319    0.88469    0.29778    1.000
    H205     H        0.79197    0.66653    0.45793    1.000
    C307     C        0.60397    0.86303    0.06592    1.000
    H206     H        0.61627    0.91133    0.07713    1.000
    C308     C        0.56687    0.84483    0.03317    1.000
    C309     C        0.67777    0.79003    0.13743    1.000
    C310     C        0.70657    0.89853    0.22473    1.000
    H207     H        0.70527    0.94363    0.23333    1.000
    C311     C        0.68837    0.87923    0.18933    1.000
    H208     H        0.66907    0.90613    0.17523    1.000
    C312     C        0.69907    0.81923    0.17533    1.000
    C313     C        0.71567    0.94033    0.19713    1.000
    H209     H        0.71687    0.98663    0.18863    1.000
    C314     C        0.73087    0.79633    0.23213    1.000
    H210     H        0.74577    0.76743    0.24743    1.000
    C315     C        0.76707    0.97653    0.35024    1.000
    O141     O        0.33803    0.06057    0.46287    1.000
    O142     O        0.40523    0.07597    0.45567    1.000
    O143     O        0.44884    0.29746    0.65279    1.000
    O144     O        0.28985    0.21803    0.63112    1.000
    H211     H        0.45863    0.99987    0.79127    1.000
    C316     C        0.27063    0.19637    0.39926    1.000
    H212     H        0.28293    0.24467    0.41047    1.000
    C317     C        0.23353    0.17817    0.36651    1.000
    C318     C        0.34443    0.12337    0.47077    1.000
    C319     C        0.37323    0.23187    0.55807    1.000
    H213     H        0.37193    0.27697    0.56667    1.000
    C320     C        0.35503    0.21257    0.52267    1.000
    H214     H        0.33573    0.23947    0.50857    1.000
    C321     C        0.36573    0.15257    0.50867    1.000
    C322     C        0.38233    0.27367    0.53047    1.000
    H215     H        0.38353    0.31997    0.52197    1.000
    C323     C        0.39753    0.12967    0.56547    1.000
    H216     H        0.41243    0.10077    0.58077    1.000
    C324     C        0.43373    0.30987    0.68358    1.000
    Zn1      Zn       0.04415    0.52208    0.96599    1.000
    N1       N        0.99070    0.49535    0.78297    1.000
    N2       N        0.05771    0.52885    0.91249    1.000
    C325     C        0.95650    0.47825    0.74886    1.000
    C326     C        0.88301    0.44151    0.68334    1.000
    H217     H        0.85910    0.42955    0.66060    1.000
    Zn2      Zn       0.71082    0.85541    0.29933    1.000
    N3       N        0.65737    0.82868    0.11630    1.000
    N4       N        0.72438    0.86219    0.24582    1.000
    C327     C        0.62317    0.81158    0.08219    1.000
    C328     C        0.54968    0.77484    0.01667    1.000
    H218     H        0.52577    0.76288    0.99393    1.000
    Zn3      Zn       0.37749    0.18874    0.63266    1.000
    N5       N        0.32403    0.16202    0.44964    1.000
    N6       N        0.39104    0.19552    0.57916    1.000
    C329     C        0.28983    0.14492    0.41553    1.000
    C330     C        0.21634    0.10817    0.35001    1.000
    H219     H        0.19243    0.09622    0.32727    1.000
    Zn4      Zn       0.47792    0.52208    0.96599    1.000
    N7       N        0.50465    0.49535    0.78297    1.000
    N8       N        0.47115    0.52885    0.91249    1.000
    C331     C        0.52175    0.47825    0.74886    1.000
    C332     C        0.55849    0.44150    0.68334    1.000
    H220     H        0.57045    0.42955    0.66060    1.000
    Zn5      Zn       0.14459    0.85541    0.29933    1.000
    N9       N        0.17132    0.82868    0.11630    1.000
    N10      N        0.13781    0.86219    0.24582    1.000
    C333     C        0.18842    0.81158    0.08219    1.000
    C334     C        0.22516    0.77484    0.01667    1.000
    H221     H        0.23712    0.76288    0.99393    1.000
    Zn6      Zn       0.81126    0.18874    0.63266    1.000
    N11      N        0.83798    0.16202    0.44964    1.000
    N12      N        0.80448    0.19552    0.57916    1.000
    C335     C        0.85508    0.14492    0.41553    1.000
    C336     C        0.89183    0.10817    0.35001    1.000
    H222     H        0.90378    0.09622    0.32727    1.000
    Zn7      Zn       0.47792    0.95585    0.96599    1.000
    N13      N        0.50465    0.00930    0.78297    1.000
    N14      N        0.47115    0.94229    0.91249    1.000
    C337     C        0.52175    0.04350    0.74886    1.000
    C338     C        0.55849    0.11699    0.68334    1.000
    H223     H        0.57045    0.14090    0.66060    1.000
    Zn8      Zn       0.14459    0.28918    0.29933    1.000
    N15      N        0.17132    0.34263    0.11630    1.000
    N16      N        0.13781    0.27562    0.24582    1.000
    C339     C        0.18842    0.37683    0.08219    1.000
    C340     C        0.22516    0.45032    0.01667    1.000
    H224     H        0.23712    0.47423    0.99393    1.000
    Zn9      Zn       0.81126    0.62251    0.63266    1.000
    N17      N        0.83798    0.67597    0.44964    1.000
    N18      N        0.80448    0.60896    0.57916    1.000
    C341     C        0.85508    0.71017    0.41553    1.000
    C342     C        0.89183    0.78366    0.35001    1.000
    H225     H        0.90378    0.80757    0.32727    1.000
    Zn10     Zn       0.52208    0.04415    0.03401    1.000
    N19      N        0.49535    0.99070    0.21703    1.000
    N20      N        0.52885    0.05771    0.08751    1.000
    C343     C        0.47825    0.95650    0.25114    1.000
    C344     C        0.44151    0.88301    0.31666    1.000
    H226     H        0.42955    0.85910    0.33940    1.000
    Zn11     Zn       0.18874    0.37749    0.36734    1.000
    N21      N        0.16202    0.32403    0.55036    1.000
    N22      N        0.19552    0.39104    0.42084    1.000
    C345     C        0.14492    0.28983    0.58447    1.000
    C346     C        0.10817    0.21634    0.64999    1.000
    H227     H        0.09622    0.19243    0.67273    1.000
    Zn12     Zn       0.85541    0.71082    0.70067    1.000
    N23      N        0.82868    0.65737    0.88370    1.000
    N24      N        0.86219    0.72438    0.75418    1.000
    C347     C        0.81158    0.62317    0.91781    1.000
    C348     C        0.77484    0.54968    0.98333    1.000
    H228     H        0.76288    0.52577    0.00607    1.000
    Zn13     Zn       0.52208    0.47792    0.03401    1.000
    N25      N        0.49535    0.50465    0.21703    1.000
    N26      N        0.52885    0.47114    0.08751    1.000
    C349     C        0.47825    0.52175    0.25114    1.000
    C350     C        0.44150    0.55849    0.31666    1.000
    H229     H        0.42955    0.57045    0.33940    1.000
    Zn14     Zn       0.18874    0.81126    0.36734    1.000
    N27      N        0.16202    0.83798    0.55036    1.000
    N28      N        0.19552    0.80448    0.42084    1.000
    C351     C        0.14492    0.85508    0.58447    1.000
    C352     C        0.10817    0.89183    0.64999    1.000
    H230     H        0.09622    0.90378    0.67273    1.000
    Zn15     Zn       0.85541    0.14459    0.70067    1.000
    N29      N        0.82868    0.17132    0.88370    1.000
    N30      N        0.86219    0.13781    0.75418    1.000
    C353     C        0.81158    0.18842    0.91781    1.000
    C354     C        0.77484    0.22516    0.98333    1.000
    H231     H        0.76288    0.23712    0.00607    1.000
    Zn16     Zn       0.95585    0.47792    0.03401    1.000
    N31      N        0.00930    0.50465    0.21703    1.000
    N32      N        0.94229    0.47115    0.08751    1.000
    C355     C        0.04350    0.52175    0.25114    1.000
    C356     C        0.11699    0.55849    0.31666    1.000
    H232     H        0.14090    0.57045    0.33940    1.000
    Zn17     Zn       0.62251    0.81126    0.36734    1.000
    N33      N        0.67597    0.83798    0.55036    1.000
    N34      N        0.60896    0.80448    0.42084    1.000
    C357     C        0.71017    0.85508    0.58447    1.000
    C358     C        0.78366    0.89183    0.64999    1.000
    H233     H        0.80757    0.90378    0.67273    1.000
    Zn18     Zn       0.28918    0.14459    0.70067    1.000
    N35      N        0.34263    0.17132    0.88370    1.000
    N36      N        0.27562    0.13781    0.75418    1.000
    C359     C        0.37683    0.18842    0.91781    1.000
    C360     C        0.45032    0.22516    0.98333    1.000
    H234     H        0.47423    0.23712    0.00607    1.000
