data_functionalizedCrystal
_audit_creation_method	'EQeq! by Chris Wilmer'
_symmetry_space_group_name_H-M	'P1'
_symmetry_Int_Tables_number	1
_symmetry_cell_setting	triclinic
loop_
_symmetry_equiv_pos_as_xyz
  x,y,z
_cell_length_a	18.465
_cell_length_b	9.2442
_cell_length_c	19.699
_cell_angle_alpha	90
_cell_angle_beta	102.18
_cell_angle_gamma	90
loop_
_atom_site_label
_atom_site_type_symbol
_atom_site_fract_x
_atom_site_fract_y
_atom_site_fract_z
_atom_site_charge
Mof_Dy	Dy	0.02077	0.21845	0.99515	2.12
Mof_O 	O 	0.277	0.9838	0.0424	-0.14
Mof_C 	C 	0.2487	0.7725	0.0862	-0.028
Mof_H 	H 	0.2218	0.6972	0.1002	0.046
Mof_O 	O 	0.1308	0.0731	0.0087	-0.481
Mof_O 	O 	0.0205	0.1494	0.8795	-0.48
Mof_O 	O 	0.0987	0.8573	0.0458	-0.557
Mof_O 	O 	0.0027	0.9373	0.9239	-0.6
Mof_O 	O 	0.4653	0.8847	0.0575	-0.56
Mof_C 	C 	0.3259	0.7763	0.0905	-0.007
Mof_H 	H 	0.3598	0.7041	0.1081	0.035
Mof_O 	O 	0.408	0.0994	0.0354	-0.547
Mof_C 	C 	0.2211	0.9009	0.0575	-0.022
Mof_C 	C 	0.1423	0.9474	0.0348	0.466
Mof_C 	C 	0.3414	0.9058	0.0639	-0.05
Mof_C 	C 	0.0017	0.9514	0.8053	-0.03
Mof_C 	C 	0.4098	0.9698	0.0515	0.47
Mof_C 	C 	0.0083	0.0172	0.8738	0.449
Mof_C 	C 	0.0009	0.8108	0.7863	-0.023
Mof_H 	H 	0.0014	0.7305	0.8149	0.034
Mof_Dy	Dy	0.52077	0.71845	0.99515	2.126
Mof_O 	O 	0.777	0.4838	0.0424	-0.138
Mof_C 	C 	0.7487	0.2725	0.0862	-0.026
Mof_H 	H 	0.7218	0.1972	0.1002	0.044
Mof_O 	O 	0.6308	0.5731	0.0087	-0.492
Mof_O 	O 	0.5205	0.6494	0.8795	-0.483
Mof_O 	O 	0.5987	0.3573	0.0458	-0.568
Mof_O 	O 	0.5027	0.4373	0.9239	-0.613
Mof_O 	O 	0.9653	0.3847	0.0575	-0.561
Mof_C 	C 	0.8259	0.2763	0.0905	-0.009
Mof_H 	H 	0.8598	0.2041	0.1081	0.035
Mof_O 	O 	0.908	0.5994	0.0354	-0.55
Mof_C 	C 	0.7211	0.4009	0.0575	-0.026
Mof_C 	C 	0.6423	0.4474	0.0348	0.476
Mof_C 	C 	0.8414	0.4058	0.0639	-0.051
Mof_C 	C 	0.5017	0.4514	0.8053	-0.038
Mof_C 	C 	0.9098	0.4698	0.0515	0.474
Mof_C 	C 	0.5083	0.5172	0.8738	0.46
Mof_C 	C 	0.5009	0.3108	0.7863	-0.026
Mof_H 	H 	0.5014	0.2305	0.8149	0.033
Mof_Dy	Dy	0.97923	0.21845	0.50485	2.104
Mof_O 	O 	0.723	0.9838	0.4576	-0.139
Mof_C 	C 	0.7513	0.7725	0.4138	-0.026
Mof_H 	H 	0.7782	0.6972	0.3998	0.043
Mof_O 	O 	0.8692	0.0731	0.4913	-0.491
Mof_O 	O 	0.9795	0.1494	0.6205	-0.482
Mof_O 	O 	0.9013	0.8573	0.4542	-0.572
Mof_O 	O 	0.9973	0.9373	0.5761	-0.614
Mof_O 	O 	0.5347	0.8847	0.4425	-0.56
Mof_C 	C 	0.6741	0.7763	0.4095	-0.009
Mof_H 	H 	0.6402	0.7041	0.3919	0.035
Mof_O 	O 	0.592	0.0994	0.4646	-0.551
Mof_C 	C 	0.7789	0.9009	0.4425	-0.027
Mof_C 	C 	0.8577	0.9474	0.4652	0.474
Mof_C 	C 	0.6586	0.9058	0.4361	-0.051
Mof_C 	C 	0.9983	0.9514	0.6947	-0.037
Mof_C 	C 	0.5902	0.9698	0.4485	0.474
Mof_C 	C 	0.9917	0.0172	0.6262	0.457
Mof_C 	C 	0.9991	0.8108	0.7137	-0.031
Mof_H 	H 	0.9986	0.7305	0.6851	0.034
Mof_Dy	Dy	0.47923	0.71845	0.50485	2.12
Mof_O 	O 	0.223	0.4838	0.4576	-0.138
Mof_C 	C 	0.2513	0.2725	0.4138	-0.026
Mof_H 	H 	0.2782	0.1972	0.3998	0.044
Mof_O 	O 	0.3692	0.5731	0.4913	-0.491
Mof_O 	O 	0.4795	0.6494	0.6205	-0.482
Mof_O 	O 	0.4013	0.3573	0.4542	-0.567
Mof_O 	O 	0.4973	0.4373	0.5761	-0.61
Mof_O 	O 	0.0347	0.3847	0.4425	-0.555
Mof_C 	C 	0.1741	0.2763	0.4095	-0.008
Mof_H 	H 	0.1402	0.2041	0.3919	0.036
Mof_O 	O 	0.092	0.5994	0.4646	-0.552
Mof_C 	C 	0.2789	0.4009	0.4425	-0.026
Mof_C 	C 	0.3577	0.4474	0.4652	0.474
Mof_C 	C 	0.1586	0.4058	0.4361	-0.051
Mof_C 	C 	0.4983	0.4514	0.6947	-0.037
Mof_C 	C 	0.0902	0.4698	0.4485	0.475
Mof_C 	C 	0.4917	0.5172	0.6262	0.459
Mof_C 	C 	0.4991	0.3108	0.7137	-0.027
Mof_H 	H 	0.4986	0.2305	0.6851	0.033
Mof_Dy	Dy	0.97923	0.78155	0.00485	2.092
Mof_O 	O 	0.723	0.0162	0.9576	-0.14
Mof_C 	C 	0.7513	0.2275	0.9138	-0.028
Mof_H 	H 	0.7782	0.3028	0.8998	0.044
Mof_O 	O 	0.8692	0.9269	0.9913	-0.481
Mof_O 	O 	0.9795	0.8506	0.1205	-0.481
Mof_O 	O 	0.9013	0.1427	0.9542	-0.565
Mof_O 	O 	0.9973	0.0627	0.0761	-0.608
Mof_O 	O 	0.5347	0.1153	0.9425	-0.562
Mof_C 	C 	0.6741	0.2237	0.9095	-0.008
Mof_H 	H 	0.6402	0.2959	0.8919	0.035
Mof_O 	O 	0.592	0.9006	0.9646	-0.548
Mof_C 	C 	0.7789	0.0991	0.9425	-0.024
Mof_C 	C 	0.8577	0.0526	0.9652	0.468
Mof_C 	C 	0.6586	0.0942	0.9361	-0.05
Mof_C 	C 	0.9983	0.0486	0.1947	-0.034
Mof_C 	C 	0.5902	0.0302	0.9485	0.471
Mof_C 	C 	0.9917	0.9828	0.1262	0.449
Mof_C 	C 	0.9991	0.1892	0.2137	-0.043
Mof_H 	H 	0.9986	0.2695	0.1851	0.038
Mof_Dy	Dy	0.47923	0.28155	0.00485	2.131
Mof_O 	O 	0.223	0.5162	0.9576	-0.138
Mof_C 	C 	0.2513	0.7275	0.9138	-0.026
Mof_H 	H 	0.2782	0.8028	0.8998	0.044
Mof_O 	O 	0.3692	0.4269	0.9913	-0.493
Mof_O 	O 	0.4795	0.3506	0.1205	-0.483
Mof_O 	O 	0.4013	0.6427	0.9542	-0.568
Mof_O 	O 	0.4973	0.5627	0.0761	-0.611
Mof_O 	O 	0.0347	0.6153	0.9425	-0.554
Mof_C 	C 	0.1741	0.7237	0.9095	-0.009
Mof_H 	H 	0.1402	0.7959	0.8919	0.036
Mof_O 	O 	0.092	0.4006	0.9646	-0.551
Mof_C 	C 	0.2789	0.5991	0.9425	-0.026
Mof_C 	C 	0.3577	0.5526	0.9652	0.475
Mof_C 	C 	0.1586	0.5942	0.9361	-0.05
Mof_C 	C 	0.4983	0.5486	0.1947	-0.037
Mof_C 	C 	0.0902	0.5302	0.9485	0.474
Mof_C 	C 	0.4917	0.4828	0.1262	0.46
Mof_C 	C 	0.4991	0.6892	0.2137	-0.026
Mof_H 	H 	0.4986	0.7695	0.1851	0.033
Mof_Dy	Dy	0.02077	0.78155	0.49515	2.138
Mof_O 	O 	0.277	0.0162	0.5424	-0.139
Mof_C 	C 	0.2487	0.2275	0.5862	-0.027
Mof_H 	H 	0.2218	0.3028	0.6002	0.044
Mof_O 	O 	0.1308	0.9269	0.5087	-0.492
Mof_O 	O 	0.0205	0.8506	0.3795	-0.481
Mof_O 	O 	0.0987	0.1427	0.5458	-0.563
Mof_O 	O 	0.0027	0.0627	0.4239	-0.605
Mof_O 	O 	0.4653	0.1153	0.5575	-0.56
Mof_C 	C 	0.3259	0.2237	0.5905	-0.008
Mof_H 	H 	0.3598	0.2959	0.6081	0.035
Mof_O 	O 	0.408	0.9006	0.5354	-0.551
Mof_C 	C 	0.2211	0.0991	0.5575	-0.026
Mof_C 	C 	0.1423	0.0526	0.5348	0.473
Mof_C 	C 	0.3414	0.0942	0.5639	-0.051
Mof_C 	C 	0.0017	0.0486	0.3053	-0.037
Mof_C 	C 	0.4098	0.0302	0.5515	0.474
Mof_C 	C 	0.0083	0.9828	0.3738	0.457
Mof_C 	C 	0.0009	0.1892	0.2863	-0.01
Mof_H 	H 	0.0014	0.2695	0.3149	0.031
Mof_Dy	Dy	0.52077	0.28155	0.49515	2.12
Mof_O 	O 	0.777	0.5162	0.5424	-0.138
Mof_C 	C 	0.7487	0.7275	0.5862	-0.027
Mof_H 	H 	0.7218	0.8028	0.6002	0.044
Mof_O 	O 	0.6308	0.4269	0.5087	-0.491
Mof_O 	O 	0.5205	0.3506	0.3795	-0.482
Mof_O 	O 	0.5987	0.6427	0.5458	-0.567
Mof_O 	O 	0.5027	0.5627	0.4239	-0.61
Mof_O 	O 	0.9653	0.6153	0.5575	-0.564
Mof_C 	C 	0.8259	0.7237	0.5905	-0.008
Mof_H 	H 	0.8598	0.7959	0.6081	0.035
Mof_O 	O 	0.908	0.4006	0.5354	-0.551
Mof_C 	C 	0.7211	0.5991	0.5575	-0.026
Mof_C 	C 	0.6423	0.5526	0.5348	0.474
Mof_C 	C 	0.8414	0.5942	0.5639	-0.052
Mof_C 	C 	0.5017	0.5486	0.3053	-0.037
Mof_C 	C 	0.9098	0.5302	0.5515	0.475
Mof_C 	C 	0.5083	0.4828	0.3738	0.459
Mof_C 	C 	0.5009	0.6892	0.2863	-0.027
Mof_H 	H 	0.5014	0.7695	0.3149	0.033
Mof_O 	O 	3.63292e-33	0.038	0.75	-0.134
Mof_O 	O 	0.5	0.538	0.75	-0.134
Mof_O 	O 	1.21097e-33	0.962	0.25	-0.13
Mof_O 	O 	0.5	0.462	0.25	-0.134
_end
