data_functionalizedCrystal
_audit_creation_method	'EQeq! by Chris Wilmer'
_symmetry_space_group_name_H-M	'P1'
_symmetry_Int_Tables_number	1
_symmetry_cell_setting	triclinic
loop_
_symmetry_equiv_pos_as_xyz
  x,y,z
_cell_length_a	6.8223
_cell_length_b	15.2689
_cell_length_c	14.9109
_cell_angle_alpha	90
_cell_angle_beta	90
_cell_angle_gamma	90
loop_
_atom_site_label
_atom_site_type_symbol
_atom_site_fract_x
_atom_site_fract_y
_atom_site_fract_z
_atom_site_charge
Mof_O 	O 	0.6354	0.34148	0.82931	-0.502
Mof_O 	O 	0.3081	0.34159	0.8402	-0.511
Mof_C 	C 	0.476	0.36797	0.8621	0.427
Mof_C 	C 	0.4882	0.43681	0.93332	-0.085
Mof_C 	C 	0.6699	0.46728	0.96138	-0.009
Mof_H 	H 	0.7837	0.4451	0.9356	0.058
Mof_C 	C 	0.6821	0.53052	0.02752	-0.01
Mof_H 	H 	0.8039	0.5512	0.0458	0.054
Mof_O 	O 	0.8646	0.65852	0.32931	-0.503
Mof_O 	O 	0.1919	0.65841	0.3402	-0.511
Mof_C 	C 	0.024	0.63203	0.3621	0.428
Mof_C 	C 	0.0118	0.56319	0.43332	-0.085
Mof_C 	C 	0.8301	0.53272	0.46138	-0.01
Mof_H 	H 	0.7163	0.5549	0.4356	0.058
Mof_C 	C 	0.8179	0.46948	0.52752	-0.009
Mof_H 	H 	0.6961	0.4488	0.5458	0.054
Mof_O 	O 	0.3646	0.84148	0.17069	-0.502
Mof_O 	O 	0.6919	0.84159	0.1598	-0.511
Mof_C 	C 	0.524	0.86797	0.1379	0.427
Mof_C 	C 	0.5118	0.93681	0.06668	-0.085
Mof_C 	C 	0.3301	0.96728	0.03862	-0.009
Mof_H 	H 	0.2163	0.9451	0.0644	0.058
Mof_C 	C 	0.3179	0.03052	0.97248	-0.01
Mof_H 	H 	0.1961	0.0512	0.9542	0.054
Mof_O 	O 	0.1354	0.15852	0.67069	-0.503
Mof_O 	O 	0.8081	0.15841	0.6598	-0.511
Mof_C 	C 	0.976	0.13203	0.6379	0.428
Mof_C 	C 	0.9882	0.06319	0.56668	-0.085
Mof_C 	C 	0.1699	0.03272	0.53862	-0.011
Mof_H 	H 	0.2837	0.0549	0.5644	0.058
Mof_C 	C 	0.1821	0.96948	0.47248	-0.008
Mof_H 	H 	0.3039	0.9488	0.4542	0.054
Mof_O 	O 	0.3646	0.65852	0.17069	-0.502
Mof_O 	O 	0.6919	0.65841	0.1598	-0.511
Mof_C 	C 	0.524	0.63203	0.1379	0.427
Mof_C 	C 	0.5118	0.56319	0.06668	-0.085
Mof_C 	C 	0.3301	0.53272	0.03862	-0.009
Mof_H 	H 	0.2163	0.5549	0.0644	0.058
Mof_C 	C 	0.3179	0.46948	0.97248	-0.01
Mof_H 	H 	0.1961	0.4488	0.9542	0.054
Mof_O 	O 	0.1354	0.34148	0.67069	-0.503
Mof_O 	O 	0.8081	0.34159	0.6598	-0.511
Mof_C 	C 	0.976	0.36797	0.6379	0.428
Mof_C 	C 	0.9882	0.43681	0.56668	-0.085
Mof_C 	C 	0.1699	0.46728	0.53862	-0.01
Mof_H 	H 	0.2837	0.4451	0.5644	0.058
Mof_C 	C 	0.1821	0.53052	0.47248	-0.009
Mof_H 	H 	0.3039	0.5512	0.4542	0.054
Mof_O 	O 	0.6354	0.15852	0.82931	-0.502
Mof_O 	O 	0.3081	0.15841	0.8402	-0.511
Mof_C 	C 	0.476	0.13203	0.8621	0.427
Mof_C 	C 	0.4882	0.06319	0.93332	-0.085
Mof_C 	C 	0.6699	0.03272	0.96138	-0.009
Mof_H 	H 	0.7837	0.0549	0.9356	0.058
Mof_C 	C 	0.6821	0.96948	0.02752	-0.01
Mof_H 	H 	0.8039	0.9488	0.0458	0.054
Mof_O 	O 	0.8646	0.84148	0.32931	-0.503
Mof_O 	O 	0.1919	0.84159	0.3402	-0.511
Mof_C 	C 	0.024	0.86797	0.3621	0.428
Mof_C 	C 	0.0118	0.93681	0.43332	-0.085
Mof_C 	C 	0.8301	0.96728	0.46138	-0.011
Mof_H 	H 	0.7163	0.9451	0.4356	0.058
Mof_C 	C 	0.8179	0.03052	0.52752	-0.008
Mof_H 	H 	0.6961	0.0512	0.5458	0.054
Mof_V 	V 	0.18782	0.25	0.76202	1.832
Mof_O 	O 	0.97	0.25	0.80487	-0.676
Mof_V 	V 	0.31218	0.75	0.26202	1.833
Mof_O 	O 	0.53	0.75	0.30487	-0.677
Mof_V 	V 	0.81218	0.75	0.23798	1.832
Mof_O 	O 	0.03	0.75	0.19513	-0.676
Mof_V 	V 	0.68782	0.25	0.73798	1.833
Mof_O 	O 	0.47	0.25	0.69513	-0.677
_end
