data_functionalizedCrystal
_audit_creation_method	'EQeq! by Chris Wilmer'
_symmetry_space_group_name_H-M	'P1'
_symmetry_Int_Tables_number	1
_symmetry_cell_setting	triclinic
loop_
_symmetry_equiv_pos_as_xyz
  x,y,z
_cell_length_a	12.435
_cell_length_b	14.584
_cell_length_c	26.0463
_cell_angle_alpha	90
_cell_angle_beta	99.1554
_cell_angle_gamma	90
loop_
_atom_site_label
_atom_site_type_symbol
_atom_site_fract_x
_atom_site_fract_y
_atom_site_fract_z
_atom_site_charge
Mof_Cu	Cu	0.12963	0.47561	0.13673	0.95
Mof_Cu	Cu	0.99282	0.66023	0.77682	0.883
Mof_Cu	Cu	0.62963	0.02439	0.63673	0.95
Mof_Cu	Cu	0.00718	0.33977	0.22318	0.883
Mof_Cu	Cu	0.50718	0.16023	0.72318	0.883
Mof_Cu	Cu	0.87038	0.52439	0.86328	0.95
Mof_Cu	Cu	0.37038	0.97561	0.36328	0.95
Mof_Cu	Cu	0.49282	0.83977	0.27682	0.883
Mof_H 	H 	0.8242	0.5003	0.5888	0.052
Mof_H 	H 	0.2957	0.8749	0.0402	0.054
Mof_H 	H 	0.7347	0.7502	0.3961	0.039
Mof_H 	H 	0.2347	0.7498	0.8961	0.039
Mof_H 	H 	0.8388	0.2397	0.6094	0.047
Mof_H 	H 	0.5612	0.2428	0.0996	0.071
Mof_H 	H 	0.7043	0.1251	0.9598	0.053
Mof_H 	H 	0.2653	0.2498	0.6039	0.039
Mof_H 	H 	0.392	0.0679	0.5166	0.046
Mof_H 	H 	0.2043	0.3749	0.4598	0.053
Mof_H 	H 	0.4388	0.7572	0.9004	0.071
Mof_H 	H 	0.2757	0.1795	0.248	0.029
Mof_H 	H 	0.892	0.4321	0.0166	0.046
Mof_H 	H 	0.3242	0.9997	0.0888	0.051
Mof_H 	H 	0.6337	0.2828	0.956	0.046
Mof_H 	H 	0.522	0.9662	0.825	0.032
Mof_H 	H 	0.022	0.5338	0.325	0.032
Mof_H 	H 	0.0612	0.2572	0.5996	0.071
Mof_H 	H 	0.8663	0.7828	0.544	0.045
Mof_H 	H 	0.7653	0.2502	0.1039	0.039
Mof_H 	H 	0.1337	0.2172	0.456	0.045
Mof_H 	H 	0.478	0.0338	0.175	0.032
Mof_H 	H 	0.1758	0.4997	0.4112	0.051
Mof_H 	H 	0.3663	0.7172	0.044	0.046
Mof_H 	H 	0.108	0.5679	0.9834	0.046
Mof_H 	H 	0.1612	0.7603	0.3906	0.047
Mof_H 	H 	0.3388	0.2603	0.1094	0.047
Mof_H 	H 	0.9388	0.7428	0.4004	0.071
Mof_H 	H 	0.978	0.4662	0.675	0.032
Mof_H 	H 	0.608	0.9321	0.4834	0.046
Mof_H 	H 	0.2243	0.6795	0.252	0.029
Mof_H 	H 	0.7243	0.8205	0.752	0.029
Mof_H 	H 	0.7757	0.3205	0.748	0.029
Mof_H 	H 	0.7957	0.6251	0.5402	0.053
Mof_H 	H 	0.6758	0.0003	0.9112	0.051
Mof_H 	H 	0.6612	0.7397	0.8906	0.047
Mof_C 	C 	0.39284	0.818	0.96194	0.022
Mof_C 	C 	0.76248	0.3639	0.97718	-0.112
Mof_C 	C 	0.59827	0.9684	0.73667	0.423
Mof_C 	C 	0.76448	0.2785	0.07188	0.005
Mof_C 	C 	0.20415	0.7319	0.32165	-0.134
Mof_C 	C 	0.23752	0.6361	0.02282	-0.112
Mof_C 	C 	0.81185	0.3294	0.71975	0.071
Mof_C 	C 	0.92539	0.3725	0.11239	0.414
Mof_C 	C 	0.52638	0.871	0.91048	0.025
Mof_C 	C 	0.28062	0.8084	0.32112	0.397
Mof_C 	C 	0.34887	0.2186	0.13677	0.013
Mof_C 	C 	0.1872	0.2023	0.4839	0
Mof_C 	C 	0.59066	0.104	0.00686	0
Mof_C 	C 	0.95073	0.4467	0.55723	-0.002
Mof_C 	C 	0.40934	0.896	0.99314	0
Mof_C 	C 	0.8128	0.7977	0.5161	0
Mof_C 	C 	0.84088	0.3462	0.06698	-0.121
Mof_C 	C 	0.3128	0.7023	0.0161	-0
Mof_C 	C 	0.21938	0.3084	0.17888	0.397
Mof_C 	C 	0.79585	0.2681	0.67835	-0.134
Mof_C 	C 	0.23622	0.5922	0.07362	0.382
Mof_C 	C 	0.26378	0.0922	0.42638	0.382
Mof_C 	C 	0.48959	0.9609	0.98379	-0.001
Mof_C 	C 	0.34964	0.9156	0.03394	-0.052
Mof_C 	C 	0.41712	0.1442	0.13482	-0.029
Mof_C 	C 	0.90934	0.604	0.49314	0
Mof_C 	C 	0.91712	0.3558	0.63482	-0.029
Mof_C 	C 	0.98959	0.5391	0.48379	-0.001
Mof_C 	C 	0.58288	0.8558	0.86518	-0.029
Mof_C 	C 	0.45125	0.8088	0.92145	-0.099
Mof_C 	C 	0.63257	0.0108	0.93667	-0.049
Mof_C 	C 	0.10716	0.318	0.53806	0.022
Mof_C 	C 	0.95125	0.6912	0.42145	-0.098
Mof_C 	C 	0.76378	0.4078	0.92638	0.382
Mof_C 	C 	0.15912	0.6538	0.93302	-0.121
Mof_C 	C 	0.12003	0.5982	0.28073	-0.137
Mof_C 	C 	0.08288	0.6442	0.36518	-0.029
Mof_C 	C 	0.73552	0.7785	0.42812	0.005
Mof_C 	C 	0.84887	0.2814	0.63677	0.013
Mof_C 	C 	0.86743	0.5108	0.56333	-0.049
Mof_C 	C 	0.57461	0.8725	0.38761	0.414
Mof_C 	C 	0.87997	0.4018	0.71927	-0.137
Mof_C 	C 	0.15113	0.7186	0.36323	0.013
Mof_C 	C 	0.84964	0.5844	0.53394	-0.051
Mof_C 	C 	0.09827	0.5316	0.23667	0.423
Mof_C 	C 	0.40173	0.0316	0.26333	0.423
Mof_C 	C 	0.89284	0.682	0.46194	0.022
Mof_C 	C 	0.04927	0.5533	0.44277	-0.002
Mof_C 	C 	0.15981	0.6125	0.97981	0.055
Mof_C 	C 	0.18794	0.2475	0.53074	-0.02
Mof_C 	C 	0.13257	0.4892	0.43667	-0.049
Mof_C 	C 	0.34019	0.1125	0.52019	0.054
Mof_C 	C 	0.65036	0.0844	0.96606	-0.052
Mof_C 	C 	0.23552	0.7215	0.92812	0.005
Mof_C 	C 	0.70415	0.7681	0.82165	-0.134
Mof_C 	C 	0.56753	0.9159	0.82413	0.01
Mof_C 	C 	0.29585	0.2319	0.17835	-0.134
Mof_C 	C 	0.65912	0.8462	0.43302	-0.121
Mof_C 	C 	0.42539	0.1275	0.61239	0.414
Mof_C 	C 	0.09066	0.396	0.50686	0
Mof_C 	C 	0.81206	0.7525	0.46926	-0.02
Mof_C 	C 	0.26248	0.1361	0.47718	-0.111
Mof_C 	C 	0.62003	0.9018	0.78073	-0.137
Mof_C 	C 	0.45073	0.0533	0.05723	-0.002
Mof_C 	C 	0.54927	0.9467	0.94277	-0.002
Mof_C 	C 	0.97362	0.371	0.58952	0.024
Mof_C 	C 	0.51041	0.0391	0.01621	-0.001
Mof_C 	C 	0.26448	0.2215	0.57188	0.005
Mof_C 	C 	0.37997	0.0982	0.21927	-0.137
Mof_C 	C 	0.73622	0.9078	0.57362	0.382
Mof_C 	C 	0.31185	0.1706	0.21975	0.071
Mof_C 	C 	0.93247	0.4159	0.67587	0.01
Mof_C 	C 	0.71938	0.1916	0.67888	0.397
Mof_C 	C 	0.43247	0.0841	0.17587	0.01
Mof_C 	C 	0.02638	0.629	0.41048	0.024
Mof_C 	C 	0.18815	0.6706	0.28025	0.071
Mof_C 	C 	0.15036	0.4156	0.46606	-0.051
Mof_C 	C 	0.68815	0.8294	0.78025	0.071
Mof_C 	C 	0.01041	0.4609	0.51621	-0.001
Mof_C 	C 	0.47362	0.129	0.08952	0.025
Mof_C 	C 	0.60716	0.182	0.03806	0.022
Mof_C 	C 	0.34088	0.1538	0.56698	-0.121
Mof_C 	C 	0.06753	0.5841	0.32413	0.01
Mof_C 	C 	0.84019	0.3875	0.02019	0.055
Mof_C 	C 	0.36743	0.9892	0.06333	-0.049
Mof_C 	C 	0.68794	0.2525	0.03074	-0.02
Mof_C 	C 	0.54875	0.1912	0.07855	-0.099
Mof_C 	C 	0.07461	0.6275	0.88761	0.414
Mof_C 	C 	0.90173	0.4684	0.76333	0.423
Mof_C 	C 	0.65981	0.8875	0.47981	0.054
Mof_C 	C 	0.6872	0.2977	0.9839	-0
Mof_C 	C 	0.78062	0.6916	0.82112	0.397
Mof_C 	C 	0.73752	0.8639	0.52282	-0.111
Mof_C 	C 	0.31206	0.7475	0.96926	-0.02
Mof_C 	C 	0.04875	0.3088	0.57855	-0.098
Mof_C 	C 	0.65113	0.7814	0.86323	0.013
Mof_O 	O 	0.78145	0.6328	0.85695	-0.411
Mof_O 	O 	0.96711	0.5294	0.76131	-0.465
Mof_O 	O 	0.51699	0.9386	0.39339	-0.426
Mof_O 	O 	0.8422	0.4592	0.9231	-0.396
Mof_O 	O 	0.07054	0.674	0.84734	-0.45
Mof_O 	O 	0.57054	0.826	0.34734	-0.451
Mof_O 	O 	0.46711	0.9706	0.26131	-0.465
Mof_O 	O 	0.42946	0.174	0.65266	-0.451
Mof_O 	O 	0.98301	0.4386	0.10661	-0.426
Mof_O 	O 	0.69073	0.3934	0.89133	-0.296
Mof_O 	O 	0.1578	0.5408	0.0769	-0.396
Mof_O 	O 	0.3422	0.0408	0.4231	-0.395
Mof_O 	O 	0.66062	0.1882	0.71272	-0.439
Mof_O 	O 	0.01699	0.5614	0.89339	-0.426
Mof_O 	O 	0.1456	0.5481	0.1987	-0.426
Mof_O 	O 	0.3544	0.0481	0.3013	-0.426
Mof_O 	O 	0.80927	0.8934	0.60867	-0.296
Mof_O 	O 	0.21855	0.3672	0.14305	-0.411
Mof_O 	O 	0.6578	0.9592	0.5769	-0.395
Mof_O 	O 	0.33938	0.8118	0.28728	-0.439
Mof_O 	O 	0.6456	0.9519	0.6987	-0.426
Mof_O 	O 	0.83938	0.6882	0.78728	-0.439
Mof_O 	O 	0.16062	0.3118	0.21272	-0.439
Mof_O 	O 	0.28145	0.8672	0.35695	-0.41
Mof_O 	O 	0.53289	0.0294	0.73869	-0.465
Mof_O 	O 	0.92946	0.326	0.15266	-0.45
Mof_O 	O 	0.48301	0.0614	0.60661	-0.426
Mof_O 	O 	0.03289	0.4706	0.23869	-0.465
Mof_O 	O 	0.30927	0.6066	0.10867	-0.296
Mof_O 	O 	0.8544	0.4519	0.8013	-0.426
Mof_O 	O 	0.71855	0.1328	0.64305	-0.41
Mof_O 	O 	0.19073	0.1066	0.39133	-0.296
_end
