data_functionalizedCrystal
_audit_creation_method	'EQeq! by Chris Wilmer'
_symmetry_space_group_name_H-M	'P1'
_symmetry_Int_Tables_number	1
_symmetry_cell_setting	triclinic
loop_
_symmetry_equiv_pos_as_xyz
  x,y,z
_cell_length_a	5.4028
_cell_length_b	11.2862
_cell_length_c	13.9175
_cell_angle_alpha	90
_cell_angle_beta	90
_cell_angle_gamma	102.875
loop_
_atom_site_label
_atom_site_type_symbol
_atom_site_fract_x
_atom_site_fract_y
_atom_site_fract_z
_atom_site_charge
Mof_Li	Li	0.8124	0.0089	0.5658	4.092
Mof_Li	Li	0.6876	0.4911	0.0658	4.143
Mof_Li	Li	0.1876	0.9911	0.4342	4.092
Mof_Li	Li	0.3124	0.5089	0.9342	4.143
Mof_H 	H 	0.9574	0.7243	0.3732	-0.161
Mof_H 	H 	0.3945	0.6682	0.1227	-0.227
Mof_H 	H 	0.3643	0.8102	0.2376	-0.135
Mof_H 	H 	0.9637	0.5829	0.2553	-0.091
Mof_H 	H 	0.5426	0.7757	0.8732	-0.16
Mof_H 	H 	0.1055	0.8318	0.6227	-0.236
Mof_H 	H 	0.1357	0.6898	0.7376	-0.124
Mof_H 	H 	0.5363	0.9171	0.7553	-0.088
Mof_H 	H 	0.0426	0.2757	0.6268	-0.16
Mof_H 	H 	0.6055	0.3318	0.8773	-0.226
Mof_H 	H 	0.6357	0.1898	0.7624	-0.135
Mof_H 	H 	0.0363	0.4171	0.7447	-0.091
Mof_H 	H 	0.4574	0.2243	0.1268	-0.16
Mof_H 	H 	0.8945	0.1682	0.3773	-0.236
Mof_H 	H 	0.8643	0.3102	0.2624	-0.124
Mof_H 	H 	0.4637	0.0829	0.2447	-0.088
Mof_C 	C 	0.6359	0.8748	0.39689	1.237
Mof_C 	C 	0.6585	0.7844	0.31884	-0.545
Mof_C 	C 	0.8403	0.7144	0.3232	0.173
Mof_C 	C 	0.5081	0.6793	0.17386	-0.046
Mof_C 	C 	0.4891	0.7655	0.24255	0.175
Mof_C 	C 	0.8427	0.6298	0.25159	-0.07
Mof_C 	C 	0.8641	0.6252	0.89689	1.244
Mof_C 	C 	0.8415	0.7156	0.81884	-0.535
Mof_C 	C 	0.6597	0.7856	0.8232	0.167
Mof_C 	C 	0.9919	0.8207	0.67386	-0.018
Mof_C 	C 	0.0109	0.7345	0.74255	0.146
Mof_C 	C 	0.6573	0.8702	0.75159	-0.066
Mof_C 	C 	0.3641	0.1252	0.60311	1.237
Mof_C 	C 	0.3415	0.2156	0.68116	-0.545
Mof_C 	C 	0.1597	0.2856	0.6768	0.173
Mof_C 	C 	0.4919	0.3207	0.82614	-0.046
Mof_C 	C 	0.5109	0.2345	0.75745	0.175
Mof_C 	C 	0.1573	0.3702	0.74841	-0.07
Mof_C 	C 	0.1359	0.3748	0.10311	1.244
Mof_C 	C 	0.1585	0.2844	0.18116	-0.535
Mof_C 	C 	0.3403	0.2144	0.1768	0.167
Mof_C 	C 	0.0081	0.1793	0.32614	-0.018
Mof_C 	C 	0.9891	0.2655	0.25745	0.146
Mof_C 	C 	0.3427	0.1298	0.24841	-0.066
Mof_N 	N 	0.6816	0.6112	0.17727	-0.66
Mof_N 	N 	0.8184	0.8888	0.67727	-0.655
Mof_N 	N 	0.3184	0.3888	0.82273	-0.66
Mof_N 	N 	0.1816	0.1112	0.32273	-0.655
Mof_O 	O 	0.826	0.91302	0.44943	-2.116
Mof_O 	O 	0.4279	0.90417	0.40297	-1.642
Mof_O 	O 	0.674	0.58698	0.94943	-2.144
Mof_O 	O 	0.0721	0.59583	0.90297	-1.659
Mof_O 	O 	0.174	0.08698	0.55057	-2.116
Mof_O 	O 	0.5721	0.09583	0.59703	-1.642
Mof_O 	O 	0.326	0.41302	0.05057	-2.144
Mof_O 	O 	0.9279	0.40417	0.09703	-1.659
_end
