# CIF file generated by openbabel 3.1.0, see https://openbabel.org
data_I
_chemical_name_common 'image0'
_cell_length_a 9.5935
_cell_length_b 9.5935
_cell_length_c 13.836
_cell_angle_alpha 90
_cell_angle_beta 90
_cell_angle_gamma 120
_space_group_name_H-M_alt 'P 1'
_space_group_name_Hall 'P 1'
loop_
    _symmetry_equiv_pos_as_xyz
    x,y,z
loop_
    _atom_site_label
    _atom_site_type_symbol
    _atom_site_fract_x
    _atom_site_fract_y
    _atom_site_fract_z
    _atom_site_occupancy
    C1       C        0.11380    0.11620    0.04910    1.000
    C2       C        0.88380    0.99760    0.04910    1.000
    C3       C        0.00240    0.88620    0.04910    1.000
    C4       C        0.88620    0.88380    0.54910    1.000
    C5       C        0.11620    0.00240    0.54910    1.000
    C6       C        0.99760    0.11380    0.54910    1.000
    C7       C        0.11620    0.11380    0.95090    1.000
    C8       C        0.99760    0.88380    0.95090    1.000
    C9       C        0.88620    0.00240    0.95090    1.000
    C10      C        0.88380    0.88620    0.45090    1.000
    C11      C        0.00240    0.11620    0.45090    1.000
    C12      C        0.11380    0.99760    0.45090    1.000
    C13      C        0.88620    0.88380    0.95090    1.000
    C14      C        0.11620    0.00240    0.95090    1.000
    C15      C        0.99760    0.11380    0.95090    1.000
    C16      C        0.11380    0.11620    0.45090    1.000
    C17      C        0.88380    0.99760    0.45090    1.000
    C18      C        0.00240    0.88620    0.45090    1.000
    C19      C        0.88380    0.88620    0.04910    1.000
    C20      C        0.00240    0.11620    0.04910    1.000
    C21      C        0.11380    0.99760    0.04910    1.000
    C22      C        0.11620    0.11380    0.54910    1.000
    C23      C        0.99760    0.88380    0.54910    1.000
    C24      C        0.88620    0.00240    0.54910    1.000
    Ni1      Ni       0.00000    0.00000    0.25000    1.000
    Ni2      Ni       0.00000    0.00000    0.75000    1.000
    O1       O        0.24850    0.23560    0.25000    1.000
    O2       O        0.30330    0.36370    0.25000    1.000
    C25      C        0.33970    0.25310    0.25000    1.000
    C26      C        0.52430    0.33570    0.25000    1.000
    O3       O        0.76440    0.01290    0.25000    1.000
    O4       O        0.63630    0.93960    0.25000    1.000
    C27      C        0.74690    0.08660    0.25000    1.000
    C28      C        0.66430    0.18860    0.25000    1.000
    O5       O        0.98710    0.75150    0.25000    1.000
    O6       O        0.06040    0.69670    0.25000    1.000
    C29      C        0.91340    0.66030    0.25000    1.000
    C30      C        0.81140    0.47570    0.25000    1.000
    O7       O        0.75150    0.76440    0.75000    1.000
    O8       O        0.69670    0.63630    0.75000    1.000
    C31      C        0.66030    0.74690    0.75000    1.000
    C32      C        0.47570    0.66430    0.75000    1.000
    O9       O        0.23560    0.98710    0.75000    1.000
    O10      O        0.36370    0.06040    0.75000    1.000
    C33      C        0.25310    0.91340    0.75000    1.000
    C34      C        0.33570    0.81140    0.75000    1.000
    O11      O        0.01290    0.24850    0.75000    1.000
    O12      O        0.93960    0.30330    0.75000    1.000
    C35      C        0.08660    0.33970    0.75000    1.000
    C36      C        0.18860    0.52430    0.75000    1.000
    O13      O        0.23560    0.24850    0.75000    1.000
    O14      O        0.36370    0.30330    0.75000    1.000
    C37      C        0.25310    0.33970    0.75000    1.000
    C38      C        0.33570    0.52430    0.75000    1.000
    O15      O        0.01290    0.76440    0.75000    1.000
    O16      O        0.93960    0.63630    0.75000    1.000
    C39      C        0.08660    0.74690    0.75000    1.000
    C40      C        0.18860    0.66430    0.75000    1.000
    O17      O        0.75150    0.98710    0.75000    1.000
    O18      O        0.69670    0.06040    0.75000    1.000
    C41      C        0.66030    0.91340    0.75000    1.000
    C42      C        0.47570    0.81140    0.75000    1.000
    O19      O        0.76440    0.75150    0.25000    1.000
    O20      O        0.63630    0.69670    0.25000    1.000
    C43      C        0.74690    0.66030    0.25000    1.000
    C44      C        0.66430    0.47570    0.25000    1.000
    O21      O        0.98710    0.23560    0.25000    1.000
    O22      O        0.06040    0.36370    0.25000    1.000
    C45      C        0.91340    0.25310    0.25000    1.000
    C46      C        0.81140    0.33570    0.25000    1.000
    O23      O        0.24850    0.01290    0.25000    1.000
    O24      O        0.30330    0.93960    0.25000    1.000
    C47      C        0.33970    0.08660    0.25000    1.000
    C48      C        0.52430    0.18860    0.25000    1.000
    C49      C        0.31000    0.15500    0.25000    1.000
    C50      C        0.49970    0.24985    0.25000    1.000
    O25      O        0.22620    0.11310    0.25000    1.000
    C51      C        0.84500    0.15500    0.25000    1.000
    C52      C        0.75015    0.24985    0.25000    1.000
    O26      O        0.88690    0.11310    0.25000    1.000
    C53      C        0.84500    0.69000    0.25000    1.000
    C54      C        0.75015    0.50030    0.25000    1.000
    O27      O        0.88690    0.77380    0.25000    1.000
    C55      C        0.69000    0.84500    0.75000    1.000
    C56      C        0.50030    0.75015    0.75000    1.000
    O28      O        0.77380    0.88690    0.75000    1.000
    C57      C        0.15500    0.84500    0.75000    1.000
    C58      C        0.24985    0.75015    0.75000    1.000
    O29      O        0.11310    0.88690    0.75000    1.000
    C59      C        0.15500    0.31000    0.75000    1.000
    C60      C        0.24985    0.49970    0.75000    1.000
    O30      O        0.11310    0.22620    0.75000    1.000
    C61      C        0.58390    0.41610    0.25000    1.000
    H1       H        0.52670    0.47330    0.25000    1.000
    C62      C        0.58390    0.16780    0.25000    1.000
    H2       H        0.52670    0.05340    0.25000    1.000
    C63      C        0.83220    0.41610    0.25000    1.000
    H3       H        0.94660    0.47330    0.25000    1.000
    C64      C        0.41610    0.58390    0.75000    1.000
    H4       H        0.47330    0.52670    0.75000    1.000
    C65      C        0.41610    0.83220    0.75000    1.000
    H5       H        0.47330    0.94660    0.75000    1.000
    C66      C        0.16780    0.58390    0.75000    1.000
    H6       H        0.05340    0.52670    0.75000    1.000
    N1       N        0.00000    0.00000    0.10020    1.000
    N2       N        0.00000    0.00000    0.60020    1.000
    N3       N        0.00000    0.00000    0.89980    1.000
    N4       N        0.00000    0.00000    0.39980    1.000
