# CIF file generated by openbabel 3.1.0, see https://openbabel.org
data_I
_chemical_name_common 'EQIWAD_clean'
_cell_length_a 4.7595
_cell_length_b 9.925
_cell_length_c 22.609
_cell_angle_alpha 90
_cell_angle_beta 91.81
_cell_angle_gamma 90
_space_group_name_H-M_alt 'P 1'
_space_group_name_Hall 'P 1'
loop_
    _symmetry_equiv_pos_as_xyz
    x,y,z
loop_
    _atom_site_label
    _atom_site_type_symbol
    _atom_site_fract_x
    _atom_site_fract_y
    _atom_site_fract_z
    _atom_site_occupancy
    Cd1      Cd       0.00000    0.00000    0.50000    1.000
    Cd2      Cd       0.00000    0.50000    0.00000    1.000
    As1      As       0.53337    0.86009    0.59476    1.000
    As2      As       0.46663    0.36009    0.90524    1.000
    As3      As       0.46663    0.13991    0.40524    1.000
    As4      As       0.53337    0.63991    0.09476    1.000
    H1       H        0.88780    0.03110    0.86450    1.000
    H2       H        0.16140    0.74830    0.57660    1.000
    H3       H        0.71500    0.64380    0.90010    1.000
    H4       H        0.92670    0.73340    0.67830    1.000
    H5       H        0.07990    0.76510    0.77490    1.000
    H6       H        0.55560    0.08130    0.78780    1.000
    H7       H        0.40070    0.04770    0.69190    1.000
    H8       H        0.28880    0.84770    0.85450    1.000
    H9       H        0.22450    0.92570    0.91260    1.000
    H10      H        0.11220    0.53110    0.63550    1.000
    H11      H        0.83860    0.24830    0.92340    1.000
    H12      H        0.28500    0.14380    0.59990    1.000
    H13      H        0.07330    0.23340    0.82170    1.000
    H14      H        0.92010    0.26510    0.72510    1.000
    H15      H        0.44440    0.58130    0.71220    1.000
    H16      H        0.59930    0.54770    0.80810    1.000
    H17      H        0.71120    0.34770    0.64550    1.000
    H18      H        0.77550    0.42570    0.58740    1.000
    H19      H        0.11220    0.96890    0.13550    1.000
    H20      H        0.83860    0.25170    0.42340    1.000
    H21      H        0.28500    0.35620    0.09990    1.000
    H22      H        0.07330    0.26660    0.32170    1.000
    H23      H        0.92010    0.23490    0.22510    1.000
    H24      H        0.44440    0.91870    0.21220    1.000
    H25      H        0.59930    0.95230    0.30810    1.000
    H26      H        0.71120    0.15230    0.14550    1.000
    H27      H        0.77550    0.07430    0.08740    1.000
    H28      H        0.88780    0.46890    0.36450    1.000
    H29      H        0.16140    0.75170    0.07660    1.000
    H30      H        0.71500    0.85620    0.40010    1.000
    H31      H        0.92670    0.76660    0.17830    1.000
    H32      H        0.07990    0.73490    0.27490    1.000
    H33      H        0.55560    0.41870    0.28780    1.000
    H34      H        0.40070    0.45230    0.19190    1.000
    H35      H        0.28880    0.65230    0.35450    1.000
    H36      H        0.22450    0.57430    0.41260    1.000
    C1       C        0.64980    0.88820    0.67469    1.000
    C2       C        0.85340    0.80360    0.70028    1.000
    C3       C        0.94700    0.82350    0.75811    1.000
    C4       C        0.84530    0.93010    0.79198    1.000
    C5       C        0.63310    0.01230    0.76583    1.000
    C6       C        0.53920    0.99180    0.70837    1.000
    C7       C        0.13970    0.87340    0.88052    1.000
    C8       C        0.01540    0.74630    0.90630    1.000
    C9       C        0.35020    0.38820    0.82531    1.000
    C10      C        0.14660    0.30360    0.79972    1.000
    C11      C        0.05300    0.32350    0.74189    1.000
    C12      C        0.15470    0.43010    0.70802    1.000
    C13      C        0.36690    0.51230    0.73417    1.000
    C14      C        0.46080    0.49180    0.79163    1.000
    C15      C        0.86030    0.37340    0.61948    1.000
    C16      C        0.98460    0.24630    0.59370    1.000
    C17      C        0.35020    0.11180    0.32531    1.000
    C18      C        0.14660    0.19640    0.29972    1.000
    C19      C        0.05300    0.17650    0.24189    1.000
    C20      C        0.15470    0.06990    0.20802    1.000
    C21      C        0.36690    0.98770    0.23417    1.000
    C22      C        0.46080    0.00820    0.29163    1.000
    C23      C        0.86030    0.12660    0.11948    1.000
    C24      C        0.98460    0.25370    0.09370    1.000
    C25      C        0.64980    0.61180    0.17469    1.000
    C26      C        0.85340    0.69640    0.20028    1.000
    C27      C        0.94700    0.67650    0.25811    1.000
    C28      C        0.84530    0.56990    0.29198    1.000
    C29      C        0.63310    0.48770    0.26583    1.000
    C30      C        0.53920    0.50820    0.20837    1.000
    C31      C        0.13970    0.62660    0.38052    1.000
    C32      C        0.01540    0.75370    0.40630    1.000
    N1       N        0.94460    0.95850    0.84787    1.000
    N2       N        0.05540    0.45850    0.65213    1.000
    N3       N        0.05540    0.04150    0.15213    1.000
    N4       N        0.94460    0.54150    0.34787    1.000
    O1       O        0.80670    0.82260    0.55324    1.000
    O2       O        0.31170    0.72140    0.59090    1.000
    O3       O        0.35200    0.99150    0.56782    1.000
    O4       O        0.76280    0.71650    0.88644    1.000
    O5       O        0.15150    0.67910    0.94235    1.000
    O6       O        0.19330    0.32260    0.94676    1.000
    O7       O        0.68830    0.22140    0.90910    1.000
    O8       O        0.64800    0.49150    0.93218    1.000
    O9       O        0.23720    0.21650    0.61356    1.000
    O10      O        0.84850    0.17910    0.55765    1.000
    O11      O        0.19330    0.17740    0.44676    1.000
    O12      O        0.68830    0.27860    0.40910    1.000
    O13      O        0.64800    0.00850    0.43218    1.000
    O14      O        0.23720    0.28350    0.11356    1.000
    O15      O        0.84850    0.32090    0.05765    1.000
    O16      O        0.80670    0.67740    0.05324    1.000
    O17      O        0.31170    0.77860    0.09090    1.000
    O18      O        0.35200    0.50850    0.06782    1.000
    O19      O        0.76280    0.78350    0.38644    1.000
    O20      O        0.15150    0.82090    0.44235    1.000
