data_functionalizedCrystal
_audit_creation_method	'EQeq! by Chris Wilmer'
_symmetry_space_group_name_H-M	'P1'
_symmetry_Int_Tables_number	1
_symmetry_cell_setting	triclinic
loop_
_symmetry_equiv_pos_as_xyz
  x,y,z
_cell_length_a	11.217
_cell_length_b	11.217
_cell_length_c	11.217
_cell_angle_alpha	90
_cell_angle_beta	90
_cell_angle_gamma	90
loop_
_atom_site_label
_atom_site_type_symbol
_atom_site_fract_x
_atom_site_fract_y
_atom_site_fract_z
_atom_site_charge
Mof_Co	Co	0.5	0.5	-0	1.147
Mof_Co	Co	1.8747e-33	0.5	0.5	1.147
Mof_Co	Co	0.5	0	0.5	1.147
Mof_Co	Co	-0	0	-0	1.108
Mof_Sr	Sr	0.5	0	-0	1.029
Mof_Sr	Sr	0.5	0.5	0.5	1.283
Mof_Sr	Sr	-0	0.5	-0	1.029
Mof_Sr	Sr	1.8747e-33	0	0.5	1.029
Mof_C 	C 	0.5	0.6685	-0	-0.23
Mof_N 	N 	0.5	0.7698	-0	-0.123
Mof_C 	C 	0.5	0.1685	0.5	-0.198
Mof_N 	N 	0.5	0.2698	0.5	-0.166
Mof_C 	C 	0.5	0.3315	-0	-0.248
Mof_N 	N 	0.5	0.2302	-0	-0.163
Mof_C 	C 	0.5	0.8315	0.5	-0.092
Mof_N 	N 	0.5	0.7302	0.5	-0.171
Mof_C 	C 	1.8747e-33	0.3315	0.5	-0.248
Mof_N 	N 	1.8747e-33	0.2302	0.5	-0.163
Mof_C 	C 	-0	0.1685	-0	-0.285
Mof_N 	N 	-2.23579e-33	0.2698	-0	-0.177
Mof_C 	C 	2.50647e-33	0.5	0.6685	-0.23
Mof_N 	N 	-1.5e-32	0.5	0.7698	-0.123
Mof_C 	C 	6.31774e-34	-2.23579e-33	0.1685	-0.285
Mof_N 	N 	-1.2242e-33	-2.23579e-33	0.2698	-0.177
Mof_C 	C 	1.24293e-33	0.5	0.3315	-0.248
Mof_N 	N 	3.0989e-33	0.5	0.2302	-0.163
Mof_C 	C 	3.11763e-33	0	0.8315	-0.173
Mof_N 	N 	-6.20533e-33	-8.94314e-33	0.7302	-0.183
Mof_C 	C 	0.5	0	0.3315	-0.248
Mof_N 	N 	0.5	0	0.2302	-0.163
Mof_C 	C 	0.5	0.5	0.8315	-0.092
Mof_N 	N 	0.5	0.5	0.7302	-0.171
Mof_C 	C 	0.6685	0	0.5	-0.23
Mof_N 	N 	0.7698	0	0.5	-0.123
Mof_C 	C 	0.1685	0	-0	-0.285
Mof_N 	N 	0.2698	0	-0	-0.177
Mof_C 	C 	0.1685	0.5	0.5	-0.198
Mof_N 	N 	0.2698	0.5	0.5	-0.166
Mof_C 	C 	0.3315	0	0.5	-0.248
Mof_N 	N 	0.2302	0	0.5	-0.163
Mof_C 	C 	0.8315	0	-0	-0.173
Mof_N 	N 	0.7302	0	-0	-0.183
Mof_C 	C 	0.6685	0.5	-0	-0.23
Mof_N 	N 	0.7698	0.5	-0	-0.123
Mof_C 	C 	0.3315	0.5	-0	-0.248
Mof_N 	N 	0.2302	0.5	-0	-0.163
Mof_C 	C 	0.8315	0.5	0.5	-0.092
Mof_N 	N 	0.7302	0.5	0.5	-0.171
Mof_C 	C 	0.5	0	0.6685	-0.23
Mof_N 	N 	0.5	-8.94314e-33	0.7698	-0.123
Mof_C 	C 	0.5	0.5	0.1685	-0.198
Mof_N 	N 	0.5	0.5	0.2698	-0.166
Mof_C 	C 	1.08178e-32	0.6685	0.5	-0.23
Mof_N 	N 	-7.06844e-33	0.7698	0.5	-0.123
Mof_C 	C 	-0	0.8315	-0	-0.173
Mof_N 	N 	-8.94314e-33	0.7302	-0	-0.183
_end
