data_functionalizedCrystal
_audit_creation_method	'EQeq! by Chris Wilmer'
_symmetry_space_group_name_H-M	'P1'
_symmetry_Int_Tables_number	1
_symmetry_cell_setting	triclinic
loop_
_symmetry_equiv_pos_as_xyz
  x,y,z
_cell_length_a	23.941
_cell_length_b	18.794
_cell_length_c	19.897
_cell_angle_alpha	90
_cell_angle_beta	124.96
_cell_angle_gamma	90
loop_
_atom_site_label
_atom_site_type_symbol
_atom_site_fract_x
_atom_site_fract_y
_atom_site_fract_z
_atom_site_charge
Mof_Cu	Cu	0.71663	0.71518	0.52459	0.907
Mof_C 	C 	0.8591	0.7277	0.6357	0.338
Mof_N 	N 	0.1098	0.7249	0.8057	-0.188
Mof_O 	O 	0.0493	0.571	0.9631	-0.415
Mof_C 	C 	0.927	0.7104	0.7152	-0.035
Mof_O 	O 	0.9368	0.5715	0.8881	-0.401
Mof_C 	C 	0.9287	0.6657	0.7746	-0.018
Mof_H 	H 	0.8875	0.6487	0.7652	0.06
Mof_O 	O 	0.8062	0.7017	0.6273	-0.4
Mof_C 	C 	0.9914	0.6473	0.8465	-0.042
Mof_O 	O 	0.8605	0.7608	0.5826	-0.411
Mof_C 	C 	0.9934	0.5947	0.9061	0.345
Mof_O 	O 	0.0902	0.6785	0.6857	-0.194
Mof_C 	C 	0.0504	0.6707	0.8566	-0.094
Mof_H 	H 	0.0929	0.6599	0.9064	0.091
Mof_O 	O 	0.1606	0.7887	0.9259	-0.211
Mof_C 	C 	0.0502	0.7085	0.7983	0.147
Mof_C 	C 	0.988	0.7303	0.7267	-0.092
Mof_H 	H 	0.9876	0.7582	0.6867	0.093
Mof_C 	C 	0.1261	0.7138	0.7522	0.196
Mof_C 	C 	0.1934	0.7411	0.7814	-0.008
Mof_C 	C 	0.2335	0.7396	0.7502	-0.04
Mof_H 	H 	0.2194	0.7152	0.701	0.066
Mof_C 	C 	0.2955	0.7765	0.7968	-0.015
Mof_H 	H 	0.3235	0.7776	0.7773	0.051
Mof_C 	C 	0.3184	0.8118	0.8699	-0.054
Mof_H 	H 	0.3615	0.8348	0.901	0.063
Mof_C 	C 	0.2746	0.8115	0.8952	0.001
Mof_H 	H 	0.2882	0.8371	0.9435	0.052
Mof_C 	C 	0.2113	0.7755	0.8534	-0.051
Mof_C 	C 	0.1601	0.7679	0.8683	0.223
Mof_C 	C 	0.7324	0.8665	0.5513	0.312
Mof_O 	O 	0.7095	0.809	0.5614	-0.389
Mof_O 	O 	0.7645	0.869	0.5174	-0.384
Mof_C 	C 	0.7134	0.9351	0.5719	-0.019
Mof_C 	C 	0.6738	0.9344	0.5998	-0.079
Mof_H 	H 	0.6613	0.8905	0.6112	0.096
Mof_H 	H 	0.4453	0.9895	0.7503	-0.067
Mof_C 	C 	0.6092	0.9763	0.7032	0.18
Mof_C 	C 	0.5289	0.9754	0.7469	0.516
Mof_H 	H 	0.5587	0.9482	0.795	-0.118
Mof_C 	C 	0.4186	0.0337	0.6475	0.085
Mof_H 	H 	0.3734	0.0465	0.6284	0.006
Mof_C 	C 	0.4443	0.0586	0.6044	-0.119
Mof_H 	H 	0.4187	0.0881	0.5573	0.096
Mof_C 	C 	0.5045	0.0374	0.6246	0.099
Mof_O 	O 	0.6631	0.9449	0.7526	-0.166
Mof_O 	O 	0.982	0.4255	0.4738	-0.112
Mof_C 	C 	0.5456	0.0428	0.5919	0.1
Mof_Cu	Cu	0.21663	0.21518	0.52459	0.908
Mof_C 	C 	0.3591	0.2277	0.6357	0.34
Mof_N 	N 	0.6098	0.2249	0.8057	-0.188
Mof_O 	O 	0.5493	0.071	0.9631	-0.423
Mof_C 	C 	0.427	0.2104	0.7152	-0.035
Mof_O 	O 	0.4368	0.0715	0.8881	-0.405
Mof_C 	C 	0.4287	0.1657	0.7746	-0.016
Mof_H 	H 	0.3875	0.1487	0.7652	0.058
Mof_O 	O 	0.3062	0.2017	0.6273	-0.4
Mof_C 	C 	0.4914	0.1473	0.8465	-0.042
Mof_O 	O 	0.3605	0.2608	0.5826	-0.412
Mof_C 	C 	0.4934	0.0947	0.9061	0.349
Mof_O 	O 	0.5902	0.1785	0.6857	-0.19
Mof_C 	C 	0.5504	0.1707	0.8566	-0.098
Mof_H 	H 	0.5929	0.1599	0.9064	0.089
Mof_O 	O 	0.6606	0.2887	0.9259	-0.214
Mof_C 	C 	0.5502	0.2085	0.7983	0.146
Mof_C 	C 	0.488	0.2303	0.7267	-0.086
Mof_H 	H 	0.4876	0.2582	0.6867	0.091
Mof_C 	C 	0.6261	0.2138	0.7522	0.194
Mof_C 	C 	0.6934	0.2411	0.7814	-0.008
Mof_C 	C 	0.7335	0.2396	0.7502	-0.042
Mof_H 	H 	0.7194	0.2152	0.701	0.066
Mof_C 	C 	0.7955	0.2765	0.7968	-0.015
Mof_H 	H 	0.8235	0.2776	0.7773	0.05
Mof_C 	C 	0.8184	0.3118	0.8699	-0.056
Mof_H 	H 	0.8615	0.3348	0.901	0.062
Mof_C 	C 	0.7746	0.3115	0.8952	0.001
Mof_H 	H 	0.7882	0.3371	0.9435	0.049
Mof_C 	C 	0.7113	0.2755	0.8534	-0.053
Mof_C 	C 	0.6601	0.2679	0.8683	0.223
Mof_C 	C 	0.2324	0.3665	0.5513	0.314
Mof_O 	O 	0.2095	0.309	0.5614	-0.39
Mof_O 	O 	0.2645	0.369	0.5174	-0.388
Mof_C 	C 	0.2134	0.4351	0.5719	-0.03
Mof_C 	C 	0.1738	0.4344	0.5998	-0.09
Mof_H 	H 	0.1613	0.3905	0.6112	0.099
Mof_H 	H 	0.9453	0.4895	0.7503	0.027
Mof_C 	C 	0.1092	0.4763	0.7032	0.128
Mof_C 	C 	0.0289	0.4754	0.7469	-0.008
Mof_H 	H 	0.0587	0.4482	0.795	0.053
Mof_C 	C 	0.9186	0.5337	0.6475	-0.017
Mof_H 	H 	0.8734	0.5465	0.6284	0.044
Mof_C 	C 	0.9443	0.5586	0.6044	-0.047
Mof_H 	H 	0.9187	0.5881	0.5573	0.072
Mof_C 	C 	0.0045	0.5374	0.6246	0.014
Mof_O 	O 	0.1631	0.4449	0.7526	-0.156
Mof_O 	O 	0.482	0.9255	0.4738	-0.115
Mof_C 	C 	0.0456	0.5428	0.5919	0.128
Mof_Cu	Cu	0.28337	0.71518	0.47541	0.908
Mof_C 	C 	0.1409	0.7277	0.3643	0.339
Mof_N 	N 	0.8902	0.7249	0.1943	-0.188
Mof_O 	O 	0.9507	0.571	0.0369	-0.415
Mof_C 	C 	0.073	0.7104	0.2848	-0.035
Mof_O 	O 	0.0632	0.5715	0.1119	-0.401
Mof_C 	C 	0.0713	0.6657	0.2254	-0.018
Mof_H 	H 	0.1125	0.6487	0.2348	0.06
Mof_O 	O 	0.1938	0.7017	0.3727	-0.4
Mof_C 	C 	0.0086	0.6473	0.1535	-0.042
Mof_O 	O 	0.1395	0.7608	0.4174	-0.411
Mof_C 	C 	0.0066	0.5947	0.0939	0.345
Mof_O 	O 	0.9098	0.6785	0.3143	-0.194
Mof_C 	C 	0.9496	0.6707	0.1434	-0.094
Mof_H 	H 	0.9071	0.6599	0.0936	0.091
Mof_O 	O 	0.8394	0.7887	0.0741	-0.211
Mof_C 	C 	0.9498	0.7085	0.2017	0.147
Mof_C 	C 	0.012	0.7303	0.2733	-0.092
Mof_H 	H 	0.0124	0.7582	0.3133	0.093
Mof_C 	C 	0.8739	0.7138	0.2478	0.196
Mof_C 	C 	0.8066	0.7411	0.2186	-0.008
Mof_C 	C 	0.7665	0.7396	0.2498	-0.04
Mof_H 	H 	0.7806	0.7152	0.299	0.066
Mof_C 	C 	0.7045	0.7765	0.2032	-0.015
Mof_H 	H 	0.6765	0.7776	0.2227	0.051
Mof_C 	C 	0.6816	0.8118	0.1301	-0.054
Mof_H 	H 	0.6385	0.8348	0.099	0.063
Mof_C 	C 	0.7254	0.8115	0.1048	0.001
Mof_H 	H 	0.7118	0.8371	0.0565	0.052
Mof_C 	C 	0.7887	0.7755	0.1466	-0.051
Mof_C 	C 	0.8399	0.7679	0.1317	0.223
Mof_C 	C 	0.2676	0.8665	0.4487	0.312
Mof_O 	O 	0.2905	0.809	0.4386	-0.389
Mof_O 	O 	0.2355	0.869	0.4826	-0.384
Mof_C 	C 	0.2866	0.9351	0.4281	-0.019
Mof_C 	C 	0.3262	0.9344	0.4002	-0.079
Mof_H 	H 	0.3387	0.8905	0.3888	0.096
Mof_H 	H 	0.5547	0.9895	0.2497	-0.067
Mof_C 	C 	0.3908	0.9763	0.2968	0.18
Mof_C 	C 	0.4711	0.9754	0.2531	0.516
Mof_H 	H 	0.4413	0.9482	0.205	-0.118
Mof_C 	C 	0.5814	0.0337	0.3525	0.085
Mof_H 	H 	0.6266	0.0465	0.3716	0.006
Mof_C 	C 	0.5557	0.0586	0.3956	-0.119
Mof_H 	H 	0.5813	0.0881	0.4427	0.096
Mof_C 	C 	0.4955	0.0374	0.3754	0.099
Mof_O 	O 	0.3369	0.9449	0.2474	-0.166
Mof_O 	O 	0.018	0.4255	0.5262	-0.112
Mof_C 	C 	0.4544	0.0428	0.4081	0.1
Mof_Cu	Cu	0.78337	0.21518	0.47541	0.908
Mof_C 	C 	0.6409	0.2277	0.3643	0.34
Mof_N 	N 	0.3902	0.2249	0.1943	-0.188
Mof_O 	O 	0.4507	0.071	0.0369	-0.423
Mof_C 	C 	0.573	0.2104	0.2848	-0.035
Mof_O 	O 	0.5632	0.0715	0.1119	-0.405
Mof_C 	C 	0.5713	0.1657	0.2254	-0.016
Mof_H 	H 	0.6125	0.1487	0.2348	0.058
Mof_O 	O 	0.6938	0.2017	0.3727	-0.4
Mof_C 	C 	0.5086	0.1473	0.1535	-0.042
Mof_O 	O 	0.6395	0.2608	0.4174	-0.412
Mof_C 	C 	0.5066	0.0947	0.0939	0.349
Mof_O 	O 	0.4098	0.1785	0.3143	-0.19
Mof_C 	C 	0.4496	0.1707	0.1434	-0.098
Mof_H 	H 	0.4071	0.1599	0.0936	0.089
Mof_O 	O 	0.3394	0.2887	0.0741	-0.214
Mof_C 	C 	0.4498	0.2085	0.2017	0.146
Mof_C 	C 	0.512	0.2303	0.2733	-0.086
Mof_H 	H 	0.5124	0.2582	0.3133	0.091
Mof_C 	C 	0.3739	0.2138	0.2478	0.194
Mof_C 	C 	0.3066	0.2411	0.2186	-0.008
Mof_C 	C 	0.2665	0.2396	0.2498	-0.042
Mof_H 	H 	0.2806	0.2152	0.299	0.066
Mof_C 	C 	0.2045	0.2765	0.2032	-0.015
Mof_H 	H 	0.1765	0.2776	0.2227	0.05
Mof_C 	C 	0.1816	0.3118	0.1301	-0.056
Mof_H 	H 	0.1385	0.3348	0.099	0.062
Mof_C 	C 	0.2254	0.3115	0.1048	0.001
Mof_H 	H 	0.2118	0.3371	0.0565	0.049
Mof_C 	C 	0.2887	0.2755	0.1466	-0.053
Mof_C 	C 	0.3399	0.2679	0.1317	0.223
Mof_C 	C 	0.7676	0.3665	0.4487	0.314
Mof_O 	O 	0.7905	0.309	0.4386	-0.39
Mof_O 	O 	0.7355	0.369	0.4826	-0.388
Mof_C 	C 	0.7866	0.4351	0.4281	-0.03
Mof_C 	C 	0.8262	0.4344	0.4002	-0.09
Mof_H 	H 	0.8387	0.3905	0.3888	0.099
Mof_H 	H 	0.0547	0.4895	0.2497	0.027
Mof_C 	C 	0.8908	0.4763	0.2968	0.128
Mof_C 	C 	0.9711	0.4754	0.2531	-0.008
Mof_H 	H 	0.9413	0.4482	0.205	0.053
Mof_C 	C 	0.0814	0.5337	0.3525	-0.017
Mof_H 	H 	0.1266	0.5465	0.3716	0.044
Mof_C 	C 	0.0557	0.5586	0.3956	-0.047
Mof_H 	H 	0.0813	0.5881	0.4427	0.072
Mof_C 	C 	0.9955	0.5374	0.3754	0.014
Mof_O 	O 	0.8369	0.4449	0.2474	-0.156
Mof_O 	O 	0.518	0.9255	0.5262	-0.115
Mof_C 	C 	0.9544	0.5428	0.4081	0.128
Mof_Cu	Cu	0.28337	0.28482	0.47541	0.908
Mof_C 	C 	0.1409	0.2723	0.3643	0.339
Mof_N 	N 	0.8902	0.2751	0.1943	-0.188
Mof_O 	O 	0.9507	0.429	0.0369	-0.415
Mof_C 	C 	0.073	0.2896	0.2848	-0.036
Mof_O 	O 	0.0632	0.4285	0.1119	-0.401
Mof_C 	C 	0.0713	0.3343	0.2254	-0.018
Mof_H 	H 	0.1125	0.3513	0.2348	0.06
Mof_O 	O 	0.1938	0.2983	0.3727	-0.4
Mof_C 	C 	0.0086	0.3527	0.1535	-0.043
Mof_O 	O 	0.1395	0.2392	0.4174	-0.413
Mof_C 	C 	0.0066	0.4053	0.0939	0.345
Mof_O 	O 	0.9098	0.3215	0.3143	-0.194
Mof_C 	C 	0.9496	0.3293	0.1434	-0.094
Mof_H 	H 	0.9071	0.3401	0.0936	0.091
Mof_O 	O 	0.8394	0.2113	0.0741	-0.214
Mof_C 	C 	0.9498	0.2915	0.2017	0.146
Mof_C 	C 	0.012	0.2697	0.2733	-0.092
Mof_H 	H 	0.0124	0.2418	0.3133	0.091
Mof_C 	C 	0.8739	0.2862	0.2478	0.195
Mof_C 	C 	0.8066	0.2589	0.2186	-0.008
Mof_C 	C 	0.7665	0.2604	0.2498	-0.042
Mof_H 	H 	0.7806	0.2848	0.299	0.066
Mof_C 	C 	0.7045	0.2235	0.2032	-0.015
Mof_H 	H 	0.6765	0.2224	0.2227	0.051
Mof_C 	C 	0.6816	0.1882	0.1301	-0.057
Mof_H 	H 	0.6385	0.1652	0.099	0.063
Mof_C 	C 	0.7254	0.1885	0.1048	0.002
Mof_H 	H 	0.7118	0.1629	0.0565	0.049
Mof_C 	C 	0.7887	0.2245	0.1466	-0.053
Mof_C 	C 	0.8399	0.2321	0.1317	0.223
Mof_C 	C 	0.2676	0.1335	0.4487	0.313
Mof_O 	O 	0.2905	0.191	0.4386	-0.39
Mof_O 	O 	0.2355	0.131	0.4826	-0.388
Mof_C 	C 	0.2866	0.0649	0.4281	-0.029
Mof_C 	C 	0.3262	0.0656	0.4002	-0.09
Mof_H 	H 	0.3387	0.1095	0.3888	0.099
Mof_H 	H 	0.5547	0.0105	0.2497	0.148
Mof_C 	C 	0.3908	0.0237	0.2968	0.102
Mof_C 	C 	0.4711	0.0246	0.2531	-0.47
Mof_H 	H 	0.4413	0.0518	0.205	0.202
Mof_C 	C 	0.5814	0.9663	0.3525	-0.051
Mof_H 	H 	0.6266	0.9535	0.3716	0.059
Mof_C 	C 	0.5557	0.9414	0.3956	-0.026
Mof_H 	H 	0.5813	0.9119	0.4427	0.065
Mof_C 	C 	0.4955	0.9626	0.3754	-0.022
Mof_O 	O 	0.3369	0.0551	0.2474	-0.152
Mof_O 	O 	0.018	0.5745	0.5262	-0.112
Mof_C 	C 	0.4544	0.9572	0.4081	0.148
Mof_Cu	Cu	0.78337	0.78482	0.47541	0.908
Mof_C 	C 	0.6409	0.7723	0.3643	0.339
Mof_N 	N 	0.3902	0.7751	0.1943	-0.188
Mof_O 	O 	0.4507	0.929	0.0369	-0.414
Mof_C 	C 	0.573	0.7896	0.2848	-0.036
Mof_O 	O 	0.5632	0.9285	0.1119	-0.396
Mof_C 	C 	0.5713	0.8343	0.2254	-0.019
Mof_H 	H 	0.6125	0.8513	0.2348	0.062
Mof_O 	O 	0.6938	0.7983	0.3727	-0.399
Mof_C 	C 	0.5086	0.8527	0.1535	-0.038
Mof_O 	O 	0.6395	0.7392	0.4174	-0.412
Mof_C 	C 	0.5066	0.9053	0.0939	0.349
Mof_O 	O 	0.4098	0.8215	0.3143	-0.197
Mof_C 	C 	0.4496	0.8293	0.1434	-0.094
Mof_H 	H 	0.4071	0.8401	0.0936	0.093
Mof_O 	O 	0.3394	0.7113	0.0741	-0.214
Mof_C 	C 	0.4498	0.7915	0.2017	0.145
Mof_C 	C 	0.512	0.7697	0.2733	-0.092
Mof_H 	H 	0.5124	0.7418	0.3133	0.092
Mof_C 	C 	0.3739	0.7862	0.2478	0.196
Mof_C 	C 	0.3066	0.7589	0.2186	-0.008
Mof_C 	C 	0.2665	0.7604	0.2498	-0.041
Mof_H 	H 	0.2806	0.7848	0.299	0.066
Mof_C 	C 	0.2045	0.7235	0.2032	-0.014
Mof_H 	H 	0.1765	0.7224	0.2227	0.051
Mof_C 	C 	0.1816	0.6882	0.1301	-0.056
Mof_H 	H 	0.1385	0.6652	0.099	0.063
Mof_C 	C 	0.2254	0.6885	0.1048	0.002
Mof_H 	H 	0.2118	0.6629	0.0565	0.049
Mof_C 	C 	0.2887	0.7245	0.1466	-0.053
Mof_C 	C 	0.3399	0.7321	0.1317	0.224
Mof_C 	C 	0.7676	0.6335	0.4487	0.314
Mof_O 	O 	0.7905	0.691	0.4386	-0.39
Mof_O 	O 	0.7355	0.631	0.4826	-0.388
Mof_C 	C 	0.7866	0.5649	0.4281	-0.03
Mof_C 	C 	0.8262	0.5656	0.4002	-0.09
Mof_H 	H 	0.8387	0.6095	0.3888	0.099
Mof_H 	H 	0.0547	0.5105	0.2497	0.027
Mof_C 	C 	0.8908	0.5237	0.2968	0.129
Mof_C 	C 	0.9711	0.5246	0.2531	-0.009
Mof_H 	H 	0.9413	0.5518	0.205	0.053
Mof_C 	C 	0.0814	0.4663	0.3525	-0.017
Mof_H 	H 	0.1266	0.4535	0.3716	0.044
Mof_C 	C 	0.0557	0.4414	0.3956	-0.047
Mof_H 	H 	0.0813	0.4119	0.4427	0.072
Mof_C 	C 	0.9955	0.4626	0.3754	0.014
Mof_O 	O 	0.8369	0.5551	0.2474	-0.156
Mof_O 	O 	0.518	0.0745	0.5262	-0.108
Mof_C 	C 	0.9544	0.4572	0.4081	0.128
Mof_Cu	Cu	0.71663	0.28482	0.52459	0.908
Mof_C 	C 	0.8591	0.2723	0.6357	0.339
Mof_N 	N 	0.1098	0.2751	0.8057	-0.188
Mof_O 	O 	0.0493	0.429	0.9631	-0.415
Mof_C 	C 	0.927	0.2896	0.7152	-0.036
Mof_O 	O 	0.9368	0.4285	0.8881	-0.401
Mof_C 	C 	0.9287	0.3343	0.7746	-0.018
Mof_H 	H 	0.8875	0.3513	0.7652	0.06
Mof_O 	O 	0.8062	0.2983	0.6273	-0.4
Mof_C 	C 	0.9914	0.3527	0.8465	-0.043
Mof_O 	O 	0.8605	0.2392	0.5826	-0.413
Mof_C 	C 	0.9934	0.4053	0.9061	0.345
Mof_O 	O 	0.0902	0.3215	0.6857	-0.194
Mof_C 	C 	0.0504	0.3293	0.8566	-0.094
Mof_H 	H 	0.0929	0.3401	0.9064	0.091
Mof_O 	O 	0.1606	0.2113	0.9259	-0.214
Mof_C 	C 	0.0502	0.2915	0.7983	0.146
Mof_C 	C 	0.988	0.2697	0.7267	-0.092
Mof_H 	H 	0.9876	0.2418	0.6867	0.091
Mof_C 	C 	0.1261	0.2862	0.7522	0.195
Mof_C 	C 	0.1934	0.2589	0.7814	-0.008
Mof_C 	C 	0.2335	0.2604	0.7502	-0.042
Mof_H 	H 	0.2194	0.2848	0.701	0.066
Mof_C 	C 	0.2955	0.2235	0.7968	-0.015
Mof_H 	H 	0.3235	0.2224	0.7773	0.051
Mof_C 	C 	0.3184	0.1882	0.8699	-0.057
Mof_H 	H 	0.3615	0.1652	0.901	0.063
Mof_C 	C 	0.2746	0.1885	0.8952	0.002
Mof_H 	H 	0.2882	0.1629	0.9435	0.049
Mof_C 	C 	0.2113	0.2245	0.8534	-0.053
Mof_C 	C 	0.1601	0.2321	0.8683	0.223
Mof_C 	C 	0.7324	0.1335	0.5513	0.313
Mof_O 	O 	0.7095	0.191	0.5614	-0.39
Mof_O 	O 	0.7645	0.131	0.5174	-0.388
Mof_C 	C 	0.7134	0.0649	0.5719	-0.029
Mof_C 	C 	0.6738	0.0656	0.5998	-0.09
Mof_H 	H 	0.6613	0.1095	0.6112	0.099
Mof_H 	H 	0.4453	0.0105	0.7503	0.148
Mof_C 	C 	0.6092	0.0237	0.7032	0.102
Mof_C 	C 	0.5289	0.0246	0.7469	-0.47
Mof_H 	H 	0.5587	0.0518	0.795	0.202
Mof_C 	C 	0.4186	0.9663	0.6475	-0.051
Mof_H 	H 	0.3734	0.9535	0.6284	0.059
Mof_C 	C 	0.4443	0.9414	0.6044	-0.026
Mof_H 	H 	0.4187	0.9119	0.5573	0.065
Mof_C 	C 	0.5045	0.9626	0.6246	-0.022
Mof_O 	O 	0.6631	0.0551	0.7526	-0.152
Mof_O 	O 	0.982	0.5745	0.4738	-0.112
Mof_C 	C 	0.5456	0.9572	0.5919	0.148
Mof_Cu	Cu	0.21663	0.78482	0.52459	0.908
Mof_C 	C 	0.3591	0.7723	0.6357	0.339
Mof_N 	N 	0.6098	0.7751	0.8057	-0.188
Mof_O 	O 	0.5493	0.929	0.9631	-0.414
Mof_C 	C 	0.427	0.7896	0.7152	-0.036
Mof_O 	O 	0.4368	0.9285	0.8881	-0.396
Mof_C 	C 	0.4287	0.8343	0.7746	-0.019
Mof_H 	H 	0.3875	0.8513	0.7652	0.062
Mof_O 	O 	0.3062	0.7983	0.6273	-0.399
Mof_C 	C 	0.4914	0.8527	0.8465	-0.038
Mof_O 	O 	0.3605	0.7392	0.5826	-0.412
Mof_C 	C 	0.4934	0.9053	0.9061	0.349
Mof_O 	O 	0.5902	0.8215	0.6857	-0.197
Mof_C 	C 	0.5504	0.8293	0.8566	-0.094
Mof_H 	H 	0.5929	0.8401	0.9064	0.093
Mof_O 	O 	0.6606	0.7113	0.9259	-0.214
Mof_C 	C 	0.5502	0.7915	0.7983	0.145
Mof_C 	C 	0.488	0.7697	0.7267	-0.092
Mof_H 	H 	0.4876	0.7418	0.6867	0.092
Mof_C 	C 	0.6261	0.7862	0.7522	0.196
Mof_C 	C 	0.6934	0.7589	0.7814	-0.008
Mof_C 	C 	0.7335	0.7604	0.7502	-0.041
Mof_H 	H 	0.7194	0.7848	0.701	0.066
Mof_C 	C 	0.7955	0.7235	0.7968	-0.014
Mof_H 	H 	0.8235	0.7224	0.7773	0.051
Mof_C 	C 	0.8184	0.6882	0.8699	-0.056
Mof_H 	H 	0.8615	0.6652	0.901	0.063
Mof_C 	C 	0.7746	0.6885	0.8952	0.002
Mof_H 	H 	0.7882	0.6629	0.9435	0.049
Mof_C 	C 	0.7113	0.7245	0.8534	-0.053
Mof_C 	C 	0.6601	0.7321	0.8683	0.224
Mof_C 	C 	0.2324	0.6335	0.5513	0.314
Mof_O 	O 	0.2095	0.691	0.5614	-0.39
Mof_O 	O 	0.2645	0.631	0.5174	-0.388
Mof_C 	C 	0.2134	0.5649	0.5719	-0.03
Mof_C 	C 	0.1738	0.5656	0.5998	-0.09
Mof_H 	H 	0.1613	0.6095	0.6112	0.099
Mof_H 	H 	0.9453	0.5105	0.7503	0.027
Mof_C 	C 	0.1092	0.5237	0.7032	0.129
Mof_C 	C 	0.0289	0.5246	0.7469	-0.009
Mof_H 	H 	0.0587	0.5518	0.795	0.053
Mof_C 	C 	0.9186	0.4663	0.6475	-0.017
Mof_H 	H 	0.8734	0.4535	0.6284	0.044
Mof_C 	C 	0.9443	0.4414	0.6044	-0.047
Mof_H 	H 	0.9187	0.4119	0.5573	0.072
Mof_C 	C 	0.0045	0.4626	0.6246	0.014
Mof_O 	O 	0.1631	0.5551	0.7526	-0.156
Mof_O 	O 	0.482	0.0745	0.4738	-0.108
Mof_C 	C 	0.0456	0.4572	0.5919	0.128
Mof_Cu	Cu	0.06717	0.5	0.04234	0.908
Mof_Cu	Cu	0.56717	0	0.04234	0.904
Mof_Cu	Cu	0.93283	0.5	0.95766	0.908
Mof_Cu	Cu	0.43283	2.75242e-32	0.95766	0.904
Mof_N 	N 	0.6046	0	0.6369	-0.19
Mof_C 	C 	0.7348	6.88105e-33	0.5565	-0.042
Mof_H 	H 	0.7625	6.88105e-33	0.5365	0.069
Mof_C 	C 	0.6508	0	0.6121	0.132
Mof_C 	C 	0.5452	1.37621e-32	0.6936	-0.115
Mof_C 	C 	0.4627	0	0.7189	-0.118
Mof_N 	N 	0.1046	0.5	0.6369	-0.183
Mof_C 	C 	0.2348	0.5	0.5565	-0.026
Mof_H 	H 	0.2625	0.5	0.5365	0.068
Mof_C 	C 	0.1508	0.5	0.6121	0.145
Mof_C 	C 	0.0452	0.5	0.6936	-0.059
Mof_C 	C 	0.9627	0.5	0.7189	-0.041
Mof_N 	N 	0.3954	6.88105e-33	0.3631	-0.19
Mof_C 	C 	0.2652	6.88105e-33	0.4435	-0.042
Mof_H 	H 	0.2375	0	0.4635	0.069
Mof_C 	C 	0.3492	0	0.3879	0.132
Mof_C 	C 	0.4548	6.88105e-33	0.3064	-0.115
Mof_C 	C 	0.5373	6.88105e-33	0.2811	-0.118
Mof_N 	N 	0.8954	0.5	0.3631	-0.183
Mof_C 	C 	0.7652	0.5	0.4435	-0.026
Mof_H 	H 	0.7375	0.5	0.4635	0.068
Mof_C 	C 	0.8492	0.5	0.3879	0.145
Mof_C 	C 	0.9548	0.5	0.3064	-0.059
Mof_C 	C 	0.0373	0.5	0.2811	-0.041
_end
