# CIF file generated by openbabel 3.1.0, see https://openbabel.org
data_I
_chemical_name_common 'image0'
_cell_length_a 10.3605
_cell_length_b 10.5224
_cell_length_c 15.014
_cell_angle_alpha 89.979
_cell_angle_beta 76.656
_cell_angle_gamma 89.98
_space_group_name_H-M_alt 'P 1'
_space_group_name_Hall 'P 1'
loop_
    _symmetry_equiv_pos_as_xyz
    x,y,z
loop_
    _atom_site_label
    _atom_site_type_symbol
    _atom_site_fract_x
    _atom_site_fract_y
    _atom_site_fract_z
    _atom_site_occupancy
    Ag1      Ag       0.63777    0.38787    0.51539    1.000
    N1       N        0.32300    0.10130    0.06220    1.000
    N2       N        0.83100    0.12670    0.05830    1.000
    N3       N        0.42470    0.13240    0.10410    1.000
    N4       N        0.57320    0.30390    0.38590    1.000
    N5       N        0.23840    0.18250    0.19700    1.000
    N6       N        0.15090    0.23840    0.27300    1.000
    C1       C        0.84770    0.08940    0.13930    1.000
    C2       C        0.93940    0.16370    0.99690    1.000
    C3       C        0.06430    0.16580    0.01330    1.000
    C4       C        0.08000    0.12800    0.09880    1.000
    C5       C        0.96840    0.08770    0.16320    1.000
    C6       C        0.21190    0.13360    0.11940    1.000
    C7       C        0.37130    0.18150    0.18420    1.000
    C8       C        0.44350    0.22410    0.25300    1.000
    C9       C        0.40700    0.17810    0.34150    1.000
    C10      C        0.47510    0.21950    0.40470    1.000
    C11      C        0.60970    0.34520    0.29970    1.000
    C12      C        0.54880    0.30780    0.23160    1.000
    H1       H        0.76600    0.06200    0.18700    1.000
    H2       H        0.92100    0.18600    0.93600    1.000
    H3       H        0.13600    0.19100    0.96900    1.000
    H4       H        0.97100    0.05700    0.22100    1.000
    H5       H        0.34000    0.12100    0.35800    1.000
    H6       H        0.44300    0.19100    0.46700    1.000
    H7       H        0.67600    0.41300    0.28500    1.000
    H8       H        0.57400    0.33700    0.17900    1.000
    H9       H        0.11800    0.28100    0.25600    1.000
    H10      H        0.10300    0.17400    0.30700    1.000
    Ag2      Ag       0.63778    0.11213    0.01539    1.000
    N7       N        0.57360    0.19630    0.88600    1.000
    N8       N        0.32250    0.39870    0.56270    1.000
    N9       N        0.83130    0.37300    0.55820    1.000
    N10      N        0.42520    0.36740    0.60410    1.000
    N11      N        0.23830    0.31760    0.69720    1.000
    N12      N        0.15130    0.25950    0.77230    1.000
    C13      C        0.47480    0.28030    0.90540    1.000
    C14      C        0.61000    0.15570    0.79990    1.000
    C15      C        0.37230    0.31800    0.68400    1.000
    C16      C        0.44300    0.27570    0.75340    1.000
    C17      C        0.40680    0.32150    0.84140    1.000
    C18      C        0.54910    0.19210    0.73080    1.000
    C19      C        0.93970    0.33620    0.49670    1.000
    C20      C        0.84720    0.41090    0.63920    1.000
    C21      C        0.21190    0.36630    0.61930    1.000
    C22      C        0.07950    0.37220    0.59880    1.000
    C23      C        0.06390    0.33420    0.51420    1.000
    C24      C        0.96730    0.41140    0.66330    1.000
    H11      H        0.44600    0.31100    0.96500    1.000
    H12      H        0.67800    0.10000    0.78700    1.000
    H13      H        0.97700    0.44200    0.71700    1.000
    H14      H        0.34200    0.38100    0.85600    1.000
    H15      H        0.57800    0.16600    0.67400    1.000
    H16      H        0.92700    0.30300    0.44200    1.000
    H17      H        0.77500    0.44500    0.68100    1.000
    H18      H        0.13400    0.31600    0.47400    1.000
    H19      H        0.09900    0.21500    0.74800    1.000
    H20      H        0.11500    0.30800    0.78700    1.000
    Ag3      Ag       0.36222    0.88787    0.98461    1.000
    N13      N        0.42640    0.80370    0.11400    1.000
    N14      N        0.67750    0.60130    0.43730    1.000
    N15      N        0.16870    0.62700    0.44180    1.000
    N16      N        0.57480    0.63260    0.39590    1.000
    N17      N        0.76170    0.68240    0.30280    1.000
    N18      N        0.84870    0.74050    0.22770    1.000
    C25      C        0.52520    0.71970    0.09460    1.000
    C26      C        0.39000    0.84430    0.20010    1.000
    C27      C        0.62770    0.68200    0.31600    1.000
    C28      C        0.55700    0.72430    0.24660    1.000
    C29      C        0.59320    0.67850    0.15860    1.000
    C30      C        0.45090    0.80790    0.26920    1.000
    C31      C        0.06030    0.66380    0.50330    1.000
    C32      C        0.15280    0.58910    0.36080    1.000
    C33      C        0.78810    0.63370    0.38070    1.000
    C34      C        0.92050    0.62780    0.40120    1.000
    C35      C        0.93610    0.66580    0.48580    1.000
    C36      C        0.03270    0.58860    0.33670    1.000
    H21      H        0.55400    0.68900    0.03500    1.000
    H22      H        0.32200    0.90000    0.21300    1.000
    H23      H        0.02300    0.55800    0.28300    1.000
    H24      H        0.65800    0.61900    0.14400    1.000
    H25      H        0.42200    0.83400    0.32600    1.000
    H26      H        0.07300    0.69700    0.55800    1.000
    H27      H        0.22500    0.55500    0.31900    1.000
    H28      H        0.86600    0.68400    0.52600    1.000
    H29      H        0.90100    0.78500    0.25200    1.000
    H30      H        0.88500    0.69200    0.21300    1.000
    Ag4      Ag       0.36223    0.61213    0.48461    1.000
    N19      N        0.67700    0.89870    0.93780    1.000
    N20      N        0.16900    0.87330    0.94170    1.000
    N21      N        0.57530    0.86760    0.89590    1.000
    N22      N        0.42680    0.69610    0.61410    1.000
    N23      N        0.76160    0.81750    0.80300    1.000
    N24      N        0.84910    0.76160    0.72700    1.000
    C37      C        0.15230    0.91060    0.86070    1.000
    C38      C        0.06060    0.83630    0.00310    1.000
    C39      C        0.93570    0.83420    0.98670    1.000
    C40      C        0.92000    0.87200    0.90120    1.000
    C41      C        0.03160    0.91230    0.83680    1.000
    C42      C        0.78810    0.86640    0.88060    1.000
    C43      C        0.62870    0.81850    0.81580    1.000
    C44      C        0.55650    0.77590    0.74700    1.000
    C45      C        0.59300    0.82190    0.65850    1.000
    C46      C        0.52490    0.78050    0.59530    1.000
    C47      C        0.39030    0.65480    0.70030    1.000
    C48      C        0.45120    0.69220    0.76840    1.000
    H31      H        0.23400    0.93800    0.81300    1.000
    H32      H        0.07900    0.81400    0.06400    1.000
    H33      H        0.86400    0.80900    0.03100    1.000
    H34      H        0.02900    0.94300    0.77900    1.000
    H35      H        0.66000    0.87900    0.64200    1.000
    H36      H        0.55700    0.80900    0.53300    1.000
    H37      H        0.32400    0.58700    0.71500    1.000
    H38      H        0.42600    0.66300    0.82100    1.000
    H39      H        0.88200    0.71900    0.74400    1.000
    H40      H        0.89700    0.82600    0.69300    1.000
