# CIF file generated by openbabel 3.1.0, see https://openbabel.org
data_I
_chemical_name_common 'image0'
_cell_length_a 53.68
_cell_length_b 53.68
_cell_length_c 53.68
_cell_angle_alpha 90
_cell_angle_beta 90
_cell_angle_gamma 90
_space_group_name_H-M_alt 'P 1'
_space_group_name_Hall 'P 1'
loop_
    _symmetry_equiv_pos_as_xyz
    x,y,z
loop_
    _atom_site_label
    _atom_site_type_symbol
    _atom_site_fract_x
    _atom_site_fract_y
    _atom_site_fract_z
    _atom_site_occupancy
    Zr1      Zr       0.36217    0.40871    0.21244    1.000
    Zr2      Zr       0.33279    0.37957    0.16122    1.000
    S1       S        0.32049    0.43424    0.08554    1.000
    O1       O        0.37880    0.41471    0.12457    1.000
    O2       O        0.33768    0.40663    0.12884    1.000
    O3       O        0.28807    0.45769    0.04951    1.000
    O4       O        0.31740    0.47566    0.02587    1.000
    O5       O        0.29785    0.35911    0.17285    1.000
    O6       O        0.30549    0.33958    0.20939    1.000
    O7       O        0.32708    0.36260    0.24907    1.000
    O8       O        0.33925    0.40284    0.24779    1.000
    O9       O        0.37684    0.44537    0.19641    1.000
    O10      O        0.40044    0.43558    0.16299    1.000
    O11      O        0.36168    0.40157    0.17440    1.000
    O12      O        0.33066    0.38340    0.20276    1.000
    C1       C        0.35625    0.41657    0.11815    1.000
    C2       C        0.35056    0.43201    0.09619    1.000
    C3       C        0.36660    0.44567    0.08208    1.000
    H1       H        0.38370    0.44660    0.08490    1.000
    C4       C        0.35384    0.45843    0.06235    1.000
    H2       H        0.36170    0.46900    0.05110    1.000
    C5       C        0.32930    0.45354    0.06179    1.000
    C6       C        0.31003    0.46330    0.04429    1.000
    C7       C        0.29284    0.34391    0.18993    1.000
    C8       C        0.26946    0.32945    0.18673    1.000
    C9       C        0.26120    0.30944    0.19987    1.000
    H3       H        0.26950    0.30270    0.21350    1.000
    C10      C        0.32705    0.38468    0.25655    1.000
    C11      C        0.31055    0.39101    0.27822    1.000
    C12      C        0.30704    0.41352    0.28857    1.000
    H4       H        0.31590    0.42760    0.28400    1.000
    C13      C        0.39047    0.45064    0.17816    1.000
    C14      C        0.39471    0.47727    0.17279    1.000
    C15      C        0.40690    0.48680    0.15280    1.000
    H5       H        0.41440    0.47710    0.14050    1.000
    O13      O        0.31772    0.36107    0.12811    1.000
    S2       S        0.26566    0.32120    0.09880    1.000
    C16      C        0.24370    0.36420    0.10330    1.000
    C17      C        0.28270    0.34610    0.10930    1.000
    C18      C        0.30890    0.34030    0.12210    1.000
    C19      C        0.26620    0.36790    0.10970    1.000
    C20      C        0.23940    0.33850    0.09480    1.000
    Zr3      Zr       0.86217    0.90871    0.71244    1.000
    Zr4      Zr       0.83279    0.87957    0.66122    1.000
    S3       S        0.82049    0.93424    0.58554    1.000
    O14      O        0.87880    0.91471    0.62457    1.000
    O15      O        0.83768    0.90663    0.62884    1.000
    O16      O        0.78807    0.95769    0.54951    1.000
    O17      O        0.81740    0.97566    0.52587    1.000
    O18      O        0.79785    0.85911    0.67285    1.000
    O19      O        0.80549    0.83958    0.70939    1.000
    O20      O        0.82708    0.86260    0.74907    1.000
    O21      O        0.83925    0.90284    0.74779    1.000
    O22      O        0.87684    0.94537    0.69641    1.000
    O23      O        0.90044    0.93558    0.66299    1.000
    O24      O        0.86168    0.90157    0.67440    1.000
    O25      O        0.83066    0.88340    0.70276    1.000
    C21      C        0.85625    0.91657    0.61815    1.000
    C22      C        0.85056    0.93201    0.59619    1.000
    C23      C        0.86660    0.94567    0.58208    1.000
    H6       H        0.88370    0.94660    0.58490    1.000
    C24      C        0.85384    0.95843    0.56235    1.000
    H7       H        0.86170    0.96900    0.55110    1.000
    C25      C        0.82930    0.95354    0.56179    1.000
    C26      C        0.81003    0.96330    0.54429    1.000
    C27      C        0.79284    0.84391    0.68993    1.000
    C28      C        0.76946    0.82945    0.68673    1.000
    C29      C        0.76120    0.80944    0.69987    1.000
    H8       H        0.76950    0.80270    0.71350    1.000
    C30      C        0.82705    0.88468    0.75655    1.000
    C31      C        0.81055    0.89101    0.77822    1.000
    C32      C        0.80704    0.91352    0.78857    1.000
    H9       H        0.81590    0.92760    0.78400    1.000
    C33      C        0.89047    0.95064    0.67816    1.000
    C34      C        0.89471    0.97727    0.67279    1.000
    C35      C        0.90690    0.98680    0.65280    1.000
    H10      H        0.91440    0.97710    0.64050    1.000
    O26      O        0.81772    0.86107    0.62811    1.000
    S4       S        0.76566    0.82120    0.59880    1.000
    C36      C        0.74370    0.86420    0.60330    1.000
    C37      C        0.78270    0.84610    0.60930    1.000
    C38      C        0.80890    0.84030    0.62210    1.000
    C39      C        0.76620    0.86790    0.60970    1.000
    C40      C        0.73940    0.83850    0.59480    1.000
    Zr5      Zr       0.63783    0.59129    0.21244    1.000
    Zr6      Zr       0.66721    0.62043    0.16122    1.000
    S5       S        0.67951    0.56576    0.08554    1.000
    O27      O        0.62120    0.58529    0.12457    1.000
    O28      O        0.66232    0.59337    0.12884    1.000
    O29      O        0.71193    0.54231    0.04951    1.000
    O30      O        0.68260    0.52434    0.02587    1.000
    O31      O        0.70215    0.64089    0.17285    1.000
    O32      O        0.69451    0.66042    0.20939    1.000
    O33      O        0.67292    0.63740    0.24907    1.000
    O34      O        0.66075    0.59716    0.24779    1.000
    O35      O        0.62316    0.55463    0.19641    1.000
    O36      O        0.59956    0.56442    0.16299    1.000
    O37      O        0.63832    0.59843    0.17440    1.000
    O38      O        0.66934    0.61660    0.20276    1.000
    C41      C        0.64375    0.58343    0.11815    1.000
    C42      C        0.64944    0.56799    0.09619    1.000
    C43      C        0.63340    0.55433    0.08208    1.000
    H11      H        0.61630    0.55340    0.08490    1.000
    C44      C        0.64616    0.54157    0.06235    1.000
    H12      H        0.63830    0.53100    0.05110    1.000
    C45      C        0.67070    0.54646    0.06179    1.000
    C46      C        0.68997    0.53670    0.04429    1.000
    C47      C        0.70716    0.65609    0.18993    1.000
    C48      C        0.73054    0.67055    0.18673    1.000
    C49      C        0.73880    0.69056    0.19987    1.000
    H13      H        0.73050    0.69730    0.21350    1.000
    C50      C        0.67295    0.61532    0.25655    1.000
    C51      C        0.68945    0.60899    0.27822    1.000
    C52      C        0.69296    0.58648    0.28857    1.000
    H14      H        0.68410    0.57240    0.28400    1.000
    C53      C        0.60953    0.54936    0.17816    1.000
    C54      C        0.60529    0.52273    0.17279    1.000
    C55      C        0.59310    0.51320    0.15280    1.000
    H15      H        0.58560    0.52290    0.14050    1.000
    O39      O        0.68228    0.63893    0.12811    1.000
    S6       S        0.73434    0.67880    0.09880    1.000
    C56      C        0.75630    0.63580    0.10330    1.000
    C57      C        0.71730    0.65390    0.10930    1.000
    C58      C        0.69110    0.65970    0.12210    1.000
    C59      C        0.73380    0.63210    0.10970    1.000
    C60      C        0.76060    0.66150    0.09480    1.000
    Zr7      Zr       0.13783    0.09129    0.71244    1.000
    Zr8      Zr       0.16721    0.12043    0.66122    1.000
    S7       S        0.17951    0.06576    0.58554    1.000
    O40      O        0.12120    0.08529    0.62457    1.000
    O41      O        0.16232    0.09337    0.62884    1.000
    O42      O        0.21193    0.04231    0.54951    1.000
    O43      O        0.18260    0.02434    0.52587    1.000
    O44      O        0.20215    0.14089    0.67285    1.000
    O45      O        0.19451    0.16042    0.70939    1.000
    O46      O        0.17292    0.13740    0.74907    1.000
    O47      O        0.16075    0.09716    0.74779    1.000
    O48      O        0.12316    0.05463    0.69641    1.000
    O49      O        0.09956    0.06442    0.66299    1.000
    O50      O        0.13832    0.09843    0.67440    1.000
    O51      O        0.16934    0.11660    0.70276    1.000
    C61      C        0.14375    0.08343    0.61815    1.000
    C62      C        0.14944    0.06799    0.59619    1.000
    C63      C        0.13340    0.05433    0.58208    1.000
    H16      H        0.11630    0.05340    0.58490    1.000
    C64      C        0.14616    0.04157    0.56235    1.000
    H17      H        0.13830    0.03100    0.55110    1.000
    C65      C        0.17070    0.04646    0.56179    1.000
    C66      C        0.18997    0.03670    0.54429    1.000
    C67      C        0.20716    0.15609    0.68993    1.000
    C68      C        0.23054    0.17055    0.68673    1.000
    C69      C        0.23880    0.19056    0.69987    1.000
    H18      H        0.23050    0.19730    0.71350    1.000
    C70      C        0.17295    0.11532    0.75655    1.000
    C71      C        0.18945    0.10899    0.77822    1.000
    C72      C        0.19296    0.08648    0.78857    1.000
    H19      H        0.18410    0.07240    0.78400    1.000
    C73      C        0.10953    0.04936    0.67816    1.000
    C74      C        0.10529    0.02273    0.67279    1.000
    C75      C        0.09310    0.01320    0.65280    1.000
    H20      H        0.08560    0.02290    0.64050    1.000
    O52      O        0.18228    0.13893    0.62811    1.000
    S8       S        0.23434    0.17880    0.59880    1.000
    C76      C        0.25630    0.13580    0.60330    1.000
    C77      C        0.21730    0.15390    0.60930    1.000
    C78      C        0.19110    0.15970    0.62210    1.000
    C79      C        0.23380    0.13210    0.60970    1.000
    C80      C        0.26060    0.16150    0.59480    1.000
    Zr9      Zr       0.63783    0.40871    0.78756    1.000
    Zr10     Zr       0.66721    0.37957    0.83878    1.000
    S9       S        0.67951    0.43424    0.91446    1.000
    O53      O        0.62120    0.41471    0.87543    1.000
    O54      O        0.66232    0.40663    0.87116    1.000
    O55      O        0.71193    0.45769    0.95049    1.000
    O56      O        0.68260    0.47566    0.97413    1.000
    O57      O        0.70215    0.35911    0.82715    1.000
    O58      O        0.69451    0.33958    0.79061    1.000
    O59      O        0.67292    0.36260    0.75093    1.000
    O60      O        0.66075    0.40284    0.75221    1.000
    O61      O        0.62316    0.44537    0.80359    1.000
    O62      O        0.59956    0.43558    0.83701    1.000
    O63      O        0.63832    0.40157    0.82560    1.000
    O64      O        0.66934    0.38340    0.79724    1.000
    C81      C        0.64375    0.41657    0.88185    1.000
    C82      C        0.64944    0.43201    0.90381    1.000
    C83      C        0.63340    0.44567    0.91792    1.000
    H21      H        0.61630    0.44660    0.91510    1.000
    C84      C        0.64616    0.45843    0.93765    1.000
    H22      H        0.63830    0.46900    0.94890    1.000
    C85      C        0.67070    0.45354    0.93821    1.000
    C86      C        0.68997    0.46330    0.95571    1.000
    C87      C        0.70716    0.34391    0.81007    1.000
    C88      C        0.73054    0.32945    0.81327    1.000
    C89      C        0.73880    0.30944    0.80013    1.000
    H23      H        0.73050    0.30270    0.78650    1.000
    C90      C        0.67295    0.38468    0.74345    1.000
    C91      C        0.68945    0.39101    0.72178    1.000
    C92      C        0.69296    0.41352    0.71143    1.000
    H24      H        0.68410    0.42760    0.71600    1.000
    C93      C        0.60953    0.45064    0.82184    1.000
    C94      C        0.60529    0.47727    0.82721    1.000
    C95      C        0.59310    0.48680    0.84720    1.000
    H25      H        0.58560    0.47710    0.85950    1.000
    O65      O        0.68228    0.36107    0.87189    1.000
    S10      S        0.73434    0.32120    0.90120    1.000
    C96      C        0.75630    0.36420    0.89670    1.000
    C97      C        0.71730    0.34610    0.89070    1.000
    C98      C        0.69110    0.34030    0.87790    1.000
    C99      C        0.73380    0.36790    0.89030    1.000
    C100     C        0.76060    0.33850    0.90520    1.000
    Zr11     Zr       0.13783    0.90871    0.28756    1.000
    Zr12     Zr       0.16721    0.87957    0.33878    1.000
    S11      S        0.17951    0.93424    0.41446    1.000
    O66      O        0.12120    0.91471    0.37543    1.000
    O67      O        0.16232    0.90663    0.37116    1.000
    O68      O        0.21193    0.95769    0.45049    1.000
    O69      O        0.18260    0.97566    0.47413    1.000
    O70      O        0.20215    0.85911    0.32715    1.000
    O71      O        0.19451    0.83958    0.29061    1.000
    O72      O        0.17292    0.86260    0.25093    1.000
    O73      O        0.16075    0.90284    0.25221    1.000
    O74      O        0.12316    0.94537    0.30359    1.000
    O75      O        0.09956    0.93558    0.33701    1.000
    O76      O        0.13832    0.90157    0.32560    1.000
    O77      O        0.16934    0.88340    0.29724    1.000
    C101     C        0.14375    0.91657    0.38185    1.000
    C102     C        0.14944    0.93201    0.40381    1.000
    C103     C        0.13340    0.94567    0.41792    1.000
    H26      H        0.11630    0.94660    0.41510    1.000
    C104     C        0.14616    0.95843    0.43765    1.000
    H27      H        0.13830    0.96900    0.44890    1.000
    C105     C        0.17070    0.95354    0.43821    1.000
    C106     C        0.18997    0.96330    0.45571    1.000
    C107     C        0.20716    0.84391    0.31007    1.000
    C108     C        0.23054    0.82945    0.31327    1.000
    C109     C        0.23880    0.80944    0.30013    1.000
    H28      H        0.23050    0.80270    0.28650    1.000
    C110     C        0.17295    0.88468    0.24345    1.000
    C111     C        0.18945    0.89101    0.22178    1.000
    C112     C        0.19296    0.91352    0.21143    1.000
    H29      H        0.18410    0.92760    0.21600    1.000
    C113     C        0.10953    0.95064    0.32184    1.000
    C114     C        0.10529    0.97727    0.32721    1.000
    C115     C        0.09310    0.98680    0.34720    1.000
    H30      H        0.08560    0.97710    0.35950    1.000
    O78      O        0.18228    0.86107    0.37189    1.000
    S12      S        0.23434    0.82120    0.40120    1.000
    C116     C        0.25630    0.86420    0.39670    1.000
    C117     C        0.21730    0.84610    0.39070    1.000
    C118     C        0.19110    0.84030    0.37790    1.000
    C119     C        0.23380    0.86790    0.39030    1.000
    C120     C        0.26060    0.83850    0.40520    1.000
    Zr13     Zr       0.36217    0.59129    0.78756    1.000
    Zr14     Zr       0.33279    0.62043    0.83878    1.000
    S13      S        0.32049    0.56576    0.91446    1.000
    O79      O        0.37880    0.58529    0.87543    1.000
    O80      O        0.33768    0.59337    0.87116    1.000
    O81      O        0.28807    0.54231    0.95049    1.000
    O82      O        0.31740    0.52434    0.97413    1.000
    O83      O        0.29785    0.64089    0.82715    1.000
    O84      O        0.30549    0.66042    0.79061    1.000
    O85      O        0.32708    0.63740    0.75093    1.000
    O86      O        0.33925    0.59716    0.75221    1.000
    O87      O        0.37684    0.55463    0.80359    1.000
    O88      O        0.40044    0.56442    0.83701    1.000
    O89      O        0.36168    0.59843    0.82560    1.000
    O90      O        0.33066    0.61660    0.79724    1.000
    C121     C        0.35625    0.58343    0.88185    1.000
    C122     C        0.35056    0.56799    0.90381    1.000
    C123     C        0.36660    0.55433    0.91792    1.000
    H31      H        0.38370    0.55340    0.91510    1.000
    C124     C        0.35384    0.54157    0.93765    1.000
    H32      H        0.36170    0.53100    0.94890    1.000
    C125     C        0.32930    0.54646    0.93821    1.000
    C126     C        0.31003    0.53670    0.95571    1.000
    C127     C        0.29284    0.65609    0.81007    1.000
    C128     C        0.26946    0.67055    0.81327    1.000
    C129     C        0.26120    0.69056    0.80013    1.000
    H33      H        0.26950    0.69730    0.78650    1.000
    C130     C        0.32705    0.61532    0.74345    1.000
    C131     C        0.31055    0.60899    0.72178    1.000
    C132     C        0.30704    0.58648    0.71143    1.000
    H34      H        0.31590    0.57240    0.71600    1.000
    C133     C        0.39047    0.54936    0.82184    1.000
    C134     C        0.39471    0.52273    0.82721    1.000
    C135     C        0.40690    0.51320    0.84720    1.000
    H35      H        0.41440    0.52290    0.85950    1.000
    O91      O        0.31772    0.63893    0.87189    1.000
    S14      S        0.26566    0.67880    0.90120    1.000
    C136     C        0.24370    0.63580    0.89670    1.000
    C137     C        0.28270    0.65390    0.89070    1.000
    C138     C        0.30890    0.65970    0.87790    1.000
    C139     C        0.26620    0.63210    0.89030    1.000
    C140     C        0.23940    0.66150    0.90520    1.000
    Zr15     Zr       0.86217    0.09129    0.28756    1.000
    Zr16     Zr       0.83279    0.12043    0.33878    1.000
    S15      S        0.82049    0.06576    0.41446    1.000
    O92      O        0.87880    0.08529    0.37543    1.000
    O93      O        0.83768    0.09337    0.37116    1.000
    O94      O        0.78807    0.04231    0.45049    1.000
    O95      O        0.81740    0.02434    0.47413    1.000
    O96      O        0.79785    0.14089    0.32715    1.000
    O97      O        0.80549    0.16042    0.29061    1.000
    O98      O        0.82708    0.13740    0.25093    1.000
    O99      O        0.83925    0.09716    0.25221    1.000
    O100     O        0.87684    0.05463    0.30359    1.000
    O101     O        0.90044    0.06442    0.33701    1.000
    O102     O        0.86168    0.09843    0.32560    1.000
    O103     O        0.83066    0.11660    0.29724    1.000
    C141     C        0.85625    0.08343    0.38185    1.000
    C142     C        0.85056    0.06799    0.40381    1.000
    C143     C        0.86660    0.05433    0.41792    1.000
    H36      H        0.88370    0.05340    0.41510    1.000
    C144     C        0.85384    0.04157    0.43765    1.000
    H37      H        0.86170    0.03100    0.44890    1.000
    C145     C        0.82930    0.04646    0.43821    1.000
    C146     C        0.81003    0.03670    0.45571    1.000
    C147     C        0.79284    0.15609    0.31007    1.000
    C148     C        0.76946    0.17055    0.31327    1.000
    C149     C        0.76120    0.19056    0.30013    1.000
    H38      H        0.76950    0.19730    0.28650    1.000
    C150     C        0.82705    0.11532    0.24345    1.000
    C151     C        0.81055    0.10899    0.22178    1.000
    C152     C        0.80704    0.08648    0.21143    1.000
    H39      H        0.81590    0.07240    0.21600    1.000
    C153     C        0.89047    0.04936    0.32184    1.000
    C154     C        0.89471    0.02273    0.32721    1.000
    C155     C        0.90690    0.01320    0.34720    1.000
    H40      H        0.91440    0.02290    0.35950    1.000
    O104     O        0.81772    0.13893    0.37189    1.000
    S16      S        0.76566    0.17880    0.40120    1.000
    C156     C        0.74370    0.13580    0.39670    1.000
    C157     C        0.78270    0.15390    0.39070    1.000
    C158     C        0.80890    0.15970    0.37790    1.000
    C159     C        0.76620    0.13210    0.39030    1.000
    C160     C        0.73940    0.16150    0.40520    1.000
    Zr17     Zr       0.21244    0.36217    0.40871    1.000
    Zr18     Zr       0.16122    0.33279    0.37957    1.000
    S17      S        0.08554    0.32049    0.43424    1.000
    O105     O        0.12457    0.37880    0.41471    1.000
    O106     O        0.12884    0.33768    0.40663    1.000
    O107     O        0.04951    0.28807    0.45769    1.000
    O108     O        0.02587    0.31740    0.47566    1.000
    O109     O        0.17285    0.29785    0.35911    1.000
    O110     O        0.20939    0.30549    0.33958    1.000
    O111     O        0.24907    0.32708    0.36260    1.000
    O112     O        0.24779    0.33925    0.40284    1.000
    O113     O        0.19641    0.37684    0.44537    1.000
    O114     O        0.16299    0.40044    0.43558    1.000
    O115     O        0.17440    0.36168    0.40157    1.000
    O116     O        0.20276    0.33066    0.38340    1.000
    C161     C        0.11815    0.35625    0.41657    1.000
    C162     C        0.09619    0.35056    0.43201    1.000
    C163     C        0.08208    0.36660    0.44567    1.000
    H41      H        0.08490    0.38370    0.44660    1.000
    C164     C        0.06235    0.35384    0.45843    1.000
    H42      H        0.05110    0.36170    0.46900    1.000
    C165     C        0.06179    0.32930    0.45354    1.000
    C166     C        0.04429    0.31003    0.46330    1.000
    C167     C        0.18993    0.29284    0.34391    1.000
    C168     C        0.18673    0.26946    0.32945    1.000
    C169     C        0.19987    0.26120    0.30944    1.000
    H43      H        0.21350    0.26950    0.30270    1.000
    C170     C        0.25655    0.32705    0.38468    1.000
    C171     C        0.27822    0.31055    0.39101    1.000
    C172     C        0.28857    0.30704    0.41352    1.000
    H44      H        0.28400    0.31590    0.42760    1.000
    C173     C        0.17816    0.39047    0.45064    1.000
    C174     C        0.17279    0.39471    0.47727    1.000
    C175     C        0.15280    0.40690    0.48680    1.000
    H45      H        0.14050    0.41440    0.47710    1.000
    O117     O        0.12811    0.31772    0.36107    1.000
    S18      S        0.09880    0.26566    0.32120    1.000
    C176     C        0.10330    0.24370    0.36420    1.000
    C177     C        0.10930    0.28270    0.34610    1.000
    C178     C        0.12210    0.30890    0.34030    1.000
    C179     C        0.10970    0.26620    0.36790    1.000
    C180     C        0.09480    0.23940    0.33850    1.000
    Zr19     Zr       0.71244    0.86217    0.90871    1.000
    Zr20     Zr       0.66122    0.83279    0.87957    1.000
    S19      S        0.58554    0.82049    0.93424    1.000
    O118     O        0.62457    0.87880    0.91471    1.000
    O119     O        0.62884    0.83768    0.90663    1.000
    O120     O        0.54951    0.78807    0.95769    1.000
    O121     O        0.52587    0.81740    0.97566    1.000
    O122     O        0.67285    0.79785    0.85911    1.000
    O123     O        0.70939    0.80549    0.83958    1.000
    O124     O        0.74907    0.82708    0.86260    1.000
    O125     O        0.74779    0.83925    0.90284    1.000
    O126     O        0.69641    0.87684    0.94537    1.000
    O127     O        0.66299    0.90044    0.93558    1.000
    O128     O        0.67440    0.86168    0.90157    1.000
    O129     O        0.70276    0.83066    0.88340    1.000
    C181     C        0.61815    0.85625    0.91657    1.000
    C182     C        0.59619    0.85056    0.93201    1.000
    C183     C        0.58208    0.86660    0.94567    1.000
    H46      H        0.58490    0.88370    0.94660    1.000
    C184     C        0.56235    0.85384    0.95843    1.000
    H47      H        0.55110    0.86170    0.96900    1.000
    C185     C        0.56179    0.82930    0.95354    1.000
    C186     C        0.54429    0.81003    0.96330    1.000
    C187     C        0.68993    0.79284    0.84391    1.000
    C188     C        0.68673    0.76946    0.82945    1.000
    C189     C        0.69987    0.76120    0.80944    1.000
    H48      H        0.71350    0.76950    0.80270    1.000
    C190     C        0.75655    0.82705    0.88468    1.000
    C191     C        0.77822    0.81055    0.89101    1.000
    C192     C        0.78857    0.80704    0.91352    1.000
    H49      H        0.78400    0.81590    0.92760    1.000
    C193     C        0.67816    0.89047    0.95064    1.000
    C194     C        0.67279    0.89471    0.97727    1.000
    C195     C        0.65280    0.90690    0.98680    1.000
    H50      H        0.64050    0.91440    0.97710    1.000
    O130     O        0.62811    0.81772    0.86107    1.000
    S20      S        0.59880    0.76566    0.82120    1.000
    C196     C        0.60330    0.74370    0.86420    1.000
    C197     C        0.60930    0.78270    0.84610    1.000
    C198     C        0.62210    0.80890    0.84030    1.000
    C199     C        0.60970    0.76620    0.86790    1.000
    C200     C        0.59480    0.73940    0.83850    1.000
    Zr21     Zr       0.21244    0.63783    0.59129    1.000
    Zr22     Zr       0.16122    0.66721    0.62043    1.000
    S21      S        0.08554    0.67951    0.56576    1.000
    O131     O        0.12457    0.62120    0.58529    1.000
    O132     O        0.12884    0.66232    0.59337    1.000
    O133     O        0.04951    0.71193    0.54231    1.000
    O134     O        0.02587    0.68260    0.52434    1.000
    O135     O        0.17285    0.70215    0.64089    1.000
    O136     O        0.20939    0.69451    0.66042    1.000
    O137     O        0.24907    0.67292    0.63740    1.000
    O138     O        0.24779    0.66075    0.59716    1.000
    O139     O        0.19641    0.62316    0.55463    1.000
    O140     O        0.16299    0.59956    0.56442    1.000
    O141     O        0.17440    0.63832    0.59843    1.000
    O142     O        0.20276    0.66934    0.61660    1.000
    C201     C        0.11815    0.64375    0.58343    1.000
    C202     C        0.09619    0.64944    0.56799    1.000
    C203     C        0.08208    0.63340    0.55433    1.000
    H51      H        0.08490    0.61630    0.55340    1.000
    C204     C        0.06235    0.64616    0.54157    1.000
    H52      H        0.05110    0.63830    0.53100    1.000
    C205     C        0.06179    0.67070    0.54646    1.000
    C206     C        0.04429    0.68997    0.53670    1.000
    C207     C        0.18993    0.70716    0.65609    1.000
    C208     C        0.18673    0.73054    0.67055    1.000
    C209     C        0.19987    0.73880    0.69056    1.000
    H53      H        0.21350    0.73050    0.69730    1.000
    C210     C        0.25655    0.67295    0.61532    1.000
    C211     C        0.27822    0.68945    0.60899    1.000
    C212     C        0.28857    0.69296    0.58648    1.000
    H54      H        0.28400    0.68410    0.57240    1.000
    C213     C        0.17816    0.60953    0.54936    1.000
    C214     C        0.17279    0.60529    0.52273    1.000
    C215     C        0.15280    0.59310    0.51320    1.000
    H55      H        0.14050    0.58560    0.52290    1.000
    O143     O        0.12811    0.68228    0.63893    1.000
    S22      S        0.09880    0.73434    0.67880    1.000
    C216     C        0.10330    0.75630    0.63580    1.000
    C217     C        0.10930    0.71730    0.65390    1.000
    C218     C        0.12210    0.69110    0.65970    1.000
    C219     C        0.10970    0.73380    0.63210    1.000
    C220     C        0.09480    0.76060    0.66150    1.000
    Zr23     Zr       0.71244    0.13783    0.09129    1.000
    Zr24     Zr       0.66122    0.16721    0.12043    1.000
    S23      S        0.58554    0.17951    0.06576    1.000
    O144     O        0.62457    0.12120    0.08529    1.000
    O145     O        0.62884    0.16232    0.09337    1.000
    O146     O        0.54951    0.21193    0.04231    1.000
    O147     O        0.52587    0.18260    0.02434    1.000
    O148     O        0.67285    0.20215    0.14089    1.000
    O149     O        0.70939    0.19451    0.16042    1.000
    O150     O        0.74907    0.17292    0.13740    1.000
    O151     O        0.74779    0.16075    0.09716    1.000
    O152     O        0.69641    0.12316    0.05463    1.000
    O153     O        0.66299    0.09956    0.06442    1.000
    O154     O        0.67440    0.13832    0.09843    1.000
    O155     O        0.70276    0.16934    0.11660    1.000
    C221     C        0.61815    0.14375    0.08343    1.000
    C222     C        0.59619    0.14944    0.06799    1.000
    C223     C        0.58208    0.13340    0.05433    1.000
    H56      H        0.58490    0.11630    0.05340    1.000
    C224     C        0.56235    0.14616    0.04157    1.000
    H57      H        0.55110    0.13830    0.03100    1.000
    C225     C        0.56179    0.17070    0.04646    1.000
    C226     C        0.54429    0.18997    0.03670    1.000
    C227     C        0.68993    0.20716    0.15609    1.000
    C228     C        0.68673    0.23054    0.17055    1.000
    C229     C        0.69987    0.23880    0.19056    1.000
    H58      H        0.71350    0.23050    0.19730    1.000
    C230     C        0.75655    0.17295    0.11532    1.000
    C231     C        0.77822    0.18945    0.10899    1.000
    C232     C        0.78857    0.19296    0.08648    1.000
    H59      H        0.78400    0.18410    0.07240    1.000
    C233     C        0.67816    0.10953    0.04936    1.000
    C234     C        0.67279    0.10529    0.02273    1.000
    C235     C        0.65280    0.09310    0.01320    1.000
    H60      H        0.64050    0.08560    0.02290    1.000
    O156     O        0.62811    0.18228    0.13893    1.000
    S24      S        0.59880    0.23434    0.17880    1.000
    C236     C        0.60330    0.25630    0.13580    1.000
    C237     C        0.60930    0.21730    0.15390    1.000
    C238     C        0.62210    0.19110    0.15970    1.000
    C239     C        0.60970    0.23380    0.13210    1.000
    C240     C        0.59480    0.26060    0.16150    1.000
    Zr25     Zr       0.78756    0.63783    0.40871    1.000
    Zr26     Zr       0.83878    0.66721    0.37957    1.000
    S25      S        0.91446    0.67951    0.43424    1.000
    O157     O        0.87543    0.62120    0.41471    1.000
    O158     O        0.87116    0.66232    0.40663    1.000
    O159     O        0.95049    0.71193    0.45769    1.000
    O160     O        0.97413    0.68260    0.47566    1.000
    O161     O        0.82715    0.70215    0.35911    1.000
    O162     O        0.79061    0.69451    0.33958    1.000
    O163     O        0.75093    0.67292    0.36260    1.000
    O164     O        0.75221    0.66075    0.40284    1.000
    O165     O        0.80359    0.62316    0.44537    1.000
    O166     O        0.83701    0.59956    0.43558    1.000
    O167     O        0.82560    0.63832    0.40157    1.000
    O168     O        0.79724    0.66934    0.38340    1.000
    C241     C        0.88185    0.64375    0.41657    1.000
    C242     C        0.90381    0.64944    0.43201    1.000
    C243     C        0.91792    0.63340    0.44567    1.000
    H61      H        0.91510    0.61630    0.44660    1.000
    C244     C        0.93765    0.64616    0.45843    1.000
    H62      H        0.94890    0.63830    0.46900    1.000
    C245     C        0.93821    0.67070    0.45354    1.000
    C246     C        0.95571    0.68997    0.46330    1.000
    C247     C        0.81007    0.70716    0.34391    1.000
    C248     C        0.81327    0.73054    0.32945    1.000
    C249     C        0.80013    0.73880    0.30944    1.000
    H63      H        0.78650    0.73050    0.30270    1.000
    C250     C        0.74345    0.67295    0.38468    1.000
    C251     C        0.72178    0.68945    0.39101    1.000
    C252     C        0.71143    0.69296    0.41352    1.000
    H64      H        0.71600    0.68410    0.42760    1.000
    C253     C        0.82184    0.60953    0.45064    1.000
    C254     C        0.82721    0.60529    0.47727    1.000
    C255     C        0.84720    0.59310    0.48680    1.000
    H65      H        0.85950    0.58560    0.47710    1.000
    O169     O        0.87189    0.68228    0.36107    1.000
    S26      S        0.90120    0.73434    0.32120    1.000
    C256     C        0.89670    0.75630    0.36420    1.000
    C257     C        0.89070    0.71730    0.34610    1.000
    C258     C        0.87790    0.69110    0.34030    1.000
    C259     C        0.89030    0.73380    0.36790    1.000
    C260     C        0.90520    0.76060    0.33850    1.000
    Zr27     Zr       0.28756    0.13783    0.90871    1.000
    Zr28     Zr       0.33878    0.16721    0.87957    1.000
    S27      S        0.41446    0.17951    0.93424    1.000
    O170     O        0.37543    0.12120    0.91471    1.000
    O171     O        0.37116    0.16232    0.90663    1.000
    O172     O        0.45049    0.21193    0.95769    1.000
    O173     O        0.47413    0.18260    0.97566    1.000
    O174     O        0.32715    0.20215    0.85911    1.000
    O175     O        0.29061    0.19451    0.83958    1.000
    O176     O        0.25093    0.17292    0.86260    1.000
    O177     O        0.25221    0.16075    0.90284    1.000
    O178     O        0.30359    0.12316    0.94537    1.000
    O179     O        0.33701    0.09956    0.93558    1.000
    O180     O        0.32560    0.13832    0.90157    1.000
    O181     O        0.29724    0.16934    0.88340    1.000
    C261     C        0.38185    0.14375    0.91657    1.000
    C262     C        0.40381    0.14944    0.93201    1.000
    C263     C        0.41792    0.13340    0.94567    1.000
    H66      H        0.41510    0.11630    0.94660    1.000
    C264     C        0.43765    0.14616    0.95843    1.000
    H67      H        0.44890    0.13830    0.96900    1.000
    C265     C        0.43821    0.17070    0.95354    1.000
    C266     C        0.45571    0.18997    0.96330    1.000
    C267     C        0.31007    0.20716    0.84391    1.000
    C268     C        0.31327    0.23054    0.82945    1.000
    C269     C        0.30013    0.23880    0.80944    1.000
    H68      H        0.28650    0.23050    0.80270    1.000
    C270     C        0.24345    0.17295    0.88468    1.000
    C271     C        0.22178    0.18945    0.89101    1.000
    C272     C        0.21143    0.19296    0.91352    1.000
    H69      H        0.21600    0.18410    0.92760    1.000
    C273     C        0.32184    0.10953    0.95064    1.000
    C274     C        0.32721    0.10529    0.97727    1.000
    C275     C        0.34720    0.09310    0.98680    1.000
    H70      H        0.35950    0.08560    0.97710    1.000
    O182     O        0.37189    0.18228    0.86107    1.000
    S28      S        0.40120    0.23434    0.82120    1.000
    C276     C        0.39670    0.25630    0.86420    1.000
    C277     C        0.39070    0.21730    0.84610    1.000
    C278     C        0.37790    0.19110    0.84030    1.000
    C279     C        0.39030    0.23380    0.86790    1.000
    C280     C        0.40520    0.26060    0.83850    1.000
    Zr29     Zr       0.78756    0.36217    0.59129    1.000
    Zr30     Zr       0.83878    0.33279    0.62043    1.000
    S29      S        0.91446    0.32049    0.56576    1.000
    O183     O        0.87543    0.37880    0.58529    1.000
    O184     O        0.87116    0.33768    0.59337    1.000
    O185     O        0.95049    0.28807    0.54231    1.000
    O186     O        0.97413    0.31740    0.52434    1.000
    O187     O        0.82715    0.29785    0.64089    1.000
    O188     O        0.79061    0.30549    0.66042    1.000
    O189     O        0.75093    0.32708    0.63740    1.000
    O190     O        0.75221    0.33925    0.59716    1.000
    O191     O        0.80359    0.37684    0.55463    1.000
    O192     O        0.83701    0.40044    0.56442    1.000
    O193     O        0.82560    0.36168    0.59843    1.000
    O194     O        0.79724    0.33066    0.61660    1.000
    C281     C        0.88185    0.35625    0.58343    1.000
    C282     C        0.90381    0.35056    0.56799    1.000
    C283     C        0.91792    0.36660    0.55433    1.000
    H71      H        0.91510    0.38370    0.55340    1.000
    C284     C        0.93765    0.35384    0.54157    1.000
    H72      H        0.94890    0.36170    0.53100    1.000
    C285     C        0.93821    0.32930    0.54646    1.000
    C286     C        0.95571    0.31003    0.53670    1.000
    C287     C        0.81007    0.29284    0.65609    1.000
    C288     C        0.81327    0.26946    0.67055    1.000
    C289     C        0.80013    0.26120    0.69056    1.000
    H73      H        0.78650    0.26950    0.69730    1.000
    C290     C        0.74345    0.32705    0.61532    1.000
    C291     C        0.72178    0.31055    0.60899    1.000
    C292     C        0.71143    0.30704    0.58648    1.000
    H74      H        0.71600    0.31590    0.57240    1.000
    C293     C        0.82184    0.39047    0.54936    1.000
    C294     C        0.82721    0.39471    0.52273    1.000
    C295     C        0.84720    0.40690    0.51320    1.000
    H75      H        0.85950    0.41440    0.52290    1.000
    O195     O        0.87189    0.31772    0.63893    1.000
    S30      S        0.90120    0.26566    0.67880    1.000
    C296     C        0.89670    0.24370    0.63580    1.000
    C297     C        0.89070    0.28270    0.65390    1.000
    C298     C        0.87790    0.30890    0.65970    1.000
    C299     C        0.89030    0.26620    0.63210    1.000
    C300     C        0.90520    0.23940    0.66150    1.000
    Zr31     Zr       0.28756    0.86217    0.09129    1.000
    Zr32     Zr       0.33878    0.83279    0.12043    1.000
    S31      S        0.41446    0.82049    0.06576    1.000
    O196     O        0.37543    0.87880    0.08529    1.000
    O197     O        0.37116    0.83768    0.09337    1.000
    O198     O        0.45049    0.78807    0.04231    1.000
    O199     O        0.47413    0.81740    0.02434    1.000
    O200     O        0.32715    0.79785    0.14089    1.000
    O201     O        0.29061    0.80549    0.16042    1.000
    O202     O        0.25093    0.82708    0.13740    1.000
    O203     O        0.25221    0.83925    0.09716    1.000
    O204     O        0.30359    0.87684    0.05463    1.000
    O205     O        0.33701    0.90044    0.06442    1.000
    O206     O        0.32560    0.86168    0.09843    1.000
    O207     O        0.29724    0.83066    0.11660    1.000
    C301     C        0.38185    0.85625    0.08343    1.000
    C302     C        0.40381    0.85056    0.06799    1.000
    C303     C        0.41792    0.86660    0.05433    1.000
    H76      H        0.41510    0.88370    0.05340    1.000
    C304     C        0.43765    0.85384    0.04157    1.000
    H77      H        0.44890    0.86170    0.03100    1.000
    C305     C        0.43821    0.82930    0.04646    1.000
    C306     C        0.45571    0.81003    0.03670    1.000
    C307     C        0.31007    0.79284    0.15609    1.000
    C308     C        0.31327    0.76946    0.17055    1.000
    C309     C        0.30013    0.76120    0.19056    1.000
    H78      H        0.28650    0.76950    0.19730    1.000
    C310     C        0.24345    0.82705    0.11532    1.000
    C311     C        0.22178    0.81055    0.10899    1.000
    C312     C        0.21143    0.80704    0.08648    1.000
    H79      H        0.21600    0.81590    0.07240    1.000
    C313     C        0.32184    0.89047    0.04936    1.000
    C314     C        0.32721    0.89471    0.02273    1.000
    C315     C        0.34720    0.90690    0.01320    1.000
    H80      H        0.35950    0.91440    0.02290    1.000
    O208     O        0.37189    0.81772    0.13893    1.000
    S32      S        0.40120    0.76566    0.17880    1.000
    C316     C        0.39670    0.74370    0.13580    1.000
    C317     C        0.39070    0.78270    0.15390    1.000
    C318     C        0.37790    0.80890    0.15970    1.000
    C319     C        0.39030    0.76620    0.13210    1.000
    C320     C        0.40520    0.73940    0.16150    1.000
    Zr33     Zr       0.40871    0.21244    0.36217    1.000
    Zr34     Zr       0.37957    0.16122    0.33279    1.000
    S33      S        0.43424    0.08554    0.32049    1.000
    O209     O        0.41471    0.12457    0.37880    1.000
    O210     O        0.40663    0.12884    0.33768    1.000
    O211     O        0.45769    0.04951    0.28807    1.000
    O212     O        0.47566    0.02587    0.31740    1.000
    O213     O        0.35911    0.17285    0.29785    1.000
    O214     O        0.33958    0.20939    0.30549    1.000
    O215     O        0.36260    0.24907    0.32708    1.000
    O216     O        0.40284    0.24779    0.33925    1.000
    O217     O        0.44537    0.19641    0.37684    1.000
    O218     O        0.43558    0.16299    0.40044    1.000
    O219     O        0.40157    0.17440    0.36168    1.000
    O220     O        0.38340    0.20276    0.33066    1.000
    C321     C        0.41657    0.11815    0.35625    1.000
    C322     C        0.43201    0.09619    0.35056    1.000
    C323     C        0.44567    0.08208    0.36660    1.000
    H81      H        0.44660    0.08490    0.38370    1.000
    C324     C        0.45843    0.06235    0.35384    1.000
    H82      H        0.46900    0.05110    0.36170    1.000
    C325     C        0.45354    0.06179    0.32930    1.000
    C326     C        0.46330    0.04429    0.31003    1.000
    C327     C        0.34391    0.18993    0.29284    1.000
    C328     C        0.32945    0.18673    0.26946    1.000
    C329     C        0.30944    0.19987    0.26120    1.000
    H83      H        0.30270    0.21350    0.26950    1.000
    C330     C        0.38468    0.25655    0.32705    1.000
    C331     C        0.39101    0.27822    0.31055    1.000
    C332     C        0.41352    0.28857    0.30704    1.000
    H84      H        0.42760    0.28400    0.31590    1.000
    C333     C        0.45064    0.17816    0.39047    1.000
    C334     C        0.47727    0.17279    0.39471    1.000
    C335     C        0.48680    0.15280    0.40690    1.000
    H85      H        0.47710    0.14050    0.41440    1.000
    O221     O        0.36107    0.12811    0.31772    1.000
    S34      S        0.32120    0.09880    0.26566    1.000
    C336     C        0.36420    0.10330    0.24370    1.000
    C337     C        0.34610    0.10930    0.28270    1.000
    C338     C        0.34030    0.12210    0.30890    1.000
    C339     C        0.36790    0.10970    0.26620    1.000
    C340     C        0.33850    0.09480    0.23940    1.000
    Zr35     Zr       0.90871    0.71244    0.86217    1.000
    Zr36     Zr       0.87957    0.66122    0.83279    1.000
    S35      S        0.93424    0.58554    0.82049    1.000
    O222     O        0.91471    0.62457    0.87880    1.000
    O223     O        0.90663    0.62884    0.83768    1.000
    O224     O        0.95769    0.54951    0.78807    1.000
    O225     O        0.97566    0.52587    0.81740    1.000
    O226     O        0.85911    0.67285    0.79785    1.000
    O227     O        0.83958    0.70939    0.80549    1.000
    O228     O        0.86260    0.74907    0.82708    1.000
    O229     O        0.90284    0.74779    0.83925    1.000
    O230     O        0.94537    0.69641    0.87684    1.000
    O231     O        0.93558    0.66299    0.90044    1.000
    O232     O        0.90157    0.67440    0.86168    1.000
    O233     O        0.88340    0.70276    0.83066    1.000
    C341     C        0.91657    0.61815    0.85625    1.000
    C342     C        0.93201    0.59619    0.85056    1.000
    C343     C        0.94567    0.58208    0.86660    1.000
    H86      H        0.94660    0.58490    0.88370    1.000
    C344     C        0.95843    0.56235    0.85384    1.000
    H87      H        0.96900    0.55110    0.86170    1.000
    C345     C        0.95354    0.56179    0.82930    1.000
    C346     C        0.96330    0.54429    0.81003    1.000
    C347     C        0.84391    0.68993    0.79284    1.000
    C348     C        0.82945    0.68673    0.76946    1.000
    C349     C        0.80944    0.69987    0.76120    1.000
    H88      H        0.80270    0.71350    0.76950    1.000
    C350     C        0.88468    0.75655    0.82705    1.000
    C351     C        0.89101    0.77822    0.81055    1.000
    C352     C        0.91352    0.78857    0.80704    1.000
    H89      H        0.92760    0.78400    0.81590    1.000
    C353     C        0.95064    0.67816    0.89047    1.000
    C354     C        0.97727    0.67279    0.89471    1.000
    C355     C        0.98680    0.65280    0.90690    1.000
    H90      H        0.97710    0.64050    0.91440    1.000
    O234     O        0.86107    0.62811    0.81772    1.000
    S36      S        0.82120    0.59880    0.76566    1.000
    C356     C        0.86420    0.60330    0.74370    1.000
    C357     C        0.84610    0.60930    0.78270    1.000
    C358     C        0.84030    0.62210    0.80890    1.000
    C359     C        0.86790    0.60970    0.76620    1.000
    C360     C        0.83850    0.59480    0.73940    1.000
    Zr37     Zr       0.59129    0.21244    0.63783    1.000
    Zr38     Zr       0.62043    0.16122    0.66721    1.000
    S37      S        0.56576    0.08554    0.67951    1.000
    O235     O        0.58529    0.12457    0.62120    1.000
    O236     O        0.59337    0.12884    0.66232    1.000
    O237     O        0.54231    0.04951    0.71193    1.000
    O238     O        0.52434    0.02587    0.68260    1.000
    O239     O        0.64089    0.17285    0.70215    1.000
    O240     O        0.66042    0.20939    0.69451    1.000
    O241     O        0.63740    0.24907    0.67292    1.000
    O242     O        0.59716    0.24779    0.66075    1.000
    O243     O        0.55463    0.19641    0.62316    1.000
    O244     O        0.56442    0.16299    0.59956    1.000
    O245     O        0.59843    0.17440    0.63832    1.000
    O246     O        0.61660    0.20276    0.66934    1.000
    C361     C        0.58343    0.11815    0.64375    1.000
    C362     C        0.56799    0.09619    0.64944    1.000
    C363     C        0.55433    0.08208    0.63340    1.000
    H91      H        0.55340    0.08490    0.61630    1.000
    C364     C        0.54157    0.06235    0.64616    1.000
    H92      H        0.53100    0.05110    0.63830    1.000
    C365     C        0.54646    0.06179    0.67070    1.000
    C366     C        0.53670    0.04429    0.68997    1.000
    C367     C        0.65609    0.18993    0.70716    1.000
    C368     C        0.67055    0.18673    0.73054    1.000
    C369     C        0.69056    0.19987    0.73880    1.000
    H93      H        0.69730    0.21350    0.73050    1.000
    C370     C        0.61532    0.25655    0.67295    1.000
    C371     C        0.60899    0.27822    0.68945    1.000
    C372     C        0.58648    0.28857    0.69296    1.000
    H94      H        0.57240    0.28400    0.68410    1.000
    C373     C        0.54936    0.17816    0.60953    1.000
    C374     C        0.52273    0.17279    0.60529    1.000
    C375     C        0.51320    0.15280    0.59310    1.000
    H95      H        0.52290    0.14050    0.58560    1.000
    O247     O        0.63893    0.12811    0.68228    1.000
    S38      S        0.67880    0.09880    0.73434    1.000
    C376     C        0.63580    0.10330    0.75630    1.000
    C377     C        0.65390    0.10930    0.71730    1.000
    C378     C        0.65970    0.12210    0.69110    1.000
    C379     C        0.63210    0.10970    0.73380    1.000
    C380     C        0.66150    0.09480    0.76060    1.000
    Zr39     Zr       0.09129    0.71244    0.13783    1.000
    Zr40     Zr       0.12043    0.66122    0.16721    1.000
    S39      S        0.06576    0.58554    0.17951    1.000
    O248     O        0.08529    0.62457    0.12120    1.000
    O249     O        0.09337    0.62884    0.16232    1.000
    O250     O        0.04231    0.54951    0.21193    1.000
    O251     O        0.02434    0.52587    0.18260    1.000
    O252     O        0.14089    0.67285    0.20215    1.000
    O253     O        0.16042    0.70939    0.19451    1.000
    O254     O        0.13740    0.74907    0.17292    1.000
    O255     O        0.09716    0.74779    0.16075    1.000
    O256     O        0.05463    0.69641    0.12316    1.000
    O257     O        0.06442    0.66299    0.09956    1.000
    O258     O        0.09843    0.67440    0.13832    1.000
    O259     O        0.11660    0.70276    0.16934    1.000
    C381     C        0.08343    0.61815    0.14375    1.000
    C382     C        0.06799    0.59619    0.14944    1.000
    C383     C        0.05433    0.58208    0.13340    1.000
    H96      H        0.05340    0.58490    0.11630    1.000
    C384     C        0.04157    0.56235    0.14616    1.000
    H97      H        0.03100    0.55110    0.13830    1.000
    C385     C        0.04646    0.56179    0.17070    1.000
    C386     C        0.03670    0.54429    0.18997    1.000
    C387     C        0.15609    0.68993    0.20716    1.000
    C388     C        0.17055    0.68673    0.23054    1.000
    C389     C        0.19056    0.69987    0.23880    1.000
    H98      H        0.19730    0.71350    0.23050    1.000
    C390     C        0.11532    0.75655    0.17295    1.000
    C391     C        0.10899    0.77822    0.18945    1.000
    C392     C        0.08648    0.78857    0.19296    1.000
    H99      H        0.07240    0.78400    0.18410    1.000
    C393     C        0.04936    0.67816    0.10953    1.000
    C394     C        0.02273    0.67279    0.10529    1.000
    C395     C        0.01320    0.65280    0.09310    1.000
    H100     H        0.02290    0.64050    0.08560    1.000
    O260     O        0.13893    0.62811    0.18228    1.000
    S40      S        0.17880    0.59880    0.23434    1.000
    C396     C        0.13580    0.60330    0.25630    1.000
    C397     C        0.15390    0.60930    0.21730    1.000
    C398     C        0.15970    0.62210    0.19110    1.000
    C399     C        0.13210    0.60970    0.23380    1.000
    C400     C        0.16150    0.59480    0.26060    1.000
    Zr41     Zr       0.40871    0.78756    0.63783    1.000
    Zr42     Zr       0.37957    0.83878    0.66721    1.000
    S41      S        0.43424    0.91446    0.67951    1.000
    O261     O        0.41471    0.87543    0.62120    1.000
    O262     O        0.40663    0.87116    0.66232    1.000
    O263     O        0.45769    0.95049    0.71193    1.000
    O264     O        0.47566    0.97413    0.68260    1.000
    O265     O        0.35911    0.82715    0.70215    1.000
    O266     O        0.33958    0.79061    0.69451    1.000
    O267     O        0.36260    0.75093    0.67292    1.000
    O268     O        0.40284    0.75221    0.66075    1.000
    O269     O        0.44537    0.80359    0.62316    1.000
    O270     O        0.43558    0.83701    0.59956    1.000
    O271     O        0.40157    0.82560    0.63832    1.000
    O272     O        0.38340    0.79724    0.66934    1.000
    C401     C        0.41657    0.88185    0.64375    1.000
    C402     C        0.43201    0.90381    0.64944    1.000
    C403     C        0.44567    0.91792    0.63340    1.000
    H101     H        0.44660    0.91510    0.61630    1.000
    C404     C        0.45843    0.93765    0.64616    1.000
    H102     H        0.46900    0.94890    0.63830    1.000
    C405     C        0.45354    0.93821    0.67070    1.000
    C406     C        0.46330    0.95571    0.68997    1.000
    C407     C        0.34391    0.81007    0.70716    1.000
    C408     C        0.32945    0.81327    0.73054    1.000
    C409     C        0.30944    0.80013    0.73880    1.000
    H103     H        0.30270    0.78650    0.73050    1.000
    C410     C        0.38468    0.74345    0.67295    1.000
    C411     C        0.39101    0.72178    0.68945    1.000
    C412     C        0.41352    0.71143    0.69296    1.000
    H104     H        0.42760    0.71600    0.68410    1.000
    C413     C        0.45064    0.82184    0.60953    1.000
    C414     C        0.47727    0.82721    0.60529    1.000
    C415     C        0.48680    0.84720    0.59310    1.000
    H105     H        0.47710    0.85950    0.58560    1.000
    O273     O        0.36107    0.87189    0.68228    1.000
    S42      S        0.32120    0.90120    0.73434    1.000
    C416     C        0.36420    0.89670    0.75630    1.000
    C417     C        0.34610    0.89070    0.71730    1.000
    C418     C        0.34030    0.87790    0.69110    1.000
    C419     C        0.36790    0.89030    0.73380    1.000
    C420     C        0.33850    0.90520    0.76060    1.000
    Zr43     Zr       0.90871    0.28756    0.13783    1.000
    Zr44     Zr       0.87957    0.33878    0.16721    1.000
    S43      S        0.93424    0.41446    0.17951    1.000
    O274     O        0.91471    0.37543    0.12120    1.000
    O275     O        0.90663    0.37116    0.16232    1.000
    O276     O        0.95769    0.45049    0.21193    1.000
    O277     O        0.97566    0.47413    0.18260    1.000
    O278     O        0.85911    0.32715    0.20215    1.000
    O279     O        0.83958    0.29061    0.19451    1.000
    O280     O        0.86260    0.25093    0.17292    1.000
    O281     O        0.90284    0.25221    0.16075    1.000
    O282     O        0.94537    0.30359    0.12316    1.000
    O283     O        0.93558    0.33701    0.09956    1.000
    O284     O        0.90157    0.32560    0.13832    1.000
    O285     O        0.88340    0.29724    0.16934    1.000
    C421     C        0.91657    0.38185    0.14375    1.000
    C422     C        0.93201    0.40381    0.14944    1.000
    C423     C        0.94567    0.41792    0.13340    1.000
    H106     H        0.94660    0.41510    0.11630    1.000
    C424     C        0.95843    0.43765    0.14616    1.000
    H107     H        0.96900    0.44890    0.13830    1.000
    C425     C        0.95354    0.43821    0.17070    1.000
    C426     C        0.96330    0.45571    0.18997    1.000
    C427     C        0.84391    0.31007    0.20716    1.000
    C428     C        0.82945    0.31327    0.23054    1.000
    C429     C        0.80944    0.30013    0.23880    1.000
    H108     H        0.80270    0.28650    0.23050    1.000
    C430     C        0.88468    0.24345    0.17295    1.000
    C431     C        0.89101    0.22178    0.18945    1.000
    C432     C        0.91352    0.21143    0.19296    1.000
    H109     H        0.92760    0.21600    0.18410    1.000
    C433     C        0.95064    0.32184    0.10953    1.000
    C434     C        0.97727    0.32721    0.10529    1.000
    C435     C        0.98680    0.34720    0.09310    1.000
    H110     H        0.97710    0.35950    0.08560    1.000
    O286     O        0.86107    0.37189    0.18228    1.000
    S44      S        0.82120    0.40120    0.23434    1.000
    C436     C        0.86420    0.39670    0.25630    1.000
    C437     C        0.84610    0.39070    0.21730    1.000
    C438     C        0.84030    0.37790    0.19110    1.000
    C439     C        0.86790    0.39030    0.23380    1.000
    C440     C        0.83850    0.40520    0.26060    1.000
    Zr45     Zr       0.59129    0.78756    0.36217    1.000
    Zr46     Zr       0.62043    0.83878    0.33279    1.000
    S45      S        0.56576    0.91446    0.32049    1.000
    O287     O        0.58529    0.87543    0.37880    1.000
    O288     O        0.59337    0.87116    0.33768    1.000
    O289     O        0.54231    0.95049    0.28807    1.000
    O290     O        0.52434    0.97413    0.31740    1.000
    O291     O        0.64089    0.82715    0.29785    1.000
    O292     O        0.66042    0.79061    0.30549    1.000
    O293     O        0.63740    0.75093    0.32708    1.000
    O294     O        0.59716    0.75221    0.33925    1.000
    O295     O        0.55463    0.80359    0.37684    1.000
    O296     O        0.56442    0.83701    0.40044    1.000
    O297     O        0.59843    0.82560    0.36168    1.000
    O298     O        0.61660    0.79724    0.33066    1.000
    C441     C        0.58343    0.88185    0.35625    1.000
    C442     C        0.56799    0.90381    0.35056    1.000
    C443     C        0.55433    0.91792    0.36660    1.000
    H111     H        0.55340    0.91510    0.38370    1.000
    C444     C        0.54157    0.93765    0.35384    1.000
    H112     H        0.53100    0.94890    0.36170    1.000
    C445     C        0.54646    0.93821    0.32930    1.000
    C446     C        0.53670    0.95571    0.31003    1.000
    C447     C        0.65609    0.81007    0.29284    1.000
    C448     C        0.67055    0.81327    0.26946    1.000
    C449     C        0.69056    0.80013    0.26120    1.000
    H113     H        0.69730    0.78650    0.26950    1.000
    C450     C        0.61532    0.74345    0.32705    1.000
    C451     C        0.60899    0.72178    0.31055    1.000
    C452     C        0.58648    0.71143    0.30704    1.000
    H114     H        0.57240    0.71600    0.31590    1.000
    C453     C        0.54936    0.82184    0.39047    1.000
    C454     C        0.52273    0.82721    0.39471    1.000
    C455     C        0.51320    0.84720    0.40690    1.000
    H115     H        0.52290    0.85950    0.41440    1.000
    O299     O        0.63893    0.87189    0.31772    1.000
    S46      S        0.67880    0.90120    0.26566    1.000
    C456     C        0.63580    0.89670    0.24370    1.000
    C457     C        0.65390    0.89070    0.28270    1.000
    C458     C        0.65970    0.87790    0.30890    1.000
    C459     C        0.63210    0.89030    0.26620    1.000
    C460     C        0.66150    0.90520    0.23940    1.000
    Zr47     Zr       0.09129    0.28756    0.86217    1.000
    Zr48     Zr       0.12043    0.33878    0.83279    1.000
    S47      S        0.06576    0.41446    0.82049    1.000
    O300     O        0.08529    0.37543    0.87880    1.000
    O301     O        0.09337    0.37116    0.83768    1.000
    O302     O        0.04231    0.45049    0.78807    1.000
    O303     O        0.02434    0.47413    0.81740    1.000
    O304     O        0.14089    0.32715    0.79785    1.000
    O305     O        0.16042    0.29061    0.80549    1.000
    O306     O        0.13740    0.25093    0.82708    1.000
    O307     O        0.09716    0.25221    0.83925    1.000
    O308     O        0.05463    0.30359    0.87684    1.000
    O309     O        0.06442    0.33701    0.90044    1.000
    O310     O        0.09843    0.32560    0.86168    1.000
    O311     O        0.11660    0.29724    0.83066    1.000
    C461     C        0.08343    0.38185    0.85625    1.000
    C462     C        0.06799    0.40381    0.85056    1.000
    C463     C        0.05433    0.41792    0.86660    1.000
    H116     H        0.05340    0.41510    0.88370    1.000
    C464     C        0.04157    0.43765    0.85384    1.000
    H117     H        0.03100    0.44890    0.86170    1.000
    C465     C        0.04646    0.43821    0.82930    1.000
    C466     C        0.03670    0.45571    0.81003    1.000
    C467     C        0.15609    0.31007    0.79284    1.000
    C468     C        0.17055    0.31327    0.76946    1.000
    C469     C        0.19056    0.30013    0.76120    1.000
    H118     H        0.19730    0.28650    0.76950    1.000
    C470     C        0.11532    0.24345    0.82705    1.000
    C471     C        0.10899    0.22178    0.81055    1.000
    C472     C        0.08648    0.21143    0.80704    1.000
    H119     H        0.07240    0.21600    0.81590    1.000
    C473     C        0.04936    0.32184    0.89047    1.000
    C474     C        0.02273    0.32721    0.89471    1.000
    C475     C        0.01320    0.34720    0.90690    1.000
    H120     H        0.02290    0.35950    0.91440    1.000
    O312     O        0.13893    0.37189    0.81772    1.000
    S48      S        0.17880    0.40120    0.76566    1.000
    C476     C        0.13580    0.39670    0.74370    1.000
    C477     C        0.15390    0.39070    0.78270    1.000
    C478     C        0.15970    0.37790    0.80890    1.000
    C479     C        0.13210    0.39030    0.76620    1.000
    C480     C        0.16150    0.40520    0.73940    1.000
    Zr49     Zr       0.40871    0.36217    0.78756    1.000
    Zr50     Zr       0.37957    0.33279    0.83878    1.000
    S49      S        0.43424    0.32049    0.91446    1.000
    O313     O        0.41471    0.37880    0.87543    1.000
    O314     O        0.40663    0.33768    0.87116    1.000
    O315     O        0.45769    0.28807    0.95049    1.000
    O316     O        0.47566    0.31740    0.97413    1.000
    O317     O        0.35911    0.29785    0.82715    1.000
    O318     O        0.33958    0.30549    0.79061    1.000
    O319     O        0.36260    0.32708    0.75093    1.000
    O320     O        0.40284    0.33925    0.75221    1.000
    O321     O        0.44537    0.37684    0.80359    1.000
    O322     O        0.43558    0.40044    0.83701    1.000
    O323     O        0.40157    0.36168    0.82560    1.000
    O324     O        0.38340    0.33066    0.79724    1.000
    C481     C        0.41657    0.35625    0.88185    1.000
    C482     C        0.43201    0.35056    0.90381    1.000
    C483     C        0.44567    0.36660    0.91792    1.000
    H121     H        0.44660    0.38370    0.91510    1.000
    C484     C        0.45843    0.35384    0.93765    1.000
    H122     H        0.46900    0.36170    0.94890    1.000
    C485     C        0.45354    0.32930    0.93821    1.000
    C486     C        0.46330    0.31003    0.95571    1.000
    C487     C        0.34391    0.29284    0.81007    1.000
    C488     C        0.32945    0.26946    0.81327    1.000
    C489     C        0.30944    0.26120    0.80013    1.000
    H123     H        0.30270    0.26950    0.78650    1.000
    C490     C        0.38468    0.32705    0.74345    1.000
    C491     C        0.39101    0.31055    0.72178    1.000
    C492     C        0.41352    0.30704    0.71143    1.000
    H124     H        0.42760    0.31590    0.71600    1.000
    C493     C        0.45064    0.39047    0.82184    1.000
    C494     C        0.47727    0.39471    0.82721    1.000
    C495     C        0.48680    0.40690    0.84720    1.000
    H125     H        0.47710    0.41440    0.85950    1.000
    O325     O        0.36107    0.31772    0.87189    1.000
    S50      S        0.32120    0.26566    0.90120    1.000
    C496     C        0.36420    0.24370    0.89670    1.000
    C497     C        0.34610    0.28270    0.89070    1.000
    C498     C        0.34030    0.30890    0.87790    1.000
    C499     C        0.36790    0.26620    0.89030    1.000
    C500     C        0.33850    0.23940    0.90520    1.000
    Zr51     Zr       0.90871    0.86217    0.28756    1.000
    Zr52     Zr       0.87957    0.83279    0.33878    1.000
    S51      S        0.93424    0.82049    0.41446    1.000
    O326     O        0.91471    0.87880    0.37543    1.000
    O327     O        0.90663    0.83768    0.37116    1.000
    O328     O        0.95769    0.78807    0.45049    1.000
    O329     O        0.97566    0.81740    0.47413    1.000
    O330     O        0.85911    0.79785    0.32715    1.000
    O331     O        0.83958    0.80549    0.29061    1.000
    O332     O        0.86260    0.82708    0.25093    1.000
    O333     O        0.90284    0.83925    0.25221    1.000
    O334     O        0.94537    0.87684    0.30359    1.000
    O335     O        0.93558    0.90044    0.33701    1.000
    O336     O        0.90157    0.86168    0.32560    1.000
    O337     O        0.88340    0.83066    0.29724    1.000
    C501     C        0.91657    0.85625    0.38185    1.000
    C502     C        0.93201    0.85056    0.40381    1.000
    C503     C        0.94567    0.86660    0.41792    1.000
    H126     H        0.94660    0.88370    0.41510    1.000
    C504     C        0.95843    0.85384    0.43765    1.000
    H127     H        0.96900    0.86170    0.44890    1.000
    C505     C        0.95354    0.82930    0.43821    1.000
    C506     C        0.96330    0.81003    0.45571    1.000
    C507     C        0.84391    0.79284    0.31007    1.000
    C508     C        0.82945    0.76946    0.31327    1.000
    C509     C        0.80944    0.76120    0.30013    1.000
    H128     H        0.80270    0.76950    0.28650    1.000
    C510     C        0.88468    0.82705    0.24345    1.000
    C511     C        0.89101    0.81055    0.22178    1.000
    C512     C        0.91352    0.80704    0.21143    1.000
    H129     H        0.92760    0.81590    0.21600    1.000
    C513     C        0.95064    0.89047    0.32184    1.000
    C514     C        0.97727    0.89471    0.32721    1.000
    C515     C        0.98680    0.90690    0.34720    1.000
    H130     H        0.97710    0.91440    0.35950    1.000
    O338     O        0.86107    0.81772    0.37189    1.000
    S52      S        0.82120    0.76566    0.40120    1.000
    C516     C        0.86420    0.74370    0.39670    1.000
    C517     C        0.84610    0.78270    0.39070    1.000
    C518     C        0.84030    0.80890    0.37790    1.000
    C519     C        0.86790    0.76620    0.39030    1.000
    C520     C        0.83850    0.73940    0.40520    1.000
    Zr53     Zr       0.59129    0.63783    0.78756    1.000
    Zr54     Zr       0.62043    0.66721    0.83878    1.000
    S53      S        0.56576    0.67951    0.91446    1.000
    O339     O        0.58529    0.62120    0.87543    1.000
    O340     O        0.59337    0.66232    0.87116    1.000
    O341     O        0.54231    0.71193    0.95049    1.000
    O342     O        0.52434    0.68260    0.97413    1.000
    O343     O        0.64089    0.70215    0.82715    1.000
    O344     O        0.66042    0.69451    0.79061    1.000
    O345     O        0.63740    0.67292    0.75093    1.000
    O346     O        0.59716    0.66075    0.75221    1.000
    O347     O        0.55463    0.62316    0.80359    1.000
    O348     O        0.56442    0.59956    0.83701    1.000
    O349     O        0.59843    0.63832    0.82560    1.000
    O350     O        0.61660    0.66934    0.79724    1.000
    C521     C        0.58343    0.64375    0.88185    1.000
    C522     C        0.56799    0.64944    0.90381    1.000
    C523     C        0.55433    0.63340    0.91792    1.000
    H131     H        0.55340    0.61630    0.91510    1.000
    C524     C        0.54157    0.64616    0.93765    1.000
    H132     H        0.53100    0.63830    0.94890    1.000
    C525     C        0.54646    0.67070    0.93821    1.000
    C526     C        0.53670    0.68997    0.95571    1.000
    C527     C        0.65609    0.70716    0.81007    1.000
    C528     C        0.67055    0.73054    0.81327    1.000
    C529     C        0.69056    0.73880    0.80013    1.000
    H133     H        0.69730    0.73050    0.78650    1.000
    C530     C        0.61532    0.67295    0.74345    1.000
    C531     C        0.60899    0.68945    0.72178    1.000
    C532     C        0.58648    0.69296    0.71143    1.000
    H134     H        0.57240    0.68410    0.71600    1.000
    C533     C        0.54936    0.60953    0.82184    1.000
    C534     C        0.52273    0.60529    0.82721    1.000
    C535     C        0.51320    0.59310    0.84720    1.000
    H135     H        0.52290    0.58560    0.85950    1.000
    O351     O        0.63893    0.68228    0.87189    1.000
    S54      S        0.67880    0.73434    0.90120    1.000
    C536     C        0.63580    0.75630    0.89670    1.000
    C537     C        0.65390    0.71730    0.89070    1.000
    C538     C        0.65970    0.69110    0.87790    1.000
    C539     C        0.63210    0.73380    0.89030    1.000
    C540     C        0.66150    0.76060    0.90520    1.000
    Zr55     Zr       0.09129    0.13783    0.28756    1.000
    Zr56     Zr       0.12043    0.16721    0.33878    1.000
    S55      S        0.06576    0.17951    0.41446    1.000
    O352     O        0.08529    0.12120    0.37543    1.000
    O353     O        0.09337    0.16232    0.37116    1.000
    O354     O        0.04231    0.21193    0.45049    1.000
    O355     O        0.02434    0.18260    0.47413    1.000
    O356     O        0.14089    0.20215    0.32715    1.000
    O357     O        0.16042    0.19451    0.29061    1.000
    O358     O        0.13740    0.17292    0.25093    1.000
    O359     O        0.09716    0.16075    0.25221    1.000
    O360     O        0.05463    0.12316    0.30359    1.000
    O361     O        0.06442    0.09956    0.33701    1.000
    O362     O        0.09843    0.13832    0.32560    1.000
    O363     O        0.11660    0.16934    0.29724    1.000
    C541     C        0.08343    0.14375    0.38185    1.000
    C542     C        0.06799    0.14944    0.40381    1.000
    C543     C        0.05433    0.13340    0.41792    1.000
    H136     H        0.05340    0.11630    0.41510    1.000
    C544     C        0.04157    0.14616    0.43765    1.000
    H137     H        0.03100    0.13830    0.44890    1.000
    C545     C        0.04646    0.17070    0.43821    1.000
    C546     C        0.03670    0.18997    0.45571    1.000
    C547     C        0.15609    0.20716    0.31007    1.000
    C548     C        0.17055    0.23054    0.31327    1.000
    C549     C        0.19056    0.23880    0.30013    1.000
    H138     H        0.19730    0.23050    0.28650    1.000
    C550     C        0.11532    0.17295    0.24345    1.000
    C551     C        0.10899    0.18945    0.22178    1.000
    C552     C        0.08648    0.19296    0.21143    1.000
    H139     H        0.07240    0.18410    0.21600    1.000
    C553     C        0.04936    0.10953    0.32184    1.000
    C554     C        0.02273    0.10529    0.32721    1.000
    C555     C        0.01320    0.09310    0.34720    1.000
    H140     H        0.02290    0.08560    0.35950    1.000
    O364     O        0.13893    0.18228    0.37189    1.000
    S56      S        0.17880    0.23434    0.40120    1.000
    C556     C        0.13580    0.25630    0.39670    1.000
    C557     C        0.15390    0.21730    0.39070    1.000
    C558     C        0.15970    0.19110    0.37790    1.000
    C559     C        0.13210    0.23380    0.39030    1.000
    C560     C        0.16150    0.26060    0.40520    1.000
    Zr57     Zr       0.40871    0.63783    0.21244    1.000
    Zr58     Zr       0.37957    0.66721    0.16122    1.000
    S57      S        0.43424    0.67951    0.08554    1.000
    O365     O        0.41471    0.62120    0.12457    1.000
    O366     O        0.40663    0.66232    0.12884    1.000
    O367     O        0.45769    0.71193    0.04951    1.000
    O368     O        0.47566    0.68260    0.02587    1.000
    O369     O        0.35911    0.70215    0.17285    1.000
    O370     O        0.33958    0.69451    0.20939    1.000
    O371     O        0.36260    0.67292    0.24907    1.000
    O372     O        0.40284    0.66075    0.24779    1.000
    O373     O        0.44537    0.62316    0.19641    1.000
    O374     O        0.43558    0.59956    0.16299    1.000
    O375     O        0.40157    0.63832    0.17440    1.000
    O376     O        0.38340    0.66934    0.20276    1.000
    C561     C        0.41657    0.64375    0.11815    1.000
    C562     C        0.43201    0.64944    0.09619    1.000
    C563     C        0.44567    0.63340    0.08208    1.000
    H141     H        0.44660    0.61630    0.08490    1.000
    C564     C        0.45843    0.64616    0.06235    1.000
    H142     H        0.46900    0.63830    0.05110    1.000
    C565     C        0.45354    0.67070    0.06179    1.000
    C566     C        0.46330    0.68997    0.04429    1.000
    C567     C        0.34391    0.70716    0.18993    1.000
    C568     C        0.32945    0.73054    0.18673    1.000
    C569     C        0.30944    0.73880    0.19987    1.000
    H143     H        0.30270    0.73050    0.21350    1.000
    C570     C        0.38468    0.67295    0.25655    1.000
    C571     C        0.39101    0.68945    0.27822    1.000
    C572     C        0.41352    0.69296    0.28857    1.000
    H144     H        0.42760    0.68410    0.28400    1.000
    C573     C        0.45064    0.60953    0.17816    1.000
    C574     C        0.47727    0.60529    0.17279    1.000
    C575     C        0.48680    0.59310    0.15280    1.000
    H145     H        0.47710    0.58560    0.14050    1.000
    O377     O        0.36107    0.68228    0.12811    1.000
    S58      S        0.32120    0.73434    0.09880    1.000
    C576     C        0.36420    0.75630    0.10330    1.000
    C577     C        0.34610    0.71730    0.10930    1.000
    C578     C        0.34030    0.69110    0.12210    1.000
    C579     C        0.36790    0.73380    0.10970    1.000
    C580     C        0.33850    0.76060    0.09480    1.000
    Zr59     Zr       0.90871    0.13783    0.71244    1.000
    Zr60     Zr       0.87957    0.16721    0.66122    1.000
    S59      S        0.93424    0.17951    0.58554    1.000
    O378     O        0.91471    0.12120    0.62457    1.000
    O379     O        0.90663    0.16232    0.62884    1.000
    O380     O        0.95769    0.21193    0.54951    1.000
    O381     O        0.97566    0.18260    0.52587    1.000
    O382     O        0.85911    0.20215    0.67285    1.000
    O383     O        0.83958    0.19451    0.70939    1.000
    O384     O        0.86260    0.17292    0.74907    1.000
    O385     O        0.90284    0.16075    0.74779    1.000
    O386     O        0.94537    0.12316    0.69641    1.000
    O387     O        0.93558    0.09956    0.66299    1.000
    O388     O        0.90157    0.13832    0.67440    1.000
    O389     O        0.88340    0.16934    0.70276    1.000
    C581     C        0.91657    0.14375    0.61815    1.000
    C582     C        0.93201    0.14944    0.59619    1.000
    C583     C        0.94567    0.13340    0.58208    1.000
    H146     H        0.94660    0.11630    0.58490    1.000
    C584     C        0.95843    0.14616    0.56235    1.000
    H147     H        0.96900    0.13830    0.55110    1.000
    C585     C        0.95354    0.17070    0.56179    1.000
    C586     C        0.96330    0.18997    0.54429    1.000
    C587     C        0.84391    0.20716    0.68993    1.000
    C588     C        0.82945    0.23054    0.68673    1.000
    C589     C        0.80944    0.23880    0.69987    1.000
    H148     H        0.80270    0.23050    0.71350    1.000
    C590     C        0.88468    0.17295    0.75655    1.000
    C591     C        0.89101    0.18945    0.77822    1.000
    C592     C        0.91352    0.19296    0.78857    1.000
    H149     H        0.92760    0.18410    0.78400    1.000
    C593     C        0.95064    0.10953    0.67816    1.000
    C594     C        0.97727    0.10529    0.67279    1.000
    C595     C        0.98680    0.09310    0.65280    1.000
    H150     H        0.97710    0.08560    0.64050    1.000
    O390     O        0.86107    0.18228    0.62811    1.000
    S60      S        0.82120    0.23434    0.59880    1.000
    C596     C        0.86420    0.25630    0.60330    1.000
    C597     C        0.84610    0.21730    0.60930    1.000
    C598     C        0.84030    0.19110    0.62210    1.000
    C599     C        0.86790    0.23380    0.60970    1.000
    C600     C        0.83850    0.26060    0.59480    1.000
    Zr61     Zr       0.59129    0.36217    0.21244    1.000
    Zr62     Zr       0.62043    0.33279    0.16122    1.000
    S61      S        0.56576    0.32049    0.08554    1.000
    O391     O        0.58529    0.37880    0.12457    1.000
    O392     O        0.59337    0.33768    0.12884    1.000
    O393     O        0.54231    0.28807    0.04951    1.000
    O394     O        0.52434    0.31740    0.02587    1.000
    O395     O        0.64089    0.29785    0.17285    1.000
    O396     O        0.66042    0.30549    0.20939    1.000
    O397     O        0.63740    0.32708    0.24907    1.000
    O398     O        0.59716    0.33925    0.24779    1.000
    O399     O        0.55463    0.37684    0.19641    1.000
    O400     O        0.56442    0.40044    0.16299    1.000
    O401     O        0.59843    0.36168    0.17440    1.000
    O402     O        0.61660    0.33066    0.20276    1.000
    C601     C        0.58343    0.35625    0.11815    1.000
    C602     C        0.56799    0.35056    0.09619    1.000
    C603     C        0.55433    0.36660    0.08208    1.000
    H151     H        0.55340    0.38370    0.08490    1.000
    C604     C        0.54157    0.35384    0.06235    1.000
    H152     H        0.53100    0.36170    0.05110    1.000
    C605     C        0.54646    0.32930    0.06179    1.000
    C606     C        0.53670    0.31003    0.04429    1.000
    C607     C        0.65609    0.29284    0.18993    1.000
    C608     C        0.67055    0.26946    0.18673    1.000
    C609     C        0.69056    0.26120    0.19987    1.000
    H153     H        0.69730    0.26950    0.21350    1.000
    C610     C        0.61532    0.32705    0.25655    1.000
    C611     C        0.60899    0.31055    0.27822    1.000
    C612     C        0.58648    0.30704    0.28857    1.000
    H154     H        0.57240    0.31590    0.28400    1.000
    C613     C        0.54936    0.39047    0.17816    1.000
    C614     C        0.52273    0.39471    0.17279    1.000
    C615     C        0.51320    0.40690    0.15280    1.000
    H155     H        0.52290    0.41440    0.14050    1.000
    O403     O        0.63893    0.31772    0.12811    1.000
    S62      S        0.67880    0.26566    0.09880    1.000
    C616     C        0.63580    0.24370    0.10330    1.000
    C617     C        0.65390    0.28270    0.10930    1.000
    C618     C        0.65970    0.30890    0.12210    1.000
    C619     C        0.63210    0.26620    0.10970    1.000
    C620     C        0.66150    0.23940    0.09480    1.000
    Zr63     Zr       0.09129    0.86217    0.71244    1.000
    Zr64     Zr       0.12043    0.83279    0.66122    1.000
    S63      S        0.06576    0.82049    0.58554    1.000
    O404     O        0.08529    0.87880    0.62457    1.000
    O405     O        0.09337    0.83768    0.62884    1.000
    O406     O        0.04231    0.78807    0.54951    1.000
    O407     O        0.02434    0.81740    0.52587    1.000
    O408     O        0.14089    0.79785    0.67285    1.000
    O409     O        0.16042    0.80549    0.70939    1.000
    O410     O        0.13740    0.82708    0.74907    1.000
    O411     O        0.09716    0.83925    0.74779    1.000
    O412     O        0.05463    0.87684    0.69641    1.000
    O413     O        0.06442    0.90044    0.66299    1.000
    O414     O        0.09843    0.86168    0.67440    1.000
    O415     O        0.11660    0.83066    0.70276    1.000
    C621     C        0.08343    0.85625    0.61815    1.000
    C622     C        0.06799    0.85056    0.59619    1.000
    C623     C        0.05433    0.86660    0.58208    1.000
    H156     H        0.05340    0.88370    0.58490    1.000
    C624     C        0.04157    0.85384    0.56235    1.000
    H157     H        0.03100    0.86170    0.55110    1.000
    C625     C        0.04646    0.82930    0.56179    1.000
    C626     C        0.03670    0.81003    0.54429    1.000
    C627     C        0.15609    0.79284    0.68993    1.000
    C628     C        0.17055    0.76946    0.68673    1.000
    C629     C        0.19056    0.76120    0.69987    1.000
    H158     H        0.19730    0.76950    0.71350    1.000
    C630     C        0.11532    0.82705    0.75655    1.000
    C631     C        0.10899    0.81055    0.77822    1.000
    C632     C        0.08648    0.80704    0.78857    1.000
    H159     H        0.07240    0.81590    0.78400    1.000
    C633     C        0.04936    0.89047    0.67816    1.000
    C634     C        0.02273    0.89471    0.67279    1.000
    C635     C        0.01320    0.90690    0.65280    1.000
    H160     H        0.02290    0.91440    0.64050    1.000
    O416     O        0.13893    0.81772    0.62811    1.000
    S64      S        0.17880    0.76566    0.59880    1.000
    C636     C        0.13580    0.74370    0.60330    1.000
    C637     C        0.15390    0.78270    0.60930    1.000
    C638     C        0.15970    0.80890    0.62210    1.000
    C639     C        0.13210    0.76620    0.60970    1.000
    C640     C        0.16150    0.73940    0.59480    1.000
    Zr65     Zr       0.36217    0.21244    0.59129    1.000
    Zr66     Zr       0.33279    0.16122    0.62043    1.000
    S65      S        0.32049    0.08554    0.56576    1.000
    O417     O        0.37880    0.12457    0.58529    1.000
    O418     O        0.33768    0.12884    0.59337    1.000
    O419     O        0.28807    0.04951    0.54231    1.000
    O420     O        0.31740    0.02587    0.52434    1.000
    O421     O        0.29785    0.17285    0.64089    1.000
    O422     O        0.30549    0.20939    0.66042    1.000
    O423     O        0.32708    0.24907    0.63740    1.000
    O424     O        0.33925    0.24779    0.59716    1.000
    O425     O        0.37684    0.19641    0.55463    1.000
    O426     O        0.40044    0.16299    0.56442    1.000
    O427     O        0.36168    0.17440    0.59843    1.000
    O428     O        0.33066    0.20276    0.61660    1.000
    C641     C        0.35625    0.11815    0.58343    1.000
    C642     C        0.35056    0.09619    0.56799    1.000
    C643     C        0.36660    0.08208    0.55433    1.000
    H161     H        0.38370    0.08490    0.55340    1.000
    C644     C        0.35384    0.06235    0.54157    1.000
    H162     H        0.36170    0.05110    0.53100    1.000
    C645     C        0.32930    0.06179    0.54646    1.000
    C646     C        0.31003    0.04429    0.53670    1.000
    C647     C        0.29284    0.18993    0.65609    1.000
    C648     C        0.26946    0.18673    0.67055    1.000
    C649     C        0.26120    0.19987    0.69056    1.000
    H163     H        0.26950    0.21350    0.69730    1.000
    C650     C        0.32705    0.25655    0.61532    1.000
    C651     C        0.31055    0.27822    0.60899    1.000
    C652     C        0.30704    0.28857    0.58648    1.000
    H164     H        0.31590    0.28400    0.57240    1.000
    C653     C        0.39047    0.17816    0.54936    1.000
    C654     C        0.39471    0.17279    0.52273    1.000
    C655     C        0.40690    0.15280    0.51320    1.000
    H165     H        0.41440    0.14050    0.52290    1.000
    O429     O        0.31772    0.12811    0.63893    1.000
    S66      S        0.26566    0.09880    0.67880    1.000
    C656     C        0.24370    0.10330    0.63580    1.000
    C657     C        0.28270    0.10930    0.65390    1.000
    C658     C        0.30890    0.12210    0.65970    1.000
    C659     C        0.26620    0.10970    0.63210    1.000
    C660     C        0.23940    0.09480    0.66150    1.000
    Zr67     Zr       0.86217    0.71244    0.09129    1.000
    Zr68     Zr       0.83279    0.66122    0.12043    1.000
    S67      S        0.82049    0.58554    0.06576    1.000
    O430     O        0.87880    0.62457    0.08529    1.000
    O431     O        0.83768    0.62884    0.09337    1.000
    O432     O        0.78807    0.54951    0.04231    1.000
    O433     O        0.81740    0.52587    0.02434    1.000
    O434     O        0.79785    0.67285    0.14089    1.000
    O435     O        0.80549    0.70939    0.16042    1.000
    O436     O        0.82708    0.74907    0.13740    1.000
    O437     O        0.83925    0.74779    0.09716    1.000
    O438     O        0.87684    0.69641    0.05463    1.000
    O439     O        0.90044    0.66299    0.06442    1.000
    O440     O        0.86168    0.67440    0.09843    1.000
    O441     O        0.83066    0.70276    0.11660    1.000
    C661     C        0.85625    0.61815    0.08343    1.000
    C662     C        0.85056    0.59619    0.06799    1.000
    C663     C        0.86660    0.58208    0.05433    1.000
    H166     H        0.88370    0.58490    0.05340    1.000
    C664     C        0.85384    0.56235    0.04157    1.000
    H167     H        0.86170    0.55110    0.03100    1.000
    C665     C        0.82930    0.56179    0.04646    1.000
    C666     C        0.81003    0.54429    0.03670    1.000
    C667     C        0.79284    0.68993    0.15609    1.000
    C668     C        0.76946    0.68673    0.17055    1.000
    C669     C        0.76120    0.69987    0.19056    1.000
    H168     H        0.76950    0.71350    0.19730    1.000
    C670     C        0.82705    0.75655    0.11532    1.000
    C671     C        0.81055    0.77822    0.10899    1.000
    C672     C        0.80704    0.78857    0.08648    1.000
    H169     H        0.81590    0.78400    0.07240    1.000
    C673     C        0.89047    0.67816    0.04936    1.000
    C674     C        0.89471    0.67279    0.02273    1.000
    C675     C        0.90690    0.65280    0.01320    1.000
    H170     H        0.91440    0.64050    0.02290    1.000
    O442     O        0.81772    0.62811    0.13893    1.000
    S68      S        0.76566    0.59880    0.17880    1.000
    C676     C        0.74370    0.60330    0.13580    1.000
    C677     C        0.78270    0.60930    0.15390    1.000
    C678     C        0.80890    0.62210    0.15970    1.000
    C679     C        0.76620    0.60970    0.13210    1.000
    C680     C        0.73940    0.59480    0.16150    1.000
    Zr69     Zr       0.63783    0.21244    0.40871    1.000
    Zr70     Zr       0.66721    0.16122    0.37957    1.000
    S69      S        0.67951    0.08554    0.43424    1.000
    O443     O        0.62120    0.12457    0.41471    1.000
    O444     O        0.66232    0.12884    0.40663    1.000
    O445     O        0.71193    0.04951    0.45769    1.000
    O446     O        0.68260    0.02587    0.47566    1.000
    O447     O        0.70215    0.17285    0.35911    1.000
    O448     O        0.69451    0.20939    0.33958    1.000
    O449     O        0.67292    0.24907    0.36260    1.000
    O450     O        0.66075    0.24779    0.40284    1.000
    O451     O        0.62316    0.19641    0.44537    1.000
    O452     O        0.59956    0.16299    0.43558    1.000
    O453     O        0.63832    0.17440    0.40157    1.000
    O454     O        0.66934    0.20276    0.38340    1.000
    C681     C        0.64375    0.11815    0.41657    1.000
    C682     C        0.64944    0.09619    0.43201    1.000
    C683     C        0.63340    0.08208    0.44567    1.000
    H171     H        0.61630    0.08490    0.44660    1.000
    C684     C        0.64616    0.06235    0.45843    1.000
    H172     H        0.63830    0.05110    0.46900    1.000
    C685     C        0.67070    0.06179    0.45354    1.000
    C686     C        0.68997    0.04429    0.46330    1.000
    C687     C        0.70716    0.18993    0.34391    1.000
    C688     C        0.73054    0.18673    0.32945    1.000
    C689     C        0.73880    0.19987    0.30944    1.000
    H173     H        0.73050    0.21350    0.30270    1.000
    C690     C        0.67295    0.25655    0.38468    1.000
    C691     C        0.68945    0.27822    0.39101    1.000
    C692     C        0.69296    0.28857    0.41352    1.000
    H174     H        0.68410    0.28400    0.42760    1.000
    C693     C        0.60953    0.17816    0.45064    1.000
    C694     C        0.60529    0.17279    0.47727    1.000
    C695     C        0.59310    0.15280    0.48680    1.000
    H175     H        0.58560    0.14050    0.47710    1.000
    O455     O        0.68228    0.12811    0.36107    1.000
    S70      S        0.73434    0.09880    0.32120    1.000
    C696     C        0.75630    0.10330    0.36420    1.000
    C697     C        0.71730    0.10930    0.34610    1.000
    C698     C        0.69110    0.12210    0.34030    1.000
    C699     C        0.73380    0.10970    0.36790    1.000
    C700     C        0.76060    0.09480    0.33850    1.000
    Zr71     Zr       0.13783    0.71244    0.90871    1.000
    Zr72     Zr       0.16721    0.66122    0.87957    1.000
    S71      S        0.17951    0.58554    0.93424    1.000
    O456     O        0.12120    0.62457    0.91471    1.000
    O457     O        0.16232    0.62884    0.90663    1.000
    O458     O        0.21193    0.54951    0.95769    1.000
    O459     O        0.18260    0.52587    0.97566    1.000
    O460     O        0.20215    0.67285    0.85911    1.000
    O461     O        0.19451    0.70939    0.83958    1.000
    O462     O        0.17292    0.74907    0.86260    1.000
    O463     O        0.16075    0.74779    0.90284    1.000
    O464     O        0.12316    0.69641    0.94537    1.000
    O465     O        0.09956    0.66299    0.93558    1.000
    O466     O        0.13832    0.67440    0.90157    1.000
    O467     O        0.16934    0.70276    0.88340    1.000
    C701     C        0.14375    0.61815    0.91657    1.000
    C702     C        0.14944    0.59619    0.93201    1.000
    C703     C        0.13340    0.58208    0.94567    1.000
    H176     H        0.11630    0.58490    0.94660    1.000
    C704     C        0.14616    0.56235    0.95843    1.000
    H177     H        0.13830    0.55110    0.96900    1.000
    C705     C        0.17070    0.56179    0.95354    1.000
    C706     C        0.18997    0.54429    0.96330    1.000
    C707     C        0.20716    0.68993    0.84391    1.000
    C708     C        0.23054    0.68673    0.82945    1.000
    C709     C        0.23880    0.69987    0.80944    1.000
    H178     H        0.23050    0.71350    0.80270    1.000
    C710     C        0.17295    0.75655    0.88468    1.000
    C711     C        0.18945    0.77822    0.89101    1.000
    C712     C        0.19296    0.78857    0.91352    1.000
    H179     H        0.18410    0.78400    0.92760    1.000
    C713     C        0.10953    0.67816    0.95064    1.000
    C714     C        0.10529    0.67279    0.97727    1.000
    C715     C        0.09310    0.65280    0.98680    1.000
    H180     H        0.08560    0.64050    0.97710    1.000
    O468     O        0.18228    0.62811    0.86107    1.000
    S72      S        0.23434    0.59880    0.82120    1.000
    C716     C        0.25630    0.60330    0.86420    1.000
    C717     C        0.21730    0.60930    0.84610    1.000
    C718     C        0.19110    0.62210    0.84030    1.000
    C719     C        0.23380    0.60970    0.86790    1.000
    C720     C        0.26060    0.59480    0.83850    1.000
    Zr73     Zr       0.63783    0.78756    0.59129    1.000
    Zr74     Zr       0.66721    0.83878    0.62043    1.000
    S73      S        0.67951    0.91446    0.56576    1.000
    O469     O        0.62120    0.87543    0.58529    1.000
    O470     O        0.66232    0.87116    0.59337    1.000
    O471     O        0.71193    0.95049    0.54231    1.000
    O472     O        0.68260    0.97413    0.52434    1.000
    O473     O        0.70215    0.82715    0.64089    1.000
    O474     O        0.69451    0.79061    0.66042    1.000
    O475     O        0.67292    0.75093    0.63740    1.000
    O476     O        0.66075    0.75221    0.59716    1.000
    O477     O        0.62316    0.80359    0.55463    1.000
    O478     O        0.59956    0.83701    0.56442    1.000
    O479     O        0.63832    0.82560    0.59843    1.000
    O480     O        0.66934    0.79724    0.61660    1.000
    C721     C        0.64375    0.88185    0.58343    1.000
    C722     C        0.64944    0.90381    0.56799    1.000
    C723     C        0.63340    0.91792    0.55433    1.000
    H181     H        0.61630    0.91510    0.55340    1.000
    C724     C        0.64616    0.93765    0.54157    1.000
    H182     H        0.63830    0.94890    0.53100    1.000
    C725     C        0.67070    0.93821    0.54646    1.000
    C726     C        0.68997    0.95571    0.53670    1.000
    C727     C        0.70716    0.81007    0.65609    1.000
    C728     C        0.73054    0.81327    0.67055    1.000
    C729     C        0.73880    0.80013    0.69056    1.000
    H183     H        0.73050    0.78650    0.69730    1.000
    C730     C        0.67295    0.74345    0.61532    1.000
    C731     C        0.68945    0.72178    0.60899    1.000
    C732     C        0.69296    0.71143    0.58648    1.000
    H184     H        0.68410    0.71600    0.57240    1.000
    C733     C        0.60953    0.82184    0.54936    1.000
    C734     C        0.60529    0.82721    0.52273    1.000
    C735     C        0.59310    0.84720    0.51320    1.000
    H185     H        0.58560    0.85950    0.52290    1.000
    O481     O        0.68228    0.87189    0.63893    1.000
    S74      S        0.73434    0.90120    0.67880    1.000
    C736     C        0.75630    0.89670    0.63580    1.000
    C737     C        0.71730    0.89070    0.65390    1.000
    C738     C        0.69110    0.87790    0.65970    1.000
    C739     C        0.73380    0.89030    0.63210    1.000
    C740     C        0.76060    0.90520    0.66150    1.000
    Zr75     Zr       0.13783    0.28756    0.09129    1.000
    Zr76     Zr       0.16721    0.33878    0.12043    1.000
    S75      S        0.17951    0.41446    0.06576    1.000
    O482     O        0.12120    0.37543    0.08529    1.000
    O483     O        0.16232    0.37116    0.09337    1.000
    O484     O        0.21193    0.45049    0.04231    1.000
    O485     O        0.18260    0.47413    0.02434    1.000
    O486     O        0.20215    0.32715    0.14089    1.000
    O487     O        0.19451    0.29061    0.16042    1.000
    O488     O        0.17292    0.25093    0.13740    1.000
    O489     O        0.16075    0.25221    0.09716    1.000
    O490     O        0.12316    0.30359    0.05463    1.000
    O491     O        0.09956    0.33701    0.06442    1.000
    O492     O        0.13832    0.32560    0.09843    1.000
    O493     O        0.16934    0.29724    0.11660    1.000
    C741     C        0.14375    0.38185    0.08343    1.000
    C742     C        0.14944    0.40381    0.06799    1.000
    C743     C        0.13340    0.41792    0.05433    1.000
    H186     H        0.11630    0.41510    0.05340    1.000
    C744     C        0.14616    0.43765    0.04157    1.000
    H187     H        0.13830    0.44890    0.03100    1.000
    C745     C        0.17070    0.43821    0.04646    1.000
    C746     C        0.18997    0.45571    0.03670    1.000
    C747     C        0.20716    0.31007    0.15609    1.000
    C748     C        0.23054    0.31327    0.17055    1.000
    C749     C        0.23880    0.30013    0.19056    1.000
    H188     H        0.23050    0.28650    0.19730    1.000
    C750     C        0.17295    0.24345    0.11532    1.000
    C751     C        0.18945    0.22178    0.10899    1.000
    C752     C        0.19296    0.21143    0.08648    1.000
    H189     H        0.18410    0.21600    0.07240    1.000
    C753     C        0.10953    0.32184    0.04936    1.000
    C754     C        0.10529    0.32721    0.02273    1.000
    C755     C        0.09310    0.34720    0.01320    1.000
    H190     H        0.08560    0.35950    0.02290    1.000
    O494     O        0.18228    0.37189    0.13893    1.000
    S76      S        0.23434    0.40120    0.17880    1.000
    C756     C        0.25630    0.39670    0.13580    1.000
    C757     C        0.21730    0.39070    0.15390    1.000
    C758     C        0.19110    0.37790    0.15970    1.000
    C759     C        0.23380    0.39030    0.13210    1.000
    C760     C        0.26060    0.40520    0.16150    1.000
    Zr77     Zr       0.36217    0.78756    0.40871    1.000
    Zr78     Zr       0.33279    0.83878    0.37957    1.000
    S77      S        0.32049    0.91446    0.43424    1.000
    O495     O        0.37880    0.87543    0.41471    1.000
    O496     O        0.33768    0.87116    0.40663    1.000
    O497     O        0.28807    0.95049    0.45769    1.000
    O498     O        0.31740    0.97413    0.47566    1.000
    O499     O        0.29785    0.82715    0.35911    1.000
    O500     O        0.30549    0.79061    0.33958    1.000
    O501     O        0.32708    0.75093    0.36260    1.000
    O502     O        0.33925    0.75221    0.40284    1.000
    O503     O        0.37684    0.80359    0.44537    1.000
    O504     O        0.40044    0.83701    0.43558    1.000
    O505     O        0.36168    0.82560    0.40157    1.000
    O506     O        0.33066    0.79724    0.38340    1.000
    C761     C        0.35625    0.88185    0.41657    1.000
    C762     C        0.35056    0.90381    0.43201    1.000
    C763     C        0.36660    0.91792    0.44567    1.000
    H191     H        0.38370    0.91510    0.44660    1.000
    C764     C        0.35384    0.93765    0.45843    1.000
    H192     H        0.36170    0.94890    0.46900    1.000
    C765     C        0.32930    0.93821    0.45354    1.000
    C766     C        0.31003    0.95571    0.46330    1.000
    C767     C        0.29284    0.81007    0.34391    1.000
    C768     C        0.26946    0.81327    0.32945    1.000
    C769     C        0.26120    0.80013    0.30944    1.000
    H193     H        0.26950    0.78650    0.30270    1.000
    C770     C        0.32705    0.74345    0.38468    1.000
    C771     C        0.31055    0.72178    0.39101    1.000
    C772     C        0.30704    0.71143    0.41352    1.000
    H194     H        0.31590    0.71600    0.42760    1.000
    C773     C        0.39047    0.82184    0.45064    1.000
    C774     C        0.39471    0.82721    0.47727    1.000
    C775     C        0.40690    0.84720    0.48680    1.000
    H195     H        0.41440    0.85950    0.47710    1.000
    O507     O        0.31772    0.87189    0.36107    1.000
    S78      S        0.26566    0.90120    0.32120    1.000
    C776     C        0.24370    0.89670    0.36420    1.000
    C777     C        0.28270    0.89070    0.34610    1.000
    C778     C        0.30890    0.87790    0.34030    1.000
    C779     C        0.26620    0.89030    0.36790    1.000
    C780     C        0.23940    0.90520    0.33850    1.000
    Zr79     Zr       0.86217    0.28756    0.90871    1.000
    Zr80     Zr       0.83279    0.33878    0.87957    1.000
    S79      S        0.82049    0.41446    0.93424    1.000
    O508     O        0.87880    0.37543    0.91471    1.000
    O509     O        0.83768    0.37116    0.90663    1.000
    O510     O        0.78807    0.45049    0.95769    1.000
    O511     O        0.81740    0.47413    0.97566    1.000
    O512     O        0.79785    0.32715    0.85911    1.000
    O513     O        0.80549    0.29061    0.83958    1.000
    O514     O        0.82708    0.25093    0.86260    1.000
    O515     O        0.83925    0.25221    0.90284    1.000
    O516     O        0.87684    0.30359    0.94537    1.000
    O517     O        0.90044    0.33701    0.93558    1.000
    O518     O        0.86168    0.32560    0.90157    1.000
    O519     O        0.83066    0.29724    0.88340    1.000
    C781     C        0.85625    0.38185    0.91657    1.000
    C782     C        0.85056    0.40381    0.93201    1.000
    C783     C        0.86660    0.41792    0.94567    1.000
    H196     H        0.88370    0.41510    0.94660    1.000
    C784     C        0.85384    0.43765    0.95843    1.000
    H197     H        0.86170    0.44890    0.96900    1.000
    C785     C        0.82930    0.43821    0.95354    1.000
    C786     C        0.81003    0.45571    0.96330    1.000
    C787     C        0.79284    0.31007    0.84391    1.000
    C788     C        0.76946    0.31327    0.82945    1.000
    C789     C        0.76120    0.30013    0.80944    1.000
    H198     H        0.76950    0.28650    0.80270    1.000
    C790     C        0.82705    0.24345    0.88468    1.000
    C791     C        0.81055    0.22178    0.89101    1.000
    C792     C        0.80704    0.21143    0.91352    1.000
    H199     H        0.81590    0.21600    0.92760    1.000
    C793     C        0.89047    0.32184    0.95064    1.000
    C794     C        0.89471    0.32721    0.97727    1.000
    C795     C        0.90690    0.34720    0.98680    1.000
    H200     H        0.91440    0.35950    0.97710    1.000
    O520     O        0.81772    0.37189    0.86107    1.000
    S80      S        0.76566    0.40120    0.82120    1.000
    C796     C        0.74370    0.39670    0.86420    1.000
    C797     C        0.78270    0.39070    0.84610    1.000
    C798     C        0.80890    0.37790    0.84030    1.000
    C799     C        0.76620    0.39030    0.86790    1.000
    C800     C        0.73940    0.40520    0.83850    1.000
    Zr81     Zr       0.21244    0.40871    0.63783    1.000
    Zr82     Zr       0.16122    0.37957    0.66721    1.000
    S81      S        0.08554    0.43424    0.67951    1.000
    O521     O        0.12457    0.41471    0.62120    1.000
    O522     O        0.12884    0.40663    0.66232    1.000
    O523     O        0.04951    0.45769    0.71193    1.000
    O524     O        0.02587    0.47566    0.68260    1.000
    O525     O        0.17285    0.35911    0.70215    1.000
    O526     O        0.20939    0.33958    0.69451    1.000
    O527     O        0.24907    0.36260    0.67292    1.000
    O528     O        0.24779    0.40284    0.66075    1.000
    O529     O        0.19641    0.44537    0.62316    1.000
    O530     O        0.16299    0.43558    0.59956    1.000
    O531     O        0.17440    0.40157    0.63832    1.000
    O532     O        0.20276    0.38340    0.66934    1.000
    C801     C        0.11815    0.41657    0.64375    1.000
    C802     C        0.09619    0.43201    0.64944    1.000
    C803     C        0.08208    0.44567    0.63340    1.000
    H201     H        0.08490    0.44660    0.61630    1.000
    C804     C        0.06235    0.45843    0.64616    1.000
    H202     H        0.05110    0.46900    0.63830    1.000
    C805     C        0.06179    0.45354    0.67070    1.000
    C806     C        0.04429    0.46330    0.68997    1.000
    C807     C        0.18993    0.34391    0.70716    1.000
    C808     C        0.18673    0.32945    0.73054    1.000
    C809     C        0.19987    0.30944    0.73880    1.000
    H203     H        0.21350    0.30270    0.73050    1.000
    C810     C        0.25655    0.38468    0.67295    1.000
    C811     C        0.27822    0.39101    0.68945    1.000
    C812     C        0.28857    0.41352    0.69296    1.000
    H204     H        0.28400    0.42760    0.68410    1.000
    C813     C        0.17816    0.45064    0.60953    1.000
    C814     C        0.17279    0.47727    0.60529    1.000
    C815     C        0.15280    0.48680    0.59310    1.000
    H205     H        0.14050    0.47710    0.58560    1.000
    O533     O        0.12811    0.36107    0.68228    1.000
    S82      S        0.09880    0.32120    0.73434    1.000
    C816     C        0.10330    0.36420    0.75630    1.000
    C817     C        0.10930    0.34610    0.71730    1.000
    C818     C        0.12210    0.34030    0.69110    1.000
    C819     C        0.10970    0.36790    0.73380    1.000
    C820     C        0.09480    0.33850    0.76060    1.000
    Zr83     Zr       0.71244    0.90871    0.13783    1.000
    Zr84     Zr       0.66122    0.87957    0.16721    1.000
    S83      S        0.58554    0.93424    0.17951    1.000
    O534     O        0.62457    0.91471    0.12120    1.000
    O535     O        0.62884    0.90663    0.16232    1.000
    O536     O        0.54951    0.95769    0.21193    1.000
    O537     O        0.52587    0.97566    0.18260    1.000
    O538     O        0.67285    0.85911    0.20215    1.000
    O539     O        0.70939    0.83958    0.19451    1.000
    O540     O        0.74907    0.86260    0.17292    1.000
    O541     O        0.74779    0.90284    0.16075    1.000
    O542     O        0.69641    0.94537    0.12316    1.000
    O543     O        0.66299    0.93558    0.09956    1.000
    O544     O        0.67440    0.90157    0.13832    1.000
    O545     O        0.70276    0.88340    0.16934    1.000
    C821     C        0.61815    0.91657    0.14375    1.000
    C822     C        0.59619    0.93201    0.14944    1.000
    C823     C        0.58208    0.94567    0.13340    1.000
    H206     H        0.58490    0.94660    0.11630    1.000
    C824     C        0.56235    0.95843    0.14616    1.000
    H207     H        0.55110    0.96900    0.13830    1.000
    C825     C        0.56179    0.95354    0.17070    1.000
    C826     C        0.54429    0.96330    0.18997    1.000
    C827     C        0.68993    0.84391    0.20716    1.000
    C828     C        0.68673    0.82945    0.23054    1.000
    C829     C        0.69987    0.80944    0.23880    1.000
    H208     H        0.71350    0.80270    0.23050    1.000
    C830     C        0.75655    0.88468    0.17295    1.000
    C831     C        0.77822    0.89101    0.18945    1.000
    C832     C        0.78857    0.91352    0.19296    1.000
    H209     H        0.78400    0.92760    0.18410    1.000
    C833     C        0.67816    0.95064    0.10953    1.000
    C834     C        0.67279    0.97727    0.10529    1.000
    C835     C        0.65280    0.98680    0.09310    1.000
    H210     H        0.64050    0.97710    0.08560    1.000
    O546     O        0.62811    0.86107    0.18228    1.000
    S84      S        0.59880    0.82120    0.23434    1.000
    C836     C        0.60330    0.86420    0.25630    1.000
    C837     C        0.60930    0.84610    0.21730    1.000
    C838     C        0.62210    0.84030    0.19110    1.000
    C839     C        0.60970    0.86790    0.23380    1.000
    C840     C        0.59480    0.83850    0.26060    1.000
    Zr85     Zr       0.21244    0.59129    0.36217    1.000
    Zr86     Zr       0.16122    0.62043    0.33279    1.000
    S85      S        0.08554    0.56576    0.32049    1.000
    O547     O        0.12457    0.58529    0.37880    1.000
    O548     O        0.12884    0.59337    0.33768    1.000
    O549     O        0.04951    0.54231    0.28807    1.000
    O550     O        0.02587    0.52434    0.31740    1.000
    O551     O        0.17285    0.64089    0.29785    1.000
    O552     O        0.20939    0.66042    0.30549    1.000
    O553     O        0.24907    0.63740    0.32708    1.000
    O554     O        0.24779    0.59716    0.33925    1.000
    O555     O        0.19641    0.55463    0.37684    1.000
    O556     O        0.16299    0.56442    0.40044    1.000
    O557     O        0.17440    0.59843    0.36168    1.000
    O558     O        0.20276    0.61660    0.33066    1.000
    C841     C        0.11815    0.58343    0.35625    1.000
    C842     C        0.09619    0.56799    0.35056    1.000
    C843     C        0.08208    0.55433    0.36660    1.000
    H211     H        0.08490    0.55340    0.38370    1.000
    C844     C        0.06235    0.54157    0.35384    1.000
    H212     H        0.05110    0.53100    0.36170    1.000
    C845     C        0.06179    0.54646    0.32930    1.000
    C846     C        0.04429    0.53670    0.31003    1.000
    C847     C        0.18993    0.65609    0.29284    1.000
    C848     C        0.18673    0.67055    0.26946    1.000
    C849     C        0.19987    0.69056    0.26120    1.000
    H213     H        0.21350    0.69730    0.26950    1.000
    C850     C        0.25655    0.61532    0.32705    1.000
    C851     C        0.27822    0.60899    0.31055    1.000
    C852     C        0.28857    0.58648    0.30704    1.000
    H214     H        0.28400    0.57240    0.31590    1.000
    C853     C        0.17816    0.54936    0.39047    1.000
    C854     C        0.17279    0.52273    0.39471    1.000
    C855     C        0.15280    0.51320    0.40690    1.000
    H215     H        0.14050    0.52290    0.41440    1.000
    O559     O        0.12811    0.63893    0.31772    1.000
    S86      S        0.09880    0.67880    0.26566    1.000
    C856     C        0.10330    0.63580    0.24370    1.000
    C857     C        0.10930    0.65390    0.28270    1.000
    C858     C        0.12210    0.65970    0.30890    1.000
    C859     C        0.10970    0.63210    0.26620    1.000
    C860     C        0.09480    0.66150    0.23940    1.000
    Zr87     Zr       0.71244    0.09129    0.86217    1.000
    Zr88     Zr       0.66122    0.12043    0.83279    1.000
    S87      S        0.58554    0.06576    0.82049    1.000
    O560     O        0.62457    0.08529    0.87880    1.000
    O561     O        0.62884    0.09337    0.83768    1.000
    O562     O        0.54951    0.04231    0.78807    1.000
    O563     O        0.52587    0.02434    0.81740    1.000
    O564     O        0.67285    0.14089    0.79785    1.000
    O565     O        0.70939    0.16042    0.80549    1.000
    O566     O        0.74907    0.13740    0.82708    1.000
    O567     O        0.74779    0.09716    0.83925    1.000
    O568     O        0.69641    0.05463    0.87684    1.000
    O569     O        0.66299    0.06442    0.90044    1.000
    O570     O        0.67440    0.09843    0.86168    1.000
    O571     O        0.70276    0.11660    0.83066    1.000
    C861     C        0.61815    0.08343    0.85625    1.000
    C862     C        0.59619    0.06799    0.85056    1.000
    C863     C        0.58208    0.05433    0.86660    1.000
    H216     H        0.58490    0.05340    0.88370    1.000
    C864     C        0.56235    0.04157    0.85384    1.000
    H217     H        0.55110    0.03100    0.86170    1.000
    C865     C        0.56179    0.04646    0.82930    1.000
    C866     C        0.54429    0.03670    0.81003    1.000
    C867     C        0.68993    0.15609    0.79284    1.000
    C868     C        0.68673    0.17055    0.76946    1.000
    C869     C        0.69987    0.19056    0.76120    1.000
    H218     H        0.71350    0.19730    0.76950    1.000
    C870     C        0.75655    0.11532    0.82705    1.000
    C871     C        0.77822    0.10899    0.81055    1.000
    C872     C        0.78857    0.08648    0.80704    1.000
    H219     H        0.78400    0.07240    0.81590    1.000
    C873     C        0.67816    0.04936    0.89047    1.000
    C874     C        0.67279    0.02273    0.89471    1.000
    C875     C        0.65280    0.01320    0.90690    1.000
    H220     H        0.64050    0.02290    0.91440    1.000
    O572     O        0.62811    0.13893    0.81772    1.000
    S88      S        0.59880    0.17880    0.76566    1.000
    C876     C        0.60330    0.13580    0.74370    1.000
    C877     C        0.60930    0.15390    0.78270    1.000
    C878     C        0.62210    0.15970    0.80890    1.000
    C879     C        0.60970    0.13210    0.76620    1.000
    C880     C        0.59480    0.16150    0.73940    1.000
    Zr89     Zr       0.78756    0.40871    0.36217    1.000
    Zr90     Zr       0.83878    0.37957    0.33279    1.000
    S89      S        0.91446    0.43424    0.32049    1.000
    O573     O        0.87543    0.41471    0.37880    1.000
    O574     O        0.87116    0.40663    0.33768    1.000
    O575     O        0.95049    0.45769    0.28807    1.000
    O576     O        0.97413    0.47566    0.31740    1.000
    O577     O        0.82715    0.35911    0.29785    1.000
    O578     O        0.79061    0.33958    0.30549    1.000
    O579     O        0.75093    0.36260    0.32708    1.000
    O580     O        0.75221    0.40284    0.33925    1.000
    O581     O        0.80359    0.44537    0.37684    1.000
    O582     O        0.83701    0.43558    0.40044    1.000
    O583     O        0.82560    0.40157    0.36168    1.000
    O584     O        0.79724    0.38340    0.33066    1.000
    C881     C        0.88185    0.41657    0.35625    1.000
    C882     C        0.90381    0.43201    0.35056    1.000
    C883     C        0.91792    0.44567    0.36660    1.000
    H221     H        0.91510    0.44660    0.38370    1.000
    C884     C        0.93765    0.45843    0.35384    1.000
    H222     H        0.94890    0.46900    0.36170    1.000
    C885     C        0.93821    0.45354    0.32930    1.000
    C886     C        0.95571    0.46330    0.31003    1.000
    C887     C        0.81007    0.34391    0.29284    1.000
    C888     C        0.81327    0.32945    0.26946    1.000
    C889     C        0.80013    0.30944    0.26120    1.000
    H223     H        0.78650    0.30270    0.26950    1.000
    C890     C        0.74345    0.38468    0.32705    1.000
    C891     C        0.72178    0.39101    0.31055    1.000
    C892     C        0.71143    0.41352    0.30704    1.000
    H224     H        0.71600    0.42760    0.31590    1.000
    C893     C        0.82184    0.45064    0.39047    1.000
    C894     C        0.82721    0.47727    0.39471    1.000
    C895     C        0.84720    0.48680    0.40690    1.000
    H225     H        0.85950    0.47710    0.41440    1.000
    O585     O        0.87189    0.36107    0.31772    1.000
    S90      S        0.90120    0.32120    0.26566    1.000
    C896     C        0.89670    0.36420    0.24370    1.000
    C897     C        0.89070    0.34610    0.28270    1.000
    C898     C        0.87790    0.34030    0.30890    1.000
    C899     C        0.89030    0.36790    0.26620    1.000
    C900     C        0.90520    0.33850    0.23940    1.000
    Zr91     Zr       0.28756    0.90871    0.86217    1.000
    Zr92     Zr       0.33878    0.87957    0.83279    1.000
    S91      S        0.41446    0.93424    0.82049    1.000
    O586     O        0.37543    0.91471    0.87880    1.000
    O587     O        0.37116    0.90663    0.83768    1.000
    O588     O        0.45049    0.95769    0.78807    1.000
    O589     O        0.47413    0.97566    0.81740    1.000
    O590     O        0.32715    0.85911    0.79785    1.000
    O591     O        0.29061    0.83958    0.80549    1.000
    O592     O        0.25093    0.86260    0.82708    1.000
    O593     O        0.25221    0.90284    0.83925    1.000
    O594     O        0.30359    0.94537    0.87684    1.000
    O595     O        0.33701    0.93558    0.90044    1.000
    O596     O        0.32560    0.90157    0.86168    1.000
    O597     O        0.29724    0.88340    0.83066    1.000
    C901     C        0.38185    0.91657    0.85625    1.000
    C902     C        0.40381    0.93201    0.85056    1.000
    C903     C        0.41792    0.94567    0.86660    1.000
    H226     H        0.41510    0.94660    0.88370    1.000
    C904     C        0.43765    0.95843    0.85384    1.000
    H227     H        0.44890    0.96900    0.86170    1.000
    C905     C        0.43821    0.95354    0.82930    1.000
    C906     C        0.45571    0.96330    0.81003    1.000
    C907     C        0.31007    0.84391    0.79284    1.000
    C908     C        0.31327    0.82945    0.76946    1.000
    C909     C        0.30013    0.80944    0.76120    1.000
    H228     H        0.28650    0.80270    0.76950    1.000
    C910     C        0.24345    0.88468    0.82705    1.000
    C911     C        0.22178    0.89101    0.81055    1.000
    C912     C        0.21143    0.91352    0.80704    1.000
    H229     H        0.21600    0.92760    0.81590    1.000
    C913     C        0.32184    0.95064    0.89047    1.000
    C914     C        0.32721    0.97727    0.89471    1.000
    C915     C        0.34720    0.98680    0.90690    1.000
    H230     H        0.35950    0.97710    0.91440    1.000
    O598     O        0.37189    0.86107    0.81772    1.000
    S92      S        0.40120    0.82120    0.76566    1.000
    C916     C        0.39670    0.86420    0.74370    1.000
    C917     C        0.39070    0.84610    0.78270    1.000
    C918     C        0.37790    0.84030    0.80890    1.000
    C919     C        0.39030    0.86790    0.76620    1.000
    C920     C        0.40520    0.83850    0.73940    1.000
    Zr93     Zr       0.78756    0.59129    0.63783    1.000
    Zr94     Zr       0.83878    0.62043    0.66721    1.000
    S93      S        0.91446    0.56576    0.67951    1.000
    O599     O        0.87543    0.58529    0.62120    1.000
    O600     O        0.87116    0.59337    0.66232    1.000
    O601     O        0.95049    0.54231    0.71193    1.000
    O602     O        0.97413    0.52434    0.68260    1.000
    O603     O        0.82715    0.64089    0.70215    1.000
    O604     O        0.79061    0.66042    0.69451    1.000
    O605     O        0.75093    0.63740    0.67292    1.000
    O606     O        0.75221    0.59716    0.66075    1.000
    O607     O        0.80359    0.55463    0.62316    1.000
    O608     O        0.83701    0.56442    0.59956    1.000
    O609     O        0.82560    0.59843    0.63832    1.000
    O610     O        0.79724    0.61660    0.66934    1.000
    C921     C        0.88185    0.58343    0.64375    1.000
    C922     C        0.90381    0.56799    0.64944    1.000
    C923     C        0.91792    0.55433    0.63340    1.000
    H231     H        0.91510    0.55340    0.61630    1.000
    C924     C        0.93765    0.54157    0.64616    1.000
    H232     H        0.94890    0.53100    0.63830    1.000
    C925     C        0.93821    0.54646    0.67070    1.000
    C926     C        0.95571    0.53670    0.68997    1.000
    C927     C        0.81007    0.65609    0.70716    1.000
    C928     C        0.81327    0.67055    0.73054    1.000
    C929     C        0.80013    0.69056    0.73880    1.000
    H233     H        0.78650    0.69730    0.73050    1.000
    C930     C        0.74345    0.61532    0.67295    1.000
    C931     C        0.72178    0.60899    0.68945    1.000
    C932     C        0.71143    0.58648    0.69296    1.000
    H234     H        0.71600    0.57240    0.68410    1.000
    C933     C        0.82184    0.54936    0.60953    1.000
    C934     C        0.82721    0.52273    0.60529    1.000
    C935     C        0.84720    0.51320    0.59310    1.000
    H235     H        0.85950    0.52290    0.58560    1.000
    O611     O        0.87189    0.63893    0.68228    1.000
    S94      S        0.90120    0.67880    0.73434    1.000
    C936     C        0.89670    0.63580    0.75630    1.000
    C937     C        0.89070    0.65390    0.71730    1.000
    C938     C        0.87790    0.65970    0.69110    1.000
    C939     C        0.89030    0.63210    0.73380    1.000
    C940     C        0.90520    0.66150    0.76060    1.000
    Zr95     Zr       0.28756    0.09129    0.13783    1.000
    Zr96     Zr       0.33878    0.12043    0.16721    1.000
    S95      S        0.41446    0.06576    0.17951    1.000
    O612     O        0.37543    0.08529    0.12120    1.000
    O613     O        0.37116    0.09337    0.16232    1.000
    O614     O        0.45049    0.04231    0.21193    1.000
    O615     O        0.47413    0.02434    0.18260    1.000
    O616     O        0.32715    0.14089    0.20215    1.000
    O617     O        0.29061    0.16042    0.19451    1.000
    O618     O        0.25093    0.13740    0.17292    1.000
    O619     O        0.25221    0.09716    0.16075    1.000
    O620     O        0.30359    0.05463    0.12316    1.000
    O621     O        0.33701    0.06442    0.09956    1.000
    O622     O        0.32560    0.09843    0.13832    1.000
    O623     O        0.29724    0.11660    0.16934    1.000
    C941     C        0.38185    0.08343    0.14375    1.000
    C942     C        0.40381    0.06799    0.14944    1.000
    C943     C        0.41792    0.05433    0.13340    1.000
    H236     H        0.41510    0.05340    0.11630    1.000
    C944     C        0.43765    0.04157    0.14616    1.000
    H237     H        0.44890    0.03100    0.13830    1.000
    C945     C        0.43821    0.04646    0.17070    1.000
    C946     C        0.45571    0.03670    0.18997    1.000
    C947     C        0.31007    0.15609    0.20716    1.000
    C948     C        0.31327    0.17055    0.23054    1.000
    C949     C        0.30013    0.19056    0.23880    1.000
    H238     H        0.28650    0.19730    0.23050    1.000
    C950     C        0.24345    0.11532    0.17295    1.000
    C951     C        0.22178    0.10899    0.18945    1.000
    C952     C        0.21143    0.08648    0.19296    1.000
    H239     H        0.21600    0.07240    0.18410    1.000
    C953     C        0.32184    0.04936    0.10953    1.000
    C954     C        0.32721    0.02273    0.10529    1.000
    C955     C        0.34720    0.01320    0.09310    1.000
    H240     H        0.35950    0.02290    0.08560    1.000
    O624     O        0.37189    0.13893    0.18228    1.000
    S96      S        0.40120    0.17880    0.23434    1.000
    C956     C        0.39670    0.13580    0.25630    1.000
    C957     C        0.39070    0.15390    0.21730    1.000
    C958     C        0.37790    0.15970    0.19110    1.000
    C959     C        0.39030    0.13210    0.23380    1.000
    C960     C        0.40520    0.16150    0.26060    1.000
    Zr97     Zr       0.63783    0.59129    0.78756    1.000
    Zr98     Zr       0.66721    0.62043    0.83878    1.000
    S97      S        0.67951    0.56576    0.91446    1.000
    O625     O        0.62120    0.58529    0.87543    1.000
    O626     O        0.66232    0.59337    0.87116    1.000
    O627     O        0.71193    0.54231    0.95049    1.000
    O628     O        0.68260    0.52434    0.97413    1.000
    O629     O        0.70215    0.64089    0.82715    1.000
    O630     O        0.69451    0.66042    0.79061    1.000
    O631     O        0.67292    0.63740    0.75093    1.000
    O632     O        0.66075    0.59716    0.75221    1.000
    O633     O        0.62316    0.55463    0.80359    1.000
    O634     O        0.59956    0.56442    0.83701    1.000
    O635     O        0.63832    0.59843    0.82560    1.000
    O636     O        0.66934    0.61660    0.79724    1.000
    C961     C        0.64375    0.58343    0.88185    1.000
    C962     C        0.64944    0.56799    0.90381    1.000
    C963     C        0.63340    0.55433    0.91792    1.000
    H241     H        0.61630    0.55340    0.91510    1.000
    C964     C        0.64616    0.54157    0.93765    1.000
    H242     H        0.63830    0.53100    0.94890    1.000
    C965     C        0.67070    0.54646    0.93821    1.000
    C966     C        0.68997    0.53670    0.95571    1.000
    C967     C        0.70716    0.65609    0.81007    1.000
    C968     C        0.73054    0.67055    0.81327    1.000
    C969     C        0.73880    0.69056    0.80013    1.000
    H243     H        0.73050    0.69730    0.78650    1.000
    C970     C        0.67295    0.61532    0.74345    1.000
    C971     C        0.68945    0.60899    0.72178    1.000
    C972     C        0.69296    0.58648    0.71143    1.000
    H244     H        0.68410    0.57240    0.71600    1.000
    C973     C        0.60953    0.54936    0.82184    1.000
    C974     C        0.60529    0.52273    0.82721    1.000
    C975     C        0.59310    0.51320    0.84720    1.000
    H245     H        0.58560    0.52290    0.85950    1.000
    O637     O        0.68228    0.63893    0.87189    1.000
    S98      S        0.73434    0.67880    0.90120    1.000
    C976     C        0.75630    0.63580    0.89670    1.000
    C977     C        0.71730    0.65390    0.89070    1.000
    C978     C        0.69110    0.65970    0.87790    1.000
    C979     C        0.73380    0.63210    0.89030    1.000
    C980     C        0.76060    0.66150    0.90520    1.000
    Zr99     Zr       0.13783    0.09129    0.28756    1.000
    Zr100    Zr       0.16721    0.12043    0.33878    1.000
    S99      S        0.17951    0.06576    0.41446    1.000
    O638     O        0.12120    0.08529    0.37543    1.000
    O639     O        0.16232    0.09337    0.37116    1.000
    O640     O        0.21193    0.04231    0.45049    1.000
    O641     O        0.18260    0.02434    0.47413    1.000
    O642     O        0.20215    0.14089    0.32715    1.000
    O643     O        0.19451    0.16042    0.29061    1.000
    O644     O        0.17292    0.13740    0.25093    1.000
    O645     O        0.16075    0.09716    0.25221    1.000
    O646     O        0.12316    0.05463    0.30359    1.000
    O647     O        0.09956    0.06442    0.33701    1.000
    O648     O        0.13832    0.09843    0.32560    1.000
    O649     O        0.16934    0.11660    0.29724    1.000
    C981     C        0.14375    0.08343    0.38185    1.000
    C982     C        0.14944    0.06799    0.40381    1.000
    C983     C        0.13340    0.05433    0.41792    1.000
    H246     H        0.11630    0.05340    0.41510    1.000
    C984     C        0.14616    0.04157    0.43765    1.000
    H247     H        0.13830    0.03100    0.44890    1.000
    C985     C        0.17070    0.04646    0.43821    1.000
    C986     C        0.18997    0.03670    0.45571    1.000
    C987     C        0.20716    0.15609    0.31007    1.000
    C988     C        0.23054    0.17055    0.31327    1.000
    C989     C        0.23880    0.19056    0.30013    1.000
    H248     H        0.23050    0.19730    0.28650    1.000
    C990     C        0.17295    0.11532    0.24345    1.000
    C991     C        0.18945    0.10899    0.22178    1.000
    C992     C        0.19296    0.08648    0.21143    1.000
    H249     H        0.18410    0.07240    0.21600    1.000
    C993     C        0.10953    0.04936    0.32184    1.000
    C994     C        0.10529    0.02273    0.32721    1.000
    C995     C        0.09310    0.01320    0.34720    1.000
    H250     H        0.08560    0.02290    0.35950    1.000
    O650     O        0.18228    0.13893    0.37189    1.000
    S100     S        0.23434    0.17880    0.40120    1.000
    C996     C        0.25630    0.13580    0.39670    1.000
    C997     C        0.21730    0.15390    0.39070    1.000
    C998     C        0.19110    0.15970    0.37790    1.000
    C999     C        0.23380    0.13210    0.39030    1.000
    C1000    C        0.26060    0.16150    0.40520    1.000
    Zr101    Zr       0.36217    0.40871    0.78756    1.000
    Zr102    Zr       0.33279    0.37957    0.83878    1.000
    S101     S        0.32049    0.43424    0.91446    1.000
    O651     O        0.37880    0.41471    0.87543    1.000
    O652     O        0.33768    0.40663    0.87116    1.000
    O653     O        0.28807    0.45769    0.95049    1.000
    O654     O        0.31740    0.47566    0.97413    1.000
    O655     O        0.29785    0.35911    0.82715    1.000
    O656     O        0.30549    0.33958    0.79061    1.000
    O657     O        0.32708    0.36260    0.75093    1.000
    O658     O        0.33925    0.40284    0.75221    1.000
    O659     O        0.37684    0.44537    0.80359    1.000
    O660     O        0.40044    0.43558    0.83701    1.000
    O661     O        0.36168    0.40157    0.82560    1.000
    O662     O        0.33066    0.38340    0.79724    1.000
    C1001    C        0.35625    0.41657    0.88185    1.000
    C1002    C        0.35056    0.43201    0.90381    1.000
    C1003    C        0.36660    0.44567    0.91792    1.000
    H251     H        0.38370    0.44660    0.91510    1.000
    C1004    C        0.35384    0.45843    0.93765    1.000
    H252     H        0.36170    0.46900    0.94890    1.000
    C1005    C        0.32930    0.45354    0.93821    1.000
    C1006    C        0.31003    0.46330    0.95571    1.000
    C1007    C        0.29284    0.34391    0.81007    1.000
    C1008    C        0.26946    0.32945    0.81327    1.000
    C1009    C        0.26120    0.30944    0.80013    1.000
    H253     H        0.26950    0.30270    0.78650    1.000
    C1010    C        0.32705    0.38468    0.74345    1.000
    C1011    C        0.31055    0.39101    0.72178    1.000
    C1012    C        0.30704    0.41352    0.71143    1.000
    H254     H        0.31590    0.42760    0.71600    1.000
    C1013    C        0.39047    0.45064    0.82184    1.000
    C1014    C        0.39471    0.47727    0.82721    1.000
    C1015    C        0.40690    0.48680    0.84720    1.000
    H255     H        0.41440    0.47710    0.85950    1.000
    O663     O        0.31772    0.36107    0.87189    1.000
    S102     S        0.26566    0.32120    0.90120    1.000
    C1016    C        0.24370    0.36420    0.89670    1.000
    C1017    C        0.28270    0.34610    0.89070    1.000
    C1018    C        0.30890    0.34030    0.87790    1.000
    C1019    C        0.26620    0.36790    0.89030    1.000
    C1020    C        0.23940    0.33850    0.90520    1.000
    Zr103    Zr       0.86217    0.90871    0.28756    1.000
    Zr104    Zr       0.83279    0.87957    0.33878    1.000
    S103     S        0.82049    0.93424    0.41446    1.000
    O664     O        0.87880    0.91471    0.37543    1.000
    O665     O        0.83768    0.90663    0.37116    1.000
    O666     O        0.78807    0.95769    0.45049    1.000
    O667     O        0.81740    0.97566    0.47413    1.000
    O668     O        0.79785    0.85911    0.32715    1.000
    O669     O        0.80549    0.83958    0.29061    1.000
    O670     O        0.82708    0.86260    0.25093    1.000
    O671     O        0.83925    0.90284    0.25221    1.000
    O672     O        0.87684    0.94537    0.30359    1.000
    O673     O        0.90044    0.93558    0.33701    1.000
    O674     O        0.86168    0.90157    0.32560    1.000
    O675     O        0.83066    0.88340    0.29724    1.000
    C1021    C        0.85625    0.91657    0.38185    1.000
    C1022    C        0.85056    0.93201    0.40381    1.000
    C1023    C        0.86660    0.94567    0.41792    1.000
    H256     H        0.88370    0.94660    0.41510    1.000
    C1024    C        0.85384    0.95843    0.43765    1.000
    H257     H        0.86170    0.96900    0.44890    1.000
    C1025    C        0.82930    0.95354    0.43821    1.000
    C1026    C        0.81003    0.96330    0.45571    1.000
    C1027    C        0.79284    0.84391    0.31007    1.000
    C1028    C        0.76946    0.82945    0.31327    1.000
    C1029    C        0.76120    0.80944    0.30013    1.000
    H258     H        0.76950    0.80270    0.28650    1.000
    C1030    C        0.82705    0.88468    0.24345    1.000
    C1031    C        0.81055    0.89101    0.22178    1.000
    C1032    C        0.80704    0.91352    0.21143    1.000
    H259     H        0.81590    0.92760    0.21600    1.000
    C1033    C        0.89047    0.95064    0.32184    1.000
    C1034    C        0.89471    0.97727    0.32721    1.000
    C1035    C        0.90690    0.98680    0.34720    1.000
    H260     H        0.91440    0.97710    0.35950    1.000
    O676     O        0.81772    0.86107    0.37189    1.000
    S104     S        0.76566    0.82120    0.40120    1.000
    C1036    C        0.74370    0.86420    0.39670    1.000
    C1037    C        0.78270    0.84610    0.39070    1.000
    C1038    C        0.80890    0.84030    0.37790    1.000
    C1039    C        0.76620    0.86790    0.39030    1.000
    C1040    C        0.73940    0.83850    0.40520    1.000
    Zr105    Zr       0.36217    0.59129    0.21244    1.000
    Zr106    Zr       0.33279    0.62043    0.16122    1.000
    S105     S        0.32049    0.56576    0.08554    1.000
    O677     O        0.37880    0.58529    0.12457    1.000
    O678     O        0.33768    0.59337    0.12884    1.000
    O679     O        0.28807    0.54231    0.04951    1.000
    O680     O        0.31740    0.52434    0.02587    1.000
    O681     O        0.29785    0.64089    0.17285    1.000
    O682     O        0.30549    0.66042    0.20939    1.000
    O683     O        0.32708    0.63740    0.24907    1.000
    O684     O        0.33925    0.59716    0.24779    1.000
    O685     O        0.37684    0.55463    0.19641    1.000
    O686     O        0.40044    0.56442    0.16299    1.000
    O687     O        0.36168    0.59843    0.17440    1.000
    O688     O        0.33066    0.61660    0.20276    1.000
    C1041    C        0.35625    0.58343    0.11815    1.000
    C1042    C        0.35056    0.56799    0.09619    1.000
    C1043    C        0.36660    0.55433    0.08208    1.000
    H261     H        0.38370    0.55340    0.08490    1.000
    C1044    C        0.35384    0.54157    0.06235    1.000
    H262     H        0.36170    0.53100    0.05110    1.000
    C1045    C        0.32930    0.54646    0.06179    1.000
    C1046    C        0.31003    0.53670    0.04429    1.000
    C1047    C        0.29284    0.65609    0.18993    1.000
    C1048    C        0.26946    0.67055    0.18673    1.000
    C1049    C        0.26120    0.69056    0.19987    1.000
    H263     H        0.26950    0.69730    0.21350    1.000
    C1050    C        0.32705    0.61532    0.25655    1.000
    C1051    C        0.31055    0.60899    0.27822    1.000
    C1052    C        0.30704    0.58648    0.28857    1.000
    H264     H        0.31590    0.57240    0.28400    1.000
    C1053    C        0.39047    0.54936    0.17816    1.000
    C1054    C        0.39471    0.52273    0.17279    1.000
    C1055    C        0.40690    0.51320    0.15280    1.000
    H265     H        0.41440    0.52290    0.14050    1.000
    O689     O        0.31772    0.63893    0.12811    1.000
    S106     S        0.26566    0.67880    0.09880    1.000
    C1056    C        0.24370    0.63580    0.10330    1.000
    C1057    C        0.28270    0.65390    0.10930    1.000
    C1058    C        0.30890    0.65970    0.12210    1.000
    C1059    C        0.26620    0.63210    0.10970    1.000
    C1060    C        0.23940    0.66150    0.09480    1.000
    Zr107    Zr       0.86217    0.09129    0.71244    1.000
    Zr108    Zr       0.83279    0.12043    0.66122    1.000
    S107     S        0.82049    0.06576    0.58554    1.000
    O690     O        0.87880    0.08529    0.62457    1.000
    O691     O        0.83768    0.09337    0.62884    1.000
    O692     O        0.78807    0.04231    0.54951    1.000
    O693     O        0.81740    0.02434    0.52587    1.000
    O694     O        0.79785    0.14089    0.67285    1.000
    O695     O        0.80549    0.16042    0.70939    1.000
    O696     O        0.82708    0.13740    0.74907    1.000
    O697     O        0.83925    0.09716    0.74779    1.000
    O698     O        0.87684    0.05463    0.69641    1.000
    O699     O        0.90044    0.06442    0.66299    1.000
    O700     O        0.86168    0.09843    0.67440    1.000
    O701     O        0.83066    0.11660    0.70276    1.000
    C1061    C        0.85625    0.08343    0.61815    1.000
    C1062    C        0.85056    0.06799    0.59619    1.000
    C1063    C        0.86660    0.05433    0.58208    1.000
    H266     H        0.88370    0.05340    0.58490    1.000
    C1064    C        0.85384    0.04157    0.56235    1.000
    H267     H        0.86170    0.03100    0.55110    1.000
    C1065    C        0.82930    0.04646    0.56179    1.000
    C1066    C        0.81003    0.03670    0.54429    1.000
    C1067    C        0.79284    0.15609    0.68993    1.000
    C1068    C        0.76946    0.17055    0.68673    1.000
    C1069    C        0.76120    0.19056    0.69987    1.000
    H268     H        0.76950    0.19730    0.71350    1.000
    C1070    C        0.82705    0.11532    0.75655    1.000
    C1071    C        0.81055    0.10899    0.77822    1.000
    C1072    C        0.80704    0.08648    0.78857    1.000
    H269     H        0.81590    0.07240    0.78400    1.000
    C1073    C        0.89047    0.04936    0.67816    1.000
    C1074    C        0.89471    0.02273    0.67279    1.000
    C1075    C        0.90690    0.01320    0.65280    1.000
    H270     H        0.91440    0.02290    0.64050    1.000
    O702     O        0.81772    0.13893    0.62811    1.000
    S108     S        0.76566    0.17880    0.59880    1.000
    C1076    C        0.74370    0.13580    0.60330    1.000
    C1077    C        0.78270    0.15390    0.60930    1.000
    C1078    C        0.80890    0.15970    0.62210    1.000
    C1079    C        0.76620    0.13210    0.60970    1.000
    C1080    C        0.73940    0.16150    0.59480    1.000
    Zr109    Zr       0.63783    0.40871    0.21244    1.000
    Zr110    Zr       0.66721    0.37957    0.16122    1.000
    S109     S        0.67951    0.43424    0.08554    1.000
    O703     O        0.62120    0.41471    0.12457    1.000
    O704     O        0.66232    0.40663    0.12884    1.000
    O705     O        0.71193    0.45769    0.04951    1.000
    O706     O        0.68260    0.47566    0.02587    1.000
    O707     O        0.70215    0.35911    0.17285    1.000
    O708     O        0.69451    0.33958    0.20939    1.000
    O709     O        0.67292    0.36260    0.24907    1.000
    O710     O        0.66075    0.40284    0.24779    1.000
    O711     O        0.62316    0.44537    0.19641    1.000
    O712     O        0.59956    0.43558    0.16299    1.000
    O713     O        0.63832    0.40157    0.17440    1.000
    O714     O        0.66934    0.38340    0.20276    1.000
    C1081    C        0.64375    0.41657    0.11815    1.000
    C1082    C        0.64944    0.43201    0.09619    1.000
    C1083    C        0.63340    0.44567    0.08208    1.000
    H271     H        0.61630    0.44660    0.08490    1.000
    C1084    C        0.64616    0.45843    0.06235    1.000
    H272     H        0.63830    0.46900    0.05110    1.000
    C1085    C        0.67070    0.45354    0.06179    1.000
    C1086    C        0.68997    0.46330    0.04429    1.000
    C1087    C        0.70716    0.34391    0.18993    1.000
    C1088    C        0.73054    0.32945    0.18673    1.000
    C1089    C        0.73880    0.30944    0.19987    1.000
    H273     H        0.73050    0.30270    0.21350    1.000
    C1090    C        0.67295    0.38468    0.25655    1.000
    C1091    C        0.68945    0.39101    0.27822    1.000
    C1092    C        0.69296    0.41352    0.28857    1.000
    H274     H        0.68410    0.42760    0.28400    1.000
    C1093    C        0.60953    0.45064    0.17816    1.000
    C1094    C        0.60529    0.47727    0.17279    1.000
    C1095    C        0.59310    0.48680    0.15280    1.000
    H275     H        0.58560    0.47710    0.14050    1.000
    O715     O        0.68228    0.36107    0.12811    1.000
    S110     S        0.73434    0.32120    0.09880    1.000
    C1096    C        0.75630    0.36420    0.10330    1.000
    C1097    C        0.71730    0.34610    0.10930    1.000
    C1098    C        0.69110    0.34030    0.12210    1.000
    C1099    C        0.73380    0.36790    0.10970    1.000
    C1100    C        0.76060    0.33850    0.09480    1.000
    Zr111    Zr       0.13783    0.90871    0.71244    1.000
    Zr112    Zr       0.16721    0.87957    0.66122    1.000
    S111     S        0.17951    0.93424    0.58554    1.000
    O716     O        0.12120    0.91471    0.62457    1.000
    O717     O        0.16232    0.90663    0.62884    1.000
    O718     O        0.21193    0.95769    0.54951    1.000
    O719     O        0.18260    0.97566    0.52587    1.000
    O720     O        0.20215    0.85911    0.67285    1.000
    O721     O        0.19451    0.83958    0.70939    1.000
    O722     O        0.17292    0.86260    0.74907    1.000
    O723     O        0.16075    0.90284    0.74779    1.000
    O724     O        0.12316    0.94537    0.69641    1.000
    O725     O        0.09956    0.93558    0.66299    1.000
    O726     O        0.13832    0.90157    0.67440    1.000
    O727     O        0.16934    0.88340    0.70276    1.000
    C1101    C        0.14375    0.91657    0.61815    1.000
    C1102    C        0.14944    0.93201    0.59619    1.000
    C1103    C        0.13340    0.94567    0.58208    1.000
    H276     H        0.11630    0.94660    0.58490    1.000
    C1104    C        0.14616    0.95843    0.56235    1.000
    H277     H        0.13830    0.96900    0.55110    1.000
    C1105    C        0.17070    0.95354    0.56179    1.000
    C1106    C        0.18997    0.96330    0.54429    1.000
    C1107    C        0.20716    0.84391    0.68993    1.000
    C1108    C        0.23054    0.82945    0.68673    1.000
    C1109    C        0.23880    0.80944    0.69987    1.000
    H278     H        0.23050    0.80270    0.71350    1.000
    C1110    C        0.17295    0.88468    0.75655    1.000
    C1111    C        0.18945    0.89101    0.77822    1.000
    C1112    C        0.19296    0.91352    0.78857    1.000
    H279     H        0.18410    0.92760    0.78400    1.000
    C1113    C        0.10953    0.95064    0.67816    1.000
    C1114    C        0.10529    0.97727    0.67279    1.000
    C1115    C        0.09310    0.98680    0.65280    1.000
    H280     H        0.08560    0.97710    0.64050    1.000
    O728     O        0.18228    0.86107    0.62811    1.000
    S112     S        0.23434    0.82120    0.59880    1.000
    C1116    C        0.25630    0.86420    0.60330    1.000
    C1117    C        0.21730    0.84610    0.60930    1.000
    C1118    C        0.19110    0.84030    0.62210    1.000
    C1119    C        0.23380    0.86790    0.60970    1.000
    C1120    C        0.26060    0.83850    0.59480    1.000
    Zr113    Zr       0.78756    0.63783    0.59129    1.000
    Zr114    Zr       0.83878    0.66721    0.62043    1.000
    S113     S        0.91446    0.67951    0.56576    1.000
    O729     O        0.87543    0.62120    0.58529    1.000
    O730     O        0.87116    0.66232    0.59337    1.000
    O731     O        0.95049    0.71193    0.54231    1.000
    O732     O        0.97413    0.68260    0.52434    1.000
    O733     O        0.82715    0.70215    0.64089    1.000
    O734     O        0.79061    0.69451    0.66042    1.000
    O735     O        0.75093    0.67292    0.63740    1.000
    O736     O        0.75221    0.66075    0.59716    1.000
    O737     O        0.80359    0.62316    0.55463    1.000
    O738     O        0.83701    0.59956    0.56442    1.000
    O739     O        0.82560    0.63832    0.59843    1.000
    O740     O        0.79724    0.66934    0.61660    1.000
    C1121    C        0.88185    0.64375    0.58343    1.000
    C1122    C        0.90381    0.64944    0.56799    1.000
    C1123    C        0.91792    0.63340    0.55433    1.000
    H281     H        0.91510    0.61630    0.55340    1.000
    C1124    C        0.93765    0.64616    0.54157    1.000
    H282     H        0.94890    0.63830    0.53100    1.000
    C1125    C        0.93821    0.67070    0.54646    1.000
    C1126    C        0.95571    0.68997    0.53670    1.000
    C1127    C        0.81007    0.70716    0.65609    1.000
    C1128    C        0.81327    0.73054    0.67055    1.000
    C1129    C        0.80013    0.73880    0.69056    1.000
    H283     H        0.78650    0.73050    0.69730    1.000
    C1130    C        0.74345    0.67295    0.61532    1.000
    C1131    C        0.72178    0.68945    0.60899    1.000
    C1132    C        0.71143    0.69296    0.58648    1.000
    H284     H        0.71600    0.68410    0.57240    1.000
    C1133    C        0.82184    0.60953    0.54936    1.000
    C1134    C        0.82721    0.60529    0.52273    1.000
    C1135    C        0.84720    0.59310    0.51320    1.000
    H285     H        0.85950    0.58560    0.52290    1.000
    O741     O        0.87189    0.68228    0.63893    1.000
    S114     S        0.90120    0.73434    0.67880    1.000
    C1136    C        0.89670    0.75630    0.63580    1.000
    C1137    C        0.89070    0.71730    0.65390    1.000
    C1138    C        0.87790    0.69110    0.65970    1.000
    C1139    C        0.89030    0.73380    0.63210    1.000
    C1140    C        0.90520    0.76060    0.66150    1.000
    Zr115    Zr       0.28756    0.13783    0.09129    1.000
    Zr116    Zr       0.33878    0.16721    0.12043    1.000
    S115     S        0.41446    0.17951    0.06576    1.000
    O742     O        0.37543    0.12120    0.08529    1.000
    O743     O        0.37116    0.16232    0.09337    1.000
    O744     O        0.45049    0.21193    0.04231    1.000
    O745     O        0.47413    0.18260    0.02434    1.000
    O746     O        0.32715    0.20215    0.14089    1.000
    O747     O        0.29061    0.19451    0.16042    1.000
    O748     O        0.25093    0.17292    0.13740    1.000
    O749     O        0.25221    0.16075    0.09716    1.000
    O750     O        0.30359    0.12316    0.05463    1.000
    O751     O        0.33701    0.09956    0.06442    1.000
    O752     O        0.32560    0.13832    0.09843    1.000
    O753     O        0.29724    0.16934    0.11660    1.000
    C1141    C        0.38185    0.14375    0.08343    1.000
    C1142    C        0.40381    0.14944    0.06799    1.000
    C1143    C        0.41792    0.13340    0.05433    1.000
    H286     H        0.41510    0.11630    0.05340    1.000
    C1144    C        0.43765    0.14616    0.04157    1.000
    H287     H        0.44890    0.13830    0.03100    1.000
    C1145    C        0.43821    0.17070    0.04646    1.000
    C1146    C        0.45571    0.18997    0.03670    1.000
    C1147    C        0.31007    0.20716    0.15609    1.000
    C1148    C        0.31327    0.23054    0.17055    1.000
    C1149    C        0.30013    0.23880    0.19056    1.000
    H288     H        0.28650    0.23050    0.19730    1.000
    C1150    C        0.24345    0.17295    0.11532    1.000
    C1151    C        0.22178    0.18945    0.10899    1.000
    C1152    C        0.21143    0.19296    0.08648    1.000
    H289     H        0.21600    0.18410    0.07240    1.000
    C1153    C        0.32184    0.10953    0.04936    1.000
    C1154    C        0.32721    0.10529    0.02273    1.000
    C1155    C        0.34720    0.09310    0.01320    1.000
    H290     H        0.35950    0.08560    0.02290    1.000
    O754     O        0.37189    0.18228    0.13893    1.000
    S116     S        0.40120    0.23434    0.17880    1.000
    C1156    C        0.39670    0.25630    0.13580    1.000
    C1157    C        0.39070    0.21730    0.15390    1.000
    C1158    C        0.37790    0.19110    0.15970    1.000
    C1159    C        0.39030    0.23380    0.13210    1.000
    C1160    C        0.40520    0.26060    0.16150    1.000
    Zr117    Zr       0.78756    0.36217    0.40871    1.000
    Zr118    Zr       0.83878    0.33279    0.37957    1.000
    S117     S        0.91446    0.32049    0.43424    1.000
    O755     O        0.87543    0.37880    0.41471    1.000
    O756     O        0.87116    0.33768    0.40663    1.000
    O757     O        0.95049    0.28807    0.45769    1.000
    O758     O        0.97413    0.31740    0.47566    1.000
    O759     O        0.82715    0.29785    0.35911    1.000
    O760     O        0.79061    0.30549    0.33958    1.000
    O761     O        0.75093    0.32708    0.36260    1.000
    O762     O        0.75221    0.33925    0.40284    1.000
    O763     O        0.80359    0.37684    0.44537    1.000
    O764     O        0.83701    0.40044    0.43558    1.000
    O765     O        0.82560    0.36168    0.40157    1.000
    O766     O        0.79724    0.33066    0.38340    1.000
    C1161    C        0.88185    0.35625    0.41657    1.000
    C1162    C        0.90381    0.35056    0.43201    1.000
    C1163    C        0.91792    0.36660    0.44567    1.000
    H291     H        0.91510    0.38370    0.44660    1.000
    C1164    C        0.93765    0.35384    0.45843    1.000
    H292     H        0.94890    0.36170    0.46900    1.000
    C1165    C        0.93821    0.32930    0.45354    1.000
    C1166    C        0.95571    0.31003    0.46330    1.000
    C1167    C        0.81007    0.29284    0.34391    1.000
    C1168    C        0.81327    0.26946    0.32945    1.000
    C1169    C        0.80013    0.26120    0.30944    1.000
    H293     H        0.78650    0.26950    0.30270    1.000
    C1170    C        0.74345    0.32705    0.38468    1.000
    C1171    C        0.72178    0.31055    0.39101    1.000
    C1172    C        0.71143    0.30704    0.41352    1.000
    H294     H        0.71600    0.31590    0.42760    1.000
    C1173    C        0.82184    0.39047    0.45064    1.000
    C1174    C        0.82721    0.39471    0.47727    1.000
    C1175    C        0.84720    0.40690    0.48680    1.000
    H295     H        0.85950    0.41440    0.47710    1.000
    O767     O        0.87189    0.31772    0.36107    1.000
    S118     S        0.90120    0.26566    0.32120    1.000
    C1176    C        0.89670    0.24370    0.36420    1.000
    C1177    C        0.89070    0.28270    0.34610    1.000
    C1178    C        0.87790    0.30890    0.34030    1.000
    C1179    C        0.89030    0.26620    0.36790    1.000
    C1180    C        0.90520    0.23940    0.33850    1.000
    Zr119    Zr       0.28756    0.86217    0.90871    1.000
    Zr120    Zr       0.33878    0.83279    0.87957    1.000
    S119     S        0.41446    0.82049    0.93424    1.000
    O768     O        0.37543    0.87880    0.91471    1.000
    O769     O        0.37116    0.83768    0.90663    1.000
    O770     O        0.45049    0.78807    0.95769    1.000
    O771     O        0.47413    0.81740    0.97566    1.000
    O772     O        0.32715    0.79785    0.85911    1.000
    O773     O        0.29061    0.80549    0.83958    1.000
    O774     O        0.25093    0.82708    0.86260    1.000
    O775     O        0.25221    0.83925    0.90284    1.000
    O776     O        0.30359    0.87684    0.94537    1.000
    O777     O        0.33701    0.90044    0.93558    1.000
    O778     O        0.32560    0.86168    0.90157    1.000
    O779     O        0.29724    0.83066    0.88340    1.000
    C1181    C        0.38185    0.85625    0.91657    1.000
    C1182    C        0.40381    0.85056    0.93201    1.000
    C1183    C        0.41792    0.86660    0.94567    1.000
    H296     H        0.41510    0.88370    0.94660    1.000
    C1184    C        0.43765    0.85384    0.95843    1.000
    H297     H        0.44890    0.86170    0.96900    1.000
    C1185    C        0.43821    0.82930    0.95354    1.000
    C1186    C        0.45571    0.81003    0.96330    1.000
    C1187    C        0.31007    0.79284    0.84391    1.000
    C1188    C        0.31327    0.76946    0.82945    1.000
    C1189    C        0.30013    0.76120    0.80944    1.000
    H298     H        0.28650    0.76950    0.80270    1.000
    C1190    C        0.24345    0.82705    0.88468    1.000
    C1191    C        0.22178    0.81055    0.89101    1.000
    C1192    C        0.21143    0.80704    0.91352    1.000
    H299     H        0.21600    0.81590    0.92760    1.000
    C1193    C        0.32184    0.89047    0.95064    1.000
    C1194    C        0.32721    0.89471    0.97727    1.000
    C1195    C        0.34720    0.90690    0.98680    1.000
    H300     H        0.35950    0.91440    0.97710    1.000
    O780     O        0.37189    0.81772    0.86107    1.000
    S120     S        0.40120    0.76566    0.82120    1.000
    C1196    C        0.39670    0.74370    0.86420    1.000
    C1197    C        0.39070    0.78270    0.84610    1.000
    C1198    C        0.37790    0.80890    0.84030    1.000
    C1199    C        0.39030    0.76620    0.86790    1.000
    C1200    C        0.40520    0.73940    0.83850    1.000
    Zr121    Zr       0.21244    0.36217    0.59129    1.000
    Zr122    Zr       0.16122    0.33279    0.62043    1.000
    S121     S        0.08554    0.32049    0.56576    1.000
    O781     O        0.12457    0.37880    0.58529    1.000
    O782     O        0.12884    0.33768    0.59337    1.000
    O783     O        0.04951    0.28807    0.54231    1.000
    O784     O        0.02587    0.31740    0.52434    1.000
    O785     O        0.17285    0.29785    0.64089    1.000
    O786     O        0.20939    0.30549    0.66042    1.000
    O787     O        0.24907    0.32708    0.63740    1.000
    O788     O        0.24779    0.33925    0.59716    1.000
    O789     O        0.19641    0.37684    0.55463    1.000
    O790     O        0.16299    0.40044    0.56442    1.000
    O791     O        0.17440    0.36168    0.59843    1.000
    O792     O        0.20276    0.33066    0.61660    1.000
    C1201    C        0.11815    0.35625    0.58343    1.000
    C1202    C        0.09619    0.35056    0.56799    1.000
    C1203    C        0.08208    0.36660    0.55433    1.000
    H301     H        0.08490    0.38370    0.55340    1.000
    C1204    C        0.06235    0.35384    0.54157    1.000
    H302     H        0.05110    0.36170    0.53100    1.000
    C1205    C        0.06179    0.32930    0.54646    1.000
    C1206    C        0.04429    0.31003    0.53670    1.000
    C1207    C        0.18993    0.29284    0.65609    1.000
    C1208    C        0.18673    0.26946    0.67055    1.000
    C1209    C        0.19987    0.26120    0.69056    1.000
    H303     H        0.21350    0.26950    0.69730    1.000
    C1210    C        0.25655    0.32705    0.61532    1.000
    C1211    C        0.27822    0.31055    0.60899    1.000
    C1212    C        0.28857    0.30704    0.58648    1.000
    H304     H        0.28400    0.31590    0.57240    1.000
    C1213    C        0.17816    0.39047    0.54936    1.000
    C1214    C        0.17279    0.39471    0.52273    1.000
    C1215    C        0.15280    0.40690    0.51320    1.000
    H305     H        0.14050    0.41440    0.52290    1.000
    O793     O        0.12811    0.31772    0.63893    1.000
    S122     S        0.09880    0.26566    0.67880    1.000
    C1216    C        0.10330    0.24370    0.63580    1.000
    C1217    C        0.10930    0.28270    0.65390    1.000
    C1218    C        0.12210    0.30890    0.65970    1.000
    C1219    C        0.10970    0.26620    0.63210    1.000
    C1220    C        0.09480    0.23940    0.66150    1.000
    Zr123    Zr       0.71244    0.86217    0.09129    1.000
    Zr124    Zr       0.66122    0.83279    0.12043    1.000
    S123     S        0.58554    0.82049    0.06576    1.000
    O794     O        0.62457    0.87880    0.08529    1.000
    O795     O        0.62884    0.83768    0.09337    1.000
    O796     O        0.54951    0.78807    0.04231    1.000
    O797     O        0.52587    0.81740    0.02434    1.000
    O798     O        0.67285    0.79785    0.14089    1.000
    O799     O        0.70939    0.80549    0.16042    1.000
    O800     O        0.74907    0.82708    0.13740    1.000
    O801     O        0.74779    0.83925    0.09716    1.000
    O802     O        0.69641    0.87684    0.05463    1.000
    O803     O        0.66299    0.90044    0.06442    1.000
    O804     O        0.67440    0.86168    0.09843    1.000
    O805     O        0.70276    0.83066    0.11660    1.000
    C1221    C        0.61815    0.85625    0.08343    1.000
    C1222    C        0.59619    0.85056    0.06799    1.000
    C1223    C        0.58208    0.86660    0.05433    1.000
    H306     H        0.58490    0.88370    0.05340    1.000
    C1224    C        0.56235    0.85384    0.04157    1.000
    H307     H        0.55110    0.86170    0.03100    1.000
    C1225    C        0.56179    0.82930    0.04646    1.000
    C1226    C        0.54429    0.81003    0.03670    1.000
    C1227    C        0.68993    0.79284    0.15609    1.000
    C1228    C        0.68673    0.76946    0.17055    1.000
    C1229    C        0.69987    0.76120    0.19056    1.000
    H308     H        0.71350    0.76950    0.19730    1.000
    C1230    C        0.75655    0.82705    0.11532    1.000
    C1231    C        0.77822    0.81055    0.10899    1.000
    C1232    C        0.78857    0.80704    0.08648    1.000
    H309     H        0.78400    0.81590    0.07240    1.000
    C1233    C        0.67816    0.89047    0.04936    1.000
    C1234    C        0.67279    0.89471    0.02273    1.000
    C1235    C        0.65280    0.90690    0.01320    1.000
    H310     H        0.64050    0.91440    0.02290    1.000
    O806     O        0.62811    0.81772    0.13893    1.000
    S124     S        0.59880    0.76566    0.17880    1.000
    C1236    C        0.60330    0.74370    0.13580    1.000
    C1237    C        0.60930    0.78270    0.15390    1.000
    C1238    C        0.62210    0.80890    0.15970    1.000
    C1239    C        0.60970    0.76620    0.13210    1.000
    C1240    C        0.59480    0.73940    0.16150    1.000
    Zr125    Zr       0.21244    0.63783    0.40871    1.000
    Zr126    Zr       0.16122    0.66721    0.37957    1.000
    S125     S        0.08554    0.67951    0.43424    1.000
    O807     O        0.12457    0.62120    0.41471    1.000
    O808     O        0.12884    0.66232    0.40663    1.000
    O809     O        0.04951    0.71193    0.45769    1.000
    O810     O        0.02587    0.68260    0.47566    1.000
    O811     O        0.17285    0.70215    0.35911    1.000
    O812     O        0.20939    0.69451    0.33958    1.000
    O813     O        0.24907    0.67292    0.36260    1.000
    O814     O        0.24779    0.66075    0.40284    1.000
    O815     O        0.19641    0.62316    0.44537    1.000
    O816     O        0.16299    0.59956    0.43558    1.000
    O817     O        0.17440    0.63832    0.40157    1.000
    O818     O        0.20276    0.66934    0.38340    1.000
    C1241    C        0.11815    0.64375    0.41657    1.000
    C1242    C        0.09619    0.64944    0.43201    1.000
    C1243    C        0.08208    0.63340    0.44567    1.000
    H311     H        0.08490    0.61630    0.44660    1.000
    C1244    C        0.06235    0.64616    0.45843    1.000
    H312     H        0.05110    0.63830    0.46900    1.000
    C1245    C        0.06179    0.67070    0.45354    1.000
    C1246    C        0.04429    0.68997    0.46330    1.000
    C1247    C        0.18993    0.70716    0.34391    1.000
    C1248    C        0.18673    0.73054    0.32945    1.000
    C1249    C        0.19987    0.73880    0.30944    1.000
    H313     H        0.21350    0.73050    0.30270    1.000
    C1250    C        0.25655    0.67295    0.38468    1.000
    C1251    C        0.27822    0.68945    0.39101    1.000
    C1252    C        0.28857    0.69296    0.41352    1.000
    H314     H        0.28400    0.68410    0.42760    1.000
    C1253    C        0.17816    0.60953    0.45064    1.000
    C1254    C        0.17279    0.60529    0.47727    1.000
    C1255    C        0.15280    0.59310    0.48680    1.000
    H315     H        0.14050    0.58560    0.47710    1.000
    O819     O        0.12811    0.68228    0.36107    1.000
    S126     S        0.09880    0.73434    0.32120    1.000
    C1256    C        0.10330    0.75630    0.36420    1.000
    C1257    C        0.10930    0.71730    0.34610    1.000
    C1258    C        0.12210    0.69110    0.34030    1.000
    C1259    C        0.10970    0.73380    0.36790    1.000
    C1260    C        0.09480    0.76060    0.33850    1.000
    Zr127    Zr       0.71244    0.13783    0.90871    1.000
    Zr128    Zr       0.66122    0.16721    0.87957    1.000
    S127     S        0.58554    0.17951    0.93424    1.000
    O820     O        0.62457    0.12120    0.91471    1.000
    O821     O        0.62884    0.16232    0.90663    1.000
    O822     O        0.54951    0.21193    0.95769    1.000
    O823     O        0.52587    0.18260    0.97566    1.000
    O824     O        0.67285    0.20215    0.85911    1.000
    O825     O        0.70939    0.19451    0.83958    1.000
    O826     O        0.74907    0.17292    0.86260    1.000
    O827     O        0.74779    0.16075    0.90284    1.000
    O828     O        0.69641    0.12316    0.94537    1.000
    O829     O        0.66299    0.09956    0.93558    1.000
    O830     O        0.67440    0.13832    0.90157    1.000
    O831     O        0.70276    0.16934    0.88340    1.000
    C1261    C        0.61815    0.14375    0.91657    1.000
    C1262    C        0.59619    0.14944    0.93201    1.000
    C1263    C        0.58208    0.13340    0.94567    1.000
    H316     H        0.58490    0.11630    0.94660    1.000
    C1264    C        0.56235    0.14616    0.95843    1.000
    H317     H        0.55110    0.13830    0.96900    1.000
    C1265    C        0.56179    0.17070    0.95354    1.000
    C1266    C        0.54429    0.18997    0.96330    1.000
    C1267    C        0.68993    0.20716    0.84391    1.000
    C1268    C        0.68673    0.23054    0.82945    1.000
    C1269    C        0.69987    0.23880    0.80944    1.000
    H318     H        0.71350    0.23050    0.80270    1.000
    C1270    C        0.75655    0.17295    0.88468    1.000
    C1271    C        0.77822    0.18945    0.89101    1.000
    C1272    C        0.78857    0.19296    0.91352    1.000
    H319     H        0.78400    0.18410    0.92760    1.000
    C1273    C        0.67816    0.10953    0.95064    1.000
    C1274    C        0.67279    0.10529    0.97727    1.000
    C1275    C        0.65280    0.09310    0.98680    1.000
    H320     H        0.64050    0.08560    0.97710    1.000
    O832     O        0.62811    0.18228    0.86107    1.000
    S128     S        0.59880    0.23434    0.82120    1.000
    C1276    C        0.60330    0.25630    0.86420    1.000
    C1277    C        0.60930    0.21730    0.84610    1.000
    C1278    C        0.62210    0.19110    0.84030    1.000
    C1279    C        0.60970    0.23380    0.86790    1.000
    C1280    C        0.59480    0.26060    0.83850    1.000
    Zr129    Zr       0.59129    0.78756    0.63783    1.000
    Zr130    Zr       0.62043    0.83878    0.66721    1.000
    S129     S        0.56576    0.91446    0.67951    1.000
    O833     O        0.58529    0.87543    0.62120    1.000
    O834     O        0.59337    0.87116    0.66232    1.000
    O835     O        0.54231    0.95049    0.71193    1.000
    O836     O        0.52434    0.97413    0.68260    1.000
    O837     O        0.64089    0.82715    0.70215    1.000
    O838     O        0.66042    0.79061    0.69451    1.000
    O839     O        0.63740    0.75093    0.67292    1.000
    O840     O        0.59716    0.75221    0.66075    1.000
    O841     O        0.55463    0.80359    0.62316    1.000
    O842     O        0.56442    0.83701    0.59956    1.000
    O843     O        0.59843    0.82560    0.63832    1.000
    O844     O        0.61660    0.79724    0.66934    1.000
    C1281    C        0.58343    0.88185    0.64375    1.000
    C1282    C        0.56799    0.90381    0.64944    1.000
    C1283    C        0.55433    0.91792    0.63340    1.000
    H321     H        0.55340    0.91510    0.61630    1.000
    C1284    C        0.54157    0.93765    0.64616    1.000
    H322     H        0.53100    0.94890    0.63830    1.000
    C1285    C        0.54646    0.93821    0.67070    1.000
    C1286    C        0.53670    0.95571    0.68997    1.000
    C1287    C        0.65609    0.81007    0.70716    1.000
    C1288    C        0.67055    0.81327    0.73054    1.000
    C1289    C        0.69056    0.80013    0.73880    1.000
    H323     H        0.69730    0.78650    0.73050    1.000
    C1290    C        0.61532    0.74345    0.67295    1.000
    C1291    C        0.60899    0.72178    0.68945    1.000
    C1292    C        0.58648    0.71143    0.69296    1.000
    H324     H        0.57240    0.71600    0.68410    1.000
    C1293    C        0.54936    0.82184    0.60953    1.000
    C1294    C        0.52273    0.82721    0.60529    1.000
    C1295    C        0.51320    0.84720    0.59310    1.000
    H325     H        0.52290    0.85950    0.58560    1.000
    O845     O        0.63893    0.87189    0.68228    1.000
    S130     S        0.67880    0.90120    0.73434    1.000
    C1296    C        0.63580    0.89670    0.75630    1.000
    C1297    C        0.65390    0.89070    0.71730    1.000
    C1298    C        0.65970    0.87790    0.69110    1.000
    C1299    C        0.63210    0.89030    0.73380    1.000
    C1300    C        0.66150    0.90520    0.76060    1.000
    Zr131    Zr       0.09129    0.28756    0.13783    1.000
    Zr132    Zr       0.12043    0.33878    0.16721    1.000
    S131     S        0.06576    0.41446    0.17951    1.000
    O846     O        0.08529    0.37543    0.12120    1.000
    O847     O        0.09337    0.37116    0.16232    1.000
    O848     O        0.04231    0.45049    0.21193    1.000
    O849     O        0.02434    0.47413    0.18260    1.000
    O850     O        0.14089    0.32715    0.20215    1.000
    O851     O        0.16042    0.29061    0.19451    1.000
    O852     O        0.13740    0.25093    0.17292    1.000
    O853     O        0.09716    0.25221    0.16075    1.000
    O854     O        0.05463    0.30359    0.12316    1.000
    O855     O        0.06442    0.33701    0.09956    1.000
    O856     O        0.09843    0.32560    0.13832    1.000
    O857     O        0.11660    0.29724    0.16934    1.000
    C1301    C        0.08343    0.38185    0.14375    1.000
    C1302    C        0.06799    0.40381    0.14944    1.000
    C1303    C        0.05433    0.41792    0.13340    1.000
    H326     H        0.05340    0.41510    0.11630    1.000
    C1304    C        0.04157    0.43765    0.14616    1.000
    H327     H        0.03100    0.44890    0.13830    1.000
    C1305    C        0.04646    0.43821    0.17070    1.000
    C1306    C        0.03670    0.45571    0.18997    1.000
    C1307    C        0.15609    0.31007    0.20716    1.000
    C1308    C        0.17055    0.31327    0.23054    1.000
    C1309    C        0.19056    0.30013    0.23880    1.000
    H328     H        0.19730    0.28650    0.23050    1.000
    C1310    C        0.11532    0.24345    0.17295    1.000
    C1311    C        0.10899    0.22178    0.18945    1.000
    C1312    C        0.08648    0.21143    0.19296    1.000
    H329     H        0.07240    0.21600    0.18410    1.000
    C1313    C        0.04936    0.32184    0.10953    1.000
    C1314    C        0.02273    0.32721    0.10529    1.000
    C1315    C        0.01320    0.34720    0.09310    1.000
    H330     H        0.02290    0.35950    0.08560    1.000
    O858     O        0.13893    0.37189    0.18228    1.000
    S132     S        0.17880    0.40120    0.23434    1.000
    C1316    C        0.13580    0.39670    0.25630    1.000
    C1317    C        0.15390    0.39070    0.21730    1.000
    C1318    C        0.15970    0.37790    0.19110    1.000
    C1319    C        0.13210    0.39030    0.23380    1.000
    C1320    C        0.16150    0.40520    0.26060    1.000
    Zr133    Zr       0.40871    0.78756    0.36217    1.000
    Zr134    Zr       0.37957    0.83878    0.33279    1.000
    S133     S        0.43424    0.91446    0.32049    1.000
    O859     O        0.41471    0.87543    0.37880    1.000
    O860     O        0.40663    0.87116    0.33768    1.000
    O861     O        0.45769    0.95049    0.28807    1.000
    O862     O        0.47566    0.97413    0.31740    1.000
    O863     O        0.35911    0.82715    0.29785    1.000
    O864     O        0.33958    0.79061    0.30549    1.000
    O865     O        0.36260    0.75093    0.32708    1.000
    O866     O        0.40284    0.75221    0.33925    1.000
    O867     O        0.44537    0.80359    0.37684    1.000
    O868     O        0.43558    0.83701    0.40044    1.000
    O869     O        0.40157    0.82560    0.36168    1.000
    O870     O        0.38340    0.79724    0.33066    1.000
    C1321    C        0.41657    0.88185    0.35625    1.000
    C1322    C        0.43201    0.90381    0.35056    1.000
    C1323    C        0.44567    0.91792    0.36660    1.000
    H331     H        0.44660    0.91510    0.38370    1.000
    C1324    C        0.45843    0.93765    0.35384    1.000
    H332     H        0.46900    0.94890    0.36170    1.000
    C1325    C        0.45354    0.93821    0.32930    1.000
    C1326    C        0.46330    0.95571    0.31003    1.000
    C1327    C        0.34391    0.81007    0.29284    1.000
    C1328    C        0.32945    0.81327    0.26946    1.000
    C1329    C        0.30944    0.80013    0.26120    1.000
    H333     H        0.30270    0.78650    0.26950    1.000
    C1330    C        0.38468    0.74345    0.32705    1.000
    C1331    C        0.39101    0.72178    0.31055    1.000
    C1332    C        0.41352    0.71143    0.30704    1.000
    H334     H        0.42760    0.71600    0.31590    1.000
    C1333    C        0.45064    0.82184    0.39047    1.000
    C1334    C        0.47727    0.82721    0.39471    1.000
    C1335    C        0.48680    0.84720    0.40690    1.000
    H335     H        0.47710    0.85950    0.41440    1.000
    O871     O        0.36107    0.87189    0.31772    1.000
    S134     S        0.32120    0.90120    0.26566    1.000
    C1336    C        0.36420    0.89670    0.24370    1.000
    C1337    C        0.34610    0.89070    0.28270    1.000
    C1338    C        0.34030    0.87790    0.30890    1.000
    C1339    C        0.36790    0.89030    0.26620    1.000
    C1340    C        0.33850    0.90520    0.23940    1.000
    Zr135    Zr       0.90871    0.28756    0.86217    1.000
    Zr136    Zr       0.87957    0.33878    0.83279    1.000
    S135     S        0.93424    0.41446    0.82049    1.000
    O872     O        0.91471    0.37543    0.87880    1.000
    O873     O        0.90663    0.37116    0.83768    1.000
    O874     O        0.95769    0.45049    0.78807    1.000
    O875     O        0.97566    0.47413    0.81740    1.000
    O876     O        0.85911    0.32715    0.79785    1.000
    O877     O        0.83958    0.29061    0.80549    1.000
    O878     O        0.86260    0.25093    0.82708    1.000
    O879     O        0.90284    0.25221    0.83925    1.000
    O880     O        0.94537    0.30359    0.87684    1.000
    O881     O        0.93558    0.33701    0.90044    1.000
    O882     O        0.90157    0.32560    0.86168    1.000
    O883     O        0.88340    0.29724    0.83066    1.000
    C1341    C        0.91657    0.38185    0.85625    1.000
    C1342    C        0.93201    0.40381    0.85056    1.000
    C1343    C        0.94567    0.41792    0.86660    1.000
    H336     H        0.94660    0.41510    0.88370    1.000
    C1344    C        0.95843    0.43765    0.85384    1.000
    H337     H        0.96900    0.44890    0.86170    1.000
    C1345    C        0.95354    0.43821    0.82930    1.000
    C1346    C        0.96330    0.45571    0.81003    1.000
    C1347    C        0.84391    0.31007    0.79284    1.000
    C1348    C        0.82945    0.31327    0.76946    1.000
    C1349    C        0.80944    0.30013    0.76120    1.000
    H338     H        0.80270    0.28650    0.76950    1.000
    C1350    C        0.88468    0.24345    0.82705    1.000
    C1351    C        0.89101    0.22178    0.81055    1.000
    C1352    C        0.91352    0.21143    0.80704    1.000
    H339     H        0.92760    0.21600    0.81590    1.000
    C1353    C        0.95064    0.32184    0.89047    1.000
    C1354    C        0.97727    0.32721    0.89471    1.000
    C1355    C        0.98680    0.34720    0.90690    1.000
    H340     H        0.97710    0.35950    0.91440    1.000
    O884     O        0.86107    0.37189    0.81772    1.000
    S136     S        0.82120    0.40120    0.76566    1.000
    C1356    C        0.86420    0.39670    0.74370    1.000
    C1357    C        0.84610    0.39070    0.78270    1.000
    C1358    C        0.84030    0.37790    0.80890    1.000
    C1359    C        0.86790    0.39030    0.76620    1.000
    C1360    C        0.83850    0.40520    0.73940    1.000
    Zr137    Zr       0.59129    0.21244    0.36217    1.000
    Zr138    Zr       0.62043    0.16122    0.33279    1.000
    S137     S        0.56576    0.08554    0.32049    1.000
    O885     O        0.58529    0.12457    0.37880    1.000
    O886     O        0.59337    0.12884    0.33768    1.000
    O887     O        0.54231    0.04951    0.28807    1.000
    O888     O        0.52434    0.02587    0.31740    1.000
    O889     O        0.64089    0.17285    0.29785    1.000
    O890     O        0.66042    0.20939    0.30549    1.000
    O891     O        0.63740    0.24907    0.32708    1.000
    O892     O        0.59716    0.24779    0.33925    1.000
    O893     O        0.55463    0.19641    0.37684    1.000
    O894     O        0.56442    0.16299    0.40044    1.000
    O895     O        0.59843    0.17440    0.36168    1.000
    O896     O        0.61660    0.20276    0.33066    1.000
    C1361    C        0.58343    0.11815    0.35625    1.000
    C1362    C        0.56799    0.09619    0.35056    1.000
    C1363    C        0.55433    0.08208    0.36660    1.000
    H341     H        0.55340    0.08490    0.38370    1.000
    C1364    C        0.54157    0.06235    0.35384    1.000
    H342     H        0.53100    0.05110    0.36170    1.000
    C1365    C        0.54646    0.06179    0.32930    1.000
    C1366    C        0.53670    0.04429    0.31003    1.000
    C1367    C        0.65609    0.18993    0.29284    1.000
    C1368    C        0.67055    0.18673    0.26946    1.000
    C1369    C        0.69056    0.19987    0.26120    1.000
    H343     H        0.69730    0.21350    0.26950    1.000
    C1370    C        0.61532    0.25655    0.32705    1.000
    C1371    C        0.60899    0.27822    0.31055    1.000
    C1372    C        0.58648    0.28857    0.30704    1.000
    H344     H        0.57240    0.28400    0.31590    1.000
    C1373    C        0.54936    0.17816    0.39047    1.000
    C1374    C        0.52273    0.17279    0.39471    1.000
    C1375    C        0.51320    0.15280    0.40690    1.000
    H345     H        0.52290    0.14050    0.41440    1.000
    O897     O        0.63893    0.12811    0.31772    1.000
    S138     S        0.67880    0.09880    0.26566    1.000
    C1376    C        0.63580    0.10330    0.24370    1.000
    C1377    C        0.65390    0.10930    0.28270    1.000
    C1378    C        0.65970    0.12210    0.30890    1.000
    C1379    C        0.63210    0.10970    0.26620    1.000
    C1380    C        0.66150    0.09480    0.23940    1.000
    Zr139    Zr       0.09129    0.71244    0.86217    1.000
    Zr140    Zr       0.12043    0.66122    0.83279    1.000
    S139     S        0.06576    0.58554    0.82049    1.000
    O898     O        0.08529    0.62457    0.87880    1.000
    O899     O        0.09337    0.62884    0.83768    1.000
    O900     O        0.04231    0.54951    0.78807    1.000
    O901     O        0.02434    0.52587    0.81740    1.000
    O902     O        0.14089    0.67285    0.79785    1.000
    O903     O        0.16042    0.70939    0.80549    1.000
    O904     O        0.13740    0.74907    0.82708    1.000
    O905     O        0.09716    0.74779    0.83925    1.000
    O906     O        0.05463    0.69641    0.87684    1.000
    O907     O        0.06442    0.66299    0.90044    1.000
    O908     O        0.09843    0.67440    0.86168    1.000
    O909     O        0.11660    0.70276    0.83066    1.000
    C1381    C        0.08343    0.61815    0.85625    1.000
    C1382    C        0.06799    0.59619    0.85056    1.000
    C1383    C        0.05433    0.58208    0.86660    1.000
    H346     H        0.05340    0.58490    0.88370    1.000
    C1384    C        0.04157    0.56235    0.85384    1.000
    H347     H        0.03100    0.55110    0.86170    1.000
    C1385    C        0.04646    0.56179    0.82930    1.000
    C1386    C        0.03670    0.54429    0.81003    1.000
    C1387    C        0.15609    0.68993    0.79284    1.000
    C1388    C        0.17055    0.68673    0.76946    1.000
    C1389    C        0.19056    0.69987    0.76120    1.000
    H348     H        0.19730    0.71350    0.76950    1.000
    C1390    C        0.11532    0.75655    0.82705    1.000
    C1391    C        0.10899    0.77822    0.81055    1.000
    C1392    C        0.08648    0.78857    0.80704    1.000
    H349     H        0.07240    0.78400    0.81590    1.000
    C1393    C        0.04936    0.67816    0.89047    1.000
    C1394    C        0.02273    0.67279    0.89471    1.000
    C1395    C        0.01320    0.65280    0.90690    1.000
    H350     H        0.02290    0.64050    0.91440    1.000
    O910     O        0.13893    0.62811    0.81772    1.000
    S140     S        0.17880    0.59880    0.76566    1.000
    C1396    C        0.13580    0.60330    0.74370    1.000
    C1397    C        0.15390    0.60930    0.78270    1.000
    C1398    C        0.15970    0.62210    0.80890    1.000
    C1399    C        0.13210    0.60970    0.76620    1.000
    C1400    C        0.16150    0.59480    0.73940    1.000
    Zr141    Zr       0.40871    0.21244    0.63783    1.000
    Zr142    Zr       0.37957    0.16122    0.66721    1.000
    S141     S        0.43424    0.08554    0.67951    1.000
    O911     O        0.41471    0.12457    0.62120    1.000
    O912     O        0.40663    0.12884    0.66232    1.000
    O913     O        0.45769    0.04951    0.71193    1.000
    O914     O        0.47566    0.02587    0.68260    1.000
    O915     O        0.35911    0.17285    0.70215    1.000
    O916     O        0.33958    0.20939    0.69451    1.000
    O917     O        0.36260    0.24907    0.67292    1.000
    O918     O        0.40284    0.24779    0.66075    1.000
    O919     O        0.44537    0.19641    0.62316    1.000
    O920     O        0.43558    0.16299    0.59956    1.000
    O921     O        0.40157    0.17440    0.63832    1.000
    O922     O        0.38340    0.20276    0.66934    1.000
    C1401    C        0.41657    0.11815    0.64375    1.000
    C1402    C        0.43201    0.09619    0.64944    1.000
    C1403    C        0.44567    0.08208    0.63340    1.000
    H351     H        0.44660    0.08490    0.61630    1.000
    C1404    C        0.45843    0.06235    0.64616    1.000
    H352     H        0.46900    0.05110    0.63830    1.000
    C1405    C        0.45354    0.06179    0.67070    1.000
    C1406    C        0.46330    0.04429    0.68997    1.000
    C1407    C        0.34391    0.18993    0.70716    1.000
    C1408    C        0.32945    0.18673    0.73054    1.000
    C1409    C        0.30944    0.19987    0.73880    1.000
    H353     H        0.30270    0.21350    0.73050    1.000
    C1410    C        0.38468    0.25655    0.67295    1.000
    C1411    C        0.39101    0.27822    0.68945    1.000
    C1412    C        0.41352    0.28857    0.69296    1.000
    H354     H        0.42760    0.28400    0.68410    1.000
    C1413    C        0.45064    0.17816    0.60953    1.000
    C1414    C        0.47727    0.17279    0.60529    1.000
    C1415    C        0.48680    0.15280    0.59310    1.000
    H355     H        0.47710    0.14050    0.58560    1.000
    O923     O        0.36107    0.12811    0.68228    1.000
    S142     S        0.32120    0.09880    0.73434    1.000
    C1416    C        0.36420    0.10330    0.75630    1.000
    C1417    C        0.34610    0.10930    0.71730    1.000
    C1418    C        0.34030    0.12210    0.69110    1.000
    C1419    C        0.36790    0.10970    0.73380    1.000
    C1420    C        0.33850    0.09480    0.76060    1.000
    Zr143    Zr       0.90871    0.71244    0.13783    1.000
    Zr144    Zr       0.87957    0.66122    0.16721    1.000
    S143     S        0.93424    0.58554    0.17951    1.000
    O924     O        0.91471    0.62457    0.12120    1.000
    O925     O        0.90663    0.62884    0.16232    1.000
    O926     O        0.95769    0.54951    0.21193    1.000
    O927     O        0.97566    0.52587    0.18260    1.000
    O928     O        0.85911    0.67285    0.20215    1.000
    O929     O        0.83958    0.70939    0.19451    1.000
    O930     O        0.86260    0.74907    0.17292    1.000
    O931     O        0.90284    0.74779    0.16075    1.000
    O932     O        0.94537    0.69641    0.12316    1.000
    O933     O        0.93558    0.66299    0.09956    1.000
    O934     O        0.90157    0.67440    0.13832    1.000
    O935     O        0.88340    0.70276    0.16934    1.000
    C1421    C        0.91657    0.61815    0.14375    1.000
    C1422    C        0.93201    0.59619    0.14944    1.000
    C1423    C        0.94567    0.58208    0.13340    1.000
    H356     H        0.94660    0.58490    0.11630    1.000
    C1424    C        0.95843    0.56235    0.14616    1.000
    H357     H        0.96900    0.55110    0.13830    1.000
    C1425    C        0.95354    0.56179    0.17070    1.000
    C1426    C        0.96330    0.54429    0.18997    1.000
    C1427    C        0.84391    0.68993    0.20716    1.000
    C1428    C        0.82945    0.68673    0.23054    1.000
    C1429    C        0.80944    0.69987    0.23880    1.000
    H358     H        0.80270    0.71350    0.23050    1.000
    C1430    C        0.88468    0.75655    0.17295    1.000
    C1431    C        0.89101    0.77822    0.18945    1.000
    C1432    C        0.91352    0.78857    0.19296    1.000
    H359     H        0.92760    0.78400    0.18410    1.000
    C1433    C        0.95064    0.67816    0.10953    1.000
    C1434    C        0.97727    0.67279    0.10529    1.000
    C1435    C        0.98680    0.65280    0.09310    1.000
    H360     H        0.97710    0.64050    0.08560    1.000
    O936     O        0.86107    0.62811    0.18228    1.000
    S144     S        0.82120    0.59880    0.23434    1.000
    C1436    C        0.86420    0.60330    0.25630    1.000
    C1437    C        0.84610    0.60930    0.21730    1.000
    C1438    C        0.84030    0.62210    0.19110    1.000
    C1439    C        0.86790    0.60970    0.23380    1.000
    C1440    C        0.83850    0.59480    0.26060    1.000
    Zr145    Zr       0.59129    0.63783    0.21244    1.000
    Zr146    Zr       0.62043    0.66721    0.16122    1.000
    S145     S        0.56576    0.67951    0.08554    1.000
    O937     O        0.58529    0.62120    0.12457    1.000
    O938     O        0.59337    0.66232    0.12884    1.000
    O939     O        0.54231    0.71193    0.04951    1.000
    O940     O        0.52434    0.68260    0.02587    1.000
    O941     O        0.64089    0.70215    0.17285    1.000
    O942     O        0.66042    0.69451    0.20939    1.000
    O943     O        0.63740    0.67292    0.24907    1.000
    O944     O        0.59716    0.66075    0.24779    1.000
    O945     O        0.55463    0.62316    0.19641    1.000
    O946     O        0.56442    0.59956    0.16299    1.000
    O947     O        0.59843    0.63832    0.17440    1.000
    O948     O        0.61660    0.66934    0.20276    1.000
    C1441    C        0.58343    0.64375    0.11815    1.000
    C1442    C        0.56799    0.64944    0.09619    1.000
    C1443    C        0.55433    0.63340    0.08208    1.000
    H361     H        0.55340    0.61630    0.08490    1.000
    C1444    C        0.54157    0.64616    0.06235    1.000
    H362     H        0.53100    0.63830    0.05110    1.000
    C1445    C        0.54646    0.67070    0.06179    1.000
    C1446    C        0.53670    0.68997    0.04429    1.000
    C1447    C        0.65609    0.70716    0.18993    1.000
    C1448    C        0.67055    0.73054    0.18673    1.000
    C1449    C        0.69056    0.73880    0.19987    1.000
    H363     H        0.69730    0.73050    0.21350    1.000
    C1450    C        0.61532    0.67295    0.25655    1.000
    C1451    C        0.60899    0.68945    0.27822    1.000
    C1452    C        0.58648    0.69296    0.28857    1.000
    H364     H        0.57240    0.68410    0.28400    1.000
    C1453    C        0.54936    0.60953    0.17816    1.000
    C1454    C        0.52273    0.60529    0.17279    1.000
    C1455    C        0.51320    0.59310    0.15280    1.000
    H365     H        0.52290    0.58560    0.14050    1.000
    O949     O        0.63893    0.68228    0.12811    1.000
    S146     S        0.67880    0.73434    0.09880    1.000
    C1456    C        0.63580    0.75630    0.10330    1.000
    C1457    C        0.65390    0.71730    0.10930    1.000
    C1458    C        0.65970    0.69110    0.12210    1.000
    C1459    C        0.63210    0.73380    0.10970    1.000
    C1460    C        0.66150    0.76060    0.09480    1.000
    Zr147    Zr       0.09129    0.13783    0.71244    1.000
    Zr148    Zr       0.12043    0.16721    0.66122    1.000
    S147     S        0.06576    0.17951    0.58554    1.000
    O950     O        0.08529    0.12120    0.62457    1.000
    O951     O        0.09337    0.16232    0.62884    1.000
    O952     O        0.04231    0.21193    0.54951    1.000
    O953     O        0.02434    0.18260    0.52587    1.000
    O954     O        0.14089    0.20215    0.67285    1.000
    O955     O        0.16042    0.19451    0.70939    1.000
    O956     O        0.13740    0.17292    0.74907    1.000
    O957     O        0.09716    0.16075    0.74779    1.000
    O958     O        0.05463    0.12316    0.69641    1.000
    O959     O        0.06442    0.09956    0.66299    1.000
    O960     O        0.09843    0.13832    0.67440    1.000
    O961     O        0.11660    0.16934    0.70276    1.000
    C1461    C        0.08343    0.14375    0.61815    1.000
    C1462    C        0.06799    0.14944    0.59619    1.000
    C1463    C        0.05433    0.13340    0.58208    1.000
    H366     H        0.05340    0.11630    0.58490    1.000
    C1464    C        0.04157    0.14616    0.56235    1.000
    H367     H        0.03100    0.13830    0.55110    1.000
    C1465    C        0.04646    0.17070    0.56179    1.000
    C1466    C        0.03670    0.18997    0.54429    1.000
    C1467    C        0.15609    0.20716    0.68993    1.000
    C1468    C        0.17055    0.23054    0.68673    1.000
    C1469    C        0.19056    0.23880    0.69987    1.000
    H368     H        0.19730    0.23050    0.71350    1.000
    C1470    C        0.11532    0.17295    0.75655    1.000
    C1471    C        0.10899    0.18945    0.77822    1.000
    C1472    C        0.08648    0.19296    0.78857    1.000
    H369     H        0.07240    0.18410    0.78400    1.000
    C1473    C        0.04936    0.10953    0.67816    1.000
    C1474    C        0.02273    0.10529    0.67279    1.000
    C1475    C        0.01320    0.09310    0.65280    1.000
    H370     H        0.02290    0.08560    0.64050    1.000
    O962     O        0.13893    0.18228    0.62811    1.000
    S148     S        0.17880    0.23434    0.59880    1.000
    C1476    C        0.13580    0.25630    0.60330    1.000
    C1477    C        0.15390    0.21730    0.60930    1.000
    C1478    C        0.15970    0.19110    0.62210    1.000
    C1479    C        0.13210    0.23380    0.60970    1.000
    C1480    C        0.16150    0.26060    0.59480    1.000
    Zr149    Zr       0.40871    0.36217    0.21244    1.000
    Zr150    Zr       0.37957    0.33279    0.16122    1.000
    S149     S        0.43424    0.32049    0.08554    1.000
    O963     O        0.41471    0.37880    0.12457    1.000
    O964     O        0.40663    0.33768    0.12884    1.000
    O965     O        0.45769    0.28807    0.04951    1.000
    O966     O        0.47566    0.31740    0.02587    1.000
    O967     O        0.35911    0.29785    0.17285    1.000
    O968     O        0.33958    0.30549    0.20939    1.000
    O969     O        0.36260    0.32708    0.24907    1.000
    O970     O        0.40284    0.33925    0.24779    1.000
    O971     O        0.44537    0.37684    0.19641    1.000
    O972     O        0.43558    0.40044    0.16299    1.000
    O973     O        0.40157    0.36168    0.17440    1.000
    O974     O        0.38340    0.33066    0.20276    1.000
    C1481    C        0.41657    0.35625    0.11815    1.000
    C1482    C        0.43201    0.35056    0.09619    1.000
    C1483    C        0.44567    0.36660    0.08208    1.000
    H371     H        0.44660    0.38370    0.08490    1.000
    C1484    C        0.45843    0.35384    0.06235    1.000
    H372     H        0.46900    0.36170    0.05110    1.000
    C1485    C        0.45354    0.32930    0.06179    1.000
    C1486    C        0.46330    0.31003    0.04429    1.000
    C1487    C        0.34391    0.29284    0.18993    1.000
    C1488    C        0.32945    0.26946    0.18673    1.000
    C1489    C        0.30944    0.26120    0.19987    1.000
    H373     H        0.30270    0.26950    0.21350    1.000
    C1490    C        0.38468    0.32705    0.25655    1.000
    C1491    C        0.39101    0.31055    0.27822    1.000
    C1492    C        0.41352    0.30704    0.28857    1.000
    H374     H        0.42760    0.31590    0.28400    1.000
    C1493    C        0.45064    0.39047    0.17816    1.000
    C1494    C        0.47727    0.39471    0.17279    1.000
    C1495    C        0.48680    0.40690    0.15280    1.000
    H375     H        0.47710    0.41440    0.14050    1.000
    O975     O        0.36107    0.31772    0.12811    1.000
    S150     S        0.32120    0.26566    0.09880    1.000
    C1496    C        0.36420    0.24370    0.10330    1.000
    C1497    C        0.34610    0.28270    0.10930    1.000
    C1498    C        0.34030    0.30890    0.12210    1.000
    C1499    C        0.36790    0.26620    0.10970    1.000
    C1500    C        0.33850    0.23940    0.09480    1.000
    Zr151    Zr       0.90871    0.86217    0.71244    1.000
    Zr152    Zr       0.87957    0.83279    0.66122    1.000
    S151     S        0.93424    0.82049    0.58554    1.000
    O976     O        0.91471    0.87880    0.62457    1.000
    O977     O        0.90663    0.83768    0.62884    1.000
    O978     O        0.95769    0.78807    0.54951    1.000
    O979     O        0.97566    0.81740    0.52587    1.000
    O980     O        0.85911    0.79785    0.67285    1.000
    O981     O        0.83958    0.80549    0.70939    1.000
    O982     O        0.86260    0.82708    0.74907    1.000
    O983     O        0.90284    0.83925    0.74779    1.000
    O984     O        0.94537    0.87684    0.69641    1.000
    O985     O        0.93558    0.90044    0.66299    1.000
    O986     O        0.90157    0.86168    0.67440    1.000
    O987     O        0.88340    0.83066    0.70276    1.000
    C1501    C        0.91657    0.85625    0.61815    1.000
    C1502    C        0.93201    0.85056    0.59619    1.000
    C1503    C        0.94567    0.86660    0.58208    1.000
    H376     H        0.94660    0.88370    0.58490    1.000
    C1504    C        0.95843    0.85384    0.56235    1.000
    H377     H        0.96900    0.86170    0.55110    1.000
    C1505    C        0.95354    0.82930    0.56179    1.000
    C1506    C        0.96330    0.81003    0.54429    1.000
    C1507    C        0.84391    0.79284    0.68993    1.000
    C1508    C        0.82945    0.76946    0.68673    1.000
    C1509    C        0.80944    0.76120    0.69987    1.000
    H378     H        0.80270    0.76950    0.71350    1.000
    C1510    C        0.88468    0.82705    0.75655    1.000
    C1511    C        0.89101    0.81055    0.77822    1.000
    C1512    C        0.91352    0.80704    0.78857    1.000
    H379     H        0.92760    0.81590    0.78400    1.000
    C1513    C        0.95064    0.89047    0.67816    1.000
    C1514    C        0.97727    0.89471    0.67279    1.000
    C1515    C        0.98680    0.90690    0.65280    1.000
    H380     H        0.97710    0.91440    0.64050    1.000
    O988     O        0.86107    0.81772    0.62811    1.000
    S152     S        0.82120    0.76566    0.59880    1.000
    C1516    C        0.86420    0.74370    0.60330    1.000
    C1517    C        0.84610    0.78270    0.60930    1.000
    C1518    C        0.84030    0.80890    0.62210    1.000
    C1519    C        0.86790    0.76620    0.60970    1.000
    C1520    C        0.83850    0.73940    0.59480    1.000
    Zr153    Zr       0.59129    0.36217    0.78756    1.000
    Zr154    Zr       0.62043    0.33279    0.83878    1.000
    S153     S        0.56576    0.32049    0.91446    1.000
    O989     O        0.58529    0.37880    0.87543    1.000
    O990     O        0.59337    0.33768    0.87116    1.000
    O991     O        0.54231    0.28807    0.95049    1.000
    O992     O        0.52434    0.31740    0.97413    1.000
    O993     O        0.64089    0.29785    0.82715    1.000
    O994     O        0.66042    0.30549    0.79061    1.000
    O995     O        0.63740    0.32708    0.75093    1.000
    O996     O        0.59716    0.33925    0.75221    1.000
    O997     O        0.55463    0.37684    0.80359    1.000
    O998     O        0.56442    0.40044    0.83701    1.000
    O999     O        0.59843    0.36168    0.82560    1.000
    O1000    O        0.61660    0.33066    0.79724    1.000
    C1521    C        0.58343    0.35625    0.88185    1.000
    C1522    C        0.56799    0.35056    0.90381    1.000
    C1523    C        0.55433    0.36660    0.91792    1.000
    H381     H        0.55340    0.38370    0.91510    1.000
    C1524    C        0.54157    0.35384    0.93765    1.000
    H382     H        0.53100    0.36170    0.94890    1.000
    C1525    C        0.54646    0.32930    0.93821    1.000
    C1526    C        0.53670    0.31003    0.95571    1.000
    C1527    C        0.65609    0.29284    0.81007    1.000
    C1528    C        0.67055    0.26946    0.81327    1.000
    C1529    C        0.69056    0.26120    0.80013    1.000
    H383     H        0.69730    0.26950    0.78650    1.000
    C1530    C        0.61532    0.32705    0.74345    1.000
    C1531    C        0.60899    0.31055    0.72178    1.000
    C1532    C        0.58648    0.30704    0.71143    1.000
    H384     H        0.57240    0.31590    0.71600    1.000
    C1533    C        0.54936    0.39047    0.82184    1.000
    C1534    C        0.52273    0.39471    0.82721    1.000
    C1535    C        0.51320    0.40690    0.84720    1.000
    H385     H        0.52290    0.41440    0.85950    1.000
    O1001    O        0.63893    0.31772    0.87189    1.000
    S154     S        0.67880    0.26566    0.90120    1.000
    C1536    C        0.63580    0.24370    0.89670    1.000
    C1537    C        0.65390    0.28270    0.89070    1.000
    C1538    C        0.65970    0.30890    0.87790    1.000
    C1539    C        0.63210    0.26620    0.89030    1.000
    C1540    C        0.66150    0.23940    0.90520    1.000
    Zr155    Zr       0.09129    0.86217    0.28756    1.000
    Zr156    Zr       0.12043    0.83279    0.33878    1.000
    S155     S        0.06576    0.82049    0.41446    1.000
    O1002    O        0.08529    0.87880    0.37543    1.000
    O1003    O        0.09337    0.83768    0.37116    1.000
    O1004    O        0.04231    0.78807    0.45049    1.000
    O1005    O        0.02434    0.81740    0.47413    1.000
    O1006    O        0.14089    0.79785    0.32715    1.000
    O1007    O        0.16042    0.80549    0.29061    1.000
    O1008    O        0.13740    0.82708    0.25093    1.000
    O1009    O        0.09716    0.83925    0.25221    1.000
    O1010    O        0.05463    0.87684    0.30359    1.000
    O1011    O        0.06442    0.90044    0.33701    1.000
    O1012    O        0.09843    0.86168    0.32560    1.000
    O1013    O        0.11660    0.83066    0.29724    1.000
    C1541    C        0.08343    0.85625    0.38185    1.000
    C1542    C        0.06799    0.85056    0.40381    1.000
    C1543    C        0.05433    0.86660    0.41792    1.000
    H386     H        0.05340    0.88370    0.41510    1.000
    C1544    C        0.04157    0.85384    0.43765    1.000
    H387     H        0.03100    0.86170    0.44890    1.000
    C1545    C        0.04646    0.82930    0.43821    1.000
    C1546    C        0.03670    0.81003    0.45571    1.000
    C1547    C        0.15609    0.79284    0.31007    1.000
    C1548    C        0.17055    0.76946    0.31327    1.000
    C1549    C        0.19056    0.76120    0.30013    1.000
    H388     H        0.19730    0.76950    0.28650    1.000
    C1550    C        0.11532    0.82705    0.24345    1.000
    C1551    C        0.10899    0.81055    0.22178    1.000
    C1552    C        0.08648    0.80704    0.21143    1.000
    H389     H        0.07240    0.81590    0.21600    1.000
    C1553    C        0.04936    0.89047    0.32184    1.000
    C1554    C        0.02273    0.89471    0.32721    1.000
    C1555    C        0.01320    0.90690    0.34720    1.000
    H390     H        0.02290    0.91440    0.35950    1.000
    O1014    O        0.13893    0.81772    0.37189    1.000
    S156     S        0.17880    0.76566    0.40120    1.000
    C1556    C        0.13580    0.74370    0.39670    1.000
    C1557    C        0.15390    0.78270    0.39070    1.000
    C1558    C        0.15970    0.80890    0.37790    1.000
    C1559    C        0.13210    0.76620    0.39030    1.000
    C1560    C        0.16150    0.73940    0.40520    1.000
    Zr157    Zr       0.40871    0.63783    0.78756    1.000
    Zr158    Zr       0.37957    0.66721    0.83878    1.000
    S157     S        0.43424    0.67951    0.91446    1.000
    O1015    O        0.41471    0.62120    0.87543    1.000
    O1016    O        0.40663    0.66232    0.87116    1.000
    O1017    O        0.45769    0.71193    0.95049    1.000
    O1018    O        0.47566    0.68260    0.97413    1.000
    O1019    O        0.35911    0.70215    0.82715    1.000
    O1020    O        0.33958    0.69451    0.79061    1.000
    O1021    O        0.36260    0.67292    0.75093    1.000
    O1022    O        0.40284    0.66075    0.75221    1.000
    O1023    O        0.44537    0.62316    0.80359    1.000
    O1024    O        0.43558    0.59956    0.83701    1.000
    O1025    O        0.40157    0.63832    0.82560    1.000
    O1026    O        0.38340    0.66934    0.79724    1.000
    C1561    C        0.41657    0.64375    0.88185    1.000
    C1562    C        0.43201    0.64944    0.90381    1.000
    C1563    C        0.44567    0.63340    0.91792    1.000
    H391     H        0.44660    0.61630    0.91510    1.000
    C1564    C        0.45843    0.64616    0.93765    1.000
    H392     H        0.46900    0.63830    0.94890    1.000
    C1565    C        0.45354    0.67070    0.93821    1.000
    C1566    C        0.46330    0.68997    0.95571    1.000
    C1567    C        0.34391    0.70716    0.81007    1.000
    C1568    C        0.32945    0.73054    0.81327    1.000
    C1569    C        0.30944    0.73880    0.80013    1.000
    H393     H        0.30270    0.73050    0.78650    1.000
    C1570    C        0.38468    0.67295    0.74345    1.000
    C1571    C        0.39101    0.68945    0.72178    1.000
    C1572    C        0.41352    0.69296    0.71143    1.000
    H394     H        0.42760    0.68410    0.71600    1.000
    C1573    C        0.45064    0.60953    0.82184    1.000
    C1574    C        0.47727    0.60529    0.82721    1.000
    C1575    C        0.48680    0.59310    0.84720    1.000
    H395     H        0.47710    0.58560    0.85950    1.000
    O1027    O        0.36107    0.68228    0.87189    1.000
    S158     S        0.32120    0.73434    0.90120    1.000
    C1576    C        0.36420    0.75630    0.89670    1.000
    C1577    C        0.34610    0.71730    0.89070    1.000
    C1578    C        0.34030    0.69110    0.87790    1.000
    C1579    C        0.36790    0.73380    0.89030    1.000
    C1580    C        0.33850    0.76060    0.90520    1.000
    Zr159    Zr       0.90871    0.13783    0.28756    1.000
    Zr160    Zr       0.87957    0.16721    0.33878    1.000
    S159     S        0.93424    0.17951    0.41446    1.000
    O1028    O        0.91471    0.12120    0.37543    1.000
    O1029    O        0.90663    0.16232    0.37116    1.000
    O1030    O        0.95769    0.21193    0.45049    1.000
    O1031    O        0.97566    0.18260    0.47413    1.000
    O1032    O        0.85911    0.20215    0.32715    1.000
    O1033    O        0.83958    0.19451    0.29061    1.000
    O1034    O        0.86260    0.17292    0.25093    1.000
    O1035    O        0.90284    0.16075    0.25221    1.000
    O1036    O        0.94537    0.12316    0.30359    1.000
    O1037    O        0.93558    0.09956    0.33701    1.000
    O1038    O        0.90157    0.13832    0.32560    1.000
    O1039    O        0.88340    0.16934    0.29724    1.000
    C1581    C        0.91657    0.14375    0.38185    1.000
    C1582    C        0.93201    0.14944    0.40381    1.000
    C1583    C        0.94567    0.13340    0.41792    1.000
    H396     H        0.94660    0.11630    0.41510    1.000
    C1584    C        0.95843    0.14616    0.43765    1.000
    H397     H        0.96900    0.13830    0.44890    1.000
    C1585    C        0.95354    0.17070    0.43821    1.000
    C1586    C        0.96330    0.18997    0.45571    1.000
    C1587    C        0.84391    0.20716    0.31007    1.000
    C1588    C        0.82945    0.23054    0.31327    1.000
    C1589    C        0.80944    0.23880    0.30013    1.000
    H398     H        0.80270    0.23050    0.28650    1.000
    C1590    C        0.88468    0.17295    0.24345    1.000
    C1591    C        0.89101    0.18945    0.22178    1.000
    C1592    C        0.91352    0.19296    0.21143    1.000
    H399     H        0.92760    0.18410    0.21600    1.000
    C1593    C        0.95064    0.10953    0.32184    1.000
    C1594    C        0.97727    0.10529    0.32721    1.000
    C1595    C        0.98680    0.09310    0.34720    1.000
    H400     H        0.97710    0.08560    0.35950    1.000
    O1040    O        0.86107    0.18228    0.37189    1.000
    S160     S        0.82120    0.23434    0.40120    1.000
    C1596    C        0.86420    0.25630    0.39670    1.000
    C1597    C        0.84610    0.21730    0.39070    1.000
    C1598    C        0.84030    0.19110    0.37790    1.000
    C1599    C        0.86790    0.23380    0.39030    1.000
    C1600    C        0.83850    0.26060    0.40520    1.000
    Zr161    Zr       0.63783    0.78756    0.40871    1.000
    Zr162    Zr       0.66721    0.83878    0.37957    1.000
    S161     S        0.67951    0.91446    0.43424    1.000
    O1041    O        0.62120    0.87543    0.41471    1.000
    O1042    O        0.66232    0.87116    0.40663    1.000
    O1043    O        0.71193    0.95049    0.45769    1.000
    O1044    O        0.68260    0.97413    0.47566    1.000
    O1045    O        0.70215    0.82715    0.35911    1.000
    O1046    O        0.69451    0.79061    0.33958    1.000
    O1047    O        0.67292    0.75093    0.36260    1.000
    O1048    O        0.66075    0.75221    0.40284    1.000
    O1049    O        0.62316    0.80359    0.44537    1.000
    O1050    O        0.59956    0.83701    0.43558    1.000
    O1051    O        0.63832    0.82560    0.40157    1.000
    O1052    O        0.66934    0.79724    0.38340    1.000
    C1601    C        0.64375    0.88185    0.41657    1.000
    C1602    C        0.64944    0.90381    0.43201    1.000
    C1603    C        0.63340    0.91792    0.44567    1.000
    H401     H        0.61630    0.91510    0.44660    1.000
    C1604    C        0.64616    0.93765    0.45843    1.000
    H402     H        0.63830    0.94890    0.46900    1.000
    C1605    C        0.67070    0.93821    0.45354    1.000
    C1606    C        0.68997    0.95571    0.46330    1.000
    C1607    C        0.70716    0.81007    0.34391    1.000
    C1608    C        0.73054    0.81327    0.32945    1.000
    C1609    C        0.73880    0.80013    0.30944    1.000
    H403     H        0.73050    0.78650    0.30270    1.000
    C1610    C        0.67295    0.74345    0.38468    1.000
    C1611    C        0.68945    0.72178    0.39101    1.000
    C1612    C        0.69296    0.71143    0.41352    1.000
    H404     H        0.68410    0.71600    0.42760    1.000
    C1613    C        0.60953    0.82184    0.45064    1.000
    C1614    C        0.60529    0.82721    0.47727    1.000
    C1615    C        0.59310    0.84720    0.48680    1.000
    H405     H        0.58560    0.85950    0.47710    1.000
    O1053    O        0.68228    0.87189    0.36107    1.000
    S162     S        0.73434    0.90120    0.32120    1.000
    C1616    C        0.75630    0.89670    0.36420    1.000
    C1617    C        0.71730    0.89070    0.34610    1.000
    C1618    C        0.69110    0.87790    0.34030    1.000
    C1619    C        0.73380    0.89030    0.36790    1.000
    C1620    C        0.76060    0.90520    0.33850    1.000
    Zr163    Zr       0.13783    0.28756    0.90871    1.000
    Zr164    Zr       0.16721    0.33878    0.87957    1.000
    S163     S        0.17951    0.41446    0.93424    1.000
    O1054    O        0.12120    0.37543    0.91471    1.000
    O1055    O        0.16232    0.37116    0.90663    1.000
    O1056    O        0.21193    0.45049    0.95769    1.000
    O1057    O        0.18260    0.47413    0.97566    1.000
    O1058    O        0.20215    0.32715    0.85911    1.000
    O1059    O        0.19451    0.29061    0.83958    1.000
    O1060    O        0.17292    0.25093    0.86260    1.000
    O1061    O        0.16075    0.25221    0.90284    1.000
    O1062    O        0.12316    0.30359    0.94537    1.000
    O1063    O        0.09956    0.33701    0.93558    1.000
    O1064    O        0.13832    0.32560    0.90157    1.000
    O1065    O        0.16934    0.29724    0.88340    1.000
    C1621    C        0.14375    0.38185    0.91657    1.000
    C1622    C        0.14944    0.40381    0.93201    1.000
    C1623    C        0.13340    0.41792    0.94567    1.000
    H406     H        0.11630    0.41510    0.94660    1.000
    C1624    C        0.14616    0.43765    0.95843    1.000
    H407     H        0.13830    0.44890    0.96900    1.000
    C1625    C        0.17070    0.43821    0.95354    1.000
    C1626    C        0.18997    0.45571    0.96330    1.000
    C1627    C        0.20716    0.31007    0.84391    1.000
    C1628    C        0.23054    0.31327    0.82945    1.000
    C1629    C        0.23880    0.30013    0.80944    1.000
    H408     H        0.23050    0.28650    0.80270    1.000
    C1630    C        0.17295    0.24345    0.88468    1.000
    C1631    C        0.18945    0.22178    0.89101    1.000
    C1632    C        0.19296    0.21143    0.91352    1.000
    H409     H        0.18410    0.21600    0.92760    1.000
    C1633    C        0.10953    0.32184    0.95064    1.000
    C1634    C        0.10529    0.32721    0.97727    1.000
    C1635    C        0.09310    0.34720    0.98680    1.000
    H410     H        0.08560    0.35950    0.97710    1.000
    O1066    O        0.18228    0.37189    0.86107    1.000
    S164     S        0.23434    0.40120    0.82120    1.000
    C1636    C        0.25630    0.39670    0.86420    1.000
    C1637    C        0.21730    0.39070    0.84610    1.000
    C1638    C        0.19110    0.37790    0.84030    1.000
    C1639    C        0.23380    0.39030    0.86790    1.000
    C1640    C        0.26060    0.40520    0.83850    1.000
    Zr165    Zr       0.36217    0.78756    0.59129    1.000
    Zr166    Zr       0.33279    0.83878    0.62043    1.000
    S165     S        0.32049    0.91446    0.56576    1.000
    O1067    O        0.37880    0.87543    0.58529    1.000
    O1068    O        0.33768    0.87116    0.59337    1.000
    O1069    O        0.28807    0.95049    0.54231    1.000
    O1070    O        0.31740    0.97413    0.52434    1.000
    O1071    O        0.29785    0.82715    0.64089    1.000
    O1072    O        0.30549    0.79061    0.66042    1.000
    O1073    O        0.32708    0.75093    0.63740    1.000
    O1074    O        0.33925    0.75221    0.59716    1.000
    O1075    O        0.37684    0.80359    0.55463    1.000
    O1076    O        0.40044    0.83701    0.56442    1.000
    O1077    O        0.36168    0.82560    0.59843    1.000
    O1078    O        0.33066    0.79724    0.61660    1.000
    C1641    C        0.35625    0.88185    0.58343    1.000
    C1642    C        0.35056    0.90381    0.56799    1.000
    C1643    C        0.36660    0.91792    0.55433    1.000
    H411     H        0.38370    0.91510    0.55340    1.000
    C1644    C        0.35384    0.93765    0.54157    1.000
    H412     H        0.36170    0.94890    0.53100    1.000
    C1645    C        0.32930    0.93821    0.54646    1.000
    C1646    C        0.31003    0.95571    0.53670    1.000
    C1647    C        0.29284    0.81007    0.65609    1.000
    C1648    C        0.26946    0.81327    0.67055    1.000
    C1649    C        0.26120    0.80013    0.69056    1.000
    H413     H        0.26950    0.78650    0.69730    1.000
    C1650    C        0.32705    0.74345    0.61532    1.000
    C1651    C        0.31055    0.72178    0.60899    1.000
    C1652    C        0.30704    0.71143    0.58648    1.000
    H414     H        0.31590    0.71600    0.57240    1.000
    C1653    C        0.39047    0.82184    0.54936    1.000
    C1654    C        0.39471    0.82721    0.52273    1.000
    C1655    C        0.40690    0.84720    0.51320    1.000
    H415     H        0.41440    0.85950    0.52290    1.000
    O1079    O        0.31772    0.87189    0.63893    1.000
    S166     S        0.26566    0.90120    0.67880    1.000
    C1656    C        0.24370    0.89670    0.63580    1.000
    C1657    C        0.28270    0.89070    0.65390    1.000
    C1658    C        0.30890    0.87790    0.65970    1.000
    C1659    C        0.26620    0.89030    0.63210    1.000
    C1660    C        0.23940    0.90520    0.66150    1.000
    Zr167    Zr       0.86217    0.28756    0.09129    1.000
    Zr168    Zr       0.83279    0.33878    0.12043    1.000
    S167     S        0.82049    0.41446    0.06576    1.000
    O1080    O        0.87880    0.37543    0.08529    1.000
    O1081    O        0.83768    0.37116    0.09337    1.000
    O1082    O        0.78807    0.45049    0.04231    1.000
    O1083    O        0.81740    0.47413    0.02434    1.000
    O1084    O        0.79785    0.32715    0.14089    1.000
    O1085    O        0.80549    0.29061    0.16042    1.000
    O1086    O        0.82708    0.25093    0.13740    1.000
    O1087    O        0.83925    0.25221    0.09716    1.000
    O1088    O        0.87684    0.30359    0.05463    1.000
    O1089    O        0.90044    0.33701    0.06442    1.000
    O1090    O        0.86168    0.32560    0.09843    1.000
    O1091    O        0.83066    0.29724    0.11660    1.000
    C1661    C        0.85625    0.38185    0.08343    1.000
    C1662    C        0.85056    0.40381    0.06799    1.000
    C1663    C        0.86660    0.41792    0.05433    1.000
    H416     H        0.88370    0.41510    0.05340    1.000
    C1664    C        0.85384    0.43765    0.04157    1.000
    H417     H        0.86170    0.44890    0.03100    1.000
    C1665    C        0.82930    0.43821    0.04646    1.000
    C1666    C        0.81003    0.45571    0.03670    1.000
    C1667    C        0.79284    0.31007    0.15609    1.000
    C1668    C        0.76946    0.31327    0.17055    1.000
    C1669    C        0.76120    0.30013    0.19056    1.000
    H418     H        0.76950    0.28650    0.19730    1.000
    C1670    C        0.82705    0.24345    0.11532    1.000
    C1671    C        0.81055    0.22178    0.10899    1.000
    C1672    C        0.80704    0.21143    0.08648    1.000
    H419     H        0.81590    0.21600    0.07240    1.000
    C1673    C        0.89047    0.32184    0.04936    1.000
    C1674    C        0.89471    0.32721    0.02273    1.000
    C1675    C        0.90690    0.34720    0.01320    1.000
    H420     H        0.91440    0.35950    0.02290    1.000
    O1092    O        0.81772    0.37189    0.13893    1.000
    S168     S        0.76566    0.40120    0.17880    1.000
    C1676    C        0.74370    0.39670    0.13580    1.000
    C1677    C        0.78270    0.39070    0.15390    1.000
    C1678    C        0.80890    0.37790    0.15970    1.000
    C1679    C        0.76620    0.39030    0.13210    1.000
    C1680    C        0.73940    0.40520    0.16150    1.000
    Zr169    Zr       0.36217    0.21244    0.40871    1.000
    Zr170    Zr       0.33279    0.16122    0.37957    1.000
    S169     S        0.32049    0.08554    0.43424    1.000
    O1093    O        0.37880    0.12457    0.41471    1.000
    O1094    O        0.33768    0.12884    0.40663    1.000
    O1095    O        0.28807    0.04951    0.45769    1.000
    O1096    O        0.31740    0.02587    0.47566    1.000
    O1097    O        0.29785    0.17285    0.35911    1.000
    O1098    O        0.30549    0.20939    0.33958    1.000
    O1099    O        0.32708    0.24907    0.36260    1.000
    O1100    O        0.33925    0.24779    0.40284    1.000
    O1101    O        0.37684    0.19641    0.44537    1.000
    O1102    O        0.40044    0.16299    0.43558    1.000
    O1103    O        0.36168    0.17440    0.40157    1.000
    O1104    O        0.33066    0.20276    0.38340    1.000
    C1681    C        0.35625    0.11815    0.41657    1.000
    C1682    C        0.35056    0.09619    0.43201    1.000
    C1683    C        0.36660    0.08208    0.44567    1.000
    H421     H        0.38370    0.08490    0.44660    1.000
    C1684    C        0.35384    0.06235    0.45843    1.000
    H422     H        0.36170    0.05110    0.46900    1.000
    C1685    C        0.32930    0.06179    0.45354    1.000
    C1686    C        0.31003    0.04429    0.46330    1.000
    C1687    C        0.29284    0.18993    0.34391    1.000
    C1688    C        0.26946    0.18673    0.32945    1.000
    C1689    C        0.26120    0.19987    0.30944    1.000
    H423     H        0.26950    0.21350    0.30270    1.000
    C1690    C        0.32705    0.25655    0.38468    1.000
    C1691    C        0.31055    0.27822    0.39101    1.000
    C1692    C        0.30704    0.28857    0.41352    1.000
    H424     H        0.31590    0.28400    0.42760    1.000
    C1693    C        0.39047    0.17816    0.45064    1.000
    C1694    C        0.39471    0.17279    0.47727    1.000
    C1695    C        0.40690    0.15280    0.48680    1.000
    H425     H        0.41440    0.14050    0.47710    1.000
    O1105    O        0.31772    0.12811    0.36107    1.000
    S170     S        0.26566    0.09880    0.32120    1.000
    C1696    C        0.24370    0.10330    0.36420    1.000
    C1697    C        0.28270    0.10930    0.34610    1.000
    C1698    C        0.30890    0.12210    0.34030    1.000
    C1699    C        0.26620    0.10970    0.36790    1.000
    C1700    C        0.23940    0.09480    0.33850    1.000
    Zr171    Zr       0.86217    0.71244    0.90871    1.000
    Zr172    Zr       0.83279    0.66122    0.87957    1.000
    S171     S        0.82049    0.58554    0.93424    1.000
    O1106    O        0.87880    0.62457    0.91471    1.000
    O1107    O        0.83768    0.62884    0.90663    1.000
    O1108    O        0.78807    0.54951    0.95769    1.000
    O1109    O        0.81740    0.52587    0.97566    1.000
    O1110    O        0.79785    0.67285    0.85911    1.000
    O1111    O        0.80549    0.70939    0.83958    1.000
    O1112    O        0.82708    0.74907    0.86260    1.000
    O1113    O        0.83925    0.74779    0.90284    1.000
    O1114    O        0.87684    0.69641    0.94537    1.000
    O1115    O        0.90044    0.66299    0.93558    1.000
    O1116    O        0.86168    0.67440    0.90157    1.000
    O1117    O        0.83066    0.70276    0.88340    1.000
    C1701    C        0.85625    0.61815    0.91657    1.000
    C1702    C        0.85056    0.59619    0.93201    1.000
    C1703    C        0.86660    0.58208    0.94567    1.000
    H426     H        0.88370    0.58490    0.94660    1.000
    C1704    C        0.85384    0.56235    0.95843    1.000
    H427     H        0.86170    0.55110    0.96900    1.000
    C1705    C        0.82930    0.56179    0.95354    1.000
    C1706    C        0.81003    0.54429    0.96330    1.000
    C1707    C        0.79284    0.68993    0.84391    1.000
    C1708    C        0.76946    0.68673    0.82945    1.000
    C1709    C        0.76120    0.69987    0.80944    1.000
    H428     H        0.76950    0.71350    0.80270    1.000
    C1710    C        0.82705    0.75655    0.88468    1.000
    C1711    C        0.81055    0.77822    0.89101    1.000
    C1712    C        0.80704    0.78857    0.91352    1.000
    H429     H        0.81590    0.78400    0.92760    1.000
    C1713    C        0.89047    0.67816    0.95064    1.000
    C1714    C        0.89471    0.67279    0.97727    1.000
    C1715    C        0.90690    0.65280    0.98680    1.000
    H430     H        0.91440    0.64050    0.97710    1.000
    O1118    O        0.81772    0.62811    0.86107    1.000
    S172     S        0.76566    0.59880    0.82120    1.000
    C1716    C        0.74370    0.60330    0.86420    1.000
    C1717    C        0.78270    0.60930    0.84610    1.000
    C1718    C        0.80890    0.62210    0.84030    1.000
    C1719    C        0.76620    0.60970    0.86790    1.000
    C1720    C        0.73940    0.59480    0.83850    1.000
    Zr173    Zr       0.63783    0.21244    0.59129    1.000
    Zr174    Zr       0.66721    0.16122    0.62043    1.000
    S173     S        0.67951    0.08554    0.56576    1.000
    O1119    O        0.62120    0.12457    0.58529    1.000
    O1120    O        0.66232    0.12884    0.59337    1.000
    O1121    O        0.71193    0.04951    0.54231    1.000
    O1122    O        0.68260    0.02587    0.52434    1.000
    O1123    O        0.70215    0.17285    0.64089    1.000
    O1124    O        0.69451    0.20939    0.66042    1.000
    O1125    O        0.67292    0.24907    0.63740    1.000
    O1126    O        0.66075    0.24779    0.59716    1.000
    O1127    O        0.62316    0.19641    0.55463    1.000
    O1128    O        0.59956    0.16299    0.56442    1.000
    O1129    O        0.63832    0.17440    0.59843    1.000
    O1130    O        0.66934    0.20276    0.61660    1.000
    C1721    C        0.64375    0.11815    0.58343    1.000
    C1722    C        0.64944    0.09619    0.56799    1.000
    C1723    C        0.63340    0.08208    0.55433    1.000
    H431     H        0.61630    0.08490    0.55340    1.000
    C1724    C        0.64616    0.06235    0.54157    1.000
    H432     H        0.63830    0.05110    0.53100    1.000
    C1725    C        0.67070    0.06179    0.54646    1.000
    C1726    C        0.68997    0.04429    0.53670    1.000
    C1727    C        0.70716    0.18993    0.65609    1.000
    C1728    C        0.73054    0.18673    0.67055    1.000
    C1729    C        0.73880    0.19987    0.69056    1.000
    H433     H        0.73050    0.21350    0.69730    1.000
    C1730    C        0.67295    0.25655    0.61532    1.000
    C1731    C        0.68945    0.27822    0.60899    1.000
    C1732    C        0.69296    0.28857    0.58648    1.000
    H434     H        0.68410    0.28400    0.57240    1.000
    C1733    C        0.60953    0.17816    0.54936    1.000
    C1734    C        0.60529    0.17279    0.52273    1.000
    C1735    C        0.59310    0.15280    0.51320    1.000
    H435     H        0.58560    0.14050    0.52290    1.000
    O1131    O        0.68228    0.12811    0.63893    1.000
    S174     S        0.73434    0.09880    0.67880    1.000
    C1736    C        0.75630    0.10330    0.63580    1.000
    C1737    C        0.71730    0.10930    0.65390    1.000
    C1738    C        0.69110    0.12210    0.65970    1.000
    C1739    C        0.73380    0.10970    0.63210    1.000
    C1740    C        0.76060    0.09480    0.66150    1.000
    Zr175    Zr       0.13783    0.71244    0.09129    1.000
    Zr176    Zr       0.16721    0.66122    0.12043    1.000
    S175     S        0.17951    0.58554    0.06576    1.000
    O1132    O        0.12120    0.62457    0.08529    1.000
    O1133    O        0.16232    0.62884    0.09337    1.000
    O1134    O        0.21193    0.54951    0.04231    1.000
    O1135    O        0.18260    0.52587    0.02434    1.000
    O1136    O        0.20215    0.67285    0.14089    1.000
    O1137    O        0.19451    0.70939    0.16042    1.000
    O1138    O        0.17292    0.74907    0.13740    1.000
    O1139    O        0.16075    0.74779    0.09716    1.000
    O1140    O        0.12316    0.69641    0.05463    1.000
    O1141    O        0.09956    0.66299    0.06442    1.000
    O1142    O        0.13832    0.67440    0.09843    1.000
    O1143    O        0.16934    0.70276    0.11660    1.000
    C1741    C        0.14375    0.61815    0.08343    1.000
    C1742    C        0.14944    0.59619    0.06799    1.000
    C1743    C        0.13340    0.58208    0.05433    1.000
    H436     H        0.11630    0.58490    0.05340    1.000
    C1744    C        0.14616    0.56235    0.04157    1.000
    H437     H        0.13830    0.55110    0.03100    1.000
    C1745    C        0.17070    0.56179    0.04646    1.000
    C1746    C        0.18997    0.54429    0.03670    1.000
    C1747    C        0.20716    0.68993    0.15609    1.000
    C1748    C        0.23054    0.68673    0.17055    1.000
    C1749    C        0.23880    0.69987    0.19056    1.000
    H438     H        0.23050    0.71350    0.19730    1.000
    C1750    C        0.17295    0.75655    0.11532    1.000
    C1751    C        0.18945    0.77822    0.10899    1.000
    C1752    C        0.19296    0.78857    0.08648    1.000
    H439     H        0.18410    0.78400    0.07240    1.000
    C1753    C        0.10953    0.67816    0.04936    1.000
    C1754    C        0.10529    0.67279    0.02273    1.000
    C1755    C        0.09310    0.65280    0.01320    1.000
    H440     H        0.08560    0.64050    0.02290    1.000
    O1144    O        0.18228    0.62811    0.13893    1.000
    S176     S        0.23434    0.59880    0.17880    1.000
    C1756    C        0.25630    0.60330    0.13580    1.000
    C1757    C        0.21730    0.60930    0.15390    1.000
    C1758    C        0.19110    0.62210    0.15970    1.000
    C1759    C        0.23380    0.60970    0.13210    1.000
    C1760    C        0.26060    0.59480    0.16150    1.000
    Zr177    Zr       0.78756    0.59129    0.36217    1.000
    Zr178    Zr       0.83878    0.62043    0.33279    1.000
    S177     S        0.91446    0.56576    0.32049    1.000
    O1145    O        0.87543    0.58529    0.37880    1.000
    O1146    O        0.87116    0.59337    0.33768    1.000
    O1147    O        0.95049    0.54231    0.28807    1.000
    O1148    O        0.97413    0.52434    0.31740    1.000
    O1149    O        0.82715    0.64089    0.29785    1.000
    O1150    O        0.79061    0.66042    0.30549    1.000
    O1151    O        0.75093    0.63740    0.32708    1.000
    O1152    O        0.75221    0.59716    0.33925    1.000
    O1153    O        0.80359    0.55463    0.37684    1.000
    O1154    O        0.83701    0.56442    0.40044    1.000
    O1155    O        0.82560    0.59843    0.36168    1.000
    O1156    O        0.79724    0.61660    0.33066    1.000
    C1761    C        0.88185    0.58343    0.35625    1.000
    C1762    C        0.90381    0.56799    0.35056    1.000
    C1763    C        0.91792    0.55433    0.36660    1.000
    H441     H        0.91510    0.55340    0.38370    1.000
    C1764    C        0.93765    0.54157    0.35384    1.000
    H442     H        0.94890    0.53100    0.36170    1.000
    C1765    C        0.93821    0.54646    0.32930    1.000
    C1766    C        0.95571    0.53670    0.31003    1.000
    C1767    C        0.81007    0.65609    0.29284    1.000
    C1768    C        0.81327    0.67055    0.26946    1.000
    C1769    C        0.80013    0.69056    0.26120    1.000
    H443     H        0.78650    0.69730    0.26950    1.000
    C1770    C        0.74345    0.61532    0.32705    1.000
    C1771    C        0.72178    0.60899    0.31055    1.000
    C1772    C        0.71143    0.58648    0.30704    1.000
    H444     H        0.71600    0.57240    0.31590    1.000
    C1773    C        0.82184    0.54936    0.39047    1.000
    C1774    C        0.82721    0.52273    0.39471    1.000
    C1775    C        0.84720    0.51320    0.40690    1.000
    H445     H        0.85950    0.52290    0.41440    1.000
    O1157    O        0.87189    0.63893    0.31772    1.000
    S178     S        0.90120    0.67880    0.26566    1.000
    C1776    C        0.89670    0.63580    0.24370    1.000
    C1777    C        0.89070    0.65390    0.28270    1.000
    C1778    C        0.87790    0.65970    0.30890    1.000
    C1779    C        0.89030    0.63210    0.26620    1.000
    C1780    C        0.90520    0.66150    0.23940    1.000
    Zr179    Zr       0.28756    0.09129    0.86217    1.000
    Zr180    Zr       0.33878    0.12043    0.83279    1.000
    S179     S        0.41446    0.06576    0.82049    1.000
    O1158    O        0.37543    0.08529    0.87880    1.000
    O1159    O        0.37116    0.09337    0.83768    1.000
    O1160    O        0.45049    0.04231    0.78807    1.000
    O1161    O        0.47413    0.02434    0.81740    1.000
    O1162    O        0.32715    0.14089    0.79785    1.000
    O1163    O        0.29061    0.16042    0.80549    1.000
    O1164    O        0.25093    0.13740    0.82708    1.000
    O1165    O        0.25221    0.09716    0.83925    1.000
    O1166    O        0.30359    0.05463    0.87684    1.000
    O1167    O        0.33701    0.06442    0.90044    1.000
    O1168    O        0.32560    0.09843    0.86168    1.000
    O1169    O        0.29724    0.11660    0.83066    1.000
    C1781    C        0.38185    0.08343    0.85625    1.000
    C1782    C        0.40381    0.06799    0.85056    1.000
    C1783    C        0.41792    0.05433    0.86660    1.000
    H446     H        0.41510    0.05340    0.88370    1.000
    C1784    C        0.43765    0.04157    0.85384    1.000
    H447     H        0.44890    0.03100    0.86170    1.000
    C1785    C        0.43821    0.04646    0.82930    1.000
    C1786    C        0.45571    0.03670    0.81003    1.000
    C1787    C        0.31007    0.15609    0.79284    1.000
    C1788    C        0.31327    0.17055    0.76946    1.000
    C1789    C        0.30013    0.19056    0.76120    1.000
    H448     H        0.28650    0.19730    0.76950    1.000
    C1790    C        0.24345    0.11532    0.82705    1.000
    C1791    C        0.22178    0.10899    0.81055    1.000
    C1792    C        0.21143    0.08648    0.80704    1.000
    H449     H        0.21600    0.07240    0.81590    1.000
    C1793    C        0.32184    0.04936    0.89047    1.000
    C1794    C        0.32721    0.02273    0.89471    1.000
    C1795    C        0.34720    0.01320    0.90690    1.000
    H450     H        0.35950    0.02290    0.91440    1.000
    O1170    O        0.37189    0.13893    0.81772    1.000
    S180     S        0.40120    0.17880    0.76566    1.000
    C1796    C        0.39670    0.13580    0.74370    1.000
    C1797    C        0.39070    0.15390    0.78270    1.000
    C1798    C        0.37790    0.15970    0.80890    1.000
    C1799    C        0.39030    0.13210    0.76620    1.000
    C1800    C        0.40520    0.16150    0.73940    1.000
    Zr181    Zr       0.78756    0.40871    0.63783    1.000
    Zr182    Zr       0.83878    0.37957    0.66721    1.000
    S181     S        0.91446    0.43424    0.67951    1.000
    O1171    O        0.87543    0.41471    0.62120    1.000
    O1172    O        0.87116    0.40663    0.66232    1.000
    O1173    O        0.95049    0.45769    0.71193    1.000
    O1174    O        0.97413    0.47566    0.68260    1.000
    O1175    O        0.82715    0.35911    0.70215    1.000
    O1176    O        0.79061    0.33958    0.69451    1.000
    O1177    O        0.75093    0.36260    0.67292    1.000
    O1178    O        0.75221    0.40284    0.66075    1.000
    O1179    O        0.80359    0.44537    0.62316    1.000
    O1180    O        0.83701    0.43558    0.59956    1.000
    O1181    O        0.82560    0.40157    0.63832    1.000
    O1182    O        0.79724    0.38340    0.66934    1.000
    C1801    C        0.88185    0.41657    0.64375    1.000
    C1802    C        0.90381    0.43201    0.64944    1.000
    C1803    C        0.91792    0.44567    0.63340    1.000
    H451     H        0.91510    0.44660    0.61630    1.000
    C1804    C        0.93765    0.45843    0.64616    1.000
    H452     H        0.94890    0.46900    0.63830    1.000
    C1805    C        0.93821    0.45354    0.67070    1.000
    C1806    C        0.95571    0.46330    0.68997    1.000
    C1807    C        0.81007    0.34391    0.70716    1.000
    C1808    C        0.81327    0.32945    0.73054    1.000
    C1809    C        0.80013    0.30944    0.73880    1.000
    H453     H        0.78650    0.30270    0.73050    1.000
    C1810    C        0.74345    0.38468    0.67295    1.000
    C1811    C        0.72178    0.39101    0.68945    1.000
    C1812    C        0.71143    0.41352    0.69296    1.000
    H454     H        0.71600    0.42760    0.68410    1.000
    C1813    C        0.82184    0.45064    0.60953    1.000
    C1814    C        0.82721    0.47727    0.60529    1.000
    C1815    C        0.84720    0.48680    0.59310    1.000
    H455     H        0.85950    0.47710    0.58560    1.000
    O1183    O        0.87189    0.36107    0.68228    1.000
    S182     S        0.90120    0.32120    0.73434    1.000
    C1816    C        0.89670    0.36420    0.75630    1.000
    C1817    C        0.89070    0.34610    0.71730    1.000
    C1818    C        0.87790    0.34030    0.69110    1.000
    C1819    C        0.89030    0.36790    0.73380    1.000
    C1820    C        0.90520    0.33850    0.76060    1.000
    Zr183    Zr       0.28756    0.90871    0.13783    1.000
    Zr184    Zr       0.33878    0.87957    0.16721    1.000
    S183     S        0.41446    0.93424    0.17951    1.000
    O1184    O        0.37543    0.91471    0.12120    1.000
    O1185    O        0.37116    0.90663    0.16232    1.000
    O1186    O        0.45049    0.95769    0.21193    1.000
    O1187    O        0.47413    0.97566    0.18260    1.000
    O1188    O        0.32715    0.85911    0.20215    1.000
    O1189    O        0.29061    0.83958    0.19451    1.000
    O1190    O        0.25093    0.86260    0.17292    1.000
    O1191    O        0.25221    0.90284    0.16075    1.000
    O1192    O        0.30359    0.94537    0.12316    1.000
    O1193    O        0.33701    0.93558    0.09956    1.000
    O1194    O        0.32560    0.90157    0.13832    1.000
    O1195    O        0.29724    0.88340    0.16934    1.000
    C1821    C        0.38185    0.91657    0.14375    1.000
    C1822    C        0.40381    0.93201    0.14944    1.000
    C1823    C        0.41792    0.94567    0.13340    1.000
    H456     H        0.41510    0.94660    0.11630    1.000
    C1824    C        0.43765    0.95843    0.14616    1.000
    H457     H        0.44890    0.96900    0.13830    1.000
    C1825    C        0.43821    0.95354    0.17070    1.000
    C1826    C        0.45571    0.96330    0.18997    1.000
    C1827    C        0.31007    0.84391    0.20716    1.000
    C1828    C        0.31327    0.82945    0.23054    1.000
    C1829    C        0.30013    0.80944    0.23880    1.000
    H458     H        0.28650    0.80270    0.23050    1.000
    C1830    C        0.24345    0.88468    0.17295    1.000
    C1831    C        0.22178    0.89101    0.18945    1.000
    C1832    C        0.21143    0.91352    0.19296    1.000
    H459     H        0.21600    0.92760    0.18410    1.000
    C1833    C        0.32184    0.95064    0.10953    1.000
    C1834    C        0.32721    0.97727    0.10529    1.000
    C1835    C        0.34720    0.98680    0.09310    1.000
    H460     H        0.35950    0.97710    0.08560    1.000
    O1196    O        0.37189    0.86107    0.18228    1.000
    S184     S        0.40120    0.82120    0.23434    1.000
    C1836    C        0.39670    0.86420    0.25630    1.000
    C1837    C        0.39070    0.84610    0.21730    1.000
    C1838    C        0.37790    0.84030    0.19110    1.000
    C1839    C        0.39030    0.86790    0.23380    1.000
    C1840    C        0.40520    0.83850    0.26060    1.000
    Zr185    Zr       0.21244    0.59129    0.63783    1.000
    Zr186    Zr       0.16122    0.62043    0.66721    1.000
    S185     S        0.08554    0.56576    0.67951    1.000
    O1197    O        0.12457    0.58529    0.62120    1.000
    O1198    O        0.12884    0.59337    0.66232    1.000
    O1199    O        0.04951    0.54231    0.71193    1.000
    O1200    O        0.02587    0.52434    0.68260    1.000
    O1201    O        0.17285    0.64089    0.70215    1.000
    O1202    O        0.20939    0.66042    0.69451    1.000
    O1203    O        0.24907    0.63740    0.67292    1.000
    O1204    O        0.24779    0.59716    0.66075    1.000
    O1205    O        0.19641    0.55463    0.62316    1.000
    O1206    O        0.16299    0.56442    0.59956    1.000
    O1207    O        0.17440    0.59843    0.63832    1.000
    O1208    O        0.20276    0.61660    0.66934    1.000
    C1841    C        0.11815    0.58343    0.64375    1.000
    C1842    C        0.09619    0.56799    0.64944    1.000
    C1843    C        0.08208    0.55433    0.63340    1.000
    H461     H        0.08490    0.55340    0.61630    1.000
    C1844    C        0.06235    0.54157    0.64616    1.000
    H462     H        0.05110    0.53100    0.63830    1.000
    C1845    C        0.06179    0.54646    0.67070    1.000
    C1846    C        0.04429    0.53670    0.68997    1.000
    C1847    C        0.18993    0.65609    0.70716    1.000
    C1848    C        0.18673    0.67055    0.73054    1.000
    C1849    C        0.19987    0.69056    0.73880    1.000
    H463     H        0.21350    0.69730    0.73050    1.000
    C1850    C        0.25655    0.61532    0.67295    1.000
    C1851    C        0.27822    0.60899    0.68945    1.000
    C1852    C        0.28857    0.58648    0.69296    1.000
    H464     H        0.28400    0.57240    0.68410    1.000
    C1853    C        0.17816    0.54936    0.60953    1.000
    C1854    C        0.17279    0.52273    0.60529    1.000
    C1855    C        0.15280    0.51320    0.59310    1.000
    H465     H        0.14050    0.52290    0.58560    1.000
    O1209    O        0.12811    0.63893    0.68228    1.000
    S186     S        0.09880    0.67880    0.73434    1.000
    C1856    C        0.10330    0.63580    0.75630    1.000
    C1857    C        0.10930    0.65390    0.71730    1.000
    C1858    C        0.12210    0.65970    0.69110    1.000
    C1859    C        0.10970    0.63210    0.73380    1.000
    C1860    C        0.09480    0.66150    0.76060    1.000
    Zr187    Zr       0.71244    0.09129    0.13783    1.000
    Zr188    Zr       0.66122    0.12043    0.16721    1.000
    S187     S        0.58554    0.06576    0.17951    1.000
    O1210    O        0.62457    0.08529    0.12120    1.000
    O1211    O        0.62884    0.09337    0.16232    1.000
    O1212    O        0.54951    0.04231    0.21193    1.000
    O1213    O        0.52587    0.02434    0.18260    1.000
    O1214    O        0.67285    0.14089    0.20215    1.000
    O1215    O        0.70939    0.16042    0.19451    1.000
    O1216    O        0.74907    0.13740    0.17292    1.000
    O1217    O        0.74779    0.09716    0.16075    1.000
    O1218    O        0.69641    0.05463    0.12316    1.000
    O1219    O        0.66299    0.06442    0.09956    1.000
    O1220    O        0.67440    0.09843    0.13832    1.000
    O1221    O        0.70276    0.11660    0.16934    1.000
    C1861    C        0.61815    0.08343    0.14375    1.000
    C1862    C        0.59619    0.06799    0.14944    1.000
    C1863    C        0.58208    0.05433    0.13340    1.000
    H466     H        0.58490    0.05340    0.11630    1.000
    C1864    C        0.56235    0.04157    0.14616    1.000
    H467     H        0.55110    0.03100    0.13830    1.000
    C1865    C        0.56179    0.04646    0.17070    1.000
    C1866    C        0.54429    0.03670    0.18997    1.000
    C1867    C        0.68993    0.15609    0.20716    1.000
    C1868    C        0.68673    0.17055    0.23054    1.000
    C1869    C        0.69987    0.19056    0.23880    1.000
    H468     H        0.71350    0.19730    0.23050    1.000
    C1870    C        0.75655    0.11532    0.17295    1.000
    C1871    C        0.77822    0.10899    0.18945    1.000
    C1872    C        0.78857    0.08648    0.19296    1.000
    H469     H        0.78400    0.07240    0.18410    1.000
    C1873    C        0.67816    0.04936    0.10953    1.000
    C1874    C        0.67279    0.02273    0.10529    1.000
    C1875    C        0.65280    0.01320    0.09310    1.000
    H470     H        0.64050    0.02290    0.08560    1.000
    O1222    O        0.62811    0.13893    0.18228    1.000
    S188     S        0.59880    0.17880    0.23434    1.000
    C1876    C        0.60330    0.13580    0.25630    1.000
    C1877    C        0.60930    0.15390    0.21730    1.000
    C1878    C        0.62210    0.15970    0.19110    1.000
    C1879    C        0.60970    0.13210    0.23380    1.000
    C1880    C        0.59480    0.16150    0.26060    1.000
    Zr189    Zr       0.21244    0.40871    0.36217    1.000
    Zr190    Zr       0.16122    0.37957    0.33279    1.000
    S189     S        0.08554    0.43424    0.32049    1.000
    O1223    O        0.12457    0.41471    0.37880    1.000
    O1224    O        0.12884    0.40663    0.33768    1.000
    O1225    O        0.04951    0.45769    0.28807    1.000
    O1226    O        0.02587    0.47566    0.31740    1.000
    O1227    O        0.17285    0.35911    0.29785    1.000
    O1228    O        0.20939    0.33958    0.30549    1.000
    O1229    O        0.24907    0.36260    0.32708    1.000
    O1230    O        0.24779    0.40284    0.33925    1.000
    O1231    O        0.19641    0.44537    0.37684    1.000
    O1232    O        0.16299    0.43558    0.40044    1.000
    O1233    O        0.17440    0.40157    0.36168    1.000
    O1234    O        0.20276    0.38340    0.33066    1.000
    C1881    C        0.11815    0.41657    0.35625    1.000
    C1882    C        0.09619    0.43201    0.35056    1.000
    C1883    C        0.08208    0.44567    0.36660    1.000
    H471     H        0.08490    0.44660    0.38370    1.000
    C1884    C        0.06235    0.45843    0.35384    1.000
    H472     H        0.05110    0.46900    0.36170    1.000
    C1885    C        0.06179    0.45354    0.32930    1.000
    C1886    C        0.04429    0.46330    0.31003    1.000
    C1887    C        0.18993    0.34391    0.29284    1.000
    C1888    C        0.18673    0.32945    0.26946    1.000
    C1889    C        0.19987    0.30944    0.26120    1.000
    H473     H        0.21350    0.30270    0.26950    1.000
    C1890    C        0.25655    0.38468    0.32705    1.000
    C1891    C        0.27822    0.39101    0.31055    1.000
    C1892    C        0.28857    0.41352    0.30704    1.000
    H474     H        0.28400    0.42760    0.31590    1.000
    C1893    C        0.17816    0.45064    0.39047    1.000
    C1894    C        0.17279    0.47727    0.39471    1.000
    C1895    C        0.15280    0.48680    0.40690    1.000
    H475     H        0.14050    0.47710    0.41440    1.000
    O1235    O        0.12811    0.36107    0.31772    1.000
    S190     S        0.09880    0.32120    0.26566    1.000
    C1896    C        0.10330    0.36420    0.24370    1.000
    C1897    C        0.10930    0.34610    0.28270    1.000
    C1898    C        0.12210    0.34030    0.30890    1.000
    C1899    C        0.10970    0.36790    0.26620    1.000
    C1900    C        0.09480    0.33850    0.23940    1.000
    Zr191    Zr       0.71244    0.90871    0.86217    1.000
    Zr192    Zr       0.66122    0.87957    0.83279    1.000
    S191     S        0.58554    0.93424    0.82049    1.000
    O1236    O        0.62457    0.91471    0.87880    1.000
    O1237    O        0.62884    0.90663    0.83768    1.000
    O1238    O        0.54951    0.95769    0.78807    1.000
    O1239    O        0.52587    0.97566    0.81740    1.000
    O1240    O        0.67285    0.85911    0.79785    1.000
    O1241    O        0.70939    0.83958    0.80549    1.000
    O1242    O        0.74907    0.86260    0.82708    1.000
    O1243    O        0.74779    0.90284    0.83925    1.000
    O1244    O        0.69641    0.94537    0.87684    1.000
    O1245    O        0.66299    0.93558    0.90044    1.000
    O1246    O        0.67440    0.90157    0.86168    1.000
    O1247    O        0.70276    0.88340    0.83066    1.000
    C1901    C        0.61815    0.91657    0.85625    1.000
    C1902    C        0.59619    0.93201    0.85056    1.000
    C1903    C        0.58208    0.94567    0.86660    1.000
    H476     H        0.58490    0.94660    0.88370    1.000
    C1904    C        0.56235    0.95843    0.85384    1.000
    H477     H        0.55110    0.96900    0.86170    1.000
    C1905    C        0.56179    0.95354    0.82930    1.000
    C1906    C        0.54429    0.96330    0.81003    1.000
    C1907    C        0.68993    0.84391    0.79284    1.000
    C1908    C        0.68673    0.82945    0.76946    1.000
    C1909    C        0.69987    0.80944    0.76120    1.000
    H478     H        0.71350    0.80270    0.76950    1.000
    C1910    C        0.75655    0.88468    0.82705    1.000
    C1911    C        0.77822    0.89101    0.81055    1.000
    C1912    C        0.78857    0.91352    0.80704    1.000
    H479     H        0.78400    0.92760    0.81590    1.000
    C1913    C        0.67816    0.95064    0.89047    1.000
    C1914    C        0.67279    0.97727    0.89471    1.000
    C1915    C        0.65280    0.98680    0.90690    1.000
    H480     H        0.64050    0.97710    0.91440    1.000
    O1248    O        0.62811    0.86107    0.81772    1.000
    S192     S        0.59880    0.82120    0.76566    1.000
    C1916    C        0.60330    0.86420    0.74370    1.000
    C1917    C        0.60930    0.84610    0.78270    1.000
    C1918    C        0.62210    0.84030    0.80890    1.000
    C1919    C        0.60970    0.86790    0.76620    1.000
    C1920    C        0.59480    0.83850    0.73940    1.000
    Zr193    Zr       0.34568    0.34568    0.21607    1.000
    Zr194    Zr       0.39567    0.39567    0.15742    1.000
    O1249    O        0.37245    0.37245    0.22174    1.000
    O1250    O        0.40127    0.40127    0.20061    1.000
    O1251    O        0.34743    0.34743    0.17724    1.000
    O1252    O        0.36807    0.36807    0.14163    1.000
    O1253    O        0.31780    0.31780    0.11800    1.000
    Zr195    Zr       0.84568    0.84568    0.71607    1.000
    Zr196    Zr       0.89567    0.89567    0.65742    1.000
    O1254    O        0.87245    0.87245    0.72174    1.000
    O1255    O        0.90127    0.90127    0.70061    1.000
    O1256    O        0.84743    0.84743    0.67724    1.000
    O1257    O        0.86807    0.86807    0.64163    1.000
    O1258    O        0.81780    0.81780    0.61800    1.000
    Zr197    Zr       0.65432    0.65432    0.21607    1.000
    Zr198    Zr       0.60433    0.60433    0.15742    1.000
    O1259    O        0.62755    0.62755    0.22174    1.000
    O1260    O        0.59873    0.59873    0.20061    1.000
    O1261    O        0.65257    0.65257    0.17724    1.000
    O1262    O        0.63193    0.63193    0.14163    1.000
    O1263    O        0.68220    0.68220    0.11800    1.000
    Zr199    Zr       0.15432    0.15432    0.71607    1.000
    Zr200    Zr       0.10433    0.10433    0.65742    1.000
    O1264    O        0.12755    0.12755    0.72174    1.000
    O1265    O        0.09873    0.09873    0.70061    1.000
    O1266    O        0.15257    0.15257    0.67724    1.000
    O1267    O        0.13193    0.13193    0.64163    1.000
    O1268    O        0.18220    0.18220    0.61800    1.000
    Zr201    Zr       0.65432    0.34568    0.78393    1.000
    Zr202    Zr       0.60433    0.39567    0.84258    1.000
    O1269    O        0.62755    0.37245    0.77826    1.000
    O1270    O        0.59873    0.40127    0.79939    1.000
    O1271    O        0.65257    0.34743    0.82276    1.000
    O1272    O        0.63193    0.36807    0.85837    1.000
    O1273    O        0.68220    0.31780    0.88200    1.000
    Zr203    Zr       0.15432    0.84568    0.28393    1.000
    Zr204    Zr       0.10433    0.89567    0.34258    1.000
    O1274    O        0.12755    0.87245    0.27826    1.000
    O1275    O        0.09873    0.90127    0.29939    1.000
    O1276    O        0.15257    0.84743    0.32276    1.000
    O1277    O        0.13193    0.86807    0.35837    1.000
    O1278    O        0.18220    0.81780    0.38200    1.000
    Zr205    Zr       0.34568    0.65432    0.78393    1.000
    Zr206    Zr       0.39567    0.60433    0.84258    1.000
    O1279    O        0.37245    0.62755    0.77826    1.000
    O1280    O        0.40127    0.59873    0.79939    1.000
    O1281    O        0.34743    0.65257    0.82276    1.000
    O1282    O        0.36807    0.63193    0.85837    1.000
    O1283    O        0.31780    0.68220    0.88200    1.000
    Zr207    Zr       0.84568    0.15432    0.28393    1.000
    Zr208    Zr       0.89567    0.10433    0.34258    1.000
    O1284    O        0.87245    0.12755    0.27826    1.000
    O1285    O        0.90127    0.09873    0.29939    1.000
    O1286    O        0.84743    0.15257    0.32276    1.000
    O1287    O        0.86807    0.13193    0.35837    1.000
    O1288    O        0.81780    0.18220    0.38200    1.000
    Zr209    Zr       0.21607    0.34568    0.34568    1.000
    Zr210    Zr       0.15742    0.39567    0.39567    1.000
    O1289    O        0.22174    0.37245    0.37245    1.000
    O1290    O        0.20061    0.40127    0.40127    1.000
    O1291    O        0.17724    0.34743    0.34743    1.000
    O1292    O        0.14163    0.36807    0.36807    1.000
    O1293    O        0.11800    0.31780    0.31780    1.000
    Zr211    Zr       0.71607    0.84568    0.84568    1.000
    Zr212    Zr       0.65742    0.89567    0.89567    1.000
    O1294    O        0.72174    0.87245    0.87245    1.000
    O1295    O        0.70061    0.90127    0.90127    1.000
    O1296    O        0.67724    0.84743    0.84743    1.000
    O1297    O        0.64163    0.86807    0.86807    1.000
    O1298    O        0.61800    0.81780    0.81780    1.000
    Zr213    Zr       0.21607    0.65432    0.65432    1.000
    Zr214    Zr       0.15742    0.60433    0.60433    1.000
    O1299    O        0.22174    0.62755    0.62755    1.000
    O1300    O        0.20061    0.59873    0.59873    1.000
    O1301    O        0.17724    0.65257    0.65257    1.000
    O1302    O        0.14163    0.63193    0.63193    1.000
    O1303    O        0.11800    0.68220    0.68220    1.000
    Zr215    Zr       0.71607    0.15432    0.15432    1.000
    Zr216    Zr       0.65742    0.10433    0.10433    1.000
    O1304    O        0.72174    0.12755    0.12755    1.000
    O1305    O        0.70061    0.09873    0.09873    1.000
    O1306    O        0.67724    0.15257    0.15257    1.000
    O1307    O        0.64163    0.13193    0.13193    1.000
    O1308    O        0.61800    0.18220    0.18220    1.000
    Zr217    Zr       0.78393    0.65432    0.34568    1.000
    Zr218    Zr       0.84258    0.60433    0.39567    1.000
    O1309    O        0.77826    0.62755    0.37245    1.000
    O1310    O        0.79939    0.59873    0.40127    1.000
    O1311    O        0.82276    0.65257    0.34743    1.000
    O1312    O        0.85837    0.63193    0.36807    1.000
    O1313    O        0.88200    0.68220    0.31780    1.000
    Zr219    Zr       0.28393    0.15432    0.84568    1.000
    Zr220    Zr       0.34258    0.10433    0.89567    1.000
    O1314    O        0.27826    0.12755    0.87245    1.000
    O1315    O        0.29939    0.09873    0.90127    1.000
    O1316    O        0.32276    0.15257    0.84743    1.000
    O1317    O        0.35837    0.13193    0.86807    1.000
    O1318    O        0.38200    0.18220    0.81780    1.000
    Zr221    Zr       0.78393    0.34568    0.65432    1.000
    Zr222    Zr       0.84258    0.39567    0.60433    1.000
    O1319    O        0.77826    0.37245    0.62755    1.000
    O1320    O        0.79939    0.40127    0.59873    1.000
    O1321    O        0.82276    0.34743    0.65257    1.000
    O1322    O        0.85837    0.36807    0.63193    1.000
    O1323    O        0.88200    0.31780    0.68220    1.000
    Zr223    Zr       0.28393    0.84568    0.15432    1.000
    Zr224    Zr       0.34258    0.89567    0.10433    1.000
    O1324    O        0.27826    0.87245    0.12755    1.000
    O1325    O        0.29939    0.90127    0.09873    1.000
    O1326    O        0.32276    0.84743    0.15257    1.000
    O1327    O        0.35837    0.86807    0.13193    1.000
    O1328    O        0.38200    0.81780    0.18220    1.000
    Zr225    Zr       0.34568    0.21607    0.34568    1.000
    Zr226    Zr       0.39567    0.15742    0.39567    1.000
    O1329    O        0.37245    0.22174    0.37245    1.000
    O1330    O        0.40127    0.20061    0.40127    1.000
    O1331    O        0.34743    0.17724    0.34743    1.000
    O1332    O        0.36807    0.14163    0.36807    1.000
    O1333    O        0.31780    0.11800    0.31780    1.000
    Zr227    Zr       0.84568    0.71607    0.84568    1.000
    Zr228    Zr       0.89567    0.65742    0.89567    1.000
    O1334    O        0.87245    0.72174    0.87245    1.000
    O1335    O        0.90127    0.70061    0.90127    1.000
    O1336    O        0.84743    0.67724    0.84743    1.000
    O1337    O        0.86807    0.64163    0.86807    1.000
    O1338    O        0.81780    0.61800    0.81780    1.000
    Zr229    Zr       0.65432    0.21607    0.65432    1.000
    Zr230    Zr       0.60433    0.15742    0.60433    1.000
    O1339    O        0.62755    0.22174    0.62755    1.000
    O1340    O        0.59873    0.20061    0.59873    1.000
    O1341    O        0.65257    0.17724    0.65257    1.000
    O1342    O        0.63193    0.14163    0.63193    1.000
    O1343    O        0.68220    0.11800    0.68220    1.000
    Zr231    Zr       0.15432    0.71607    0.15432    1.000
    Zr232    Zr       0.10433    0.65742    0.10433    1.000
    O1344    O        0.12755    0.72174    0.12755    1.000
    O1345    O        0.09873    0.70061    0.09873    1.000
    O1346    O        0.15257    0.67724    0.15257    1.000
    O1347    O        0.13193    0.64163    0.13193    1.000
    O1348    O        0.18220    0.61800    0.18220    1.000
    Zr233    Zr       0.34568    0.78393    0.65432    1.000
    Zr234    Zr       0.39567    0.84258    0.60433    1.000
    O1349    O        0.37245    0.77826    0.62755    1.000
    O1350    O        0.40127    0.79939    0.59873    1.000
    O1351    O        0.34743    0.82276    0.65257    1.000
    O1352    O        0.36807    0.85837    0.63193    1.000
    O1353    O        0.31780    0.88200    0.68220    1.000
    Zr235    Zr       0.84568    0.28393    0.15432    1.000
    Zr236    Zr       0.89567    0.34258    0.10433    1.000
    O1354    O        0.87245    0.27826    0.12755    1.000
    O1355    O        0.90127    0.29939    0.09873    1.000
    O1356    O        0.84743    0.32276    0.15257    1.000
    O1357    O        0.86807    0.35837    0.13193    1.000
    O1358    O        0.81780    0.38200    0.18220    1.000
    Zr237    Zr       0.65432    0.78393    0.34568    1.000
    Zr238    Zr       0.60433    0.84258    0.39567    1.000
    O1359    O        0.62755    0.77826    0.37245    1.000
    O1360    O        0.59873    0.79939    0.40127    1.000
    O1361    O        0.65257    0.82276    0.34743    1.000
    O1362    O        0.63193    0.85837    0.36807    1.000
    O1363    O        0.68220    0.88200    0.31780    1.000
    Zr239    Zr       0.15432    0.28393    0.84568    1.000
    Zr240    Zr       0.10433    0.34258    0.89567    1.000
    O1364    O        0.12755    0.27826    0.87245    1.000
    O1365    O        0.09873    0.29939    0.90127    1.000
    O1366    O        0.15257    0.32276    0.84743    1.000
    O1367    O        0.13193    0.35837    0.86807    1.000
    O1368    O        0.18220    0.38200    0.81780    1.000
    Zr241    Zr       0.34568    0.34568    0.78393    1.000
    Zr242    Zr       0.39567    0.39567    0.84258    1.000
    O1369    O        0.37245    0.37245    0.77826    1.000
    O1370    O        0.40127    0.40127    0.79939    1.000
    O1371    O        0.34743    0.34743    0.82276    1.000
    O1372    O        0.36807    0.36807    0.85837    1.000
    O1373    O        0.31780    0.31780    0.88200    1.000
    Zr243    Zr       0.84568    0.84568    0.28393    1.000
    Zr244    Zr       0.89567    0.89567    0.34258    1.000
    O1374    O        0.87245    0.87245    0.27826    1.000
    O1375    O        0.90127    0.90127    0.29939    1.000
    O1376    O        0.84743    0.84743    0.32276    1.000
    O1377    O        0.86807    0.86807    0.35837    1.000
    O1378    O        0.81780    0.81780    0.38200    1.000
    Zr245    Zr       0.65432    0.65432    0.78393    1.000
    Zr246    Zr       0.60433    0.60433    0.84258    1.000
    O1379    O        0.62755    0.62755    0.77826    1.000
    O1380    O        0.59873    0.59873    0.79939    1.000
    O1381    O        0.65257    0.65257    0.82276    1.000
    O1382    O        0.63193    0.63193    0.85837    1.000
    O1383    O        0.68220    0.68220    0.88200    1.000
    Zr247    Zr       0.15432    0.15432    0.28393    1.000
    Zr248    Zr       0.10433    0.10433    0.34258    1.000
    O1384    O        0.12755    0.12755    0.27826    1.000
    O1385    O        0.09873    0.09873    0.29939    1.000
    O1386    O        0.15257    0.15257    0.32276    1.000
    O1387    O        0.13193    0.13193    0.35837    1.000
    O1388    O        0.18220    0.18220    0.38200    1.000
    Zr249    Zr       0.34568    0.65432    0.21607    1.000
    Zr250    Zr       0.39567    0.60433    0.15742    1.000
    O1389    O        0.37245    0.62755    0.22174    1.000
    O1390    O        0.40127    0.59873    0.20061    1.000
    O1391    O        0.34743    0.65257    0.17724    1.000
    O1392    O        0.36807    0.63193    0.14163    1.000
    O1393    O        0.31780    0.68220    0.11800    1.000
    Zr251    Zr       0.84568    0.15432    0.71607    1.000
    Zr252    Zr       0.89567    0.10433    0.65742    1.000
    O1394    O        0.87245    0.12755    0.72174    1.000
    O1395    O        0.90127    0.09873    0.70061    1.000
    O1396    O        0.84743    0.15257    0.67724    1.000
    O1397    O        0.86807    0.13193    0.64163    1.000
    O1398    O        0.81780    0.18220    0.61800    1.000
    Zr253    Zr       0.65432    0.34568    0.21607    1.000
    Zr254    Zr       0.60433    0.39567    0.15742    1.000
    O1399    O        0.62755    0.37245    0.22174    1.000
    O1400    O        0.59873    0.40127    0.20061    1.000
    O1401    O        0.65257    0.34743    0.17724    1.000
    O1402    O        0.63193    0.36807    0.14163    1.000
    O1403    O        0.68220    0.31780    0.11800    1.000
    Zr255    Zr       0.15432    0.84568    0.71607    1.000
    Zr256    Zr       0.10433    0.89567    0.65742    1.000
    O1404    O        0.12755    0.87245    0.72174    1.000
    O1405    O        0.09873    0.90127    0.70061    1.000
    O1406    O        0.15257    0.84743    0.67724    1.000
    O1407    O        0.13193    0.86807    0.64163    1.000
    O1408    O        0.18220    0.81780    0.61800    1.000
    Zr257    Zr       0.34568    0.21607    0.65432    1.000
    Zr258    Zr       0.39567    0.15742    0.60433    1.000
    O1409    O        0.37245    0.22174    0.62755    1.000
    O1410    O        0.40127    0.20061    0.59873    1.000
    O1411    O        0.34743    0.17724    0.65257    1.000
    O1412    O        0.36807    0.14163    0.63193    1.000
    O1413    O        0.31780    0.11800    0.68220    1.000
    Zr259    Zr       0.84568    0.71607    0.15432    1.000
    Zr260    Zr       0.89567    0.65742    0.10433    1.000
    O1414    O        0.87245    0.72174    0.12755    1.000
    O1415    O        0.90127    0.70061    0.09873    1.000
    O1416    O        0.84743    0.67724    0.15257    1.000
    O1417    O        0.86807    0.64163    0.13193    1.000
    O1418    O        0.81780    0.61800    0.18220    1.000
    Zr261    Zr       0.65432    0.21607    0.34568    1.000
    Zr262    Zr       0.60433    0.15742    0.39567    1.000
    O1419    O        0.62755    0.22174    0.37245    1.000
    O1420    O        0.59873    0.20061    0.40127    1.000
    O1421    O        0.65257    0.17724    0.34743    1.000
    O1422    O        0.63193    0.14163    0.36807    1.000
    O1423    O        0.68220    0.11800    0.31780    1.000
    Zr263    Zr       0.15432    0.71607    0.84568    1.000
    Zr264    Zr       0.10433    0.65742    0.89567    1.000
    O1424    O        0.12755    0.72174    0.87245    1.000
    O1425    O        0.09873    0.70061    0.90127    1.000
    O1426    O        0.15257    0.67724    0.84743    1.000
    O1427    O        0.13193    0.64163    0.86807    1.000
    O1428    O        0.18220    0.61800    0.81780    1.000
    Zr265    Zr       0.65432    0.78393    0.65432    1.000
    Zr266    Zr       0.60433    0.84258    0.60433    1.000
    O1429    O        0.62755    0.77826    0.62755    1.000
    O1430    O        0.59873    0.79939    0.59873    1.000
    O1431    O        0.65257    0.82276    0.65257    1.000
    O1432    O        0.63193    0.85837    0.63193    1.000
    O1433    O        0.68220    0.88200    0.68220    1.000
    Zr267    Zr       0.15432    0.28393    0.15432    1.000
    Zr268    Zr       0.10433    0.34258    0.10433    1.000
    O1434    O        0.12755    0.27826    0.12755    1.000
    O1435    O        0.09873    0.29939    0.09873    1.000
    O1436    O        0.15257    0.32276    0.15257    1.000
    O1437    O        0.13193    0.35837    0.13193    1.000
    O1438    O        0.18220    0.38200    0.18220    1.000
    Zr269    Zr       0.34568    0.78393    0.34568    1.000
    Zr270    Zr       0.39567    0.84258    0.39567    1.000
    O1439    O        0.37245    0.77826    0.37245    1.000
    O1440    O        0.40127    0.79939    0.40127    1.000
    O1441    O        0.34743    0.82276    0.34743    1.000
    O1442    O        0.36807    0.85837    0.36807    1.000
    O1443    O        0.31780    0.88200    0.31780    1.000
    Zr271    Zr       0.84568    0.28393    0.84568    1.000
    Zr272    Zr       0.89567    0.34258    0.89567    1.000
    O1444    O        0.87245    0.27826    0.87245    1.000
    O1445    O        0.90127    0.29939    0.90127    1.000
    O1446    O        0.84743    0.32276    0.84743    1.000
    O1447    O        0.86807    0.35837    0.86807    1.000
    O1448    O        0.81780    0.38200    0.81780    1.000
    Zr273    Zr       0.21607    0.34568    0.65432    1.000
    Zr274    Zr       0.15742    0.39567    0.60433    1.000
    O1449    O        0.22174    0.37245    0.62755    1.000
    O1450    O        0.20061    0.40127    0.59873    1.000
    O1451    O        0.17724    0.34743    0.65257    1.000
    O1452    O        0.14163    0.36807    0.63193    1.000
    O1453    O        0.11800    0.31780    0.68220    1.000
    Zr275    Zr       0.71607    0.84568    0.15432    1.000
    Zr276    Zr       0.65742    0.89567    0.10433    1.000
    O1454    O        0.72174    0.87245    0.12755    1.000
    O1455    O        0.70061    0.90127    0.09873    1.000
    O1456    O        0.67724    0.84743    0.15257    1.000
    O1457    O        0.64163    0.86807    0.13193    1.000
    O1458    O        0.61800    0.81780    0.18220    1.000
    Zr277    Zr       0.21607    0.65432    0.34568    1.000
    Zr278    Zr       0.15742    0.60433    0.39567    1.000
    O1459    O        0.22174    0.62755    0.37245    1.000
    O1460    O        0.20061    0.59873    0.40127    1.000
    O1461    O        0.17724    0.65257    0.34743    1.000
    O1462    O        0.14163    0.63193    0.36807    1.000
    O1463    O        0.11800    0.68220    0.31780    1.000
    Zr279    Zr       0.71607    0.15432    0.84568    1.000
    Zr280    Zr       0.65742    0.10433    0.89567    1.000
    O1464    O        0.72174    0.12755    0.87245    1.000
    O1465    O        0.70061    0.09873    0.90127    1.000
    O1466    O        0.67724    0.15257    0.84743    1.000
    O1467    O        0.64163    0.13193    0.86807    1.000
    O1468    O        0.61800    0.18220    0.81780    1.000
    Zr281    Zr       0.78393    0.34568    0.34568    1.000
    Zr282    Zr       0.84258    0.39567    0.39567    1.000
    O1469    O        0.77826    0.37245    0.37245    1.000
    O1470    O        0.79939    0.40127    0.40127    1.000
    O1471    O        0.82276    0.34743    0.34743    1.000
    O1472    O        0.85837    0.36807    0.36807    1.000
    O1473    O        0.88200    0.31780    0.31780    1.000
    Zr283    Zr       0.28393    0.84568    0.84568    1.000
    Zr284    Zr       0.34258    0.89567    0.89567    1.000
    O1474    O        0.27826    0.87245    0.87245    1.000
    O1475    O        0.29939    0.90127    0.90127    1.000
    O1476    O        0.32276    0.84743    0.84743    1.000
    O1477    O        0.35837    0.86807    0.86807    1.000
    O1478    O        0.38200    0.81780    0.81780    1.000
    Zr285    Zr       0.78393    0.65432    0.65432    1.000
    Zr286    Zr       0.84258    0.60433    0.60433    1.000
    O1479    O        0.77826    0.62755    0.62755    1.000
    O1480    O        0.79939    0.59873    0.59873    1.000
    O1481    O        0.82276    0.65257    0.65257    1.000
    O1482    O        0.85837    0.63193    0.63193    1.000
    O1483    O        0.88200    0.68220    0.68220    1.000
    Zr287    Zr       0.28393    0.15432    0.15432    1.000
    Zr288    Zr       0.34258    0.10433    0.10433    1.000
    O1484    O        0.27826    0.12755    0.12755    1.000
    O1485    O        0.29939    0.09873    0.09873    1.000
    O1486    O        0.32276    0.15257    0.15257    1.000
    O1487    O        0.35837    0.13193    0.13193    1.000
    O1488    O        0.38200    0.18220    0.18220    1.000
    Zr289    Zr       0.25000    0.46703    0.03297    1.000
    S193     S        0.25000    0.33723    0.16277    1.000
    Zr290    Zr       0.75000    0.53297    0.03297    1.000
    S194     S        0.75000    0.66277    0.16277    1.000
    Zr291    Zr       0.75000    0.46703    0.96703    1.000
    S195     S        0.75000    0.33723    0.83723    1.000
    Zr292    Zr       0.25000    0.53297    0.96703    1.000
    S196     S        0.25000    0.66277    0.83723    1.000
    Zr293    Zr       0.03297    0.25000    0.46703    1.000
    S197     S        0.16277    0.25000    0.33723    1.000
    Zr294    Zr       0.03297    0.75000    0.53297    1.000
    S198     S        0.16277    0.75000    0.66277    1.000
    Zr295    Zr       0.96703    0.75000    0.46703    1.000
    S199     S        0.83723    0.75000    0.33723    1.000
    Zr296    Zr       0.96703    0.25000    0.53297    1.000
    S200     S        0.83723    0.25000    0.66277    1.000
    Zr297    Zr       0.46703    0.03297    0.25000    1.000
    S201     S        0.33723    0.16277    0.25000    1.000
    Zr298    Zr       0.53297    0.03297    0.75000    1.000
    S202     S        0.66277    0.16277    0.75000    1.000
    Zr299    Zr       0.46703    0.96703    0.75000    1.000
    S203     S        0.33723    0.83723    0.75000    1.000
    Zr300    Zr       0.53297    0.96703    0.25000    1.000
    S204     S        0.66277    0.83723    0.25000    1.000
    Zr301    Zr       0.46703    0.25000    0.96703    1.000
    S205     S        0.33723    0.25000    0.83723    1.000
    Zr302    Zr       0.53297    0.75000    0.96703    1.000
    S206     S        0.66277    0.75000    0.83723    1.000
    Zr303    Zr       0.46703    0.75000    0.03297    1.000
    S207     S        0.33723    0.75000    0.16277    1.000
    Zr304    Zr       0.53297    0.25000    0.03297    1.000
    S208     S        0.66277    0.25000    0.16277    1.000
    Zr305    Zr       0.25000    0.03297    0.53297    1.000
    S209     S        0.25000    0.16277    0.66277    1.000
    Zr306    Zr       0.75000    0.03297    0.46703    1.000
    S210     S        0.75000    0.16277    0.33723    1.000
    Zr307    Zr       0.75000    0.96703    0.53297    1.000
    S211     S        0.75000    0.83723    0.66277    1.000
    Zr308    Zr       0.25000    0.96703    0.46703    1.000
    S212     S        0.25000    0.83723    0.33723    1.000
    Zr309    Zr       0.03297    0.46703    0.75000    1.000
    S213     S        0.16277    0.33723    0.75000    1.000
    Zr310    Zr       0.03297    0.53297    0.25000    1.000
    S214     S        0.16277    0.66277    0.25000    1.000
    Zr311    Zr       0.96703    0.46703    0.25000    1.000
    S215     S        0.83723    0.33723    0.25000    1.000
    Zr312    Zr       0.96703    0.53297    0.75000    1.000
    S216     S        0.83723    0.66277    0.75000    1.000
    Zr313    Zr       0.75000    0.53297    0.96703    1.000
    S217     S        0.75000    0.66277    0.83723    1.000
    Zr314    Zr       0.25000    0.03297    0.46703    1.000
    S218     S        0.25000    0.16277    0.33723    1.000
    Zr315    Zr       0.25000    0.46703    0.96703    1.000
    S219     S        0.25000    0.33723    0.83723    1.000
    Zr316    Zr       0.25000    0.53297    0.03297    1.000
    S220     S        0.25000    0.66277    0.16277    1.000
    Zr317    Zr       0.75000    0.46703    0.03297    1.000
    S221     S        0.75000    0.33723    0.16277    1.000
    Zr318    Zr       0.96703    0.75000    0.53297    1.000
    S222     S        0.83723    0.75000    0.66277    1.000
    Zr319    Zr       0.46703    0.25000    0.03297    1.000
    S223     S        0.33723    0.25000    0.16277    1.000
    Zr320    Zr       0.96703    0.25000    0.46703    1.000
    S224     S        0.83723    0.25000    0.33723    1.000
    Zr321    Zr       0.03297    0.25000    0.53297    1.000
    S225     S        0.16277    0.25000    0.66277    1.000
    Zr322    Zr       0.03297    0.75000    0.46703    1.000
    S226     S        0.16277    0.75000    0.33723    1.000
    Zr323    Zr       0.53297    0.96703    0.75000    1.000
    S227     S        0.66277    0.83723    0.75000    1.000
    Zr324    Zr       0.03297    0.46703    0.25000    1.000
    S228     S        0.16277    0.33723    0.25000    1.000
    Zr325    Zr       0.46703    0.96703    0.25000    1.000
    S229     S        0.33723    0.83723    0.25000    1.000
    Zr326    Zr       0.53297    0.03297    0.25000    1.000
    S230     S        0.66277    0.16277    0.25000    1.000
    Zr327    Zr       0.46703    0.03297    0.75000    1.000
    S231     S        0.33723    0.16277    0.75000    1.000
    Zr328    Zr       0.53297    0.75000    0.03297    1.000
    S232     S        0.66277    0.75000    0.16277    1.000
    Zr329    Zr       0.53297    0.25000    0.96703    1.000
    S233     S        0.66277    0.25000    0.83723    1.000
    Zr330    Zr       0.46703    0.75000    0.96703    1.000
    S234     S        0.33723    0.75000    0.83723    1.000
    Zr331    Zr       0.75000    0.96703    0.46703    1.000
    S235     S        0.75000    0.83723    0.33723    1.000
    Zr332    Zr       0.25000    0.96703    0.53297    1.000
    S236     S        0.25000    0.83723    0.66277    1.000
    Zr333    Zr       0.75000    0.03297    0.53297    1.000
    S237     S        0.75000    0.16277    0.66277    1.000
    Zr334    Zr       0.96703    0.53297    0.25000    1.000
    S238     S        0.83723    0.66277    0.25000    1.000
    Zr335    Zr       0.96703    0.46703    0.75000    1.000
    S239     S        0.83723    0.33723    0.75000    1.000
    Zr336    Zr       0.03297    0.53297    0.75000    1.000
    S240     S        0.16277    0.66277    0.75000    1.000
    Zr337    Zr       0.29596    0.50000    0.00000    1.000
    Zr338    Zr       0.79596    0.00000    0.50000    1.000
    Zr339    Zr       0.70404    0.50000    0.00000    1.000
    Zr340    Zr       0.20404    0.00000    0.50000    1.000
    Zr341    Zr       0.00000    0.29596    0.50000    1.000
    Zr342    Zr       0.50000    0.79596    0.00000    1.000
    Zr343    Zr       0.00000    0.70404    0.50000    1.000
    Zr344    Zr       0.50000    0.20404    0.00000    1.000
    Zr345    Zr       0.50000    0.00000    0.29596    1.000
    Zr346    Zr       0.00000    0.50000    0.79596    1.000
    Zr347    Zr       0.50000    0.00000    0.70404    1.000
    Zr348    Zr       0.00000    0.50000    0.20404    1.000
    Zr349    Zr       0.50000    0.29596    0.00000    1.000
    Zr350    Zr       0.00000    0.79596    0.50000    1.000
    Zr351    Zr       0.50000    0.70404    0.00000    1.000
    Zr352    Zr       0.00000    0.20404    0.50000    1.000
    Zr353    Zr       0.29596    0.00000    0.50000    1.000
    Zr354    Zr       0.79596    0.50000    0.00000    1.000
    Zr355    Zr       0.70404    0.00000    0.50000    1.000
    Zr356    Zr       0.20404    0.50000    0.00000    1.000
    Zr357    Zr       0.00000    0.50000    0.70404    1.000
    Zr358    Zr       0.50000    0.00000    0.20404    1.000
    Zr359    Zr       0.00000    0.50000    0.29596    1.000
    Zr360    Zr       0.50000    0.00000    0.79596    1.000
    S241     S        0.29068    0.36918    0.29068    1.000
    S242     S        0.79068    0.86918    0.79068    1.000
    S243     S        0.70932    0.63082    0.29068    1.000
    S244     S        0.20932    0.13082    0.79068    1.000
    S245     S        0.70932    0.36918    0.70932    1.000
    S246     S        0.20932    0.86918    0.20932    1.000
    S247     S        0.29068    0.63082    0.70932    1.000
    S248     S        0.79068    0.13082    0.20932    1.000
    S249     S        0.29068    0.29068    0.36918    1.000
    S250     S        0.79068    0.79068    0.86918    1.000
    S251     S        0.29068    0.70932    0.63082    1.000
    S252     S        0.79068    0.20932    0.13082    1.000
    S253     S        0.70932    0.70932    0.36918    1.000
    S254     S        0.20932    0.20932    0.86918    1.000
    S255     S        0.70932    0.29068    0.63082    1.000
    S256     S        0.20932    0.79068    0.13082    1.000
    S257     S        0.36918    0.29068    0.29068    1.000
    S258     S        0.86918    0.79068    0.79068    1.000
    S259     S        0.63082    0.29068    0.70932    1.000
    S260     S        0.13082    0.79068    0.20932    1.000
    S261     S        0.36918    0.70932    0.70932    1.000
    S262     S        0.86918    0.20932    0.20932    1.000
    S263     S        0.63082    0.70932    0.29068    1.000
    S264     S        0.13082    0.20932    0.79068    1.000
    S265     S        0.36918    0.29068    0.70932    1.000
    S266     S        0.86918    0.79068    0.20932    1.000
    S267     S        0.63082    0.70932    0.70932    1.000
    S268     S        0.13082    0.20932    0.20932    1.000
    S269     S        0.36918    0.70932    0.29068    1.000
    S270     S        0.86918    0.20932    0.79068    1.000
    S271     S        0.63082    0.29068    0.29068    1.000
    S272     S        0.13082    0.79068    0.79068    1.000
    S273     S        0.29068    0.29068    0.63082    1.000
    S274     S        0.79068    0.79068    0.13082    1.000
    S275     S        0.70932    0.29068    0.36918    1.000
    S276     S        0.20932    0.79068    0.86918    1.000
    S277     S        0.70932    0.70932    0.63082    1.000
    S278     S        0.20932    0.20932    0.13082    1.000
    S279     S        0.29068    0.70932    0.36918    1.000
    S280     S        0.79068    0.20932    0.86918    1.000
    S281     S        0.29068    0.36918    0.70932    1.000
    S282     S        0.79068    0.86918    0.20932    1.000
    S283     S        0.29068    0.63082    0.29068    1.000
    S284     S        0.79068    0.13082    0.79068    1.000
    S285     S        0.70932    0.36918    0.29068    1.000
    S286     S        0.20932    0.86918    0.79068    1.000
    S287     S        0.70932    0.63082    0.70932    1.000
    S288     S        0.20932    0.13082    0.20932    1.000
    S289     S        0.38324    0.50000    0.19185    1.000
    O1489    O        0.26961    0.50000    0.02802    1.000
    S290     S        0.88324    0.00000    0.69185    1.000
    O1490    O        0.76961    0.00000    0.52802    1.000
    S291     S        0.61676    0.50000    0.19185    1.000
    O1491    O        0.73039    0.50000    0.02802    1.000
    S292     S        0.11676    0.00000    0.69185    1.000
    O1492    O        0.23039    0.00000    0.52802    1.000
    S293     S        0.61676    0.50000    0.80815    1.000
    O1493    O        0.73039    0.50000    0.97198    1.000
    S294     S        0.11676    0.00000    0.30815    1.000
    O1494    O        0.23039    0.00000    0.47198    1.000
    S295     S        0.38324    0.50000    0.80815    1.000
    O1495    O        0.26961    0.50000    0.97198    1.000
    S296     S        0.88324    0.00000    0.30815    1.000
    O1496    O        0.76961    0.00000    0.47198    1.000
    S297     S        0.19185    0.38324    0.50000    1.000
    O1497    O        0.02802    0.26961    0.50000    1.000
    S298     S        0.69185    0.88324    0.00000    1.000
    O1498    O        0.52802    0.76961    0.00000    1.000
    S299     S        0.19185    0.61676    0.50000    1.000
    O1499    O        0.02802    0.73039    0.50000    1.000
    S300     S        0.69185    0.11676    0.00000    1.000
    O1500    O        0.52802    0.23039    0.00000    1.000
    S301     S        0.80815    0.61676    0.50000    1.000
    O1501    O        0.97198    0.73039    0.50000    1.000
    S302     S        0.30815    0.11676    0.00000    1.000
    O1502    O        0.47198    0.23039    0.00000    1.000
    S303     S        0.80815    0.38324    0.50000    1.000
    O1503    O        0.97198    0.26961    0.50000    1.000
    S304     S        0.30815    0.88324    0.00000    1.000
    O1504    O        0.47198    0.76961    0.00000    1.000
    S305     S        0.50000    0.19185    0.38324    1.000
    O1505    O        0.50000    0.02802    0.26961    1.000
    S306     S        0.00000    0.69185    0.88324    1.000
    O1506    O        0.00000    0.52802    0.76961    1.000
    S307     S        0.50000    0.19185    0.61676    1.000
    O1507    O        0.50000    0.02802    0.73039    1.000
    S308     S        0.00000    0.69185    0.11676    1.000
    O1508    O        0.00000    0.52802    0.23039    1.000
    S309     S        0.50000    0.80815    0.61676    1.000
    O1509    O        0.50000    0.97198    0.73039    1.000
    S310     S        0.00000    0.30815    0.11676    1.000
    O1510    O        0.00000    0.47198    0.23039    1.000
    S311     S        0.50000    0.80815    0.38324    1.000
    O1511    O        0.50000    0.97198    0.26961    1.000
    S312     S        0.00000    0.30815    0.88324    1.000
    O1512    O        0.00000    0.47198    0.76961    1.000
    S313     S        0.50000    0.38324    0.80815    1.000
    O1513    O        0.50000    0.26961    0.97198    1.000
    S314     S        0.00000    0.88324    0.30815    1.000
    O1514    O        0.00000    0.76961    0.47198    1.000
    S315     S        0.50000    0.61676    0.80815    1.000
    O1515    O        0.50000    0.73039    0.97198    1.000
    S316     S        0.00000    0.11676    0.30815    1.000
    O1516    O        0.00000    0.23039    0.47198    1.000
    S317     S        0.50000    0.61676    0.19185    1.000
    O1517    O        0.50000    0.73039    0.02802    1.000
    S318     S        0.00000    0.11676    0.69185    1.000
    O1518    O        0.00000    0.23039    0.52802    1.000
    S319     S        0.50000    0.38324    0.19185    1.000
    O1519    O        0.50000    0.26961    0.02802    1.000
    S320     S        0.00000    0.88324    0.69185    1.000
    O1520    O        0.00000    0.76961    0.52802    1.000
    S321     S        0.38324    0.19185    0.50000    1.000
    O1521    O        0.26961    0.02802    0.50000    1.000
    S322     S        0.88324    0.69185    0.00000    1.000
    O1522    O        0.76961    0.52802    0.00000    1.000
    S323     S        0.61676    0.19185    0.50000    1.000
    O1523    O        0.73039    0.02802    0.50000    1.000
    S324     S        0.11676    0.69185    0.00000    1.000
    O1524    O        0.23039    0.52802    0.00000    1.000
    S325     S        0.61676    0.80815    0.50000    1.000
    O1525    O        0.73039    0.97198    0.50000    1.000
    S326     S        0.11676    0.30815    0.00000    1.000
    O1526    O        0.23039    0.47198    0.00000    1.000
    S327     S        0.38324    0.80815    0.50000    1.000
    O1527    O        0.26961    0.97198    0.50000    1.000
    S328     S        0.88324    0.30815    0.00000    1.000
    O1528    O        0.76961    0.47198    0.00000    1.000
    S329     S        0.19185    0.50000    0.61676    1.000
    O1529    O        0.02802    0.50000    0.73039    1.000
    S330     S        0.69185    0.00000    0.11676    1.000
    O1530    O        0.52802    0.00000    0.23039    1.000
    S331     S        0.19185    0.50000    0.38324    1.000
    O1531    O        0.02802    0.50000    0.26961    1.000
    S332     S        0.69185    0.00000    0.88324    1.000
    O1532    O        0.52802    0.00000    0.76961    1.000
    S333     S        0.80815    0.50000    0.38324    1.000
    O1533    O        0.97198    0.50000    0.26961    1.000
    S334     S        0.30815    0.00000    0.88324    1.000
    O1534    O        0.47198    0.00000    0.76961    1.000
    S335     S        0.80815    0.50000    0.61676    1.000
    O1535    O        0.97198    0.50000    0.73039    1.000
    S336     S        0.30815    0.00000    0.11676    1.000
    O1536    O        0.47198    0.00000    0.23039    1.000
    O1537    O        0.27548    0.46224    0.00000    1.000
    O1538    O        0.77548    0.96224    0.50000    1.000
    O1539    O        0.72452    0.53776    0.00000    1.000
    O1540    O        0.22452    0.03776    0.50000    1.000
    O1541    O        0.72452    0.46224    0.00000    1.000
    O1542    O        0.22452    0.96224    0.50000    1.000
    O1543    O        0.27548    0.53776    0.00000    1.000
    O1544    O        0.77548    0.03776    0.50000    1.000
    O1545    O        0.00000    0.27548    0.46224    1.000
    O1546    O        0.50000    0.77548    0.96224    1.000
    O1547    O        0.00000    0.72452    0.53776    1.000
    O1548    O        0.50000    0.22452    0.03776    1.000
    O1549    O        0.00000    0.72452    0.46224    1.000
    O1550    O        0.50000    0.22452    0.96224    1.000
    O1551    O        0.00000    0.27548    0.53776    1.000
    O1552    O        0.50000    0.77548    0.03776    1.000
    O1553    O        0.46224    0.00000    0.27548    1.000
    O1554    O        0.96224    0.50000    0.77548    1.000
    O1555    O        0.53776    0.00000    0.72452    1.000
    O1556    O        0.03776    0.50000    0.22452    1.000
    O1557    O        0.46224    0.00000    0.72452    1.000
    O1558    O        0.96224    0.50000    0.22452    1.000
    O1559    O        0.53776    0.00000    0.27548    1.000
    O1560    O        0.03776    0.50000    0.77548    1.000
    O1561    O        0.46224    0.27548    0.00000    1.000
    O1562    O        0.96224    0.77548    0.50000    1.000
    O1563    O        0.53776    0.72452    0.00000    1.000
    O1564    O        0.03776    0.22452    0.50000    1.000
    O1565    O        0.46224    0.72452    0.00000    1.000
    O1566    O        0.96224    0.22452    0.50000    1.000
    O1567    O        0.53776    0.27548    0.00000    1.000
    O1568    O        0.03776    0.77548    0.50000    1.000
    O1569    O        0.27548    0.00000    0.53776    1.000
    O1570    O        0.77548    0.50000    0.03776    1.000
    O1571    O        0.72452    0.00000    0.46224    1.000
    O1572    O        0.22452    0.50000    0.96224    1.000
    O1573    O        0.72452    0.00000    0.53776    1.000
    O1574    O        0.22452    0.50000    0.03776    1.000
    O1575    O        0.27548    0.00000    0.46224    1.000
    O1576    O        0.77548    0.50000    0.96224    1.000
    O1577    O        0.00000    0.46224    0.72452    1.000
    O1578    O        0.50000    0.96224    0.22452    1.000
    O1579    O        0.00000    0.53776    0.27548    1.000
    O1580    O        0.50000    0.03776    0.77548    1.000
    O1581    O        0.00000    0.46224    0.27548    1.000
    O1582    O        0.50000    0.96224    0.77548    1.000
    O1583    O        0.00000    0.53776    0.72452    1.000
    O1584    O        0.50000    0.03776    0.22452    1.000
