data_functionalizedCrystal
_audit_creation_method	'EQeq! by Chris Wilmer'
_symmetry_space_group_name_H-M	'P1'
_symmetry_Int_Tables_number	1
_symmetry_cell_setting	triclinic
loop_
_symmetry_equiv_pos_as_xyz
  x,y,z
_cell_length_a	10.7521
_cell_length_b	11.7077
_cell_length_c	12.3439
_cell_angle_alpha	90
_cell_angle_beta	92.146
_cell_angle_gamma	90
loop_
_atom_site_label
_atom_site_type_symbol
_atom_site_fract_x
_atom_site_fract_y
_atom_site_fract_z
_atom_site_charge
Mof_N 	N 	0.0592	0.6255	0.8228	-0.251
Mof_C 	C 	0.0409	0.5697	0.919	0.054
Mof_C 	C 	0.9836	0.5748	0.7503	0.096
Mof_C 	C 	0.0924	0.5877	0.0222	-0.148
Mof_C 	C 	0.9516	0.4836	0.8975	0.043
Mof_H 	H 	0.9778	0.599	0.6769	-0.054
Mof_N 	N 	0.9171	0.489	0.7857	-0.25
Mof_H 	H 	0.1535	0.6447	0.0371	0.036
Mof_Cu	Cu	0.81395	0.37909	0.70506	0.902
Mof_N 	N 	0.6854	0.4907	0.659	-0.245
Mof_C 	C 	0.5991	0.4842	0.5728	0.046
Mof_C 	C 	0.6465	0.5742	0.7232	0.075
Mof_C 	C 	0.5936	0.414	0.4801	-0.158
Mof_C 	C 	0.5064	0.5679	0.5905	0.04
Mof_N 	N 	0.5403	0.6258	0.6869	-0.246
Mof_H 	H 	0.6897	0.5955	0.7886	-0.032
Mof_H 	H 	0.6551	0.3578	0.4671	0.022
Mof_O 	O 	0.3212	0.6456	0.8055	-0.623
Mof_H 	H 	0.3112	0.5886	0.7634	0.226
Mof_N 	N 	0.9408	0.1255	0.1772	-0.25
Mof_C 	C 	0.9591	0.0697	0.081	0.054
Mof_C 	C 	0.0164	0.0748	0.2497	0.094
Mof_C 	C 	0.9076	0.0877	0.9778	-0.147
Mof_C 	C 	0.0484	0.9836	0.1025	0.044
Mof_H 	H 	0.0222	0.099	0.3231	-0.054
Mof_N 	N 	0.0829	0.989	0.2143	-0.249
Mof_H 	H 	0.8465	0.1447	0.9629	0.036
Mof_Cu	Cu	0.18605	0.87909	0.29494	0.902
Mof_N 	N 	0.3146	0.9907	0.341	-0.244
Mof_C 	C 	0.4009	0.9842	0.4272	0.046
Mof_C 	C 	0.3535	0.0742	0.2768	0.074
Mof_C 	C 	0.4064	0.914	0.5199	-0.158
Mof_C 	C 	0.4936	0.0679	0.4095	0.04
Mof_N 	N 	0.4597	0.1258	0.3131	-0.246
Mof_H 	H 	0.3103	0.0955	0.2114	-0.032
Mof_H 	H 	0.3449	0.8578	0.5329	0.022
Mof_O 	O 	0.6788	0.1456	0.1945	-0.623
Mof_H 	H 	0.6888	0.0886	0.2366	0.225
Mof_N 	N 	0.9408	0.3745	0.1772	-0.25
Mof_C 	C 	0.9591	0.4303	0.081	0.055
Mof_C 	C 	0.0164	0.4252	0.2497	0.096
Mof_C 	C 	0.9076	0.4123	0.9778	-0.148
Mof_C 	C 	0.0484	0.5164	0.1025	0.043
Mof_H 	H 	0.0222	0.401	0.3231	-0.054
Mof_N 	N 	0.0829	0.511	0.2143	-0.25
Mof_H 	H 	0.8465	0.3553	0.9629	0.036
Mof_Cu	Cu	0.18605	0.62091	0.29494	0.902
Mof_N 	N 	0.3146	0.5093	0.341	-0.245
Mof_C 	C 	0.4009	0.5158	0.4272	0.046
Mof_C 	C 	0.3535	0.4258	0.2768	0.075
Mof_C 	C 	0.4064	0.586	0.5199	-0.158
Mof_C 	C 	0.4936	0.4321	0.4095	0.04
Mof_N 	N 	0.4597	0.3742	0.3131	-0.246
Mof_H 	H 	0.3103	0.4045	0.2114	-0.032
Mof_H 	H 	0.3449	0.6422	0.5329	0.022
Mof_O 	O 	0.6788	0.3544	0.1945	-0.623
Mof_H 	H 	0.6888	0.4114	0.2366	0.226
Mof_N 	N 	0.0592	0.8745	0.8228	-0.25
Mof_C 	C 	0.0409	0.9303	0.919	0.054
Mof_C 	C 	0.9836	0.9252	0.7503	0.094
Mof_C 	C 	0.0924	0.9123	0.0222	-0.147
Mof_C 	C 	0.9516	0.0164	0.8975	0.044
Mof_H 	H 	0.9778	0.901	0.6769	-0.054
Mof_N 	N 	0.9171	0.011	0.7857	-0.249
Mof_H 	H 	0.1535	0.8553	0.0371	0.036
Mof_Cu	Cu	0.81395	0.12091	0.70506	0.902
Mof_N 	N 	0.6854	0.0093	0.659	-0.244
Mof_C 	C 	0.5991	0.0158	0.5728	0.046
Mof_C 	C 	0.6465	0.9258	0.7232	0.074
Mof_C 	C 	0.5936	0.086	0.4801	-0.158
Mof_C 	C 	0.5064	0.9321	0.5905	0.04
Mof_N 	N 	0.5403	0.8742	0.6869	-0.246
Mof_H 	H 	0.6897	0.9045	0.7886	-0.032
Mof_H 	H 	0.6551	0.1422	0.4671	0.022
Mof_O 	O 	0.3212	0.8544	0.8055	-0.623
Mof_H 	H 	0.3112	0.9114	0.7634	0.225
Mof_Cu	Cu	0.1795	0.75	0.80638	0.877
Mof_Cu	Cu	0.4441	0.75	0.74703	0.877
Mof_Cu	Cu	0.8205	0.25	0.19362	0.877
Mof_Cu	Cu	0.5559	0.25	0.25297	0.877
Mof_O 	O 	0.707	0.25	0.672	-0.127
Mof_O 	O 	0.9211	0.25	0.7414	-0.628
Mof_H 	H 	0.6832	0.25	0.6053	0.536
Mof_H 	H 	0.9896	0.25	0.7782	0.255
Mof_O 	O 	0.743	0.25	0.626	-0.858
Mof_O 	O 	0.293	0.75	0.328	-0.127
Mof_O 	O 	0.0789	0.75	0.2586	-0.628
Mof_H 	H 	0.3168	0.75	0.3947	0.536
Mof_H 	H 	0.0104	0.75	0.2218	0.255
Mof_O 	O 	0.257	0.75	0.374	-0.858
_end
