data_functionalizedCrystal
_audit_creation_method	'EQeq! by Chris Wilmer'
_symmetry_space_group_name_H-M	'P1'
_symmetry_Int_Tables_number	1
_symmetry_cell_setting	triclinic
loop_
_symmetry_equiv_pos_as_xyz
  x,y,z
_cell_length_a	16.7033
_cell_length_b	20.0195
_cell_length_c	17.4602
_cell_angle_alpha	90
_cell_angle_beta	100.423
_cell_angle_gamma	90
loop_
_atom_site_label
_atom_site_type_symbol
_atom_site_fract_x
_atom_site_fract_y
_atom_site_fract_z
_atom_site_charge
Mof_Co	Co	0.97583	0.3301	0.74861	1.198
Mof_Co	Co	0.87669	0.3745	0.55576	1.114
Mof_Co	Co	0.09087	0.34918	0.94262	1.132
Mof_S 	S 	0.03806	0.72495	0.76686	0.27
Mof_S 	S 	0.04208	0.93309	0.84508	0.225
Mof_S 	S 	0.61128	0.48469	0.95687	0.28
Mof_O 	O 	0.0152	0.2546	0.8283	-0.506
Mof_O 	O 	0.9433	0.41535	0.681	-0.501
Mof_O 	O 	0.494	0.2349	0.1558	-0.433
Mof_O 	O 	0.4018	0.8621	0.7476	-0.446
Mof_O 	O 	0.6497	0.80494	0.7587	-0.422
Mof_O 	O 	0.9649	0.3864	0.8591	-0.47
Mof_O 	O 	0.4544	0.1995	0.0355	-0.475
Mof_O 	O 	0.696	0.8196	0.8837	-0.478
Mof_O 	O 	0.9757	0.4479	0.5703	-0.406
Mof_O 	O 	0.0864	0.24868	0.9432	-0.509
Mof_O 	O 	0.3355	0.883	0.6314	-0.48
Mof_O 	O 	0.9956	0.3976	0.9836	-0.447
Mof_O 	O 	0.087	0.7235	0.8411	-0.213
Mof_O 	O 	0.0614	0.76414	0.7059	-0.217
Mof_O 	O 	0.9732	0.9186	0.789	-0.202
Mof_O 	O 	0.0501	0.9042	0.9204	-0.206
Mof_O 	O 	0.6141	0.53295	0.0164	-0.223
Mof_O 	O 	0.567	0.49677	0.8823	-0.228
Mof_C 	C 	0.973	0.4571	0.6417	0.37
Mof_C 	C 	0.9979	0.5213	0.6748	-0.161
Mof_C 	C 	0.0041	0.5329	0.7533	0.076
Mof_H 	H 	0.9975	0.4977	0.7863	0.014
Mof_C 	C 	0.0194	0.5945	0.7826	-0.127
Mof_H 	H 	0.025	0.6027	0.8357	0.088
Mof_C 	C 	0.0266	0.6444	0.7313	0.033
Mof_C 	C 	0.0219	0.6335	0.6531	-0.131
Mof_H 	H 	0.0277	0.6687	0.6198	0.085
Mof_C 	C 	0.0087	0.5716	0.626	0.068
Mof_H 	H 	0.007	0.5629	0.5734	0.016
Mof_C 	C 	0.9397	0.7477	0.7807	0.03
Mof_C 	C 	0.923	0.7589	0.8549	-0.099
Mof_H 	H 	0.9643	0.7538	0.898	0.084
Mof_C 	C 	0.8469	0.7773	0.8657	0.05
Mof_H 	H 	0.8365	0.7852	0.9154	0.023
Mof_C 	C 	0.7872	0.784	0.8026	-0.141
Mof_C 	C 	0.8056	0.7731	0.7291	0.059
Mof_H 	H 	0.7646	0.7783	0.6858	0.028
Mof_C 	C 	0.8815	0.755	0.718	-0.105
Mof_H 	H 	0.8923	0.748	0.6682	0.077
Mof_C 	C 	0.7041	0.8046	0.8157	0.42
Mof_C 	C 	0.0505	0.223	0.8823	0.541
Mof_C 	C 	0.0502	0.1514	0.8751	-0.318
Mof_C 	C 	0.0179	0.1234	0.8053	0.235
Mof_H 	H 	0.9968	0.1508	0.7635	-0.029
Mof_C 	C 	0.016	0.0574	0.7957	-0.27
Mof_H 	H 	0.9943	0.0385	0.7478	0.152
Mof_C 	C 	0.0463	0.0188	0.8573	0.146
Mof_C 	C 	0.0776	0.0443	0.9262	-0.268
Mof_H 	H 	0.0975	0.0166	0.968	0.134
Mof_C 	C 	0.08	0.1114	0.9345	0.235
Mof_H 	H 	0.1028	0.1299	0.9823	-0.039
Mof_C 	C 	0.1295	0.915	0.803	0.059
Mof_C 	C 	0.1284	0.9242	0.7251	-0.125
Mof_H 	H 	0.081	0.9393	0.6936	0.098
Mof_C 	C 	0.1963	0.9116	0.6924	0.084
Mof_H 	H 	0.194	0.9172	0.6392	0.027
Mof_C 	C 	0.266	0.8911	0.7379	-0.167
Mof_C 	C 	0.2643	0.8814	0.8156	0.086
Mof_H 	H 	0.3114	0.8662	0.8476	0.019
Mof_C 	C 	0.1964	0.8931	0.8488	-0.133
Mof_H 	H 	0.1977	0.8858	0.9016	0.092
Mof_C 	C 	0.3405	0.8778	0.7035	0.45
Mof_C 	C 	0.9466	0.4022	0.9225	0.405
Mof_C 	C 	0.8639	0.4269	0.9284	-0.151
Mof_C 	C 	0.8493	0.4576	0.9962	0.064
Mof_H 	H 	0.8925	0.4651	0.0369	0.014
Mof_C 	C 	0.7727	0.477	0.0039	-0.129
Mof_H 	H 	0.7636	0.498	0.049	0.084
Mof_C 	C 	0.7112	0.4649	0.9449	0.03
Mof_C 	C 	0.7254	0.4351	0.877	-0.116
Mof_H 	H 	0.6822	0.4276	0.8362	0.092
Mof_C 	C 	0.8026	0.4166	0.8695	0.068
Mof_H 	H 	0.812	0.397	0.8236	0.023
Mof_C 	C 	0.5752	0.4127	0.9934	0.042
Mof_C 	C 	0.5838	0.403	0.0721	-0.114
Mof_H 	H 	0.6093	0.4355	0.1061	0.088
Mof_C 	C 	0.5558	0.347	0.1009	0.091
Mof_H 	H 	0.5619	0.3409	0.1544	0.018
Mof_C 	C 	0.5192	0.3003	0.0518	-0.164
Mof_C 	C 	0.5108	0.3104	0.9724	0.086
Mof_H 	H 	0.4856	0.2778	0.9385	0.026
Mof_C 	C 	0.5383	0.3668	0.943	-0.12
Mof_H 	H 	0.5319	0.3735	0.8895	0.099
Mof_C 	C 	0.4872	0.2394	0.0842	0.444
Mof_Co	Co	0.52417	0.8301	0.75139	1.197
Mof_Co	Co	0.62331	0.8745	0.94424	1.114
Mof_Co	Co	0.40913	0.84918	0.55738	1.132
Mof_S 	S 	0.46194	0.22495	0.73314	0.27
Mof_S 	S 	0.45792	0.43309	0.65492	0.227
Mof_S 	S 	0.88872	0.98469	0.54313	0.281
Mof_O 	O 	0.4848	0.7546	0.6717	-0.506
Mof_O 	O 	0.5567	0.91535	0.819	-0.501
Mof_O 	O 	0.006	0.7349	0.3442	-0.433
Mof_O 	O 	0.0982	0.3621	0.7524	-0.446
Mof_O 	O 	0.8503	0.30494	0.7413	-0.422
Mof_O 	O 	0.5351	0.8864	0.6409	-0.47
Mof_O 	O 	0.0456	0.6995	0.4645	-0.475
Mof_O 	O 	0.804	0.3196	0.6163	-0.478
Mof_O 	O 	0.5243	0.9479	0.9297	-0.406
Mof_O 	O 	0.4136	0.74868	0.5568	-0.509
Mof_O 	O 	0.1645	0.383	0.8686	-0.48
Mof_O 	O 	0.5044	0.8976	0.5164	-0.447
Mof_O 	O 	0.413	0.2235	0.6589	-0.213
Mof_O 	O 	0.4386	0.26414	0.7941	-0.217
Mof_O 	O 	0.5268	0.4186	0.711	-0.203
Mof_O 	O 	0.4499	0.4042	0.5796	-0.206
Mof_O 	O 	0.8859	0.03295	0.4836	-0.224
Mof_O 	O 	0.933	0.99677	0.6177	-0.228
Mof_C 	C 	0.527	0.9571	0.8583	0.371
Mof_C 	C 	0.5021	0.0213	0.8252	-0.163
Mof_C 	C 	0.4959	0.0329	0.7467	0.079
Mof_H 	H 	0.5025	0.9977	0.7137	0.013
Mof_C 	C 	0.4806	0.0945	0.7174	-0.129
Mof_H 	H 	0.475	0.1027	0.6643	0.089
Mof_C 	C 	0.4734	0.1444	0.7687	0.034
Mof_C 	C 	0.4781	0.1335	0.8469	-0.132
Mof_H 	H 	0.4723	0.1687	0.8802	0.085
Mof_C 	C 	0.4913	0.0716	0.874	0.071
Mof_H 	H 	0.493	0.0629	0.9266	0.015
Mof_C 	C 	0.5603	0.2477	0.7193	0.029
Mof_C 	C 	0.577	0.2589	0.6451	-0.099
Mof_H 	H 	0.5357	0.2538	0.602	0.084
Mof_C 	C 	0.6531	0.2773	0.6343	0.05
Mof_H 	H 	0.6635	0.2852	0.5846	0.022
Mof_C 	C 	0.7128	0.284	0.6974	-0.141
Mof_C 	C 	0.6944	0.2731	0.7709	0.058
Mof_H 	H 	0.7354	0.2783	0.8142	0.028
Mof_C 	C 	0.6185	0.255	0.782	-0.105
Mof_H 	H 	0.6077	0.248	0.8318	0.076
Mof_C 	C 	0.7959	0.3046	0.6843	0.42
Mof_C 	C 	0.4495	0.723	0.6177	0.541
Mof_C 	C 	0.4498	0.6514	0.6249	-0.317
Mof_C 	C 	0.4821	0.6234	0.6947	0.233
Mof_H 	H 	0.5032	0.6508	0.7365	-0.028
Mof_C 	C 	0.484	0.5574	0.7043	-0.269
Mof_H 	H 	0.5057	0.5385	0.7522	0.152
Mof_C 	C 	0.4537	0.5188	0.6427	0.144
Mof_C 	C 	0.4224	0.5443	0.5738	-0.266
Mof_H 	H 	0.4025	0.5166	0.532	0.133
Mof_C 	C 	0.42	0.6114	0.5655	0.234
Mof_H 	H 	0.3972	0.6299	0.5177	-0.039
Mof_C 	C 	0.3705	0.415	0.697	0.059
Mof_C 	C 	0.3716	0.4242	0.7749	-0.125
Mof_H 	H 	0.419	0.4393	0.8064	0.098
Mof_C 	C 	0.3037	0.4116	0.8076	0.084
Mof_H 	H 	0.306	0.4172	0.8608	0.027
Mof_C 	C 	0.234	0.3911	0.7621	-0.167
Mof_C 	C 	0.2357	0.3814	0.6844	0.086
Mof_H 	H 	0.1886	0.3662	0.6524	0.02
Mof_C 	C 	0.3036	0.3931	0.6512	-0.132
Mof_H 	H 	0.3023	0.3858	0.5984	0.092
Mof_C 	C 	0.1595	0.3778	0.7965	0.449
Mof_C 	C 	0.5534	0.9022	0.5775	0.404
Mof_C 	C 	0.6361	0.9269	0.5716	-0.149
Mof_C 	C 	0.6507	0.9576	0.5038	0.061
Mof_H 	H 	0.6075	0.9651	0.4631	0.015
Mof_C 	C 	0.7273	0.977	0.4961	-0.126
Mof_H 	H 	0.7364	0.998	0.451	0.083
Mof_C 	C 	0.7888	0.9649	0.5551	0.028
Mof_C 	C 	0.7746	0.9351	0.623	-0.114
Mof_H 	H 	0.8178	0.9276	0.6638	0.091
Mof_C 	C 	0.6974	0.9166	0.6305	0.066
Mof_H 	H 	0.688	0.897	0.6764	0.024
Mof_C 	C 	0.9248	0.9127	0.5066	0.042
Mof_C 	C 	0.9162	0.903	0.4279	-0.114
Mof_H 	H 	0.8907	0.9355	0.3939	0.088
Mof_C 	C 	0.9442	0.847	0.3991	0.09
Mof_H 	H 	0.9381	0.8409	0.3456	0.018
Mof_C 	C 	0.9808	0.8003	0.4482	-0.164
Mof_C 	C 	0.9892	0.8104	0.5276	0.087
Mof_H 	H 	0.0144	0.7778	0.5615	0.025
Mof_C 	C 	0.9617	0.8668	0.557	-0.121
Mof_H 	H 	0.9681	0.8735	0.6105	0.099
Mof_C 	C 	0.0128	0.7394	0.4158	0.444
Mof_Co	Co	0.02417	0.6699	0.25139	1.197
Mof_Co	Co	0.12331	0.6255	0.44424	1.113
Mof_Co	Co	0.90913	0.65082	0.05738	1.132
Mof_S 	S 	0.96194	0.27505	0.23314	0.27
Mof_S 	S 	0.95792	0.06691	0.15492	0.225
Mof_S 	S 	0.38872	0.51531	0.04313	0.28
Mof_O 	O 	0.9848	0.7454	0.1717	-0.506
Mof_O 	O 	0.0567	0.58465	0.319	-0.501
Mof_O 	O 	0.506	0.7651	0.8442	-0.433
Mof_O 	O 	0.5982	0.1379	0.2524	-0.446
Mof_O 	O 	0.3503	0.19506	0.2413	-0.422
Mof_O 	O 	0.0351	0.6136	0.1409	-0.47
Mof_O 	O 	0.5456	0.8005	0.9645	-0.475
Mof_O 	O 	0.304	0.1804	0.1163	-0.478
Mof_O 	O 	0.0243	0.5521	0.4297	-0.406
Mof_O 	O 	0.9136	0.75132	0.0568	-0.509
Mof_O 	O 	0.6645	0.117	0.3686	-0.48
Mof_O 	O 	0.0044	0.6024	0.0164	-0.447
Mof_O 	O 	0.913	0.2765	0.1589	-0.213
Mof_O 	O 	0.9386	0.23586	0.2941	-0.217
Mof_O 	O 	0.0268	0.0814	0.211	-0.202
Mof_O 	O 	0.9499	0.0958	0.0796	-0.206
Mof_O 	O 	0.3859	0.46705	0.9836	-0.223
Mof_O 	O 	0.433	0.50323	0.1177	-0.228
Mof_C 	C 	0.027	0.5429	0.3583	0.37
Mof_C 	C 	0.0021	0.4787	0.3252	-0.161
Mof_C 	C 	0.9959	0.4671	0.2467	0.076
Mof_H 	H 	0.0025	0.5023	0.2137	0.014
Mof_C 	C 	0.9806	0.4055	0.2174	-0.127
Mof_H 	H 	0.975	0.3973	0.1643	0.088
Mof_C 	C 	0.9734	0.3556	0.2687	0.033
Mof_C 	C 	0.9781	0.3665	0.3469	-0.131
Mof_H 	H 	0.9723	0.3313	0.3802	0.085
Mof_C 	C 	0.9913	0.4284	0.374	0.068
Mof_H 	H 	0.993	0.4371	0.4266	0.016
Mof_C 	C 	0.0603	0.2523	0.2193	0.03
Mof_C 	C 	0.077	0.2411	0.1451	-0.099
Mof_H 	H 	0.0357	0.2462	0.102	0.084
Mof_C 	C 	0.1531	0.2227	0.1343	0.05
Mof_H 	H 	0.1635	0.2148	0.0846	0.023
Mof_C 	C 	0.2128	0.216	0.1974	-0.141
Mof_C 	C 	0.1944	0.2269	0.2709	0.059
Mof_H 	H 	0.2354	0.2217	0.3142	0.028
Mof_C 	C 	0.1185	0.245	0.282	-0.105
Mof_H 	H 	0.1077	0.252	0.3318	0.077
Mof_C 	C 	0.2959	0.1954	0.1843	0.42
Mof_C 	C 	0.9495	0.777	0.1177	0.541
Mof_C 	C 	0.9498	0.8486	0.1249	-0.318
Mof_C 	C 	0.9821	0.8766	0.1947	0.235
Mof_H 	H 	0.0032	0.8492	0.2365	-0.029
Mof_C 	C 	0.984	0.9426	0.2043	-0.27
Mof_H 	H 	0.0057	0.9615	0.2522	0.152
Mof_C 	C 	0.9537	0.9812	0.1427	0.146
Mof_C 	C 	0.9224	0.9557	0.0738	-0.268
Mof_H 	H 	0.9025	0.9834	0.032	0.134
Mof_C 	C 	0.92	0.8886	0.0655	0.235
Mof_H 	H 	0.8972	0.8701	0.0177	-0.039
Mof_C 	C 	0.8705	0.085	0.197	0.059
Mof_C 	C 	0.8716	0.0758	0.2749	-0.125
Mof_H 	H 	0.919	0.0607	0.3064	0.098
Mof_C 	C 	0.8037	0.0884	0.3076	0.084
Mof_H 	H 	0.806	0.0828	0.3608	0.027
Mof_C 	C 	0.734	0.1089	0.2621	-0.167
Mof_C 	C 	0.7357	0.1186	0.1844	0.086
Mof_H 	H 	0.6886	0.1338	0.1524	0.019
Mof_C 	C 	0.8036	0.1069	0.1512	-0.133
Mof_H 	H 	0.8023	0.1142	0.0984	0.092
Mof_C 	C 	0.6595	0.1222	0.2965	0.45
Mof_C 	C 	0.0534	0.5978	0.0775	0.405
Mof_C 	C 	0.1361	0.5731	0.0716	-0.151
Mof_C 	C 	0.1507	0.5424	0.0038	0.064
Mof_H 	H 	0.1075	0.5349	0.9631	0.014
Mof_C 	C 	0.2273	0.523	0.9961	-0.129
Mof_H 	H 	0.2364	0.502	0.951	0.084
Mof_C 	C 	0.2888	0.5351	0.0551	0.03
Mof_C 	C 	0.2746	0.5649	0.123	-0.116
Mof_H 	H 	0.3178	0.5724	0.1638	0.092
Mof_C 	C 	0.1974	0.5834	0.1305	0.068
Mof_H 	H 	0.188	0.603	0.1764	0.023
Mof_C 	C 	0.4248	0.5873	0.0066	0.042
Mof_C 	C 	0.4162	0.597	0.9279	-0.114
Mof_H 	H 	0.3907	0.5645	0.8939	0.088
Mof_C 	C 	0.4442	0.653	0.8991	0.091
Mof_H 	H 	0.4381	0.6591	0.8456	0.018
Mof_C 	C 	0.4808	0.6997	0.9482	-0.164
Mof_C 	C 	0.4892	0.6896	0.0276	0.086
Mof_H 	H 	0.5144	0.7222	0.0615	0.026
Mof_C 	C 	0.4617	0.6332	0.057	-0.12
Mof_H 	H 	0.4681	0.6265	0.1105	0.099
Mof_C 	C 	0.5128	0.7606	0.9158	0.444
Mof_Co	Co	0.47583	0.1699	0.24861	1.197
Mof_Co	Co	0.37669	0.1255	0.05576	1.114
Mof_Co	Co	0.59087	0.15082	0.44262	1.132
Mof_S 	S 	0.53806	0.77505	0.26686	0.27
Mof_S 	S 	0.54208	0.56691	0.34508	0.227
Mof_S 	S 	0.11128	0.01531	0.45687	0.281
Mof_O 	O 	0.5152	0.2454	0.3283	-0.506
Mof_O 	O 	0.4433	0.08465	0.181	-0.501
Mof_O 	O 	0.994	0.2651	0.6558	-0.433
Mof_O 	O 	0.9018	0.6379	0.2476	-0.446
Mof_O 	O 	0.1497	0.69506	0.2587	-0.422
Mof_O 	O 	0.4649	0.1136	0.3591	-0.47
Mof_O 	O 	0.9544	0.3005	0.5355	-0.475
Mof_O 	O 	0.196	0.6804	0.3837	-0.478
Mof_O 	O 	0.4757	0.0521	0.0703	-0.406
Mof_O 	O 	0.5864	0.25132	0.4432	-0.509
Mof_O 	O 	0.8355	0.617	0.1314	-0.48
Mof_O 	O 	0.4956	0.1024	0.4836	-0.447
Mof_O 	O 	0.587	0.7765	0.3411	-0.213
Mof_O 	O 	0.5614	0.73586	0.2059	-0.217
Mof_O 	O 	0.4732	0.5814	0.289	-0.203
Mof_O 	O 	0.5501	0.5958	0.4204	-0.206
Mof_O 	O 	0.1141	0.96705	0.5164	-0.224
Mof_O 	O 	0.067	0.00323	0.3823	-0.228
Mof_C 	C 	0.473	0.0429	0.1417	0.371
Mof_C 	C 	0.4979	0.9787	0.1748	-0.163
Mof_C 	C 	0.5041	0.9671	0.2533	0.079
Mof_H 	H 	0.4975	0.0023	0.2863	0.013
Mof_C 	C 	0.5194	0.9055	0.2826	-0.129
Mof_H 	H 	0.525	0.8973	0.3357	0.089
Mof_C 	C 	0.5266	0.8556	0.2313	0.034
Mof_C 	C 	0.5219	0.8665	0.1531	-0.132
Mof_H 	H 	0.5277	0.8313	0.1198	0.085
Mof_C 	C 	0.5087	0.9284	0.126	0.071
Mof_H 	H 	0.507	0.9371	0.0734	0.015
Mof_C 	C 	0.4397	0.7523	0.2807	0.029
Mof_C 	C 	0.423	0.7411	0.3549	-0.099
Mof_H 	H 	0.4643	0.7462	0.398	0.084
Mof_C 	C 	0.3469	0.7227	0.3657	0.05
Mof_H 	H 	0.3365	0.7148	0.4154	0.022
Mof_C 	C 	0.2872	0.716	0.3026	-0.141
Mof_C 	C 	0.3056	0.7269	0.2291	0.058
Mof_H 	H 	0.2646	0.7217	0.1858	0.028
Mof_C 	C 	0.3815	0.745	0.218	-0.105
Mof_H 	H 	0.3923	0.752	0.1682	0.076
Mof_C 	C 	0.2041	0.6954	0.3157	0.42
Mof_C 	C 	0.5505	0.277	0.3823	0.541
Mof_C 	C 	0.5502	0.3486	0.3751	-0.317
Mof_C 	C 	0.5179	0.3766	0.3053	0.233
Mof_H 	H 	0.4968	0.3492	0.2635	-0.028
Mof_C 	C 	0.516	0.4426	0.2957	-0.269
Mof_H 	H 	0.4943	0.4615	0.2478	0.152
Mof_C 	C 	0.5463	0.4812	0.3573	0.144
Mof_C 	C 	0.5776	0.4557	0.4262	-0.266
Mof_H 	H 	0.5975	0.4834	0.468	0.133
Mof_C 	C 	0.58	0.3886	0.4345	0.234
Mof_H 	H 	0.6028	0.3701	0.4823	-0.039
Mof_C 	C 	0.6295	0.585	0.303	0.059
Mof_C 	C 	0.6284	0.5758	0.2251	-0.125
Mof_H 	H 	0.581	0.5607	0.1936	0.098
Mof_C 	C 	0.6963	0.5884	0.1924	0.084
Mof_H 	H 	0.694	0.5828	0.1392	0.027
Mof_C 	C 	0.766	0.6089	0.2379	-0.167
Mof_C 	C 	0.7643	0.6186	0.3156	0.086
Mof_H 	H 	0.8114	0.6338	0.3476	0.02
Mof_C 	C 	0.6964	0.6069	0.3488	-0.132
Mof_H 	H 	0.6977	0.6142	0.4016	0.092
Mof_C 	C 	0.8405	0.6222	0.2035	0.449
Mof_C 	C 	0.4466	0.0978	0.4225	0.404
Mof_C 	C 	0.3639	0.0731	0.4284	-0.149
Mof_C 	C 	0.3493	0.0424	0.4962	0.061
Mof_H 	H 	0.3925	0.0349	0.5369	0.015
Mof_C 	C 	0.2727	0.023	0.5039	-0.126
Mof_H 	H 	0.2636	0.002	0.549	0.083
Mof_C 	C 	0.2112	0.0351	0.4449	0.028
Mof_C 	C 	0.2254	0.0649	0.377	-0.114
Mof_H 	H 	0.1822	0.0724	0.3362	0.091
Mof_C 	C 	0.3026	0.0834	0.3695	0.066
Mof_H 	H 	0.312	0.103	0.3236	0.024
Mof_C 	C 	0.0752	0.0873	0.4934	0.042
Mof_C 	C 	0.0838	0.097	0.5721	-0.114
Mof_H 	H 	0.1093	0.0645	0.6061	0.088
Mof_C 	C 	0.0558	0.153	0.6009	0.09
Mof_H 	H 	0.0619	0.1591	0.6544	0.018
Mof_C 	C 	0.0192	0.1997	0.5518	-0.164
Mof_C 	C 	0.0108	0.1896	0.4724	0.087
Mof_H 	H 	0.9856	0.2222	0.4385	0.025
Mof_C 	C 	0.0383	0.1332	0.443	-0.121
Mof_H 	H 	0.0319	0.1265	0.3895	0.099
Mof_C 	C 	0.9872	0.2606	0.5842	0.444
_end
