data_functionalizedCrystal
_audit_creation_method	'EQeq! by Chris Wilmer'
_symmetry_space_group_name_H-M	'P1'
_symmetry_Int_Tables_number	1
_symmetry_cell_setting	triclinic
loop_
_symmetry_equiv_pos_as_xyz
  x,y,z
_cell_length_a	15.3683
_cell_length_b	15.3683
_cell_length_c	9.895
_cell_angle_alpha	90
_cell_angle_beta	90
_cell_angle_gamma	90
loop_
_atom_site_label
_atom_site_type_symbol
_atom_site_fract_x
_atom_site_fract_y
_atom_site_fract_z
_atom_site_charge
Mof_O 	O 	0.12862	0.03213	0.1217	-0.524
Mof_C 	C 	0.25741	0.88776	0.8777	0.062
Mof_H 	H 	0.2403	0.9129	0.7964	0.074
Mof_C 	C 	0.30617	0.81287	0.8793	-0.06
Mof_H 	H 	0.3226	0.7876	0.7978	0.076
Mof_O 	O 	0.87138	0.96787	0.1217	-0.398
Mof_C 	C 	0.74259	0.11224	0.8777	0.275
Mof_H 	H 	0.7597	0.0871	0.7964	-0.068
Mof_C 	C 	0.69383	0.18713	0.8793	-0.239
Mof_H 	H 	0.6774	0.2124	0.7978	0.129
Mof_O 	O 	0.96787	0.12862	0.1217	-0.453
Mof_C 	C 	0.11224	0.25741	0.8777	0.289
Mof_H 	H 	0.0871	0.2403	0.7964	-0.075
Mof_C 	C 	0.18713	0.30617	0.8793	-0.253
Mof_H 	H 	0.2124	0.3226	0.7978	0.132
Mof_O 	O 	0.03213	0.87138	0.1217	-0.455
Mof_C 	C 	0.88776	0.74259	0.8777	0.068
Mof_H 	H 	0.9129	0.7597	0.7964	0.071
Mof_C 	C 	0.81287	0.69383	0.8793	-0.06
Mof_H 	H 	0.7876	0.6774	0.7978	0.078
Mof_O 	O 	0.87138	0.03213	0.3783	-0.459
Mof_C 	C 	0.74259	0.88776	0.6223	0.033
Mof_H 	H 	0.7597	0.9129	0.7036	0.083
Mof_C 	C 	0.69383	0.81287	0.6207	-0.109
Mof_H 	H 	0.6774	0.7876	0.7022	0.094
Mof_O 	O 	0.12862	0.96787	0.3783	-0.459
Mof_C 	C 	0.25741	0.11224	0.6223	0.266
Mof_H 	H 	0.2403	0.0871	0.7036	-0.068
Mof_C 	C 	0.30617	0.18713	0.6207	-0.306
Mof_H 	H 	0.3226	0.2124	0.7022	0.15
Mof_O 	O 	0.03213	0.12862	0.3783	-0.527
Mof_C 	C 	0.88776	0.25741	0.6223	0.029
Mof_H 	H 	0.9129	0.2403	0.7036	0.086
Mof_C 	C 	0.81287	0.30617	0.6207	-0.107
Mof_H 	H 	0.7876	0.3226	0.7022	0.093
Mof_O 	O 	0.96787	0.87138	0.3783	-0.403
Mof_C 	C 	0.11224	0.74259	0.6223	0.251
Mof_H 	H 	0.0871	0.7597	0.7036	-0.06
Mof_C 	C 	0.18713	0.69383	0.6207	-0.293
Mof_H 	H 	0.2124	0.6774	0.7022	0.147
Mof_O 	O 	0.87138	0.96787	0.8783	-0.368
Mof_C 	C 	0.74259	0.11224	0.1223	0.243
Mof_H 	H 	0.7597	0.0871	0.2036	-0.062
Mof_C 	C 	0.69383	0.18713	0.1207	-0.275
Mof_H 	H 	0.6774	0.2124	0.2022	0.132
Mof_O 	O 	0.12862	0.03213	0.8783	-0.498
Mof_C 	C 	0.25741	0.88776	0.1223	0.03
Mof_H 	H 	0.2403	0.9129	0.2036	0.081
Mof_C 	C 	0.30617	0.81287	0.1207	-0.095
Mof_H 	H 	0.3226	0.7876	0.2022	0.08
Mof_O 	O 	0.03213	0.87138	0.8783	-0.429
Mof_C 	C 	0.88776	0.74259	0.1223	0.034
Mof_H 	H 	0.9129	0.7597	0.2036	0.077
Mof_C 	C 	0.81287	0.69383	0.1207	-0.097
Mof_H 	H 	0.7876	0.6774	0.2022	0.082
Mof_O 	O 	0.96787	0.12862	0.8783	-0.425
Mof_C 	C 	0.11224	0.25741	0.1223	0.258
Mof_H 	H 	0.0871	0.2403	0.2036	-0.07
Mof_C 	C 	0.18713	0.30617	0.1207	-0.288
Mof_H 	H 	0.2124	0.3226	0.2022	0.136
Mof_O 	O 	0.12862	0.96787	0.6217	-0.458
Mof_C 	C 	0.25741	0.11224	0.3777	0.265
Mof_H 	H 	0.2403	0.0871	0.2964	-0.072
Mof_C 	C 	0.30617	0.18713	0.3793	-0.306
Mof_H 	H 	0.3226	0.2124	0.2978	0.142
Mof_O 	O 	0.87138	0.03213	0.6217	-0.459
Mof_C 	C 	0.74259	0.88776	0.3777	0.031
Mof_H 	H 	0.7597	0.9129	0.2964	0.078
Mof_C 	C 	0.69383	0.81287	0.3793	-0.109
Mof_H 	H 	0.6774	0.7876	0.2978	0.086
Mof_O 	O 	0.96787	0.87138	0.6217	-0.402
Mof_C 	C 	0.11224	0.74259	0.3777	0.249
Mof_H 	H 	0.0871	0.7597	0.2964	-0.064
Mof_C 	C 	0.18713	0.69383	0.3793	-0.293
Mof_H 	H 	0.2124	0.6774	0.2978	0.138
Mof_O 	O 	0.03213	0.12862	0.6217	-0.527
Mof_C 	C 	0.88776	0.25741	0.3777	0.028
Mof_H 	H 	0.9129	0.2403	0.2964	0.081
Mof_C 	C 	0.81287	0.30617	0.3793	-0.107
Mof_H 	H 	0.7876	0.3226	0.2978	0.084
Mof_Sm	Sm	-7.46664e-34	-1.35018e-33	0.25	1.865
Mof_Sm	Sm	-3.59018e-33	0	0.75	1.87
Mof_S 	S 	0.18079	0.02778	-0	0.513
Mof_O 	O 	0.24849	0.09052	-0	-0.319
Mof_N 	N 	0.3696	0.531	-0	-0.121
Mof_C 	C 	0.2343	0.925	-0	-0.03
Mof_C 	C 	0.3316	0.7739	-0	0.046
Mof_C 	C 	0.3832	0.6901	-0	-0.092
Mof_C 	C 	0.335	0.6136	-0	0.109
Mof_C 	C 	0.2418	0.6074	-0	-0.105
Mof_H 	H 	0.2023	0.6533	-0	0.08
Mof_C 	C 	0.2226	0.5211	-0	-0.08
Mof_H 	H 	0.1669	0.4974	-0	0.042
Mof_C 	C 	0.3017	0.4727	-0	0.117
Mof_S 	S 	0.81921	0.97222	-0	0.819
Mof_O 	O 	0.75151	0.90948	-0	-0.325
Mof_N 	N 	0.6304	0.469	-0	-0.12
Mof_C 	C 	0.7657	0.075	-0	-0.413
Mof_C 	C 	0.6684	0.2261	-0	0.163
Mof_C 	C 	0.6168	0.3099	-0	-0.135
Mof_C 	C 	0.665	0.3864	-0	0.127
Mof_C 	C 	0.7582	0.3926	-0	-0.106
Mof_H 	H 	0.7977	0.3467	-0	0.102
Mof_C 	C 	0.7774	0.4789	-0	-0.064
Mof_H 	H 	0.8331	0.5026	-0	0.078
Mof_C 	C 	0.6983	0.5273	-0	0.104
Mof_S 	S 	0.97222	0.18079	-0	0.853
Mof_O 	O 	0.90948	0.24849	-0	-0.332
Mof_N 	N 	0.469	0.3696	-0	-0.123
Mof_C 	C 	0.075	0.2343	-0	-0.431
Mof_C 	C 	0.2261	0.3316	-0	0.173
Mof_C 	C 	0.3099	0.3832	-0	-0.142
Mof_C 	C 	0.3864	0.335	-0	0.129
Mof_C 	C 	0.3926	0.2418	-0	-0.119
Mof_H 	H 	0.3467	0.2023	-0	0.086
Mof_C 	C 	0.4789	0.2226	-0	-0.072
Mof_H 	H 	0.5026	0.1669	-0	0.039
Mof_C 	C 	0.5273	0.3017	-0	0.112
Mof_S 	S 	0.02778	0.81921	-0	0.503
Mof_O 	O 	0.09052	0.75151	-0	-0.314
Mof_N 	N 	0.531	0.6304	-0	-0.118
Mof_C 	C 	0.925	0.7657	-0	-0.043
Mof_C 	C 	0.7739	0.6684	-0	0.047
Mof_C 	C 	0.6901	0.6168	-0	-0.09
Mof_C 	C 	0.6136	0.665	-0	0.109
Mof_C 	C 	0.6074	0.7582	-0	-0.093
Mof_H 	H 	0.6533	0.7977	-0	0.096
Mof_C 	C 	0.5211	0.7774	-0	-0.071
Mof_H 	H 	0.4974	0.8331	-0	0.08
Mof_C 	C 	0.4727	0.6983	-0	0.106
Mof_S 	S 	0.81921	0.02778	0.5	0.54
Mof_O 	O 	0.75151	0.09052	0.5	-0.309
Mof_N 	N 	0.6304	0.531	0.5	-0.115
Mof_C 	C 	0.7657	0.925	0.5	-0.004
Mof_C 	C 	0.6684	0.7739	0.5	0.096
Mof_C 	C 	0.6168	0.6901	0.5	-0.098
Mof_C 	C 	0.665	0.6136	0.5	0.122
Mof_C 	C 	0.7582	0.6074	0.5	-0.088
Mof_H 	H 	0.7977	0.6533	0.5	0.102
Mof_C 	C 	0.7774	0.5211	0.5	-0.068
Mof_H 	H 	0.8331	0.4974	0.5	0.089
Mof_C 	C 	0.6983	0.4727	0.5	0.12
Mof_S 	S 	0.18079	0.97222	0.5	0.902
Mof_O 	O 	0.24849	0.90948	0.5	-0.328
Mof_N 	N 	0.3696	0.469	0.5	-0.12
Mof_C 	C 	0.2343	0.075	0.5	-0.41
Mof_C 	C 	0.3316	0.2261	0.5	0.222
Mof_C 	C 	0.3832	0.3099	0.5	-0.151
Mof_C 	C 	0.335	0.3864	0.5	0.141
Mof_C 	C 	0.2418	0.3926	0.5	-0.115
Mof_H 	H 	0.2023	0.3467	0.5	0.092
Mof_C 	C 	0.2226	0.4789	0.5	-0.07
Mof_H 	H 	0.1669	0.5026	0.5	0.047
Mof_C 	C 	0.3017	0.5273	0.5	0.126
Mof_S 	S 	0.02778	0.18079	0.5	0.545
Mof_O 	O 	0.09052	0.24849	0.5	-0.314
Mof_N 	N 	0.531	0.3696	0.5	-0.118
Mof_C 	C 	0.925	0.2343	0.5	0.007
Mof_C 	C 	0.7739	0.3316	0.5	0.094
Mof_C 	C 	0.6901	0.3832	0.5	-0.1
Mof_C 	C 	0.6136	0.335	0.5	0.121
Mof_C 	C 	0.6074	0.2418	0.5	-0.1
Mof_H 	H 	0.6533	0.2023	0.5	0.086
Mof_C 	C 	0.5211	0.2226	0.5	-0.078
Mof_H 	H 	0.4974	0.1669	0.5	0.05
Mof_C 	C 	0.4727	0.3017	0.5	0.13
Mof_S 	S 	0.97222	0.81921	0.5	0.871
Mof_O 	O 	0.90948	0.75151	0.5	-0.321
Mof_N 	N 	0.469	0.6304	0.5	-0.117
Mof_C 	C 	0.075	0.7657	0.5	-0.39
Mof_C 	C 	0.2261	0.6684	0.5	0.214
Mof_C 	C 	0.3099	0.6168	0.5	-0.145
Mof_C 	C 	0.3864	0.665	0.5	0.14
Mof_C 	C 	0.3926	0.7582	0.5	-0.101
Mof_H 	H 	0.3467	0.7977	0.5	0.108
Mof_C 	C 	0.4789	0.7774	0.5	-0.061
Mof_H 	H 	0.5026	0.8331	0.5	0.087
Mof_C 	C 	0.5273	0.6983	0.5	0.118
_end
