# CIF file generated by openbabel 3.1.0, see https://openbabel.org
data_I
_chemical_name_common 'image0'
_cell_length_a 26.564
_cell_length_b 26.564
_cell_length_c 5.024
_cell_angle_alpha 90
_cell_angle_beta 90
_cell_angle_gamma 90
_space_group_name_H-M_alt 'P 1'
_space_group_name_Hall 'P 1'
loop_
    _symmetry_equiv_pos_as_xyz
    x,y,z
loop_
    _atom_site_label
    _atom_site_type_symbol
    _atom_site_fract_x
    _atom_site_fract_y
    _atom_site_fract_z
    _atom_site_occupancy
    Zn1      Zn       0.27318    0.21387    0.90550    1.000
    O1       O        0.21960    0.25340    0.07800    1.000
    H1       H        0.19860    0.26450    0.96430    1.000
    N1       N        0.25710    0.14070    0.89400    1.000
    C1       C        0.27100    0.10300    0.04400    1.000
    H2       H        0.29680    0.10490    0.16870    1.000
    N2       N        0.24360    0.06080    0.99700    1.000
    C2       C        0.21400    0.12020    0.72500    1.000
    O2       O        0.27650    0.83410    0.37700    1.000
    C3       C        0.18430    0.14220    0.53100    1.000
    H3       H        0.18910    0.17570    0.48340    1.000
    O3       O        0.31200    0.87740    0.68700    1.000
    C4       C        0.14750    0.11370    0.40900    1.000
    C5       C        0.11730    0.13470    0.21400    1.000
    H4       H        0.12250    0.16820    0.16820    1.000
    C6       C        0.07990    0.10820    0.08600    1.000
    H5       H        0.05990    0.12270    0.95470    1.000
    C7       C        0.07430    0.05880    0.16400    1.000
    H6       H        0.04960    0.03910    0.08330    1.000
    C8       C        0.10440    0.03790    0.35800    1.000
    H7       H        0.09920    0.00440    0.40440    1.000
    C9       C        0.14190    0.06430    0.48670    1.000
    C10      C        0.17140    0.04210    0.68100    1.000
    H8       H        0.16730    0.00840    0.72530    1.000
    C11      C        0.20700    0.07130    0.80800    1.000
    C12      C        0.25780    0.01310    0.11600    1.000
    C13      C        0.28430    0.92270    0.33300    1.000
    C14      C        0.28030    0.01110    0.36400    1.000
    H9       H        0.28630    0.04090    0.45560    1.000
    C15      C        0.29390    0.96600    0.47700    1.000
    H10      H        0.30890    0.96470    0.64390    1.000
    C16      C        0.26190    0.92300    0.08600    1.000
    H11      H        0.25580    0.89320    0.99410    1.000
    C17      C        0.24900    0.96900    0.98000    1.000
    H12      H        0.23400    0.97030    0.81250    1.000
    C18      C        0.30220    0.87250    0.44100    1.000
    O4       O        0.34200    0.86900    0.57200    1.000
    C19      C        0.30760    0.00320    0.16700    1.000
    H13      H        0.33180    0.02740    0.12740    1.000
    C20      C        0.32250    0.95730    0.27800    1.000
    H14      H        0.35610    0.95020    0.31400    1.000
    C21      C        0.23270    0.92930    0.28700    1.000
    H15      H        0.20840    0.90520    0.32570    1.000
    C22      C        0.22210    0.97640    0.17700    1.000
    H16      H        0.18860    0.98390    0.14130    1.000
    Zn2      Zn       0.77318    0.71387    0.40550    1.000
    O5       O        0.71960    0.75340    0.57800    1.000
    H17      H        0.69860    0.76450    0.46430    1.000
    N3       N        0.75710    0.64070    0.39400    1.000
    C23      C        0.77100    0.60300    0.54400    1.000
    H18      H        0.79680    0.60490    0.66870    1.000
    N4       N        0.74360    0.56080    0.49700    1.000
    C24      C        0.71400    0.62020    0.22500    1.000
    O6       O        0.77650    0.33410    0.87700    1.000
    C25      C        0.68430    0.64220    0.03100    1.000
    H19      H        0.68910    0.67570    0.98340    1.000
    O7       O        0.81200    0.37740    0.18700    1.000
    C26      C        0.64750    0.61370    0.90900    1.000
    C27      C        0.61730    0.63470    0.71400    1.000
    H20      H        0.62250    0.66820    0.66820    1.000
    C28      C        0.57990    0.60820    0.58600    1.000
    H21      H        0.55990    0.62270    0.45470    1.000
    C29      C        0.57430    0.55880    0.66400    1.000
    H22      H        0.54960    0.53910    0.58330    1.000
    C30      C        0.60440    0.53790    0.85800    1.000
    H23      H        0.59920    0.50440    0.90440    1.000
    C31      C        0.64190    0.56430    0.98670    1.000
    C32      C        0.67140    0.54210    0.18100    1.000
    H24      H        0.66730    0.50840    0.22530    1.000
    C33      C        0.70700    0.57130    0.30800    1.000
    C34      C        0.75780    0.51310    0.61600    1.000
    C35      C        0.78430    0.42270    0.83300    1.000
    C36      C        0.78030    0.51110    0.86400    1.000
    H25      H        0.78630    0.54090    0.95560    1.000
    C37      C        0.79390    0.46600    0.97700    1.000
    H26      H        0.80890    0.46470    0.14390    1.000
    C38      C        0.76190    0.42300    0.58600    1.000
    H27      H        0.75580    0.39320    0.49410    1.000
    C39      C        0.74900    0.46900    0.48000    1.000
    H28      H        0.73400    0.47030    0.31250    1.000
    C40      C        0.80220    0.37250    0.94100    1.000
    O8       O        0.84200    0.36900    0.07200    1.000
    C41      C        0.80760    0.50320    0.66700    1.000
    H29      H        0.83180    0.52740    0.62740    1.000
    C42      C        0.82250    0.45730    0.77800    1.000
    H30      H        0.85610    0.45020    0.81400    1.000
    C43      C        0.73270    0.42930    0.78700    1.000
    H31      H        0.70840    0.40520    0.82570    1.000
    C44      C        0.72210    0.47640    0.67700    1.000
    H32      H        0.68860    0.48390    0.64130    1.000
    Zn3      Zn       0.72682    0.78613    0.90550    1.000
    O9       O        0.78040    0.74660    0.07800    1.000
    H33      H        0.80140    0.73550    0.96430    1.000
    N5       N        0.74290    0.85930    0.89400    1.000
    C45      C        0.72900    0.89700    0.04400    1.000
    H34      H        0.70320    0.89510    0.16870    1.000
    N6       N        0.75640    0.93920    0.99700    1.000
    C46      C        0.78600    0.87980    0.72500    1.000
    O10      O        0.72350    0.16590    0.37700    1.000
    C47      C        0.81570    0.85780    0.53100    1.000
    H35      H        0.81090    0.82430    0.48340    1.000
    O11      O        0.68800    0.12260    0.68700    1.000
    C48      C        0.85250    0.88630    0.40900    1.000
    C49      C        0.88270    0.86530    0.21400    1.000
    H36      H        0.87750    0.83180    0.16820    1.000
    C50      C        0.92010    0.89180    0.08600    1.000
    H37      H        0.94010    0.87730    0.95470    1.000
    C51      C        0.92570    0.94120    0.16400    1.000
    H38      H        0.95040    0.96090    0.08330    1.000
    C52      C        0.89560    0.96210    0.35800    1.000
    H39      H        0.90080    0.99560    0.40440    1.000
    C53      C        0.85810    0.93570    0.48670    1.000
    C54      C        0.82860    0.95790    0.68100    1.000
    H40      H        0.83270    0.99160    0.72530    1.000
    C55      C        0.79300    0.92870    0.80800    1.000
    C56      C        0.74220    0.98690    0.11600    1.000
    C57      C        0.71570    0.07730    0.33300    1.000
    C58      C        0.71970    0.98890    0.36400    1.000
    H41      H        0.71370    0.95910    0.45560    1.000
    C59      C        0.70610    0.03400    0.47700    1.000
    H42      H        0.69110    0.03530    0.64390    1.000
    C60      C        0.73810    0.07700    0.08600    1.000
    H43      H        0.74420    0.10680    0.99410    1.000
    C61      C        0.75100    0.03100    0.98000    1.000
    H44      H        0.76600    0.02970    0.81250    1.000
    C62      C        0.69780    0.12750    0.44100    1.000
    O12      O        0.65800    0.13100    0.57200    1.000
    C63      C        0.69240    0.99680    0.16700    1.000
    H45      H        0.66820    0.97260    0.12740    1.000
    C64      C        0.67750    0.04270    0.27800    1.000
    H46      H        0.64390    0.04980    0.31400    1.000
    C65      C        0.76730    0.07070    0.28700    1.000
    H47      H        0.79160    0.09480    0.32570    1.000
    C66      C        0.77790    0.02360    0.17700    1.000
    H48      H        0.81140    0.01610    0.14130    1.000
    Zn4      Zn       0.22682    0.28613    0.40550    1.000
    O13      O        0.28040    0.24660    0.57800    1.000
    H49      H        0.30140    0.23550    0.46430    1.000
    N7       N        0.24290    0.35930    0.39400    1.000
    C67      C        0.22900    0.39700    0.54400    1.000
    H50      H        0.20320    0.39510    0.66870    1.000
    N8       N        0.25640    0.43920    0.49700    1.000
    C68      C        0.28600    0.37980    0.22500    1.000
    O14      O        0.22350    0.66590    0.87700    1.000
    C69      C        0.31570    0.35780    0.03100    1.000
    H51      H        0.31090    0.32430    0.98340    1.000
    O15      O        0.18800    0.62260    0.18700    1.000
    C70      C        0.35250    0.38630    0.90900    1.000
    C71      C        0.38270    0.36530    0.71400    1.000
    H52      H        0.37750    0.33180    0.66820    1.000
    C72      C        0.42010    0.39180    0.58600    1.000
    H53      H        0.44010    0.37730    0.45470    1.000
    C73      C        0.42570    0.44120    0.66400    1.000
    H54      H        0.45040    0.46090    0.58330    1.000
    C74      C        0.39560    0.46210    0.85800    1.000
    H55      H        0.40080    0.49560    0.90440    1.000
    C75      C        0.35810    0.43570    0.98670    1.000
    C76      C        0.32860    0.45790    0.18100    1.000
    H56      H        0.33270    0.49160    0.22530    1.000
    C77      C        0.29300    0.42870    0.30800    1.000
    C78      C        0.24220    0.48690    0.61600    1.000
    C79      C        0.21570    0.57730    0.83300    1.000
    C80      C        0.21970    0.48890    0.86400    1.000
    H57      H        0.21370    0.45910    0.95560    1.000
    C81      C        0.20610    0.53400    0.97700    1.000
    H58      H        0.19110    0.53530    0.14390    1.000
    C82      C        0.23810    0.57700    0.58600    1.000
    H59      H        0.24420    0.60680    0.49410    1.000
    C83      C        0.25100    0.53100    0.48000    1.000
    H60      H        0.26600    0.52970    0.31250    1.000
    C84      C        0.19780    0.62750    0.94100    1.000
    O16      O        0.15800    0.63100    0.07200    1.000
    C85      C        0.19240    0.49680    0.66700    1.000
    H61      H        0.16820    0.47260    0.62740    1.000
    C86      C        0.17750    0.54270    0.77800    1.000
    H62      H        0.14390    0.54980    0.81400    1.000
    C87      C        0.26730    0.57070    0.78700    1.000
    H63      H        0.29160    0.59480    0.82570    1.000
    C88      C        0.27790    0.52360    0.67700    1.000
    H64      H        0.31140    0.51610    0.64130    1.000
    Zn5      Zn       0.21387    0.72682    0.09450    1.000
    O17      O        0.25340    0.78040    0.92200    1.000
    H65      H        0.26450    0.80140    0.03570    1.000
    N9       N        0.14070    0.74290    0.10600    1.000
    C89      C        0.10300    0.72900    0.95600    1.000
    H66      H        0.10490    0.70320    0.83130    1.000
    N10      N        0.06080    0.75640    0.00300    1.000
    C90      C        0.12020    0.78600    0.27500    1.000
    O18      O        0.83410    0.72350    0.62300    1.000
    C91      C        0.14220    0.81570    0.46900    1.000
    H67      H        0.17570    0.81090    0.51660    1.000
    O19      O        0.87740    0.68800    0.31300    1.000
    C92      C        0.11370    0.85250    0.59100    1.000
    C93      C        0.13470    0.88270    0.78600    1.000
    H68      H        0.16820    0.87750    0.83180    1.000
    C94      C        0.10820    0.92010    0.91400    1.000
    H69      H        0.12270    0.94010    0.04530    1.000
    C95      C        0.05880    0.92570    0.83600    1.000
    H70      H        0.03910    0.95040    0.91670    1.000
    C96      C        0.03790    0.89560    0.64200    1.000
    H71      H        0.00440    0.90080    0.59560    1.000
    C97      C        0.06430    0.85810    0.51330    1.000
    C98      C        0.04210    0.82860    0.31900    1.000
    H72      H        0.00840    0.83270    0.27470    1.000
    C99      C        0.07130    0.79300    0.19200    1.000
    C100     C        0.01310    0.74220    0.88400    1.000
    C101     C        0.92270    0.71570    0.66700    1.000
    C102     C        0.01110    0.71970    0.63600    1.000
    H73      H        0.04090    0.71370    0.54440    1.000
    C103     C        0.96600    0.70610    0.52300    1.000
    H74      H        0.96470    0.69110    0.35610    1.000
    C104     C        0.92300    0.73810    0.91400    1.000
    H75      H        0.89320    0.74420    0.00590    1.000
    C105     C        0.96900    0.75100    0.02000    1.000
    H76      H        0.97030    0.76600    0.18750    1.000
    C106     C        0.87250    0.69780    0.55900    1.000
    O20      O        0.86900    0.65800    0.42800    1.000
    C107     C        0.00320    0.69240    0.83300    1.000
    H77      H        0.02740    0.66820    0.87260    1.000
    C108     C        0.95730    0.67750    0.72200    1.000
    H78      H        0.95020    0.64390    0.68600    1.000
    C109     C        0.92930    0.76730    0.71300    1.000
    H79      H        0.90520    0.79160    0.67430    1.000
    C110     C        0.97640    0.77790    0.82300    1.000
    H80      H        0.98390    0.81140    0.85870    1.000
    Zn6      Zn       0.71387    0.22682    0.59450    1.000
    O21      O        0.75340    0.28040    0.42200    1.000
    H81      H        0.76450    0.30140    0.53570    1.000
    N11      N        0.64070    0.24290    0.60600    1.000
    C111     C        0.60300    0.22900    0.45600    1.000
    H82      H        0.60490    0.20320    0.33130    1.000
    N12      N        0.56080    0.25640    0.50300    1.000
    C112     C        0.62020    0.28600    0.77500    1.000
    O22      O        0.33410    0.22350    0.12300    1.000
    C113     C        0.64220    0.31570    0.96900    1.000
    H83      H        0.67570    0.31090    0.01660    1.000
    O23      O        0.37740    0.18800    0.81300    1.000
    C114     C        0.61370    0.35250    0.09100    1.000
    C115     C        0.63470    0.38270    0.28600    1.000
    H84      H        0.66820    0.37750    0.33180    1.000
    C116     C        0.60820    0.42010    0.41400    1.000
    H85      H        0.62270    0.44010    0.54530    1.000
    C117     C        0.55880    0.42570    0.33600    1.000
    H86      H        0.53910    0.45040    0.41670    1.000
    C118     C        0.53790    0.39560    0.14200    1.000
    H87      H        0.50440    0.40080    0.09560    1.000
    C119     C        0.56430    0.35810    0.01330    1.000
    C120     C        0.54210    0.32860    0.81900    1.000
    H88      H        0.50840    0.33270    0.77470    1.000
    C121     C        0.57130    0.29300    0.69200    1.000
    C122     C        0.51310    0.24220    0.38400    1.000
    C123     C        0.42270    0.21570    0.16700    1.000
    C124     C        0.51110    0.21970    0.13600    1.000
    H89      H        0.54090    0.21370    0.04440    1.000
    C125     C        0.46600    0.20610    0.02300    1.000
    H90      H        0.46470    0.19110    0.85610    1.000
    C126     C        0.42300    0.23810    0.41400    1.000
    H91      H        0.39320    0.24420    0.50590    1.000
    C127     C        0.46900    0.25100    0.52000    1.000
    H92      H        0.47030    0.26600    0.68750    1.000
    C128     C        0.37250    0.19780    0.05900    1.000
    O24      O        0.36900    0.15800    0.92800    1.000
    C129     C        0.50320    0.19240    0.33300    1.000
    H93      H        0.52740    0.16820    0.37260    1.000
    C130     C        0.45730    0.17750    0.22200    1.000
    H94      H        0.45020    0.14390    0.18600    1.000
    C131     C        0.42930    0.26730    0.21300    1.000
    H95      H        0.40520    0.29160    0.17430    1.000
    C132     C        0.47640    0.27790    0.32300    1.000
    H96      H        0.48390    0.31140    0.35870    1.000
    Zn7      Zn       0.78613    0.27318    0.09450    1.000
    O25      O        0.74660    0.21960    0.92200    1.000
    H97      H        0.73550    0.19860    0.03570    1.000
    N13      N        0.85930    0.25710    0.10600    1.000
    C133     C        0.89700    0.27100    0.95600    1.000
    H98      H        0.89510    0.29680    0.83130    1.000
    N14      N        0.93920    0.24360    0.00300    1.000
    C134     C        0.87980    0.21400    0.27500    1.000
    O26      O        0.16590    0.27650    0.62300    1.000
    C135     C        0.85780    0.18430    0.46900    1.000
    H99      H        0.82430    0.18910    0.51660    1.000
    O27      O        0.12260    0.31200    0.31300    1.000
    C136     C        0.88630    0.14750    0.59100    1.000
    C137     C        0.86530    0.11730    0.78600    1.000
    H100     H        0.83180    0.12250    0.83180    1.000
    C138     C        0.89180    0.07990    0.91400    1.000
    H101     H        0.87730    0.05990    0.04530    1.000
    C139     C        0.94120    0.07430    0.83600    1.000
    H102     H        0.96090    0.04960    0.91670    1.000
    C140     C        0.96210    0.10440    0.64200    1.000
    H103     H        0.99560    0.09920    0.59560    1.000
    C141     C        0.93570    0.14190    0.51330    1.000
    C142     C        0.95790    0.17140    0.31900    1.000
    H104     H        0.99160    0.16730    0.27470    1.000
    C143     C        0.92870    0.20700    0.19200    1.000
    C144     C        0.98690    0.25780    0.88400    1.000
    C145     C        0.07730    0.28430    0.66700    1.000
    C146     C        0.98890    0.28030    0.63600    1.000
    H105     H        0.95910    0.28630    0.54440    1.000
    C147     C        0.03400    0.29390    0.52300    1.000
    H106     H        0.03530    0.30890    0.35610    1.000
    C148     C        0.07700    0.26190    0.91400    1.000
    H107     H        0.10680    0.25580    0.00590    1.000
    C149     C        0.03100    0.24900    0.02000    1.000
    H108     H        0.02970    0.23400    0.18750    1.000
    C150     C        0.12750    0.30220    0.55900    1.000
    O28      O        0.13100    0.34200    0.42800    1.000
    C151     C        0.99680    0.30760    0.83300    1.000
    H109     H        0.97260    0.33180    0.87260    1.000
    C152     C        0.04270    0.32250    0.72200    1.000
    H110     H        0.04980    0.35610    0.68600    1.000
    C153     C        0.07070    0.23270    0.71300    1.000
    H111     H        0.09480    0.20840    0.67430    1.000
    C154     C        0.02360    0.22210    0.82300    1.000
    H112     H        0.01610    0.18860    0.85870    1.000
    Zn8      Zn       0.28613    0.77318    0.59450    1.000
    O29      O        0.24660    0.71960    0.42200    1.000
    H113     H        0.23550    0.69860    0.53570    1.000
    N15      N        0.35930    0.75710    0.60600    1.000
    C155     C        0.39700    0.77100    0.45600    1.000
    H114     H        0.39510    0.79680    0.33130    1.000
    N16      N        0.43920    0.74360    0.50300    1.000
    C156     C        0.37980    0.71400    0.77500    1.000
    O30      O        0.66590    0.77650    0.12300    1.000
    C157     C        0.35780    0.68430    0.96900    1.000
    H115     H        0.32430    0.68910    0.01660    1.000
    O31      O        0.62260    0.81200    0.81300    1.000
    C158     C        0.38630    0.64750    0.09100    1.000
    C159     C        0.36530    0.61730    0.28600    1.000
    H116     H        0.33180    0.62250    0.33180    1.000
    C160     C        0.39180    0.57990    0.41400    1.000
    H117     H        0.37730    0.55990    0.54530    1.000
    C161     C        0.44120    0.57430    0.33600    1.000
    H118     H        0.46090    0.54960    0.41670    1.000
    C162     C        0.46210    0.60440    0.14200    1.000
    H119     H        0.49560    0.59920    0.09560    1.000
    C163     C        0.43570    0.64190    0.01330    1.000
    C164     C        0.45790    0.67140    0.81900    1.000
    H120     H        0.49160    0.66730    0.77470    1.000
    C165     C        0.42870    0.70700    0.69200    1.000
    C166     C        0.48690    0.75780    0.38400    1.000
    C167     C        0.57730    0.78430    0.16700    1.000
    C168     C        0.48890    0.78030    0.13600    1.000
    H121     H        0.45910    0.78630    0.04440    1.000
    C169     C        0.53400    0.79390    0.02300    1.000
    H122     H        0.53530    0.80890    0.85610    1.000
    C170     C        0.57700    0.76190    0.41400    1.000
    H123     H        0.60680    0.75580    0.50590    1.000
    C171     C        0.53100    0.74900    0.52000    1.000
    H124     H        0.52970    0.73400    0.68750    1.000
    C172     C        0.62750    0.80220    0.05900    1.000
    O32      O        0.63100    0.84200    0.92800    1.000
    C173     C        0.49680    0.80760    0.33300    1.000
    H125     H        0.47260    0.83180    0.37260    1.000
    C174     C        0.54270    0.82250    0.22200    1.000
    H126     H        0.54980    0.85610    0.18600    1.000
    C175     C        0.57070    0.73270    0.21300    1.000
    H127     H        0.59480    0.70840    0.17430    1.000
    C176     C        0.52360    0.72210    0.32300    1.000
    H128     H        0.51610    0.68860    0.35870    1.000
