data_functionalizedCrystal
_audit_creation_method	'EQeq! by Chris Wilmer'
_symmetry_space_group_name_H-M	'P1'
_symmetry_Int_Tables_number	1
_symmetry_cell_setting	triclinic
loop_
_symmetry_equiv_pos_as_xyz
  x,y,z
_cell_length_a	22.0466
_cell_length_b	22.0466
_cell_length_c	36.772
_cell_angle_alpha	90
_cell_angle_beta	90
_cell_angle_gamma	90
loop_
_atom_site_label
_atom_site_type_symbol
_atom_site_fract_x
_atom_site_fract_y
_atom_site_fract_z
_atom_site_charge
Mof_In	In	0.00059	0.7132	0.84925	2.435
Mof_In	In	0.99575	0.65139	0.76064	2.472
Mof_In	In	0.49045	0.3078	0.97784	2.922
Mof_In	In	0.99941	0.2868	0.34925	2.434
Mof_In	In	0.00425	0.34861	0.26064	2.472
Mof_In	In	0.50955	0.6922	0.47784	2.92
Mof_In	In	0.7868	0.50059	0.59925	2.435
Mof_In	In	0.84861	0.49575	0.51064	2.468
Mof_In	In	0.1922	0.99045	0.72784	2.917
Mof_In	In	0.2132	0.49941	0.09925	2.435
Mof_In	In	0.15139	0.50425	0.01064	2.465
Mof_In	In	0.8078	0.00955	0.22784	2.917
Mof_In	In	0.49941	0.2132	0.90075	2.435
Mof_In	In	0.50425	0.15139	0.98936	2.47
Mof_In	In	0.00955	0.8078	0.77216	2.917
Mof_In	In	0.50059	0.7868	0.40075	2.435
Mof_In	In	0.49575	0.84861	0.48936	2.468
Mof_In	In	0.99045	0.1922	0.27216	2.917
Mof_In	In	0.7132	0.00059	0.15075	2.436
Mof_In	In	0.65139	0.99575	0.23936	2.473
Mof_In	In	0.3078	0.49045	0.02216	2.918
Mof_In	In	0.2868	0.99941	0.65075	2.435
Mof_In	In	0.34861	0.00425	0.73936	2.473
Mof_In	In	0.6922	0.50955	0.52216	2.921
Mof_H 	H 	0.8582	0.5975	0.8873	-0.041
Mof_H 	H 	0.7797	0.5357	0.9053	0.085
Mof_H 	H 	0.7658	0.4684	0.8055	0.085
Mof_H 	H 	0.8443	0.5286	0.7878	-0.043
Mof_H 	H 	0.7043	0.4901	0.918	0.089
Mof_H 	H 	0.6303	0.428	0.9408	-0.016
Mof_H 	H 	0.64	0.331	0.8511	-0.037
Mof_H 	H 	0.7124	0.3956	0.8292	0.088
Mof_H 	H 	0.1243	0.9274	0.8242	-0.039
Mof_H 	H 	0.2004	0.9901	0.8427	0.098
Mof_H 	H 	0.2249	0.8803	0.9292	0.099
Mof_H 	H 	0.1534	0.8175	0.9072	-0.041
Mof_H 	H 	0.31	0.9957	0.8492	0.083
Mof_H 	H 	0.3842	0.0601	0.8641	-0.055
Mof_H 	H 	0.3399	0.0417	0.9695	-0.034
Mof_H 	H 	0.2622	0.9778	0.9537	0.093
Mof_H 	H 	0.8593	0.6667	0.68	-0.038
Mof_H 	H 	0.7927	0.6746	0.6319	0.091
Mof_H 	H 	0.821	0.8525	0.6282	0.092
Mof_H 	H 	0.8891	0.8459	0.6761	-0.012
Mof_H 	H 	0.7724	0.691	0.5734	0.057
Mof_H 	H 	0.6916	0.6921	0.532	-0.006
Mof_H 	H 	0.6351	0.852	0.5736	-0.014
Mof_H 	H 	0.7203	0.851	0.6112	0.074
Mof_H 	H 	0.1418	0.4025	0.3873	-0.041
Mof_H 	H 	0.2203	0.4643	0.4053	0.084
Mof_H 	H 	0.2342	0.5316	0.3055	0.085
Mof_H 	H 	0.1557	0.4714	0.2878	-0.043
Mof_H 	H 	0.2957	0.5099	0.418	0.089
Mof_H 	H 	0.3697	0.572	0.4408	-0.017
Mof_H 	H 	0.36	0.669	0.3511	-0.037
Mof_H 	H 	0.2876	0.6044	0.3292	0.088
Mof_H 	H 	0.8757	0.0726	0.3242	-0.039
Mof_H 	H 	0.7996	0.0099	0.3427	0.098
Mof_H 	H 	0.7751	0.1197	0.4292	0.099
Mof_H 	H 	0.8466	0.1825	0.4072	-0.041
Mof_H 	H 	0.69	0.0043	0.3492	0.083
Mof_H 	H 	0.6158	0.9399	0.3641	-0.055
Mof_H 	H 	0.6601	0.9583	0.4695	-0.034
Mof_H 	H 	0.7378	0.0222	0.4537	0.093
Mof_H 	H 	0.1407	0.3333	0.18	-0.038
Mof_H 	H 	0.2073	0.3254	0.1319	0.091
Mof_H 	H 	0.179	0.1475	0.1282	0.091
Mof_H 	H 	0.1109	0.1541	0.1761	-0.012
Mof_H 	H 	0.2276	0.309	0.0734	0.057
Mof_H 	H 	0.3084	0.3079	0.032	-0.007
Mof_H 	H 	0.3649	0.148	0.0736	-0.014
Mof_H 	H 	0.2797	0.149	0.1112	0.074
Mof_H 	H 	0.9025	0.3582	0.6373	-0.041
Mof_H 	H 	0.9643	0.2797	0.6553	0.085
Mof_H 	H 	0.0316	0.2658	0.5555	0.085
Mof_H 	H 	0.9714	0.3443	0.5378	-0.042
Mof_H 	H 	0.0099	0.2043	0.668	0.09
Mof_H 	H 	0.072	0.1303	0.6908	-0.016
Mof_H 	H 	0.169	0.14	0.6011	-0.036
Mof_H 	H 	0.1044	0.2124	0.5792	0.088
Mof_H 	H 	0.5726	0.6243	0.5742	-0.039
Mof_H 	H 	0.5099	0.7004	0.5927	0.098
Mof_H 	H 	0.6197	0.7249	0.6792	0.098
Mof_H 	H 	0.6825	0.6534	0.6572	-0.041
Mof_H 	H 	0.5043	0.81	0.5992	0.085
Mof_H 	H 	0.4399	0.8842	0.6141	-0.057
Mof_H 	H 	0.4583	0.8399	0.7195	-0.035
Mof_H 	H 	0.5222	0.7622	0.7037	0.093
Mof_H 	H 	0.8333	0.3593	0.43	-0.038
Mof_H 	H 	0.8254	0.2927	0.3819	0.091
Mof_H 	H 	0.6475	0.321	0.3782	0.091
Mof_H 	H 	0.6541	0.3891	0.4261	-0.012
Mof_H 	H 	0.809	0.2724	0.3234	0.057
Mof_H 	H 	0.8079	0.1916	0.282	-0.006
Mof_H 	H 	0.648	0.1351	0.3236	-0.014
Mof_H 	H 	0.649	0.2203	0.3612	0.074
Mof_H 	H 	0.0975	0.6418	0.1373	-0.041
Mof_H 	H 	0.0357	0.7203	0.1553	0.085
Mof_H 	H 	0.9684	0.7342	0.0555	0.084
Mof_H 	H 	0.0286	0.6557	0.0378	-0.043
Mof_H 	H 	0.9901	0.7957	0.168	0.09
Mof_H 	H 	0.928	0.8697	0.1908	-0.016
Mof_H 	H 	0.831	0.86	0.1011	-0.036
Mof_H 	H 	0.8956	0.7876	0.0792	0.088
Mof_H 	H 	0.4274	0.3757	0.0742	-0.039
Mof_H 	H 	0.4901	0.2996	0.0927	0.098
Mof_H 	H 	0.3803	0.2751	0.1792	0.098
Mof_H 	H 	0.3175	0.3466	0.1572	-0.041
Mof_H 	H 	0.4957	0.19	0.0992	0.085
Mof_H 	H 	0.5601	0.1158	0.1141	-0.057
Mof_H 	H 	0.5417	0.1601	0.2195	-0.035
Mof_H 	H 	0.4778	0.2378	0.2037	0.093
Mof_H 	H 	0.1667	0.6407	0.93	-0.038
Mof_H 	H 	0.1746	0.7073	0.8819	0.091
Mof_H 	H 	0.3525	0.679	0.8782	0.091
Mof_H 	H 	0.3459	0.6109	0.9261	-0.012
Mof_H 	H 	0.191	0.7276	0.8234	0.057
Mof_H 	H 	0.1921	0.8084	0.782	-0.006
Mof_H 	H 	0.352	0.8649	0.8236	-0.014
Mof_H 	H 	0.351	0.7797	0.8612	0.074
Mof_H 	H 	0.6418	0.0975	0.8627	-0.041
Mof_H 	H 	0.7203	0.0357	0.8447	0.085
Mof_H 	H 	0.7342	0.9684	0.9445	0.085
Mof_H 	H 	0.6557	0.0286	0.9622	-0.042
Mof_H 	H 	0.7957	0.9901	0.832	0.09
Mof_H 	H 	0.8697	0.928	0.8092	-0.016
Mof_H 	H 	0.86	0.831	0.8989	-0.036
Mof_H 	H 	0.7876	0.8956	0.9208	0.088
Mof_H 	H 	0.3757	0.4274	0.9258	-0.039
Mof_H 	H 	0.2996	0.4901	0.9073	0.098
Mof_H 	H 	0.2751	0.3803	0.8208	0.098
Mof_H 	H 	0.3466	0.3175	0.8428	-0.041
Mof_H 	H 	0.19	0.4957	0.9008	0.085
Mof_H 	H 	0.1158	0.5601	0.8859	-0.056
Mof_H 	H 	0.1601	0.5417	0.7805	-0.035
Mof_H 	H 	0.2378	0.4778	0.7963	0.093
Mof_H 	H 	0.6407	0.1667	0.07	-0.038
Mof_H 	H 	0.7073	0.1746	0.1181	0.091
Mof_H 	H 	0.679	0.3525	0.1218	0.091
Mof_H 	H 	0.6109	0.3459	0.0739	-0.013
Mof_H 	H 	0.7276	0.191	0.1766	0.057
Mof_H 	H 	0.8084	0.1921	0.218	-0.006
Mof_H 	H 	0.8649	0.352	0.1764	-0.014
Mof_H 	H 	0.7797	0.351	0.1388	0.074
Mof_H 	H 	0.3582	0.9025	0.3627	-0.041
Mof_H 	H 	0.2797	0.9643	0.3447	0.085
Mof_H 	H 	0.2658	0.0316	0.4445	0.085
Mof_H 	H 	0.3443	0.9714	0.4622	-0.042
Mof_H 	H 	0.2043	0.0099	0.332	0.09
Mof_H 	H 	0.1303	0.072	0.3092	-0.016
Mof_H 	H 	0.14	0.169	0.3989	-0.036
Mof_H 	H 	0.2124	0.1044	0.4208	0.088
Mof_H 	H 	0.6243	0.5726	0.4258	-0.039
Mof_H 	H 	0.7004	0.5099	0.4073	0.098
Mof_H 	H 	0.7249	0.6197	0.3208	0.098
Mof_H 	H 	0.6534	0.6825	0.3428	-0.041
Mof_H 	H 	0.81	0.5043	0.4008	0.085
Mof_H 	H 	0.8842	0.4399	0.3859	-0.057
Mof_H 	H 	0.8399	0.4583	0.2805	-0.035
Mof_H 	H 	0.7622	0.5222	0.2963	0.093
Mof_H 	H 	0.3593	0.8333	0.57	-0.038
Mof_H 	H 	0.2927	0.8254	0.6181	0.091
Mof_H 	H 	0.321	0.6475	0.6218	0.091
Mof_H 	H 	0.3891	0.6541	0.5739	-0.012
Mof_H 	H 	0.2724	0.809	0.6766	0.057
Mof_H 	H 	0.1916	0.8079	0.718	-0.006
Mof_H 	H 	0.1351	0.648	0.6764	-0.014
Mof_H 	H 	0.2203	0.649	0.6388	0.074
Mof_H 	H 	0.5975	0.8582	0.1127	-0.041
Mof_H 	H 	0.5357	0.7797	0.0947	0.084
Mof_H 	H 	0.4684	0.7658	0.1945	0.085
Mof_H 	H 	0.5286	0.8443	0.2122	-0.043
Mof_H 	H 	0.4901	0.7043	0.082	0.089
Mof_H 	H 	0.428	0.6303	0.0592	-0.017
Mof_H 	H 	0.331	0.64	0.1489	-0.037
Mof_H 	H 	0.3956	0.7124	0.1708	0.088
Mof_H 	H 	0.9274	0.1243	0.1758	-0.039
Mof_H 	H 	0.9901	0.2004	0.1573	0.098
Mof_H 	H 	0.8803	0.2249	0.0708	0.099
Mof_H 	H 	0.8175	0.1534	0.0928	-0.041
Mof_H 	H 	0.9957	0.31	0.1508	0.083
Mof_H 	H 	0.0601	0.3842	0.1359	-0.055
Mof_H 	H 	0.0417	0.3399	0.0305	-0.034
Mof_H 	H 	0.9778	0.2622	0.0463	0.093
Mof_H 	H 	0.6667	0.8593	0.32	-0.038
Mof_H 	H 	0.6746	0.7927	0.3681	0.091
Mof_H 	H 	0.8525	0.821	0.3718	0.092
Mof_H 	H 	0.8459	0.8891	0.3239	-0.012
Mof_H 	H 	0.691	0.7724	0.4266	0.057
Mof_H 	H 	0.6921	0.6916	0.468	-0.006
Mof_H 	H 	0.852	0.6351	0.4264	-0.014
Mof_H 	H 	0.851	0.7203	0.3888	0.074
Mof_H 	H 	0.4025	0.1418	0.6127	-0.041
Mof_H 	H 	0.4643	0.2203	0.5947	0.084
Mof_H 	H 	0.5316	0.2342	0.6945	0.085
Mof_H 	H 	0.4714	0.1557	0.7122	-0.043
Mof_H 	H 	0.5099	0.2957	0.582	0.089
Mof_H 	H 	0.572	0.3697	0.5592	-0.017
Mof_H 	H 	0.669	0.36	0.6489	-0.037
Mof_H 	H 	0.6044	0.2876	0.6708	0.088
Mof_H 	H 	0.0726	0.8757	0.6758	-0.039
Mof_H 	H 	0.0099	0.7996	0.6573	0.098
Mof_H 	H 	0.1197	0.7751	0.5708	0.099
Mof_H 	H 	0.1825	0.8466	0.5928	-0.041
Mof_H 	H 	0.0043	0.69	0.6508	0.083
Mof_H 	H 	0.9399	0.6158	0.6359	-0.055
Mof_H 	H 	0.9583	0.6601	0.5305	-0.034
Mof_H 	H 	0.0222	0.7378	0.5463	0.093
Mof_H 	H 	0.3333	0.1407	0.82	-0.038
Mof_H 	H 	0.3254	0.2073	0.8681	0.091
Mof_H 	H 	0.1475	0.179	0.8718	0.092
Mof_H 	H 	0.1541	0.1109	0.8239	-0.012
Mof_H 	H 	0.309	0.2276	0.9266	0.057
Mof_H 	H 	0.3079	0.3084	0.968	-0.006
Mof_H 	H 	0.148	0.3649	0.9264	-0.014
Mof_H 	H 	0.149	0.2797	0.8888	0.074
Mof_C 	C 	0.8584	0.5695	0.8357	-0.301
Mof_C 	C 	0.8402	0.5711	0.8708	0.169
Mof_C 	C 	0.7942	0.5325	0.8816	-0.196
Mof_C 	C 	0.7687	0.49	0.8594	0.075
Mof_C 	C 	0.7858	0.4924	0.8225	-0.201
Mof_C 	C 	0.8312	0.5298	0.8118	0.173
Mof_C 	C 	0.9068	0.6123	0.8241	0.638
Mof_C 	C 	0.7203	0.4477	0.8723	0.096
Mof_C 	C 	0.6928	0.4565	0.9043	-0.198
Mof_C 	C 	0.6479	0.4189	0.9185	0.16
Mof_C 	C 	0.6294	0.3682	0.8996	-0.292
Mof_C 	C 	0.6535	0.3624	0.866	0.172
Mof_C 	C 	0.6978	0.4016	0.8527	-0.206
Mof_C 	C 	0.5818	0.3294	0.9143	0.623
Mof_C 	C 	0.1324	0.866	0.8626	-0.323
Mof_C 	C 	0.1464	0.9173	0.8449	0.211
Mof_C 	C 	0.1915	0.9552	0.8559	-0.213
Mof_C 	C 	0.2253	0.9403	0.8881	0.09
Mof_C 	C 	0.2066	0.8893	0.907	-0.217
Mof_C 	C 	0.1631	0.8525	0.8944	0.197
Mof_C 	C 	0.0876	0.8237	0.8467	0.65
Mof_C 	C 	0.2763	0.9811	0.899	0.082
Mof_C 	C 	0.3151	0.0062	0.8735	-0.204
Mof_C 	C 	0.3591	0.0443	0.8821	0.18
Mof_C 	C 	0.3677	0.0608	0.9187	-0.302
Mof_C 	C 	0.3324	0.0336	0.9451	0.172
Mof_C 	C 	0.2865	0.9949	0.9358	-0.2
Mof_C 	C 	0.4164	0.1032	0.929	0.651
Mof_C 	C 	0.8799	0.7553	0.6838	-0.261
Mof_C 	C 	0.8513	0.7045	0.6699	0.154
Mof_C 	C 	0.8112	0.7092	0.6413	-0.197
Mof_C 	C 	0.7987	0.7645	0.6269	0.098
Mof_C 	C 	0.8283	0.8152	0.6391	-0.19
Mof_C 	C 	0.8692	0.8114	0.6678	0.141
Mof_C 	C 	0.9242	0.748	0.7149	0.626
Mof_C 	C 	0.7506	0.7683	0.5984	0.047
Mof_C 	C 	0.7445	0.7226	0.5738	-0.135
Mof_C 	C 	0.6957	0.7233	0.5489	0.101
Mof_C 	C 	0.6534	0.7711	0.5496	-0.23
Mof_C 	C 	0.6619	0.8194	0.5732	0.109
Mof_C 	C 	0.7123	0.8176	0.5965	-0.147
Mof_C 	C 	0.5984	0.7693	0.5259	0.599
Mof_C 	C 	0.1416	0.4305	0.3357	-0.301
Mof_C 	C 	0.1598	0.4289	0.3708	0.169
Mof_C 	C 	0.2058	0.4675	0.3816	-0.196
Mof_C 	C 	0.2313	0.51	0.3594	0.075
Mof_C 	C 	0.2142	0.5076	0.3225	-0.201
Mof_C 	C 	0.1688	0.4702	0.3118	0.173
Mof_C 	C 	0.0932	0.3877	0.3241	0.638
Mof_C 	C 	0.2797	0.5523	0.3723	0.096
Mof_C 	C 	0.3072	0.5435	0.4043	-0.198
Mof_C 	C 	0.3521	0.5811	0.4185	0.16
Mof_C 	C 	0.3706	0.6318	0.3996	-0.292
Mof_C 	C 	0.3465	0.6376	0.366	0.172
Mof_C 	C 	0.3022	0.5984	0.3527	-0.206
Mof_C 	C 	0.4182	0.6706	0.4143	0.623
Mof_C 	C 	0.8676	0.134	0.3626	-0.323
Mof_C 	C 	0.8536	0.0827	0.3449	0.211
Mof_C 	C 	0.8085	0.0448	0.3559	-0.213
Mof_C 	C 	0.7747	0.0597	0.3881	0.09
Mof_C 	C 	0.7934	0.1107	0.407	-0.217
Mof_C 	C 	0.8369	0.1475	0.3944	0.197
Mof_C 	C 	0.9124	0.1763	0.3467	0.65
Mof_C 	C 	0.7237	0.0189	0.399	0.082
Mof_C 	C 	0.6849	0.9938	0.3735	-0.205
Mof_C 	C 	0.6409	0.9557	0.3821	0.18
Mof_C 	C 	0.6323	0.9392	0.4187	-0.302
Mof_C 	C 	0.6676	0.9664	0.4451	0.172
Mof_C 	C 	0.7135	0.0051	0.4358	-0.201
Mof_C 	C 	0.5836	0.8968	0.429	0.651
Mof_C 	C 	0.1201	0.2447	0.1838	-0.261
Mof_C 	C 	0.1487	0.2955	0.1699	0.154
Mof_C 	C 	0.1888	0.2908	0.1413	-0.197
Mof_C 	C 	0.2013	0.2355	0.1269	0.098
Mof_C 	C 	0.1717	0.1848	0.1391	-0.19
Mof_C 	C 	0.1308	0.1886	0.1678	0.141
Mof_C 	C 	0.0758	0.252	0.2149	0.626
Mof_C 	C 	0.2494	0.2317	0.0984	0.048
Mof_C 	C 	0.2555	0.2774	0.0738	-0.136
Mof_C 	C 	0.3043	0.2767	0.0489	0.102
Mof_C 	C 	0.3466	0.2289	0.0496	-0.23
Mof_C 	C 	0.3381	0.1806	0.0732	0.109
Mof_C 	C 	0.2877	0.1824	0.0965	-0.147
Mof_C 	C 	0.4016	0.2307	0.0259	0.6
Mof_C 	C 	0.9305	0.3584	0.5857	-0.301
Mof_C 	C 	0.9289	0.3402	0.6208	0.169
Mof_C 	C 	0.9675	0.2942	0.6316	-0.198
Mof_C 	C 	0.01	0.2687	0.6094	0.076
Mof_C 	C 	0.0076	0.2858	0.5725	-0.2
Mof_C 	C 	0.9702	0.3312	0.5618	0.171
Mof_C 	C 	0.8877	0.4068	0.5741	0.638
Mof_C 	C 	0.0523	0.2203	0.6223	0.095
Mof_C 	C 	0.0435	0.1928	0.6543	-0.197
Mof_C 	C 	0.0811	0.1479	0.6685	0.16
Mof_C 	C 	0.1318	0.1294	0.6496	-0.291
Mof_C 	C 	0.1376	0.1535	0.616	0.172
Mof_C 	C 	0.0984	0.1978	0.6027	-0.205
Mof_C 	C 	0.1706	0.0818	0.6643	0.623
Mof_C 	C 	0.634	0.6324	0.6126	-0.322
Mof_C 	C 	0.5827	0.6464	0.5949	0.21
Mof_C 	C 	0.5448	0.6915	0.6059	-0.212
Mof_C 	C 	0.5597	0.7253	0.6381	0.088
Mof_C 	C 	0.6107	0.7066	0.657	-0.216
Mof_C 	C 	0.6475	0.6631	0.6444	0.196
Mof_C 	C 	0.6763	0.5876	0.5967	0.65
Mof_C 	C 	0.5189	0.7763	0.649	0.086
Mof_C 	C 	0.4938	0.8151	0.6235	-0.211
Mof_C 	C 	0.4557	0.8591	0.6321	0.184
Mof_C 	C 	0.4392	0.8677	0.6687	-0.304
Mof_C 	C 	0.4664	0.8324	0.6951	0.173
Mof_C 	C 	0.5051	0.7865	0.6858	-0.202
Mof_C 	C 	0.3968	0.9164	0.679	0.652
Mof_C 	C 	0.7447	0.3799	0.4338	-0.261
Mof_C 	C 	0.7955	0.3513	0.4199	0.154
Mof_C 	C 	0.7908	0.3112	0.3913	-0.197
Mof_C 	C 	0.7355	0.2987	0.3769	0.098
Mof_C 	C 	0.6848	0.3283	0.3891	-0.191
Mof_C 	C 	0.6886	0.3692	0.4178	0.141
Mof_C 	C 	0.752	0.4242	0.4649	0.625
Mof_C 	C 	0.7317	0.2506	0.3484	0.047
Mof_C 	C 	0.7774	0.2445	0.3238	-0.136
Mof_C 	C 	0.7767	0.1957	0.2989	0.101
Mof_C 	C 	0.7289	0.1534	0.2996	-0.23
Mof_C 	C 	0.6806	0.1619	0.3232	0.109
Mof_C 	C 	0.6824	0.2123	0.3465	-0.147
Mof_C 	C 	0.7307	0.0984	0.2759	0.599
Mof_C 	C 	0.0695	0.6416	0.0857	-0.301
Mof_C 	C 	0.0711	0.6598	0.1208	0.169
Mof_C 	C 	0.0325	0.7058	0.1316	-0.198
Mof_C 	C 	0.99	0.7313	0.1094	0.076
Mof_C 	C 	0.9924	0.7142	0.0725	-0.199
Mof_C 	C 	0.0298	0.6688	0.0618	0.171
Mof_C 	C 	0.1123	0.5932	0.0741	0.637
Mof_C 	C 	0.9477	0.7797	0.1223	0.095
Mof_C 	C 	0.9565	0.8072	0.1543	-0.197
Mof_C 	C 	0.9189	0.8521	0.1685	0.16
Mof_C 	C 	0.8682	0.8706	0.1496	-0.291
Mof_C 	C 	0.8624	0.8465	0.116	0.172
Mof_C 	C 	0.9016	0.8022	0.1027	-0.205
Mof_C 	C 	0.8294	0.9182	0.1643	0.623
Mof_C 	C 	0.366	0.3676	0.1126	-0.322
Mof_C 	C 	0.4173	0.3536	0.0949	0.21
Mof_C 	C 	0.4552	0.3085	0.1059	-0.212
Mof_C 	C 	0.4403	0.2747	0.1381	0.088
Mof_C 	C 	0.3893	0.2934	0.157	-0.216
Mof_C 	C 	0.3525	0.3369	0.1444	0.196
Mof_C 	C 	0.3237	0.4124	0.0967	0.65
Mof_C 	C 	0.4811	0.2237	0.149	0.086
Mof_C 	C 	0.5062	0.1849	0.1235	-0.211
Mof_C 	C 	0.5443	0.1409	0.1321	0.184
Mof_C 	C 	0.5608	0.1323	0.1687	-0.304
Mof_C 	C 	0.5336	0.1676	0.1951	0.173
Mof_C 	C 	0.4949	0.2135	0.1858	-0.202
Mof_C 	C 	0.6032	0.0836	0.179	0.652
Mof_C 	C 	0.2553	0.6201	0.9338	-0.261
Mof_C 	C 	0.2045	0.6487	0.9199	0.153
Mof_C 	C 	0.2092	0.6888	0.8913	-0.197
Mof_C 	C 	0.2645	0.7013	0.8769	0.098
Mof_C 	C 	0.3152	0.6717	0.8891	-0.19
Mof_C 	C 	0.3114	0.6308	0.9178	0.141
Mof_C 	C 	0.248	0.5758	0.9649	0.625
Mof_C 	C 	0.2683	0.7494	0.8484	0.047
Mof_C 	C 	0.2226	0.7555	0.8238	-0.136
Mof_C 	C 	0.2233	0.8043	0.7989	0.101
Mof_C 	C 	0.2711	0.8466	0.7996	-0.23
Mof_C 	C 	0.3194	0.8381	0.8232	0.109
Mof_C 	C 	0.3176	0.7877	0.8465	-0.147
Mof_C 	C 	0.2693	0.9016	0.7759	0.599
Mof_C 	C 	0.6416	0.0695	0.9143	-0.301
Mof_C 	C 	0.6598	0.0711	0.8792	0.169
Mof_C 	C 	0.7058	0.0325	0.8684	-0.198
Mof_C 	C 	0.7313	0.99	0.8906	0.076
Mof_C 	C 	0.7142	0.9924	0.9275	-0.199
Mof_C 	C 	0.6688	0.0298	0.9382	0.171
Mof_C 	C 	0.5932	0.1123	0.9259	0.638
Mof_C 	C 	0.7797	0.9477	0.8777	0.095
Mof_C 	C 	0.8072	0.9565	0.8457	-0.197
Mof_C 	C 	0.8521	0.9189	0.8315	0.16
Mof_C 	C 	0.8706	0.8682	0.8504	-0.291
Mof_C 	C 	0.8465	0.8624	0.884	0.172
Mof_C 	C 	0.8022	0.9016	0.8973	-0.205
Mof_C 	C 	0.9182	0.8294	0.8357	0.623
Mof_C 	C 	0.3676	0.366	0.8874	-0.322
Mof_C 	C 	0.3536	0.4173	0.9051	0.21
Mof_C 	C 	0.3085	0.4552	0.8941	-0.212
Mof_C 	C 	0.2747	0.4403	0.8619	0.088
Mof_C 	C 	0.2934	0.3893	0.843	-0.216
Mof_C 	C 	0.3369	0.3525	0.8556	0.196
Mof_C 	C 	0.4124	0.3237	0.9033	0.65
Mof_C 	C 	0.2237	0.4811	0.851	0.086
Mof_C 	C 	0.1849	0.5062	0.8765	-0.211
Mof_C 	C 	0.1409	0.5443	0.8679	0.184
Mof_C 	C 	0.1323	0.5608	0.8313	-0.304
Mof_C 	C 	0.1676	0.5336	0.8049	0.173
Mof_C 	C 	0.2135	0.4949	0.8142	-0.202
Mof_C 	C 	0.0836	0.6032	0.821	0.652
Mof_C 	C 	0.6201	0.2553	0.0662	-0.262
Mof_C 	C 	0.6487	0.2045	0.0801	0.154
Mof_C 	C 	0.6888	0.2092	0.1087	-0.198
Mof_C 	C 	0.7013	0.2645	0.1231	0.098
Mof_C 	C 	0.6717	0.3152	0.1109	-0.191
Mof_C 	C 	0.6308	0.3114	0.0822	0.142
Mof_C 	C 	0.5758	0.248	0.0351	0.626
Mof_C 	C 	0.7494	0.2683	0.1516	0.047
Mof_C 	C 	0.7555	0.2226	0.1762	-0.135
Mof_C 	C 	0.8043	0.2233	0.2011	0.101
Mof_C 	C 	0.8466	0.2711	0.2004	-0.23
Mof_C 	C 	0.8381	0.3194	0.1768	0.109
Mof_C 	C 	0.7877	0.3176	0.1535	-0.147
Mof_C 	C 	0.9016	0.2693	0.2241	0.599
Mof_C 	C 	0.3584	0.9305	0.4143	-0.301
Mof_C 	C 	0.3402	0.9289	0.3792	0.169
Mof_C 	C 	0.2942	0.9675	0.3684	-0.198
Mof_C 	C 	0.2687	0.01	0.3906	0.076
Mof_C 	C 	0.2858	0.0076	0.4275	-0.199
Mof_C 	C 	0.3312	0.9702	0.4382	0.171
Mof_C 	C 	0.4068	0.8877	0.4259	0.638
Mof_C 	C 	0.2203	0.0523	0.3777	0.095
Mof_C 	C 	0.1928	0.0435	0.3457	-0.197
Mof_C 	C 	0.1479	0.0811	0.3315	0.16
Mof_C 	C 	0.1294	0.1318	0.3504	-0.291
Mof_C 	C 	0.1535	0.1376	0.384	0.172
Mof_C 	C 	0.1978	0.0984	0.3973	-0.205
Mof_C 	C 	0.0818	0.1706	0.3357	0.623
Mof_C 	C 	0.6324	0.634	0.3874	-0.322
Mof_C 	C 	0.6464	0.5827	0.4051	0.21
Mof_C 	C 	0.6915	0.5448	0.3941	-0.212
Mof_C 	C 	0.7253	0.5597	0.3619	0.088
Mof_C 	C 	0.7066	0.6107	0.343	-0.216
Mof_C 	C 	0.6631	0.6475	0.3556	0.196
Mof_C 	C 	0.5876	0.6763	0.4033	0.65
Mof_C 	C 	0.7763	0.5189	0.351	0.086
Mof_C 	C 	0.8151	0.4938	0.3765	-0.211
Mof_C 	C 	0.8591	0.4557	0.3679	0.184
Mof_C 	C 	0.8677	0.4392	0.3313	-0.304
Mof_C 	C 	0.8324	0.4664	0.3049	0.173
Mof_C 	C 	0.7865	0.5051	0.3142	-0.202
Mof_C 	C 	0.9164	0.3968	0.321	0.652
Mof_C 	C 	0.3799	0.7447	0.5662	-0.261
Mof_C 	C 	0.3513	0.7955	0.5801	0.154
Mof_C 	C 	0.3112	0.7908	0.6087	-0.197
Mof_C 	C 	0.2987	0.7355	0.6231	0.098
Mof_C 	C 	0.3283	0.6848	0.6109	-0.191
Mof_C 	C 	0.3692	0.6886	0.5822	0.141
Mof_C 	C 	0.4242	0.752	0.5351	0.625
Mof_C 	C 	0.2506	0.7317	0.6516	0.047
Mof_C 	C 	0.2445	0.7774	0.6762	-0.136
Mof_C 	C 	0.1957	0.7767	0.7011	0.101
Mof_C 	C 	0.1534	0.7289	0.7004	-0.23
Mof_C 	C 	0.1619	0.6806	0.6768	0.109
Mof_C 	C 	0.2123	0.6824	0.6535	-0.147
Mof_C 	C 	0.0984	0.7307	0.7241	0.599
Mof_C 	C 	0.5695	0.8584	0.1643	-0.301
Mof_C 	C 	0.5711	0.8402	0.1292	0.169
Mof_C 	C 	0.5325	0.7942	0.1184	-0.196
Mof_C 	C 	0.49	0.7687	0.1406	0.075
Mof_C 	C 	0.4924	0.7858	0.1775	-0.201
Mof_C 	C 	0.5298	0.8312	0.1882	0.173
Mof_C 	C 	0.6123	0.9068	0.1759	0.638
Mof_C 	C 	0.4477	0.7203	0.1277	0.095
Mof_C 	C 	0.4565	0.6928	0.0957	-0.198
Mof_C 	C 	0.4189	0.6479	0.0815	0.16
Mof_C 	C 	0.3682	0.6294	0.1004	-0.292
Mof_C 	C 	0.3624	0.6535	0.134	0.172
Mof_C 	C 	0.4016	0.6978	0.1473	-0.206
Mof_C 	C 	0.3294	0.5818	0.0857	0.623
Mof_C 	C 	0.866	0.1324	0.1374	-0.323
Mof_C 	C 	0.9173	0.1464	0.1551	0.211
Mof_C 	C 	0.9552	0.1915	0.1441	-0.213
Mof_C 	C 	0.9403	0.2253	0.1119	0.09
Mof_C 	C 	0.8893	0.2066	0.093	-0.217
Mof_C 	C 	0.8525	0.1631	0.1056	0.197
Mof_C 	C 	0.8237	0.0876	0.1533	0.65
Mof_C 	C 	0.9811	0.2763	0.101	0.082
Mof_C 	C 	0.0062	0.3151	0.1265	-0.205
Mof_C 	C 	0.0443	0.3591	0.1179	0.18
Mof_C 	C 	0.0608	0.3677	0.0813	-0.302
Mof_C 	C 	0.0336	0.3324	0.0549	0.172
Mof_C 	C 	0.9949	0.2865	0.0642	-0.201
Mof_C 	C 	0.1032	0.4164	0.071	0.651
Mof_C 	C 	0.7553	0.8799	0.3162	-0.261
Mof_C 	C 	0.7045	0.8513	0.3301	0.154
Mof_C 	C 	0.7092	0.8112	0.3587	-0.197
Mof_C 	C 	0.7645	0.7987	0.3731	0.098
Mof_C 	C 	0.8152	0.8283	0.3609	-0.19
Mof_C 	C 	0.8114	0.8692	0.3322	0.141
Mof_C 	C 	0.748	0.9242	0.2851	0.626
Mof_C 	C 	0.7683	0.7506	0.4016	0.047
Mof_C 	C 	0.7226	0.7445	0.4262	-0.135
Mof_C 	C 	0.7233	0.6957	0.4511	0.101
Mof_C 	C 	0.7711	0.6534	0.4504	-0.23
Mof_C 	C 	0.8194	0.6619	0.4268	0.109
Mof_C 	C 	0.8176	0.7123	0.4035	-0.147
Mof_C 	C 	0.7693	0.5984	0.4741	0.599
Mof_C 	C 	0.4305	0.1416	0.6643	-0.301
Mof_C 	C 	0.4289	0.1598	0.6292	0.169
Mof_C 	C 	0.4675	0.2058	0.6184	-0.196
Mof_C 	C 	0.51	0.2313	0.6406	0.075
Mof_C 	C 	0.5076	0.2142	0.6775	-0.201
Mof_C 	C 	0.4702	0.1688	0.6882	0.173
Mof_C 	C 	0.3877	0.0932	0.6759	0.638
Mof_C 	C 	0.5523	0.2797	0.6277	0.096
Mof_C 	C 	0.5435	0.3072	0.5957	-0.198
Mof_C 	C 	0.5811	0.3521	0.5815	0.16
Mof_C 	C 	0.6318	0.3706	0.6004	-0.292
Mof_C 	C 	0.6376	0.3465	0.634	0.172
Mof_C 	C 	0.5984	0.3022	0.6473	-0.206
Mof_C 	C 	0.6706	0.4182	0.5857	0.623
Mof_C 	C 	0.134	0.8676	0.6374	-0.323
Mof_C 	C 	0.0827	0.8536	0.6551	0.211
Mof_C 	C 	0.0448	0.8085	0.6441	-0.213
Mof_C 	C 	0.0597	0.7747	0.6119	0.09
Mof_C 	C 	0.1107	0.7934	0.593	-0.217
Mof_C 	C 	0.1475	0.8369	0.6056	0.197
Mof_C 	C 	0.1763	0.9124	0.6533	0.65
Mof_C 	C 	0.0189	0.7237	0.601	0.082
Mof_C 	C 	0.9938	0.6849	0.6265	-0.205
Mof_C 	C 	0.9557	0.6409	0.6179	0.18
Mof_C 	C 	0.9392	0.6323	0.5813	-0.302
Mof_C 	C 	0.9664	0.6676	0.5549	0.172
Mof_C 	C 	0.0051	0.7135	0.5642	-0.201
Mof_C 	C 	0.8968	0.5836	0.571	0.651
Mof_C 	C 	0.2447	0.1201	0.8162	-0.261
Mof_C 	C 	0.2955	0.1487	0.8301	0.154
Mof_C 	C 	0.2908	0.1888	0.8587	-0.198
Mof_C 	C 	0.2355	0.2013	0.8731	0.098
Mof_C 	C 	0.1848	0.1717	0.8609	-0.19
Mof_C 	C 	0.1886	0.1308	0.8322	0.141
Mof_C 	C 	0.252	0.0758	0.7851	0.626
Mof_C 	C 	0.2317	0.2494	0.9016	0.047
Mof_C 	C 	0.2774	0.2555	0.9262	-0.135
Mof_C 	C 	0.2767	0.3043	0.9511	0.101
Mof_C 	C 	0.2289	0.3466	0.9504	-0.229
Mof_C 	C 	0.1806	0.3381	0.9268	0.109
Mof_C 	C 	0.1824	0.2877	0.9035	-0.146
Mof_C 	C 	0.2307	0.4016	0.9741	0.599
Mof_C 	C 	0.4147	0.4147	-0	0.284
Mof_C 	C 	0.5853	0.5853	0.5	0.285
Mof_C 	C 	0.0853	0.9147	0.75	0.285
Mof_C 	C 	0.9147	0.0853	0.25	0.285
Mof_O 	O 	0.9249	0.6068	0.7918	-0.728
Mof_O 	O 	0.9255	0.6488	0.8468	-0.733
Mof_O 	O 	0.5627	0.2879	0.8936	-0.716
Mof_O 	O 	0.565	0.3406	0.9465	-0.752
Mof_O 	O 	0.0734	0.7758	0.8627	-0.728
Mof_O 	O 	0.0662	0.839	0.81616	-0.761
Mof_O 	O 	0.4355	0.101	0.9609	-0.743
Mof_O 	O 	0.4362	0.1369	0.9048	-0.733
Mof_O 	O 	0.9505	0.7951	0.72575	-0.749
Mof_O 	O 	0.9295	0.6962	0.7274	-0.755
Mof_O 	O 	0.5889	0.7207	0.50828	-0.743
Mof_O 	O 	0.5647	0.8145	0.5261	-0.732
Mof_O 	O 	0.4738	0.3981	0.9978	-0.574
Mof_O 	O 	0.0018	0.724	0.7945	-1.374
Mof_O 	O 	0.0751	0.3932	0.2918	-0.728
Mof_O 	O 	0.0745	0.3512	0.3468	-0.733
Mof_O 	O 	0.4373	0.7121	0.3936	-0.716
Mof_O 	O 	0.435	0.6594	0.4465	-0.752
Mof_O 	O 	0.9266	0.2242	0.3627	-0.728
Mof_O 	O 	0.9338	0.161	0.31616	-0.761
Mof_O 	O 	0.5645	0.899	0.4609	-0.743
Mof_O 	O 	0.5638	0.8631	0.4048	-0.733
Mof_O 	O 	0.0495	0.2049	0.22575	-0.749
Mof_O 	O 	0.0705	0.3038	0.2274	-0.755
Mof_O 	O 	0.4111	0.2793	0.00828	-0.744
Mof_O 	O 	0.4353	0.1855	0.0261	-0.733
Mof_O 	O 	0.5262	0.6019	0.4978	-0.574
Mof_O 	O 	0.9982	0.276	0.2945	-1.374
Mof_O 	O 	0.8932	0.4249	0.5418	-0.728
Mof_O 	O 	0.8512	0.4255	0.5968	-0.733
Mof_O 	O 	0.2121	0.0627	0.6436	-0.715
Mof_O 	O 	0.1594	0.065	0.6965	-0.751
Mof_O 	O 	0.7242	0.5734	0.6127	-0.728
Mof_O 	O 	0.661	0.5662	0.56616	-0.761
Mof_O 	O 	0.399	0.9355	0.7109	-0.744
Mof_O 	O 	0.3631	0.9362	0.6548	-0.733
Mof_O 	O 	0.7049	0.4505	0.47575	-0.751
Mof_O 	O 	0.8038	0.4295	0.4774	-0.755
Mof_O 	O 	0.7793	0.0889	0.25828	-0.743
Mof_O 	O 	0.6855	0.0647	0.2761	-0.733
Mof_O 	O 	0.1019	0.9738	0.7478	-0.574
Mof_O 	O 	0.776	0.5018	0.5445	-1.373
Mof_O 	O 	0.1068	0.5751	0.0418	-0.728
Mof_O 	O 	0.1488	0.5745	0.0968	-0.733
Mof_O 	O 	0.7879	0.9373	0.1436	-0.715
Mof_O 	O 	0.8406	0.935	0.1965	-0.751
Mof_O 	O 	0.2758	0.4266	0.1127	-0.728
Mof_O 	O 	0.339	0.4338	0.06616	-0.76
Mof_O 	O 	0.601	0.0645	0.2109	-0.744
Mof_O 	O 	0.6369	0.0638	0.1548	-0.733
Mof_O 	O 	0.2951	0.5495	0.97575	-0.749
Mof_O 	O 	0.1962	0.5705	0.9774	-0.754
Mof_O 	O 	0.2207	0.9111	0.75828	-0.743
Mof_O 	O 	0.3145	0.9353	0.7761	-0.733
Mof_O 	O 	0.8981	0.0262	0.2478	-0.574
Mof_O 	O 	0.224	0.4982	0.0445	-1.373
Mof_O 	O 	0.5751	0.1068	0.9582	-0.728
Mof_O 	O 	0.5745	0.1488	0.9032	-0.733
Mof_O 	O 	0.9373	0.7879	0.8564	-0.715
Mof_O 	O 	0.935	0.8406	0.8035	-0.751
Mof_O 	O 	0.4266	0.2758	0.8873	-0.728
Mof_O 	O 	0.4338	0.339	0.93384	-0.761
Mof_O 	O 	0.0645	0.601	0.7891	-0.744
Mof_O 	O 	0.0638	0.6369	0.8452	-0.733
Mof_O 	O 	0.5495	0.2951	0.02425	-0.751
Mof_O 	O 	0.5705	0.1962	0.0226	-0.756
Mof_O 	O 	0.9111	0.2207	0.24172	-0.743
Mof_O 	O 	0.9353	0.3145	0.2239	-0.733
Mof_O 	O 	0.0262	0.8981	0.7522	-0.574
Mof_O 	O 	0.4982	0.224	0.9555	-1.374
Mof_O 	O 	0.4249	0.8932	0.4582	-0.728
Mof_O 	O 	0.4255	0.8512	0.4032	-0.733
Mof_O 	O 	0.0627	0.2121	0.3564	-0.715
Mof_O 	O 	0.065	0.1594	0.3035	-0.751
Mof_O 	O 	0.5734	0.7242	0.3873	-0.728
Mof_O 	O 	0.5662	0.661	0.43384	-0.761
Mof_O 	O 	0.9355	0.399	0.2891	-0.744
Mof_O 	O 	0.9362	0.3631	0.3452	-0.733
Mof_O 	O 	0.4505	0.7049	0.52425	-0.751
Mof_O 	O 	0.4295	0.8038	0.5226	-0.755
Mof_O 	O 	0.0889	0.7793	0.74172	-0.743
Mof_O 	O 	0.0647	0.6855	0.7239	-0.733
Mof_O 	O 	0.9738	0.1019	0.2522	-0.574
Mof_O 	O 	0.5018	0.776	0.4555	-1.373
Mof_O 	O 	0.6068	0.9249	0.2082	-0.728
Mof_O 	O 	0.6488	0.9255	0.1532	-0.733
Mof_O 	O 	0.2879	0.5627	0.1064	-0.716
Mof_O 	O 	0.3406	0.565	0.0535	-0.752
Mof_O 	O 	0.7758	0.0734	0.1373	-0.728
Mof_O 	O 	0.839	0.0662	0.18384	-0.761
Mof_O 	O 	0.101	0.4355	0.0391	-0.743
Mof_O 	O 	0.1369	0.4362	0.0952	-0.733
Mof_O 	O 	0.7951	0.9505	0.27425	-0.749
Mof_O 	O 	0.6962	0.9295	0.2726	-0.755
Mof_O 	O 	0.7207	0.5889	0.49172	-0.743
Mof_O 	O 	0.8145	0.5647	0.4739	-0.732
Mof_O 	O 	0.3981	0.4738	0.0022	-0.574
Mof_O 	O 	0.724	0.0018	0.2055	-1.374
Mof_O 	O 	0.3932	0.0751	0.7082	-0.728
Mof_O 	O 	0.3512	0.0745	0.6532	-0.733
Mof_O 	O 	0.7121	0.4373	0.6064	-0.716
Mof_O 	O 	0.6594	0.435	0.5535	-0.752
Mof_O 	O 	0.2242	0.9266	0.6373	-0.728
Mof_O 	O 	0.161	0.9338	0.68384	-0.761
Mof_O 	O 	0.899	0.5645	0.5391	-0.743
Mof_O 	O 	0.8631	0.5638	0.5952	-0.733
Mof_O 	O 	0.2049	0.0495	0.77425	-0.749
Mof_O 	O 	0.3038	0.0705	0.7726	-0.755
Mof_O 	O 	0.2793	0.4111	0.99172	-0.742
Mof_O 	O 	0.1855	0.4353	0.9739	-0.731
Mof_O 	O 	0.6019	0.5262	0.5022	-0.574
Mof_O 	O 	0.276	0.9982	0.7055	-1.374
_end
