data_functionalizedCrystal
_audit_creation_method	'EQeq! by Chris Wilmer'
_symmetry_space_group_name_H-M	'P1'
_symmetry_Int_Tables_number	1
_symmetry_cell_setting	triclinic
loop_
_symmetry_equiv_pos_as_xyz
  x,y,z
_cell_length_a	15.8555
_cell_length_b	28.677
_cell_length_c	21.4018
_cell_angle_alpha	90
_cell_angle_beta	90
_cell_angle_gamma	90
loop_
_atom_site_label
_atom_site_type_symbol
_atom_site_fract_x
_atom_site_fract_y
_atom_site_fract_z
_atom_site_charge
Mof_Cd	Cd	0.97155	0.29537	0.2601	0.502
Mof_Cd	Cd	0.2391	0.24674	0.73737	0.435
Mof_Cd	Cd	0.02845	0.29537	0.7399	0.502
Mof_Cd	Cd	0.48609	0.20862	0.24313	0.51
Mof_Cd	Cd	0.7609	0.24674	0.26263	0.435
Mof_Cd	Cd	0.02845	0.70463	0.7601	0.502
Mof_Cd	Cd	0.7609	0.75326	0.23737	0.435
Mof_Cd	Cd	0.48609	0.79138	0.25687	0.51
Mof_Cd	Cd	0.51391	0.20862	0.75687	0.51
Mof_Cd	Cd	0.97155	0.70463	0.2399	0.502
Mof_Cd	Cd	0.51391	0.79138	0.74313	0.511
Mof_Cd	Cd	0.2391	0.75326	0.76263	0.436
Mof_H 	H 	0.6891	0.4843	0.3233	0.078
Mof_H 	H 	0.0707	0.0842	0.3775	0.077
Mof_H 	H 	0.5928	0.4012	0.1894	0.08
Mof_H 	H 	0.8019	0.9727	0.8267	0.077
Mof_H 	H 	0.8613	0.0741	0.1019	0.077
Mof_H 	H 	0.144	0.5757	0.323	0.045
Mof_H 	H 	0.865	0.099	0.4855	0.079
Mof_H 	H 	0.0348	0.0047	0.8952	0.059
Mof_H 	H 	0.5979	0.6114	0.463	0.081
Mof_H 	H 	0.378	0.6116	0.015	0.08
Mof_H 	H 	0.9547	0.8423	0.8355	0.041
Mof_H 	H 	0.1631	0.169	0.5616	0.039
Mof_H 	H 	0.3411	0.0761	0.8233	0.038
Mof_H 	H 	0.1631	0.831	0.9384	0.039
Mof_H 	H 	0.1264	0.0941	0.6796	0.084
Mof_H 	H 	0.6484	0.4074	0.673	0.076
Mof_H 	H 	0.856	0.5757	0.677	0.045
Mof_H 	H 	0.3411	0.9239	0.6767	0.038
Mof_H 	H 	0.7636	0.6411	0.828	0.051
Mof_H 	H 	0.0107	0.9202	0.7429	0.062
Mof_H 	H 	0.865	0.901	0.0145	0.079
Mof_H 	H 	0.5264	0.4961	0.6061	0.059
Mof_H 	H 	0.1981	0.9727	0.1733	0.077
Mof_H 	H 	0.2364	0.3589	0.328	0.051
Mof_H 	H 	0.6413	0.3167	0.5642	0.045
Mof_H 	H 	0.2327	0.9777	0.6808	0.079
Mof_H 	H 	0.7616	0.8684	0.6641	0.041
Mof_H 	H 	0.8369	0.169	0.4384	0.039
Mof_H 	H 	0.1207	0.9152	0.3346	0.079
Mof_H 	H 	0.1387	0.0741	0.8981	0.077
Mof_H 	H 	0.2384	0.1316	0.1641	0.041
Mof_H 	H 	0.4305	0.4174	0.6278	0.079
Mof_H 	H 	0.7047	0.3499	0.2019	0.03
Mof_H 	H 	0.6484	0.5926	0.827	0.076
Mof_H 	H 	0.5905	0.3188	0.0896	0.039
Mof_H 	H 	0.197	0.5666	0.8334	0.041
Mof_H 	H 	0.9547	0.1577	0.6645	0.041
Mof_H 	H 	0.3109	0.4843	0.6767	0.078
Mof_H 	H 	0.5905	0.6812	0.4104	0.039
Mof_H 	H 	0.3587	0.6833	0.0642	0.045
Mof_H 	H 	0.7673	0.0223	0.1808	0.079
Mof_H 	H 	0.2953	0.6501	0.7019	0.03
Mof_H 	H 	0.5979	0.3886	0.037	0.081
Mof_H 	H 	0.9893	0.9202	0.2571	0.062
Mof_H 	H 	0.8369	0.831	0.0616	0.039
Mof_H 	H 	0.5543	0.6547	0.1766	0.035
Mof_H 	H 	0.0707	0.9158	0.1225	0.077
Mof_H 	H 	0.4736	0.5039	0.1061	0.059
Mof_H 	H 	0.7047	0.6501	0.2981	0.03
Mof_H 	H 	0.5928	0.5988	0.3106	0.08
Mof_H 	H 	0.2325	0.1474	0.6828	0.033
Mof_H 	H 	0.6848	0.9232	0.8262	0.041
Mof_H 	H 	0.8736	0.0941	0.3204	0.084
Mof_H 	H 	0.841	0.1399	0.1599	0.038
Mof_H 	H 	0.8793	0.0848	0.8346	0.079
Mof_H 	H 	0.3783	0.5719	0.3881	0.076
Mof_H 	H 	0.2568	0.4754	0.1797	0.074
Mof_H 	H 	0.3152	0.9232	0.1738	0.041
Mof_H 	H 	0.6589	0.9239	0.3233	0.038
Mof_H 	H 	0.856	0.4243	0.823	0.045
Mof_H 	H 	0.6262	0.6407	0.668	0.043
Mof_H 	H 	0.4457	0.3453	0.6766	0.035
Mof_H 	H 	0.2364	0.6411	0.172	0.051
Mof_H 	H 	0.622	0.6116	0.985	0.08
Mof_H 	H 	0.2568	0.5246	0.3203	0.074
Mof_H 	H 	0.4305	0.5826	0.8722	0.079
Mof_H 	H 	0.7432	0.5246	0.6797	0.074
Mof_H 	H 	0.6262	0.3593	0.832	0.043
Mof_H 	H 	0.9342	0.1888	0.8919	0.042
Mof_H 	H 	0.3516	0.5926	0.173	0.076
Mof_H 	H 	0.8019	0.0273	0.6733	0.077
Mof_H 	H 	0.159	0.8601	0.6599	0.038
Mof_H 	H 	0.841	0.8601	0.3401	0.038
Mof_H 	H 	0.0348	0.9953	0.6048	0.059
Mof_H 	H 	0.197	0.4334	0.6666	0.041
Mof_H 	H 	0.1264	0.9059	0.8204	0.084
Mof_H 	H 	0.7673	0.9777	0.3192	0.079
Mof_H 	H 	0.7432	0.4754	0.8203	0.074
Mof_H 	H 	0.5267	0.5803	0.7554	0.06
Mof_H 	H 	0.4457	0.6547	0.8234	0.035
Mof_H 	H 	0.5267	0.4197	0.7446	0.06
Mof_H 	H 	0.4021	0.6114	0.537	0.081
Mof_H 	H 	0.9293	0.0842	0.6225	0.077
Mof_H 	H 	0.1207	0.0848	0.1654	0.079
Mof_H 	H 	0.4072	0.4012	0.8106	0.08
Mof_H 	H 	0.4095	0.6812	0.5896	0.039
Mof_H 	H 	0.9342	0.8112	0.6081	0.042
Mof_H 	H 	0.378	0.3884	0.485	0.08
Mof_H 	H 	0.6891	0.5157	0.1767	0.078
Mof_H 	H 	0.8736	0.9059	0.1796	0.084
Mof_H 	H 	0.3783	0.4281	0.1119	0.076
Mof_H 	H 	0.5543	0.3453	0.3234	0.035
Mof_H 	H 	0.0853	0.8763	0.454	0.08
Mof_H 	H 	0.7675	0.8526	0.1828	0.033
Mof_H 	H 	0.5695	0.4174	0.3722	0.079
Mof_H 	H 	0.3152	0.0768	0.3262	0.041
Mof_H 	H 	0.9293	0.9158	0.8775	0.077
Mof_H 	H 	0.9652	0.9953	0.3952	0.059
Mof_H 	H 	0.5695	0.5826	0.1278	0.079
Mof_H 	H 	0.6589	0.0761	0.1767	0.038
Mof_H 	H 	0.4736	0.4961	0.3939	0.059
Mof_H 	H 	0.135	0.099	0.5145	0.079
Mof_H 	H 	0.9893	0.0798	0.2429	0.062
Mof_H 	H 	0.9147	0.8763	0.546	0.08
Mof_H 	H 	0.6848	0.0768	0.6738	0.041
Mof_H 	H 	0.5264	0.5039	0.8939	0.059
Mof_H 	H 	0.144	0.4243	0.177	0.045
Mof_H 	H 	0.4733	0.4197	0.2554	0.06
Mof_H 	H 	0.3516	0.4074	0.327	0.076
Mof_H 	H 	0.4072	0.5988	0.6894	0.08
Mof_H 	H 	0.6413	0.6833	0.9358	0.045
Mof_H 	H 	0.4733	0.5803	0.2446	0.06
Mof_H 	H 	0.2327	0.0223	0.8192	0.079
Mof_H 	H 	0.4095	0.3188	0.9104	0.039
Mof_H 	H 	0.803	0.5666	0.1666	0.041
Mof_H 	H 	0.8613	0.9259	0.3981	0.077
Mof_H 	H 	0.0853	0.1237	0.046	0.08
Mof_H 	H 	0.2384	0.8684	0.3359	0.041
Mof_H 	H 	0.3738	0.6407	0.332	0.043
Mof_H 	H 	0.1387	0.9259	0.6019	0.077
Mof_H 	H 	0.9147	0.1237	0.954	0.08
Mof_H 	H 	0.7616	0.1316	0.8359	0.041
Mof_H 	H 	0.3109	0.5157	0.8233	0.078
Mof_H 	H 	0.7636	0.3589	0.672	0.051
Mof_H 	H 	0.7675	0.1474	0.3172	0.033
Mof_H 	H 	0.0107	0.0798	0.7571	0.062
Mof_H 	H 	0.3738	0.3593	0.168	0.043
Mof_H 	H 	0.2953	0.3499	0.7981	0.03
Mof_H 	H 	0.6217	0.5719	0.6119	0.076
Mof_H 	H 	0.0453	0.1577	0.3355	0.041
Mof_H 	H 	0.6217	0.4281	0.8881	0.076
Mof_H 	H 	0.8793	0.9152	0.6654	0.079
Mof_H 	H 	0.622	0.3884	0.515	0.08
Mof_H 	H 	0.3587	0.3167	0.4358	0.045
Mof_H 	H 	0.1981	0.0273	0.3267	0.077
Mof_H 	H 	0.135	0.901	0.9855	0.079
Mof_H 	H 	0.803	0.4334	0.3334	0.041
Mof_H 	H 	0.0453	0.8423	0.1645	0.041
Mof_H 	H 	0.4021	0.3886	0.963	0.081
Mof_H 	H 	0.159	0.1399	0.8401	0.038
Mof_H 	H 	0.2325	0.8526	0.8172	0.033
Mof_H 	H 	0.9652	0.0047	0.1048	0.059
Mof_H 	H 	0.0658	0.8112	0.3919	0.042
Mof_H 	H 	0.0658	0.1888	0.1081	0.042
Mof_C 	C 	0.7238	0.07845	0.7062	0.037
Mof_C 	C 	0.7462	0.5485	0.709	-0.105
Mof_C 	C 	0.3639	0.84487	0.7428	0.31
Mof_C 	C 	0.3723	0.4469	0.74377	0.062
Mof_C 	C 	0.9186	0.21653	0.3512	0.335
Mof_C 	C 	0.526	0.71402	0.6694	0.311
Mof_C 	C 	0.2891	0.89027	0.254	-0.091
Mof_C 	C 	0.3723	0.5531	0.75623	0.062
Mof_C 	C 	0.0127	0.03752	0.53151	-0.008
Mof_C 	C 	0.4928	0.46063	0.03257	-0.009
Mof_C 	C 	0.1454	0.94721	0.2535	0.065
Mof_C 	C 	0.4136	0.37994	0.4524	-0.112
Mof_C 	C 	0.2538	0.4515	0.209	-0.105
Mof_C 	C 	0.0656	0.21313	0.81844	0.325
Mof_C 	C 	0.0504	0.17099	0.8603	-0.094
Mof_C 	C 	0.4908	0.54546	0.03169	-0.009
Mof_C 	C 	0.2399	0.42669	0.6948	0.033
Mof_C 	C 	0.5438	0.32317	0.62546	-0.088
Mof_C 	C 	0.2053	0.04895	0.2948	-0.114
Mof_C 	C 	0.9787	0.99523	0.4375	-0.067
Mof_C 	C 	0.47297	0.54785	0.24643	-0.069
Mof_C 	C 	0.9636	0.12647	0.9303	-0.117
Mof_C 	C 	0.4136	0.62006	0.0476	-0.112
Mof_C 	C 	0.2053	0.95105	0.2052	-0.114
Mof_C 	C 	0.5817	0.63515	0.6407	0.029
Mof_C 	C 	0.7109	0.89027	0.746	-0.091
Mof_C 	C 	0.7029	0.0802	0.205	0.039
Mof_C 	C 	0.1593	0.08313	0.1981	-0.119
Mof_C 	C 	0.7601	0.57331	0.1948	0.033
Mof_C 	C 	0.448	0.38268	0.93716	-0.118
Mof_C 	C 	0.0243	0.16592	0.1061	0.034
Mof_C 	C 	0.0814	0.78347	0.8512	0.335
Mof_C 	C 	0.4803	0.66853	0.3665	-0.091
Mof_C 	C 	0.5094	0.58442	0.5685	0.064
Mof_C 	C 	0.52703	0.45215	0.74643	-0.069
Mof_C 	C 	0.2982	0.62327	0.7262	0.037
Mof_C 	C 	0.6387	0.14321	0.7544	0.324
Mof_C 	C 	0.0973	0.09706	0.8975	-0.118
Mof_C 	C 	0.0105	0.95313	0.53218	-0.009
Mof_C 	C 	0.7592	0.38191	0.7024	0.026
Mof_C 	C 	0.9496	0.82901	0.3603	-0.094
Mof_C 	C 	0.9636	0.87353	0.5697	-0.117
Mof_C 	C 	0.3659	0.59261	0.7192	-0.12
Mof_C 	C 	0.9756	0.1014	0.6091	-0.116
Mof_C 	C 	0.0364	0.87353	0.4303	-0.117
Mof_C 	C 	0.4803	0.33147	0.1335	-0.091
Mof_C 	C 	0.4502	0.52416	0.75248	-0.011
Mof_C 	C 	0.4724	0.60292	0.8856	-0.12
Mof_C 	C 	0.5542	0.72345	0.8446	0.312
Mof_C 	C 	0.2762	0.92155	0.2062	0.037
Mof_C 	C 	0.1593	0.91687	0.3019	-0.119
Mof_C 	C 	0.6341	0.40739	0.2192	-0.12
Mof_C 	C 	0.5498	0.47584	0.25248	-0.011
Mof_C 	C 	0.5159	0.50356	0.9366	-0.066
Mof_C 	C 	0.9756	0.8986	0.8909	-0.116
Mof_C 	C 	0.6361	0.84487	0.2572	0.31
Mof_C 	C 	0.0291	0.08336	0.56317	0.062
Mof_C 	C 	0.4183	0.36485	0.1407	0.029
Mof_C 	C 	0.9757	0.83408	0.6061	0.034
Mof_C 	C 	0.0663	0.97538	0.25203	-0.011
Mof_C 	C 	0.526	0.28598	0.8306	0.311
Mof_C 	C 	0.5276	0.60292	0.1144	-0.12
Mof_C 	C 	0.4841	0.49644	0.4366	-0.066
Mof_C 	C 	0.7018	0.37673	0.2262	0.037
Mof_C 	C 	0.6904	0.41126	0.7029	-0.104
Mof_C 	C 	0.4817	0.35351	0.64416	0.034
Mof_C 	C 	0.3613	0.14321	0.2456	0.324
Mof_C 	C 	0.232	0.04798	0.79263	-0.121
Mof_C 	C 	0.552	0.38268	0.06284	-0.118
Mof_C 	C 	0.9337	0.97538	0.74797	-0.011
Mof_C 	C 	0.8965	0.64586	0.7525	0.294
Mof_C 	C 	0.9186	0.78347	0.1488	0.335
Mof_C 	C 	0.2324	0.87713	0.78887	0.048
Mof_C 	C 	0.9918	0.14537	0.6352	0.035
Mof_C 	C 	0.2357	0.61375	0.7692	-0.097
Mof_C 	C 	0.9709	0.91664	0.06317	0.062
Mof_C 	C 	0.5276	0.39708	0.3856	-0.12
Mof_C 	C 	0.099	0.11004	0.5455	-0.114
Mof_C 	C 	0.4906	0.58442	0.4315	0.064
Mof_C 	C 	0.0234	0.90901	0.56803	0.062
Mof_C 	C 	0.1651	0.05382	0.7506	0.068
Mof_C 	C 	0.1153	0.84771	0.9268	0.038
Mof_C 	C 	0.8847	0.84771	0.0732	0.038
Mof_C 	C 	0.524	0.41015	0.56583	0.066
Mof_C 	C 	0.185	0.57869	0.2922	0.023
Mof_C 	C 	0.5542	0.27655	0.6554	0.312
Mof_C 	C 	0.7947	0.95105	0.7948	-0.114
Mof_C 	C 	0.91135	0.02402	0.24859	-0.012
Mof_C 	C 	0.0656	0.78687	0.68156	0.325
Mof_C 	C 	0.8907	0.86349	0.3627	0.038
Mof_C 	C 	0.23	0.11125	0.1974	0.039
Mof_C 	C 	0.08865	0.97598	0.74859	-0.012
Mof_C 	C 	0.2538	0.5485	0.291	-0.105
Mof_C 	C 	0.0213	0.00477	0.9375	-0.067
Mof_C 	C 	0.4458	0.27655	0.3446	0.312
Mof_C 	C 	0.1093	0.86349	0.6373	0.038
Mof_C 	C 	0.2399	0.57331	0.8052	0.033
Mof_C 	C 	0.6277	0.5531	0.24377	0.062
Mof_C 	C 	0.901	0.88996	0.0455	-0.114
Mof_C 	C 	0.4906	0.41558	0.0685	0.064
Mof_C 	C 	0.9873	0.03752	0.46849	-0.008
Mof_C 	C 	0.0973	0.90294	0.6025	-0.118
Mof_C 	C 	0.6047	0.52448	0.75199	-0.01
Mof_C 	C 	0.0234	0.09099	0.93197	0.062
Mof_C 	C 	0.77	0.88875	0.6974	0.039
Mof_C 	C 	0.524	0.58985	0.93417	0.066
Mof_C 	C 	0.52703	0.54785	0.75357	-0.069
Mof_C 	C 	0.2324	0.12287	0.71113	0.048
Mof_C 	C 	0.8546	0.05279	0.7535	0.065
Mof_C 	C 	0.5498	0.52416	0.24752	-0.011
Mof_C 	C 	0.23	0.88875	0.3026	0.039
Mof_C 	C 	0.5981	0.66356	0.9231	0.028
Mof_C 	C 	0.5092	0.54546	0.96831	-0.009
Mof_C 	C 	0.0127	0.96248	0.96849	-0.008
Mof_C 	C 	0.9496	0.17099	0.1397	-0.094
Mof_C 	C 	0.2971	0.11923	0.7547	-0.103
Mof_C 	C 	0.0243	0.83408	0.3939	0.034
Mof_C 	C 	0.7029	0.9198	0.295	0.039
Mof_C 	C 	0.2762	0.07845	0.2938	0.037
Mof_C 	C 	0.476	0.41015	0.43417	0.066
Mof_C 	C 	0.7676	0.87713	0.21113	0.048
Mof_C 	C 	0.2982	0.37673	0.7738	0.037
Mof_C 	C 	0.1779	0.38674	0.2527	-0.073
Mof_C 	C 	0.474	0.71402	0.3306	0.311
Mof_C 	C 	0.6904	0.58874	0.7971	-0.104
Mof_C 	C 	0.3659	0.40739	0.7808	-0.12
Mof_C 	C 	0.2357	0.38625	0.7308	-0.097
Mof_C 	C 	0.9337	0.02462	0.75203	-0.011
Mof_C 	C 	0.9382	0.17034	0.382	-0.098
Mof_C 	C 	0.7643	0.38625	0.2692	-0.097
Mof_C 	C 	0.8546	0.94721	0.7465	0.065
Mof_C 	C 	0.9895	0.04687	0.03218	-0.009
Mof_C 	C 	0.9709	0.08336	0.43683	0.062
Mof_C 	C 	0.476	0.58985	0.06583	0.066
Mof_C 	C 	0.6823	0.553	0.7524	0.056
Mof_C 	C 	0.7462	0.4515	0.791	-0.105
Mof_C 	C 	0.5479	0.34074	0.09451	0.032
Mof_C 	C 	0.9027	0.90294	0.3975	-0.118
Mof_C 	C 	0.3613	0.85679	0.2544	0.324
Mof_C 	C 	0.5864	0.37994	0.5476	-0.112
Mof_C 	C 	0.4562	0.67683	0.12546	-0.088
Mof_C 	C 	0.7592	0.61809	0.7976	0.026
Mof_C 	C 	0.5183	0.64649	0.14416	0.034
Mof_C 	C 	0.9894	0.95254	0.254	-0.068
Mof_C 	C 	0.0244	0.8986	0.1091	-0.116
Mof_C 	C 	0.8407	0.91687	0.6981	-0.119
Mof_C 	C 	0.6387	0.85679	0.7456	0.324
Mof_C 	C 	0.768	0.04798	0.20737	-0.121
Mof_C 	C 	0.7947	0.04895	0.7052	-0.114
Mof_C 	C 	0.0814	0.21653	0.6488	0.335
Mof_C 	C 	0.0244	0.1014	0.3909	-0.116
Mof_C 	C 	0.837	0.64594	0.2234	0.299
Mof_C 	C 	0.47297	0.45215	0.25357	-0.069
Mof_C 	C 	0.4215	0.40643	0.1079	-0.115
Mof_C 	C 	0.7601	0.42669	0.3052	0.033
Mof_C 	C 	0.5785	0.40643	0.8921	-0.115
Mof_C 	C 	0.0663	0.02462	0.24797	-0.011
Mof_C 	C 	0.0106	0.95254	0.746	-0.068
Mof_C 	C 	0.9894	0.04746	0.246	-0.068
Mof_C 	C 	0.8349	0.94618	0.2506	0.068
Mof_C 	C 	0.4458	0.72345	0.1554	0.312
Mof_C 	C 	0.7029	0.88077	0.2547	-0.103
Mof_C 	C 	0.3177	0.553	0.2476	0.056
Mof_C 	C 	0.8907	0.13651	0.1373	0.038
Mof_C 	C 	0.9344	0.78687	0.31844	0.325
Mof_C 	C 	0.8847	0.15229	0.4268	0.038
Mof_C 	C 	0.6823	0.447	0.7476	0.056
Mof_C 	C 	0.8407	0.08313	0.8019	-0.119
Mof_C 	C 	0.1093	0.13651	0.8627	0.038
Mof_C 	C 	0.2971	0.88077	0.7453	-0.103
Mof_C 	C 	0.0082	0.85463	0.1352	0.035
Mof_C 	C 	0.3177	0.447	0.2524	0.056
Mof_C 	C 	0.163	0.64594	0.7766	0.299
Mof_C 	C 	0.3953	0.52448	0.24801	-0.01
Mof_C 	C 	0.7018	0.62327	0.2738	0.037
Mof_C 	C 	0.2891	0.10973	0.246	-0.091
Mof_C 	C 	0.2971	0.9198	0.705	0.039
Mof_C 	C 	0.6919	0.45734	0.2991	-0.116
Mof_C 	C 	0.91135	0.97598	0.25141	-0.012
Mof_C 	C 	0.5817	0.36485	0.8593	0.029
Mof_C 	C 	0.4215	0.59357	0.3921	-0.115
Mof_C 	C 	0.9895	0.95313	0.46782	-0.009
Mof_C 	C 	0.4019	0.66356	0.0769	0.028
Mof_C 	C 	0.3081	0.45734	0.7009	-0.116
Mof_C 	C 	0.1779	0.61326	0.2473	-0.073
Mof_C 	C 	0.08865	0.02402	0.75141	-0.012
Mof_C 	C 	0.4908	0.45454	0.46831	-0.009
Mof_C 	C 	0.5197	0.33147	0.8665	-0.091
Mof_C 	C 	0.9757	0.16592	0.8939	0.034
Mof_C 	C 	0.8965	0.35414	0.7475	0.294
Mof_C 	C 	0.448	0.61732	0.56284	-0.118
Mof_C 	C 	0.7676	0.12287	0.28887	0.048
Mof_C 	C 	0.815	0.57869	0.7078	0.023
Mof_C 	C 	0.0618	0.17034	0.618	-0.098
Mof_C 	C 	0.5072	0.53937	0.53257	-0.009
Mof_C 	C 	0.9873	0.96248	0.03151	-0.008
Mof_C 	C 	0.0213	0.99523	0.5625	-0.067
Mof_C 	C 	0.3096	0.41126	0.2971	-0.104
Mof_C 	C 	0.8313	0.90917	0.2094	-0.126
Mof_C 	C 	0.5092	0.45454	0.53169	-0.009
Mof_C 	C 	0.2408	0.38191	0.2976	0.026
Mof_C 	C 	0.5183	0.35351	0.35584	0.034
Mof_C 	C 	0.6277	0.4469	0.25623	0.062
Mof_C 	C 	0.0504	0.82901	0.6397	-0.094
Mof_C 	C 	0.8221	0.38674	0.7473	-0.073
Mof_C 	C 	0.0106	0.04746	0.754	-0.068
Mof_C 	C 	0.8349	0.05382	0.2494	0.068
Mof_C 	C 	0.5197	0.66853	0.6335	-0.091
Mof_C 	C 	0.5159	0.49644	0.5634	-0.066
Mof_C 	C 	0.3096	0.58874	0.2029	-0.104
Mof_C 	C 	0.3953	0.47552	0.25199	-0.01
Mof_C 	C 	0.1153	0.15229	0.5732	0.038
Mof_C 	C 	0.8221	0.61326	0.7527	-0.073
Mof_C 	C 	0.5785	0.59357	0.6079	-0.115
Mof_C 	C 	0.1454	0.05279	0.2465	0.065
Mof_C 	C 	0.1035	0.64586	0.2475	0.294
Mof_C 	C 	0.099	0.88996	0.9545	-0.114
Mof_C 	C 	0.9918	0.85463	0.8648	0.035
Mof_C 	C 	0.185	0.42131	0.2078	0.023
Mof_C 	C 	0.4817	0.64649	0.85584	0.034
Mof_C 	C 	0.163	0.35406	0.7234	0.299
Mof_C 	C 	0.7643	0.61375	0.2308	-0.097
Mof_C 	C 	0.4183	0.63515	0.3593	0.029
Mof_C 	C 	0.4521	0.65926	0.59451	0.032
Mof_C 	C 	0.9027	0.09706	0.1025	-0.118
Mof_C 	C 	0.815	0.42131	0.7922	0.023
Mof_C 	C 	0.9344	0.21313	0.18156	0.325
Mof_C 	C 	0.6361	0.15513	0.2428	0.31
Mof_C 	C 	0.0105	0.04687	0.96782	-0.009
Mof_C 	C 	0.1687	0.90917	0.7906	-0.126
Mof_C 	C 	0.474	0.28598	0.1694	0.311
Mof_C 	C 	0.6047	0.47552	0.74801	-0.01
Mof_C 	C 	0.9766	0.09099	0.06803	0.062
Mof_C 	C 	0.4019	0.33644	0.4231	0.028
Mof_C 	C 	0.768	0.95202	0.29263	-0.121
Mof_C 	C 	0.3639	0.15513	0.7572	0.31
Mof_C 	C 	0.6341	0.59261	0.2808	-0.12
Mof_C 	C 	0.4724	0.39708	0.6144	-0.12
Mof_C 	C 	0.232	0.95202	0.70737	-0.121
Mof_C 	C 	0.9766	0.90901	0.43197	0.062
Mof_C 	C 	0.0082	0.14537	0.3648	0.035
Mof_C 	C 	0.1687	0.09083	0.7094	-0.126
Mof_C 	C 	0.5981	0.33644	0.5769	0.028
Mof_C 	C 	0.9787	0.00477	0.0625	-0.067
Mof_C 	C 	0.1651	0.94618	0.7494	0.068
Mof_C 	C 	0.7238	0.92155	0.7938	0.037
Mof_C 	C 	0.0618	0.82966	0.882	-0.099
Mof_C 	C 	0.2408	0.61809	0.2024	0.026
Mof_C 	C 	0.8313	0.09083	0.2906	-0.126
Mof_C 	C 	0.5072	0.46063	0.96743	-0.009
Mof_C 	C 	0.3081	0.54266	0.7991	-0.116
Mof_C 	C 	0.1035	0.35414	0.2525	0.294
Mof_C 	C 	0.552	0.61732	0.43716	-0.118
Mof_C 	C 	0.4841	0.50356	0.0634	-0.066
Mof_C 	C 	0.9382	0.82966	0.118	-0.099
Mof_C 	C 	0.77	0.11125	0.8026	0.039
Mof_C 	C 	0.4502	0.47584	0.74752	-0.011
Mof_C 	C 	0.837	0.35406	0.2766	0.299
Mof_C 	C 	0.901	0.11004	0.4545	-0.114
Mof_C 	C 	0.5479	0.65926	0.40549	0.032
Mof_C 	C 	0.0364	0.12647	0.0697	-0.117
Mof_C 	C 	0.2971	0.0802	0.795	0.039
Mof_C 	C 	0.4562	0.32317	0.37454	-0.088
Mof_C 	C 	0.4521	0.34074	0.90549	0.032
Mof_C 	C 	0.5094	0.41558	0.9315	0.064
Mof_C 	C 	0.5438	0.67683	0.87454	-0.088
Mof_C 	C 	0.4928	0.53937	0.46743	-0.009
Mof_C 	C 	0.0291	0.91664	0.93683	0.062
Mof_C 	C 	0.7109	0.10973	0.754	-0.091
Mof_C 	C 	0.5864	0.62006	0.9524	-0.112
Mof_C 	C 	0.7029	0.11923	0.2453	-0.103
Mof_C 	C 	0.6919	0.54266	0.2009	-0.116
Mof_O 	O 	0.5686	0.14628	0.21404	-0.256
Mof_O 	O 	0.1038	0.36338	0.68737	-0.249
Mof_O 	O 	0.95005	0.64314	0.7103	-0.251
Mof_O 	O 	0.9906	0.75533	0.31814	-0.27
Mof_O 	O 	0.16375	0.31684	0.7576	-0.297
Mof_O 	O 	0.4136	0.27894	0.20268	-0.256
Mof_O 	O 	0.3756	0.16625	0.1994	-0.263
Mof_O 	O 	0.37685	0.74385	0.15408	-0.225
Mof_O 	O 	0.0094	0.24467	0.81814	-0.27
Mof_O 	O 	0.0983	0.3239	0.29631	-0.242
Mof_O 	O 	0.4657	0.74317	0.66444	-0.262
Mof_O 	O 	0.0983	0.6761	0.20369	-0.242
Mof_O 	O 	0.8962	0.63662	0.18737	-0.249
Mof_O 	O 	0.48845	0.74029	0.81916	-0.263
Mof_O 	O 	0.4064	0.8541	0.2056	-0.245
Mof_O 	O 	0.35104	0.19436	0.73155	-0.281
Mof_O 	O 	0.8448	0.22973	0.3491	-0.285
Mof_O 	O 	0.04995	0.35686	0.2103	-0.251
Mof_O 	O 	0.5936	0.8541	0.7944	-0.245
Mof_O 	O 	0.37685	0.25615	0.34592	-0.225
Mof_O 	O 	0.8448	0.77027	0.1509	-0.285
Mof_O 	O 	0.8962	0.36338	0.31263	-0.249
Mof_O 	O 	0.83625	0.68316	0.2576	-0.297
Mof_O 	O 	0.5686	0.85372	0.28596	-0.256
Mof_O 	O 	0.0094	0.75533	0.68186	-0.27
Mof_O 	O 	0.16375	0.68316	0.7424	-0.297
Mof_O 	O 	0.51155	0.74029	0.18084	-0.263
Mof_O 	O 	0.8683	0.21215	0.21243	-0.295
Mof_O 	O 	0.4657	0.25683	0.83556	-0.262
Mof_O 	O 	0.51155	0.25971	0.31916	-0.263
Mof_O 	O 	0.6244	0.83375	0.6994	-0.263
Mof_O 	O 	0.9017	0.6761	0.79631	-0.242
Mof_O 	O 	0.9017	0.3239	0.70369	-0.242
Mof_O 	O 	0.3756	0.83375	0.3006	-0.263
Mof_O 	O 	0.4064	0.1459	0.2944	-0.245
Mof_O 	O 	0.4314	0.14628	0.78596	-0.256
Mof_O 	O 	0.5343	0.74317	0.33556	-0.262
Mof_O 	O 	0.1552	0.77027	0.8491	-0.285
Mof_O 	O 	0.62315	0.74385	0.84592	-0.225
Mof_O 	O 	0.8683	0.78785	0.28757	-0.295
Mof_O 	O 	0.9906	0.24467	0.18186	-0.27
Mof_O 	O 	0.1317	0.21215	0.78757	-0.295
Mof_O 	O 	0.019	0.76174	0.829	-0.271
Mof_O 	O 	0.04995	0.64314	0.2897	-0.251
Mof_O 	O 	0.64896	0.19436	0.26845	-0.281
Mof_O 	O 	0.83625	0.31684	0.2424	-0.297
Mof_O 	O 	0.5864	0.72106	0.70268	-0.256
Mof_O 	O 	0.5864	0.27894	0.79732	-0.256
Mof_O 	O 	0.5343	0.25683	0.16444	-0.262
Mof_O 	O 	0.95005	0.35686	0.7897	-0.251
Mof_O 	O 	0.35104	0.80564	0.76845	-0.281
Mof_O 	O 	0.4314	0.85372	0.71404	-0.256
Mof_O 	O 	0.5936	0.1459	0.7056	-0.245
Mof_O 	O 	0.981	0.76174	0.171	-0.271
Mof_O 	O 	0.64896	0.80564	0.23155	-0.281
Mof_O 	O 	0.48845	0.25971	0.68084	-0.263
Mof_O 	O 	0.4136	0.72106	0.29732	-0.256
Mof_O 	O 	0.1038	0.63662	0.81263	-0.249
Mof_O 	O 	0.019	0.23826	0.671	-0.271
Mof_O 	O 	0.1317	0.78785	0.71243	-0.295
Mof_O 	O 	0.981	0.23826	0.329	-0.271
Mof_O 	O 	0.62315	0.25615	0.65408	-0.225
Mof_O 	O 	0.1552	0.22973	0.6509	-0.285
Mof_O 	O 	0.6244	0.16625	0.8006	-0.263
_end
