# CIF file generated by openbabel 3.1.0, see https://openbabel.org
data_I
_chemical_name_common 'image0'
_cell_length_a 10.224
_cell_length_b 11.2172
_cell_length_c 11.3302
_cell_angle_alpha 69.059
_cell_angle_beta 76.93
_cell_angle_gamma 88.666
_space_group_name_H-M_alt 'P 1'
_space_group_name_Hall 'P 1'
loop_
    _symmetry_equiv_pos_as_xyz
    x,y,z
loop_
    _atom_site_label
    _atom_site_type_symbol
    _atom_site_fract_x
    _atom_site_fract_y
    _atom_site_fract_z
    _atom_site_occupancy
    Cd1      Cd       0.11656    0.36480    0.47451    1.000
    Cd2      Cd       0.66101    0.94091    0.89664    1.000
    Cd3      Cd       0.72536    0.20400    0.28745    1.000
    N1       N        0.29630    0.39407    0.55144    1.000
    N2       N        0.19630    0.10016    0.96680    1.000
    O1       O        0.08872    0.53962    0.56637    1.000
    O2       O        0.16680    0.61831    0.69431    1.000
    O3       O        0.52150    0.21597    0.40838    1.000
    O4       O        0.31290    0.26293    0.39342    1.000
    O5       O        0.56676    0.34796    0.78131    1.000
    H1       H        0.52420    0.32370    0.85720    1.000
    O6       O        0.43786    0.00952    0.90243    1.000
    O7       O        0.37414    0.96596    0.74500    1.000
    O8       O        0.93060    0.20643    0.15612    1.000
    O9       O        0.12590    0.13250    0.19481    1.000
    O10      O        0.98483    0.25656    0.68275    1.000
    C1       C        0.28580    0.45610    0.63470    1.000
    C2       C        0.37330    0.44420    0.71250    1.000
    H2       H        0.36050    0.48750    0.77010    1.000
    C3       C        0.48370    0.36610    0.70550    1.000
    C4       C        0.49860    0.30990    0.61070    1.000
    H3       H        0.57260    0.26270    0.59670    1.000
    C5       C        0.40360    0.32500    0.53900    1.000
    C6       C        0.17150    0.54360    0.63260    1.000
    C7       C        0.41390    0.26240    0.43930    1.000
    C8       C        0.23070    0.08290    0.85220    1.000
    C9       C        0.15930    0.12730    0.75790    1.000
    H4       H        0.18520    0.10990    0.68180    1.000
    C10      C        0.04670    0.19920    0.77610    1.000
    C11      C        0.00500    0.20510    0.90160    1.000
    H5       H        0.92540    0.24240    0.92330    1.000
    C12      C        0.08130    0.15600    0.99170    1.000
    C13      C        0.35700    0.01370    0.83190    1.000
    C14      C        0.04320    0.16520    0.12400    1.000
    Cd4      Cd       0.88344    0.63520    0.52549    1.000
    Cd5      Cd       0.33899    0.05909    0.10336    1.000
    Cd6      Cd       0.27464    0.79600    0.71255    1.000
    N3       N        0.70370    0.60593    0.44856    1.000
    N4       N        0.80370    0.89984    0.03320    1.000
    O11      O        0.91128    0.46038    0.43363    1.000
    O12      O        0.83320    0.38169    0.30569    1.000
    O13      O        0.47850    0.78403    0.59162    1.000
    O14      O        0.68710    0.73707    0.60658    1.000
    O15      O        0.43324    0.65204    0.21869    1.000
    H6       H        0.47580    0.67630    0.14280    1.000
    O16      O        0.56214    0.99048    0.09757    1.000
    O17      O        0.62586    0.03404    0.25500    1.000
    O18      O        0.06940    0.79357    0.84388    1.000
    O19      O        0.87410    0.86750    0.80519    1.000
    O20      O        0.01517    0.74344    0.31725    1.000
    C15      C        0.71420    0.54390    0.36530    1.000
    C16      C        0.62670    0.55580    0.28750    1.000
    H7       H        0.63950    0.51250    0.22990    1.000
    C17      C        0.51630    0.63390    0.29450    1.000
    C18      C        0.50140    0.69010    0.38930    1.000
    H8       H        0.42740    0.73730    0.40330    1.000
    C19      C        0.59640    0.67500    0.46100    1.000
    C20      C        0.82850    0.45640    0.36740    1.000
    C21      C        0.58610    0.73760    0.56070    1.000
    C22      C        0.76930    0.91710    0.14780    1.000
    C23      C        0.84070    0.87270    0.24210    1.000
    H9       H        0.81480    0.89010    0.31820    1.000
    C24      C        0.95330    0.80080    0.22390    1.000
    C25      C        0.99500    0.79490    0.09840    1.000
    H10      H        0.07460    0.75760    0.07670    1.000
    C26      C        0.91870    0.84400    0.00830    1.000
    C27      C        0.64300    0.98630    0.16810    1.000
    C28      C        0.95680    0.83480    0.87600    1.000
