data_functionalizedCrystal
_audit_creation_method	'EQeq! by Chris Wilmer'
_symmetry_space_group_name_H-M	'P1'
_symmetry_Int_Tables_number	1
_symmetry_cell_setting	triclinic
loop_
_symmetry_equiv_pos_as_xyz
  x,y,z
_cell_length_a	19.0892
_cell_length_b	14.3872
_cell_length_c	30.5462
_cell_angle_alpha	90
_cell_angle_beta	90
_cell_angle_gamma	90
loop_
_atom_site_label
_atom_site_type_symbol
_atom_site_fract_x
_atom_site_fract_y
_atom_site_fract_z
_atom_site_charge
Mof_Yb	Yb	0.14135	0.46269	0.3702	1.628
Mof_O 	O 	0.23722	0.4693	0.41451	-0.536
Mof_O 	O 	0.16678	0.6161	0.38426	-0.465
Mof_O 	O 	0.02943	0.4995	0.39746	-0.471
Mof_O 	O 	0.19032	0.5091	0.30225	-0.446
Mof_O 	O 	0.08231	0.5531	0.31451	-0.393
Mof_O 	O 	0.12145	0.342	0.41896	-0.514
Mof_Yb	Yb	0.18911	0.52419	0.49444	1.656
Mof_C 	C 	0.1951	0.6703	0.41049	0.483
Mof_C 	C 	0.1357	0.5563	0.29143	0.348
Mof_C 	C 	0.1366	0.3183	0.45722	0.488
Mof_O 	O 	0.1616	0.4668	0.56149	-0.498
Mof_O 	O 	0.30208	0.4779	0.47338	-0.48
Mof_O 	O 	0.21057	0.6485	0.45031	-0.506
Mof_O 	O 	0.08936	0.5211	0.45781	-0.541
Mof_O 	O 	0.16718	0.37	0.48522	-0.466
Mof_C 	C 	0.2119	0.766	0.3952	-0.224
Mof_C 	C 	0.1386	0.6179	0.25214	-0.174
Mof_C 	C 	0.1168	0.222	0.47132	-0.233
Mof_C 	C 	0.2333	0.838	0.42473	0.24
Mof_C 	C 	0.2038	0.7863	0.3516	0.052
Mof_C 	C 	0.082	0.6731	0.24328	0.019
Mof_C 	C 	0.1991	0.6209	0.22374	0.234
Mof_C 	C 	0.0959	0.1523	0.44195	0.263
Mof_C 	C 	0.1196	0.2002	0.51556	0.055
Mof_O 	O 	0.2406	0.8208	0.46896	-0.422
Mof_C 	C 	0.2481	0.9271	0.41073	-0.076
Mof_H 	H 	0.1889	0.7401	0.3325	0.028
Mof_C 	C 	0.2176	0.8764	0.3353	-0.038
Mof_C 	C 	0.0824	0.7348	0.20673	-0.026
Mof_H 	H 	0.0428	0.6704	0.2613	0.042
Mof_O 	O 	0.2525	0.5623	0.23193	-0.453
Mof_C 	C 	0.2035	0.684	0.19017	-0.081
Mof_C 	C 	0.0799	0.0647	0.45521	-0.085
Mof_O 	O 	0.09097	0.1707	0.39825	-0.435
Mof_H 	H 	0.1323	0.2458	0.5356	0.039
Mof_C 	C 	0.1037	0.1111	0.53048	-0.038
Mof_H 	H 	0.258	0.7693	0.4725	0.253
Mof_C 	C 	0.2384	0.9476	0.36493	0.065
Mof_C 	C 	0.2681	0.9999	0.44411	-0.038
Mof_C 	C 	0.2081	0.8943	0.29045	-0.026
Mof_C 	C 	0.0227	0.7846	0.1956	-0.032
Mof_C 	C 	0.1435	0.7389	0.17974	0.06
Mof_H 	H 	0.2453	0.5349	0.255	0.287
Mof_C 	C 	0.2712	0.693	0.16358	-0.083
Mof_C 	C 	0.0854	0.04	0.50026	0.074
Mof_C 	C 	0.061	0.9906	0.42019	-0.038
Mof_H 	H 	0.0975	0.2263	0.394	0.258
Mof_C 	C 	0.1074	0.0887	0.57585	-0.025
Mof_C 	C 	0.2473	0.0387	0.3466	-0.096
Mof_C 	C 	0.3367	0.9906	0.46767	-0.087
Mof_H 	H 	0.268	0.0597	0.4294	0.055
Mof_H 	H 	0.2313	0.0018	0.466	0.057
Mof_H 	H 	0.1947	0.847	0.2715	0.045
Mof_C 	C 	0.2188	0.9822	0.2753	-0.065
Mof_C 	C 	0.0215	0.8407	0.1593	-0.065
Mof_H 	H 	0.9829	0.7799	0.2131	0.047
Mof_C 	C 	0.1395	0.7976	0.1424	-0.111
Mof_C 	C 	0.3099	0.7831	0.16891	-0.077
Mof_H 	H 	0.2599	0.6851	0.1328	0.079
Mof_H 	H 	0.3023	0.6427	0.1718	0.075
Mof_C 	C 	0.0758	0.948	0.5165	-0.096
Mof_C 	C 	0.9889	0.0018	0.3984	-0.084
Mof_H 	H 	0.0965	0.9921	0.3975	0.058
Mof_H 	H 	0.0629	0.9298	0.4338	0.053
Mof_C 	C 	0.0969	0.0022	0.5906	-0.07
Mof_H 	H 	0.1174	0.1356	0.5958	0.046
Mof_H 	H 	0.261	0.0873	0.3648	0.072
Mof_C 	C 	0.2364	0.0549	0.3046	0.007
Mof_C 	C 	0.3988	0.9897	0.44395	0.26
Mof_C 	C 	0.3423	0.9945	0.51431	0.078
Mof_H 	H 	0.2145	0.9946	0.2455	0.054
Mof_C 	C 	0.0805	0.847	0.1339	0.012
Mof_H 	H 	0.9813	0.8739	0.1521	0.051
Mof_H 	H 	0.1777	0.8021	0.1236	0.089
Mof_C 	C 	0.3187	0.8427	0.13247	0.235
Mof_C 	C 	0.3402	0.8115	0.20833	0.066
Mof_C 	C 	0.082	0.931	0.5604	0.005
Mof_H 	H 	0.0654	0.8998	0.4973	0.075
Mof_C 	C 	0.9288	0.0091	0.42383	0.269
Mof_C 	C 	0.9814	0.9957	0.35223	0.07
Mof_H 	H 	0.0994	0.9893	0.6204	0.053
Mof_H 	H 	0.2403	0.1153	0.2941	0.022
Mof_O 	O 	0.39317	0.9923	0.3992	-0.435
Mof_C 	C 	0.4659	0.9892	0.46441	-0.249
Mof_C 	C 	0.4098	0.9965	0.53489	-0.061
Mof_C 	C 	0.2825	0.9987	0.543	-0.116
Mof_H 	H 	0.08	0.8867	0.1099	0.029
Mof_C 	C 	0.3523	0.9301	0.13583	-0.207
Mof_O 	O 	0.2916	0.8142	0.0931	-0.438
Mof_C 	C 	0.3396	0.752	0.24669	-0.121
Mof_C 	C 	0.3745	0.8992	0.21289	-0.043
Mof_H 	H 	0.0763	0.8706	0.5706	0.028
Mof_O 	O 	0.93662	0.0076	0.46778	-0.44
Mof_C 	C 	0.8614	0.0177	0.40447	-0.249
Mof_C 	C 	0.9135	0.0017	0.33355	-0.054
Mof_C 	C 	0.0394	0.9847	0.3228	-0.101
Mof_H 	H 	0.4319	0.9844	0.3882	0.283
Mof_C 	C 	0.5316	0.9883	0.43796	0.486
Mof_C 	C 	0.4687	0.9931	0.50935	0.085
Mof_C 	C 	0.4138	0.0054	0.58136	-0.005
Mof_H 	H 	0.2377	0.9956	0.5311	0.084
Mof_C 	C 	0.2896	0.007	0.5861	0.03
Mof_C 	C 	0.379	0.9553	0.17583	0.042
Mof_C 	C 	0.3615	0.9958	0.09818	0.424
Mof_H 	H 	0.2924	0.8577	0.0757	0.279
Mof_H 	H 	0.319	0.6935	0.2452	0.094
Mof_C 	C 	0.3688	0.7814	0.2845	0.026
Mof_C 	C 	0.4034	0.9257	0.254	-0.012
Mof_H 	H 	0.8981	0.0111	0.4795	0.284
Mof_C 	C 	0.8549	0.0121	0.35999	0.081
Mof_C 	C 	0.7973	0.0259	0.43186	0.453
Mof_C 	C 	0.9058	0.994	0.2862	-0.02
Mof_C 	C 	0.0278	0.9757	0.2783	0.007
Mof_H 	H 	0.0849	0.9836	0.3337	0.076
Mof_H 	H 	0.5123	0.9935	0.5229	-0.001
Mof_H 	H 	0.4574	0.0074	0.5948	0.041
Mof_C 	C 	0.3546	0.0111	0.6065	-0.085
Mof_H 	H 	0.2494	0.0101	0.6033	0.024
Mof_H 	H 	0.4012	0.0126	0.1783	0.029
Mof_O 	O 	0.3895	0.0703	0.10354	-0.326
Mof_H 	H 	0.3678	0.7417	0.3085	0.028
Mof_C 	C 	0.4005	0.8682	0.2894	-0.078
Mof_H 	H 	0.4248	0.9834	0.2567	0.039
Mof_H 	H 	0.8107	0.0154	0.3473	-0.009
Mof_C 	C 	0.961	0.9807	0.2602	-0.07
Mof_H 	H 	0.8614	0.9985	0.2739	0.043
Mof_H 	H 	0.0658	0.9659	0.2598	0.029
Mof_H 	H 	0.3578	0.0177	0.6367	0.066
Mof_H 	H 	0.4191	0.8864	0.3162	0.072
Mof_H 	H 	0.9549	0.9748	0.2301	0.055
Mof_Yb	Yb	0.85865	0.53731	0.8702	1.627
Mof_O 	O 	0.76278	0.5307	0.91451	-0.536
Mof_O 	O 	0.83322	0.3839	0.88426	-0.465
Mof_O 	O 	0.97057	0.5005	0.89746	-0.473
Mof_O 	O 	0.80968	0.4909	0.80225	-0.446
Mof_O 	O 	0.91769	0.4469	0.81451	-0.393
Mof_O 	O 	0.87855	0.658	0.91896	-0.515
Mof_Yb	Yb	0.81089	0.47581	0.99444	1.645
Mof_C 	C 	0.8049	0.3297	0.91049	0.483
Mof_C 	C 	0.8643	0.4437	0.79143	0.348
Mof_C 	C 	0.8634	0.6817	0.95722	0.492
Mof_O 	O 	0.8384	0.5332	0.06149	-0.492
Mof_O 	O 	0.69792	0.5221	0.97338	-0.481
Mof_O 	O 	0.78943	0.3515	0.95031	-0.506
Mof_O 	O 	0.91064	0.4789	0.95781	-0.543
Mof_O 	O 	0.83282	0.63	0.98522	-0.47
Mof_C 	C 	0.7881	0.234	0.8952	-0.225
Mof_C 	C 	0.8614	0.3821	0.75214	-0.174
Mof_C 	C 	0.8832	0.778	0.97132	-0.25
Mof_C 	C 	0.7667	0.162	0.92473	0.242
Mof_C 	C 	0.7962	0.2137	0.8516	0.054
Mof_C 	C 	0.918	0.3269	0.74328	0.019
Mof_C 	C 	0.8009	0.3791	0.72374	0.234
Mof_C 	C 	0.9041	0.8477	0.94195	0.271
Mof_C 	C 	0.8804	0.7998	0.01556	0.075
Mof_O 	O 	0.7594	0.1792	0.96896	-0.425
Mof_C 	C 	0.7519	0.0729	0.91073	-0.081
Mof_H 	H 	0.8111	0.2599	0.8325	0.028
Mof_C 	C 	0.7824	0.1236	0.8353	-0.04
Mof_C 	C 	0.9176	0.2652	0.70673	-0.026
Mof_H 	H 	0.9572	0.3296	0.7613	0.042
Mof_O 	O 	0.7475	0.4377	0.73193	-0.453
Mof_C 	C 	0.7965	0.316	0.69017	-0.081
Mof_C 	C 	0.9201	0.9353	0.95521	-0.096
Mof_O 	O 	0.90903	0.8293	0.89825	-0.438
Mof_H 	H 	0.8677	0.7542	0.0356	0.035
Mof_C 	C 	0.8963	0.8889	0.03048	-0.045
Mof_H 	H 	0.742	0.2307	0.9725	0.253
Mof_C 	C 	0.7616	0.0524	0.86493	0.069
Mof_C 	C 	0.7319	0.0001	0.94411	-0.023
Mof_C 	C 	0.7919	0.1057	0.79045	-0.024
Mof_C 	C 	0.9773	0.2154	0.6956	-0.032
Mof_C 	C 	0.8565	0.2611	0.67974	0.06
Mof_H 	H 	0.7547	0.4651	0.755	0.287
Mof_C 	C 	0.7288	0.307	0.66358	-0.082
Mof_C 	C 	0.9146	0.96	0.00026	0.082
Mof_C 	C 	0.939	0.0094	0.92019	-0.032
Mof_H 	H 	0.9025	0.7737	0.894	0.26
Mof_C 	C 	0.8926	0.9113	0.07585	-0.022
Mof_C 	C 	0.7527	0.9613	0.8466	-0.098
Mof_C 	C 	0.6633	0.0094	0.96767	-0.109
Mof_H 	H 	0.732	0.9403	0.9294	0.05
Mof_H 	H 	0.7687	0.9982	0.966	0.049
Mof_H 	H 	0.8053	0.153	0.7715	0.045
Mof_C 	C 	0.7812	0.0178	0.7753	-0.067
Mof_C 	C 	0.9785	0.1593	0.6593	-0.065
Mof_H 	H 	0.0171	0.2201	0.7131	0.046
Mof_C 	C 	0.8605	0.2024	0.6424	-0.111
Mof_C 	C 	0.6901	0.2169	0.66891	-0.078
Mof_H 	H 	0.7401	0.3149	0.6328	0.078
Mof_H 	H 	0.6977	0.3573	0.6718	0.075
Mof_C 	C 	0.9242	0.052	0.0165	-0.077
Mof_C 	C 	0.0111	0.9982	0.8984	-0.086
Mof_H 	H 	0.9035	0.0079	0.8975	0.056
Mof_H 	H 	0.9371	0.0702	0.9338	0.051
Mof_C 	C 	0.9031	0.9978	0.0906	-0.069
Mof_H 	H 	0.8826	0.8644	0.0958	0.045
Mof_H 	H 	0.739	0.9127	0.8648	0.073
Mof_C 	C 	0.7636	0.9451	0.8046	0.009
Mof_C 	C 	0.6012	0.0103	0.94395	0.273
Mof_C 	C 	0.6577	0.0055	0.01431	0.104
Mof_H 	H 	0.7855	0.0054	0.7455	0.054
Mof_C 	C 	0.9195	0.153	0.6339	0.012
Mof_H 	H 	0.0187	0.1261	0.6521	0.051
Mof_H 	H 	0.8223	0.1979	0.6236	0.089
Mof_C 	C 	0.6813	0.1573	0.63247	0.236
Mof_C 	C 	0.6598	0.1885	0.70833	0.066
Mof_C 	C 	0.918	0.069	0.0604	-0.002
Mof_H 	H 	0.9346	0.1002	0.9973	0.063
Mof_C 	C 	0.0712	0.9909	0.92383	0.27
Mof_C 	C 	0.0186	0.0043	0.85223	0.071
Mof_H 	H 	0.9006	0.0107	0.1204	0.053
Mof_H 	H 	0.7597	0.8847	0.7941	0.021
Mof_O 	O 	0.60683	0.0077	0.8992	-0.439
Mof_C 	C 	0.5341	0.0108	0.96441	-0.271
Mof_C 	C 	0.5902	0.0035	0.03489	-0.08
Mof_C 	C 	0.7175	0.0013	0.043	-0.133
Mof_H 	H 	0.92	0.1133	0.6099	0.028
Mof_C 	C 	0.6477	0.0699	0.63583	-0.209
Mof_O 	O 	0.7084	0.1858	0.5931	-0.439
Mof_C 	C 	0.6604	0.248	0.74669	-0.122
Mof_C 	C 	0.6255	0.1008	0.71289	-0.044
Mof_H 	H 	0.9237	0.1294	0.0706	0.033
Mof_O 	O 	0.06338	0.9924	0.96778	-0.443
Mof_C 	C 	0.1386	0.9823	0.90447	-0.25
Mof_C 	C 	0.0865	0.9983	0.83355	-0.056
Mof_C 	C 	0.9606	0.0153	0.8228	-0.102
Mof_H 	H 	0.5681	0.0156	0.8882	0.285
Mof_C 	C 	0.4684	0.0117	0.93796	0.492
Mof_C 	C 	0.5313	0.0069	0.00935	0.115
Mof_C 	C 	0.5862	0.9946	0.08136	0.012
Mof_H 	H 	0.7623	0.0044	0.0311	0.093
Mof_C 	C 	0.7104	0.993	0.0861	0.046
Mof_C 	C 	0.621	0.0447	0.67583	0.044
Mof_C 	C 	0.6385	0.0042	0.59818	0.427
Mof_H 	H 	0.7076	0.1423	0.5757	0.278
Mof_H 	H 	0.681	0.3065	0.7452	0.094
Mof_C 	C 	0.6312	0.2186	0.7845	0.026
Mof_C 	C 	0.5966	0.0743	0.754	-0.011
Mof_H 	H 	0.1019	0.9889	0.9795	0.283
Mof_C 	C 	0.1451	0.9879	0.85999	0.082
Mof_C 	C 	0.2027	0.9741	0.93186	0.454
Mof_C 	C 	0.0942	0.006	0.7862	-0.018
Mof_C 	C 	0.9722	0.0243	0.7783	0.008
Mof_H 	H 	0.9151	0.0164	0.8337	0.076
Mof_H 	H 	0.4877	0.0065	0.0229	-0.008
Mof_H 	H 	0.5426	0.9926	0.0948	0.036
Mof_C 	C 	0.6454	0.9889	0.1065	-0.101
Mof_H 	H 	0.7506	0.9899	0.1033	0.018
Mof_H 	H 	0.5988	0.9874	0.6783	0.028
Mof_O 	O 	0.6105	0.9297	0.60354	-0.329
Mof_H 	H 	0.6322	0.2583	0.8085	0.028
Mof_C 	C 	0.5995	0.1318	0.7894	-0.079
Mof_H 	H 	0.5752	0.0166	0.7567	0.038
Mof_H 	H 	0.1893	0.9846	0.8473	-0.01
Mof_C 	C 	0.039	0.0193	0.7602	-0.072
Mof_H 	H 	0.1386	0.0015	0.7739	0.042
Mof_H 	H 	0.9342	0.0341	0.7598	0.029
Mof_H 	H 	0.6422	0.9823	0.1367	0.072
Mof_H 	H 	0.5809	0.1136	0.8162	0.072
Mof_H 	H 	0.0451	0.0252	0.7301	0.055
Mof_Yb	Yb	0.64135	0.03731	0.3702	1.628
Mof_O 	O 	0.73722	0.0307	0.41451	-0.536
Mof_O 	O 	0.66678	0.8839	0.38426	-0.465
Mof_O 	O 	0.52943	0.0005	0.39746	-0.47
Mof_O 	O 	0.69032	0.9909	0.30225	-0.446
Mof_O 	O 	0.58231	0.9469	0.31451	-0.393
Mof_O 	O 	0.62145	0.158	0.41896	-0.514
Mof_Yb	Yb	0.68911	0.97581	0.49444	1.654
Mof_C 	C 	0.6951	0.8297	0.41049	0.483
Mof_C 	C 	0.6357	0.9437	0.29143	0.348
Mof_C 	C 	0.6366	0.1817	0.45722	0.488
Mof_O 	O 	0.6616	0.0332	0.56149	-0.497
Mof_O 	O 	0.80208	0.0221	0.47338	-0.479
Mof_O 	O 	0.71057	0.8515	0.45031	-0.506
Mof_O 	O 	0.58936	0.9789	0.45781	-0.541
Mof_O 	O 	0.66718	0.13	0.48522	-0.466
Mof_C 	C 	0.7119	0.734	0.3952	-0.224
Mof_C 	C 	0.6386	0.8821	0.25214	-0.174
Mof_C 	C 	0.6168	0.278	0.47132	-0.233
Mof_C 	C 	0.7333	0.662	0.42473	0.24
Mof_C 	C 	0.7038	0.7137	0.3516	0.053
Mof_C 	C 	0.582	0.8269	0.24328	0.019
Mof_C 	C 	0.6991	0.8791	0.22374	0.234
Mof_C 	C 	0.5959	0.3477	0.44195	0.263
Mof_C 	C 	0.6196	0.2998	0.51556	0.054
Mof_O 	O 	0.7406	0.6792	0.46896	-0.422
Mof_C 	C 	0.7481	0.5729	0.41073	-0.075
Mof_H 	H 	0.6889	0.7599	0.3325	0.028
Mof_C 	C 	0.7176	0.6236	0.3353	-0.038
Mof_C 	C 	0.5824	0.7652	0.20673	-0.026
Mof_H 	H 	0.5428	0.8296	0.2613	0.042
Mof_O 	O 	0.7525	0.9377	0.23193	-0.453
Mof_C 	C 	0.7035	0.816	0.19017	-0.081
Mof_C 	C 	0.5799	0.4353	0.45521	-0.085
Mof_O 	O 	0.59097	0.3293	0.39825	-0.435
Mof_H 	H 	0.6323	0.2542	0.5356	0.039
Mof_C 	C 	0.6037	0.3889	0.53048	-0.038
Mof_H 	H 	0.758	0.7307	0.4725	0.253
Mof_C 	C 	0.7384	0.5524	0.36493	0.065
Mof_C 	C 	0.7681	0.5001	0.44411	-0.039
Mof_C 	C 	0.7081	0.6057	0.29045	-0.025
Mof_C 	C 	0.5227	0.7154	0.1956	-0.032
Mof_C 	C 	0.6435	0.7611	0.17974	0.06
Mof_H 	H 	0.7453	0.9651	0.255	0.287
Mof_C 	C 	0.7712	0.807	0.16358	-0.083
Mof_C 	C 	0.5854	0.46	0.50026	0.074
Mof_C 	C 	0.561	0.5094	0.42019	-0.036
Mof_H 	H 	0.5975	0.2737	0.394	0.258
Mof_C 	C 	0.6074	0.4113	0.57585	-0.026
Mof_C 	C 	0.7473	0.4613	0.3466	-0.096
Mof_C 	C 	0.8367	0.5094	0.46767	-0.086
Mof_H 	H 	0.768	0.4403	0.4294	0.055
Mof_H 	H 	0.7313	0.4982	0.466	0.057
Mof_H 	H 	0.6947	0.653	0.2715	0.045
Mof_C 	C 	0.7188	0.5178	0.2753	-0.066
Mof_C 	C 	0.5215	0.6593	0.1593	-0.067
Mof_H 	H 	0.4829	0.7201	0.2131	0.047
Mof_C 	C 	0.6395	0.7024	0.1424	-0.111
Mof_C 	C 	0.8099	0.7169	0.16891	-0.077
Mof_H 	H 	0.7599	0.8149	0.1328	0.079
Mof_H 	H 	0.8023	0.8573	0.1718	0.075
Mof_C 	C 	0.5758	0.552	0.5165	-0.095
Mof_C 	C 	0.4889	0.4982	0.3984	-0.088
Mof_H 	H 	0.5965	0.5079	0.3975	0.057
Mof_H 	H 	0.5629	0.5702	0.4338	0.053
Mof_C 	C 	0.5969	0.4978	0.5906	-0.068
Mof_H 	H 	0.6174	0.3644	0.5958	0.046
Mof_H 	H 	0.761	0.4127	0.3648	0.072
Mof_C 	C 	0.7364	0.4451	0.3046	0.008
Mof_C 	C 	0.8988	0.5103	0.44395	0.26
Mof_C 	C 	0.8423	0.5055	0.51431	0.077
Mof_H 	H 	0.7145	0.5054	0.2455	0.054
Mof_C 	C 	0.5805	0.653	0.1339	0.013
Mof_H 	H 	0.4813	0.6261	0.1521	0.053
Mof_H 	H 	0.6777	0.6979	0.1236	0.089
Mof_C 	C 	0.8187	0.6573	0.13247	0.235
Mof_C 	C 	0.8402	0.6885	0.20833	0.065
Mof_C 	C 	0.582	0.569	0.5604	0.004
Mof_H 	H 	0.5654	0.6002	0.4973	0.075
Mof_C 	C 	0.4288	0.4909	0.42383	0.271
Mof_C 	C 	0.4814	0.5043	0.35223	0.077
Mof_H 	H 	0.5994	0.5107	0.6204	0.051
Mof_H 	H 	0.7403	0.3847	0.2941	0.021
Mof_O 	O 	0.89317	0.5077	0.3992	-0.435
Mof_C 	C 	0.9659	0.5108	0.46441	-0.249
Mof_C 	C 	0.9098	0.5035	0.53489	-0.06
Mof_C 	C 	0.7825	0.5013	0.543	-0.115
Mof_H 	H 	0.58	0.6133	0.1099	0.028
Mof_C 	C 	0.8523	0.5699	0.13583	-0.207
Mof_O 	O 	0.7916	0.6858	0.0931	-0.438
Mof_C 	C 	0.8396	0.748	0.24669	-0.121
Mof_C 	C 	0.8745	0.6008	0.21289	-0.043
Mof_H 	H 	0.5763	0.6294	0.5706	0.029
Mof_O 	O 	0.43662	0.4924	0.46778	-0.442
Mof_C 	C 	0.3614	0.4823	0.40447	-0.251
Mof_C 	C 	0.4135	0.4983	0.33355	-0.06
Mof_C 	C 	0.5394	0.5153	0.3228	-0.106
Mof_H 	H 	0.9319	0.5156	0.3882	0.283
Mof_C 	C 	0.0316	0.5117	0.43796	0.487
Mof_C 	C 	0.9687	0.5069	0.50935	0.085
Mof_C 	C 	0.9138	0.4946	0.58136	-0.006
Mof_H 	H 	0.7377	0.5044	0.5311	0.083
Mof_C 	C 	0.7896	0.493	0.5861	0.029
Mof_C 	C 	0.879	0.5447	0.17583	0.041
Mof_C 	C 	0.8615	0.5042	0.09818	0.424
Mof_H 	H 	0.7924	0.6423	0.0757	0.279
Mof_H 	H 	0.819	0.8065	0.2452	0.094
Mof_C 	C 	0.8688	0.7186	0.2845	0.025
Mof_C 	C 	0.9034	0.5743	0.254	-0.012
Mof_H 	H 	0.3981	0.4889	0.4795	0.284
Mof_C 	C 	0.3549	0.4879	0.35999	0.085
Mof_C 	C 	0.2973	0.4741	0.43186	0.454
Mof_C 	C 	0.4058	0.506	0.2862	-0.015
Mof_C 	C 	0.5278	0.5243	0.2783	0.01
Mof_H 	H 	0.5849	0.5164	0.3337	0.078
Mof_H 	H 	0.0123	0.5065	0.5229	-0.001
Mof_H 	H 	0.9574	0.4926	0.5948	0.042
Mof_C 	C 	0.8546	0.4889	0.6065	-0.085
Mof_H 	H 	0.7494	0.4899	0.6033	0.024
Mof_H 	H 	0.9012	0.4874	0.1783	0.03
Mof_O 	O 	0.8895	0.4297	0.10354	-0.326
Mof_H 	H 	0.8678	0.7583	0.3085	0.028
Mof_C 	C 	0.9005	0.6318	0.2894	-0.078
Mof_H 	H 	0.9248	0.5166	0.2567	0.039
Mof_H 	H 	0.3107	0.4846	0.3473	-0.011
Mof_C 	C 	0.461	0.5193	0.2602	-0.073
Mof_H 	H 	0.3614	0.5015	0.2739	0.041
Mof_H 	H 	0.5658	0.5341	0.2598	0.028
Mof_H 	H 	0.8578	0.4823	0.6367	0.066
Mof_H 	H 	0.9191	0.6136	0.3162	0.072
Mof_H 	H 	0.4549	0.5252	0.2301	0.056
Mof_Yb	Yb	0.35865	0.96269	0.8702	1.629
Mof_O 	O 	0.26278	0.9693	0.91451	-0.535
Mof_O 	O 	0.33322	0.1161	0.88426	-0.465
Mof_O 	O 	0.47057	0.9995	0.89746	-0.472
Mof_O 	O 	0.30968	0.0091	0.80225	-0.446
Mof_O 	O 	0.41769	0.0531	0.81451	-0.393
Mof_O 	O 	0.37855	0.842	0.91896	-0.515
Mof_Yb	Yb	0.31089	0.02419	0.99444	1.643
Mof_C 	C 	0.3049	0.1703	0.91049	0.483
Mof_C 	C 	0.3643	0.0563	0.79143	0.348
Mof_C 	C 	0.3634	0.8183	0.95722	0.492
Mof_O 	O 	0.3384	0.9668	0.06149	-0.492
Mof_O 	O 	0.19792	0.9779	0.97338	-0.48
Mof_O 	O 	0.28943	0.1485	0.95031	-0.506
Mof_O 	O 	0.41064	0.0211	0.95781	-0.543
Mof_O 	O 	0.33282	0.87	0.98522	-0.469
Mof_C 	C 	0.2881	0.266	0.8952	-0.225
Mof_C 	C 	0.3614	0.1179	0.75214	-0.174
Mof_C 	C 	0.3832	0.722	0.97132	-0.25
Mof_C 	C 	0.2667	0.338	0.92473	0.242
Mof_C 	C 	0.2962	0.2863	0.8516	0.054
Mof_C 	C 	0.418	0.1731	0.74328	0.019
Mof_C 	C 	0.3009	0.1209	0.72374	0.234
Mof_C 	C 	0.4041	0.6523	0.94195	0.272
Mof_C 	C 	0.3804	0.7002	0.01556	0.075
Mof_O 	O 	0.2594	0.3208	0.96896	-0.425
Mof_C 	C 	0.2519	0.4271	0.91073	-0.081
Mof_H 	H 	0.3111	0.2401	0.8325	0.028
Mof_C 	C 	0.2824	0.3764	0.8353	-0.04
Mof_C 	C 	0.4176	0.2348	0.70673	-0.026
Mof_H 	H 	0.4572	0.1704	0.7613	0.042
Mof_O 	O 	0.2475	0.0623	0.73193	-0.453
Mof_C 	C 	0.2965	0.184	0.69017	-0.082
Mof_C 	C 	0.4201	0.5647	0.95521	-0.097
Mof_O 	O 	0.40903	0.6707	0.89825	-0.438
Mof_H 	H 	0.3677	0.7458	0.0356	0.035
Mof_C 	C 	0.3963	0.6111	0.03048	-0.045
Mof_H 	H 	0.242	0.2693	0.9725	0.253
Mof_C 	C 	0.2616	0.4476	0.86493	0.068
Mof_C 	C 	0.2319	0.4999	0.94411	-0.024
Mof_C 	C 	0.2919	0.3943	0.79045	-0.023
Mof_C 	C 	0.4773	0.2846	0.6956	-0.031
Mof_C 	C 	0.3565	0.2389	0.67974	0.061
Mof_H 	H 	0.2547	0.0349	0.755	0.287
Mof_C 	C 	0.2288	0.193	0.66358	-0.082
Mof_C 	C 	0.4146	0.54	0.00026	0.084
Mof_C 	C 	0.439	0.4906	0.92019	-0.03
Mof_H 	H 	0.4025	0.7263	0.894	0.26
Mof_C 	C 	0.3926	0.5887	0.07585	-0.024
Mof_C 	C 	0.2527	0.5387	0.8466	-0.099
Mof_C 	C 	0.1633	0.4906	0.96767	-0.108
Mof_H 	H 	0.232	0.5597	0.9294	0.05
Mof_H 	H 	0.2687	0.5018	0.966	0.05
Mof_H 	H 	0.3053	0.347	0.7715	0.045
Mof_C 	C 	0.2812	0.4822	0.7753	-0.068
Mof_C 	C 	0.4785	0.3407	0.6593	-0.068
Mof_H 	H 	0.5171	0.2799	0.7131	0.047
Mof_C 	C 	0.3605	0.2976	0.6424	-0.112
Mof_C 	C 	0.1901	0.2831	0.66891	-0.078
Mof_H 	H 	0.2401	0.1851	0.6328	0.078
Mof_H 	H 	0.1977	0.1427	0.6718	0.075
Mof_C 	C 	0.4242	0.448	0.0165	-0.078
Mof_C 	C 	0.5111	0.5018	0.8984	-0.091
Mof_H 	H 	0.4035	0.4921	0.8975	0.055
Mof_H 	H 	0.4371	0.4298	0.9338	0.05
Mof_C 	C 	0.4031	0.5022	0.0906	-0.065
Mof_H 	H 	0.3826	0.6356	0.0958	0.046
Mof_H 	H 	0.239	0.5873	0.8648	0.073
Mof_C 	C 	0.2636	0.5549	0.8046	0.01
Mof_C 	C 	0.1012	0.4897	0.94395	0.272
Mof_C 	C 	0.1577	0.4945	0.01431	0.103
Mof_H 	H 	0.2855	0.4946	0.7455	0.054
Mof_C 	C 	0.4195	0.347	0.6339	0.014
Mof_H 	H 	0.5187	0.3739	0.6521	0.053
Mof_H 	H 	0.3223	0.3021	0.6236	0.089
Mof_C 	C 	0.1813	0.3427	0.63247	0.235
Mof_C 	C 	0.1598	0.3115	0.70833	0.066
Mof_C 	C 	0.418	0.431	0.0604	-0.005
Mof_H 	H 	0.4346	0.3998	0.9973	0.063
Mof_C 	C 	0.5712	0.5091	0.92383	0.272
Mof_C 	C 	0.5186	0.4957	0.85223	0.078
Mof_H 	H 	0.4006	0.4893	0.1204	0.051
Mof_H 	H 	0.2597	0.6153	0.7941	0.021
Mof_O 	O 	0.10683	0.4923	0.8992	-0.439
Mof_C 	C 	0.0341	0.4892	0.96441	-0.27
Mof_C 	C 	0.0902	0.4965	0.03489	-0.079
Mof_C 	C 	0.2175	0.4987	0.043	-0.134
Mof_H 	H 	0.42	0.3867	0.6099	0.027
Mof_C 	C 	0.1477	0.4301	0.63583	-0.208
Mof_O 	O 	0.2084	0.3142	0.5931	-0.439
Mof_C 	C 	0.1604	0.252	0.74669	-0.121
Mof_C 	C 	0.1255	0.3992	0.71289	-0.043
Mof_H 	H 	0.4237	0.3706	0.0706	0.034
Mof_O 	O 	0.56338	0.5076	0.96778	-0.444
Mof_C 	C 	0.6386	0.5177	0.90447	-0.253
Mof_C 	C 	0.5865	0.5017	0.83355	-0.062
Mof_C 	C 	0.4606	0.4847	0.8228	-0.108
Mof_H 	H 	0.0681	0.4844	0.8882	0.284
Mof_C 	C 	0.9684	0.4883	0.93796	0.492
Mof_C 	C 	0.0313	0.4931	0.00935	0.113
Mof_C 	C 	0.0862	0.5054	0.08136	0.012
Mof_H 	H 	0.2623	0.4956	0.0311	0.092
Mof_C 	C 	0.2104	0.507	0.0861	0.047
Mof_C 	C 	0.121	0.4553	0.67583	0.042
Mof_C 	C 	0.1385	0.4958	0.59818	0.425
Mof_H 	H 	0.2076	0.3577	0.5757	0.278
Mof_H 	H 	0.181	0.1935	0.7452	0.094
Mof_C 	C 	0.1312	0.2814	0.7845	0.026
Mof_C 	C 	0.0966	0.4257	0.754	-0.012
Mof_H 	H 	0.6019	0.5111	0.9795	0.283
Mof_C 	C 	0.6451	0.5121	0.85999	0.086
Mof_C 	C 	0.7027	0.5259	0.93186	0.455
Mof_C 	C 	0.5942	0.494	0.7862	-0.014
Mof_C 	C 	0.4722	0.4757	0.7783	0.011
Mof_H 	H 	0.4151	0.4836	0.8337	0.078
Mof_H 	H 	0.9877	0.4935	0.0229	-0.007
Mof_H 	H 	0.0426	0.5074	0.0948	0.036
Mof_C 	C 	0.1454	0.5111	0.1065	-0.101
Mof_H 	H 	0.2506	0.5101	0.1033	0.018
Mof_H 	H 	0.0988	0.5126	0.6783	0.029
Mof_O 	O 	0.1105	0.5703	0.60354	-0.328
Mof_H 	H 	0.1322	0.2417	0.8085	0.028
Mof_C 	C 	0.0995	0.3682	0.7894	-0.079
Mof_H 	H 	0.0752	0.4834	0.7567	0.038
Mof_H 	H 	0.6893	0.5154	0.8473	-0.011
Mof_C 	C 	0.539	0.4807	0.7602	-0.074
Mof_H 	H 	0.6386	0.4985	0.7739	0.041
Mof_H 	H 	0.4342	0.4659	0.7598	0.028
Mof_H 	H 	0.1422	0.5177	0.1367	0.072
Mof_H 	H 	0.0809	0.3864	0.8162	0.072
Mof_H 	H 	0.5451	0.4748	0.7301	0.056
_end
