# CIF file generated by openbabel 3.1.0, see https://openbabel.org
data_I
_chemical_name_common 'image0'
_cell_length_a 16.842
_cell_length_b 16.835
_cell_length_c 20.258
_cell_angle_alpha 90
_cell_angle_beta 90
_cell_angle_gamma 90
_space_group_name_H-M_alt 'P 1'
_space_group_name_Hall 'P 1'
loop_
    _symmetry_equiv_pos_as_xyz
    x,y,z
loop_
    _atom_site_label
    _atom_site_type_symbol
    _atom_site_fract_x
    _atom_site_fract_y
    _atom_site_fract_z
    _atom_site_occupancy
    Co1      Co       0.14628    0.69805    0.50070    1.000
    Co2      Co       0.05003    0.61359    0.75985    1.000
    Co3      Co       0.13006    0.74491    0.00155    1.000
    Co4      Co       0.03779    0.63205    0.24236    1.000
    N1       N        0.08260    0.80380    0.51670    1.000
    N2       N        0.01500    0.91610    0.49000    1.000
    H1       H        0.99190    0.95150    0.46540    1.000
    N3       N        0.99550    0.99940    0.72590    1.000
    N4       N        0.05260    0.88110    0.75450    1.000
    H2       H        0.07080    0.84320    0.77940    1.000
    N5       N        0.95150    0.68180    0.78110    1.000
    N6       N        0.84050    0.74760    0.75520    1.000
    H3       H        0.80480    0.77140    0.73130    1.000
    N7       N        0.74020    0.72170    0.98700    1.000
    N8       N        0.85600    0.66730    0.01490    1.000
    H4       H        0.89230    0.64590    0.03970    1.000
    N9       N        0.94690    0.70660    0.25720    1.000
    N10      N        0.83210    0.76140    0.23480    1.000
    H5       H        0.79320    0.78110    0.21180    1.000
    N11      N        0.76250    0.76950    0.47560    1.000
    N12      N        0.88090    0.71630    0.49790    1.000
    H6       H        0.92000    0.69640    0.52060    1.000
    N13      N        0.99850    0.52010    0.25390    1.000
    N14      N        0.93110    0.40960    0.23470    1.000
    H7       H        0.90580    0.37290    0.21300    1.000
    N15      N        0.94230    0.33060    0.47350    1.000
    N16      N        0.01130    0.44120    0.49140    1.000
    H8       H        0.03770    0.47700    0.51320    1.000
    C1       C        0.05120    0.84670    0.46920    1.000
    H9       H        0.05320    0.83150    0.42460    1.000
    C2       C        0.02130    0.95220    0.77550    1.000
    H10      H        0.01820    0.96670    0.82020    1.000
    C3       C        0.90890    0.72080    0.73390    1.000
    H11      H        0.92690    0.72770    0.69040    1.000
    C4       C        0.78470    0.69070    0.03370    1.000
    H12      H        0.76700    0.68560    0.07750    1.000
    C5       C        0.89810    0.73230    0.21070    1.000
    H13      H        0.90960    0.72990    0.16540    1.000
    C6       C        0.81180    0.74430    0.52280    1.000
    H14      H        0.79990    0.74590    0.56810    1.000
    C7       C        0.95740    0.47690    0.20900    1.000
    H15      H        0.94860    0.49280    0.16510    1.000
    C8       C        0.97660    0.37390    0.51890    1.000
    H16      H        0.97770    0.36130    0.56410    1.000
    C9       C        0.02320    0.91780    0.55810    1.000
    C10      C        0.06210    0.84490    0.57540    1.000
    C11      C        0.07590    0.82620    0.64110    1.000
    H17      H        0.10140    0.77910    0.65400    1.000
    C12      C        0.04950    0.88170    0.68590    1.000
    C13      C        0.01330    0.95440    0.66840    1.000
    C14      C        0.99530    0.97310    0.60310    1.000
    H18      H        0.96690    0.01890    0.59070    1.000
    C15      C        0.83480    0.73200    0.82090    1.000
    C16      C        0.90680    0.69220    0.83730    1.000
    C17      C        0.92230    0.67180    0.90240    1.000
    H19      H        0.97170    0.65090    0.91540    1.000
    C18      C        0.86180    0.68370    0.94710    1.000
    C19      C        0.78790    0.72020    0.92970    1.000
    C20      C        0.77340    0.74690    0.86620    1.000
    H20      H        0.72620    0.77290    0.85430    1.000
    C21      C        0.83450    0.75560    0.30360    1.000
    C22      C        0.90840    0.71900    0.31720    1.000
    C23      C        0.93240    0.70530    0.38200    1.000
    H21      H        0.98250    0.68400    0.39240    1.000
    C24      C        0.87810    0.72500    0.42970    1.000
    C25      C        0.80250    0.76080    0.41590    1.000
    C26      C        0.78010    0.77720    0.35250    1.000
    H22      H        0.73130    0.80140    0.34240    1.000
    C27      C        0.99220    0.47740    0.31410    1.000
    C28      C        0.94950    0.40600    0.30050    1.000
    C29      C        0.92930    0.34930    0.34790    1.000
    H23      H        0.89990    0.30310    0.33870    1.000
    C30      C        0.95770    0.36910    0.41100    1.000
    C31      C        0.99720    0.44250    0.42390    1.000
    C32      C        0.01810    0.49590    0.37630    1.000
    H24      H        0.04800    0.54170    0.38550    1.000
    S1       S        0.05316    0.60506    0.59898    1.000
    S2       S        0.14197    0.70217    0.85309    1.000
    S3       S        0.16410    0.70492    0.33603    1.000
    S4       S        0.06397    0.60658    0.09428    1.000
    O1       O        0.12630    0.65350    0.59280    1.000
    O2       O        0.01600    0.62330    0.66260    1.000
    O3       O        0.00110    0.62620    0.54390    1.000
    O4       O        0.07180    0.51800    0.59730    1.000
    O5       O        0.09890    0.62370    0.85640    1.000
    O6       O        0.11140    0.75670    0.90540    1.000
    O7       O        0.12650    0.73850    0.78880    1.000
    O8       O        0.22590    0.68940    0.86320    1.000
    O9       O        0.11300    0.64240    0.04010    1.000
    O10      O        0.09440    0.63950    0.15810    1.000
    O11      O        0.07520    0.51980    0.09350    1.000
    O12      O        0.97990    0.62910    0.09160    1.000
    O13      O        0.11250    0.63650    0.31390    1.000
    O14      O        0.13920    0.72920    0.40330    1.000
    O15      O        0.24710    0.68050    0.33640    1.000
    O16      O        0.15260    0.77170    0.29010    1.000
    Co5      Co       0.35372    0.30195    0.00070    1.000
    Co6      Co       0.44997    0.38641    0.25985    1.000
    Co7      Co       0.36994    0.25509    0.50155    1.000
    Co8      Co       0.46221    0.36795    0.74236    1.000
    N17      N        0.41740    0.19620    0.01670    1.000
    N18      N        0.48500    0.08390    0.99000    1.000
    H25      H        0.50810    0.04850    0.96540    1.000
    N19      N        0.50450    0.00060    0.22590    1.000
    N20      N        0.44740    0.11890    0.25450    1.000
    H26      H        0.42920    0.15680    0.27940    1.000
    N21      N        0.54850    0.31820    0.28110    1.000
    N22      N        0.65950    0.25240    0.25520    1.000
    H27      H        0.69520    0.22860    0.23130    1.000
    N23      N        0.75980    0.27830    0.48700    1.000
    N24      N        0.64400    0.33270    0.51490    1.000
    H28      H        0.60770    0.35410    0.53970    1.000
    N25      N        0.55310    0.29340    0.75720    1.000
    N26      N        0.66790    0.23860    0.73480    1.000
    H29      H        0.70680    0.21890    0.71180    1.000
    N27      N        0.73750    0.23050    0.97560    1.000
    N28      N        0.61910    0.28370    0.99790    1.000
    H30      H        0.58000    0.30360    0.02060    1.000
    N29      N        0.50150    0.47990    0.75390    1.000
    N30      N        0.56890    0.59040    0.73470    1.000
    H31      H        0.59420    0.62710    0.71300    1.000
    N31      N        0.55770    0.66940    0.97350    1.000
    N32      N        0.48870    0.55880    0.99140    1.000
    H32      H        0.46230    0.52300    0.01320    1.000
    C33      C        0.44880    0.15330    0.96920    1.000
    H33      H        0.44680    0.16850    0.92460    1.000
    C34      C        0.47870    0.04780    0.27550    1.000
    H34      H        0.48180    0.03330    0.32020    1.000
    C35      C        0.59110    0.27920    0.23390    1.000
    H35      H        0.57310    0.27230    0.19040    1.000
    C36      C        0.71530    0.30930    0.53370    1.000
    H36      H        0.73300    0.31440    0.57750    1.000
    C37      C        0.60190    0.26770    0.71070    1.000
    H37      H        0.59040    0.27010    0.66540    1.000
    C38      C        0.68820    0.25570    0.02280    1.000
    H38      H        0.70010    0.25410    0.06810    1.000
    C39      C        0.54260    0.52310    0.70900    1.000
    H39      H        0.55140    0.50720    0.66510    1.000
    C40      C        0.52340    0.62610    0.01890    1.000
    H40      H        0.52230    0.63870    0.06410    1.000
    C41      C        0.47680    0.08220    0.05810    1.000
    C42      C        0.43790    0.15510    0.07540    1.000
    C43      C        0.42410    0.17380    0.14110    1.000
    H41      H        0.39860    0.22090    0.15400    1.000
    C44      C        0.45050    0.11830    0.18590    1.000
    C45      C        0.48670    0.04560    0.16840    1.000
    C46      C        0.50470    0.02690    0.10310    1.000
    H42      H        0.53310    0.98110    0.09070    1.000
    C47      C        0.66520    0.26800    0.32090    1.000
    C48      C        0.59320    0.30780    0.33730    1.000
    C49      C        0.57770    0.32820    0.40240    1.000
    H43      H        0.52830    0.34910    0.41540    1.000
    C50      C        0.63820    0.31630    0.44710    1.000
    C51      C        0.71210    0.27980    0.42970    1.000
    C52      C        0.72660    0.25310    0.36620    1.000
    H44      H        0.77380    0.22710    0.35430    1.000
    C53      C        0.66550    0.24440    0.80360    1.000
    C54      C        0.59160    0.28100    0.81720    1.000
    C55      C        0.56760    0.29470    0.88200    1.000
    H45      H        0.51750    0.31600    0.89240    1.000
    C56      C        0.62190    0.27500    0.92970    1.000
    C57      C        0.69750    0.23920    0.91590    1.000
    C58      C        0.71990    0.22280    0.85250    1.000
    H46      H        0.76870    0.19860    0.84240    1.000
    C59      C        0.50780    0.52260    0.81410    1.000
    C60      C        0.55050    0.59400    0.80050    1.000
    C61      C        0.57070    0.65070    0.84790    1.000
    H47      H        0.60010    0.69690    0.83870    1.000
    C62      C        0.54230    0.63090    0.91100    1.000
    C63      C        0.50280    0.55750    0.92390    1.000
    C64      C        0.48190    0.50410    0.87630    1.000
    H48      H        0.45200    0.45830    0.88550    1.000
    S5       S        0.44684    0.39494    0.09898    1.000
    S6       S        0.35803    0.29783    0.35309    1.000
    S7       S        0.33590    0.29508    0.83603    1.000
    S8       S        0.43603    0.39342    0.59428    1.000
    O17      O        0.37370    0.34650    0.09280    1.000
    O18      O        0.48400    0.37670    0.16260    1.000
    O19      O        0.49890    0.37380    0.04390    1.000
    O20      O        0.42820    0.48200    0.09730    1.000
    O21      O        0.40110    0.37630    0.35640    1.000
    O22      O        0.38860    0.24330    0.40540    1.000
    O23      O        0.37350    0.26150    0.28880    1.000
    O24      O        0.27410    0.31060    0.36320    1.000
    O25      O        0.38700    0.35760    0.54010    1.000
    O26      O        0.40560    0.36050    0.65810    1.000
    O27      O        0.42480    0.48020    0.59350    1.000
    O28      O        0.52010    0.37090    0.59160    1.000
    O29      O        0.38750    0.36350    0.81390    1.000
    O30      O        0.36080    0.27080    0.90330    1.000
    O31      O        0.25290    0.31950    0.83640    1.000
    O32      O        0.34740    0.22830    0.79010    1.000
    Co9      Co       0.85372    0.19805    0.99930    1.000
    Co10     Co       0.94997    0.11359    0.74015    1.000
    Co11     Co       0.86994    0.24491    0.49845    1.000
    Co12     Co       0.96221    0.13205    0.25764    1.000
    N33      N        0.91740    0.30380    0.98330    1.000
    N34      N        0.98500    0.41610    0.01000    1.000
    H49      H        0.00810    0.45150    0.03460    1.000
    N35      N        0.00450    0.49940    0.77410    1.000
    N36      N        0.94740    0.38110    0.74550    1.000
    H50      H        0.92920    0.34320    0.72060    1.000
    N37      N        0.04850    0.18180    0.71890    1.000
    N38      N        0.15950    0.24760    0.74480    1.000
    H51      H        0.19520    0.27140    0.76870    1.000
    N39      N        0.25980    0.22170    0.51300    1.000
    N40      N        0.14400    0.16730    0.48510    1.000
    H52      H        0.10770    0.14590    0.46030    1.000
    N41      N        0.05310    0.20660    0.24280    1.000
    N42      N        0.16790    0.26140    0.26520    1.000
    H53      H        0.20680    0.28110    0.28820    1.000
    N43      N        0.23750    0.26950    0.02440    1.000
    N44      N        0.11910    0.21630    0.00210    1.000
    H54      H        0.08000    0.19640    0.97940    1.000
    N45      N        0.00150    0.02010    0.24610    1.000
    N46      N        0.06890    0.90960    0.26530    1.000
    H55      H        0.09420    0.87290    0.28700    1.000
    N47      N        0.05770    0.83060    0.02650    1.000
    N48      N        0.98870    0.94120    0.00860    1.000
    H56      H        0.96230    0.97700    0.98680    1.000
    C65      C        0.94880    0.34670    0.03080    1.000
    H57      H        0.94680    0.33150    0.07540    1.000
    C66      C        0.97870    0.45220    0.72450    1.000
    H58      H        0.98180    0.46670    0.67980    1.000
    C67      C        0.09110    0.22080    0.76610    1.000
    H59      H        0.07310    0.22770    0.80960    1.000
    C68      C        0.21530    0.19070    0.46630    1.000
    H60      H        0.23300    0.18560    0.42250    1.000
    C69      C        0.10190    0.23230    0.28930    1.000
    H61      H        0.09040    0.22990    0.33460    1.000
    C70      C        0.18820    0.24430    0.97720    1.000
    H62      H        0.20010    0.24590    0.93190    1.000
    C71      C        0.04260    0.97690    0.29100    1.000
    H63      H        0.05140    0.99280    0.33490    1.000
    C72      C        0.02340    0.87390    0.98110    1.000
    H64      H        0.02230    0.86130    0.93590    1.000
    C73      C        0.97680    0.41780    0.94190    1.000
    C74      C        0.93790    0.34490    0.92460    1.000
    C75      C        0.92410    0.32620    0.85890    1.000
    H65      H        0.89860    0.27910    0.84600    1.000
    C76      C        0.95050    0.38170    0.81410    1.000
    C77      C        0.98670    0.45440    0.83160    1.000
    C78      C        0.00470    0.47310    0.89690    1.000
    H66      H        0.03310    0.51890    0.90930    1.000
    C79      C        0.16520    0.23200    0.67910    1.000
    C80      C        0.09320    0.19220    0.66270    1.000
    C81      C        0.07770    0.17180    0.59760    1.000
    H67      H        0.02830    0.15090    0.58460    1.000
    C82      C        0.13820    0.18370    0.55290    1.000
    C83      C        0.21210    0.22020    0.57030    1.000
    C84      C        0.22660    0.24690    0.63380    1.000
    H68      H        0.27380    0.27290    0.64570    1.000
    C85      C        0.16550    0.25560    0.19640    1.000
    C86      C        0.09160    0.21900    0.18280    1.000
    C87      C        0.06760    0.20530    0.11800    1.000
    H69      H        0.01750    0.18400    0.10760    1.000
    C88      C        0.12190    0.22500    0.07030    1.000
    C89      C        0.19750    0.26080    0.08410    1.000
    C90      C        0.21990    0.27720    0.14750    1.000
    H70      H        0.26870    0.30140    0.15760    1.000
    C91      C        0.00780    0.97740    0.18590    1.000
    C92      C        0.05050    0.90600    0.19950    1.000
    C93      C        0.07070    0.84930    0.15210    1.000
    H71      H        0.10010    0.80310    0.16130    1.000
    C94      C        0.04230    0.86910    0.08900    1.000
    C95      C        0.00280    0.94250    0.07610    1.000
    C96      C        0.98190    0.99590    0.12370    1.000
    H72      H        0.95200    0.04170    0.11450    1.000
    S9       S        0.94684    0.10506    0.90102    1.000
    S10      S        0.85803    0.20217    0.64691    1.000
    S11      S        0.83590    0.20492    0.16397    1.000
    S12      S        0.93603    0.10658    0.40572    1.000
    O33      O        0.87370    0.15350    0.90720    1.000
    O34      O        0.98400    0.12330    0.83740    1.000
    O35      O        0.99890    0.12620    0.95610    1.000
    O36      O        0.92820    0.01800    0.90270    1.000
    O37      O        0.90110    0.12370    0.64360    1.000
    O38      O        0.88860    0.25670    0.59460    1.000
    O39      O        0.87350    0.23850    0.71120    1.000
    O40      O        0.77410    0.18940    0.63680    1.000
    O41      O        0.88700    0.14240    0.45990    1.000
    O42      O        0.90560    0.13950    0.34190    1.000
    O43      O        0.92480    0.01980    0.40650    1.000
    O44      O        0.02010    0.12910    0.40840    1.000
    O45      O        0.88750    0.13650    0.18610    1.000
    O46      O        0.86080    0.22920    0.09670    1.000
    O47      O        0.75290    0.18050    0.16360    1.000
    O48      O        0.84740    0.27170    0.20990    1.000
    Co13     Co       0.64628    0.80195    0.49930    1.000
    Co14     Co       0.55003    0.88641    0.24015    1.000
    Co15     Co       0.63006    0.75509    0.99845    1.000
    Co16     Co       0.53779    0.86795    0.75764    1.000
    N49      N        0.58260    0.69620    0.48330    1.000
    N50      N        0.51500    0.58390    0.51000    1.000
    H73      H        0.49190    0.54850    0.53460    1.000
    N51      N        0.49550    0.50060    0.27410    1.000
    N52      N        0.55260    0.61890    0.24550    1.000
    H74      H        0.57080    0.65680    0.22060    1.000
    N53      N        0.45150    0.81820    0.21890    1.000
    N54      N        0.34050    0.75240    0.24480    1.000
    H75      H        0.30480    0.72860    0.26870    1.000
    N55      N        0.24020    0.77830    0.01300    1.000
    N56      N        0.35600    0.83270    0.98510    1.000
    H76      H        0.39230    0.85410    0.96030    1.000
    N57      N        0.44690    0.79340    0.74280    1.000
    N58      N        0.33210    0.73860    0.76520    1.000
    H77      H        0.29320    0.71890    0.78820    1.000
    N59      N        0.26250    0.73050    0.52440    1.000
    N60      N        0.38090    0.78370    0.50210    1.000
    H78      H        0.42000    0.80360    0.47940    1.000
    N61      N        0.49850    0.97990    0.74610    1.000
    N62      N        0.43110    0.09040    0.76530    1.000
    H79      H        0.40580    0.12710    0.78700    1.000
    N63      N        0.44230    0.16940    0.52650    1.000
    N64      N        0.51130    0.05880    0.50860    1.000
    H80      H        0.53770    0.02300    0.48680    1.000
    C97      C        0.55120    0.65330    0.53080    1.000
    H81      H        0.55320    0.66850    0.57540    1.000
    C98      C        0.52130    0.54780    0.22450    1.000
    H82      H        0.51820    0.53330    0.17980    1.000
    C99      C        0.40890    0.77920    0.26610    1.000
    H83      H        0.42690    0.77230    0.30960    1.000
    C100     C        0.28470    0.80930    0.96630    1.000
    H84      H        0.26700    0.81440    0.92250    1.000
    C101     C        0.39810    0.76770    0.78930    1.000
    H85      H        0.40960    0.77010    0.83460    1.000
    C102     C        0.31180    0.75570    0.47720    1.000
    H86      H        0.29990    0.75410    0.43190    1.000
    C103     C        0.45740    0.02310    0.79100    1.000
    H87      H        0.44860    0.00720    0.83490    1.000
    C104     C        0.47660    0.12610    0.48110    1.000
    H88      H        0.47770    0.13870    0.43590    1.000
    C105     C        0.52320    0.58220    0.44190    1.000
    C106     C        0.56210    0.65510    0.42460    1.000
    C107     C        0.57590    0.67380    0.35890    1.000
    H89      H        0.60140    0.72090    0.34600    1.000
    C108     C        0.54950    0.61830    0.31410    1.000
    C109     C        0.51330    0.54560    0.33160    1.000
    C110     C        0.49530    0.52690    0.39690    1.000
    H90      H        0.46690    0.48110    0.40930    1.000
    C111     C        0.33480    0.76800    0.17910    1.000
    C112     C        0.40680    0.80780    0.16270    1.000
    C113     C        0.42230    0.82820    0.09760    1.000
    H91      H        0.47170    0.84910    0.08460    1.000
    C114     C        0.36180    0.81630    0.05290    1.000
    C115     C        0.28790    0.77980    0.07030    1.000
    C116     C        0.27340    0.75310    0.13380    1.000
    H92      H        0.22620    0.72710    0.14570    1.000
    C117     C        0.33450    0.74440    0.69640    1.000
    C118     C        0.40840    0.78100    0.68280    1.000
    C119     C        0.43240    0.79470    0.61800    1.000
    H93      H        0.48250    0.81600    0.60760    1.000
    C120     C        0.37810    0.77500    0.57030    1.000
    C121     C        0.30250    0.73920    0.58410    1.000
    C122     C        0.28010    0.72280    0.64750    1.000
    H94      H        0.23130    0.69860    0.65760    1.000
    C123     C        0.49220    0.02260    0.68590    1.000
    C124     C        0.44950    0.09400    0.69950    1.000
    C125     C        0.42930    0.15070    0.65210    1.000
    H95      H        0.39990    0.19690    0.66130    1.000
    C126     C        0.45770    0.13090    0.58900    1.000
    C127     C        0.49720    0.05750    0.57610    1.000
    C128     C        0.51810    0.00410    0.62370    1.000
    H96      H        0.54800    0.95830    0.61450    1.000
    S13      S        0.55316    0.89494    0.40102    1.000
    S14      S        0.64197    0.79783    0.14691    1.000
    S15      S        0.66410    0.79508    0.66397    1.000
    S16      S        0.56397    0.89342    0.90572    1.000
    O49      O        0.62630    0.84650    0.40720    1.000
    O50      O        0.51600    0.87670    0.33740    1.000
    O51      O        0.50110    0.87380    0.45610    1.000
    O52      O        0.57180    0.98200    0.40270    1.000
    O53      O        0.59890    0.87630    0.14360    1.000
    O54      O        0.61140    0.74330    0.09460    1.000
    O55      O        0.62650    0.76150    0.21120    1.000
    O56      O        0.72590    0.81060    0.13680    1.000
    O57      O        0.61300    0.85760    0.95990    1.000
    O58      O        0.59440    0.86050    0.84190    1.000
    O59      O        0.57520    0.98020    0.90650    1.000
    O60      O        0.47990    0.87090    0.90840    1.000
    O61      O        0.61250    0.86350    0.68610    1.000
    O62      O        0.63920    0.77080    0.59670    1.000
    O63      O        0.74710    0.81950    0.66360    1.000
    O64      O        0.65260    0.72830    0.70990    1.000
