# CIF file generated by openbabel 3.1.0, see https://openbabel.org
data_I
_chemical_name_common 'BEVQUP_clean'
_cell_length_a 9.1502
_cell_length_b 9.3039
_cell_length_c 9.3039
_cell_angle_alpha 76.0066
_cell_angle_beta 60.5448
_cell_angle_gamma 60.5448
_space_group_name_H-M_alt 'P 1'
_space_group_name_Hall 'P 1'
loop_
    _symmetry_equiv_pos_as_xyz
    x,y,z
loop_
    _atom_site_label
    _atom_site_type_symbol
    _atom_site_fract_x
    _atom_site_fract_y
    _atom_site_fract_z
    _atom_site_occupancy
    Rb1      Rb       0.12500    0.75000    0.75000    1.000
    Rb2      Rb       0.87500    0.25000    0.25000    1.000
    Y1       Y        0.62500    0.75000    0.75000    1.000
    Y2       Y        0.37500    0.25000    0.25000    1.000
    C1       C        0.60600    0.97400    0.98400    1.000
    C2       C        0.06400    0.52600    0.51600    1.000
    C3       C        0.59000    0.01600    0.47400    1.000
    C4       C        0.58000    0.48400    0.02600    1.000
    C5       C        0.39400    0.02600    0.01600    1.000
    C6       C        0.93600    0.47400    0.48400    1.000
    C7       C        0.41000    0.98400    0.52600    1.000
    C8       C        0.42000    0.51600    0.97400    1.000
    O1       O        0.72650    0.88300    0.85700    1.000
    O2       O        0.63820    0.13700    0.95700    1.000
    O3       O        0.96650    0.61700    0.64300    1.000
    O4       O        0.23220    0.36300    0.54300    1.000
    O5       O        0.58350    0.14300    0.38300    1.000
    O6       O        0.59520    0.04300    0.63700    1.000
    O7       O        0.60950    0.35700    0.11700    1.000
    O8       O        0.77520    0.45700    0.86300    1.000
    O9       O        0.27350    0.11700    0.14300    1.000
    O10      O        0.36180    0.86300    0.04300    1.000
    O11      O        0.03350    0.38300    0.35700    1.000
    O12      O        0.76780    0.63700    0.45700    1.000
    O13      O        0.41650    0.85700    0.61700    1.000
    O14      O        0.40480    0.95700    0.36300    1.000
    O15      O        0.39050    0.64300    0.88300    1.000
    O16      O        0.22480    0.54300    0.13700    1.000
