data_functionalizedCrystal
_audit_creation_method	'EQeq! by Chris Wilmer'
_symmetry_space_group_name_H-M	'P1'
_symmetry_Int_Tables_number	1
_symmetry_cell_setting	triclinic
loop_
_symmetry_equiv_pos_as_xyz
  x,y,z
_cell_length_a	12.4648
_cell_length_b	20.883
_cell_length_c	20.883
_cell_angle_alpha	120
_cell_angle_beta	90
_cell_angle_gamma	90
loop_
_atom_site_label
_atom_site_type_symbol
_atom_site_fract_x
_atom_site_fract_y
_atom_site_fract_z
_atom_site_charge
Mof_K 	K 	0.72195	0.63139	0.04045	2.228
Mof_K 	K 	0.61107	0.51982	0.62552	2.876
Mof_K 	K 	0.3713	0.1945	0.35	1.124
Mof_K 	K 	0.05528	0.40906	0.36861	2.236
Mof_K 	K 	0.9444	0.1057	0.48018	2.921
Mof_K 	K 	0.70463	0.1555	0.8055	1.168
Mof_K 	K 	0.38862	0.95955	0.59094	2.388
Mof_K 	K 	0.27774	0.37448	0.8943	2.966
Mof_K 	K 	0.03797	0.65	0.8445	1.127
Mof_K 	K 	0.27805	0.59094	0.95955	2.398
Mof_K 	K 	0.38893	0.8943	0.37448	2.955
Mof_K 	K 	0.6287	0.8445	0.65	1.224
Mof_K 	K 	0.94472	0.04045	0.63139	2.231
Mof_K 	K 	0.0556	0.62552	0.51982	2.771
Mof_K 	K 	0.29537	0.35	0.1945	1.128
Mof_K 	K 	0.61138	0.36861	0.40906	2.284
Mof_K 	K 	0.72226	0.48018	0.1057	2.893
Mof_K 	K 	0.96203	0.8055	0.1555	1.255
Mof_K 	K 	-0	0.4581	-0	2.115
Mof_K 	K 	0.33333	0.5419	0.5419	2.417
Mof_K 	K 	0.66667	-4.8299e-17	0.4581	2.198
Mof_Fe	Fe	0.53626	0.49258	0.91485	0.848
Mof_Fe	Fe	0.86959	0.42227	0.50742	0.844
Mof_Fe	Fe	0.20293	0.08515	0.57773	0.822
Mof_Fe	Fe	0.46374	0.57773	0.08515	0.82
Mof_Fe	Fe	0.13041	0.91485	0.49258	0.822
Mof_Fe	Fe	0.79707	0.50742	0.42227	0.829
Mof_H 	H 	0.693	0.41	0.7321	0.081
Mof_H 	H 	0.7623	0.4451	0.8045	0.08
Mof_H 	H 	0.7467	0.34	0.8104	0.065
Mof_H 	H 	0.6441	0.3262	0.8455	-0.015
Mof_H 	H 	0.4982	0.3307	0.7805	-0.102
Mof_H 	H 	0.5813	0.3149	0.7179	-0.02
Mof_H 	H 	0.2902	0.5254	0.7899	-0.012
Mof_H 	H 	0.2817	0.4876	0.6675	-0.161
Mof_H 	H 	0.5121	0.3369	0.6247	-0.072
Mof_H 	H 	0.02633	0.3221	0.59	0.093
Mof_H 	H 	0.09563	0.3594	0.5549	0.094
Mof_H 	H 	0.08003	0.4704	0.66	0.086
Mof_H 	H 	0.97743	0.5193	0.6738	0.029
Mof_H 	H 	0.83153	0.4498	0.6693	-0.093
Mof_H 	H 	0.91463	0.403	0.6851	-0.009
Mof_H 	H 	0.62353	0.2645	0.4746	-0.009
Mof_H 	H 	0.61503	0.1799	0.5124	-0.154
Mof_H 	H 	0.84543	0.2878	0.6631	-0.066
Mof_H 	H 	0.35967	0.2679	0.6779	0.079
Mof_H 	H 	0.42897	0.1955	0.6406	0.075
Mof_H 	H 	0.41337	0.1896	0.5296	0.065
Mof_H 	H 	0.31077	0.1545	0.4807	-0.015
Mof_H 	H 	0.16487	0.2195	0.5502	-0.106
Mof_H 	H 	0.24797	0.2821	0.597	-0.025
Mof_H 	H 	0.95687	0.2101	0.7355	0.045
Mof_H 	H 	0.94837	0.3325	0.8201	-0.186
Mof_H 	H 	0.17877	0.3753	0.7122	-0.087
Mof_H 	H 	0.307	0.6779	0.2679	0.079
Mof_H 	H 	0.2377	0.6406	0.1955	0.073
Mof_H 	H 	0.2533	0.5296	0.1896	0.065
Mof_H 	H 	0.3559	0.4807	0.1545	-0.015
Mof_H 	H 	0.5018	0.5502	0.2195	-0.099
Mof_H 	H 	0.4187	0.597	0.2821	-0.019
Mof_H 	H 	0.7098	0.7355	0.2101	-0.009
Mof_H 	H 	0.7183	0.8201	0.3325	-0.152
Mof_H 	H 	0.4879	0.7122	0.3753	-0.072
Mof_H 	H 	0.97367	0.7321	0.41	0.06
Mof_H 	H 	0.90437	0.8045	0.4451	0.052
Mof_H 	H 	0.91997	0.8104	0.34	0.032
Mof_H 	H 	0.02257	0.8455	0.3262	-0.075
Mof_H 	H 	0.16847	0.7805	0.3307	-0.108
Mof_H 	H 	0.08537	0.7179	0.3149	-0.034
Mof_H 	H 	0.37647	0.7899	0.5254	-0.014
Mof_H 	H 	0.38497	0.6675	0.4876	-0.161
Mof_H 	H 	0.15457	0.6247	0.3369	-0.076
Mof_H 	H 	0.64033	0.59	0.3221	0.08
Mof_H 	H 	0.57103	0.5549	0.3594	0.076
Mof_H 	H 	0.58663	0.66	0.4704	0.063
Mof_H 	H 	0.68923	0.6738	0.5193	-0.015
Mof_H 	H 	0.83513	0.6693	0.4498	-0.084
Mof_H 	H 	0.75203	0.6851	0.403	-0.009
Mof_H 	H 	0.04313	0.4746	0.2645	-0.08
Mof_H 	H 	0.05163	0.5124	0.1799	-0.099
Mof_H 	H 	0.82123	0.6631	0.2878	-0.049
Mof_C 	C 	0.69	0.4407	0.7855	-0.307
Mof_C 	C 	0.6492	0.5167	0.8054	0.46
Mof_C 	C 	0.687	0.364	0.8437	-0.229
Mof_C 	C 	0.7292	0.4182	0.9209	0.463
Mof_C 	C 	0.5425	0.3537	0.7594	0.1
Mof_C 	C 	0.4708	0.39382	0.73202	-0.261
Mof_C 	C 	0.4044	0.4522	0.7844	0.278
Mof_C 	C 	0.3338	0.4867	0.7569	-0.36
Mof_C 	C 	0.329	0.4645	0.684	0.229
Mof_C 	C 	0.3942	0.4072	0.6331	-0.412
Mof_C 	C 	0.4664	0.3736	0.65824	0.144
Mof_C 	C 	0.02333	0.3448	0.5593	-0.37
Mof_C 	C 	0.98253	0.2887	0.4833	0.514
Mof_C 	C 	0.02033	0.4797	0.636	-0.318
Mof_C 	C 	0.06253	0.5027	0.5818	0.494
Mof_C 	C 	0.87583	0.4057	0.6463	0.086
Mof_C 	C 	0.80413	0.3382	0.60618	-0.251
Mof_C 	C 	0.73773	0.3322	0.5478	0.273
Mof_C 	C 	0.66713	0.2702	0.5133	-0.356
Mof_C 	C 	0.66233	0.2195	0.5355	0.223
Mof_C 	C 	0.72753	0.2259	0.5928	-0.407
Mof_C 	C 	0.79973	0.28464	0.6264	0.137
Mof_C 	C 	0.35667	0.2145	0.6552	-0.306
Mof_C 	C 	0.31587	0.1946	0.7113	0.461
Mof_C 	C 	0.35367	0.1563	0.5203	-0.237
Mof_C 	C 	0.39587	0.0791	0.4973	0.475
Mof_C 	C 	0.20917	0.2406	0.5943	0.116
Mof_C 	C 	0.13747	0.26798	0.6618	-0.294
Mof_C 	C 	0.07107	0.2156	0.6678	0.323
Mof_C 	C 	0.00047	0.2431	0.7298	-0.479
Mof_C 	C 	0.99567	0.316	0.7805	0.343
Mof_C 	C 	0.06087	0.3669	0.7741	-0.471
Mof_C 	C 	0.13307	0.34176	0.71536	0.182
Mof_C 	C 	0.31	0.6552	0.2145	-0.306
Mof_C 	C 	0.3508	0.7113	0.1946	0.46
Mof_C 	C 	0.313	0.5203	0.1563	-0.237
Mof_C 	C 	0.2708	0.4973	0.0791	0.474
Mof_C 	C 	0.4575	0.5943	0.2406	0.097
Mof_C 	C 	0.5292	0.6618	0.26798	-0.258
Mof_C 	C 	0.5956	0.6678	0.2156	0.274
Mof_C 	C 	0.6662	0.7298	0.2431	-0.357
Mof_C 	C 	0.671	0.7805	0.316	0.224
Mof_C 	C 	0.6058	0.7741	0.3669	-0.41
Mof_C 	C 	0.5336	0.71536	0.34176	0.14
Mof_C 	C 	0.97667	0.7855	0.4407	-0.208
Mof_C 	C 	0.01747	0.8054	0.5167	0.371
Mof_C 	C 	0.97967	0.8437	0.364	-0.117
Mof_C 	C 	0.93747	0.9209	0.4182	0.436
Mof_C 	C 	0.12417	0.7594	0.3537	0.114
Mof_C 	C 	0.19587	0.73202	0.39382	-0.268
Mof_C 	C 	0.26227	0.7844	0.4522	0.279
Mof_C 	C 	0.33287	0.7569	0.4867	-0.36
Mof_C 	C 	0.33767	0.684	0.4645	0.229
Mof_C 	C 	0.27247	0.6331	0.4072	-0.41
Mof_C 	C 	0.20027	0.65824	0.3736	0.147
Mof_C 	C 	0.64333	0.5593	0.3448	-0.308
Mof_C 	C 	0.68413	0.4833	0.2887	0.46
Mof_C 	C 	0.64633	0.636	0.4797	-0.236
Mof_C 	C 	0.60413	0.5818	0.5027	0.475
Mof_C 	C 	0.79083	0.6463	0.4057	0.067
Mof_C 	C 	0.86253	0.60618	0.3382	-0.203
Mof_C 	C 	0.92893	0.5478	0.3322	0.208
Mof_C 	C 	0.99953	0.5133	0.2702	-0.186
Mof_C 	C 	0.00433	0.5355	0.2195	0.058
Mof_C 	C 	0.93913	0.5928	0.2259	-0.319
Mof_C 	C 	0.86693	0.6264	0.28464	0.079
Mof_C 	C 	0.5	0.4146	-0	0.531
Mof_C 	C 	0.83333	0.5854	0.5854	0.568
Mof_C 	C 	0.16667	-2.41495e-17	0.4146	0.537
Mof_S 	S 	0.38676	0.37922	0.53764	0.709
Mof_S 	S 	0.72009	0.15842	0.62078	0.712
Mof_S 	S 	0.05343	0.46236	0.84158	0.704
Mof_S 	S 	0.61324	0.84158	0.46236	0.714
Mof_S 	S 	0.27991	0.53764	0.37922	0.706
Mof_S 	S 	0.94657	0.62078	0.15842	0.719
Mof_N 	N 	0.6206	0.4044	0.81601	-0.128
Mof_N 	N 	0.95393	0.41161	0.5956	-0.096
Mof_N 	N 	0.28727	0.18399	0.58839	-0.128
Mof_N 	N 	0.3794	0.58839	0.18399	-0.125
Mof_N 	N 	0.04607	0.81601	0.4044	-0.17
Mof_N 	N 	0.71273	0.5956	0.41161	-0.122
Mof_O 	O 	0.485	0.4144	0.93892	-0.745
Mof_O 	O 	0.5976	0.55115	0.86674	-0.587
Mof_O 	O 	0.672	0.5419	0.76494	-0.727
Mof_O 	O 	0.6875	0.48326	0.95372	-0.786
Mof_O 	O 	0.7992	0.39728	0.94786	-0.797
Mof_O 	O 	0.4042	0.47301	0.85567	-0.784
Mof_O 	O 	0.4679	0.4225	0.52644	-1.103
Mof_O 	O 	0.2799	0.3991	0.52638	-0.672
Mof_O 	O 	0.4085	0.30068	0.49605	-0.599
Mof_O 	O 	0.0865	0.307	0.9196	-0.7
Mof_O 	O 	0.7434	0.7733	0.0876	-0.807
Mof_O 	O 	0.81833	0.52452	0.5856	-0.76
Mof_O 	O 	0.93093	0.31559	0.44885	-0.603
Mof_O 	O 	0.00533	0.22304	0.4581	-0.768
Mof_O 	O 	0.02083	0.47046	0.51674	-0.821
Mof_O 	O 	0.13253	0.55058	0.60272	-0.848
Mof_O 	O 	0.73753	0.38266	0.52699	-0.771
Mof_O 	O 	0.80123	0.10394	0.5775	-1.094
Mof_O 	O 	0.61323	0.12728	0.6009	-0.664
Mof_O 	O 	0.74183	0.19537	0.69932	-0.604
Mof_O 	O 	0.41983	0.6126	0.693	-0.719
Mof_O 	O 	0.07673	0.3143	0.2267	-0.809
Mof_O 	O 	0.15167	0.06108	0.47548	-0.768
Mof_O 	O 	0.26427	0.13326	0.68441	-0.604
Mof_O 	O 	0.33867	0.23506	0.77696	-0.742
Mof_O 	O 	0.35417	0.04628	0.52954	-0.833
Mof_O 	O 	0.46587	0.05214	0.44942	-0.844
Mof_O 	O 	0.07087	0.14433	0.61734	-0.787
Mof_O 	O 	0.13457	0.47356	0.89606	-1.093
Mof_O 	O 	0.94657	0.47362	0.87272	-0.625
Mof_O 	O 	0.07517	0.50395	0.80463	-0.606
Mof_O 	O 	0.75317	0.0804	0.3874	-0.72
Mof_O 	O 	0.41007	0.9124	0.6857	-0.813
Mof_O 	O 	0.515	0.47548	0.06108	-0.761
Mof_O 	O 	0.4024	0.68441	0.13326	-0.604
Mof_O 	O 	0.328	0.77696	0.23506	-0.744
Mof_O 	O 	0.3125	0.52954	0.04628	-0.834
Mof_O 	O 	0.2008	0.44942	0.05214	-0.84
Mof_O 	O 	0.5958	0.61734	0.14433	-0.767
Mof_O 	O 	0.5321	0.89606	0.47356	-1.097
Mof_O 	O 	0.7201	0.87272	0.47362	-0.648
Mof_O 	O 	0.5915	0.80463	0.50395	-0.61
Mof_O 	O 	0.9135	0.3874	0.0804	-0.7
Mof_O 	O 	0.2566	0.6857	0.9124	-0.809
Mof_O 	O 	0.18167	0.93892	0.4144	-0.752
Mof_O 	O 	0.06907	0.86674	0.55115	-0.576
Mof_O 	O 	0.99467	0.76494	0.5419	-0.67
Mof_O 	O 	0.97917	0.95372	0.48326	-0.763
Mof_O 	O 	0.86747	0.94786	0.39728	-0.798
Mof_O 	O 	0.26247	0.85567	0.47301	-0.781
Mof_O 	O 	0.19877	0.52644	0.4225	-1.091
Mof_O 	O 	0.38677	0.52638	0.3991	-0.67
Mof_O 	O 	0.25817	0.49605	0.30068	-0.598
Mof_O 	O 	0.58017	0.9196	0.307	-0.698
Mof_O 	O 	0.92327	0.0876	0.7733	-0.801
Mof_O 	O 	0.84833	0.5856	0.52452	-0.748
Mof_O 	O 	0.73573	0.44885	0.31559	-0.595
Mof_O 	O 	0.66133	0.4581	0.22304	-0.735
Mof_O 	O 	0.64583	0.51674	0.47046	-0.813
Mof_O 	O 	0.53413	0.60272	0.55058	-0.848
Mof_O 	O 	0.92913	0.52699	0.38266	-0.733
Mof_O 	O 	0.86543	0.5775	0.10394	-1.082
Mof_O 	O 	0.05343	0.6009	0.12728	-0.678
Mof_O 	O 	0.92483	0.69932	0.19537	-0.606
Mof_O 	O 	0.24683	0.693	0.6126	-0.714
Mof_O 	O 	0.58993	0.2267	0.3143	-0.809
Mof_O 	O 	0.5	0.57706	-0	-0.855
Mof_O 	O 	0.5	0.355	-0	-0.683
Mof_O 	O 	0.83333	0.42294	0.42294	-0.824
Mof_O 	O 	0.83333	0.645	0.645	-0.661
Mof_O 	O 	0.16667	0	0.57706	-0.852
Mof_O 	O 	0.16667	0	0.355	-0.69
_end
