data_functionalizedCrystal
_audit_creation_method	'EQeq! by Chris Wilmer'
_symmetry_space_group_name_H-M	'P1'
_symmetry_Int_Tables_number	1
_symmetry_cell_setting	triclinic
loop_
_symmetry_equiv_pos_as_xyz
  x,y,z
_cell_length_a	14.974
_cell_length_b	19.706
_cell_length_c	19.76
_cell_angle_alpha	90
_cell_angle_beta	90
_cell_angle_gamma	90
loop_
_atom_site_label
_atom_site_type_symbol
_atom_site_fract_x
_atom_site_fract_y
_atom_site_fract_z
_atom_site_charge
Mof_Mg	Mg	0.73545	0.52583	0.97468	1.473
Mof_Mg	Mg	0.26455	0.97417	0.47468	1.473
Mof_Mg	Mg	0.23545	0.47417	0.52532	1.469
Mof_Mg	Mg	0.76455	0.02583	0.02532	1.46
Mof_Mg	Mg	0.26455	0.47417	0.02532	1.464
Mof_Mg	Mg	0.73545	0.02583	0.52532	1.464
Mof_Mg	Mg	0.76455	0.52583	0.47468	1.469
Mof_Mg	Mg	0.23545	0.97417	0.97468	1.476
Mof_Mg	Mg	0.5	0.5	-0	1.483
Mof_Mg	Mg	0.5	0	0.5	1.482
Mof_Mg	Mg	2.47389e-33	0.5	0.5	1.483
Mof_Mg	Mg	-0	0	-0	1.473
Mof_H 	H 	0.8208	0.4911	0.6132	0.188
Mof_H 	H 	0.3468	0.7984	0.0399	0.154
Mof_H 	H 	0.3805	0.8694	0.0433	0.151
Mof_H 	H 	0.3459	0.5324	0.6998	0.165
Mof_H 	H 	0.3803	0.5341	0.6291	0.15
Mof_H 	H 	0.4468	0.705	0.0232	0.092
Mof_H 	H 	0.7108	0.7413	0.0098	0.043
Mof_H 	H 	0.5376	0.8947	0.0337	0.077
Mof_H 	H 	0.5384	0.5281	0.6035	0.062
Mof_H 	H 	0.7098	0.5088	0.7584	0.047
Mof_H 	H 	0.4477	0.5221	0.7949	0.094
Mof_H 	H 	0.658	0.485	0.06	0.333
Mof_H 	H 	0.663	0.444	0.003	0.335
Mof_H 	H 	0.1792	0.0089	0.1132	0.195
Mof_H 	H 	0.6532	0.7016	0.5399	0.164
Mof_H 	H 	0.6195	0.6306	0.5433	0.156
Mof_H 	H 	0.6541	0.9676	0.1998	0.181
Mof_H 	H 	0.6197	0.9659	0.1291	0.159
Mof_H 	H 	0.5532	0.795	0.5232	0.101
Mof_H 	H 	0.2892	0.7587	0.5098	0.043
Mof_H 	H 	0.4624	0.6053	0.5337	0.07
Mof_H 	H 	0.4616	0.9719	0.1035	0.059
Mof_H 	H 	0.2902	0.9912	0.2584	0.057
Mof_H 	H 	0.5523	0.9779	0.2949	0.097
Mof_H 	H 	0.342	0.015	0.56	0.317
Mof_H 	H 	0.337	0.056	0.503	0.34
Mof_H 	H 	0.3208	0.5089	0.8868	0.184
Mof_H 	H 	0.8468	0.2016	0.4601	0.163
Mof_H 	H 	0.8805	0.1306	0.4567	0.158
Mof_H 	H 	0.8459	0.4676	0.8002	0.17
Mof_H 	H 	0.8803	0.4659	0.8709	0.163
Mof_H 	H 	0.9468	0.295	0.4768	0.087
Mof_H 	H 	0.2108	0.2587	0.4902	0.035
Mof_H 	H 	0.0376	0.1053	0.4663	0.067
Mof_H 	H 	0.0384	0.4719	0.8965	0.074
Mof_H 	H 	0.2098	0.4912	0.7416	0.038
Mof_H 	H 	0.9477	0.4779	0.7051	0.081
Mof_H 	H 	0.158	0.515	0.44	0.336
Mof_H 	H 	0.163	0.556	0.497	0.352
Mof_H 	H 	0.6792	0.9911	0.3868	0.163
Mof_H 	H 	0.1532	0.2984	0.9601	0.166
Mof_H 	H 	0.1195	0.3694	0.9567	0.152
Mof_H 	H 	0.1541	0.0324	0.3002	0.142
Mof_H 	H 	0.1197	0.0341	0.3709	0.126
Mof_H 	H 	0.0532	0.205	0.9768	0.108
Mof_H 	H 	0.7892	0.2413	0.9902	0.049
Mof_H 	H 	0.9624	0.3947	0.9663	0.063
Mof_H 	H 	0.9616	0.0281	0.3965	0.05
Mof_H 	H 	0.7902	0.0088	0.2416	0.032
Mof_H 	H 	0.0523	0.0221	0.2051	0.094
Mof_H 	H 	0.842	0.985	0.94	0.346
Mof_H 	H 	0.837	0.944	0.997	0.367
Mof_H 	H 	0.1792	0.5089	0.3868	0.177
Mof_H 	H 	0.6532	0.2016	0.9601	0.169
Mof_H 	H 	0.6195	0.1306	0.9567	0.158
Mof_H 	H 	0.6541	0.4676	0.3002	0.163
Mof_H 	H 	0.6197	0.4659	0.3709	0.149
Mof_H 	H 	0.5532	0.295	0.9768	0.101
Mof_H 	H 	0.2892	0.2587	0.9902	0.042
Mof_H 	H 	0.4624	0.1053	0.9663	0.061
Mof_H 	H 	0.4616	0.4719	0.3965	0.061
Mof_H 	H 	0.2902	0.4912	0.2416	0.04
Mof_H 	H 	0.5523	0.4779	0.2051	0.089
Mof_H 	H 	0.342	0.515	0.94	0.334
Mof_H 	H 	0.337	0.556	0.997	0.363
Mof_H 	H 	0.8208	0.9911	0.8868	0.171
Mof_H 	H 	0.3468	0.2984	0.4601	0.159
Mof_H 	H 	0.3805	0.3694	0.4567	0.153
Mof_H 	H 	0.3459	0.0324	0.8002	0.149
Mof_H 	H 	0.3803	0.0341	0.8709	0.141
Mof_H 	H 	0.4468	0.205	0.4768	0.093
Mof_H 	H 	0.7108	0.2413	0.4902	0.042
Mof_H 	H 	0.5376	0.3947	0.4663	0.068
Mof_H 	H 	0.5384	0.0281	0.8965	0.064
Mof_H 	H 	0.7098	0.0088	0.7416	0.03
Mof_H 	H 	0.4477	0.0221	0.7051	0.086
Mof_H 	H 	0.658	0.985	0.44	0.35
Mof_H 	H 	0.663	0.944	0.497	0.357
Mof_H 	H 	0.6792	0.4911	0.1132	0.18
Mof_H 	H 	0.1532	0.7984	0.5399	0.16
Mof_H 	H 	0.1195	0.8694	0.5433	0.15
Mof_H 	H 	0.1541	0.5324	0.1998	0.159
Mof_H 	H 	0.1197	0.5341	0.1291	0.135
Mof_H 	H 	0.0532	0.705	0.5232	0.107
Mof_H 	H 	0.7892	0.7413	0.5098	0.05
Mof_H 	H 	0.9624	0.8947	0.5337	0.071
Mof_H 	H 	0.9616	0.5281	0.1035	0.048
Mof_H 	H 	0.7902	0.5088	0.2584	0.049
Mof_H 	H 	0.0523	0.5221	0.2949	0.102
Mof_H 	H 	0.842	0.485	0.56	0.33
Mof_H 	H 	0.837	0.444	0.503	0.346
Mof_H 	H 	0.3208	0.0089	0.6132	0.201
Mof_H 	H 	0.8468	0.7016	0.0399	0.158
Mof_H 	H 	0.8805	0.6306	0.0433	0.157
Mof_H 	H 	0.8459	0.9676	0.6998	0.187
Mof_H 	H 	0.8803	0.9659	0.6291	0.173
Mof_H 	H 	0.9468	0.795	0.0232	0.087
Mof_H 	H 	0.2108	0.7587	0.0098	0.036
Mof_H 	H 	0.0376	0.6053	0.0337	0.076
Mof_H 	H 	0.0384	0.9719	0.6035	0.072
Mof_H 	H 	0.2098	0.9912	0.7584	0.055
Mof_H 	H 	0.9477	0.9779	0.7949	0.089
Mof_H 	H 	0.158	0.015	0.06	0.318
Mof_H 	H 	0.163	0.056	0.003	0.328
Mof_C 	C 	0.581	0.515	0.7881	-0.075
Mof_C 	C 	0.5823	0.7112	0.0125	-0.053
Mof_C 	C 	0.4783	0.8031	0.0292	0.146
Mof_C 	C 	0.4942	0.7355	0.022	-0.115
Mof_C 	C 	0.6354	0.5179	0.6735	-0.074
Mof_C 	C 	0.7109	0.5152	0.6235	0.407
Mof_C 	C 	0.6363	0.8262	0.0176	-0.026
Mof_C 	C 	0.4777	0.5254	0.6963	0.13
Mof_C 	C 	0.5969	0.637	0.0061	0.358
Mof_C 	C 	0.6524	0.757	0.0129	-0.02
Mof_C 	C 	0.5487	0.8486	0.0278	-0.119
Mof_C 	C 	0.5493	0.5244	0.6497	-0.081
Mof_C 	C 	0.6516	0.5132	0.7426	0.024
Mof_C 	C 	0.4949	0.521	0.7644	-0.087
Mof_C 	C 	0.5977	0.511	0.8635	0.445
Mof_C 	C 	0.7119	0.8757	0.0188	0.275
Mof_C 	C 	0.419	0.985	0.2881	-0.074
Mof_C 	C 	0.4177	0.7888	0.5125	-0.071
Mof_C 	C 	0.5217	0.6969	0.5292	0.143
Mof_C 	C 	0.5058	0.7645	0.522	-0.098
Mof_C 	C 	0.3646	0.9821	0.1735	-0.095
Mof_C 	C 	0.2891	0.9848	0.1235	0.491
Mof_C 	C 	0.3637	0.6738	0.5176	-0.055
Mof_C 	C 	0.5223	0.9746	0.1963	0.133
Mof_C 	C 	0.4031	0.863	0.5061	0.425
Mof_C 	C 	0.3476	0.743	0.5129	0.012
Mof_C 	C 	0.4513	0.6514	0.5278	-0.099
Mof_C 	C 	0.4507	0.9756	0.1497	-0.067
Mof_C 	C 	0.3484	0.9868	0.2426	0.038
Mof_C 	C 	0.5051	0.979	0.2644	-0.083
Mof_C 	C 	0.4023	0.989	0.3635	0.445
Mof_C 	C 	0.2881	0.6243	0.5188	0.347
Mof_C 	C 	0.081	0.485	0.7119	-0.146
Mof_C 	C 	0.0823	0.2888	0.4875	-0.142
Mof_C 	C 	0.9783	0.1969	0.4708	0.178
Mof_C 	C 	0.9942	0.2645	0.478	-0.034
Mof_C 	C 	0.1354	0.4821	0.8265	-0.066
Mof_C 	C 	0.2109	0.4848	0.8765	0.4
Mof_C 	C 	0.1363	0.1738	0.4824	-0.058
Mof_C 	C 	0.9777	0.4746	0.8037	0.172
Mof_C 	C 	0.0969	0.363	0.4939	0.445
Mof_C 	C 	0.1524	0.243	0.4871	0.027
Mof_C 	C 	0.0487	0.1514	0.4722	-0.163
Mof_C 	C 	0.0493	0.4756	0.8503	-0.145
Mof_C 	C 	0.1516	0.4868	0.7574	0.037
Mof_C 	C 	0.9949	0.479	0.7356	-0.019
Mof_C 	C 	0.0977	0.489	0.6365	0.466
Mof_C 	C 	0.2119	0.1243	0.4812	0.343
Mof_C 	C 	0.919	0.015	0.2119	-0.025
Mof_C 	C 	0.9177	0.2112	0.9875	-0.042
Mof_C 	C 	0.0217	0.3031	0.9708	0.091
Mof_C 	C 	0.0058	0.2355	0.978	-0.138
Mof_C 	C 	0.8646	0.0179	0.3265	-0.072
Mof_C 	C 	0.7891	0.0152	0.3765	0.324
Mof_C 	C 	0.8637	0.3262	0.9824	-0.085
Mof_C 	C 	0.0223	0.0254	0.3037	0.076
Mof_C 	C 	0.9031	0.137	0.9939	0.483
Mof_C 	C 	0.8476	0.257	0.9871	0.034
Mof_C 	C 	0.9513	0.3486	0.9722	-0.014
Mof_C 	C 	0.9507	0.0244	0.3503	-0.027
Mof_C 	C 	0.8484	0.0132	0.2574	-0.002
Mof_C 	C 	0.0051	0.021	0.2356	-0.157
Mof_C 	C 	0.9023	0.011	0.1365	0.428
Mof_C 	C 	0.7881	0.3757	0.9812	0.423
Mof_C 	C 	0.419	0.485	0.2119	-0.085
Mof_C 	C 	0.4177	0.2888	0.9875	-0.101
Mof_C 	C 	0.5217	0.1969	0.9708	0.132
Mof_C 	C 	0.5058	0.2645	0.978	-0.078
Mof_C 	C 	0.3646	0.4821	0.3265	-0.08
Mof_C 	C 	0.2891	0.4848	0.3765	0.404
Mof_C 	C 	0.3637	0.1738	0.9824	-0.087
Mof_C 	C 	0.5223	0.4746	0.3037	0.125
Mof_C 	C 	0.4031	0.363	0.9939	0.5
Mof_C 	C 	0.3476	0.243	0.9871	0.048
Mof_C 	C 	0.4513	0.1514	0.9722	-0.076
Mof_C 	C 	0.4507	0.4756	0.3503	-0.079
Mof_C 	C 	0.3484	0.4868	0.2574	0.025
Mof_C 	C 	0.5051	0.479	0.2356	-0.086
Mof_C 	C 	0.4023	0.489	0.1365	0.447
Mof_C 	C 	0.2881	0.1243	0.9812	0.425
Mof_C 	C 	0.581	0.015	0.7119	-0.086
Mof_C 	C 	0.5823	0.2112	0.4875	-0.081
Mof_C 	C 	0.4783	0.3031	0.4708	0.135
Mof_C 	C 	0.4942	0.2355	0.478	-0.096
Mof_C 	C 	0.6354	0.0179	0.8265	-0.059
Mof_C 	C 	0.7109	0.0152	0.8765	0.323
Mof_C 	C 	0.6363	0.3262	0.4824	-0.057
Mof_C 	C 	0.4777	0.0254	0.8037	0.123
Mof_C 	C 	0.5969	0.137	0.4939	0.43
Mof_C 	C 	0.6524	0.257	0.4871	0.014
Mof_C 	C 	0.5487	0.3486	0.4722	-0.098
Mof_C 	C 	0.5493	0.0244	0.8503	-0.093
Mof_C 	C 	0.6516	0.0132	0.7574	0.011
Mof_C 	C 	0.4949	0.021	0.7356	-0.09
Mof_C 	C 	0.5977	0.011	0.6365	0.447
Mof_C 	C 	0.7119	0.3757	0.4812	0.345
Mof_C 	C 	0.919	0.515	0.2881	-0.012
Mof_C 	C 	0.9177	0.7112	0.5125	-0.009
Mof_C 	C 	0.0217	0.8031	0.5292	0.099
Mof_C 	C 	0.0058	0.7355	0.522	-0.162
Mof_C 	C 	0.8646	0.5179	0.1735	-0.088
Mof_C 	C 	0.7891	0.5152	0.1235	0.411
Mof_C 	C 	0.8637	0.8262	0.5176	-0.054
Mof_C 	C 	0.0223	0.5254	0.1963	0.081
Mof_C 	C 	0.9031	0.637	0.5061	0.409
Mof_C 	C 	0.8476	0.757	0.5129	-0.001
Mof_C 	C 	0.9513	0.8486	0.5278	-0.032
Mof_C 	C 	0.9507	0.5244	0.1497	-0.012
Mof_C 	C 	0.8484	0.5132	0.2426	0.011
Mof_C 	C 	0.0051	0.521	0.2644	-0.156
Mof_C 	C 	0.9023	0.511	0.3635	0.426
Mof_C 	C 	0.7881	0.8757	0.5188	0.349
Mof_C 	C 	0.081	0.985	0.7881	-0.133
Mof_C 	C 	0.0823	0.7888	0.0125	-0.115
Mof_C 	C 	0.9783	0.6969	0.0292	0.192
Mof_C 	C 	0.9942	0.7645	0.022	-0.052
Mof_C 	C 	0.1354	0.9821	0.6735	-0.08
Mof_C 	C 	0.2109	0.9848	0.6235	0.484
Mof_C 	C 	0.1363	0.6738	0.0176	-0.025
Mof_C 	C 	0.9777	0.9746	0.6963	0.181
Mof_C 	C 	0.0969	0.863	0.0061	0.373
Mof_C 	C 	0.1524	0.743	0.0129	-0.008
Mof_C 	C 	0.0487	0.6514	0.0278	-0.189
Mof_C 	C 	0.0493	0.9756	0.6497	-0.134
Mof_C 	C 	0.1516	0.9868	0.7426	0.049
Mof_C 	C 	0.9949	0.979	0.7644	-0.018
Mof_C 	C 	0.0977	0.989	0.8635	0.463
Mof_C 	C 	0.2119	0.6243	0.0188	0.268
Mof_N 	N 	0.3905	0.8267	0.0387	-0.318
Mof_N 	N 	0.39	0.5314	0.6719	-0.314
Mof_N 	N 	0.6095	0.6733	0.5387	-0.318
Mof_N 	N 	0.61	0.9686	0.1719	-0.317
Mof_N 	N 	0.8905	0.1733	0.4613	-0.323
Mof_N 	N 	0.89	0.4686	0.8281	-0.321
Mof_N 	N 	0.1095	0.3267	0.9613	-0.31
Mof_N 	N 	0.11	0.0314	0.3281	-0.302
Mof_N 	N 	0.6095	0.1733	0.9613	-0.316
Mof_N 	N 	0.61	0.4686	0.3281	-0.313
Mof_N 	N 	0.3905	0.3267	0.4613	-0.317
Mof_N 	N 	0.39	0.0314	0.8281	-0.31
Mof_N 	N 	0.1095	0.8267	0.5387	-0.312
Mof_N 	N 	0.11	0.5314	0.1719	-0.306
Mof_N 	N 	0.8905	0.6733	0.0387	-0.325
Mof_N 	N 	0.89	0.9686	0.6719	-0.325
Mof_O 	O 	0.5317	0.5976	0.014	-0.478
Mof_O 	O 	0.6742	0.6167	0.9908	-0.445
Mof_O 	O 	0.5311	0.507	0.9005	-0.468
Mof_O 	O 	0.6768	0.513	0.8826	-0.515
Mof_O 	O 	0.6959	0.9353	0.0378	-0.467
Mof_O 	O 	0.7868	0.855	0.9985	-0.217
Mof_O 	O 	0.7843	0.4904	0.644	-0.46
Mof_O 	O 	0.6963	0.5367	0.5648	-0.517
Mof_O 	O 	0.6314	0.4704	0.0259	-1.004
Mof_O 	O 	0.4683	0.9024	0.514	-0.454
Mof_O 	O 	0.3258	0.8833	0.4908	-0.506
Mof_O 	O 	0.4689	0.993	0.4005	-0.461
Mof_O 	O 	0.3232	0.987	0.3826	-0.503
Mof_O 	O 	0.3041	0.5647	0.5378	-0.492
Mof_O 	O 	0.2132	0.645	0.4985	-0.302
Mof_O 	O 	0.2157	0.0096	0.144	-0.551
Mof_O 	O 	0.3037	0.9633	0.0648	-0.536
Mof_O 	O 	0.3686	0.0296	0.5259	-1
Mof_O 	O 	0.0317	0.4024	0.486	-0.507
Mof_O 	O 	0.1742	0.3833	0.5092	-0.525
Mof_O 	O 	0.0311	0.493	0.5995	-0.515
Mof_O 	O 	0.1768	0.487	0.6174	-0.536
Mof_O 	O 	0.1959	0.0647	0.4622	-0.517
Mof_O 	O 	0.2868	0.145	0.5015	-0.304
Mof_O 	O 	0.2843	0.5096	0.856	-0.458
Mof_O 	O 	0.1963	0.4633	0.9352	-0.501
Mof_O 	O 	0.1314	0.5296	0.4741	-1.006
Mof_O 	O 	0.9683	0.0976	0.986	-0.457
Mof_O 	O 	0.8258	0.1167	0.0092	-0.592
Mof_O 	O 	0.9689	0.007	0.0995	-0.485
Mof_O 	O 	0.8232	0.013	0.1174	-0.559
Mof_O 	O 	0.8041	0.4353	0.9622	-0.49
Mof_O 	O 	0.7132	0.355	0.0015	-0.365
Mof_O 	O 	0.7157	0.9904	0.356	-0.378
Mof_O 	O 	0.8037	0.0367	0.4352	-0.516
Mof_O 	O 	0.8686	0.9704	0.9741	-0.939
Mof_O 	O 	0.4683	0.4024	0.986	-0.471
Mof_O 	O 	0.3258	0.3833	0.0092	-0.592
Mof_O 	O 	0.4689	0.493	0.0995	-0.498
Mof_O 	O 	0.3232	0.487	0.1174	-0.542
Mof_O 	O 	0.3041	0.0647	0.9622	-0.515
Mof_O 	O 	0.2132	0.145	0.0015	-0.381
Mof_O 	O 	0.2157	0.5096	0.356	-0.464
Mof_O 	O 	0.3037	0.4633	0.4352	-0.519
Mof_O 	O 	0.3686	0.5296	0.9741	-0.971
Mof_O 	O 	0.5317	0.0976	0.486	-0.494
Mof_O 	O 	0.6742	0.1167	0.5092	-0.527
Mof_O 	O 	0.5311	0.007	0.5995	-0.504
Mof_O 	O 	0.6768	0.013	0.6174	-0.553
Mof_O 	O 	0.6959	0.4353	0.4622	-0.491
Mof_O 	O 	0.7868	0.355	0.5015	-0.291
Mof_O 	O 	0.7843	0.9904	0.856	-0.376
Mof_O 	O 	0.6963	0.0367	0.9352	-0.499
Mof_O 	O 	0.6314	0.9704	0.4741	-0.974
Mof_O 	O 	0.9683	0.5976	0.514	-0.442
Mof_O 	O 	0.8258	0.6167	0.4908	-0.508
Mof_O 	O 	0.9689	0.507	0.4005	-0.45
Mof_O 	O 	0.8232	0.513	0.3826	-0.52
Mof_O 	O 	0.8041	0.9353	0.5378	-0.466
Mof_O 	O 	0.7132	0.855	0.4985	-0.289
Mof_O 	O 	0.7157	0.4904	0.144	-0.466
Mof_O 	O 	0.8037	0.5367	0.0648	-0.534
Mof_O 	O 	0.8686	0.4704	0.5259	-0.969
Mof_O 	O 	0.0317	0.9024	0.014	-0.488
Mof_O 	O 	0.1742	0.8833	0.9908	-0.442
Mof_O 	O 	0.0311	0.993	0.9005	-0.477
Mof_O 	O 	0.1768	0.987	0.8826	-0.498
Mof_O 	O 	0.1959	0.5647	0.0378	-0.494
Mof_O 	O 	0.2868	0.645	0.9985	-0.226
Mof_O 	O 	0.2843	0.0096	0.644	-0.542
Mof_O 	O 	0.1963	0.9633	0.5648	-0.519
Mof_O 	O 	0.1314	0.0296	0.0259	-1.031
_end
