data_functionalizedCrystal
_audit_creation_method	'EQeq! by Chris Wilmer'
_symmetry_space_group_name_H-M	'P1'
_symmetry_Int_Tables_number	1
_symmetry_cell_setting	triclinic
loop_
_symmetry_equiv_pos_as_xyz
  x,y,z
_cell_length_a	21.7899
_cell_length_b	16.6337
_cell_length_c	13.5149
_cell_angle_alpha	90
_cell_angle_beta	93.816
_cell_angle_gamma	90
loop_
_atom_site_label
_atom_site_type_symbol
_atom_site_fract_x
_atom_site_fract_y
_atom_site_fract_z
_atom_site_charge
Mof_Cd	Cd	0.64332	0.24955	0.26697	0.453
Mof_C 	C 	0.58457	0.1111	0.4147	0.323
Mof_C 	C 	0.636	0.9046	0.6799	0.315
Mof_C 	C 	0.7677	0.1496	0.6549	0.322
Mof_C 	C 	0.62431	0.0825	0.5047	-0.07
Mof_C 	C 	0.61005	0.0106	0.552	0.023
Mof_H 	H 	0.5757	0.9808	0.5298	0.061
Mof_C 	C 	0.64778	0.9843	0.6326	-0.078
Mof_C 	C 	0.6983	0.0296	0.6646	0.026
Mof_H 	H 	0.7237	0.0114	0.7179	0.057
Mof_C 	C 	0.71218	0.1015	0.6195	-0.077
Mof_C 	C 	0.6744	0.1278	0.539	0.022
Mof_H 	H 	0.6829	0.1762	0.5082	0.066
Mof_C 	C 	0.5314	0.3918	0.2509	0.076
Mof_C 	C 	0.5659	0.4641	0.2509	-0.094
Mof_H 	H 	0.6086	0.4641	0.2514	0.095
Mof_C 	C 	0.5329	0.5333	0.25	-0.012
Mof_H 	H 	0.5536	0.5822	0.2494	0.05
Mof_N 	N 	0.55048	0.3143	0.2511	-0.106
Mof_O 	O 	0.58995	0.1829	0.3894	-0.278
Mof_O 	O 	0.54867	0.0621	0.3727	-0.276
Mof_O 	O 	0.58608	0.8688	0.6593	-0.286
Mof_O 	O 	0.6782	0.8754	0.7359	-0.271
Mof_O 	O 	0.80588	0.1168	0.7154	-0.273
Mof_O 	O 	0.77364	0.2184	0.6258	-0.27
Mof_Cd	Cd	0.14332	0.74955	0.26697	0.451
Mof_C 	C 	0.08457	0.6111	0.4147	0.323
Mof_C 	C 	0.136	0.4046	0.6799	0.315
Mof_C 	C 	0.2677	0.6496	0.6549	0.321
Mof_C 	C 	0.12431	0.5825	0.5047	-0.075
Mof_C 	C 	0.11005	0.5106	0.552	0.024
Mof_H 	H 	0.0757	0.4808	0.5298	0.056
Mof_C 	C 	0.14778	0.4843	0.6326	-0.081
Mof_C 	C 	0.1983	0.5296	0.6646	0.027
Mof_H 	H 	0.2237	0.5114	0.7179	0.056
Mof_C 	C 	0.21218	0.6015	0.6195	-0.079
Mof_C 	C 	0.1744	0.6278	0.539	0.023
Mof_H 	H 	0.1829	0.6762	0.5082	0.065
Mof_C 	C 	0.0314	0.8918	0.2509	0.03
Mof_C 	C 	0.0659	0.9641	0.2509	-0.045
Mof_H 	H 	0.1086	0.9641	0.2514	0.077
Mof_C 	C 	0.0329	0.0333	0.25	-0.083
Mof_H 	H 	0.0536	0.0822	0.2494	0.071
Mof_N 	N 	0.05048	0.8143	0.2511	-0.1
Mof_O 	O 	0.08995	0.6829	0.3894	-0.279
Mof_O 	O 	0.04867	0.5621	0.3727	-0.28
Mof_O 	O 	0.08608	0.3688	0.6593	-0.288
Mof_O 	O 	0.1782	0.3754	0.7359	-0.272
Mof_O 	O 	0.30588	0.6168	0.7154	-0.273
Mof_O 	O 	0.27364	0.7184	0.6258	-0.27
Mof_Cd	Cd	0.35668	0.24955	0.23303	0.451
Mof_C 	C 	0.41543	0.1111	0.0853	0.323
Mof_C 	C 	0.364	0.9046	0.8201	0.314
Mof_C 	C 	0.2323	0.1496	0.8451	0.321
Mof_C 	C 	0.37569	0.0825	0.9953	-0.072
Mof_C 	C 	0.38995	0.0106	0.948	0.022
Mof_H 	H 	0.4243	0.9808	0.9702	0.06
Mof_C 	C 	0.35222	0.9843	0.8674	-0.078
Mof_C 	C 	0.3017	0.0296	0.8354	0.026
Mof_H 	H 	0.2763	0.0114	0.7821	0.057
Mof_C 	C 	0.28782	0.1015	0.8805	-0.078
Mof_C 	C 	0.3256	0.1278	0.961	0.022
Mof_H 	H 	0.3171	0.1762	0.9918	0.066
Mof_C 	C 	0.4686	0.3918	0.2491	0.076
Mof_C 	C 	0.4341	0.4641	0.2491	-0.094
Mof_H 	H 	0.3914	0.4641	0.2486	0.095
Mof_C 	C 	0.4671	0.5333	0.25	-0.012
Mof_H 	H 	0.4464	0.5822	0.2506	0.05
Mof_N 	N 	0.44952	0.3143	0.2489	-0.106
Mof_O 	O 	0.41005	0.1829	0.1106	-0.277
Mof_O 	O 	0.45133	0.0621	0.1273	-0.276
Mof_O 	O 	0.41392	0.8688	0.8407	-0.286
Mof_O 	O 	0.3218	0.8754	0.7641	-0.272
Mof_O 	O 	0.19412	0.1168	0.7846	-0.273
Mof_O 	O 	0.22636	0.2184	0.8742	-0.27
Mof_Cd	Cd	0.85668	0.74955	0.23303	0.454
Mof_C 	C 	0.91543	0.6111	0.0853	0.321
Mof_C 	C 	0.864	0.4046	0.8201	0.313
Mof_C 	C 	0.7323	0.6496	0.8451	0.321
Mof_C 	C 	0.87569	0.5825	0.9953	-0.068
Mof_C 	C 	0.88995	0.5106	0.948	0.02
Mof_H 	H 	0.9243	0.4808	0.9702	0.065
Mof_C 	C 	0.85222	0.4843	0.8674	-0.074
Mof_C 	C 	0.8017	0.5296	0.8354	0.025
Mof_H 	H 	0.7763	0.5114	0.7821	0.058
Mof_C 	C 	0.78782	0.6015	0.8805	-0.076
Mof_C 	C 	0.8256	0.6278	0.961	0.021
Mof_H 	H 	0.8171	0.6762	0.9918	0.067
Mof_C 	C 	0.9686	0.8918	0.2491	0.122
Mof_C 	C 	0.9341	0.9641	0.2491	-0.143
Mof_H 	H 	0.8914	0.9641	0.2486	0.113
Mof_C 	C 	0.9671	0.0333	0.25	0.059
Mof_H 	H 	0.9464	0.0822	0.2506	0.03
Mof_N 	N 	0.94952	0.8143	0.2489	-0.105
Mof_O 	O 	0.91005	0.6829	0.1106	-0.272
Mof_O 	O 	0.95133	0.5621	0.1273	-0.265
Mof_O 	O 	0.91392	0.3688	0.8407	-0.278
Mof_O 	O 	0.8218	0.3754	0.7641	-0.271
Mof_O 	O 	0.69412	0.6168	0.7846	-0.273
Mof_O 	O 	0.72636	0.7184	0.8742	-0.269
Mof_Cd	Cd	0.35668	0.75045	0.73303	0.451
Mof_C 	C 	0.41543	0.8889	0.5853	0.322
Mof_C 	C 	0.364	0.0954	0.3201	0.315
Mof_C 	C 	0.2323	0.8504	0.3451	0.321
Mof_C 	C 	0.37569	0.9175	0.4953	-0.071
Mof_C 	C 	0.38995	0.9894	0.448	0.022
Mof_H 	H 	0.4243	0.0192	0.4702	0.06
Mof_C 	C 	0.35222	0.0157	0.3674	-0.078
Mof_C 	C 	0.3017	0.9704	0.3354	0.026
Mof_H 	H 	0.2763	0.9886	0.2821	0.057
Mof_C 	C 	0.28782	0.8985	0.3805	-0.078
Mof_C 	C 	0.3256	0.8722	0.461	0.022
Mof_H 	H 	0.3171	0.8238	0.4918	0.066
Mof_C 	C 	0.4686	0.6082	0.7491	0.076
Mof_C 	C 	0.4341	0.5359	0.7491	-0.094
Mof_H 	H 	0.3914	0.5359	0.7486	0.095
Mof_C 	C 	0.4671	0.4667	0.75	-0.012
Mof_H 	H 	0.4464	0.4178	0.7506	0.05
Mof_N 	N 	0.44952	0.6857	0.7489	-0.106
Mof_O 	O 	0.41005	0.8171	0.6106	-0.277
Mof_O 	O 	0.45133	0.9379	0.6273	-0.276
Mof_O 	O 	0.41392	0.1312	0.3407	-0.286
Mof_O 	O 	0.3218	0.1246	0.2641	-0.272
Mof_O 	O 	0.19412	0.8832	0.2846	-0.273
Mof_O 	O 	0.22636	0.7816	0.3742	-0.27
Mof_Cd	Cd	0.85668	0.25045	0.73303	0.454
Mof_C 	C 	0.91543	0.3889	0.5853	0.321
Mof_C 	C 	0.864	0.5954	0.3201	0.313
Mof_C 	C 	0.7323	0.3504	0.3451	0.321
Mof_C 	C 	0.87569	0.4175	0.4953	-0.067
Mof_C 	C 	0.88995	0.4894	0.448	0.02
Mof_H 	H 	0.9243	0.5192	0.4702	0.065
Mof_C 	C 	0.85222	0.5157	0.3674	-0.074
Mof_C 	C 	0.8017	0.4704	0.3354	0.024
Mof_H 	H 	0.7763	0.4886	0.2821	0.058
Mof_C 	C 	0.78782	0.3985	0.3805	-0.075
Mof_C 	C 	0.8256	0.3722	0.461	0.02
Mof_H 	H 	0.8171	0.3238	0.4918	0.067
Mof_C 	C 	0.9686	0.1082	0.7491	0.122
Mof_C 	C 	0.9341	0.0359	0.7491	-0.143
Mof_H 	H 	0.8914	0.0359	0.7486	0.113
Mof_C 	C 	0.9671	0.9667	0.75	0.059
Mof_H 	H 	0.9464	0.9178	0.7506	0.03
Mof_N 	N 	0.94952	0.1857	0.7489	-0.105
Mof_O 	O 	0.91005	0.3171	0.6106	-0.272
Mof_O 	O 	0.95133	0.4379	0.6273	-0.265
Mof_O 	O 	0.91392	0.6312	0.3407	-0.277
Mof_O 	O 	0.8218	0.6246	0.2641	-0.271
Mof_O 	O 	0.69412	0.3832	0.2846	-0.273
Mof_O 	O 	0.72636	0.2816	0.3742	-0.269
Mof_Cd	Cd	0.64332	0.75045	0.76697	0.452
Mof_C 	C 	0.58457	0.8889	0.9147	0.322
Mof_C 	C 	0.636	0.0954	0.1799	0.314
Mof_C 	C 	0.7677	0.8504	0.1549	0.321
Mof_C 	C 	0.62431	0.9175	0.0047	-0.07
Mof_C 	C 	0.61005	0.9894	0.052	0.021
Mof_H 	H 	0.5757	0.0192	0.0298	0.061
Mof_C 	C 	0.64778	0.0157	0.1326	-0.077
Mof_C 	C 	0.6983	0.9704	0.1646	0.026
Mof_H 	H 	0.7237	0.9886	0.2179	0.057
Mof_C 	C 	0.71218	0.8985	0.1195	-0.077
Mof_C 	C 	0.6744	0.8722	0.039	0.022
Mof_H 	H 	0.6829	0.8238	0.0082	0.066
Mof_C 	C 	0.5314	0.6082	0.7509	0.076
Mof_C 	C 	0.5659	0.5359	0.7509	-0.094
Mof_H 	H 	0.6086	0.5359	0.7514	0.095
Mof_C 	C 	0.5329	0.4667	0.75	-0.012
Mof_H 	H 	0.5536	0.4178	0.7494	0.05
Mof_N 	N 	0.55048	0.6857	0.7511	-0.106
Mof_O 	O 	0.58995	0.8171	0.8894	-0.278
Mof_O 	O 	0.54867	0.9379	0.8727	-0.276
Mof_O 	O 	0.58608	0.1312	0.1593	-0.285
Mof_O 	O 	0.6782	0.1246	0.2359	-0.271
Mof_O 	O 	0.80588	0.8832	0.2154	-0.273
Mof_O 	O 	0.77364	0.7816	0.1258	-0.269
Mof_Cd	Cd	0.14332	0.25045	0.76697	0.45
Mof_C 	C 	0.08457	0.3889	0.9147	0.322
Mof_C 	C 	0.136	0.5954	0.1799	0.315
Mof_C 	C 	0.2677	0.3504	0.1549	0.321
Mof_C 	C 	0.12431	0.4175	0.0047	-0.074
Mof_C 	C 	0.11005	0.4894	0.052	0.024
Mof_H 	H 	0.0757	0.5192	0.0298	0.057
Mof_C 	C 	0.14778	0.5157	0.1326	-0.08
Mof_C 	C 	0.1983	0.4704	0.1646	0.027
Mof_H 	H 	0.2237	0.4886	0.2179	0.056
Mof_C 	C 	0.21218	0.3985	0.1195	-0.079
Mof_C 	C 	0.1744	0.3722	0.039	0.023
Mof_H 	H 	0.1829	0.3238	0.0082	0.065
Mof_C 	C 	0.0314	0.1082	0.7509	0.03
Mof_C 	C 	0.0659	0.0359	0.7509	-0.046
Mof_H 	H 	0.1086	0.0359	0.7514	0.077
Mof_C 	C 	0.0329	0.9667	0.75	-0.083
Mof_H 	H 	0.0536	0.9178	0.7494	0.07
Mof_N 	N 	0.05048	0.1857	0.7511	-0.1
Mof_O 	O 	0.08995	0.3171	0.8894	-0.279
Mof_O 	O 	0.04867	0.4379	0.8727	-0.28
Mof_O 	O 	0.08608	0.6312	0.1593	-0.288
Mof_O 	O 	0.1782	0.6246	0.2359	-0.272
Mof_O 	O 	0.30588	0.3832	0.2154	-0.273
Mof_O 	O 	0.27364	0.2816	0.1258	-0.27
Mof_Cd	Cd	0.5	0.13271	0.25	0.481
Mof_N 	N 	0.5	0.2704	0.25	-0.066
Mof_Cd	Cd	-1.45378e-18	0.63271	0.25	0.465
Mof_N 	N 	-2.90755e-18	0.7704	0.25	-0.075
Mof_Cd	Cd	0.5	0.86729	0.75	0.481
Mof_N 	N 	0.5	0.7296	0.75	-0.066
Mof_Cd	Cd	1.86021e-33	0.36729	0.75	0.465
Mof_N 	N 	1.86021e-33	0.2296	0.75	-0.075
_end
