# CIF file generated by openbabel 3.1.0, see https://openbabel.org
data_I
_chemical_name_common 'image0'
_cell_length_a 21.658
_cell_length_b 7.2622
_cell_length_c 14.7
_cell_angle_alpha 90
_cell_angle_beta 90
_cell_angle_gamma 90
_space_group_name_H-M_alt 'P 1'
_space_group_name_Hall 'P 1'
loop_
    _symmetry_equiv_pos_as_xyz
    x,y,z
loop_
    _atom_site_label
    _atom_site_type_symbol
    _atom_site_fract_x
    _atom_site_fract_y
    _atom_site_fract_z
    _atom_site_occupancy
    N1       N        0.06500    0.15470    0.06160    1.000
    C1       C        0.11140    0.10140    0.10990    1.000
    H1       H        0.12160    0.97920    0.12120    1.000
    C2       C        0.24690    0.35300    0.16670    1.000
    C3       C        0.19860    0.14800    0.27530    1.000
    N2       N        0.56500    0.65470    0.56160    1.000
    C4       C        0.61140    0.60140    0.60990    1.000
    H2       H        0.62160    0.47920    0.62120    1.000
    C5       C        0.74690    0.85300    0.66670    1.000
    C6       C        0.69860    0.64800    0.77530    1.000
    N3       N        0.93500    0.34530    0.06160    1.000
    C7       C        0.88860    0.39860    0.10990    1.000
    H3       H        0.87840    0.52080    0.12120    1.000
    C8       C        0.75310    0.14700    0.16670    1.000
    C9       C        0.80140    0.35200    0.27530    1.000
    N4       N        0.43500    0.84530    0.56160    1.000
    C10      C        0.38860    0.89860    0.60990    1.000
    H4       H        0.37840    0.02080    0.62120    1.000
    C11      C        0.25310    0.64700    0.66670    1.000
    C12      C        0.30140    0.85200    0.77530    1.000
    N5       N        0.93500    0.65470    0.93840    1.000
    C13      C        0.88860    0.60140    0.89010    1.000
    H5       H        0.87840    0.47920    0.87880    1.000
    C14      C        0.75310    0.85300    0.83330    1.000
    C15      C        0.80140    0.64800    0.72470    1.000
    N6       N        0.43500    0.15470    0.43840    1.000
    C16      C        0.38860    0.10140    0.39010    1.000
    H6       H        0.37840    0.97920    0.37880    1.000
    C17      C        0.25310    0.35300    0.33330    1.000
    C18      C        0.30140    0.14800    0.22470    1.000
    N7       N        0.06500    0.84530    0.93840    1.000
    C19      C        0.11140    0.89860    0.89010    1.000
    H7       H        0.12160    0.02080    0.87880    1.000
    C20      C        0.24690    0.64700    0.83330    1.000
    C21      C        0.19860    0.85200    0.72470    1.000
    N8       N        0.56500    0.34530    0.43840    1.000
    C22      C        0.61140    0.39860    0.39010    1.000
    H8       H        0.62160    0.52080    0.37880    1.000
    C23      C        0.74690    0.14700    0.33330    1.000
    C24      C        0.69860    0.35200    0.22470    1.000
    N9       N        0.93500    0.84530    0.93840    1.000
    C25      C        0.88860    0.89860    0.89010    1.000
    H9       H        0.87840    0.02080    0.87880    1.000
    C26      C        0.75310    0.64700    0.83330    1.000
    C27      C        0.80140    0.85200    0.72470    1.000
    N10      N        0.43500    0.34530    0.43840    1.000
    C28      C        0.38860    0.39860    0.39010    1.000
    H10      H        0.37840    0.52080    0.37880    1.000
    C29      C        0.25310    0.14700    0.33330    1.000
    C30      C        0.30140    0.35200    0.22470    1.000
    N11      N        0.06500    0.65470    0.93840    1.000
    C31      C        0.11140    0.60140    0.89010    1.000
    H11      H        0.12160    0.47920    0.87880    1.000
    C32      C        0.24690    0.85300    0.83330    1.000
    C33      C        0.19860    0.64800    0.72470    1.000
    N12      N        0.56500    0.15470    0.43840    1.000
    C34      C        0.61140    0.10140    0.39010    1.000
    H12      H        0.62160    0.97920    0.37880    1.000
    C35      C        0.74690    0.35300    0.33330    1.000
    C36      C        0.69860    0.14800    0.22470    1.000
    N13      N        0.06500    0.34530    0.06160    1.000
    C37      C        0.11140    0.39860    0.10990    1.000
    H13      H        0.12160    0.52080    0.12120    1.000
    C38      C        0.24690    0.14700    0.16670    1.000
    C39      C        0.19860    0.35200    0.27530    1.000
    N14      N        0.56500    0.84530    0.56160    1.000
    C40      C        0.61140    0.89860    0.60990    1.000
    H14      H        0.62160    0.02080    0.62120    1.000
    C41      C        0.74690    0.64700    0.66670    1.000
    C42      C        0.69860    0.85200    0.77530    1.000
    N15      N        0.93500    0.15470    0.06160    1.000
    C43      C        0.88860    0.10140    0.10990    1.000
    H15      H        0.87840    0.97920    0.12120    1.000
    C44      C        0.75310    0.35300    0.16670    1.000
    C45      C        0.80140    0.14800    0.27530    1.000
    N16      N        0.43500    0.65470    0.56160    1.000
    C46      C        0.38860    0.60140    0.60990    1.000
    H16      H        0.37840    0.47920    0.62120    1.000
    C47      C        0.25310    0.85300    0.66670    1.000
    C48      C        0.30140    0.64800    0.77530    1.000
    Cu1      Cu       0.00000    0.00000    0.00000    1.000
    Cu2      Cu       0.50000    0.50000    0.50000    1.000
    Cu3      Cu       0.00000    0.50000    0.00000    1.000
    Cu4      Cu       0.50000    0.00000    0.50000    1.000
    N17      N        0.14340    0.25000    0.14190    1.000
    C49      C        0.19730    0.25000    0.19810    1.000
    N18      N        0.64340    0.75000    0.64190    1.000
    C50      C        0.69730    0.75000    0.69810    1.000
    N19      N        0.85660    0.25000    0.14190    1.000
    C51      C        0.80270    0.25000    0.19810    1.000
    N20      N        0.35660    0.75000    0.64190    1.000
    C52      C        0.30270    0.75000    0.69810    1.000
    N21      N        0.85660    0.75000    0.85810    1.000
    C53      C        0.80270    0.75000    0.80190    1.000
    N22      N        0.35660    0.25000    0.35810    1.000
    C54      C        0.30270    0.25000    0.30190    1.000
    N23      N        0.14340    0.75000    0.85810    1.000
    C55      C        0.19730    0.75000    0.80190    1.000
    N24      N        0.64340    0.25000    0.35810    1.000
    C56      C        0.69730    0.25000    0.30190    1.000
