# CIF file generated by openbabel 3.1.0, see https://openbabel.org
data_I
_chemical_name_common 'image0'
_cell_length_a 7.8161
_cell_length_b 21.283
_cell_length_c 8.3419
_cell_angle_alpha 90
_cell_angle_beta 90
_cell_angle_gamma 90
_space_group_name_H-M_alt 'P 1'
_space_group_name_Hall 'P 1'
loop_
    _symmetry_equiv_pos_as_xyz
    x,y,z
loop_
    _atom_site_label
    _atom_site_type_symbol
    _atom_site_fract_x
    _atom_site_fract_y
    _atom_site_fract_z
    _atom_site_occupancy
    N1       N        0.11910    0.07560    0.41800    1.000
    H1       H        0.38800    0.22800    0.37600    1.000
    C1       C        0.19140    0.12760    0.36940    1.000
    H2       H        0.20800    0.13980    0.26220    1.000
    N2       N        0.61910    0.57560    0.41800    1.000
    H3       H        0.88800    0.72800    0.37600    1.000
    C2       C        0.69140    0.62760    0.36940    1.000
    H4       H        0.70800    0.63980    0.26220    1.000
    N3       N        0.88090    0.92440    0.41800    1.000
    H5       H        0.61200    0.77200    0.37600    1.000
    C3       C        0.80860    0.87240    0.36940    1.000
    H6       H        0.79200    0.86020    0.26220    1.000
    N4       N        0.38090    0.42440    0.41800    1.000
    H7       H        0.11200    0.27200    0.37600    1.000
    C4       C        0.30860    0.37240    0.36940    1.000
    H8       H        0.29200    0.36020    0.26220    1.000
    N5       N        0.88090    0.07560    0.08200    1.000
    H9       H        0.61200    0.22800    0.12400    1.000
    C5       C        0.80860    0.12760    0.13060    1.000
    H10      H        0.79200    0.13980    0.23780    1.000
    N6       N        0.38090    0.57560    0.08200    1.000
    H11      H        0.11200    0.72800    0.12400    1.000
    C6       C        0.30860    0.62760    0.13060    1.000
    H12      H        0.29200    0.63980    0.23780    1.000
    N7       N        0.11910    0.92440    0.08200    1.000
    H13      H        0.38800    0.77200    0.12400    1.000
    C7       C        0.19140    0.87240    0.13060    1.000
    H14      H        0.20800    0.86020    0.23780    1.000
    N8       N        0.61910    0.42440    0.08200    1.000
    H15      H        0.88800    0.27200    0.12400    1.000
    C8       C        0.69140    0.37240    0.13060    1.000
    H16      H        0.70800    0.36020    0.23780    1.000
    N9       N        0.88090    0.92440    0.58200    1.000
    H17      H        0.61200    0.77200    0.62400    1.000
    C9       C        0.80860    0.87240    0.63060    1.000
    H18      H        0.79200    0.86020    0.73780    1.000
    N10      N        0.38090    0.42440    0.58200    1.000
    H19      H        0.11200    0.27200    0.62400    1.000
    C10      C        0.30860    0.37240    0.63060    1.000
    H20      H        0.29200    0.36020    0.73780    1.000
    N11      N        0.11910    0.07560    0.58200    1.000
    H21      H        0.38800    0.22800    0.62400    1.000
    C11      C        0.19140    0.12760    0.63060    1.000
    H22      H        0.20800    0.13980    0.73780    1.000
    N12      N        0.61910    0.57560    0.58200    1.000
    H23      H        0.88800    0.72800    0.62400    1.000
    C12      C        0.69140    0.62760    0.63060    1.000
    H24      H        0.70800    0.63980    0.73780    1.000
    N13      N        0.11910    0.92440    0.91800    1.000
    H25      H        0.38800    0.77200    0.87600    1.000
    C13      C        0.19140    0.87240    0.86940    1.000
    H26      H        0.20800    0.86020    0.76220    1.000
    N14      N        0.61910    0.42440    0.91800    1.000
    H27      H        0.88800    0.27200    0.87600    1.000
    C14      C        0.69140    0.37240    0.86940    1.000
    H28      H        0.70800    0.36020    0.76220    1.000
    N15      N        0.88090    0.07560    0.91800    1.000
    H29      H        0.61200    0.22800    0.87600    1.000
    C15      C        0.80860    0.12760    0.86940    1.000
    H30      H        0.79200    0.13980    0.76220    1.000
    N16      N        0.38090    0.57560    0.91800    1.000
    H31      H        0.11200    0.72800    0.87600    1.000
    C16      C        0.30860    0.62760    0.86940    1.000
    H32      H        0.29200    0.63980    0.76220    1.000
    Ag1      Ag       0.00000    0.00000    0.25000    1.000
    Ag2      Ag       0.50000    0.50000    0.25000    1.000
    Ag3      Ag       0.00000    0.00000    0.75000    1.000
    Ag4      Ag       0.50000    0.50000    0.75000    1.000
    N17      N        0.23800    0.16080    0.50000    1.000
    C17      C        0.31860    0.22460    0.50000    1.000
    N18      N        0.73800    0.66080    0.50000    1.000
    C18      C        0.81860    0.72460    0.50000    1.000
    N19      N        0.76200    0.83920    0.50000    1.000
    C19      C        0.68140    0.77540    0.50000    1.000
    N20      N        0.26200    0.33920    0.50000    1.000
    C20      C        0.18140    0.27540    0.50000    1.000
    N21      N        0.76200    0.16080    0.00000    1.000
    C21      C        0.68140    0.22460    0.00000    1.000
    N22      N        0.26200    0.66080    0.00000    1.000
    C22      C        0.18140    0.72460    0.00000    1.000
    N23      N        0.23800    0.83920    0.00000    1.000
    C23      C        0.31860    0.77540    0.00000    1.000
    N24      N        0.73800    0.33920    0.00000    1.000
    C24      C        0.81860    0.27540    0.00000    1.000
