# CIF file generated by openbabel 3.1.0, see https://openbabel.org
data_I
_chemical_name_common 'image0'
_cell_length_a 9.6552
_cell_length_b 17.1958
_cell_length_c 20.8804
_cell_angle_alpha 90
_cell_angle_beta 94.231
_cell_angle_gamma 90
_space_group_name_H-M_alt 'P 1'
_space_group_name_Hall 'P 1'
loop_
    _symmetry_equiv_pos_as_xyz
    x,y,z
loop_
    _atom_site_label
    _atom_site_type_symbol
    _atom_site_fract_x
    _atom_site_fract_y
    _atom_site_fract_z
    _atom_site_occupancy
    Cu1      Cu       0.29918    0.49341    0.52393    1.000
    Cu2      Cu       0.00104    0.52158    0.42825    1.000
    O1       O        0.31270    0.40430    0.58160    1.000
    O2       O        0.10720    0.40270    0.62553    1.000
    O3       O        0.04980    0.06260    0.83340    1.000
    O4       O        0.88100    0.06760    0.89860    1.000
    O5       O        0.12300    0.45980    0.48512    1.000
    H1       H        0.13200    0.41110    0.48400    1.000
    N1       N        0.27780    0.59020    0.46810    1.000
    N2       N        0.14990    0.60310    0.43650    1.000
    N3       N        0.28450    0.70150    0.41880    1.000
    N4       N        0.57990    0.93270    0.05660    1.000
    N5       N        0.45570    0.96010    0.07780    1.000
    N6       N        0.57760    0.91250    0.15920    1.000
    C1       C        0.35590    0.65050    0.45690    1.000
    H2       H        0.44750    0.65690    0.47310    1.000
    C2       C        0.15660    0.67080    0.40810    1.000
    H3       H        0.08350    0.69430    0.38390    1.000
    C3       C        0.33210    0.77510    0.39250    1.000
    H4       H        0.40600    0.79610    0.42150    1.000
    H5       H        0.25590    0.81200    0.39030    1.000
    C4       C        0.38470    0.76650    0.32630    1.000
    C5       C        0.35180    0.70440    0.28570    1.000
    H6       H        0.29470    0.66490    0.29900    1.000
    C6       C        0.40290    0.70060    0.22570    1.000
    H7       H        0.38000    0.65880    0.19870    1.000
    C7       C        0.48850    0.75930    0.20570    1.000
    H8       H        0.52350    0.75640    0.16550    1.000
    C8       C        0.52190    0.82190    0.24540    1.000
    C9       C        0.46860    0.82630    0.30540    1.000
    H9       H        0.48890    0.86900    0.33170    1.000
    C10      C        0.61870    0.88570    0.22640    1.000
    H10      H        0.61470    0.92910    0.25590    1.000
    H11      H        0.71340    0.86650    0.22880    1.000
    C11      C        0.64920    0.90530    0.10700    1.000
    H12      H        0.73730    0.88330    0.10690    1.000
    C12      C        0.45770    0.94690    0.13930    1.000
    H13      H        0.38680    0.95950    0.16530    1.000
    C13      C        0.22620    0.37670    0.61780    1.000
    C14      C        0.27670    0.30680    0.65660    1.000
    H14      H        0.35650    0.32230    0.68460    1.000
    H15      H        0.30790    0.26780    0.62730    1.000
    C15      C        0.17130    0.26980    0.69710    1.000
    C16      C        0.15490    0.29760    0.75880    1.000
    H16      H        0.20750    0.33960    0.77490    1.000
    C17      C        0.05980    0.26250    0.79600    1.000
    H17      H        0.05170    0.28080    0.83740    1.000
    C18      C        0.97920    0.20330    0.77480    1.000
    C19      C        0.99520    0.17550    0.71430    1.000
    H18      H        0.94100    0.13380    0.69890    1.000
    C20      C        0.09130    0.20840    0.67510    1.000
    H19      H        0.10060    0.18850    0.63420    1.000
    C21      C        0.87950    0.16430    0.81710    1.000
    H20      H        0.79670    0.14900    0.79110    1.000
    H21      H        0.85220    0.20120    0.84900    1.000
    C22      C        0.94260    0.09290    0.85110    1.000
    Cu3      Cu       0.70082    0.99341    0.97607    1.000
    Cu4      Cu       0.99896    0.02158    0.07175    1.000
    O6       O        0.68730    0.90430    0.91840    1.000
    O7       O        0.89280    0.90270    0.87447    1.000
    O8       O        0.95020    0.56260    0.66660    1.000
    O9       O        0.11900    0.56760    0.60140    1.000
    O10      O        0.87700    0.95980    0.01488    1.000
    H22      H        0.86800    0.91110    0.01600    1.000
    N7       N        0.72220    0.09020    0.03190    1.000
    N8       N        0.85010    0.10310    0.06350    1.000
    N9       N        0.71550    0.20150    0.08120    1.000
    N10      N        0.42010    0.43270    0.44340    1.000
    N11      N        0.54430    0.46010    0.42220    1.000
    N12      N        0.42240    0.41250    0.34080    1.000
    C23      C        0.64410    0.15050    0.04310    1.000
    H23      H        0.55250    0.15690    0.02690    1.000
    C24      C        0.84340    0.17080    0.09190    1.000
    H24      H        0.91650    0.19430    0.11610    1.000
    C25      C        0.66790    0.27510    0.10750    1.000
    H25      H        0.59400    0.29610    0.07850    1.000
    H26      H        0.74410    0.31200    0.10970    1.000
    C26      C        0.61530    0.26650    0.17370    1.000
    C27      C        0.64820    0.20440    0.21430    1.000
    H27      H        0.70530    0.16490    0.20100    1.000
    C28      C        0.59710    0.20060    0.27430    1.000
    H28      H        0.62000    0.15880    0.30130    1.000
    C29      C        0.51150    0.25930    0.29430    1.000
    H29      H        0.47650    0.25640    0.33450    1.000
    C30      C        0.47810    0.32190    0.25460    1.000
    C31      C        0.53140    0.32630    0.19460    1.000
    H30      H        0.51110    0.36900    0.16830    1.000
    C32      C        0.38130    0.38570    0.27360    1.000
    H31      H        0.38530    0.42910    0.24410    1.000
    H32      H        0.28660    0.36650    0.27120    1.000
    C33      C        0.35080    0.40530    0.39300    1.000
    H33      H        0.26270    0.38330    0.39310    1.000
    C34      C        0.54230    0.44690    0.36070    1.000
    H34      H        0.61320    0.45950    0.33470    1.000
    C35      C        0.77380    0.87670    0.88220    1.000
    C36      C        0.72330    0.80680    0.84340    1.000
    H35      H        0.64350    0.82230    0.81540    1.000
    H36      H        0.69210    0.76780    0.87270    1.000
    C37      C        0.82870    0.76980    0.80290    1.000
    C38      C        0.84510    0.79760    0.74120    1.000
    H37      H        0.79250    0.83960    0.72510    1.000
    C39      C        0.94020    0.76250    0.70400    1.000
    H38      H        0.94830    0.78080    0.66260    1.000
    C40      C        0.02080    0.70330    0.72520    1.000
    C41      C        0.00480    0.67550    0.78570    1.000
    H39      H        0.05900    0.63380    0.80110    1.000
    C42      C        0.90870    0.70840    0.82490    1.000
    H40      H        0.89940    0.68850    0.86580    1.000
    C43      C        0.12050    0.66430    0.68290    1.000
    H41      H        0.20330    0.64900    0.70890    1.000
    H42      H        0.14780    0.70120    0.65100    1.000
    C44      C        0.05740    0.59290    0.64890    1.000
    Cu5      Cu       0.70082    0.50659    0.47607    1.000
    Cu6      Cu       0.99896    0.47842    0.57175    1.000
    O11      O        0.68730    0.59570    0.41840    1.000
    O12      O        0.89280    0.59730    0.37447    1.000
    O13      O        0.95020    0.93740    0.16660    1.000
    O14      O        0.11900    0.93240    0.10140    1.000
    O15      O        0.87700    0.54020    0.51488    1.000
    H43      H        0.86800    0.58890    0.51600    1.000
    N13      N        0.72220    0.40980    0.53190    1.000
    N14      N        0.85010    0.39690    0.56350    1.000
    N15      N        0.71550    0.29850    0.58120    1.000
    N16      N        0.42010    0.06730    0.94340    1.000
    N17      N        0.54430    0.03990    0.92220    1.000
    N18      N        0.42240    0.08750    0.84080    1.000
    C45      C        0.64410    0.34950    0.54310    1.000
    H44      H        0.55250    0.34310    0.52690    1.000
    C46      C        0.84340    0.32920    0.59190    1.000
    H45      H        0.91650    0.30570    0.61610    1.000
    C47      C        0.66790    0.22490    0.60750    1.000
    H46      H        0.59400    0.20390    0.57850    1.000
    H47      H        0.74410    0.18800    0.60970    1.000
    C48      C        0.61530    0.23350    0.67370    1.000
    C49      C        0.64820    0.29560    0.71430    1.000
    H48      H        0.70530    0.33510    0.70100    1.000
    C50      C        0.59710    0.29940    0.77430    1.000
    H49      H        0.62000    0.34120    0.80130    1.000
    C51      C        0.51150    0.24070    0.79430    1.000
    H50      H        0.47650    0.24360    0.83450    1.000
    C52      C        0.47810    0.17810    0.75460    1.000
    C53      C        0.53140    0.17370    0.69460    1.000
    H51      H        0.51110    0.13100    0.66830    1.000
    C54      C        0.38130    0.11430    0.77360    1.000
    H52      H        0.38530    0.07090    0.74410    1.000
    H53      H        0.28660    0.13350    0.77120    1.000
    C55      C        0.35080    0.09470    0.89300    1.000
    H54      H        0.26270    0.11670    0.89310    1.000
    C56      C        0.54230    0.05310    0.86070    1.000
    H55      H        0.61320    0.04050    0.83470    1.000
    C57      C        0.77380    0.62330    0.38220    1.000
    C58      C        0.72330    0.69320    0.34340    1.000
    H56      H        0.64350    0.67770    0.31540    1.000
    H57      H        0.69210    0.73220    0.37270    1.000
    C59      C        0.82870    0.73020    0.30290    1.000
    C60      C        0.84510    0.70240    0.24120    1.000
    H58      H        0.79250    0.66040    0.22510    1.000
    C61      C        0.94020    0.73750    0.20400    1.000
    H59      H        0.94830    0.71920    0.16260    1.000
    C62      C        0.02080    0.79670    0.22520    1.000
    C63      C        0.00480    0.82450    0.28570    1.000
    H60      H        0.05900    0.86620    0.30110    1.000
    C64      C        0.90870    0.79160    0.32490    1.000
    H61      H        0.89940    0.81150    0.36580    1.000
    C65      C        0.12050    0.83570    0.18290    1.000
    H62      H        0.20330    0.85100    0.20890    1.000
    H63      H        0.14780    0.79880    0.15100    1.000
    C66      C        0.05740    0.90710    0.14890    1.000
    Cu7      Cu       0.29918    0.00659    0.02393    1.000
    Cu8      Cu       0.00104    0.97842    0.92825    1.000
    O16      O        0.31270    0.09570    0.08160    1.000
    O17      O        0.10720    0.09730    0.12553    1.000
    O18      O        0.04980    0.43740    0.33340    1.000
    O19      O        0.88100    0.43240    0.39860    1.000
    O20      O        0.12300    0.04020    0.98512    1.000
    H64      H        0.13200    0.08890    0.98400    1.000
    N19      N        0.27780    0.90980    0.96810    1.000
    N20      N        0.14990    0.89690    0.93650    1.000
    N21      N        0.28450    0.79850    0.91880    1.000
    N22      N        0.57990    0.56730    0.55660    1.000
    N23      N        0.45570    0.53990    0.57780    1.000
    N24      N        0.57760    0.58750    0.65920    1.000
    C67      C        0.35590    0.84950    0.95690    1.000
    H65      H        0.44750    0.84310    0.97310    1.000
    C68      C        0.15660    0.82920    0.90810    1.000
    H66      H        0.08350    0.80570    0.88390    1.000
    C69      C        0.33210    0.72490    0.89250    1.000
    H67      H        0.40600    0.70390    0.92150    1.000
    H68      H        0.25590    0.68800    0.89030    1.000
    C70      C        0.38470    0.73350    0.82630    1.000
    C71      C        0.35180    0.79560    0.78570    1.000
    H69      H        0.29470    0.83510    0.79900    1.000
    C72      C        0.40290    0.79940    0.72570    1.000
    H70      H        0.38000    0.84120    0.69870    1.000
    C73      C        0.48850    0.74070    0.70570    1.000
    H71      H        0.52350    0.74360    0.66550    1.000
    C74      C        0.52190    0.67810    0.74540    1.000
    C75      C        0.46860    0.67370    0.80540    1.000
    H72      H        0.48890    0.63100    0.83170    1.000
    C76      C        0.61870    0.61430    0.72640    1.000
    H73      H        0.61470    0.57090    0.75590    1.000
    H74      H        0.71340    0.63350    0.72880    1.000
    C77      C        0.64920    0.59470    0.60700    1.000
    H75      H        0.73730    0.61670    0.60690    1.000
    C78      C        0.45770    0.55310    0.63930    1.000
    H76      H        0.38680    0.54050    0.66530    1.000
    C79      C        0.22620    0.12330    0.11780    1.000
    C80      C        0.27670    0.19320    0.15660    1.000
    H77      H        0.35650    0.17770    0.18460    1.000
    H78      H        0.30790    0.23220    0.12730    1.000
    C81      C        0.17130    0.23020    0.19710    1.000
    C82      C        0.15490    0.20240    0.25880    1.000
    H79      H        0.20750    0.16040    0.27490    1.000
    C83      C        0.05980    0.23750    0.29600    1.000
    H80      H        0.05170    0.21920    0.33740    1.000
    C84      C        0.97920    0.29670    0.27480    1.000
    C85      C        0.99520    0.32450    0.21430    1.000
    H81      H        0.94100    0.36620    0.19890    1.000
    C86      C        0.09130    0.29160    0.17510    1.000
    H82      H        0.10060    0.31150    0.13420    1.000
    C87      C        0.87950    0.33570    0.31710    1.000
    H83      H        0.79670    0.35100    0.29110    1.000
    H84      H        0.85220    0.29880    0.34900    1.000
    C88      C        0.94260    0.40710    0.35110    1.000
