data_functionalizedCrystal
_audit_creation_method	'EQeq! by Chris Wilmer'
_symmetry_space_group_name_H-M	'P1'
_symmetry_Int_Tables_number	1
_symmetry_cell_setting	triclinic
loop_
_symmetry_equiv_pos_as_xyz
  x,y,z
_cell_length_a	13.9817
_cell_length_b	14.1817
_cell_length_c	14.27
_cell_angle_alpha	115.922
_cell_angle_beta	113.196
_cell_angle_gamma	97.144
loop_
_atom_site_label
_atom_site_type_symbol
_atom_site_fract_x
_atom_site_fract_y
_atom_site_fract_z
_atom_site_charge
Mof_Cd	Cd	0.49511	0.61573	0.81471	0.489
Mof_Cd	Cd	0.50489	0.38427	0.18529	0.485
Mof_Cd	Cd	0.5	0.5	-0	0.488
Mof_Si	Si	0.23612	0.85602	0.3213	0.757
Mof_Si	Si	0.76388	0.14398	0.6787	0.791
Mof_H 	H 	0.3156	0.259	0.4669	0.069
Mof_H 	H 	0.2408	0.0678	0.3197	-0.013
Mof_H 	H 	0.4499	0.9179	0.1347	0.073
Mof_H 	H 	0.8679	0.5687	0.0983	0.048
Mof_H 	H 	0.4331	0.8002	0.4174	-0.003
Mof_H 	H 	0.8605	0.8579	0.1102	0.059
Mof_H 	H 	0.3802	0.9762	0.2667	-0.009
Mof_H 	H 	0.2163	0.7013	0.5622	0.083
Mof_H 	H 	0.4294	0.1875	0.727	0.082
Mof_H 	H 	0.3577	0.9973	0.5806	-0.008
Mof_H 	H 	0.0539	0.9376	0.2309	-0.008
Mof_H 	H 	0.5028	0.7414	0.5509	0.075
Mof_H 	H 	0.2966	0.5931	0.0115	0.067
Mof_H 	H 	0.2203	0.6507	0.1366	-0.015
Mof_H 	H 	0.1474	0.7613	0.4299	-0.008
Mof_H 	H 	0.0614	0.6429	0.2037	-0.004
Mof_H 	H 	0.6844	0.741	0.5331	0.07
Mof_H 	H 	0.7592	0.9322	0.6803	-0.011
Mof_H 	H 	0.5501	0.0821	0.8653	0.092
Mof_H 	H 	0.1321	0.4313	0.9017	0.075
Mof_H 	H 	0.5669	0.1998	0.5826	-0.005
Mof_H 	H 	0.1395	0.1421	0.8898	0.085
Mof_H 	H 	0.6198	0.0238	0.7333	-0.015
Mof_H 	H 	0.7837	0.2987	0.4378	0.084
Mof_H 	H 	0.5706	0.8125	0.273	0.079
Mof_H 	H 	0.6423	0.0027	0.4194	-0.006
Mof_H 	H 	0.9461	0.0624	0.7691	-0.023
Mof_H 	H 	0.4972	0.2586	0.4491	0.076
Mof_H 	H 	0.7034	0.4069	0.9885	0.095
Mof_H 	H 	0.7797	0.3493	0.8634	-0.017
Mof_H 	H 	0.8526	0.2387	0.5701	-0.007
Mof_H 	H 	0.9386	0.3571	0.7963	-0.025
Mof_C 	C 	0.2931	0.8198	0.2163	-0.269
Mof_C 	C 	0.0795	0.7991	0.2312	-0.255
Mof_C 	C 	0.4136	0.6801	0.6583	0.273
Mof_C 	C 	0.3818	0.75	0.0625	-0.025
Mof_C 	C 	0.2827	0.7884	0.4098	-0.27
Mof_C 	C 	0.3804	0.2419	0.6116	-0.011
Mof_C 	C 	0.4334	0.7128	0.9844	0.288
Mof_C 	C 	0.324	0.2057	0.49	-0.104
Mof_C 	C 	0.2798	0.0916	0.4023	0.085
Mof_C 	C 	0.4049	0.8638	0.1368	-0.1
Mof_C 	C 	0.2918	0.0111	0.4336	-0.272
Mof_C 	C 	0.9055	0.643	0.123	-0.074
Mof_C 	C 	0.3889	0.7809	0.4471	0.086
Mof_C 	C 	0.9011	0.815	0.132	-0.075
Mof_C 	C 	0.3621	0.8983	0.2144	0.085
Mof_C 	C 	0.2609	0.7221	0.5336	-0.101
Mof_C 	C 	0.7187	0.656	0.0217	0.275
Mof_C 	C 	0.3918	0.1634	0.6442	-0.106
Mof_C 	C 	0.43	0.3645	0.7094	0.287
Mof_C 	C 	0.8444	0.706	0.0938	-0.033
Mof_C 	C 	0.3486	0.0499	0.5567	0.082
Mof_C 	C 	0.0168	0.8618	0.2022	0.049
Mof_C 	C 	0.3674	0.7169	0.5713	-0.004
Mof_C 	C 	0.4306	0.7458	0.5267	-0.101
Mof_C 	C 	0.3131	0.6708	0.0627	-0.095
Mof_C 	C 	0.2685	0.7055	0.1381	0.078
Mof_C 	C 	0.2199	0.7577	0.4545	0.088
Mof_C 	C 	0.0209	0.6883	0.188	0.048
Mof_C 	C 	0.7069	0.1802	0.7837	-0.289
Mof_C 	C 	0.9205	0.2009	0.7688	-0.297
Mof_C 	C 	0.5864	0.3199	0.3417	0.272
Mof_C 	C 	0.6182	0.25	0.9375	0.034
Mof_C 	C 	0.7173	0.2116	0.5902	-0.28
Mof_C 	C 	0.6196	0.7581	0.3884	-0.012
Mof_C 	C 	0.5666	0.2872	0.0156	0.242
Mof_C 	C 	0.676	0.7943	0.51	-0.104
Mof_C 	C 	0.7202	0.9084	0.5977	0.09
Mof_C 	C 	0.5951	0.1362	0.8632	-0.131
Mof_C 	C 	0.7082	0.9889	0.5664	-0.281
Mof_C 	C 	0.0945	0.357	0.877	-0.142
Mof_C 	C 	0.6111	0.2191	0.5529	0.092
Mof_C 	C 	0.0989	0.185	0.868	-0.14
Mof_C 	C 	0.6379	0.1017	0.7856	0.113
Mof_C 	C 	0.7391	0.2779	0.4664	-0.105
Mof_C 	C 	0.2813	0.344	0.9783	0.304
Mof_C 	C 	0.6082	0.8366	0.3558	-0.105
Mof_C 	C 	0.57	0.6355	0.2906	0.289
Mof_C 	C 	0.1556	0.294	0.9062	0.008
Mof_C 	C 	0.6514	0.9501	0.4433	0.079
Mof_C 	C 	0.9832	0.1382	0.7978	0.125
Mof_C 	C 	0.6326	0.2831	0.4287	-0.002
Mof_C 	C 	0.5694	0.2542	0.4733	-0.105
Mof_C 	C 	0.6869	0.3292	0.9373	-0.126
Mof_C 	C 	0.7315	0.2945	0.8619	0.11
Mof_C 	C 	0.7801	0.2423	0.5455	0.095
Mof_C 	C 	0.9791	0.3117	0.812	0.127
Mof_O 	O 	0.42175	0.60828	0.93078	-0.289
Mof_O 	O 	0.4833	0.78097	0.9716	-0.25
Mof_O 	O 	0.435	0.43483	0.6786	-0.294
Mof_O 	O 	0.67185	0.597	0.0464	-0.294
Mof_O 	O 	0.35184	0.6479	0.6918	-0.286
Mof_O 	O 	0.67377	0.6791	0.9429	-0.265
Mof_O 	O 	0.51191	0.6816	0.6958	-0.268
Mof_O 	O 	0.4614	0.3862	0.8136	-0.283
Mof_O 	O 	0.57825	0.39172	0.06922	-0.291
Mof_O 	O 	0.5167	0.21903	0.0284	-0.252
Mof_O 	O 	0.565	0.56517	0.3214	-0.295
Mof_O 	O 	0.32815	0.403	0.9536	-0.285
Mof_O 	O 	0.64816	0.3521	0.3082	-0.286
Mof_O 	O 	0.32623	0.3209	0.0571	-0.297
Mof_O 	O 	0.48809	0.3184	0.3042	-0.27
Mof_O 	O 	0.5386	0.6138	0.1864	-0.291
Mof_Cd	Cd	6.50846e-18	0.5	0.5	0.507
Mof_H 	H 	0.6988	0.5665	0.5353	0.14
Mof_H 	H 	0.6346	0.5098	0.5796	0.133
Mof_H 	H 	0.6857	0.6437	0.6481	0.132
Mof_H 	H 	0.1727	0.478	0.7284	0.267
Mof_H 	H 	0.2067	0.3796	0.7433	0.258
Mof_H 	H 	0.236	0.4154	0.6631	0.267
Mof_H 	H 	0.9926	0.4965	0.7421	0.109
Mof_H 	H 	0.0467	0.6304	0.806	0.1
Mof_H 	H 	0.9159	0.1659	0.3781	0.113
Mof_H 	H 	0.9677	0.0699	0.3691	0.102
Mof_H 	H 	0.8957	0.0951	0.4347	0.099
Mof_H 	H 	0.187	0.2245	0.6673	0.106
Mof_H 	H 	0.0786	0.1211	0.6118	0.103
Mof_H 	H 	0.1425	0.1137	0.5387	0.108
Mof_H 	H 	0.9857	0.657	0.9339	0.035
Mof_H 	H 	0.9321	0.5235	0.8704	0.027
Mof_H 	H 	0.8207	0.6627	0.8531	0.079
Mof_H 	H 	0.767	0.5289	0.7891	0.072
Mof_H 	H 	0.161	0.702	0.731	0.178
Mof_H 	H 	0.2268	0.645	0.691	0.214
Mof_H 	H 	0.3012	0.4335	0.4647	0.138
Mof_H 	H 	0.3654	0.4902	0.4204	0.133
Mof_H 	H 	0.3143	0.3563	0.3519	0.13
Mof_H 	H 	0.8273	0.522	0.2716	0.274
Mof_H 	H 	0.7933	0.6204	0.2567	0.264
Mof_H 	H 	0.764	0.5846	0.3369	0.274
Mof_H 	H 	0.0074	0.5035	0.2579	0.12
Mof_H 	H 	0.9533	0.3696	0.194	0.13
Mof_H 	H 	0.0841	0.8341	0.6219	0.118
Mof_H 	H 	0.0323	0.9301	0.6309	0.102
Mof_H 	H 	0.1043	0.9049	0.5653	0.103
Mof_H 	H 	0.813	0.7755	0.3327	0.105
Mof_H 	H 	0.9214	0.8789	0.3882	0.108
Mof_H 	H 	0.8575	0.8863	0.4613	0.111
Mof_H 	H 	0.0143	0.343	0.0661	0.003
Mof_H 	H 	0.0679	0.4765	0.1296	0.003
Mof_H 	H 	0.1793	0.3373	0.1469	0.077
Mof_H 	H 	0.233	0.4711	0.2109	0.075
Mof_H 	H 	0.839	0.298	0.269	0.175
Mof_H 	H 	0.7732	0.355	0.309	0.212
Mof_C 	C 	0.0711	0.3213	0.579	0.369
Mof_C 	C 	0.8837	0.5618	0.6642	0.252
Mof_C 	C 	0.6965	0.5736	0.6058	-0.294
Mof_C 	C 	0.1811	0.4059	0.6879	-0.752
Mof_C 	C 	0.9776	0.5674	0.7686	-0.248
Mof_C 	C 	0.949	0.1288	0.4196	-0.243
Mof_C 	C 	0.1203	0.1637	0.5928	-0.263
Mof_C 	C 	0.9353	0.5856	0.8559	0.006
Mof_C 	C 	0.8229	0.5896	0.801	-0.099
Mof_C 	C 	0.9289	0.6787	0.421	0.402
Mof_C 	C 	0.1163	0.4382	0.3358	0.266
Mof_C 	C 	0.3035	0.4264	0.3942	-0.294
Mof_C 	C 	0.8189	0.5941	0.3121	-0.775
Mof_C 	C 	0.0224	0.4326	0.2314	-0.314
Mof_C 	C 	0.051	0.8712	0.5804	-0.269
Mof_C 	C 	0.8797	0.8363	0.4072	-0.265
Mof_C 	C 	0.0647	0.4144	0.1441	0.05
Mof_C 	C 	0.1771	0.4104	0.199	-0.12
Mof_N 	N 	0.8003	0.5745	0.686	-0.097
Mof_N 	N 	0.0502	0.2112	0.5341	-0.12
Mof_N 	N 	0.1997	0.4255	0.314	-0.099
Mof_N 	N 	0.9498	0.7888	0.4659	-0.113
Mof_O 	O 	0.15345	0.6263	0.6804	-0.437
Mof_O 	O 	0.9989	0.3526	0.528	-0.299
Mof_O 	O 	0.8846	0.5522	0.5735	-0.259
Mof_O 	O 	0.84655	0.3737	0.3196	-0.432
Mof_O 	O 	0.0011	0.6474	0.472	-0.325
Mof_O 	O 	0.1154	0.4478	0.4265	-0.271
_end
