# CIF file generated by openbabel 3.1.0, see https://openbabel.org
data_I
_chemical_name_common 'KIKFIV_clean'
_cell_length_a 9.9355
_cell_length_b 12.1661
_cell_length_c 23.473
_cell_angle_alpha 75.392
_cell_angle_beta 80.66
_cell_angle_gamma 79.549
_space_group_name_H-M_alt 'P 1'
_space_group_name_Hall 'P 1'
loop_
    _symmetry_equiv_pos_as_xyz
    x,y,z
loop_
    _atom_site_label
    _atom_site_type_symbol
    _atom_site_fract_x
    _atom_site_fract_y
    _atom_site_fract_z
    _atom_site_occupancy
    Eu1      Eu       0.26369    0.48216    0.49550    1.000
    Eu2      Eu       0.73631    0.51784    0.50450    1.000
    H1       H        0.50950    0.69640    0.35040    1.000
    H2       H        0.20650    0.49930    0.64430    1.000
    H3       H        0.76430    0.43430    0.66800    1.000
    H4       H        0.53980    0.25780    0.89060    1.000
    H5       H        0.30420    0.58340    0.92810    1.000
    H6       H        0.60810    0.77560    0.25570    1.000
    H7       H        0.13070    0.24070    0.67570    1.000
    H8       H        0.37770    0.15310    0.08900    1.000
    H9       H        0.69680    0.34600    0.76480    1.000
    H10      H        0.11350    0.52670    0.12440    1.000
    H11      H        0.09360    0.49200    0.73780    1.000
    H12      H        0.95140    0.95780    0.92160    1.000
    H13      H        0.78190    0.84760    0.12010    1.000
    H14      H        0.53460    0.57760    0.69140    1.000
    H15      H        0.06320    0.14890    0.77140    1.000
    H16      H        0.33630    0.34710    0.92690    1.000
    H17      H        0.97860    0.75170    0.08370    1.000
    H18      H        0.42020    0.61180    0.99800    1.000
    H19      H        0.25850    0.29800    0.02780    1.000
    H20      H        0.18930    0.94750    0.33290    1.000
    H21      H        0.42380    0.56740    0.78720    1.000
    H22      H        0.32360    0.58420    0.09610    1.000
    H23      H        0.27910    0.01900    0.23580    1.000
    H24      H        0.06320    0.80440    0.98410    1.000
    H25      H        0.49050    0.30360    0.64960    1.000
    H26      H        0.79350    0.50070    0.35570    1.000
    H27      H        0.23570    0.56570    0.33200    1.000
    H28      H        0.46020    0.74220    0.10940    1.000
    H29      H        0.69580    0.41660    0.07190    1.000
    H30      H        0.39190    0.22440    0.74430    1.000
    H31      H        0.86930    0.75930    0.32430    1.000
    H32      H        0.62230    0.84690    0.91100    1.000
    H33      H        0.30320    0.65400    0.23520    1.000
    H34      H        0.88650    0.47330    0.87560    1.000
    H35      H        0.90640    0.50800    0.26220    1.000
    H36      H        0.04860    0.04220    0.07840    1.000
    H37      H        0.21810    0.15240    0.87990    1.000
    H38      H        0.46540    0.42240    0.30860    1.000
    H39      H        0.93680    0.85110    0.22860    1.000
    H40      H        0.66370    0.65290    0.07310    1.000
    H41      H        0.02140    0.24830    0.91630    1.000
    H42      H        0.57980    0.38820    0.00200    1.000
    H43      H        0.74150    0.70200    0.97220    1.000
    H44      H        0.81070    0.05250    0.66710    1.000
    H45      H        0.57620    0.43260    0.21280    1.000
    H46      H        0.67640    0.41580    0.90390    1.000
    H47      H        0.72090    0.98100    0.76420    1.000
    H48      H        0.93680    0.19560    0.01590    1.000
    C1       C        0.99820    0.40550    0.59860    1.000
    C2       C        0.45600    0.54270    0.59710    1.000
    C3       C        0.13130    0.53520    0.98240    1.000
    C4       C        0.46380    0.76220    0.32760    1.000
    C5       C        0.38250    0.53880    0.65810    1.000
    C6       C        0.95500    0.34600    0.66220    1.000
    C7       C        0.07270    0.51810    0.04330    1.000
    C8       C        0.06020    0.51490    0.94080    1.000
    C9       C        0.25120    0.51360    0.67300    1.000
    C10      C        0.59000    0.14720    0.96710    1.000
    C11      C        0.77590    0.13320    0.88540    1.000
    C12      C        0.27100    0.75780    0.41130    1.000
    C13      C        0.73860    0.96360    0.04400    1.000
    C14      C        0.61320    0.02180    0.06560    1.000
    C15      C        0.53840    0.11250    0.02850    1.000
    C16      C        0.71800    0.09030    0.94510    1.000
    C17      C        0.12320    0.52250    0.87980    1.000
    C18      C        0.17890    0.52630    0.83190    1.000
    C19      C        0.33770    0.81360    0.35040    1.000
    C20      C        0.79080    0.99760    0.98290    1.000
    C21      C        0.82510    0.37680    0.68890    1.000
    C22      C        0.45340    0.90520    0.23610    1.000
    C23      C        0.87080    0.23590    0.77750    1.000
    C24      C        0.50880    0.23580    0.93080    1.000
    C25      C        0.26410    0.57140    0.96740    1.000
    C26      C        0.52230    0.80910    0.27060    1.000
    C27      C        0.82270    0.17630    0.83750    1.000
    C28      C        0.04210    0.26150    0.69350    1.000
    C29      C        0.55840    0.98470    0.12720    1.000
    C30      C        0.41210    0.17310    0.04910    1.000
    C31      C        0.51190    0.94970    0.17610    1.000
    C32      C        0.24560    0.52830    0.77210    1.000
    C33      C        0.78420    0.32290    0.74660    1.000
    C34      C        0.15020    0.53770    0.08470    1.000
    C35      C        0.18340    0.50880    0.72910    1.000
    C36      C        0.91520    0.93640    0.96120    1.000
    C37      C        0.81440    0.87010    0.08010    1.000
    C38      C        0.44550    0.55950    0.70070    1.000
    C39      C        0.00190    0.20630    0.75070    1.000
    C40      C        0.38810    0.28960    0.95220    1.000
    C41      C        0.93110    0.81310    0.05870    1.000
    C42      C        0.33360    0.58860    0.00910    1.000
    C43      C        0.34040    0.25880    0.01270    1.000
    C44      C        0.27180    0.91080    0.31690    1.000
    C45      C        0.37890    0.55390    0.75830    1.000
    C46      C        0.27570    0.57180    0.06790    1.000
    C47      C        0.32730    0.95530    0.25910    1.000
    C48      C        0.98230    0.84540    0.99870    1.000
    C49      C        0.00180    0.59450    0.40140    1.000
    C50      C        0.54400    0.45730    0.40290    1.000
    C51      C        0.86870    0.46480    0.01760    1.000
    C52      C        0.53620    0.23780    0.67240    1.000
    C53      C        0.61750    0.46120    0.34190    1.000
    C54      C        0.04500    0.65400    0.33780    1.000
    C55      C        0.92730    0.48190    0.95670    1.000
    C56      C        0.93980    0.48510    0.05920    1.000
    C57      C        0.74880    0.48640    0.32700    1.000
    C58      C        0.41000    0.85280    0.03290    1.000
    C59      C        0.22410    0.86680    0.11460    1.000
    C60      C        0.72900    0.24220    0.58870    1.000
    C61      C        0.26140    0.03640    0.95600    1.000
    C62      C        0.38680    0.97820    0.93440    1.000
    C63      C        0.46160    0.88750    0.97150    1.000
    C64      C        0.28200    0.90970    0.05490    1.000
    C65      C        0.87680    0.47750    0.12020    1.000
    C66      C        0.82110    0.47370    0.16810    1.000
    C67      C        0.66230    0.18640    0.64960    1.000
    C68      C        0.20920    0.00240    0.01710    1.000
    C69      C        0.17490    0.62320    0.31110    1.000
    C70      C        0.54660    0.09480    0.76390    1.000
    C71      C        0.12920    0.76410    0.22250    1.000
    C72      C        0.49120    0.76420    0.06920    1.000
    C73      C        0.73590    0.42860    0.03260    1.000
    C74      C        0.47770    0.19090    0.72940    1.000
    C75      C        0.17730    0.82370    0.16250    1.000
    C76      C        0.95790    0.73850    0.30650    1.000
    C77      C        0.44160    0.01530    0.87280    1.000
    C78      C        0.58790    0.82690    0.95090    1.000
    C79      C        0.48810    0.05030    0.82390    1.000
    C80      C        0.75440    0.47170    0.22790    1.000
    C81      C        0.21580    0.67710    0.25340    1.000
    C82      C        0.84980    0.46230    0.91530    1.000
    C83      C        0.81660    0.49120    0.27090    1.000
    C84      C        0.08480    0.06360    0.03880    1.000
    C85      C        0.18560    0.12990    0.91990    1.000
    C86      C        0.55450    0.44050    0.29930    1.000
    C87      C        0.99810    0.79370    0.24930    1.000
    C88      C        0.61190    0.71040    0.04780    1.000
    C89      C        0.06890    0.18690    0.94130    1.000
    C90      C        0.66640    0.41140    0.99090    1.000
    C91      C        0.65960    0.74120    0.98730    1.000
    C92      C        0.72820    0.08920    0.68310    1.000
    C93      C        0.62110    0.44610    0.24170    1.000
    C94      C        0.72430    0.42820    0.93210    1.000
    C95      C        0.67270    0.04470    0.74090    1.000
    C96      C        0.01770    0.15460    0.00130    1.000
    O1       O        0.33170    0.66320    0.43786    1.000
    O2       O        0.12270    0.39370    0.57945    1.000
    O3       O        0.39420    0.52920    0.55834    1.000
    O4       O        0.90530    0.46350    0.56838    1.000
    O5       O        0.58090    0.55870    0.58862    1.000
    O6       O        0.15960    0.80720    0.43166    1.000
    O7       O        0.66830    0.33680    0.56214    1.000
    O8       O        0.87730    0.60630    0.42055    1.000
    O9       O        0.60580    0.47080    0.44166    1.000
    O10      O        0.09470    0.53650    0.43162    1.000
    O11      O        0.41910    0.44130    0.41138    1.000
    O12      O        0.84040    0.19280    0.56834    1.000
