# CIF file generated by openbabel 3.1.0, see https://openbabel.org
data_I
_chemical_name_common 'image0'
_cell_length_a 34.3
_cell_length_b 9.426
_cell_length_c 21.337
_cell_angle_alpha 90
_cell_angle_beta 113.766
_cell_angle_gamma 90
_space_group_name_H-M_alt 'P 1'
_space_group_name_Hall 'P 1'
loop_
    _symmetry_equiv_pos_as_xyz
    x,y,z
loop_
    _atom_site_label
    _atom_site_type_symbol
    _atom_site_fract_x
    _atom_site_fract_y
    _atom_site_fract_z
    _atom_site_occupancy
    Cd1      Cd       0.26590    0.12249    0.95351    1.000
    O1       O        0.23576    0.14010    0.02780    1.000
    N1       N        0.22672    0.91420    0.94490    1.000
    C1       C        0.20748    0.04220    0.02540    1.000
    O2       O        0.34353    0.12430    0.03090    1.000
    N2       N        0.27337    0.68740    0.66220    1.000
    C2       C        0.18350    0.04760    0.06440    1.000
    H1       H        0.18740    0.12370    0.09550    1.000
    O3       O        0.32064    0.06970    0.92170    1.000
    C3       C        0.15360    0.94120    0.05820    1.000
    H2       H        0.13670    0.95000    0.08390    1.000
    C4       C        0.14800    0.82820    0.01800    1.000
    H3       H        0.12800    0.75700    0.01660    1.000
    C5       C        0.17170    0.81440    0.97720    1.000
    C6       C        0.20225    0.92170    0.98160    1.000
    C7       C        0.16770    0.70020    0.93240    1.000
    H4       H        0.14730    0.62770    0.92670    1.000
    C8       C        0.19320    0.69410    0.89720    1.000
    H5       H        0.19120    0.61550    0.86820    1.000
    C9       C        0.22270    0.80450    0.90360    1.000
    C10      C        0.24880    0.80620    0.86430    1.000
    H6       H        0.27130    0.87360    0.87790    1.000
    C11      C        0.24470    0.72430    0.81200    1.000
    H7       H        0.22370    0.65180    0.79980    1.000
    C12      C        0.27020    0.73700    0.77110    1.000
    C13      C        0.30810    0.81740    0.79090    1.000
    H8       H        0.32010    0.86160    0.83460    1.000
    C14      C        0.32710    0.83000    0.74540    1.000
    H9       H        0.35260    0.88300    0.75740    1.000
    C15      C        0.30850    0.76400    0.68120    1.000
    H10      H        0.32170    0.77500    0.65000    1.000
    C16      C        0.25550    0.67270    0.70730    1.000
    H11      H        0.23090    0.61420    0.69460    1.000
    C17      C        0.35030    0.09060    0.98090    1.000
    C18      C        0.39460    0.06520    0.98530    1.000
    C19      C        0.42860    0.06260    0.04970    1.000
    H12      H        0.42400    0.07980    0.09000    1.000
    C20      C        0.46990    0.03390    0.05360    1.000
    H13      H        0.49280    0.02950    0.09740    1.000
    C21      C        0.47800    0.01230    0.99670    1.000
    C22      C        0.44340    0.00860    0.93530    1.000
    H14      H        0.44770    0.98590    0.89510    1.000
    C23      C        0.40250    0.03690    0.92950    1.000
    H15      H        0.37960    0.03640    0.88560    1.000
    Cd2      Cd       0.76590    0.62249    0.95351    1.000
    O4       O        0.73576    0.64010    0.02780    1.000
    N3       N        0.72672    0.41420    0.94490    1.000
    C24      C        0.70748    0.54220    0.02540    1.000
    O5       O        0.84353    0.62430    0.03090    1.000
    N4       N        0.77337    0.18740    0.66220    1.000
    C25      C        0.68350    0.54760    0.06440    1.000
    H16      H        0.68740    0.62370    0.09550    1.000
    O6       O        0.82064    0.56970    0.92170    1.000
    C26      C        0.65360    0.44120    0.05820    1.000
    H17      H        0.63670    0.45000    0.08390    1.000
    C27      C        0.64800    0.32820    0.01800    1.000
    H18      H        0.62800    0.25700    0.01660    1.000
    C28      C        0.67170    0.31440    0.97720    1.000
    C29      C        0.70225    0.42170    0.98160    1.000
    C30      C        0.66770    0.20020    0.93240    1.000
    H19      H        0.64730    0.12770    0.92670    1.000
    C31      C        0.69320    0.19410    0.89720    1.000
    H20      H        0.69120    0.11550    0.86820    1.000
    C32      C        0.72270    0.30450    0.90360    1.000
    C33      C        0.74880    0.30620    0.86430    1.000
    H21      H        0.77130    0.37360    0.87790    1.000
    C34      C        0.74470    0.22430    0.81200    1.000
    H22      H        0.72370    0.15180    0.79980    1.000
    C35      C        0.77020    0.23700    0.77110    1.000
    C36      C        0.80810    0.31740    0.79090    1.000
    H23      H        0.82010    0.36160    0.83460    1.000
    C37      C        0.82710    0.33000    0.74540    1.000
    H24      H        0.85260    0.38300    0.75740    1.000
    C38      C        0.80850    0.26400    0.68120    1.000
    H25      H        0.82170    0.27500    0.65000    1.000
    C39      C        0.75550    0.17270    0.70730    1.000
    H26      H        0.73090    0.11420    0.69460    1.000
    C40      C        0.85030    0.59060    0.98090    1.000
    C41      C        0.89460    0.56520    0.98530    1.000
    C42      C        0.92860    0.56260    0.04970    1.000
    H27      H        0.92400    0.57980    0.09000    1.000
    C43      C        0.96990    0.53390    0.05360    1.000
    H28      H        0.99280    0.52950    0.09740    1.000
    C44      C        0.97800    0.51230    0.99670    1.000
    C45      C        0.94340    0.50860    0.93530    1.000
    H29      H        0.94770    0.48590    0.89510    1.000
    C46      C        0.90250    0.53690    0.92950    1.000
    H30      H        0.87960    0.53640    0.88560    1.000
    Cd3      Cd       0.73410    0.12249    0.54649    1.000
    O7       O        0.76424    0.14010    0.47220    1.000
    N5       N        0.77328    0.91420    0.55510    1.000
    C47      C        0.79252    0.04220    0.47460    1.000
    O8       O        0.65647    0.12430    0.46910    1.000
    N6       N        0.72663    0.68740    0.83780    1.000
    C48      C        0.81650    0.04760    0.43560    1.000
    H31      H        0.81260    0.12370    0.40450    1.000
    O9       O        0.67936    0.06970    0.57830    1.000
    C49      C        0.84640    0.94120    0.44180    1.000
    H32      H        0.86330    0.95000    0.41610    1.000
    C50      C        0.85200    0.82820    0.48200    1.000
    H33      H        0.87200    0.75700    0.48340    1.000
    C51      C        0.82830    0.81440    0.52280    1.000
    C52      C        0.79775    0.92170    0.51840    1.000
    C53      C        0.83230    0.70020    0.56760    1.000
    H34      H        0.85270    0.62770    0.57330    1.000
    C54      C        0.80680    0.69410    0.60280    1.000
    H35      H        0.80880    0.61550    0.63180    1.000
    C55      C        0.77730    0.80450    0.59640    1.000
    C56      C        0.75120    0.80620    0.63570    1.000
    H36      H        0.72870    0.87360    0.62210    1.000
    C57      C        0.75530    0.72430    0.68800    1.000
    H37      H        0.77630    0.65180    0.70020    1.000
    C58      C        0.72980    0.73700    0.72890    1.000
    C59      C        0.69190    0.81740    0.70910    1.000
    H38      H        0.67990    0.86160    0.66540    1.000
    C60      C        0.67290    0.83000    0.75460    1.000
    H39      H        0.64740    0.88300    0.74260    1.000
    C61      C        0.69150    0.76400    0.81880    1.000
    H40      H        0.67830    0.77500    0.85000    1.000
    C62      C        0.74450    0.67270    0.79270    1.000
    H41      H        0.76910    0.61420    0.80540    1.000
    C63      C        0.64970    0.09060    0.51910    1.000
    C64      C        0.60540    0.06520    0.51470    1.000
    C65      C        0.57140    0.06260    0.45030    1.000
    H42      H        0.57600    0.07980    0.41000    1.000
    C66      C        0.53010    0.03390    0.44640    1.000
    H43      H        0.50720    0.02950    0.40260    1.000
    C67      C        0.52200    0.01230    0.50330    1.000
    C68      C        0.55660    0.00860    0.56470    1.000
    H44      H        0.55230    0.98590    0.60490    1.000
    C69      C        0.59750    0.03690    0.57050    1.000
    H45      H        0.62040    0.03640    0.61440    1.000
    Cd4      Cd       0.23410    0.62249    0.54649    1.000
    O10      O        0.26424    0.64010    0.47220    1.000
    N7       N        0.27328    0.41420    0.55510    1.000
    C70      C        0.29252    0.54220    0.47460    1.000
    O11      O        0.15647    0.62430    0.46910    1.000
    N8       N        0.22663    0.18740    0.83780    1.000
    C71      C        0.31650    0.54760    0.43560    1.000
    H46      H        0.31260    0.62370    0.40450    1.000
    O12      O        0.17936    0.56970    0.57830    1.000
    C72      C        0.34640    0.44120    0.44180    1.000
    H47      H        0.36330    0.45000    0.41610    1.000
    C73      C        0.35200    0.32820    0.48200    1.000
    H48      H        0.37200    0.25700    0.48340    1.000
    C74      C        0.32830    0.31440    0.52280    1.000
    C75      C        0.29775    0.42170    0.51840    1.000
    C76      C        0.33230    0.20020    0.56760    1.000
    H49      H        0.35270    0.12770    0.57330    1.000
    C77      C        0.30680    0.19410    0.60280    1.000
    H50      H        0.30880    0.11550    0.63180    1.000
    C78      C        0.27730    0.30450    0.59640    1.000
    C79      C        0.25120    0.30620    0.63570    1.000
    H51      H        0.22870    0.37360    0.62210    1.000
    C80      C        0.25530    0.22430    0.68800    1.000
    H52      H        0.27630    0.15180    0.70020    1.000
    C81      C        0.22980    0.23700    0.72890    1.000
    C82      C        0.19190    0.31740    0.70910    1.000
    H53      H        0.17990    0.36160    0.66540    1.000
    C83      C        0.17290    0.33000    0.75460    1.000
    H54      H        0.14740    0.38300    0.74260    1.000
    C84      C        0.19150    0.26400    0.81880    1.000
    H55      H        0.17830    0.27500    0.85000    1.000
    C85      C        0.24450    0.17270    0.79270    1.000
    H56      H        0.26910    0.11420    0.80540    1.000
    C86      C        0.14970    0.59060    0.51910    1.000
    C87      C        0.10540    0.56520    0.51470    1.000
    C88      C        0.07140    0.56260    0.45030    1.000
    H57      H        0.07600    0.57980    0.41000    1.000
    C89      C        0.03010    0.53390    0.44640    1.000
    H58      H        0.00720    0.52950    0.40260    1.000
    C90      C        0.02200    0.51230    0.50330    1.000
    C91      C        0.05660    0.50860    0.56470    1.000
    H59      H        0.05230    0.48590    0.60490    1.000
    C92      C        0.09750    0.53690    0.57050    1.000
    H60      H        0.12040    0.53640    0.61440    1.000
    Cd5      Cd       0.73410    0.87751    0.04649    1.000
    O13      O        0.76424    0.85990    0.97220    1.000
    N9       N        0.77328    0.08580    0.05510    1.000
    C93      C        0.79252    0.95780    0.97460    1.000
    O14      O        0.65647    0.87570    0.96910    1.000
    N10      N        0.72663    0.31260    0.33780    1.000
    C94      C        0.81650    0.95240    0.93560    1.000
    H61      H        0.81260    0.87630    0.90450    1.000
    O15      O        0.67936    0.93030    0.07830    1.000
    C95      C        0.84640    0.05880    0.94180    1.000
    H62      H        0.86330    0.05000    0.91610    1.000
    C96      C        0.85200    0.17180    0.98200    1.000
    H63      H        0.87200    0.24300    0.98340    1.000
    C97      C        0.82830    0.18560    0.02280    1.000
    C98      C        0.79775    0.07830    0.01840    1.000
    C99      C        0.83230    0.29980    0.06760    1.000
    H64      H        0.85270    0.37230    0.07330    1.000
    C100     C        0.80680    0.30590    0.10280    1.000
    H65      H        0.80880    0.38450    0.13180    1.000
    C101     C        0.77730    0.19550    0.09640    1.000
    C102     C        0.75120    0.19380    0.13570    1.000
    H66      H        0.72870    0.12640    0.12210    1.000
    C103     C        0.75530    0.27570    0.18800    1.000
    H67      H        0.77630    0.34820    0.20020    1.000
    C104     C        0.72980    0.26300    0.22890    1.000
    C105     C        0.69190    0.18260    0.20910    1.000
    H68      H        0.67990    0.13840    0.16540    1.000
    C106     C        0.67290    0.17000    0.25460    1.000
    H69      H        0.64740    0.11700    0.24260    1.000
    C107     C        0.69150    0.23600    0.31880    1.000
    H70      H        0.67830    0.22500    0.35000    1.000
    C108     C        0.74450    0.32730    0.29270    1.000
    H71      H        0.76910    0.38580    0.30540    1.000
    C109     C        0.64970    0.90940    0.01910    1.000
    C110     C        0.60540    0.93480    0.01470    1.000
    C111     C        0.57140    0.93740    0.95030    1.000
    H72      H        0.57600    0.92020    0.91000    1.000
    C112     C        0.53010    0.96610    0.94640    1.000
    H73      H        0.50720    0.97050    0.90260    1.000
    C113     C        0.52200    0.98770    0.00330    1.000
    C114     C        0.55660    0.99140    0.06470    1.000
    H74      H        0.55230    0.01410    0.10490    1.000
    C115     C        0.59750    0.96310    0.07050    1.000
    H75      H        0.62040    0.96360    0.11440    1.000
    Cd6      Cd       0.23410    0.37751    0.04649    1.000
    O16      O        0.26424    0.35990    0.97220    1.000
    N11      N        0.27328    0.58580    0.05510    1.000
    C116     C        0.29252    0.45780    0.97460    1.000
    O17      O        0.15647    0.37570    0.96910    1.000
    N12      N        0.22663    0.81260    0.33780    1.000
    C117     C        0.31650    0.45240    0.93560    1.000
    H76      H        0.31260    0.37630    0.90450    1.000
    O18      O        0.17936    0.43030    0.07830    1.000
    C118     C        0.34640    0.55880    0.94180    1.000
    H77      H        0.36330    0.55000    0.91610    1.000
    C119     C        0.35200    0.67180    0.98200    1.000
    H78      H        0.37200    0.74300    0.98340    1.000
    C120     C        0.32830    0.68560    0.02280    1.000
    C121     C        0.29775    0.57830    0.01840    1.000
    C122     C        0.33230    0.79980    0.06760    1.000
    H79      H        0.35270    0.87230    0.07330    1.000
    C123     C        0.30680    0.80590    0.10280    1.000
    H80      H        0.30880    0.88450    0.13180    1.000
    C124     C        0.27730    0.69550    0.09640    1.000
    C125     C        0.25120    0.69380    0.13570    1.000
    H81      H        0.22870    0.62640    0.12210    1.000
    C126     C        0.25530    0.77570    0.18800    1.000
    H82      H        0.27630    0.84820    0.20020    1.000
    C127     C        0.22980    0.76300    0.22890    1.000
    C128     C        0.19190    0.68260    0.20910    1.000
    H83      H        0.17990    0.63840    0.16540    1.000
    C129     C        0.17290    0.67000    0.25460    1.000
    H84      H        0.14740    0.61700    0.24260    1.000
    C130     C        0.19150    0.73600    0.31880    1.000
    H85      H        0.17830    0.72500    0.35000    1.000
    C131     C        0.24450    0.82730    0.29270    1.000
    H86      H        0.26910    0.88580    0.30540    1.000
    C132     C        0.14970    0.40940    0.01910    1.000
    C133     C        0.10540    0.43480    0.01470    1.000
    C134     C        0.07140    0.43740    0.95030    1.000
    H87      H        0.07600    0.42020    0.91000    1.000
    C135     C        0.03010    0.46610    0.94640    1.000
    H88      H        0.00720    0.47050    0.90260    1.000
    C136     C        0.02200    0.48770    0.00330    1.000
    C137     C        0.05660    0.49140    0.06470    1.000
    H89      H        0.05230    0.51410    0.10490    1.000
    C138     C        0.09750    0.46310    0.07050    1.000
    H90      H        0.12040    0.46360    0.11440    1.000
    Cd7      Cd       0.26590    0.87751    0.45351    1.000
    O19      O        0.23576    0.85990    0.52780    1.000
    N13      N        0.22672    0.08580    0.44490    1.000
    C139     C        0.20748    0.95780    0.52540    1.000
    O20      O        0.34353    0.87570    0.53090    1.000
    N14      N        0.27337    0.31260    0.16220    1.000
    C140     C        0.18350    0.95240    0.56440    1.000
    H91      H        0.18740    0.87630    0.59550    1.000
    O21      O        0.32064    0.93030    0.42170    1.000
    C141     C        0.15360    0.05880    0.55820    1.000
    H92      H        0.13670    0.05000    0.58390    1.000
    C142     C        0.14800    0.17180    0.51800    1.000
    H93      H        0.12800    0.24300    0.51660    1.000
    C143     C        0.17170    0.18560    0.47720    1.000
    C144     C        0.20225    0.07830    0.48160    1.000
    C145     C        0.16770    0.29980    0.43240    1.000
    H94      H        0.14730    0.37230    0.42670    1.000
    C146     C        0.19320    0.30590    0.39720    1.000
    H95      H        0.19120    0.38450    0.36820    1.000
    C147     C        0.22270    0.19550    0.40360    1.000
    C148     C        0.24880    0.19380    0.36430    1.000
    H96      H        0.27130    0.12640    0.37790    1.000
    C149     C        0.24470    0.27570    0.31200    1.000
    H97      H        0.22370    0.34820    0.29980    1.000
    C150     C        0.27020    0.26300    0.27110    1.000
    C151     C        0.30810    0.18260    0.29090    1.000
    H98      H        0.32010    0.13840    0.33460    1.000
    C152     C        0.32710    0.17000    0.24540    1.000
    H99      H        0.35260    0.11700    0.25740    1.000
    C153     C        0.30850    0.23600    0.18120    1.000
    H100     H        0.32170    0.22500    0.15000    1.000
    C154     C        0.25550    0.32730    0.20730    1.000
    H101     H        0.23090    0.38580    0.19460    1.000
    C155     C        0.35030    0.90940    0.48090    1.000
    C156     C        0.39460    0.93480    0.48530    1.000
    C157     C        0.42860    0.93740    0.54970    1.000
    H102     H        0.42400    0.92020    0.59000    1.000
    C158     C        0.46990    0.96610    0.55360    1.000
    H103     H        0.49280    0.97050    0.59740    1.000
    C159     C        0.47800    0.98770    0.49670    1.000
    C160     C        0.44340    0.99140    0.43530    1.000
    H104     H        0.44770    0.01410    0.39510    1.000
    C161     C        0.40250    0.96310    0.42950    1.000
    H105     H        0.37960    0.96360    0.38560    1.000
    Cd8      Cd       0.76590    0.37751    0.45351    1.000
    O22      O        0.73576    0.35990    0.52780    1.000
    N15      N        0.72672    0.58580    0.44490    1.000
    C162     C        0.70748    0.45780    0.52540    1.000
    O23      O        0.84353    0.37570    0.53090    1.000
    N16      N        0.77337    0.81260    0.16220    1.000
    C163     C        0.68350    0.45240    0.56440    1.000
    H106     H        0.68740    0.37630    0.59550    1.000
    O24      O        0.82064    0.43030    0.42170    1.000
    C164     C        0.65360    0.55880    0.55820    1.000
    H107     H        0.63670    0.55000    0.58390    1.000
    C165     C        0.64800    0.67180    0.51800    1.000
    H108     H        0.62800    0.74300    0.51660    1.000
    C166     C        0.67170    0.68560    0.47720    1.000
    C167     C        0.70225    0.57830    0.48160    1.000
    C168     C        0.66770    0.79980    0.43240    1.000
    H109     H        0.64730    0.87230    0.42670    1.000
    C169     C        0.69320    0.80590    0.39720    1.000
    H110     H        0.69120    0.88450    0.36820    1.000
    C170     C        0.72270    0.69550    0.40360    1.000
    C171     C        0.74880    0.69380    0.36430    1.000
    H111     H        0.77130    0.62640    0.37790    1.000
    C172     C        0.74470    0.77570    0.31200    1.000
    H112     H        0.72370    0.84820    0.29980    1.000
    C173     C        0.77020    0.76300    0.27110    1.000
    C174     C        0.80810    0.68260    0.29090    1.000
    H113     H        0.82010    0.63840    0.33460    1.000
    C175     C        0.82710    0.67000    0.24540    1.000
    H114     H        0.85260    0.61700    0.25740    1.000
    C176     C        0.80850    0.73600    0.18120    1.000
    H115     H        0.82170    0.72500    0.15000    1.000
    C177     C        0.75550    0.82730    0.20730    1.000
    H116     H        0.73090    0.88580    0.19460    1.000
    C178     C        0.85030    0.40940    0.48090    1.000
    C179     C        0.89460    0.43480    0.48530    1.000
    C180     C        0.92860    0.43740    0.54970    1.000
    H117     H        0.92400    0.42020    0.59000    1.000
    C181     C        0.96990    0.46610    0.55360    1.000
    H118     H        0.99280    0.47050    0.59740    1.000
    C182     C        0.97800    0.48770    0.49670    1.000
    C183     C        0.94340    0.49140    0.43530    1.000
    H119     H        0.94770    0.51410    0.39510    1.000
    C184     C        0.90250    0.46310    0.42950    1.000
    H120     H        0.87960    0.46360    0.38560    1.000
