data_functionalizedCrystal
_audit_creation_method	'EQeq! by Chris Wilmer'
_symmetry_space_group_name_H-M	'P1'
_symmetry_Int_Tables_number	1
_symmetry_cell_setting	triclinic
loop_
_symmetry_equiv_pos_as_xyz
  x,y,z
_cell_length_a	10.3349
_cell_length_b	11.8962
_cell_length_c	20.2894
_cell_angle_alpha	90
_cell_angle_beta	90
_cell_angle_gamma	90
loop_
_atom_site_label
_atom_site_type_symbol
_atom_site_fract_x
_atom_site_fract_y
_atom_site_fract_z
_atom_site_charge
Mof_Zn	Zn	0.14246	0.6765	0.99072	1.237
Mof_Zn	Zn	0.45562	0.58325	0.99026	1.214
Mof_O 	O 	0.1796	0.598	0.9068	-0.513
Mof_O 	O 	0.3848	0.543	0.9036	-0.538
Mof_O 	O 	0.122	0.4547	0.5765	-0.505
Mof_O 	O 	0.3325	0.4125	0.573	-0.478
Mof_O 	O 	0.1192	0.838	0.0078	-0.592
Mof_O 	O 	0.3396	0.7316	0.9912	-0.556
Mof_O 	O 	0.4587	0.8753	0.0246	-0.442
Mof_C 	C 	0.2588	0.5299	0.8057	-0.231
Mof_C 	C 	0.2423	0.4735	0.6724	-0.032
Mof_C 	C 	0.1485	0.5384	0.7735	0.204
Mof_C 	C 	0.3708	0.4973	0.7716	0.073
Mof_H 	H 	0.4496	0.4948	0.7937	0.001
Mof_C 	C 	0.1379	0.5082	0.709	-0.165
Mof_H 	H 	0.057	0.5112	0.6889	0.081
Mof_C 	C 	0.3656	0.4685	0.7046	-0.099
Mof_H 	H 	0.4397	0.447	0.6818	0.066
Mof_C 	C 	0.2783	0.5586	0.8779	0.46
Mof_C 	C 	0.353	0.8285	0.0135	0.304
Mof_C 	C 	0.2299	0.8934	0.0314	0.185
Mof_H 	H 	0.234	0.968	0.011	-0.051
Mof_C 	C 	0.2325	0.4439	0.6025	0.371
Mof_N 	N 	0.032	0.5755	0.8022	-0.397
Mof_H 	H 	0.0418	0.5802	0.8457	0.169
Mof_H 	H 	0.9691	0.5269	0.7929	0.132
Mof_H 	H 	0.0116	0.6428	0.7861	0.134
Mof_C 	C 	0.224	0.9068	0.1068	-0.681
Mof_H 	H 	0.1393	0.932	0.1194	0.211
Mof_H 	H 	0.2872	0.9609	0.1207	0.221
Mof_H 	H 	0.2417	0.8357	0.1274	0.218
Mof_Zn	Zn	0.35754	0.3235	0.49072	1.237
Mof_Zn	Zn	0.04438	0.41675	0.49026	1.213
Mof_O 	O 	0.3204	0.402	0.4068	-0.513
Mof_O 	O 	0.1152	0.457	0.4036	-0.538
Mof_O 	O 	0.378	0.5453	0.0765	-0.504
Mof_O 	O 	0.1675	0.5875	0.073	-0.477
Mof_O 	O 	0.3808	0.162	0.5078	-0.594
Mof_O 	O 	0.1604	0.2684	0.4912	-0.555
Mof_O 	O 	0.0413	0.1247	0.5246	-0.442
Mof_C 	C 	0.2412	0.4701	0.3057	-0.231
Mof_C 	C 	0.2577	0.5265	0.1724	-0.031
Mof_C 	C 	0.3515	0.4616	0.2735	0.204
Mof_C 	C 	0.1292	0.5027	0.2716	0.073
Mof_H 	H 	0.0504	0.5052	0.2937	0.002
Mof_C 	C 	0.3621	0.4918	0.209	-0.165
Mof_H 	H 	0.443	0.4888	0.1889	0.082
Mof_C 	C 	0.1344	0.5315	0.2046	-0.099
Mof_H 	H 	0.0603	0.553	0.1818	0.066
Mof_C 	C 	0.2217	0.4414	0.3779	0.46
Mof_C 	C 	0.147	0.1715	0.5135	0.302
Mof_C 	C 	0.2701	0.1066	0.5314	0.186
Mof_H 	H 	0.266	0.032	0.511	-0.052
Mof_C 	C 	0.2675	0.5561	0.1025	0.371
Mof_N 	N 	0.468	0.4245	0.3022	-0.396
Mof_H 	H 	0.4582	0.4198	0.3457	0.169
Mof_H 	H 	0.5309	0.4731	0.2929	0.13
Mof_H 	H 	0.4884	0.3572	0.2861	0.135
Mof_C 	C 	0.276	0.0932	0.6068	-0.68
Mof_H 	H 	0.3607	0.068	0.6194	0.209
Mof_H 	H 	0.2128	0.0391	0.6207	0.221
Mof_H 	H 	0.2583	0.1643	0.6274	0.217
Mof_Zn	Zn	0.85754	0.1765	0.50928	1.237
Mof_Zn	Zn	0.54438	0.08325	0.50974	1.213
Mof_O 	O 	0.8204	0.098	0.5932	-0.513
Mof_O 	O 	0.6152	0.043	0.5964	-0.538
Mof_O 	O 	0.878	0.9547	0.9235	-0.503
Mof_O 	O 	0.6675	0.9125	0.927	-0.477
Mof_O 	O 	0.8808	0.338	0.4922	-0.594
Mof_O 	O 	0.6604	0.2316	0.5088	-0.555
Mof_O 	O 	0.5413	0.3753	0.4754	-0.441
Mof_C 	C 	0.7412	0.0299	0.6943	-0.233
Mof_C 	C 	0.7577	0.9735	0.8276	-0.03
Mof_C 	C 	0.8515	0.0384	0.7265	0.205
Mof_C 	C 	0.6292	0.9973	0.7284	0.075
Mof_H 	H 	0.5504	0.9948	0.7063	0.001
Mof_C 	C 	0.8621	0.0082	0.791	-0.167
Mof_H 	H 	0.943	0.0112	0.8111	0.083
Mof_C 	C 	0.6344	0.9685	0.7954	-0.1
Mof_H 	H 	0.5603	0.947	0.8182	0.066
Mof_C 	C 	0.7217	0.0586	0.6221	0.461
Mof_C 	C 	0.647	0.3285	0.4865	0.302
Mof_C 	C 	0.7701	0.3934	0.4686	0.186
Mof_H 	H 	0.766	0.468	0.489	-0.051
Mof_C 	C 	0.7675	0.9439	0.8975	0.37
Mof_N 	N 	0.968	0.0755	0.6978	-0.394
Mof_H 	H 	0.9582	0.0802	0.6543	0.17
Mof_H 	H 	0.0309	0.0269	0.7071	0.127
Mof_H 	H 	0.9884	0.1428	0.7139	0.135
Mof_C 	C 	0.776	0.4068	0.3932	-0.68
Mof_H 	H 	0.8607	0.432	0.3806	0.21
Mof_H 	H 	0.7128	0.4609	0.3793	0.221
Mof_H 	H 	0.7583	0.3357	0.3726	0.217
Mof_Zn	Zn	0.64246	0.8235	0.00928	1.237
Mof_Zn	Zn	0.95562	0.91675	0.00974	1.212
Mof_O 	O 	0.6796	0.902	0.0932	-0.513
Mof_O 	O 	0.8848	0.957	0.0964	-0.54
Mof_O 	O 	0.622	0.0453	0.4235	-0.505
Mof_O 	O 	0.8325	0.0875	0.427	-0.478
Mof_O 	O 	0.6192	0.662	0.9922	-0.594
Mof_O 	O 	0.8396	0.7684	0.0088	-0.558
Mof_O 	O 	0.9587	0.6247	0.9754	-0.44
Mof_C 	C 	0.7588	0.9701	0.1943	-0.234
Mof_C 	C 	0.7423	0.0265	0.3276	-0.03
Mof_C 	C 	0.6485	0.9616	0.2265	0.205
Mof_C 	C 	0.8708	0.0027	0.2284	0.076
Mof_H 	H 	0.9496	0.0052	0.2063	0
Mof_C 	C 	0.6379	0.9918	0.291	-0.167
Mof_H 	H 	0.557	0.9888	0.3111	0.082
Mof_C 	C 	0.8656	0.0315	0.2954	-0.101
Mof_H 	H 	0.9397	0.053	0.3182	0.066
Mof_C 	C 	0.7783	0.9414	0.1221	0.461
Mof_C 	C 	0.853	0.6715	0.9865	0.305
Mof_C 	C 	0.7299	0.6066	0.9686	0.185
Mof_H 	H 	0.734	0.532	0.989	-0.051
Mof_C 	C 	0.7325	0.0561	0.3975	0.37
Mof_N 	N 	0.532	0.9245	0.1978	-0.396
Mof_H 	H 	0.5418	0.9198	0.1543	0.169
Mof_H 	H 	0.4691	0.9731	0.2071	0.13
Mof_H 	H 	0.5116	0.8572	0.2139	0.135
Mof_C 	C 	0.724	0.5932	0.8932	-0.68
Mof_H 	H 	0.6393	0.568	0.8806	0.21
Mof_H 	H 	0.7872	0.5391	0.8793	0.222
Mof_H 	H 	0.7417	0.6643	0.8726	0.218
_end
