# CIF file generated by openbabel 3.1.0, see https://openbabel.org
data_I
_chemical_name_common 'image0'
_cell_length_a 6.623
_cell_length_b 16.893
_cell_length_c 12.592
_cell_angle_alpha 90
_cell_angle_beta 90
_cell_angle_gamma 90
_space_group_name_H-M_alt 'P 1'
_space_group_name_Hall 'P 1'
loop_
    _symmetry_equiv_pos_as_xyz
    x,y,z
loop_
    _atom_site_label
    _atom_site_type_symbol
    _atom_site_fract_x
    _atom_site_fract_y
    _atom_site_fract_z
    _atom_site_occupancy
    O1       O        0.15590    0.16690    0.84182    1.000
    C1       C        0.80420    0.03610    0.97409    1.000
    O2       O        0.65590    0.66690    0.34182    1.000
    C2       C        0.30420    0.53610    0.47409    1.000
    O3       O        0.84410    0.33310    0.84182    1.000
    C3       C        0.19580    0.46390    0.97409    1.000
    O4       O        0.34410    0.83310    0.34182    1.000
    C4       C        0.69580    0.96390    0.47409    1.000
    O5       O        0.84410    0.66690    0.15818    1.000
    C5       C        0.19580    0.53610    0.02591    1.000
    O6       O        0.34410    0.16690    0.65818    1.000
    C6       C        0.69580    0.03610    0.52591    1.000
    O7       O        0.15590    0.83310    0.15818    1.000
    C7       C        0.80420    0.96390    0.02591    1.000
    O8       O        0.65590    0.33310    0.65818    1.000
    C8       C        0.30420    0.46390    0.52591    1.000
    O9       O        0.84410    0.83310    0.15818    1.000
    C9       C        0.19580    0.96390    0.02591    1.000
    O10      O        0.34410    0.33310    0.65818    1.000
    C10      C        0.69580    0.46390    0.52591    1.000
    O11      O        0.15590    0.66690    0.15818    1.000
    C11      C        0.80420    0.53610    0.02591    1.000
    O12      O        0.65590    0.16690    0.65818    1.000
    C12      C        0.30420    0.03610    0.52591    1.000
    O13      O        0.15590    0.33310    0.84182    1.000
    C13      C        0.80420    0.46390    0.97409    1.000
    O14      O        0.65590    0.83310    0.34182    1.000
    C14      C        0.30420    0.96390    0.47409    1.000
    O15      O        0.84410    0.16690    0.84182    1.000
    C15      C        0.19580    0.03610    0.97409    1.000
    O16      O        0.34410    0.66690    0.34182    1.000
    C16      C        0.69580    0.53610    0.47409    1.000
    Al1      Al       0.25000    0.25000    0.75000    1.000
    Al2      Al       0.75000    0.25000    0.75000    1.000
    Al3      Al       0.75000    0.75000    0.25000    1.000
    Al4      Al       0.25000    0.75000    0.25000    1.000
    O17      O        0.00000    0.25000    0.69297    1.000
    O18      O        0.50000    0.75000    0.19297    1.000
    O19      O        0.00000    0.75000    0.30703    1.000
    O20      O        0.50000    0.25000    0.80703    1.000
    C17      C        0.00000    0.05987    0.95711    1.000
    C18      C        0.00000    0.12911    0.88311    1.000
    C19      C        0.50000    0.55987    0.45711    1.000
    C20      C        0.50000    0.62911    0.38311    1.000
    C21      C        0.00000    0.44013    0.95711    1.000
    C22      C        0.00000    0.37089    0.88311    1.000
    C23      C        0.50000    0.94013    0.45711    1.000
    C24      C        0.50000    0.87089    0.38311    1.000
    C25      C        0.00000    0.55987    0.04289    1.000
    C26      C        0.00000    0.62911    0.11689    1.000
    C27      C        0.50000    0.05987    0.54289    1.000
    C28      C        0.50000    0.12911    0.61689    1.000
    C29      C        0.00000    0.94013    0.04289    1.000
    C30      C        0.00000    0.87089    0.11689    1.000
    C31      C        0.50000    0.44013    0.54289    1.000
    C32      C        0.50000    0.37089    0.61689    1.000
