data_functionalizedCrystal
_audit_creation_method	'EQeq! by Chris Wilmer'
_symmetry_space_group_name_H-M	'P1'
_symmetry_Int_Tables_number	1
_symmetry_cell_setting	triclinic
loop_
_symmetry_equiv_pos_as_xyz
  x,y,z
_cell_length_a	35.6971
_cell_length_b	35.6971
_cell_length_c	17.3243
_cell_angle_alpha	90
_cell_angle_beta	90
_cell_angle_gamma	120
loop_
_atom_site_label
_atom_site_type_symbol
_atom_site_fract_x
_atom_site_fract_y
_atom_site_fract_z
_atom_site_charge
Mof_O 	O 	0.44495	0.47807	0.41832	-0.399
Mof_O 	O 	0.43448	0.4882	0.54387	-0.409
Mof_C 	C 	0.42222	0.4783	0.4765	0.361
Mof_C 	C 	0.37575	0.4645	0.4557	-0.129
Mof_C 	C 	0.34836	0.46323	0.513	0.082
Mof_H 	H 	0.3583	0.4711	0.5632	0.022
Mof_C 	C 	0.30516	0.44987	0.4944	-0.17
Mof_H 	H 	0.2873	0.451	0.5322	0.107
Mof_C 	C 	0.28915	0.43564	0.4245	0.137
Mof_C 	C 	0.3168	0.43721	0.3666	-0.164
Mof_H 	H 	0.3063	0.4285	0.3169	0.095
Mof_C 	C 	0.36049	0.45189	0.3827	0.081
Mof_H 	H 	0.3789	0.453	0.3437	0.022
Mof_C 	C 	0.24209	0.41606	0.4048	-0.075
Mof_C 	C 	0.22151	0.37646	0.3716	-0.036
Mof_H 	H 	0.2374	0.3629	0.3612	0.046
Mof_C 	C 	0.2628	0.5547	0.4488	-0.003
Mof_C 	C 	0.2752	0.5139	0.3304	-0.016
Mof_O 	O 	0.11162	0.8114	0.75165	-0.399
Mof_O 	O 	0.10115	0.82153	0.8772	-0.409
Mof_C 	C 	0.08889	0.81163	0.80983	0.361
Mof_C 	C 	0.04242	0.79783	0.78903	-0.129
Mof_C 	C 	0.01503	0.79656	0.84633	0.082
Mof_H 	H 	0.02497	0.80443	0.89653	0.022
Mof_C 	C 	0.97183	0.7832	0.82773	-0.17
Mof_H 	H 	0.95397	0.78433	0.86553	0.107
Mof_C 	C 	0.95582	0.76897	0.75783	0.137
Mof_C 	C 	0.98347	0.77054	0.69993	-0.164
Mof_H 	H 	0.97297	0.76183	0.65023	0.095
Mof_C 	C 	0.02716	0.78522	0.71603	0.081
Mof_H 	H 	0.04557	0.78633	0.67703	0.022
Mof_C 	C 	0.90876	0.74939	0.73813	-0.075
Mof_C 	C 	0.88818	0.70979	0.70493	-0.036
Mof_H 	H 	0.90407	0.69623	0.69453	0.046
Mof_C 	C 	0.92947	0.88803	0.78213	-0.003
Mof_C 	C 	0.94187	0.84723	0.66373	-0.016
Mof_O 	O 	0.77828	0.14474	0.08499	-0.399
Mof_O 	O 	0.76781	0.15487	0.21054	-0.409
Mof_C 	C 	0.75555	0.14497	0.14317	0.361
Mof_C 	C 	0.70908	0.13117	0.12237	-0.129
Mof_C 	C 	0.68169	0.1299	0.17967	0.081
Mof_H 	H 	0.69163	0.13777	0.22987	0.021
Mof_C 	C 	0.63849	0.11654	0.16107	-0.171
Mof_H 	H 	0.62063	0.11767	0.19887	0.106
Mof_C 	C 	0.62248	0.10231	0.09117	0.136
Mof_C 	C 	0.65013	0.10388	0.03327	-0.166
Mof_H 	H 	0.63963	0.09517	0.98357	0.094
Mof_C 	C 	0.69382	0.11856	0.04937	0.08
Mof_H 	H 	0.71223	0.11967	0.01037	0.021
Mof_C 	C 	0.57542	0.08273	0.07147	-0.076
Mof_C 	C 	0.55484	0.04313	0.03827	-0.037
Mof_H 	H 	0.57073	0.02957	0.02787	0.045
Mof_C 	C 	0.59613	0.22137	0.11547	-0.004
Mof_C 	C 	0.60853	0.18057	0.99707	-0.017
Mof_O 	O 	0.52193	0.96688	0.41832	-0.4
Mof_O 	O 	0.5118	0.94628	0.54387	-0.41
Mof_C 	C 	0.5217	0.94392	0.4765	0.36
Mof_C 	C 	0.5355	0.91125	0.4557	-0.13
Mof_C 	C 	0.53677	0.88513	0.513	0.081
Mof_H 	H 	0.5289	0.8872	0.5632	0.021
Mof_C 	C 	0.55013	0.85529	0.4944	-0.171
Mof_H 	H 	0.549	0.8363	0.5322	0.106
Mof_C 	C 	0.56436	0.85351	0.4245	0.136
Mof_C 	C 	0.56279	0.87959	0.3666	-0.165
Mof_H 	H 	0.5715	0.8778	0.3169	0.094
Mof_C 	C 	0.54811	0.9086	0.3827	0.08
Mof_H 	H 	0.547	0.9259	0.3437	0.021
Mof_C 	C 	0.58394	0.82603	0.4048	-0.076
Mof_C 	C 	0.62354	0.84505	0.3716	-0.037
Mof_H 	H 	0.6371	0.8745	0.3612	0.045
Mof_C 	C 	0.4453	0.7081	0.4488	-0.004
Mof_C 	C 	0.4861	0.7613	0.3304	-0.017
Mof_O 	O 	0.1886	0.30021	0.75165	-0.4
Mof_O 	O 	0.17847	0.27961	0.8772	-0.41
Mof_C 	C 	0.18837	0.27725	0.80983	0.36
Mof_C 	C 	0.20217	0.24458	0.78903	-0.13
Mof_C 	C 	0.20344	0.21846	0.84633	0.081
Mof_H 	H 	0.19557	0.22053	0.89653	0.021
Mof_C 	C 	0.2168	0.18862	0.82773	-0.171
Mof_H 	H 	0.21567	0.16963	0.86553	0.106
Mof_C 	C 	0.23103	0.18684	0.75783	0.136
Mof_C 	C 	0.22946	0.21292	0.69993	-0.165
Mof_H 	H 	0.23817	0.21113	0.65023	0.094
Mof_C 	C 	0.21478	0.24193	0.71603	0.08
Mof_H 	H 	0.21367	0.25923	0.67703	0.021
Mof_C 	C 	0.25061	0.15936	0.73813	-0.076
Mof_C 	C 	0.29021	0.17838	0.70493	-0.037
Mof_H 	H 	0.30377	0.20783	0.69453	0.045
Mof_C 	C 	0.11197	0.04143	0.78213	-0.004
Mof_C 	C 	0.15277	0.09463	0.66373	-0.017
Mof_O 	O 	0.85526	0.63355	0.08499	-0.4
Mof_O 	O 	0.84513	0.61295	0.21054	-0.41
Mof_C 	C 	0.85503	0.61059	0.14317	0.36
Mof_C 	C 	0.86883	0.57792	0.12237	-0.13
Mof_C 	C 	0.8701	0.5518	0.17967	0.081
Mof_H 	H 	0.86223	0.55387	0.22987	0.021
Mof_C 	C 	0.88346	0.52196	0.16107	-0.171
Mof_H 	H 	0.88233	0.50297	0.19887	0.106
Mof_C 	C 	0.89769	0.52018	0.09117	0.136
Mof_C 	C 	0.89612	0.54626	0.03327	-0.165
Mof_H 	H 	0.90483	0.54447	0.98357	0.094
Mof_C 	C 	0.88144	0.57527	0.04937	0.08
Mof_H 	H 	0.88033	0.59257	0.01037	0.021
Mof_C 	C 	0.91727	0.4927	0.07147	-0.076
Mof_C 	C 	0.95687	0.51172	0.03827	-0.037
Mof_H 	H 	0.97043	0.54117	0.02787	0.045
Mof_C 	C 	0.77863	0.37477	0.11547	-0.004
Mof_C 	C 	0.81943	0.42797	0.99707	-0.017
Mof_O 	O 	0.03312	0.55505	0.41832	-0.4
Mof_O 	O 	0.05372	0.56552	0.54387	-0.41
Mof_C 	C 	0.05608	0.57778	0.4765	0.36
Mof_C 	C 	0.08875	0.62425	0.4557	-0.13
Mof_C 	C 	0.11487	0.65164	0.513	0.081
Mof_H 	H 	0.1128	0.6417	0.5632	0.021
Mof_C 	C 	0.14471	0.69484	0.4944	-0.171
Mof_H 	H 	0.1637	0.7127	0.5322	0.106
Mof_C 	C 	0.14649	0.71085	0.4245	0.136
Mof_C 	C 	0.12041	0.6832	0.3666	-0.166
Mof_H 	H 	0.1222	0.6937	0.3169	0.094
Mof_C 	C 	0.0914	0.63951	0.3827	0.08
Mof_H 	H 	0.0741	0.6211	0.3437	0.021
Mof_C 	C 	0.17397	0.75791	0.4048	-0.076
Mof_C 	C 	0.15495	0.77849	0.3716	-0.037
Mof_H 	H 	0.1255	0.7626	0.3612	0.045
Mof_C 	C 	0.2919	0.7372	0.4488	-0.004
Mof_C 	C 	0.2387	0.7248	0.3304	-0.017
Mof_O 	O 	0.69979	0.88838	0.75165	-0.4
Mof_O 	O 	0.72039	0.89885	0.8772	-0.41
Mof_C 	C 	0.72275	0.91111	0.80983	0.36
Mof_C 	C 	0.75542	0.95758	0.78903	-0.13
Mof_C 	C 	0.78154	0.98497	0.84633	0.081
Mof_H 	H 	0.77947	0.97503	0.89653	0.022
Mof_C 	C 	0.81138	0.02817	0.82773	-0.171
Mof_H 	H 	0.83037	0.04603	0.86553	0.106
Mof_C 	C 	0.81316	0.04418	0.75783	0.136
Mof_C 	C 	0.78708	0.01653	0.69993	-0.165
Mof_H 	H 	0.78887	0.02703	0.65023	0.094
Mof_C 	C 	0.75807	0.97284	0.71603	0.08
Mof_H 	H 	0.74077	0.95443	0.67703	0.021
Mof_C 	C 	0.84064	0.09124	0.73813	-0.076
Mof_C 	C 	0.82162	0.11182	0.70493	-0.037
Mof_H 	H 	0.79217	0.09593	0.69453	0.045
Mof_C 	C 	0.95857	0.07053	0.78213	-0.004
Mof_C 	C 	0.90537	0.05813	0.66373	-0.017
Mof_O 	O 	0.36645	0.22172	0.08499	-0.4
Mof_O 	O 	0.38705	0.23219	0.21054	-0.41
Mof_C 	C 	0.38941	0.24445	0.14317	0.36
Mof_C 	C 	0.42208	0.29092	0.12237	-0.13
Mof_C 	C 	0.4482	0.31831	0.17967	0.081
Mof_H 	H 	0.44613	0.30837	0.22987	0.021
Mof_C 	C 	0.47804	0.36151	0.16107	-0.171
Mof_H 	H 	0.49703	0.37937	0.19887	0.106
Mof_C 	C 	0.47982	0.37752	0.09117	0.136
Mof_C 	C 	0.45374	0.34987	0.03327	-0.165
Mof_H 	H 	0.45553	0.36037	0.98357	0.094
Mof_C 	C 	0.42473	0.30618	0.04937	0.08
Mof_H 	H 	0.40743	0.28777	0.01037	0.021
Mof_C 	C 	0.5073	0.42458	0.07147	-0.076
Mof_C 	C 	0.48828	0.44516	0.03827	-0.037
Mof_H 	H 	0.45883	0.42927	0.02787	0.045
Mof_C 	C 	0.62523	0.40387	0.11547	-0.004
Mof_C 	C 	0.57203	0.39147	0.99707	-0.017
Mof_O 	O 	0.47807	0.44495	0.58168	-0.4
Mof_O 	O 	0.4882	0.43448	0.45613	-0.41
Mof_C 	C 	0.4783	0.42222	0.5235	0.36
Mof_C 	C 	0.4645	0.37575	0.5443	-0.13
Mof_C 	C 	0.46323	0.34836	0.487	0.081
Mof_H 	H 	0.4711	0.3583	0.4368	0.021
Mof_C 	C 	0.44987	0.30516	0.5056	-0.171
Mof_H 	H 	0.451	0.2873	0.4678	0.106
Mof_C 	C 	0.43564	0.28915	0.5755	0.136
Mof_C 	C 	0.43721	0.3168	0.6334	-0.165
Mof_H 	H 	0.4285	0.3063	0.6831	0.094
Mof_C 	C 	0.45189	0.36049	0.6173	0.08
Mof_H 	H 	0.453	0.3789	0.6563	0.021
Mof_C 	C 	0.41606	0.24209	0.5952	-0.076
Mof_C 	C 	0.37646	0.22151	0.6284	-0.037
Mof_H 	H 	0.3629	0.2374	0.6388	0.045
Mof_C 	C 	0.5547	0.2628	0.5512	-0.004
Mof_C 	C 	0.5139	0.2752	0.6696	-0.017
Mof_O 	O 	0.14474	0.77828	0.91501	-0.4
Mof_O 	O 	0.15487	0.76781	0.78946	-0.41
Mof_C 	C 	0.14497	0.75555	0.85683	0.36
Mof_C 	C 	0.13117	0.70908	0.87763	-0.13
Mof_C 	C 	0.1299	0.68169	0.82033	0.081
Mof_H 	H 	0.13777	0.69163	0.77013	0.021
Mof_C 	C 	0.11654	0.63849	0.83893	-0.171
Mof_H 	H 	0.11767	0.62063	0.80113	0.106
Mof_C 	C 	0.10231	0.62248	0.90883	0.136
Mof_C 	C 	0.10388	0.65013	0.96673	-0.166
Mof_H 	H 	0.09517	0.63963	0.01643	0.094
Mof_C 	C 	0.11856	0.69382	0.95063	0.08
Mof_H 	H 	0.11967	0.71223	0.98963	0.021
Mof_C 	C 	0.08273	0.57542	0.92853	-0.076
Mof_C 	C 	0.04313	0.55484	0.96173	-0.037
Mof_H 	H 	0.02957	0.57073	0.97213	0.045
Mof_C 	C 	0.22137	0.59613	0.88453	-0.004
Mof_C 	C 	0.18057	0.60853	0.00293	-0.017
Mof_O 	O 	0.8114	0.11162	0.24835	-0.4
Mof_O 	O 	0.82153	0.10115	0.1228	-0.41
Mof_C 	C 	0.81163	0.08889	0.19017	0.36
Mof_C 	C 	0.79783	0.04242	0.21097	-0.13
Mof_C 	C 	0.79656	0.01503	0.15367	0.081
Mof_H 	H 	0.80443	0.02497	0.10347	0.021
Mof_C 	C 	0.7832	0.97183	0.17227	-0.171
Mof_H 	H 	0.78433	0.95397	0.13447	0.106
Mof_C 	C 	0.76897	0.95582	0.24217	0.136
Mof_C 	C 	0.77054	0.98347	0.30007	-0.165
Mof_H 	H 	0.76183	0.97297	0.34977	0.094
Mof_C 	C 	0.78522	0.02716	0.28397	0.08
Mof_H 	H 	0.78633	0.04557	0.32297	0.021
Mof_C 	C 	0.74939	0.90876	0.26187	-0.076
Mof_C 	C 	0.70979	0.88818	0.29507	-0.037
Mof_H 	H 	0.69623	0.90407	0.30547	0.045
Mof_C 	C 	0.88803	0.92947	0.21787	-0.004
Mof_C 	C 	0.84723	0.94187	0.33627	-0.017
Mof_O 	O 	0.96688	0.52193	0.58168	-0.4
Mof_O 	O 	0.94628	0.5118	0.45613	-0.41
Mof_C 	C 	0.94392	0.5217	0.5235	0.36
Mof_C 	C 	0.91125	0.5355	0.5443	-0.13
Mof_C 	C 	0.88513	0.53677	0.487	0.081
Mof_H 	H 	0.8872	0.5289	0.4368	0.021
Mof_C 	C 	0.85529	0.55013	0.5056	-0.171
Mof_H 	H 	0.8363	0.549	0.4678	0.106
Mof_C 	C 	0.85351	0.56436	0.5755	0.136
Mof_C 	C 	0.87959	0.56279	0.6334	-0.165
Mof_H 	H 	0.8778	0.5715	0.6831	0.094
Mof_C 	C 	0.9086	0.54811	0.6173	0.08
Mof_H 	H 	0.9259	0.547	0.6563	0.021
Mof_C 	C 	0.82603	0.58394	0.5952	-0.076
Mof_C 	C 	0.84505	0.62354	0.6284	-0.037
Mof_H 	H 	0.8745	0.6371	0.6388	0.045
Mof_C 	C 	0.7081	0.4453	0.5512	-0.004
Mof_C 	C 	0.7613	0.4861	0.6696	-0.017
Mof_O 	O 	0.63355	0.85526	0.91501	-0.4
Mof_O 	O 	0.61295	0.84513	0.78946	-0.41
Mof_C 	C 	0.61059	0.85503	0.85683	0.36
Mof_C 	C 	0.57792	0.86883	0.87763	-0.13
Mof_C 	C 	0.5518	0.8701	0.82033	0.081
Mof_H 	H 	0.55387	0.86223	0.77013	0.021
Mof_C 	C 	0.52196	0.88346	0.83893	-0.171
Mof_H 	H 	0.50297	0.88233	0.80113	0.106
Mof_C 	C 	0.52018	0.89769	0.90883	0.136
Mof_C 	C 	0.54626	0.89612	0.96673	-0.165
Mof_H 	H 	0.54447	0.90483	0.01643	0.094
Mof_C 	C 	0.57527	0.88144	0.95063	0.08
Mof_H 	H 	0.59257	0.88033	0.98963	0.021
Mof_C 	C 	0.4927	0.91727	0.92853	-0.076
Mof_C 	C 	0.51172	0.95687	0.96173	-0.037
Mof_H 	H 	0.54117	0.97043	0.97213	0.045
Mof_C 	C 	0.37477	0.77863	0.88453	-0.004
Mof_C 	C 	0.42797	0.81943	0.00293	-0.017
Mof_O 	O 	0.30021	0.1886	0.24835	-0.4
Mof_O 	O 	0.27961	0.17847	0.1228	-0.41
Mof_C 	C 	0.27725	0.18837	0.19017	0.36
Mof_C 	C 	0.24458	0.20217	0.21097	-0.13
Mof_C 	C 	0.21846	0.20344	0.15367	0.081
Mof_H 	H 	0.22053	0.19557	0.10347	0.021
Mof_C 	C 	0.18862	0.2168	0.17227	-0.171
Mof_H 	H 	0.16963	0.21567	0.13447	0.106
Mof_C 	C 	0.18684	0.23103	0.24217	0.136
Mof_C 	C 	0.21292	0.22946	0.30007	-0.165
Mof_H 	H 	0.21113	0.23817	0.34977	0.094
Mof_C 	C 	0.24193	0.21478	0.28397	0.08
Mof_H 	H 	0.25923	0.21367	0.32297	0.021
Mof_C 	C 	0.15936	0.25061	0.26187	-0.076
Mof_C 	C 	0.17838	0.29021	0.29507	-0.037
Mof_H 	H 	0.20783	0.30377	0.30547	0.045
Mof_C 	C 	0.04143	0.11197	0.21787	-0.004
Mof_C 	C 	0.09463	0.15277	0.33627	-0.017
Mof_O 	O 	0.55505	0.03312	0.58168	-0.4
Mof_O 	O 	0.56552	0.05372	0.45613	-0.41
Mof_C 	C 	0.57778	0.05608	0.5235	0.36
Mof_C 	C 	0.62425	0.08875	0.5443	-0.13
Mof_C 	C 	0.65164	0.11487	0.487	0.081
Mof_H 	H 	0.6417	0.1128	0.4368	0.021
Mof_C 	C 	0.69484	0.14471	0.5056	-0.171
Mof_H 	H 	0.7127	0.1637	0.4678	0.106
Mof_C 	C 	0.71085	0.14649	0.5755	0.136
Mof_C 	C 	0.6832	0.12041	0.6334	-0.166
Mof_H 	H 	0.6937	0.1222	0.6831	0.094
Mof_C 	C 	0.63951	0.0914	0.6173	0.08
Mof_H 	H 	0.6211	0.0741	0.6563	0.021
Mof_C 	C 	0.75791	0.17397	0.5952	-0.076
Mof_C 	C 	0.77849	0.15495	0.6284	-0.037
Mof_H 	H 	0.7626	0.1255	0.6388	0.045
Mof_C 	C 	0.7372	0.2919	0.5512	-0.004
Mof_C 	C 	0.7248	0.2387	0.6696	-0.017
Mof_O 	O 	0.22172	0.36645	0.91501	-0.4
Mof_O 	O 	0.23219	0.38705	0.78946	-0.41
Mof_C 	C 	0.24445	0.38941	0.85683	0.36
Mof_C 	C 	0.29092	0.42208	0.87763	-0.13
Mof_C 	C 	0.31831	0.4482	0.82033	0.081
Mof_H 	H 	0.30837	0.44613	0.77013	0.021
Mof_C 	C 	0.36151	0.47804	0.83893	-0.171
Mof_H 	H 	0.37937	0.49703	0.80113	0.106
Mof_C 	C 	0.37752	0.47982	0.90883	0.136
Mof_C 	C 	0.34987	0.45374	0.96673	-0.165
Mof_H 	H 	0.36037	0.45553	0.01643	0.094
Mof_C 	C 	0.30618	0.42473	0.95063	0.08
Mof_H 	H 	0.28777	0.40743	0.98963	0.021
Mof_C 	C 	0.42458	0.5073	0.92853	-0.076
Mof_C 	C 	0.44516	0.48828	0.96173	-0.037
Mof_H 	H 	0.42927	0.45883	0.97213	0.045
Mof_C 	C 	0.40387	0.62523	0.88453	-0.004
Mof_C 	C 	0.39147	0.57203	0.00293	-0.017
Mof_O 	O 	0.88838	0.69979	0.24835	-0.4
Mof_O 	O 	0.89885	0.72039	0.1228	-0.41
Mof_C 	C 	0.91111	0.72275	0.19017	0.36
Mof_C 	C 	0.95758	0.75542	0.21097	-0.13
Mof_C 	C 	0.98497	0.78154	0.15367	0.081
Mof_H 	H 	0.97503	0.77947	0.10347	0.022
Mof_C 	C 	0.02817	0.81138	0.17227	-0.171
Mof_H 	H 	0.04603	0.83037	0.13447	0.106
Mof_C 	C 	0.04418	0.81316	0.24217	0.136
Mof_C 	C 	0.01653	0.78708	0.30007	-0.165
Mof_H 	H 	0.02703	0.78887	0.34977	0.094
Mof_C 	C 	0.97284	0.75807	0.28397	0.08
Mof_H 	H 	0.95443	0.74077	0.32297	0.021
Mof_C 	C 	0.09124	0.84064	0.26187	-0.076
Mof_C 	C 	0.11182	0.82162	0.29507	-0.037
Mof_H 	H 	0.09593	0.79217	0.30547	0.045
Mof_C 	C 	0.07053	0.95857	0.21787	-0.004
Mof_C 	C 	0.05813	0.90537	0.33627	-0.017
Mof_O 	O 	0.55505	0.52193	0.58168	-0.4
Mof_O 	O 	0.56552	0.5118	0.45613	-0.41
Mof_C 	C 	0.57778	0.5217	0.5235	0.36
Mof_C 	C 	0.62425	0.5355	0.5443	-0.13
Mof_C 	C 	0.65164	0.53677	0.487	0.081
Mof_H 	H 	0.6417	0.5289	0.4368	0.021
Mof_C 	C 	0.69484	0.55013	0.5056	-0.171
Mof_H 	H 	0.7127	0.549	0.4678	0.106
Mof_C 	C 	0.71085	0.56436	0.5755	0.136
Mof_C 	C 	0.6832	0.56279	0.6334	-0.165
Mof_H 	H 	0.6937	0.5715	0.6831	0.094
Mof_C 	C 	0.63951	0.54811	0.6173	0.08
Mof_H 	H 	0.6211	0.547	0.6563	0.021
Mof_C 	C 	0.75791	0.58394	0.5952	-0.076
Mof_C 	C 	0.77849	0.62354	0.6284	-0.037
Mof_H 	H 	0.7626	0.6371	0.6388	0.045
Mof_C 	C 	0.7372	0.4453	0.5512	-0.004
Mof_C 	C 	0.7248	0.4861	0.6696	-0.017
Mof_O 	O 	0.22172	0.85526	0.91501	-0.4
Mof_O 	O 	0.23219	0.84513	0.78946	-0.41
Mof_C 	C 	0.24445	0.85503	0.85683	0.36
Mof_C 	C 	0.29092	0.86883	0.87763	-0.13
Mof_C 	C 	0.31831	0.8701	0.82033	0.081
Mof_H 	H 	0.30837	0.86223	0.77013	0.021
Mof_C 	C 	0.36151	0.88346	0.83893	-0.171
Mof_H 	H 	0.37937	0.88233	0.80113	0.106
Mof_C 	C 	0.37752	0.89769	0.90883	0.136
Mof_C 	C 	0.34987	0.89612	0.96673	-0.166
Mof_H 	H 	0.36037	0.90483	0.01643	0.094
Mof_C 	C 	0.30618	0.88144	0.95063	0.08
Mof_H 	H 	0.28777	0.88033	0.98963	0.021
Mof_C 	C 	0.42458	0.91727	0.92853	-0.076
Mof_C 	C 	0.44516	0.95687	0.96173	-0.037
Mof_H 	H 	0.42927	0.97043	0.97213	0.045
Mof_C 	C 	0.40387	0.77863	0.88453	-0.004
Mof_C 	C 	0.39147	0.81943	0.00293	-0.017
Mof_O 	O 	0.88838	0.1886	0.24835	-0.4
Mof_O 	O 	0.89885	0.17847	0.1228	-0.41
Mof_C 	C 	0.91111	0.18837	0.19017	0.36
Mof_C 	C 	0.95758	0.20217	0.21097	-0.13
Mof_C 	C 	0.98497	0.20344	0.15367	0.081
Mof_H 	H 	0.97503	0.19557	0.10347	0.021
Mof_C 	C 	0.02817	0.2168	0.17227	-0.171
Mof_H 	H 	0.04603	0.21567	0.13447	0.106
Mof_C 	C 	0.04418	0.23103	0.24217	0.136
Mof_C 	C 	0.01653	0.22946	0.30007	-0.165
Mof_H 	H 	0.02703	0.23817	0.34977	0.094
Mof_C 	C 	0.97284	0.21478	0.28397	0.08
Mof_H 	H 	0.95443	0.21367	0.32297	0.021
Mof_C 	C 	0.09124	0.25061	0.26187	-0.076
Mof_C 	C 	0.11182	0.29021	0.29507	-0.037
Mof_H 	H 	0.09593	0.30377	0.30547	0.045
Mof_C 	C 	0.07053	0.11197	0.21787	-0.004
Mof_C 	C 	0.05813	0.15277	0.33627	-0.017
Mof_O 	O 	0.47807	0.03312	0.58168	-0.4
Mof_O 	O 	0.4882	0.05372	0.45613	-0.41
Mof_C 	C 	0.4783	0.05608	0.5235	0.36
Mof_C 	C 	0.4645	0.08875	0.5443	-0.13
Mof_C 	C 	0.46323	0.11487	0.487	0.081
Mof_H 	H 	0.4711	0.1128	0.4368	0.021
Mof_C 	C 	0.44987	0.14471	0.5056	-0.171
Mof_H 	H 	0.451	0.1637	0.4678	0.106
Mof_C 	C 	0.43564	0.14649	0.5755	0.136
Mof_C 	C 	0.43721	0.12041	0.6334	-0.165
Mof_H 	H 	0.4285	0.1222	0.6831	0.094
Mof_C 	C 	0.45189	0.0914	0.6173	0.08
Mof_H 	H 	0.453	0.0741	0.6563	0.021
Mof_C 	C 	0.41606	0.17397	0.5952	-0.076
Mof_C 	C 	0.37646	0.15495	0.6284	-0.037
Mof_H 	H 	0.3629	0.1255	0.6388	0.045
Mof_C 	C 	0.5547	0.2919	0.5512	-0.004
Mof_C 	C 	0.5139	0.2387	0.6696	-0.017
Mof_O 	O 	0.14474	0.36645	0.91501	-0.4
Mof_O 	O 	0.15487	0.38705	0.78946	-0.41
Mof_C 	C 	0.14497	0.38941	0.85683	0.36
Mof_C 	C 	0.13117	0.42208	0.87763	-0.13
Mof_C 	C 	0.1299	0.4482	0.82033	0.081
Mof_H 	H 	0.13777	0.44613	0.77013	0.021
Mof_C 	C 	0.11654	0.47804	0.83893	-0.171
Mof_H 	H 	0.11767	0.49703	0.80113	0.106
Mof_C 	C 	0.10231	0.47982	0.90883	0.136
Mof_C 	C 	0.10388	0.45374	0.96673	-0.165
Mof_H 	H 	0.09517	0.45553	0.01643	0.094
Mof_C 	C 	0.11856	0.42473	0.95063	0.08
Mof_H 	H 	0.11967	0.40743	0.98963	0.021
Mof_C 	C 	0.08273	0.5073	0.92853	-0.076
Mof_C 	C 	0.04313	0.48828	0.96173	-0.037
Mof_H 	H 	0.02957	0.45883	0.97213	0.045
Mof_C 	C 	0.22137	0.62523	0.88453	-0.004
Mof_C 	C 	0.18057	0.57203	0.00293	-0.017
Mof_O 	O 	0.8114	0.69979	0.24835	-0.4
Mof_O 	O 	0.82153	0.72039	0.1228	-0.41
Mof_C 	C 	0.81163	0.72275	0.19017	0.36
Mof_C 	C 	0.79783	0.75542	0.21097	-0.13
Mof_C 	C 	0.79656	0.78154	0.15367	0.081
Mof_H 	H 	0.80443	0.77947	0.10347	0.021
Mof_C 	C 	0.7832	0.81138	0.17227	-0.171
Mof_H 	H 	0.78433	0.83037	0.13447	0.106
Mof_C 	C 	0.76897	0.81316	0.24217	0.136
Mof_C 	C 	0.77054	0.78708	0.30007	-0.165
Mof_H 	H 	0.76183	0.78887	0.34977	0.094
Mof_C 	C 	0.78522	0.75807	0.28397	0.08
Mof_H 	H 	0.78633	0.74077	0.32297	0.021
Mof_C 	C 	0.74939	0.84064	0.26187	-0.076
Mof_C 	C 	0.70979	0.82162	0.29507	-0.037
Mof_H 	H 	0.69623	0.79217	0.30547	0.045
Mof_C 	C 	0.88803	0.95857	0.21787	-0.004
Mof_C 	C 	0.84723	0.90537	0.33627	-0.017
Mof_O 	O 	0.96688	0.44495	0.58168	-0.4
Mof_O 	O 	0.94628	0.43448	0.45613	-0.41
Mof_C 	C 	0.94392	0.42222	0.5235	0.36
Mof_C 	C 	0.91125	0.37575	0.5443	-0.13
Mof_C 	C 	0.88513	0.34836	0.487	0.081
Mof_H 	H 	0.8872	0.3583	0.4368	0.021
Mof_C 	C 	0.85529	0.30516	0.5056	-0.171
Mof_H 	H 	0.8363	0.2873	0.4678	0.106
Mof_C 	C 	0.85351	0.28915	0.5755	0.136
Mof_C 	C 	0.87959	0.3168	0.6334	-0.166
Mof_H 	H 	0.8778	0.3063	0.6831	0.094
Mof_C 	C 	0.9086	0.36049	0.6173	0.08
Mof_H 	H 	0.9259	0.3789	0.6563	0.021
Mof_C 	C 	0.82603	0.24209	0.5952	-0.076
Mof_C 	C 	0.84505	0.22151	0.6284	-0.037
Mof_H 	H 	0.8745	0.2374	0.6388	0.045
Mof_C 	C 	0.7081	0.2628	0.5512	-0.004
Mof_C 	C 	0.7613	0.2752	0.6696	-0.017
Mof_O 	O 	0.63355	0.77828	0.91501	-0.4
Mof_O 	O 	0.61295	0.76781	0.78946	-0.41
Mof_C 	C 	0.61059	0.75555	0.85683	0.36
Mof_C 	C 	0.57792	0.70908	0.87763	-0.13
Mof_C 	C 	0.5518	0.68169	0.82033	0.081
Mof_H 	H 	0.55387	0.69163	0.77013	0.021
Mof_C 	C 	0.52196	0.63849	0.83893	-0.171
Mof_H 	H 	0.50297	0.62063	0.80113	0.106
Mof_C 	C 	0.52018	0.62248	0.90883	0.136
Mof_C 	C 	0.54626	0.65013	0.96673	-0.165
Mof_H 	H 	0.54447	0.63963	0.01643	0.094
Mof_C 	C 	0.57527	0.69382	0.95063	0.08
Mof_H 	H 	0.59257	0.71223	0.98963	0.021
Mof_C 	C 	0.4927	0.57542	0.92853	-0.076
Mof_C 	C 	0.51172	0.55484	0.96173	-0.037
Mof_H 	H 	0.54117	0.57073	0.97213	0.045
Mof_C 	C 	0.37477	0.59613	0.88453	-0.004
Mof_C 	C 	0.42797	0.60853	0.00293	-0.017
Mof_O 	O 	0.30021	0.11162	0.24835	-0.4
Mof_O 	O 	0.27961	0.10115	0.1228	-0.41
Mof_C 	C 	0.27725	0.08889	0.19017	0.36
Mof_C 	C 	0.24458	0.04242	0.21097	-0.13
Mof_C 	C 	0.21846	0.01503	0.15367	0.081
Mof_H 	H 	0.22053	0.02497	0.10347	0.022
Mof_C 	C 	0.18862	0.97183	0.17227	-0.171
Mof_H 	H 	0.16963	0.95397	0.13447	0.106
Mof_C 	C 	0.18684	0.95582	0.24217	0.136
Mof_C 	C 	0.21292	0.98347	0.30007	-0.165
Mof_H 	H 	0.21113	0.97297	0.34977	0.094
Mof_C 	C 	0.24193	0.02716	0.28397	0.08
Mof_H 	H 	0.25923	0.04557	0.32297	0.021
Mof_C 	C 	0.15936	0.90876	0.26187	-0.076
Mof_C 	C 	0.17838	0.88818	0.29507	-0.037
Mof_H 	H 	0.20783	0.90407	0.30547	0.045
Mof_C 	C 	0.04143	0.92947	0.21787	-0.004
Mof_C 	C 	0.09463	0.94187	0.33627	-0.017
Mof_O 	O 	0.52193	0.55505	0.41832	-0.4
Mof_O 	O 	0.5118	0.56552	0.54387	-0.41
Mof_C 	C 	0.5217	0.57778	0.4765	0.36
Mof_C 	C 	0.5355	0.62425	0.4557	-0.13
Mof_C 	C 	0.53677	0.65164	0.513	0.081
Mof_H 	H 	0.5289	0.6417	0.5632	0.021
Mof_C 	C 	0.55013	0.69484	0.4944	-0.171
Mof_H 	H 	0.549	0.7127	0.5322	0.106
Mof_C 	C 	0.56436	0.71085	0.4245	0.136
Mof_C 	C 	0.56279	0.6832	0.3666	-0.165
Mof_H 	H 	0.5715	0.6937	0.3169	0.094
Mof_C 	C 	0.54811	0.63951	0.3827	0.08
Mof_H 	H 	0.547	0.6211	0.3437	0.021
Mof_C 	C 	0.58394	0.75791	0.4048	-0.076
Mof_C 	C 	0.62354	0.77849	0.3716	-0.037
Mof_H 	H 	0.6371	0.7626	0.3612	0.045
Mof_C 	C 	0.4453	0.7372	0.4488	-0.004
Mof_C 	C 	0.4861	0.7248	0.3304	-0.017
Mof_O 	O 	0.1886	0.88838	0.75165	-0.4
Mof_O 	O 	0.17847	0.89885	0.8772	-0.41
Mof_C 	C 	0.18837	0.91111	0.80983	0.36
Mof_C 	C 	0.20217	0.95758	0.78903	-0.13
Mof_C 	C 	0.20344	0.98497	0.84633	0.081
Mof_H 	H 	0.19557	0.97503	0.89653	0.021
Mof_C 	C 	0.2168	0.02817	0.82773	-0.171
Mof_H 	H 	0.21567	0.04603	0.86553	0.106
Mof_C 	C 	0.23103	0.04418	0.75783	0.136
Mof_C 	C 	0.22946	0.01653	0.69993	-0.165
Mof_H 	H 	0.23817	0.02703	0.65023	0.094
Mof_C 	C 	0.21478	0.97284	0.71603	0.08
Mof_H 	H 	0.21367	0.95443	0.67703	0.021
Mof_C 	C 	0.25061	0.09124	0.73813	-0.076
Mof_C 	C 	0.29021	0.11182	0.70493	-0.037
Mof_H 	H 	0.30377	0.09593	0.69453	0.045
Mof_C 	C 	0.11197	0.07053	0.78213	-0.004
Mof_C 	C 	0.15277	0.05813	0.66373	-0.017
Mof_O 	O 	0.85526	0.22172	0.08499	-0.4
Mof_O 	O 	0.84513	0.23219	0.21054	-0.41
Mof_C 	C 	0.85503	0.24445	0.14317	0.36
Mof_C 	C 	0.86883	0.29092	0.12237	-0.13
Mof_C 	C 	0.8701	0.31831	0.17967	0.081
Mof_H 	H 	0.86223	0.30837	0.22987	0.021
Mof_C 	C 	0.88346	0.36151	0.16107	-0.171
Mof_H 	H 	0.88233	0.37937	0.19887	0.106
Mof_C 	C 	0.89769	0.37752	0.09117	0.136
Mof_C 	C 	0.89612	0.34987	0.03327	-0.166
Mof_H 	H 	0.90483	0.36037	0.98357	0.094
Mof_C 	C 	0.88144	0.30618	0.04937	0.08
Mof_H 	H 	0.88033	0.28777	0.01037	0.021
Mof_C 	C 	0.91727	0.42458	0.07147	-0.076
Mof_C 	C 	0.95687	0.44516	0.03827	-0.037
Mof_H 	H 	0.97043	0.42927	0.02787	0.045
Mof_C 	C 	0.77863	0.40387	0.11547	-0.004
Mof_C 	C 	0.81943	0.39147	0.99707	-0.017
Mof_O 	O 	0.03312	0.47807	0.41832	-0.4
Mof_O 	O 	0.05372	0.4882	0.54387	-0.41
Mof_C 	C 	0.05608	0.4783	0.4765	0.36
Mof_C 	C 	0.08875	0.4645	0.4557	-0.13
Mof_C 	C 	0.11487	0.46323	0.513	0.081
Mof_H 	H 	0.1128	0.4711	0.5632	0.021
Mof_C 	C 	0.14471	0.44987	0.4944	-0.171
Mof_H 	H 	0.1637	0.451	0.5322	0.106
Mof_C 	C 	0.14649	0.43564	0.4245	0.136
Mof_C 	C 	0.12041	0.43721	0.3666	-0.165
Mof_H 	H 	0.1222	0.4285	0.3169	0.094
Mof_C 	C 	0.0914	0.45189	0.3827	0.08
Mof_H 	H 	0.0741	0.453	0.3437	0.021
Mof_C 	C 	0.17397	0.41606	0.4048	-0.076
Mof_C 	C 	0.15495	0.37646	0.3716	-0.037
Mof_H 	H 	0.1255	0.3629	0.3612	0.045
Mof_C 	C 	0.2919	0.5547	0.4488	-0.004
Mof_C 	C 	0.2387	0.5139	0.3304	-0.017
Mof_O 	O 	0.69979	0.8114	0.75165	-0.4
Mof_O 	O 	0.72039	0.82153	0.8772	-0.41
Mof_C 	C 	0.72275	0.81163	0.80983	0.36
Mof_C 	C 	0.75542	0.79783	0.78903	-0.13
Mof_C 	C 	0.78154	0.79656	0.84633	0.081
Mof_H 	H 	0.77947	0.80443	0.89653	0.021
Mof_C 	C 	0.81138	0.7832	0.82773	-0.171
Mof_H 	H 	0.83037	0.78433	0.86553	0.106
Mof_C 	C 	0.81316	0.76897	0.75783	0.136
Mof_C 	C 	0.78708	0.77054	0.69993	-0.165
Mof_H 	H 	0.78887	0.76183	0.65023	0.094
Mof_C 	C 	0.75807	0.78522	0.71603	0.08
Mof_H 	H 	0.74077	0.78633	0.67703	0.021
Mof_C 	C 	0.84064	0.74939	0.73813	-0.076
Mof_C 	C 	0.82162	0.70979	0.70493	-0.037
Mof_H 	H 	0.79217	0.69623	0.69453	0.045
Mof_C 	C 	0.95857	0.88803	0.78213	-0.004
Mof_C 	C 	0.90537	0.84723	0.66373	-0.017
Mof_O 	O 	0.36645	0.14474	0.08499	-0.4
Mof_O 	O 	0.38705	0.15487	0.21054	-0.41
Mof_C 	C 	0.38941	0.14497	0.14317	0.36
Mof_C 	C 	0.42208	0.13117	0.12237	-0.13
Mof_C 	C 	0.4482	0.1299	0.17967	0.081
Mof_H 	H 	0.44613	0.13777	0.22987	0.021
Mof_C 	C 	0.47804	0.11654	0.16107	-0.171
Mof_H 	H 	0.49703	0.11767	0.19887	0.106
Mof_C 	C 	0.47982	0.10231	0.09117	0.136
Mof_C 	C 	0.45374	0.10388	0.03327	-0.165
Mof_H 	H 	0.45553	0.09517	0.98357	0.094
Mof_C 	C 	0.42473	0.11856	0.04937	0.08
Mof_H 	H 	0.40743	0.11967	0.01037	0.021
Mof_C 	C 	0.5073	0.08273	0.07147	-0.076
Mof_C 	C 	0.48828	0.04313	0.03827	-0.037
Mof_H 	H 	0.45883	0.02957	0.02787	0.045
Mof_C 	C 	0.62523	0.22137	0.11547	-0.004
Mof_C 	C 	0.57203	0.18057	0.99707	-0.017
Mof_O 	O 	0.44495	0.96688	0.41832	-0.4
Mof_O 	O 	0.43448	0.94628	0.54387	-0.41
Mof_C 	C 	0.42222	0.94392	0.4765	0.36
Mof_C 	C 	0.37575	0.91125	0.4557	-0.13
Mof_C 	C 	0.34836	0.88513	0.513	0.081
Mof_H 	H 	0.3583	0.8872	0.5632	0.021
Mof_C 	C 	0.30516	0.85529	0.4944	-0.171
Mof_H 	H 	0.2873	0.8363	0.5322	0.106
Mof_C 	C 	0.28915	0.85351	0.4245	0.136
Mof_C 	C 	0.3168	0.87959	0.3666	-0.166
Mof_H 	H 	0.3063	0.8778	0.3169	0.094
Mof_C 	C 	0.36049	0.9086	0.3827	0.08
Mof_H 	H 	0.3789	0.9259	0.3437	0.021
Mof_C 	C 	0.24209	0.82603	0.4048	-0.076
Mof_C 	C 	0.22151	0.84505	0.3716	-0.037
Mof_H 	H 	0.2374	0.8745	0.3612	0.045
Mof_C 	C 	0.2628	0.7081	0.4488	-0.004
Mof_C 	C 	0.2752	0.7613	0.3304	-0.017
Mof_O 	O 	0.11162	0.30021	0.75165	-0.4
Mof_O 	O 	0.10115	0.27961	0.8772	-0.41
Mof_C 	C 	0.08889	0.27725	0.80983	0.36
Mof_C 	C 	0.04242	0.24458	0.78903	-0.13
Mof_C 	C 	0.01503	0.21846	0.84633	0.081
Mof_H 	H 	0.02497	0.22053	0.89653	0.022
Mof_C 	C 	0.97183	0.18862	0.82773	-0.171
Mof_H 	H 	0.95397	0.16963	0.86553	0.106
Mof_C 	C 	0.95582	0.18684	0.75783	0.136
Mof_C 	C 	0.98347	0.21292	0.69993	-0.165
Mof_H 	H 	0.97297	0.21113	0.65023	0.094
Mof_C 	C 	0.02716	0.24193	0.71603	0.08
Mof_H 	H 	0.04557	0.25923	0.67703	0.021
Mof_C 	C 	0.90876	0.15936	0.73813	-0.076
Mof_C 	C 	0.88818	0.17838	0.70493	-0.037
Mof_H 	H 	0.90407	0.20783	0.69453	0.045
Mof_C 	C 	0.92947	0.04143	0.78213	-0.004
Mof_C 	C 	0.94187	0.09463	0.66373	-0.017
Mof_O 	O 	0.77828	0.63355	0.08499	-0.4
Mof_O 	O 	0.76781	0.61295	0.21054	-0.41
Mof_C 	C 	0.75555	0.61059	0.14317	0.36
Mof_C 	C 	0.70908	0.57792	0.12237	-0.13
Mof_C 	C 	0.68169	0.5518	0.17967	0.081
Mof_H 	H 	0.69163	0.55387	0.22987	0.021
Mof_C 	C 	0.63849	0.52196	0.16107	-0.171
Mof_H 	H 	0.62063	0.50297	0.19887	0.106
Mof_C 	C 	0.62248	0.52018	0.09117	0.136
Mof_C 	C 	0.65013	0.54626	0.03327	-0.165
Mof_H 	H 	0.63963	0.54447	0.98357	0.094
Mof_C 	C 	0.69382	0.57527	0.04937	0.08
Mof_H 	H 	0.71223	0.59257	0.01037	0.021
Mof_C 	C 	0.57542	0.4927	0.07147	-0.076
Mof_C 	C 	0.55484	0.51172	0.03827	-0.037
Mof_H 	H 	0.57073	0.54117	0.02787	0.045
Mof_C 	C 	0.59613	0.37477	0.11547	-0.004
Mof_C 	C 	0.60853	0.42797	0.99707	-0.017
Mof_Cu	Cu	0.49404	0.50596	0.57305	0.903
Mof_Cu	Cu	0.16071	0.83929	0.90638	0.903
Mof_Cu	Cu	0.82737	0.17263	0.23972	0.903
Mof_Cu	Cu	0.49404	0.98808	0.57305	0.903
Mof_Cu	Cu	0.16071	0.32141	0.90638	0.903
Mof_Cu	Cu	0.82737	0.65475	0.23972	0.903
Mof_Cu	Cu	0.01192	0.50596	0.57305	0.903
Mof_Cu	Cu	0.67859	0.83929	0.90638	0.903
Mof_Cu	Cu	0.34525	0.17263	0.23972	0.903
Mof_Cu	Cu	0.50596	0.49404	0.42695	0.903
Mof_Cu	Cu	0.17263	0.82737	0.76028	0.903
Mof_Cu	Cu	0.83929	0.16071	0.09362	0.903
Mof_Cu	Cu	0.98808	0.49404	0.42695	0.903
Mof_Cu	Cu	0.65475	0.82737	0.76028	0.903
Mof_Cu	Cu	0.32141	0.16071	0.09362	0.903
Mof_Cu	Cu	0.50596	0.01192	0.42695	0.903
Mof_Cu	Cu	0.17263	0.34525	0.76028	0.903
Mof_Cu	Cu	0.83929	0.67859	0.09362	0.903
Mof_O 	O 	0.2382	0.47641	0.4588	-0.221
Mof_C 	C 	0.17731	0.35463	0.3519	0.004
Mof_C 	C 	0.21844	0.43689	0.4234	0.146
Mof_C 	C 	0.25705	0.5141	0.4063	0.098
Mof_O 	O 	0.90487	0.80974	0.79213	-0.221
Mof_C 	C 	0.84398	0.68796	0.68523	0.004
Mof_C 	C 	0.88511	0.77022	0.75673	0.146
Mof_C 	C 	0.92372	0.84743	0.73963	0.098
Mof_O 	O 	0.57154	0.14308	0.12547	-0.221
Mof_C 	C 	0.51065	0.0213	0.01857	0.004
Mof_C 	C 	0.55178	0.10356	0.09007	0.146
Mof_C 	C 	0.59038	0.18077	0.07297	0.098
Mof_O 	O 	0.52359	0.7618	0.4588	-0.221
Mof_C 	C 	0.64537	0.82269	0.3519	0.004
Mof_C 	C 	0.56311	0.78156	0.4234	0.146
Mof_C 	C 	0.4859	0.74295	0.4063	0.098
Mof_O 	O 	0.19026	0.09513	0.79213	-0.221
Mof_C 	C 	0.31204	0.15602	0.68523	0.004
Mof_C 	C 	0.22978	0.11489	0.75673	0.146
Mof_C 	C 	0.15257	0.07628	0.73963	0.098
Mof_O 	O 	0.85692	0.42846	0.12547	-0.221
Mof_C 	C 	0.9787	0.48935	0.01857	0.004
Mof_C 	C 	0.89644	0.44822	0.09007	0.146
Mof_C 	C 	0.81923	0.40962	0.07297	0.098
Mof_O 	O 	0.2382	0.7618	0.4588	-0.221
Mof_C 	C 	0.17731	0.82269	0.3519	0.004
Mof_C 	C 	0.21844	0.78156	0.4234	0.146
Mof_C 	C 	0.25705	0.74295	0.4063	0.098
Mof_O 	O 	0.90487	0.09513	0.79213	-0.221
Mof_C 	C 	0.84398	0.15602	0.68523	0.004
Mof_C 	C 	0.88511	0.11489	0.75673	0.146
Mof_C 	C 	0.92372	0.07628	0.73963	0.098
Mof_O 	O 	0.57154	0.42846	0.12547	-0.221
Mof_C 	C 	0.51065	0.48935	0.01857	0.004
Mof_C 	C 	0.55178	0.44822	0.09007	0.146
Mof_C 	C 	0.59038	0.40962	0.07297	0.098
Mof_O 	O 	0.47641	0.2382	0.5412	-0.221
Mof_C 	C 	0.35463	0.17731	0.6481	0.004
Mof_C 	C 	0.43689	0.21844	0.5766	0.146
Mof_C 	C 	0.5141	0.25705	0.5937	0.098
Mof_O 	O 	0.14308	0.57154	0.87453	-0.221
Mof_C 	C 	0.0213	0.51065	0.98143	0.004
Mof_C 	C 	0.10356	0.55178	0.90993	0.146
Mof_C 	C 	0.18077	0.59038	0.92703	0.098
Mof_O 	O 	0.80974	0.90487	0.20787	-0.221
Mof_C 	C 	0.68796	0.84398	0.31477	0.004
Mof_C 	C 	0.77022	0.88511	0.24327	0.146
Mof_C 	C 	0.84743	0.92372	0.26037	0.098
Mof_O 	O 	0.7618	0.52359	0.5412	-0.221
Mof_C 	C 	0.82269	0.64537	0.6481	0.004
Mof_C 	C 	0.78156	0.56311	0.5766	0.146
Mof_C 	C 	0.74295	0.4859	0.5937	0.098
Mof_O 	O 	0.42846	0.85692	0.87453	-0.221
Mof_C 	C 	0.48935	0.9787	0.98143	0.004
Mof_C 	C 	0.44822	0.89644	0.90993	0.146
Mof_C 	C 	0.40962	0.81923	0.92703	0.098
Mof_O 	O 	0.09513	0.19026	0.20787	-0.221
Mof_C 	C 	0.15602	0.31204	0.31477	0.004
Mof_C 	C 	0.11489	0.22978	0.24327	0.146
Mof_C 	C 	0.07628	0.15257	0.26037	0.098
Mof_O 	O 	0.7618	0.2382	0.5412	-0.221
Mof_C 	C 	0.82269	0.17731	0.6481	0.004
Mof_C 	C 	0.78156	0.21844	0.5766	0.146
Mof_C 	C 	0.74295	0.25705	0.5937	0.098
Mof_O 	O 	0.42846	0.57154	0.87453	-0.221
Mof_C 	C 	0.48935	0.51065	0.98143	0.004
Mof_C 	C 	0.44822	0.55178	0.90993	0.146
Mof_C 	C 	0.40962	0.59038	0.92703	0.098
Mof_O 	O 	0.09513	0.90487	0.20787	-0.221
Mof_C 	C 	0.15602	0.84398	0.31477	0.004
Mof_C 	C 	0.11489	0.88511	0.24327	0.146
Mof_C 	C 	0.07628	0.92372	0.26037	0.098
_end
