data_functionalizedCrystal
_audit_creation_method	'EQeq! by Chris Wilmer'
_symmetry_space_group_name_H-M	'P1'
_symmetry_Int_Tables_number	1
_symmetry_cell_setting	triclinic
loop_
_symmetry_equiv_pos_as_xyz
  x,y,z
_cell_length_a	7.6333
_cell_length_b	24.1332
_cell_length_c	30.5291
_cell_angle_alpha	90
_cell_angle_beta	93.505
_cell_angle_gamma	90
loop_
_atom_site_label
_atom_site_type_symbol
_atom_site_fract_x
_atom_site_fract_y
_atom_site_fract_z
_atom_site_charge
Mof_O 	O 	0.5389	0.91441	0.19453	-0.479
Mof_O 	O 	0.7564	0.87886	0.23327	-0.519
Mof_O 	O 	0.0902	0.2708	0.2045	-0.516
Mof_O 	O 	0.8353	0.3085	0.19777	-0.546
Mof_N 	N 	0.2811	0.94956	0.00132	-0.341
Mof_N 	N 	0.445	0.03346	0.06024	-0.344
Mof_C 	C 	0.9408	0.2723	0.1875	0.517
Mof_C 	C 	0.7595	0.1464	0.0965	0.224
Mof_C 	C 	0.9881	0.1831	0.1462	0.305
Mof_H 	H 	0.1003	0.1794	0.1604	-0.102
Mof_C 	C 	0.8854	0.2301	0.1541	-0.268
Mof_C 	C 	0.3102	0.016	0.08561	0.001
Mof_C 	C 	0.7257	0.2345	0.1321	0.188
Mof_H 	H 	0.6566	0.2659	0.1368	-0.016
Mof_C 	C 	0.924	0.1422	0.1177	-0.318
Mof_H 	H 	0.9937	0.111	0.1127	0.152
Mof_C 	C 	0.5371	0.0741	0.08213	0.121
Mof_C 	C 	0.8247	0.929	0.16951	0.069
Mof_C 	C 	0.0616	0.9611	0.10877	-0.068
Mof_C 	C 	0.1733	0.9445	0.03609	0.113
Mof_C 	C 	0.8851	0.9739	0.10216	0.069
Mof_H 	H 	0.8448	0.9931	0.0767	-0
Mof_C 	C 	0.0032	0.9169	0.17663	-0.153
Mof_H 	H 	0.0442	0.8976	0.202	0.103
Mof_C 	C 	0.7672	0.9584	0.13293	-0.112
Mof_H 	H 	0.6481	0.968	0.1286	0.082
Mof_C 	C 	0.6866	0.1017	0.06771	-0.215
Mof_C 	C 	0.6612	0.1942	0.1032	-0.266
Mof_H 	H 	0.5513	0.199	0.0881	0.109
Mof_C 	C 	0.4607	0.0831	0.12355	-0.128
Mof_H 	H 	0.4986	0.1087	0.1453	0.074
Mof_C 	C 	0.1881	0.9753	0.07453	-0.063
Mof_C 	C 	0.2327	0.9092	0.97168	0.083
Mof_C 	C 	0.3238	0.0475	0.12507	-0.038
Mof_H 	H 	0.2496	0.0443	0.1484	0.02
Mof_C 	C 	0.0847	0.8791	0.9867	0.04
Mof_H 	H 	0.0241	0.8499	0.972	0.001
Mof_C 	C 	0.0506	0.9008	0.0257	-0.279
Mof_H 	H 	0.9608	0.8892	0.0434	0.148
Mof_C 	C 	0.1192	0.9335	0.14602	0.017
Mof_H 	H 	0.2394	0.9257	0.1509	0.038
Mof_C 	C 	0.6973	0.9074	0.20137	0.302
Mof_O 	O 	0.0389	0.41441	0.19453	-0.521
Mof_O 	O 	0.2564	0.37886	0.23327	-0.536
Mof_O 	O 	0.5902	0.7708	0.2045	-0.446
Mof_O 	O 	0.3353	0.8085	0.19777	-0.563
Mof_N 	N 	0.7811	0.44956	0.00132	-0.346
Mof_N 	N 	0.945	0.53346	0.06024	-0.277
Mof_C 	C 	0.4408	0.7723	0.1875	0.382
Mof_C 	C 	0.2595	0.6464	0.0965	0.101
Mof_C 	C 	0.4881	0.6831	0.1462	0.062
Mof_H 	H 	0.6003	0.6794	0.1604	0.029
Mof_C 	C 	0.3854	0.7301	0.1541	-0.133
Mof_C 	C 	0.8102	0.516	0.08561	0.137
Mof_C 	C 	0.2257	0.7345	0.1321	0.065
Mof_H 	H 	0.1566	0.7659	0.1368	0.015
Mof_C 	C 	0.424	0.6422	0.1177	-0.155
Mof_H 	H 	0.4937	0.611	0.1127	0.084
Mof_C 	C 	0.0371	0.5741	0.08213	-0.04
Mof_C 	C 	0.3247	0.429	0.16951	-0.138
Mof_C 	C 	0.5616	0.4611	0.10877	0.138
Mof_C 	C 	0.6733	0.4445	0.03609	0.117
Mof_C 	C 	0.3851	0.4739	0.10216	-0.175
Mof_H 	H 	0.3448	0.4931	0.0767	0.051
Mof_C 	C 	0.5032	0.4169	0.17663	0.082
Mof_H 	H 	0.5442	0.3976	0.202	0.041
Mof_C 	C 	0.2672	0.4584	0.13293	0.066
Mof_H 	H 	0.1481	0.468	0.1286	-0.012
Mof_C 	C 	0.1866	0.6017	0.06771	-0.116
Mof_C 	C 	0.1612	0.6942	0.1032	-0.16
Mof_H 	H 	0.0513	0.699	0.0881	0.061
Mof_C 	C 	0.9607	0.5831	0.12355	0.064
Mof_H 	H 	0.9986	0.6087	0.1453	0.041
Mof_C 	C 	0.6881	0.4753	0.07453	-0.176
Mof_C 	C 	0.7327	0.4092	0.97168	0.145
Mof_C 	C 	0.8238	0.5475	0.12507	-0.141
Mof_H 	H 	0.7496	0.5443	0.1484	0.089
Mof_C 	C 	0.5847	0.3791	0.9867	-0.049
Mof_H 	H 	0.5241	0.3499	0.972	0.042
Mof_C 	C 	0.5506	0.4008	0.0257	-0.142
Mof_H 	H 	0.4608	0.3892	0.0434	0.051
Mof_C 	C 	0.6192	0.4335	0.14602	-0.179
Mof_H 	H 	0.7394	0.4257	0.1509	0.117
Mof_C 	C 	0.1973	0.4074	0.20137	0.364
Mof_O 	O 	0.4611	0.91441	0.30547	-0.514
Mof_O 	O 	0.2436	0.87886	0.26673	-0.581
Mof_O 	O 	0.9098	0.2708	0.2955	-0.353
Mof_O 	O 	0.1647	0.3085	0.30223	-0.509
Mof_N 	N 	0.7189	0.94956	0.49868	-0.332
Mof_N 	N 	0.555	0.03346	0.43976	-0.344
Mof_C 	C 	0.0592	0.2723	0.3125	0.25
Mof_C 	C 	0.2405	0.1464	0.4035	0.053
Mof_C 	C 	0.0119	0.1831	0.3538	-0.148
Mof_H 	H 	0.8997	0.1794	0.3396	0.133
Mof_C 	C 	0.1146	0.2301	0.3459	-0.023
Mof_C 	C 	0.6898	0.016	0.41439	0.046
Mof_C 	C 	0.2743	0.2345	0.3679	-0.016
Mof_H 	H 	0.3434	0.2659	0.3632	0.054
Mof_C 	C 	0.076	0.1422	0.3823	-0.042
Mof_H 	H 	0.0063	0.111	0.3873	0.018
Mof_C 	C 	0.4629	0.0741	0.41787	0.093
Mof_C 	C 	0.1753	0.929	0.33049	-0.27
Mof_C 	C 	0.9384	0.9611	0.39123	0.264
Mof_C 	C 	0.8267	0.9445	0.46391	0.054
Mof_C 	C 	0.1149	0.9739	0.39784	-0.324
Mof_H 	H 	0.1552	0.9931	0.4233	0.111
Mof_C 	C 	0.9968	0.9169	0.32337	0.252
Mof_H 	H 	0.9558	0.8976	0.298	-0.003
Mof_C 	C 	0.2328	0.9584	0.36707	0.19
Mof_H 	H 	0.3519	0.968	0.3714	-0.025
Mof_C 	C 	0.3134	0.1017	0.43229	-0.135
Mof_C 	C 	0.3388	0.1942	0.3968	-0.094
Mof_H 	H 	0.4487	0.199	0.4119	0.064
Mof_C 	C 	0.5393	0.0831	0.37645	-0.089
Mof_H 	H 	0.5014	0.1087	0.3547	0.063
Mof_C 	C 	0.8119	0.9753	0.42547	-0.113
Mof_C 	C 	0.7673	0.9092	0.52832	0.154
Mof_C 	C 	0.6762	0.0475	0.37493	-0.059
Mof_H 	H 	0.7504	0.0443	0.3516	0.048
Mof_C 	C 	0.9153	0.8791	0.5133	-0.184
Mof_H 	H 	0.9759	0.8499	0.528	0.101
Mof_C 	C 	0.9494	0.9008	0.4743	0.085
Mof_H 	H 	0.0392	0.8892	0.4566	-0.061
Mof_C 	C 	0.8808	0.9335	0.35398	-0.282
Mof_H 	H 	0.7606	0.9257	0.3491	0.143
Mof_C 	C 	0.3027	0.9074	0.29863	0.41
Mof_O 	O 	0.9611	0.41441	0.30547	-0.438
Mof_O 	O 	0.7436	0.37886	0.26673	-0.507
Mof_O 	O 	0.4098	0.7708	0.2955	-0.466
Mof_O 	O 	0.6647	0.8085	0.30223	-0.556
Mof_N 	N 	0.2189	0.44956	0.49868	-0.344
Mof_N 	N 	0.055	0.53346	0.43976	-0.394
Mof_C 	C 	0.5592	0.7723	0.3125	0.397
Mof_C 	C 	0.7405	0.6464	0.4035	0.18
Mof_C 	C 	0.5119	0.6831	0.3538	0.102
Mof_H 	H 	0.3997	0.6794	0.3396	0.003
Mof_C 	C 	0.6146	0.7301	0.3459	-0.162
Mof_C 	C 	0.1898	0.516	0.41439	0.07
Mof_C 	C 	0.7743	0.7345	0.3679	0.112
Mof_H 	H 	0.8434	0.7659	0.3632	0.021
Mof_C 	C 	0.576	0.6422	0.3823	-0.206
Mof_H 	H 	0.5063	0.611	0.3873	0.099
Mof_C 	C 	0.9629	0.5741	0.41787	0.258
Mof_C 	C 	0.6753	0.429	0.33049	-0.091
Mof_C 	C 	0.4384	0.4611	0.39123	0.097
Mof_C 	C 	0.3267	0.4445	0.46391	0.089
Mof_C 	C 	0.6149	0.4739	0.39784	-0.128
Mof_H 	H 	0.6552	0.4931	0.4233	0.046
Mof_C 	C 	0.4968	0.4169	0.32337	0.039
Mof_H 	H 	0.4558	0.3976	0.298	0.05
Mof_C 	C 	0.7328	0.4584	0.36707	0.031
Mof_H 	H 	0.8519	0.468	0.3714	0.037
Mof_C 	C 	0.8134	0.6017	0.43229	-0.219
Mof_C 	C 	0.8388	0.6942	0.3968	-0.201
Mof_H 	H 	0.9487	0.699	0.4119	0.113
Mof_C 	C 	0.0393	0.5831	0.37645	-0.235
Mof_H 	H 	0.0014	0.6087	0.3547	0.09
Mof_C 	C 	0.3119	0.4753	0.42547	-0.149
Mof_C 	C 	0.2673	0.4092	0.52832	0.079
Mof_C 	C 	0.1762	0.5475	0.37493	-0.02
Mof_H 	H 	0.2504	0.5443	0.3516	0.033
Mof_C 	C 	0.4153	0.3791	0.5133	-0.081
Mof_H 	H 	0.4759	0.3499	0.528	0.055
Mof_C 	C 	0.4494	0.4008	0.4743	-0.087
Mof_H 	H 	0.5392	0.3892	0.4566	0.048
Mof_C 	C 	0.3808	0.4335	0.35398	-0.135
Mof_H 	H 	0.2606	0.4257	0.3491	0.074
Mof_C 	C 	0.8027	0.4074	0.29863	0.343
Mof_O 	O 	0.4611	0.08559	0.80547	-0.528
Mof_O 	O 	0.2436	0.12114	0.76673	-0.585
Mof_O 	O 	0.9098	0.7292	0.7955	-0.351
Mof_O 	O 	0.1647	0.6915	0.80223	-0.508
Mof_N 	N 	0.7189	0.05044	0.99868	-0.33
Mof_N 	N 	0.555	0.96654	0.93976	-0.325
Mof_C 	C 	0.0592	0.7277	0.8125	0.252
Mof_C 	C 	0.2405	0.8536	0.9035	0.056
Mof_C 	C 	0.0119	0.8169	0.8538	-0.143
Mof_H 	H 	0.8997	0.8206	0.8396	0.135
Mof_C 	C 	0.1146	0.7699	0.8459	-0.021
Mof_C 	C 	0.6898	0.984	0.91439	0.201
Mof_C 	C 	0.2743	0.7655	0.8679	-0.013
Mof_H 	H 	0.3434	0.7341	0.8632	0.055
Mof_C 	C 	0.076	0.8578	0.8823	-0.039
Mof_H 	H 	0.0063	0.889	0.8873	0.031
Mof_C 	C 	0.4629	0.9259	0.91787	0.099
Mof_C 	C 	0.1753	0.071	0.83049	-0.296
Mof_C 	C 	0.9384	0.0389	0.89123	0.298
Mof_C 	C 	0.8267	0.0555	0.96391	0.078
Mof_C 	C 	0.1149	0.0261	0.89784	-0.367
Mof_H 	H 	0.1552	0.0069	0.9233	0.099
Mof_C 	C 	0.9968	0.0831	0.82337	0.271
Mof_H 	H 	0.9558	0.1024	0.798	-0.013
Mof_C 	C 	0.2328	0.0416	0.86707	0.208
Mof_H 	H 	0.3519	0.032	0.8714	-0.055
Mof_C 	C 	0.3134	0.8983	0.93229	-0.12
Mof_C 	C 	0.3388	0.8058	0.8968	-0.093
Mof_H 	H 	0.4487	0.801	0.9119	0.067
Mof_C 	C 	0.5393	0.9169	0.87645	-0.045
Mof_H 	H 	0.5014	0.8913	0.8547	0.057
Mof_C 	C 	0.8119	0.0247	0.92547	-0.25
Mof_C 	C 	0.7673	0.0908	0.02832	0.13
Mof_C 	C 	0.6762	0.9525	0.87493	-0.12
Mof_H 	H 	0.7504	0.9557	0.8516	0.1
Mof_C 	C 	0.9153	0.1209	0.0133	-0.227
Mof_H 	H 	0.9759	0.1501	0.028	0.108
Mof_C 	C 	0.9494	0.0992	0.9743	0.112
Mof_H 	H 	0.0392	0.1108	0.9566	-0.064
Mof_C 	C 	0.8808	0.0665	0.85398	-0.326
Mof_H 	H 	0.7606	0.0743	0.8491	0.148
Mof_C 	C 	0.3027	0.0926	0.79863	0.413
Mof_O 	O 	0.9611	0.58559	0.80547	-0.438
Mof_O 	O 	0.7436	0.62114	0.76673	-0.507
Mof_O 	O 	0.4098	0.2292	0.7955	-0.464
Mof_O 	O 	0.6647	0.1915	0.80223	-0.554
Mof_N 	N 	0.2189	0.55044	0.99868	-0.312
Mof_N 	N 	0.055	0.46654	0.93976	-0.378
Mof_C 	C 	0.5592	0.2277	0.8125	0.397
Mof_C 	C 	0.7405	0.3536	0.9035	0.18
Mof_C 	C 	0.5119	0.3169	0.8538	0.102
Mof_H 	H 	0.3997	0.3206	0.8396	0.004
Mof_C 	C 	0.6146	0.2699	0.8459	-0.161
Mof_C 	C 	0.1898	0.484	0.91439	0.069
Mof_C 	C 	0.7743	0.2655	0.8679	0.113
Mof_H 	H 	0.8434	0.2341	0.8632	0.022
Mof_C 	C 	0.576	0.3578	0.8823	-0.204
Mof_H 	H 	0.5063	0.389	0.8873	0.099
Mof_C 	C 	0.9629	0.4259	0.91787	0.26
Mof_C 	C 	0.6753	0.571	0.83049	-0.09
Mof_C 	C 	0.4384	0.5389	0.89123	0.094
Mof_C 	C 	0.3267	0.5555	0.96391	0.077
Mof_C 	C 	0.6149	0.5261	0.89784	-0.126
Mof_H 	H 	0.6552	0.5069	0.9233	0.051
Mof_C 	C 	0.4968	0.5831	0.82337	0.039
Mof_H 	H 	0.4558	0.6024	0.798	0.051
Mof_C 	C 	0.7328	0.5416	0.86707	0.032
Mof_H 	H 	0.8519	0.532	0.8714	0.039
Mof_C 	C 	0.8134	0.3983	0.93229	-0.216
Mof_C 	C 	0.8388	0.3058	0.8968	-0.2
Mof_H 	H 	0.9487	0.301	0.9119	0.116
Mof_C 	C 	0.0393	0.4169	0.87645	-0.234
Mof_H 	H 	0.0014	0.3913	0.8547	0.09
Mof_C 	C 	0.3119	0.5247	0.92547	-0.137
Mof_C 	C 	0.2673	0.5908	0.02832	0.069
Mof_C 	C 	0.1762	0.4525	0.87493	-0.018
Mof_H 	H 	0.2504	0.4557	0.8516	0.033
Mof_C 	C 	0.4153	0.6209	0.0133	-0.136
Mof_H 	H 	0.4759	0.6501	0.028	0.068
Mof_C 	C 	0.4494	0.5992	0.9743	-0.024
Mof_H 	H 	0.5392	0.6108	0.9566	0.034
Mof_C 	C 	0.3808	0.5665	0.85398	-0.133
Mof_H 	H 	0.2606	0.5743	0.8491	0.074
Mof_C 	C 	0.8027	0.5926	0.79863	0.343
Mof_O 	O 	0.5389	0.08559	0.69453	-0.494
Mof_O 	O 	0.7564	0.12114	0.73327	-0.524
Mof_O 	O 	0.0902	0.7292	0.7045	-0.515
Mof_O 	O 	0.8353	0.6915	0.69777	-0.546
Mof_N 	N 	0.2811	0.05044	0.50132	-0.362
Mof_N 	N 	0.445	0.96654	0.56024	-0.347
Mof_C 	C 	0.9408	0.7277	0.6875	0.518
Mof_C 	C 	0.7595	0.8536	0.5965	0.229
Mof_C 	C 	0.9881	0.8169	0.6462	0.31
Mof_H 	H 	0.1003	0.8206	0.6604	-0.099
Mof_C 	C 	0.8854	0.7699	0.6541	-0.267
Mof_C 	C 	0.3102	0.984	0.58561	0.157
Mof_C 	C 	0.7257	0.7655	0.6321	0.192
Mof_H 	H 	0.6566	0.7341	0.6368	-0.015
Mof_C 	C 	0.924	0.8578	0.6177	-0.316
Mof_H 	H 	0.9937	0.889	0.6127	0.163
Mof_C 	C 	0.5371	0.9259	0.58213	0.127
Mof_C 	C 	0.8247	0.071	0.66951	0.04
Mof_C 	C 	0.0616	0.0389	0.60877	-0.032
Mof_C 	C 	0.1733	0.0555	0.53609	0.137
Mof_C 	C 	0.8851	0.0261	0.60216	0.024
Mof_H 	H 	0.8448	0.0069	0.5767	-0.017
Mof_C 	C 	0.0032	0.0831	0.67663	-0.132
Mof_H 	H 	0.0442	0.1024	0.702	0.092
Mof_C 	C 	0.7672	0.0416	0.63293	-0.093
Mof_H 	H 	0.6481	0.032	0.6286	0.049
Mof_C 	C 	0.6866	0.8983	0.56771	-0.205
Mof_C 	C 	0.6612	0.8058	0.6032	-0.266
Mof_H 	H 	0.5513	0.801	0.5881	0.112
Mof_C 	C 	0.4607	0.9169	0.62355	-0.083
Mof_H 	H 	0.4986	0.8913	0.6453	0.068
Mof_C 	C 	0.1881	0.0247	0.57453	-0.207
Mof_C 	C 	0.2327	0.0908	0.47168	0.06
Mof_C 	C 	0.3238	0.9525	0.62507	-0.099
Mof_H 	H 	0.2496	0.9557	0.6484	0.072
Mof_C 	C 	0.0847	0.1209	0.4867	-0.005
Mof_H 	H 	0.0241	0.1501	0.472	0.008
Mof_C 	C 	0.0506	0.0992	0.5257	-0.252
Mof_H 	H 	0.9608	0.1108	0.5434	0.142
Mof_C 	C 	0.1192	0.0665	0.64602	-0.029
Mof_H 	H 	0.2394	0.0743	0.6509	0.044
Mof_C 	C 	0.6973	0.0926	0.70137	0.305
Mof_O 	O 	0.0389	0.58559	0.69453	-0.521
Mof_O 	O 	0.2564	0.62114	0.73327	-0.536
Mof_O 	O 	0.5902	0.2292	0.7045	-0.444
Mof_O 	O 	0.3353	0.1915	0.69777	-0.562
Mof_N 	N 	0.7811	0.55044	0.50132	-0.336
Mof_N 	N 	0.945	0.46654	0.56024	-0.283
Mof_C 	C 	0.4408	0.2277	0.6875	0.382
Mof_C 	C 	0.2595	0.3536	0.5965	0.102
Mof_C 	C 	0.4881	0.3169	0.6462	0.063
Mof_H 	H 	0.6003	0.3206	0.6604	0.029
Mof_C 	C 	0.3854	0.2699	0.6541	-0.133
Mof_C 	C 	0.8102	0.484	0.58561	0.134
Mof_C 	C 	0.2257	0.2655	0.6321	0.067
Mof_H 	H 	0.1566	0.2341	0.6368	0.016
Mof_C 	C 	0.424	0.3578	0.6177	-0.155
Mof_H 	H 	0.4937	0.389	0.6127	0.084
Mof_C 	C 	0.0371	0.4259	0.58213	-0.037
Mof_C 	C 	0.3247	0.571	0.66951	-0.137
Mof_C 	C 	0.5616	0.5389	0.60877	0.135
Mof_C 	C 	0.6733	0.5555	0.53609	0.103
Mof_C 	C 	0.3851	0.5261	0.60216	-0.172
Mof_H 	H 	0.3448	0.5069	0.5767	0.051
Mof_C 	C 	0.5032	0.5831	0.67663	0.08
Mof_H 	H 	0.5442	0.6024	0.702	0.042
Mof_C 	C 	0.2672	0.5416	0.63293	0.065
Mof_H 	H 	0.1481	0.532	0.6286	-0.012
Mof_C 	C 	0.1866	0.3983	0.56771	-0.118
Mof_C 	C 	0.1612	0.3058	0.6032	-0.16
Mof_H 	H 	0.0513	0.301	0.5881	0.064
Mof_C 	C 	0.9607	0.4169	0.62355	0.063
Mof_H 	H 	0.9986	0.3913	0.6453	0.042
Mof_C 	C 	0.6881	0.5247	0.57453	-0.169
Mof_C 	C 	0.7327	0.5908	0.47168	0.135
Mof_C 	C 	0.8238	0.4525	0.62507	-0.139
Mof_H 	H 	0.7496	0.4557	0.6484	0.088
Mof_C 	C 	0.5847	0.6209	0.4867	-0.107
Mof_H 	H 	0.5241	0.6501	0.472	0.054
Mof_C 	C 	0.5506	0.5992	0.5257	-0.079
Mof_H 	H 	0.4608	0.6108	0.5434	0.034
Mof_C 	C 	0.6192	0.5665	0.64602	-0.176
Mof_H 	H 	0.7394	0.5743	0.6509	0.116
Mof_C 	C 	0.1973	0.5926	0.70137	0.364
Mof_In	In	0.5	0.84883	0.25	2.521
Mof_In	In	3.97809e-33	0.34883	0.25	2.304
Mof_In	In	0.5	0.15117	0.75	2.515
Mof_In	In	1.19343e-32	0.65117	0.75	2.306
Mof_In	In	0.5	0	-0	1.479
Mof_In	In	-0	0.5	-0	1.432
Mof_In	In	0.5	0	0.5	1.556
Mof_In	In	7.95617e-33	0.5	0.5	1.507
_end
