# CIF file generated by openbabel 3.1.0, see https://openbabel.org
data_I
_chemical_name_common 'image0'
_cell_length_a 26.4422
_cell_length_b 26.4422
_cell_length_c 18.9703
_cell_angle_alpha 90
_cell_angle_beta 90
_cell_angle_gamma 120
_space_group_name_H-M_alt 'P 1'
_space_group_name_Hall 'P 1'
loop_
    _symmetry_equiv_pos_as_xyz
    x,y,z
loop_
    _atom_site_label
    _atom_site_type_symbol
    _atom_site_fract_x
    _atom_site_fract_y
    _atom_site_fract_z
    _atom_site_occupancy
    Zn1      Zn       0.10599    0.43877    0.40927    1.000
    N1       N        0.03950    0.37670    0.46480    1.000
    C1       C        0.01280    0.31290    0.46550    1.000
    H1       H        0.01260    0.28780    0.43100    1.000
    C2       C        0.03910    0.33000    0.49110    1.000
    H2       H        0.06820    0.32060    0.49790    1.000
    N2       N        0.17470    0.43480    0.44380    1.000
    C3       C        0.17940    0.41030    0.50830    1.000
    H3       H        0.15200    0.39660    0.54450    1.000
    C4       C        0.19290    0.43690    0.51370    1.000
    H4       H        0.17310    0.43800    0.55360    1.000
    C5       C        0.14810    0.41460    0.56800    1.000
    N3       N        0.11780    0.42700    0.61890    1.000
    N4       N        0.11610    0.51510    0.43980    1.000
    C6       C        0.16780    0.55600    0.46780    1.000
    H5       H        0.19760    0.55000    0.48400    1.000
    C7       C        0.11210    0.53040    0.51180    1.000
    H6       H        0.10990    0.50870    0.55150    1.000
    O1       O        0.01360    0.54870    0.36820    1.000
    N5       N        0.08350    0.41500    0.30890    1.000
    C8       C        0.03390    0.37000    0.28700    1.000
    H7       H        0.00410    0.34300    0.31570    1.000
    O2       O        0.18606    0.51473    0.30720    1.000
    Zn2      Zn       0.56123    0.66722    0.40927    1.000
    N6       N        0.62330    0.66280    0.46480    1.000
    C9       C        0.68710    0.69990    0.46550    1.000
    H8       H        0.71220    0.72480    0.43100    1.000
    C10      C        0.67000    0.70910    0.49110    1.000
    H9       H        0.67940    0.74760    0.49790    1.000
    N7       N        0.56520    0.73990    0.44380    1.000
    C11      C        0.58970    0.76910    0.50830    1.000
    H10      H        0.60340    0.75540    0.54450    1.000
    C12      C        0.56310    0.75600    0.51370    1.000
    H11      H        0.56200    0.73510    0.55360    1.000
    C13      C        0.58540    0.73350    0.56800    1.000
    N8       N        0.57300    0.69080    0.61890    1.000
    N9       N        0.48490    0.60100    0.43980    1.000
    C14      C        0.44400    0.61180    0.46780    1.000
    H12      H        0.45000    0.64760    0.48400    1.000
    C15      C        0.46960    0.58170    0.51180    1.000
    H13      H        0.49130    0.60120    0.55150    1.000
    O3       O        0.45130    0.46490    0.36820    1.000
    N10      N        0.58500    0.66850    0.30890    1.000
    C16      C        0.63000    0.66390    0.28700    1.000
    H14      H        0.65700    0.66110    0.31570    1.000
    O4       O        0.48527    0.67133    0.30720    1.000
    Zn3      Zn       0.33278    0.89401    0.40927    1.000
    N11      N        0.33720    0.96050    0.46480    1.000
    C17      C        0.30010    0.98720    0.46550    1.000
    H15      H        0.27520    0.98740    0.43100    1.000
    C18      C        0.29090    0.96090    0.49110    1.000
    H16      H        0.25240    0.93180    0.49790    1.000
    N12      N        0.26010    0.82530    0.44380    1.000
    C19      C        0.23090    0.82060    0.50830    1.000
    H17      H        0.24460    0.84800    0.54450    1.000
    C20      C        0.24400    0.80710    0.51370    1.000
    H18      H        0.26490    0.82690    0.55360    1.000
    C21      C        0.26650    0.85190    0.56800    1.000
    N13      N        0.30920    0.88220    0.61890    1.000
    N14      N        0.39900    0.88390    0.43980    1.000
    C22      C        0.38820    0.83220    0.46780    1.000
    H19      H        0.35240    0.80240    0.48400    1.000
    C23      C        0.41830    0.88790    0.51180    1.000
    H20      H        0.39880    0.89010    0.55150    1.000
    O5       O        0.53510    0.98640    0.36820    1.000
    N15      N        0.33150    0.91650    0.30890    1.000
    C24      C        0.33610    0.96610    0.28700    1.000
    H21      H        0.33890    0.99590    0.31570    1.000
    O6       O        0.32867    0.81394    0.30720    1.000
    Zn4      Zn       0.89401    0.56123    0.90927    1.000
    N16      N        0.96050    0.62330    0.96480    1.000
    C25      C        0.98720    0.68710    0.96550    1.000
    H22      H        0.98740    0.71220    0.93100    1.000
    C26      C        0.96090    0.67000    0.99110    1.000
    H23      H        0.93180    0.67940    0.99790    1.000
    N17      N        0.82530    0.56520    0.94380    1.000
    C27      C        0.82060    0.58970    0.00830    1.000
    H24      H        0.84800    0.60340    0.04450    1.000
    C28      C        0.80710    0.56310    0.01370    1.000
    H25      H        0.82690    0.56200    0.05360    1.000
    C29      C        0.85190    0.58540    0.06800    1.000
    N18      N        0.88220    0.57300    0.11890    1.000
    N19      N        0.88390    0.48490    0.93980    1.000
    C30      C        0.83220    0.44400    0.96780    1.000
    H26      H        0.80240    0.45000    0.98400    1.000
    C31      C        0.88790    0.46960    0.01180    1.000
    H27      H        0.89010    0.49130    0.05150    1.000
    O7       O        0.98640    0.45130    0.86820    1.000
    N20      N        0.91650    0.58500    0.80890    1.000
    C32      C        0.96610    0.63000    0.78700    1.000
    H28      H        0.99590    0.65700    0.81570    1.000
    O8       O        0.81394    0.48527    0.80720    1.000
    Zn5      Zn       0.43877    0.33278    0.90927    1.000
    N21      N        0.37670    0.33720    0.96480    1.000
    C33      C        0.31290    0.30010    0.96550    1.000
    H29      H        0.28780    0.27520    0.93100    1.000
    C34      C        0.33000    0.29090    0.99110    1.000
    H30      H        0.32060    0.25240    0.99790    1.000
    N22      N        0.43480    0.26010    0.94380    1.000
    C35      C        0.41030    0.23090    0.00830    1.000
    H31      H        0.39660    0.24460    0.04450    1.000
    C36      C        0.43690    0.24400    0.01370    1.000
    H32      H        0.43800    0.26490    0.05360    1.000
    C37      C        0.41460    0.26650    0.06800    1.000
    N23      N        0.42700    0.30920    0.11890    1.000
    N24      N        0.51510    0.39900    0.93980    1.000
    C38      C        0.55600    0.38820    0.96780    1.000
    H33      H        0.55000    0.35240    0.98400    1.000
    C39      C        0.53040    0.41830    0.01180    1.000
    H34      H        0.50870    0.39880    0.05150    1.000
    O9       O        0.54870    0.53510    0.86820    1.000
    N25      N        0.41500    0.33150    0.80890    1.000
    C40      C        0.37000    0.33610    0.78700    1.000
    H35      H        0.34300    0.33890    0.81570    1.000
    O10      O        0.51473    0.32867    0.80720    1.000
    Zn6      Zn       0.66722    0.10599    0.90927    1.000
    N26      N        0.66280    0.03950    0.96480    1.000
    C41      C        0.69990    0.01280    0.96550    1.000
    H36      H        0.72480    0.01260    0.93100    1.000
    C42      C        0.70910    0.03910    0.99110    1.000
    H37      H        0.74760    0.06820    0.99790    1.000
    N27      N        0.73990    0.17470    0.94380    1.000
    C43      C        0.76910    0.17940    0.00830    1.000
    H38      H        0.75540    0.15200    0.04450    1.000
    C44      C        0.75600    0.19290    0.01370    1.000
    H39      H        0.73510    0.17310    0.05360    1.000
    C45      C        0.73350    0.14810    0.06800    1.000
    N28      N        0.69080    0.11780    0.11890    1.000
    N29      N        0.60100    0.11610    0.93980    1.000
    C46      C        0.61180    0.16780    0.96780    1.000
    H40      H        0.64760    0.19760    0.98400    1.000
    C47      C        0.58170    0.11210    0.01180    1.000
    H41      H        0.60120    0.10990    0.05150    1.000
    O11      O        0.46490    0.01360    0.86820    1.000
    N30      N        0.66850    0.08350    0.80890    1.000
    C48      C        0.66390    0.03390    0.78700    1.000
    H42      H        0.66110    0.00410    0.81570    1.000
    O12      O        0.67133    0.18606    0.80720    1.000
    Zn7      Zn       0.43877    0.10599    0.59073    1.000
    N31      N        0.37670    0.03950    0.53520    1.000
    C49      C        0.31290    0.01280    0.53450    1.000
    H43      H        0.28780    0.01260    0.56900    1.000
    C50      C        0.33000    0.03910    0.50890    1.000
    H44      H        0.32060    0.06820    0.50210    1.000
    N32      N        0.43480    0.17470    0.55620    1.000
    C51      C        0.41030    0.17940    0.49170    1.000
    H45      H        0.39660    0.15200    0.45550    1.000
    C52      C        0.43690    0.19290    0.48630    1.000
    H46      H        0.43800    0.17310    0.44640    1.000
    C53      C        0.41460    0.14810    0.43200    1.000
    N33      N        0.42700    0.11780    0.38110    1.000
    N34      N        0.51510    0.11610    0.56020    1.000
    C54      C        0.55600    0.16780    0.53220    1.000
    H47      H        0.55000    0.19760    0.51600    1.000
    C55      C        0.53040    0.11210    0.48820    1.000
    H48      H        0.50870    0.10990    0.44850    1.000
    O13      O        0.54870    0.01360    0.63180    1.000
    N35      N        0.41500    0.08350    0.69110    1.000
    C56      C        0.37000    0.03390    0.71300    1.000
    H49      H        0.34300    0.00410    0.68430    1.000
    O14      O        0.51473    0.18606    0.69280    1.000
    Zn8      Zn       0.66722    0.56123    0.59073    1.000
    N36      N        0.66280    0.62330    0.53520    1.000
    C57      C        0.69990    0.68710    0.53450    1.000
    H50      H        0.72480    0.71220    0.56900    1.000
    C58      C        0.70910    0.67000    0.50890    1.000
    H51      H        0.74760    0.67940    0.50210    1.000
    N37      N        0.73990    0.56520    0.55620    1.000
    C59      C        0.76910    0.58970    0.49170    1.000
    H52      H        0.75540    0.60340    0.45550    1.000
    C60      C        0.75600    0.56310    0.48630    1.000
    H53      H        0.73510    0.56200    0.44640    1.000
    C61      C        0.73350    0.58540    0.43200    1.000
    N38      N        0.69080    0.57300    0.38110    1.000
    N39      N        0.60100    0.48490    0.56020    1.000
    C62      C        0.61180    0.44400    0.53220    1.000
    H54      H        0.64760    0.45000    0.51600    1.000
    C63      C        0.58170    0.46960    0.48820    1.000
    H55      H        0.60120    0.49130    0.44850    1.000
    O15      O        0.46490    0.45130    0.63180    1.000
    N40      N        0.66850    0.58500    0.69110    1.000
    C64      C        0.66390    0.63000    0.71300    1.000
    H56      H        0.66110    0.65700    0.68430    1.000
    O16      O        0.67133    0.48527    0.69280    1.000
    Zn9      Zn       0.89401    0.33278    0.59073    1.000
    N41      N        0.96050    0.33720    0.53520    1.000
    C65      C        0.98720    0.30010    0.53450    1.000
    H57      H        0.98740    0.27520    0.56900    1.000
    C66      C        0.96090    0.29090    0.50890    1.000
    H58      H        0.93180    0.25240    0.50210    1.000
    N42      N        0.82530    0.26010    0.55620    1.000
    C67      C        0.82060    0.23090    0.49170    1.000
    H59      H        0.84800    0.24460    0.45550    1.000
    C68      C        0.80710    0.24400    0.48630    1.000
    H60      H        0.82690    0.26490    0.44640    1.000
    C69      C        0.85190    0.26650    0.43200    1.000
    N43      N        0.88220    0.30920    0.38110    1.000
    N44      N        0.88390    0.39900    0.56020    1.000
    C70      C        0.83220    0.38820    0.53220    1.000
    H61      H        0.80240    0.35240    0.51600    1.000
    C71      C        0.88790    0.41830    0.48820    1.000
    H62      H        0.89010    0.39880    0.44850    1.000
    O17      O        0.98640    0.53510    0.63180    1.000
    N45      N        0.91650    0.33150    0.69110    1.000
    C72      C        0.96610    0.33610    0.71300    1.000
    H63      H        0.99590    0.33890    0.68430    1.000
    O18      O        0.81394    0.32867    0.69280    1.000
    Zn10     Zn       0.56123    0.89401    0.09073    1.000
    N46      N        0.62330    0.96050    0.03520    1.000
    C73      C        0.68710    0.98720    0.03450    1.000
    H64      H        0.71220    0.98740    0.06900    1.000
    C74      C        0.67000    0.96090    0.00890    1.000
    H65      H        0.67940    0.93180    0.00210    1.000
    N47      N        0.56520    0.82530    0.05620    1.000
    C75      C        0.58970    0.82060    0.99170    1.000
    H66      H        0.60340    0.84800    0.95550    1.000
    C76      C        0.56310    0.80710    0.98630    1.000
    H67      H        0.56200    0.82690    0.94640    1.000
    C77      C        0.58540    0.85190    0.93200    1.000
    N48      N        0.57300    0.88220    0.88110    1.000
    N49      N        0.48490    0.88390    0.06020    1.000
    C78      C        0.44400    0.83220    0.03220    1.000
    H68      H        0.45000    0.80240    0.01600    1.000
    C79      C        0.46960    0.88790    0.98820    1.000
    H69      H        0.49130    0.89010    0.94850    1.000
    O19      O        0.45130    0.98640    0.13180    1.000
    N50      N        0.58500    0.91650    0.19110    1.000
    C80      C        0.63000    0.96610    0.21300    1.000
    H70      H        0.65700    0.99590    0.18430    1.000
    O20      O        0.48527    0.81394    0.19280    1.000
    Zn11     Zn       0.33278    0.43877    0.09073    1.000
    N51      N        0.33720    0.37670    0.03520    1.000
    C81      C        0.30010    0.31290    0.03450    1.000
    H71      H        0.27520    0.28780    0.06900    1.000
    C82      C        0.29090    0.33000    0.00890    1.000
    H72      H        0.25240    0.32060    0.00210    1.000
    N52      N        0.26010    0.43480    0.05620    1.000
    C83      C        0.23090    0.41030    0.99170    1.000
    H73      H        0.24460    0.39660    0.95550    1.000
    C84      C        0.24400    0.43690    0.98630    1.000
    H74      H        0.26490    0.43800    0.94640    1.000
    C85      C        0.26650    0.41460    0.93200    1.000
    N53      N        0.30920    0.42700    0.88110    1.000
    N54      N        0.39900    0.51510    0.06020    1.000
    C86      C        0.38820    0.55600    0.03220    1.000
    H75      H        0.35240    0.55000    0.01600    1.000
    C87      C        0.41830    0.53040    0.98820    1.000
    H76      H        0.39880    0.50870    0.94850    1.000
    O21      O        0.53510    0.54870    0.13180    1.000
    N55      N        0.33150    0.41500    0.19110    1.000
    C88      C        0.33610    0.37000    0.21300    1.000
    H77      H        0.33890    0.34300    0.18430    1.000
    O22      O        0.32867    0.51473    0.19280    1.000
    Zn12     Zn       0.10599    0.66722    0.09073    1.000
    N56      N        0.03950    0.66280    0.03520    1.000
    C89      C        0.01280    0.69990    0.03450    1.000
    H78      H        0.01260    0.72480    0.06900    1.000
    C90      C        0.03910    0.70910    0.00890    1.000
    H79      H        0.06820    0.74760    0.00210    1.000
    N57      N        0.17470    0.73990    0.05620    1.000
    C91      C        0.17940    0.76910    0.99170    1.000
    H80      H        0.15200    0.75540    0.95550    1.000
    C92      C        0.19290    0.75600    0.98630    1.000
    H81      H        0.17310    0.73510    0.94640    1.000
    C93      C        0.14810    0.73350    0.93200    1.000
    N58      N        0.11780    0.69080    0.88110    1.000
    N59      N        0.11610    0.60100    0.06020    1.000
    C94      C        0.16780    0.61180    0.03220    1.000
    H82      H        0.19760    0.64760    0.01600    1.000
    C95      C        0.11210    0.58170    0.98820    1.000
    H83      H        0.10990    0.60120    0.94850    1.000
    O23      O        0.01360    0.46490    0.13180    1.000
    N60      N        0.08350    0.66850    0.19110    1.000
    C96      C        0.03390    0.66390    0.21300    1.000
    H84      H        0.00410    0.66110    0.18430    1.000
    O24      O        0.18606    0.67133    0.19280    1.000
    Zn13     Zn       0.89401    0.56123    0.59073    1.000
    N61      N        0.96050    0.62330    0.53520    1.000
    C97      C        0.98720    0.68710    0.53450    1.000
    H85      H        0.98740    0.71220    0.56900    1.000
    C98      C        0.96090    0.67000    0.50890    1.000
    H86      H        0.93180    0.67940    0.50210    1.000
    N62      N        0.82530    0.56520    0.55620    1.000
    C99      C        0.82060    0.58970    0.49170    1.000
    H87      H        0.84800    0.60340    0.45550    1.000
    C100     C        0.80710    0.56310    0.48630    1.000
    H88      H        0.82690    0.56200    0.44640    1.000
    C101     C        0.85190    0.58540    0.43200    1.000
    N63      N        0.88220    0.57300    0.38110    1.000
    N64      N        0.88390    0.48490    0.56020    1.000
    C102     C        0.83220    0.44400    0.53220    1.000
    H89      H        0.80240    0.45000    0.51600    1.000
    C103     C        0.88790    0.46960    0.48820    1.000
    H90      H        0.89010    0.49130    0.44850    1.000
    O25      O        0.98640    0.45130    0.63180    1.000
    N65      N        0.91650    0.58500    0.69110    1.000
    C104     C        0.96610    0.63000    0.71300    1.000
    H91      H        0.99590    0.65700    0.68430    1.000
    O26      O        0.81394    0.48527    0.69280    1.000
    Zn14     Zn       0.43877    0.33278    0.59073    1.000
    N66      N        0.37670    0.33720    0.53520    1.000
    C105     C        0.31290    0.30010    0.53450    1.000
    H92      H        0.28780    0.27520    0.56900    1.000
    C106     C        0.33000    0.29090    0.50890    1.000
    H93      H        0.32060    0.25240    0.50210    1.000
    N67      N        0.43480    0.26010    0.55620    1.000
    C107     C        0.41030    0.23090    0.49170    1.000
    H94      H        0.39660    0.24460    0.45550    1.000
    C108     C        0.43690    0.24400    0.48630    1.000
    H95      H        0.43800    0.26490    0.44640    1.000
    C109     C        0.41460    0.26650    0.43200    1.000
    N68      N        0.42700    0.30920    0.38110    1.000
    N69      N        0.51510    0.39900    0.56020    1.000
    C110     C        0.55600    0.38820    0.53220    1.000
    H96      H        0.55000    0.35240    0.51600    1.000
    C111     C        0.53040    0.41830    0.48820    1.000
    H97      H        0.50870    0.39880    0.44850    1.000
    O27      O        0.54870    0.53510    0.63180    1.000
    N70      N        0.41500    0.33150    0.69110    1.000
    C112     C        0.37000    0.33610    0.71300    1.000
    H98      H        0.34300    0.33890    0.68430    1.000
    O28      O        0.51473    0.32867    0.69280    1.000
    Zn15     Zn       0.66722    0.10599    0.59073    1.000
    N71      N        0.66280    0.03950    0.53520    1.000
    C113     C        0.69990    0.01280    0.53450    1.000
    H99      H        0.72480    0.01260    0.56900    1.000
    C114     C        0.70910    0.03910    0.50890    1.000
    H100     H        0.74760    0.06820    0.50210    1.000
    N72      N        0.73990    0.17470    0.55620    1.000
    C115     C        0.76910    0.17940    0.49170    1.000
    H101     H        0.75540    0.15200    0.45550    1.000
    C116     C        0.75600    0.19290    0.48630    1.000
    H102     H        0.73510    0.17310    0.44640    1.000
    C117     C        0.73350    0.14810    0.43200    1.000
    N73      N        0.69080    0.11780    0.38110    1.000
    N74      N        0.60100    0.11610    0.56020    1.000
    C118     C        0.61180    0.16780    0.53220    1.000
    H103     H        0.64760    0.19760    0.51600    1.000
    C119     C        0.58170    0.11210    0.48820    1.000
    H104     H        0.60120    0.10990    0.44850    1.000
    O29      O        0.46490    0.01360    0.63180    1.000
    N75      N        0.66850    0.08350    0.69110    1.000
    C120     C        0.66390    0.03390    0.71300    1.000
    H105     H        0.66110    0.00410    0.68430    1.000
    O30      O        0.67133    0.18606    0.69280    1.000
    Zn16     Zn       0.10599    0.43877    0.09073    1.000
    N76      N        0.03950    0.37670    0.03520    1.000
    C121     C        0.01280    0.31290    0.03450    1.000
    H106     H        0.01260    0.28780    0.06900    1.000
    C122     C        0.03910    0.33000    0.00890    1.000
    H107     H        0.06820    0.32060    0.00210    1.000
    N77      N        0.17470    0.43480    0.05620    1.000
    C123     C        0.17940    0.41030    0.99170    1.000
    H108     H        0.15200    0.39660    0.95550    1.000
    C124     C        0.19290    0.43690    0.98630    1.000
    H109     H        0.17310    0.43800    0.94640    1.000
    C125     C        0.14810    0.41460    0.93200    1.000
    N78      N        0.11780    0.42700    0.88110    1.000
    N79      N        0.11610    0.51510    0.06020    1.000
    C126     C        0.16780    0.55600    0.03220    1.000
    H110     H        0.19760    0.55000    0.01600    1.000
    C127     C        0.11210    0.53040    0.98820    1.000
    H111     H        0.10990    0.50870    0.94850    1.000
    O31      O        0.01360    0.54870    0.13180    1.000
    N80      N        0.08350    0.41500    0.19110    1.000
    C128     C        0.03390    0.37000    0.21300    1.000
    H112     H        0.00410    0.34300    0.18430    1.000
    O32      O        0.18606    0.51473    0.19280    1.000
    Zn17     Zn       0.56123    0.66722    0.09073    1.000
    N81      N        0.62330    0.66280    0.03520    1.000
    C129     C        0.68710    0.69990    0.03450    1.000
    H113     H        0.71220    0.72480    0.06900    1.000
    C130     C        0.67000    0.70910    0.00890    1.000
    H114     H        0.67940    0.74760    0.00210    1.000
    N82      N        0.56520    0.73990    0.05620    1.000
    C131     C        0.58970    0.76910    0.99170    1.000
    H115     H        0.60340    0.75540    0.95550    1.000
    C132     C        0.56310    0.75600    0.98630    1.000
    H116     H        0.56200    0.73510    0.94640    1.000
    C133     C        0.58540    0.73350    0.93200    1.000
    N83      N        0.57300    0.69080    0.88110    1.000
    N84      N        0.48490    0.60100    0.06020    1.000
    C134     C        0.44400    0.61180    0.03220    1.000
    H117     H        0.45000    0.64760    0.01600    1.000
    C135     C        0.46960    0.58170    0.98820    1.000
    H118     H        0.49130    0.60120    0.94850    1.000
    O33      O        0.45130    0.46490    0.13180    1.000
    N85      N        0.58500    0.66850    0.19110    1.000
    C136     C        0.63000    0.66390    0.21300    1.000
    H119     H        0.65700    0.66110    0.18430    1.000
    O34      O        0.48527    0.67133    0.19280    1.000
    Zn18     Zn       0.33278    0.89401    0.09073    1.000
    N86      N        0.33720    0.96050    0.03520    1.000
    C137     C        0.30010    0.98720    0.03450    1.000
    H120     H        0.27520    0.98740    0.06900    1.000
    C138     C        0.29090    0.96090    0.00890    1.000
    H121     H        0.25240    0.93180    0.00210    1.000
    N87      N        0.26010    0.82530    0.05620    1.000
    C139     C        0.23090    0.82060    0.99170    1.000
    H122     H        0.24460    0.84800    0.95550    1.000
    C140     C        0.24400    0.80710    0.98630    1.000
    H123     H        0.26490    0.82690    0.94640    1.000
    C141     C        0.26650    0.85190    0.93200    1.000
    N88      N        0.30920    0.88220    0.88110    1.000
    N89      N        0.39900    0.88390    0.06020    1.000
    C142     C        0.38820    0.83220    0.03220    1.000
    H124     H        0.35240    0.80240    0.01600    1.000
    C143     C        0.41830    0.88790    0.98820    1.000
    H125     H        0.39880    0.89010    0.94850    1.000
    O35      O        0.53510    0.98640    0.13180    1.000
    N90      N        0.33150    0.91650    0.19110    1.000
    C144     C        0.33610    0.96610    0.21300    1.000
    H126     H        0.33890    0.99590    0.18430    1.000
    O36      O        0.32867    0.81394    0.19280    1.000
    Zn19     Zn       0.56123    0.89401    0.40927    1.000
    N91      N        0.62330    0.96050    0.46480    1.000
    C145     C        0.68710    0.98720    0.46550    1.000
    H127     H        0.71220    0.98740    0.43100    1.000
    C146     C        0.67000    0.96090    0.49110    1.000
    H128     H        0.67940    0.93180    0.49790    1.000
    N92      N        0.56520    0.82530    0.44380    1.000
    C147     C        0.58970    0.82060    0.50830    1.000
    H129     H        0.60340    0.84800    0.54450    1.000
    C148     C        0.56310    0.80710    0.51370    1.000
    H130     H        0.56200    0.82690    0.55360    1.000
    C149     C        0.58540    0.85190    0.56800    1.000
    N93      N        0.57300    0.88220    0.61890    1.000
    N94      N        0.48490    0.88390    0.43980    1.000
    C150     C        0.44400    0.83220    0.46780    1.000
    H131     H        0.45000    0.80240    0.48400    1.000
    C151     C        0.46960    0.88790    0.51180    1.000
    H132     H        0.49130    0.89010    0.55150    1.000
    O37      O        0.45130    0.98640    0.36820    1.000
    N95      N        0.58500    0.91650    0.30890    1.000
    C152     C        0.63000    0.96610    0.28700    1.000
    H133     H        0.65700    0.99590    0.31570    1.000
    O38      O        0.48527    0.81394    0.30720    1.000
    Zn20     Zn       0.33278    0.43877    0.40927    1.000
    N96      N        0.33720    0.37670    0.46480    1.000
    C153     C        0.30010    0.31290    0.46550    1.000
    H134     H        0.27520    0.28780    0.43100    1.000
    C154     C        0.29090    0.33000    0.49110    1.000
    H135     H        0.25240    0.32060    0.49790    1.000
    N97      N        0.26010    0.43480    0.44380    1.000
    C155     C        0.23090    0.41030    0.50830    1.000
    H136     H        0.24460    0.39660    0.54450    1.000
    C156     C        0.24400    0.43690    0.51370    1.000
    H137     H        0.26490    0.43800    0.55360    1.000
    C157     C        0.26650    0.41460    0.56800    1.000
    N98      N        0.30920    0.42700    0.61890    1.000
    N99      N        0.39900    0.51510    0.43980    1.000
    C158     C        0.38820    0.55600    0.46780    1.000
    H138     H        0.35240    0.55000    0.48400    1.000
    C159     C        0.41830    0.53040    0.51180    1.000
    H139     H        0.39880    0.50870    0.55150    1.000
    O39      O        0.53510    0.54870    0.36820    1.000
    N100     N        0.33150    0.41500    0.30890    1.000
    C160     C        0.33610    0.37000    0.28700    1.000
    H140     H        0.33890    0.34300    0.31570    1.000
    O40      O        0.32867    0.51473    0.30720    1.000
    Zn21     Zn       0.10599    0.66722    0.40927    1.000
    N101     N        0.03950    0.66280    0.46480    1.000
    C161     C        0.01280    0.69990    0.46550    1.000
    H141     H        0.01260    0.72480    0.43100    1.000
    C162     C        0.03910    0.70910    0.49110    1.000
    H142     H        0.06820    0.74760    0.49790    1.000
    N102     N        0.17470    0.73990    0.44380    1.000
    C163     C        0.17940    0.76910    0.50830    1.000
    H143     H        0.15200    0.75540    0.54450    1.000
    C164     C        0.19290    0.75600    0.51370    1.000
    H144     H        0.17310    0.73510    0.55360    1.000
    C165     C        0.14810    0.73350    0.56800    1.000
    N103     N        0.11780    0.69080    0.61890    1.000
    N104     N        0.11610    0.60100    0.43980    1.000
    C166     C        0.16780    0.61180    0.46780    1.000
    H145     H        0.19760    0.64760    0.48400    1.000
    C167     C        0.11210    0.58170    0.51180    1.000
    H146     H        0.10990    0.60120    0.55150    1.000
    O41      O        0.01360    0.46490    0.36820    1.000
    N105     N        0.08350    0.66850    0.30890    1.000
    C168     C        0.03390    0.66390    0.28700    1.000
    H147     H        0.00410    0.66110    0.31570    1.000
    O42      O        0.18606    0.67133    0.30720    1.000
    Zn22     Zn       0.43877    0.10599    0.90927    1.000
    N106     N        0.37670    0.03950    0.96480    1.000
    C169     C        0.31290    0.01280    0.96550    1.000
    H148     H        0.28780    0.01260    0.93100    1.000
    C170     C        0.33000    0.03910    0.99110    1.000
    H149     H        0.32060    0.06820    0.99790    1.000
    N107     N        0.43480    0.17470    0.94380    1.000
    C171     C        0.41030    0.17940    0.00830    1.000
    H150     H        0.39660    0.15200    0.04450    1.000
    C172     C        0.43690    0.19290    0.01370    1.000
    H151     H        0.43800    0.17310    0.05360    1.000
    C173     C        0.41460    0.14810    0.06800    1.000
    N108     N        0.42700    0.11780    0.11890    1.000
    N109     N        0.51510    0.11610    0.93980    1.000
    C174     C        0.55600    0.16780    0.96780    1.000
    H152     H        0.55000    0.19760    0.98400    1.000
    C175     C        0.53040    0.11210    0.01180    1.000
    H153     H        0.50870    0.10990    0.05150    1.000
    O43      O        0.54870    0.01360    0.86820    1.000
    N110     N        0.41500    0.08350    0.80890    1.000
    C176     C        0.37000    0.03390    0.78700    1.000
    H154     H        0.34300    0.00410    0.81570    1.000
    O44      O        0.51473    0.18606    0.80720    1.000
    Zn23     Zn       0.66722    0.56123    0.90927    1.000
    N111     N        0.66280    0.62330    0.96480    1.000
    C177     C        0.69990    0.68710    0.96550    1.000
    H155     H        0.72480    0.71220    0.93100    1.000
    C178     C        0.70910    0.67000    0.99110    1.000
    H156     H        0.74760    0.67940    0.99790    1.000
    N112     N        0.73990    0.56520    0.94380    1.000
    C179     C        0.76910    0.58970    0.00830    1.000
    H157     H        0.75540    0.60340    0.04450    1.000
    C180     C        0.75600    0.56310    0.01370    1.000
    H158     H        0.73510    0.56200    0.05360    1.000
    C181     C        0.73350    0.58540    0.06800    1.000
    N113     N        0.69080    0.57300    0.11890    1.000
    N114     N        0.60100    0.48490    0.93980    1.000
    C182     C        0.61180    0.44400    0.96780    1.000
    H159     H        0.64760    0.45000    0.98400    1.000
    C183     C        0.58170    0.46960    0.01180    1.000
    H160     H        0.60120    0.49130    0.05150    1.000
    O45      O        0.46490    0.45130    0.86820    1.000
    N115     N        0.66850    0.58500    0.80890    1.000
    C184     C        0.66390    0.63000    0.78700    1.000
    H161     H        0.66110    0.65700    0.81570    1.000
    O46      O        0.67133    0.48527    0.80720    1.000
    Zn24     Zn       0.89401    0.33278    0.90927    1.000
    N116     N        0.96050    0.33720    0.96480    1.000
    C185     C        0.98720    0.30010    0.96550    1.000
    H162     H        0.98740    0.27520    0.93100    1.000
    C186     C        0.96090    0.29090    0.99110    1.000
    H163     H        0.93180    0.25240    0.99790    1.000
    N117     N        0.82530    0.26010    0.94380    1.000
    C187     C        0.82060    0.23090    0.00830    1.000
    H164     H        0.84800    0.24460    0.04450    1.000
    C188     C        0.80710    0.24400    0.01370    1.000
    H165     H        0.82690    0.26490    0.05360    1.000
    C189     C        0.85190    0.26650    0.06800    1.000
    N118     N        0.88220    0.30920    0.11890    1.000
    N119     N        0.88390    0.39900    0.93980    1.000
    C190     C        0.83220    0.38820    0.96780    1.000
    H166     H        0.80240    0.35240    0.98400    1.000
    C191     C        0.88790    0.41830    0.01180    1.000
    H167     H        0.89010    0.39880    0.05150    1.000
    O47      O        0.98640    0.53510    0.86820    1.000
    N120     N        0.91650    0.33150    0.80890    1.000
    C192     C        0.96610    0.33610    0.78700    1.000
    H168     H        0.99590    0.33890    0.81570    1.000
    O48      O        0.81394    0.32867    0.80720    1.000
    C193     C        0.00000    0.38300    0.50000    1.000
    H169     H        0.00000    0.41820    0.50000    1.000
    C194     C        0.61700    0.61700    0.50000    1.000
    H170     H        0.58180    0.58180    0.50000    1.000
    C195     C        0.38300    0.00000    0.50000    1.000
    H171     H        0.41820    0.00000    0.50000    1.000
    C196     C        0.00000    0.61700    0.00000    1.000
    H172     H        0.00000    0.58180    0.00000    1.000
    C197     C        0.38300    0.38300    0.00000    1.000
    H173     H        0.41820    0.41820    0.00000    1.000
    C198     C        0.61700    0.00000    0.00000    1.000
    H174     H        0.58180    0.00000    0.00000    1.000
    C199     C        0.00000    0.61700    0.50000    1.000
    H175     H        0.00000    0.58180    0.50000    1.000
    C200     C        0.38300    0.38300    0.50000    1.000
    H176     H        0.41820    0.41820    0.50000    1.000
    C201     C        0.61700    0.00000    0.50000    1.000
    H177     H        0.58180    0.00000    0.50000    1.000
    C202     C        0.00000    0.38300    0.00000    1.000
    H178     H        0.00000    0.41820    0.00000    1.000
    C203     C        0.61700    0.61700    0.00000    1.000
    H179     H        0.58180    0.58180    0.00000    1.000
    C204     C        0.38300    0.00000    0.00000    1.000
    H180     H        0.41820    0.00000    0.00000    1.000
    C205     C        0.21935    0.43870    0.40750    1.000
    H181     H        0.22190    0.44380    0.35880    1.000
    C206     C        0.56130    0.78065    0.40750    1.000
    H182     H        0.55620    0.77810    0.35880    1.000
    C207     C        0.21935    0.78065    0.40750    1.000
    H183     H        0.22190    0.77810    0.35880    1.000
    C208     C        0.78065    0.56130    0.90750    1.000
    H184     H        0.77810    0.55620    0.85880    1.000
    C209     C        0.43870    0.21935    0.90750    1.000
    H185     H        0.44380    0.22190    0.85880    1.000
    C210     C        0.78065    0.21935    0.90750    1.000
    H186     H        0.77810    0.22190    0.85880    1.000
    C211     C        0.43870    0.21935    0.59250    1.000
    H187     H        0.44380    0.22190    0.64120    1.000
    C212     C        0.78065    0.56130    0.59250    1.000
    H188     H        0.77810    0.55620    0.64120    1.000
    C213     C        0.78065    0.21935    0.59250    1.000
    H189     H        0.77810    0.22190    0.64120    1.000
    C214     C        0.56130    0.78065    0.09250    1.000
    H190     H        0.55620    0.77810    0.14120    1.000
    C215     C        0.21935    0.43870    0.09250    1.000
    H191     H        0.22190    0.44380    0.14120    1.000
    C216     C        0.21935    0.78065    0.09250    1.000
    H192     H        0.22190    0.77810    0.14120    1.000
    C217     C        0.10170    0.55085    0.41130    1.000
    N121     N        0.03870    0.51935    0.37470    1.000
    C218     C        0.44915    0.55085    0.41130    1.000
    N122     N        0.48065    0.51935    0.37470    1.000
    C219     C        0.44915    0.89830    0.41130    1.000
    N123     N        0.48065    0.96130    0.37470    1.000
    C220     C        0.89830    0.44915    0.91130    1.000
    N124     N        0.96130    0.48065    0.87470    1.000
    C221     C        0.55085    0.44915    0.91130    1.000
    N125     N        0.51935    0.48065    0.87470    1.000
    C222     C        0.55085    0.10170    0.91130    1.000
    N126     N        0.51935    0.03870    0.87470    1.000
    C223     C        0.55085    0.10170    0.58870    1.000
    N127     N        0.51935    0.03870    0.62530    1.000
    C224     C        0.55085    0.44915    0.58870    1.000
    N128     N        0.51935    0.48065    0.62530    1.000
    C225     C        0.89830    0.44915    0.58870    1.000
    N129     N        0.96130    0.48065    0.62530    1.000
    C226     C        0.44915    0.89830    0.08870    1.000
    N130     N        0.48065    0.96130    0.12530    1.000
    C227     C        0.44915    0.55085    0.08870    1.000
    N131     N        0.48065    0.51935    0.12530    1.000
    C228     C        0.10170    0.55085    0.08870    1.000
    N132     N        0.03870    0.51935    0.12530    1.000
    C229     C        0.11030    0.44060    0.25000    1.000
    N133     N        0.16460    0.49350    0.25000    1.000
    C230     C        0.55940    0.66970    0.25000    1.000
    N134     N        0.50650    0.67110    0.25000    1.000
    C231     C        0.33030    0.88970    0.25000    1.000
    N135     N        0.32890    0.83540    0.25000    1.000
    C232     C        0.88970    0.55940    0.75000    1.000
    N136     N        0.83540    0.50650    0.75000    1.000
    C233     C        0.44060    0.33030    0.75000    1.000
    N137     N        0.49350    0.32890    0.75000    1.000
    C234     C        0.66970    0.11030    0.75000    1.000
    N138     N        0.67110    0.16460    0.75000    1.000
    C235     C        0.44060    0.11030    0.75000    1.000
    N139     N        0.49350    0.16460    0.75000    1.000
    C236     C        0.66970    0.55940    0.75000    1.000
    N140     N        0.67110    0.50650    0.75000    1.000
    C237     C        0.88970    0.33030    0.75000    1.000
    N141     N        0.83540    0.32890    0.75000    1.000
    C238     C        0.55940    0.88970    0.25000    1.000
    N142     N        0.50650    0.83540    0.25000    1.000
    C239     C        0.33030    0.44060    0.25000    1.000
    N143     N        0.32890    0.49350    0.25000    1.000
    C240     C        0.11030    0.66970    0.25000    1.000
    N144     N        0.16460    0.67110    0.25000    1.000
