# CIF file generated by openbabel 3.1.0, see https://openbabel.org
data_I
_chemical_name_common 'image0'
_cell_length_a 28.9234
_cell_length_b 28.9234
_cell_length_c 28.9234
_cell_angle_alpha 90
_cell_angle_beta 90
_cell_angle_gamma 90
_space_group_name_H-M_alt 'P 1'
_space_group_name_Hall 'P 1'
loop_
    _symmetry_equiv_pos_as_xyz
    x,y,z
loop_
    _atom_site_label
    _atom_site_type_symbol
    _atom_site_fract_x
    _atom_site_fract_y
    _atom_site_fract_z
    _atom_site_occupancy
    O1       O        0.37467    0.49295    0.04999    1.000
    O2       O        0.37505    0.55534    0.00514    1.000
    C1       C        0.37610    0.53736    0.04569    1.000
    O3       O        0.37790    0.56138    0.08219    1.000
    O4       O        0.37467    0.99295    0.54999    1.000
    O5       O        0.37505    0.05534    0.50514    1.000
    C2       C        0.37610    0.03736    0.54569    1.000
    O6       O        0.37790    0.06138    0.58219    1.000
    O7       O        0.87467    0.49295    0.54999    1.000
    O8       O        0.87505    0.55534    0.50514    1.000
    C3       C        0.87610    0.53736    0.54569    1.000
    O9       O        0.87790    0.56138    0.58219    1.000
    O10      O        0.87467    0.99295    0.04999    1.000
    O11      O        0.87505    0.05534    0.00514    1.000
    C4       C        0.87610    0.03736    0.04569    1.000
    O12      O        0.87790    0.06138    0.08219    1.000
    O13      O        0.87533    0.25705    0.54999    1.000
    O14      O        0.87495    0.19466    0.50514    1.000
    C5       C        0.87390    0.21264    0.54569    1.000
    O15      O        0.87210    0.18862    0.58219    1.000
    O16      O        0.87533    0.75705    0.04999    1.000
    O17      O        0.87495    0.69466    0.00514    1.000
    C6       C        0.87390    0.71264    0.04569    1.000
    O18      O        0.87210    0.68862    0.08219    1.000
    O19      O        0.37533    0.25705    0.04999    1.000
    O20      O        0.37495    0.19466    0.00514    1.000
    C7       C        0.37390    0.21264    0.04569    1.000
    O21      O        0.37210    0.18862    0.08219    1.000
    O22      O        0.37533    0.75705    0.54999    1.000
    O23      O        0.37495    0.69466    0.50514    1.000
    C8       C        0.37390    0.71264    0.54569    1.000
    O24      O        0.37210    0.68862    0.58219    1.000
    O25      O        0.37533    0.99295    0.20001    1.000
    O26      O        0.37495    0.05534    0.24486    1.000
    C9       C        0.37390    0.03736    0.20431    1.000
    O27      O        0.37210    0.06138    0.16781    1.000
    O28      O        0.37533    0.49295    0.70001    1.000
    O29      O        0.37495    0.55534    0.74486    1.000
    C10      C        0.37390    0.53736    0.70431    1.000
    O30      O        0.37210    0.56138    0.66781    1.000
    O31      O        0.87533    0.99295    0.70001    1.000
    O32      O        0.87495    0.05534    0.74486    1.000
    C11      C        0.87390    0.03736    0.70431    1.000
    O33      O        0.87210    0.06138    0.66781    1.000
    O34      O        0.87533    0.49295    0.20001    1.000
    O35      O        0.87495    0.55534    0.24486    1.000
    C12      C        0.87390    0.53736    0.20431    1.000
    O36      O        0.87210    0.56138    0.16781    1.000
    O37      O        0.87467    0.75705    0.70001    1.000
    O38      O        0.87505    0.69466    0.74486    1.000
    C13      C        0.87610    0.71264    0.70431    1.000
    O39      O        0.87790    0.68862    0.66781    1.000
    O40      O        0.87467    0.25705    0.20001    1.000
    O41      O        0.87505    0.19466    0.24486    1.000
    C14      C        0.87610    0.21264    0.20431    1.000
    O42      O        0.87790    0.18862    0.16781    1.000
    O43      O        0.37467    0.75705    0.20001    1.000
    O44      O        0.37505    0.69466    0.24486    1.000
    C15      C        0.37610    0.71264    0.20431    1.000
    O45      O        0.37790    0.68862    0.16781    1.000
    O46      O        0.37467    0.25705    0.70001    1.000
    O47      O        0.37505    0.19466    0.74486    1.000
    C16      C        0.37610    0.21264    0.70431    1.000
    O48      O        0.37790    0.18862    0.66781    1.000
    O49      O        0.04999    0.37467    0.49295    1.000
    O50      O        0.00514    0.37505    0.55534    1.000
    C17      C        0.04569    0.37610    0.53736    1.000
    O51      O        0.08219    0.37790    0.56138    1.000
    O52      O        0.04999    0.87467    0.99295    1.000
    O53      O        0.00514    0.87505    0.05534    1.000
    C18      C        0.04569    0.87610    0.03736    1.000
    O54      O        0.08219    0.87790    0.06138    1.000
    O55      O        0.54999    0.37467    0.99295    1.000
    O56      O        0.50514    0.37505    0.05534    1.000
    C19      C        0.54569    0.37610    0.03736    1.000
    O57      O        0.58219    0.37790    0.06138    1.000
    O58      O        0.54999    0.87467    0.49295    1.000
    O59      O        0.50514    0.87505    0.55534    1.000
    C20      C        0.54569    0.87610    0.53736    1.000
    O60      O        0.58219    0.87790    0.56138    1.000
    O61      O        0.54999    0.87533    0.25705    1.000
    O62      O        0.50514    0.87495    0.19466    1.000
    C21      C        0.54569    0.87390    0.21264    1.000
    O63      O        0.58219    0.87210    0.18862    1.000
    O64      O        0.54999    0.37533    0.75705    1.000
    O65      O        0.50514    0.37495    0.69466    1.000
    C22      C        0.54569    0.37390    0.71264    1.000
    O66      O        0.58219    0.37210    0.68862    1.000
    O67      O        0.04999    0.87533    0.75705    1.000
    O68      O        0.00514    0.87495    0.69466    1.000
    C23      C        0.04569    0.87390    0.71264    1.000
    O69      O        0.08219    0.87210    0.68862    1.000
    O70      O        0.04999    0.37533    0.25705    1.000
    O71      O        0.00514    0.37495    0.19466    1.000
    C24      C        0.04569    0.37390    0.21264    1.000
    O72      O        0.08219    0.37210    0.18862    1.000
    O73      O        0.20001    0.37533    0.99295    1.000
    O74      O        0.24486    0.37495    0.05534    1.000
    C25      C        0.20431    0.37390    0.03736    1.000
    O75      O        0.16781    0.37210    0.06138    1.000
    O76      O        0.20001    0.87533    0.49295    1.000
    O77      O        0.24486    0.87495    0.55534    1.000
    C26      C        0.20431    0.87390    0.53736    1.000
    O78      O        0.16781    0.87210    0.56138    1.000
    O79      O        0.70001    0.37533    0.49295    1.000
    O80      O        0.74486    0.37495    0.55534    1.000
    C27      C        0.70431    0.37390    0.53736    1.000
    O81      O        0.66781    0.37210    0.56138    1.000
    O82      O        0.70001    0.87533    0.99295    1.000
    O83      O        0.74486    0.87495    0.05534    1.000
    C28      C        0.70431    0.87390    0.03736    1.000
    O84      O        0.66781    0.87210    0.06138    1.000
    O85      O        0.70001    0.87467    0.75705    1.000
    O86      O        0.74486    0.87505    0.69466    1.000
    C29      C        0.70431    0.87610    0.71264    1.000
    O87      O        0.66781    0.87790    0.68862    1.000
    O88      O        0.70001    0.37467    0.25705    1.000
    O89      O        0.74486    0.37505    0.19466    1.000
    C30      C        0.70431    0.37610    0.21264    1.000
    O90      O        0.66781    0.37790    0.18862    1.000
    O91      O        0.20001    0.87467    0.25705    1.000
    O92      O        0.24486    0.87505    0.19466    1.000
    C31      C        0.20431    0.87610    0.21264    1.000
    O93      O        0.16781    0.87790    0.18862    1.000
    O94      O        0.20001    0.37467    0.75705    1.000
    O95      O        0.24486    0.37505    0.69466    1.000
    C32      C        0.20431    0.37610    0.71264    1.000
    O96      O        0.16781    0.37790    0.68862    1.000
    O97      O        0.49295    0.04999    0.37467    1.000
    O98      O        0.55534    0.00514    0.37505    1.000
    C33      C        0.53736    0.04569    0.37610    1.000
    O99      O        0.56138    0.08219    0.37790    1.000
    O100     O        0.49295    0.54999    0.87467    1.000
    O101     O        0.55534    0.50514    0.87505    1.000
    C34      C        0.53736    0.54569    0.87610    1.000
    O102     O        0.56138    0.58219    0.87790    1.000
    O103     O        0.99295    0.04999    0.87467    1.000
    O104     O        0.05534    0.00514    0.87505    1.000
    C35      C        0.03736    0.04569    0.87610    1.000
    O105     O        0.06138    0.08219    0.87790    1.000
    O106     O        0.99295    0.54999    0.37467    1.000
    O107     O        0.05534    0.50514    0.37505    1.000
    C36      C        0.03736    0.54569    0.37610    1.000
    O108     O        0.06138    0.58219    0.37790    1.000
    O109     O        0.25705    0.54999    0.87533    1.000
    O110     O        0.19466    0.50514    0.87495    1.000
    C37      C        0.21264    0.54569    0.87390    1.000
    O111     O        0.18862    0.58219    0.87210    1.000
    O112     O        0.25705    0.04999    0.37533    1.000
    O113     O        0.19466    0.00514    0.37495    1.000
    C38      C        0.21264    0.04569    0.37390    1.000
    O114     O        0.18862    0.08219    0.37210    1.000
    O115     O        0.75705    0.54999    0.37533    1.000
    O116     O        0.69466    0.50514    0.37495    1.000
    C39      C        0.71264    0.54569    0.37390    1.000
    O117     O        0.68862    0.58219    0.37210    1.000
    O118     O        0.75705    0.04999    0.87533    1.000
    O119     O        0.69466    0.00514    0.87495    1.000
    C40      C        0.71264    0.04569    0.87390    1.000
    O120     O        0.68862    0.08219    0.87210    1.000
    O121     O        0.99295    0.20001    0.37533    1.000
    O122     O        0.05534    0.24486    0.37495    1.000
    C41      C        0.03736    0.20431    0.37390    1.000
    O123     O        0.06138    0.16781    0.37210    1.000
    O124     O        0.99295    0.70001    0.87533    1.000
    O125     O        0.05534    0.74486    0.87495    1.000
    C42      C        0.03736    0.70431    0.87390    1.000
    O126     O        0.06138    0.66781    0.87210    1.000
    O127     O        0.49295    0.20001    0.87533    1.000
    O128     O        0.55534    0.24486    0.87495    1.000
    C43      C        0.53736    0.20431    0.87390    1.000
    O129     O        0.56138    0.16781    0.87210    1.000
    O130     O        0.49295    0.70001    0.37533    1.000
    O131     O        0.55534    0.74486    0.37495    1.000
    C44      C        0.53736    0.70431    0.37390    1.000
    O132     O        0.56138    0.66781    0.37210    1.000
    O133     O        0.75705    0.70001    0.87467    1.000
    O134     O        0.69466    0.74486    0.87505    1.000
    C45      C        0.71264    0.70431    0.87610    1.000
    O135     O        0.68862    0.66781    0.87790    1.000
    O136     O        0.75705    0.20001    0.37467    1.000
    O137     O        0.69466    0.24486    0.37505    1.000
    C46      C        0.71264    0.20431    0.37610    1.000
    O138     O        0.68862    0.16781    0.37790    1.000
    O139     O        0.25705    0.70001    0.37467    1.000
    O140     O        0.19466    0.74486    0.37505    1.000
    C47      C        0.21264    0.70431    0.37610    1.000
    O141     O        0.18862    0.66781    0.37790    1.000
    O142     O        0.25705    0.20001    0.87467    1.000
    O143     O        0.19466    0.24486    0.87505    1.000
    C48      C        0.21264    0.20431    0.87610    1.000
    O144     O        0.18862    0.16781    0.87790    1.000
    O145     O        0.24295    0.62467    0.95001    1.000
    O146     O        0.30534    0.62505    0.99486    1.000
    C49      C        0.28736    0.62610    0.95431    1.000
    O147     O        0.31138    0.62790    0.91781    1.000
    O148     O        0.24295    0.12467    0.45001    1.000
    O149     O        0.30534    0.12505    0.49486    1.000
    C50      C        0.28736    0.12610    0.45431    1.000
    O150     O        0.31138    0.12790    0.41781    1.000
    O151     O        0.74295    0.62467    0.45001    1.000
    O152     O        0.80534    0.62505    0.49486    1.000
    C51      C        0.78736    0.62610    0.45431    1.000
    O153     O        0.81138    0.62790    0.41781    1.000
    O154     O        0.74295    0.12467    0.95001    1.000
    O155     O        0.80534    0.12505    0.99486    1.000
    C52      C        0.78736    0.12610    0.95431    1.000
    O156     O        0.81138    0.12790    0.91781    1.000
    O157     O        0.00705    0.12533    0.45001    1.000
    O158     O        0.94466    0.12495    0.49486    1.000
    C53      C        0.96264    0.12390    0.45431    1.000
    O159     O        0.93862    0.12210    0.41781    1.000
    O160     O        0.00705    0.62533    0.95001    1.000
    O161     O        0.94466    0.62495    0.99486    1.000
    C54      C        0.96264    0.62390    0.95431    1.000
    O162     O        0.93862    0.62210    0.91781    1.000
    O163     O        0.50705    0.12533    0.95001    1.000
    O164     O        0.44466    0.12495    0.99486    1.000
    C55      C        0.46264    0.12390    0.95431    1.000
    O165     O        0.43862    0.12210    0.91781    1.000
    O166     O        0.50705    0.62533    0.45001    1.000
    O167     O        0.44466    0.62495    0.49486    1.000
    C56      C        0.46264    0.62390    0.45431    1.000
    O168     O        0.43862    0.62210    0.41781    1.000
    O169     O        0.74295    0.62533    0.79999    1.000
    O170     O        0.80534    0.62495    0.75514    1.000
    C57      C        0.78736    0.62390    0.79569    1.000
    O171     O        0.81138    0.62210    0.83219    1.000
    O172     O        0.74295    0.12533    0.29999    1.000
    O173     O        0.80534    0.12495    0.25514    1.000
    C58      C        0.78736    0.12390    0.29569    1.000
    O174     O        0.81138    0.12210    0.33219    1.000
    O175     O        0.24295    0.62533    0.29999    1.000
    O176     O        0.30534    0.62495    0.25514    1.000
    C59      C        0.28736    0.62390    0.29569    1.000
    O177     O        0.31138    0.62210    0.33219    1.000
    O178     O        0.24295    0.12533    0.79999    1.000
    O179     O        0.30534    0.12495    0.75514    1.000
    C60      C        0.28736    0.12390    0.79569    1.000
    O180     O        0.31138    0.12210    0.83219    1.000
    O181     O        0.50705    0.12467    0.29999    1.000
    O182     O        0.44466    0.12505    0.25514    1.000
    C61      C        0.46264    0.12610    0.29569    1.000
    O183     O        0.43862    0.12790    0.33219    1.000
    O184     O        0.50705    0.62467    0.79999    1.000
    O185     O        0.44466    0.62505    0.75514    1.000
    C62      C        0.46264    0.62610    0.79569    1.000
    O186     O        0.43862    0.62790    0.83219    1.000
    O187     O        0.00705    0.12467    0.79999    1.000
    O188     O        0.94466    0.12505    0.75514    1.000
    C63      C        0.96264    0.12610    0.79569    1.000
    O189     O        0.93862    0.12790    0.83219    1.000
    O190     O        0.00705    0.62467    0.29999    1.000
    O191     O        0.94466    0.62505    0.25514    1.000
    C64      C        0.96264    0.62610    0.29569    1.000
    O192     O        0.93862    0.62790    0.33219    1.000
    O193     O        0.12467    0.29999    0.50705    1.000
    O194     O        0.12505    0.25514    0.44466    1.000
    C65      C        0.12610    0.29569    0.46264    1.000
    O195     O        0.12790    0.33219    0.43862    1.000
    O196     O        0.12467    0.79999    0.00705    1.000
    O197     O        0.12505    0.75514    0.94466    1.000
    C66      C        0.12610    0.79569    0.96264    1.000
    O198     O        0.12790    0.83219    0.93862    1.000
    O199     O        0.62467    0.29999    0.00705    1.000
    O200     O        0.62505    0.25514    0.94466    1.000
    C67      C        0.62610    0.29569    0.96264    1.000
    O201     O        0.62790    0.33219    0.93862    1.000
    O202     O        0.62467    0.79999    0.50705    1.000
    O203     O        0.62505    0.75514    0.44466    1.000
    C68      C        0.62610    0.79569    0.46264    1.000
    O204     O        0.62790    0.83219    0.43862    1.000
    O205     O        0.62533    0.79999    0.74295    1.000
    O206     O        0.62495    0.75514    0.80534    1.000
    C69      C        0.62390    0.79569    0.78736    1.000
    O207     O        0.62210    0.83219    0.81138    1.000
    O208     O        0.62533    0.29999    0.24295    1.000
    O209     O        0.62495    0.25514    0.30534    1.000
    C70      C        0.62390    0.29569    0.28736    1.000
    O210     O        0.62210    0.33219    0.31138    1.000
    O211     O        0.12533    0.79999    0.24295    1.000
    O212     O        0.12495    0.75514    0.30534    1.000
    C71      C        0.12390    0.79569    0.28736    1.000
    O213     O        0.12210    0.83219    0.31138    1.000
    O214     O        0.12533    0.29999    0.74295    1.000
    O215     O        0.12495    0.25514    0.80534    1.000
    C72      C        0.12390    0.29569    0.78736    1.000
    O216     O        0.12210    0.33219    0.81138    1.000
    O217     O        0.12533    0.45001    0.00705    1.000
    O218     O        0.12495    0.49486    0.94466    1.000
    C73      C        0.12390    0.45431    0.96264    1.000
    O219     O        0.12210    0.41781    0.93862    1.000
    O220     O        0.12533    0.95001    0.50705    1.000
    O221     O        0.12495    0.99486    0.44466    1.000
    C74      C        0.12390    0.95431    0.46264    1.000
    O222     O        0.12210    0.91781    0.43862    1.000
    O223     O        0.62533    0.45001    0.50705    1.000
    O224     O        0.62495    0.49486    0.44466    1.000
    C75      C        0.62390    0.45431    0.46264    1.000
    O225     O        0.62210    0.41781    0.43862    1.000
    O226     O        0.62533    0.95001    0.00705    1.000
    O227     O        0.62495    0.99486    0.94466    1.000
    C76      C        0.62390    0.95431    0.96264    1.000
    O228     O        0.62210    0.91781    0.93862    1.000
    O229     O        0.62467    0.95001    0.24295    1.000
    O230     O        0.62505    0.99486    0.30534    1.000
    C77      C        0.62610    0.95431    0.28736    1.000
    O231     O        0.62790    0.91781    0.31138    1.000
    O232     O        0.62467    0.45001    0.74295    1.000
    O233     O        0.62505    0.49486    0.80534    1.000
    C78      C        0.62610    0.45431    0.78736    1.000
    O234     O        0.62790    0.41781    0.81138    1.000
    O235     O        0.12467    0.95001    0.74295    1.000
    O236     O        0.12505    0.99486    0.80534    1.000
    C79      C        0.12610    0.95431    0.78736    1.000
    O237     O        0.12790    0.91781    0.81138    1.000
    O238     O        0.12467    0.45001    0.24295    1.000
    O239     O        0.12505    0.49486    0.30534    1.000
    C80      C        0.12610    0.45431    0.28736    1.000
    O240     O        0.12790    0.41781    0.31138    1.000
    O241     O        0.79999    0.74295    0.62533    1.000
    O242     O        0.75514    0.80534    0.62495    1.000
    C81      C        0.79569    0.78736    0.62390    1.000
    O243     O        0.83219    0.81138    0.62210    1.000
    O244     O        0.79999    0.24295    0.12533    1.000
    O245     O        0.75514    0.30534    0.12495    1.000
    C82      C        0.79569    0.28736    0.12390    1.000
    O246     O        0.83219    0.31138    0.12210    1.000
    O247     O        0.29999    0.74295    0.12533    1.000
    O248     O        0.25514    0.80534    0.12495    1.000
    C83      C        0.29569    0.78736    0.12390    1.000
    O249     O        0.33219    0.81138    0.12210    1.000
    O250     O        0.29999    0.24295    0.62533    1.000
    O251     O        0.25514    0.30534    0.62495    1.000
    C84      C        0.29569    0.28736    0.62390    1.000
    O252     O        0.33219    0.31138    0.62210    1.000
    O253     O        0.29999    0.50705    0.12467    1.000
    O254     O        0.25514    0.44466    0.12505    1.000
    C85      C        0.29569    0.46264    0.12610    1.000
    O255     O        0.33219    0.43862    0.12790    1.000
    O256     O        0.29999    0.00705    0.62467    1.000
    O257     O        0.25514    0.94466    0.62505    1.000
    C86      C        0.29569    0.96264    0.62610    1.000
    O258     O        0.33219    0.93862    0.62790    1.000
    O259     O        0.79999    0.50705    0.62467    1.000
    O260     O        0.75514    0.44466    0.62505    1.000
    C87      C        0.79569    0.46264    0.62610    1.000
    O261     O        0.83219    0.43862    0.62790    1.000
    O262     O        0.79999    0.00705    0.12467    1.000
    O263     O        0.75514    0.94466    0.12505    1.000
    C88      C        0.79569    0.96264    0.12610    1.000
    O264     O        0.83219    0.93862    0.12790    1.000
    O265     O        0.95001    0.24295    0.62467    1.000
    O266     O        0.99486    0.30534    0.62505    1.000
    C89      C        0.95431    0.28736    0.62610    1.000
    O267     O        0.91781    0.31138    0.62790    1.000
    O268     O        0.95001    0.74295    0.12467    1.000
    O269     O        0.99486    0.80534    0.12505    1.000
    C90      C        0.95431    0.78736    0.12610    1.000
    O270     O        0.91781    0.81138    0.12790    1.000
    O271     O        0.45001    0.24295    0.12467    1.000
    O272     O        0.49486    0.30534    0.12505    1.000
    C91      C        0.45431    0.28736    0.12610    1.000
    O273     O        0.41781    0.31138    0.12790    1.000
    O274     O        0.45001    0.74295    0.62467    1.000
    O275     O        0.49486    0.80534    0.62505    1.000
    C92      C        0.45431    0.78736    0.62610    1.000
    O276     O        0.41781    0.81138    0.62790    1.000
    O277     O        0.45001    0.00705    0.12533    1.000
    O278     O        0.49486    0.94466    0.12495    1.000
    C93      C        0.45431    0.96264    0.12390    1.000
    O279     O        0.41781    0.93862    0.12210    1.000
    O280     O        0.45001    0.50705    0.62533    1.000
    O281     O        0.49486    0.44466    0.62495    1.000
    C94      C        0.45431    0.46264    0.62390    1.000
    O282     O        0.41781    0.43862    0.62210    1.000
    O283     O        0.95001    0.00705    0.62533    1.000
    O284     O        0.99486    0.94466    0.62495    1.000
    C95      C        0.95431    0.96264    0.62390    1.000
    O285     O        0.91781    0.93862    0.62210    1.000
    O286     O        0.95001    0.50705    0.12533    1.000
    O287     O        0.99486    0.44466    0.12495    1.000
    C96      C        0.95431    0.46264    0.12390    1.000
    O288     O        0.91781    0.43862    0.12210    1.000
    O289     O        0.62533    0.50705    0.95001    1.000
    O290     O        0.62495    0.44466    0.99486    1.000
    C97      C        0.62390    0.46264    0.95431    1.000
    O291     O        0.62210    0.43862    0.91781    1.000
    O292     O        0.62533    0.00705    0.45001    1.000
    O293     O        0.62495    0.94466    0.49486    1.000
    C98      C        0.62390    0.96264    0.45431    1.000
    O294     O        0.62210    0.93862    0.41781    1.000
    O295     O        0.12533    0.50705    0.45001    1.000
    O296     O        0.12495    0.44466    0.49486    1.000
    C99      C        0.12390    0.46264    0.45431    1.000
    O297     O        0.12210    0.43862    0.41781    1.000
    O298     O        0.12533    0.00705    0.95001    1.000
    O299     O        0.12495    0.94466    0.99486    1.000
    C100     C        0.12390    0.96264    0.95431    1.000
    O300     O        0.12210    0.93862    0.91781    1.000
    O301     O        0.12467    0.74295    0.45001    1.000
    O302     O        0.12505    0.80534    0.49486    1.000
    C101     C        0.12610    0.78736    0.45431    1.000
    O303     O        0.12790    0.81138    0.41781    1.000
    O304     O        0.12467    0.24295    0.95001    1.000
    O305     O        0.12505    0.30534    0.99486    1.000
    C102     C        0.12610    0.28736    0.95431    1.000
    O306     O        0.12790    0.31138    0.91781    1.000
    O307     O        0.62467    0.74295    0.95001    1.000
    O308     O        0.62505    0.80534    0.99486    1.000
    C103     C        0.62610    0.78736    0.95431    1.000
    O309     O        0.62790    0.81138    0.91781    1.000
    O310     O        0.62467    0.24295    0.45001    1.000
    O311     O        0.62505    0.30534    0.49486    1.000
    C104     C        0.62610    0.28736    0.45431    1.000
    O312     O        0.62790    0.31138    0.41781    1.000
    O313     O        0.62467    0.00705    0.79999    1.000
    O314     O        0.62505    0.94466    0.75514    1.000
    C105     C        0.62610    0.96264    0.79569    1.000
    O315     O        0.62790    0.93862    0.83219    1.000
    O316     O        0.62467    0.50705    0.29999    1.000
    O317     O        0.62505    0.44466    0.25514    1.000
    C106     C        0.62610    0.46264    0.29569    1.000
    O318     O        0.62790    0.43862    0.33219    1.000
    O319     O        0.12467    0.00705    0.29999    1.000
    O320     O        0.12505    0.94466    0.25514    1.000
    C107     C        0.12610    0.96264    0.29569    1.000
    O321     O        0.12790    0.93862    0.33219    1.000
    O322     O        0.12467    0.50705    0.79999    1.000
    O323     O        0.12505    0.44466    0.75514    1.000
    C108     C        0.12610    0.46264    0.79569    1.000
    O324     O        0.12790    0.43862    0.83219    1.000
    O325     O        0.12533    0.24295    0.29999    1.000
    O326     O        0.12495    0.30534    0.25514    1.000
    C109     C        0.12390    0.28736    0.29569    1.000
    O327     O        0.12210    0.31138    0.33219    1.000
    O328     O        0.12533    0.74295    0.79999    1.000
    O329     O        0.12495    0.80534    0.75514    1.000
    C110     C        0.12390    0.78736    0.79569    1.000
    O330     O        0.12210    0.81138    0.83219    1.000
    O331     O        0.62533    0.24295    0.79999    1.000
    O332     O        0.62495    0.30534    0.75514    1.000
    C111     C        0.62390    0.28736    0.79569    1.000
    O333     O        0.62210    0.31138    0.83219    1.000
    O334     O        0.62533    0.74295    0.29999    1.000
    O335     O        0.62495    0.80534    0.25514    1.000
    C112     C        0.62390    0.78736    0.29569    1.000
    O336     O        0.62210    0.81138    0.33219    1.000
    O337     O        0.95001    0.62533    0.50705    1.000
    O338     O        0.99486    0.62495    0.44466    1.000
    C113     C        0.95431    0.62390    0.46264    1.000
    O339     O        0.91781    0.62210    0.43862    1.000
    O340     O        0.95001    0.12533    0.00705    1.000
    O341     O        0.99486    0.12495    0.94466    1.000
    C114     C        0.95431    0.12390    0.96264    1.000
    O342     O        0.91781    0.12210    0.93862    1.000
    O343     O        0.45001    0.62533    0.00705    1.000
    O344     O        0.49486    0.62495    0.94466    1.000
    C115     C        0.45431    0.62390    0.96264    1.000
    O345     O        0.41781    0.62210    0.93862    1.000
    O346     O        0.45001    0.12533    0.50705    1.000
    O347     O        0.49486    0.12495    0.44466    1.000
    C116     C        0.45431    0.12390    0.46264    1.000
    O348     O        0.41781    0.12210    0.43862    1.000
    O349     O        0.45001    0.12467    0.74295    1.000
    O350     O        0.49486    0.12505    0.80534    1.000
    C117     C        0.45431    0.12610    0.78736    1.000
    O351     O        0.41781    0.12790    0.81138    1.000
    O352     O        0.45001    0.62467    0.24295    1.000
    O353     O        0.49486    0.62505    0.30534    1.000
    C118     C        0.45431    0.62610    0.28736    1.000
    O354     O        0.41781    0.62790    0.31138    1.000
    O355     O        0.95001    0.12467    0.24295    1.000
    O356     O        0.99486    0.12505    0.30534    1.000
    C119     C        0.95431    0.12610    0.28736    1.000
    O357     O        0.91781    0.12790    0.31138    1.000
    O358     O        0.95001    0.62467    0.74295    1.000
    O359     O        0.99486    0.62505    0.80534    1.000
    C120     C        0.95431    0.62610    0.78736    1.000
    O360     O        0.91781    0.62790    0.81138    1.000
    O361     O        0.79999    0.62467    0.00705    1.000
    O362     O        0.75514    0.62505    0.94466    1.000
    C121     C        0.79569    0.62610    0.96264    1.000
    O363     O        0.83219    0.62790    0.93862    1.000
    O364     O        0.79999    0.12467    0.50705    1.000
    O365     O        0.75514    0.12505    0.44466    1.000
    C122     C        0.79569    0.12610    0.46264    1.000
    O366     O        0.83219    0.12790    0.43862    1.000
    O367     O        0.29999    0.62467    0.50705    1.000
    O368     O        0.25514    0.62505    0.44466    1.000
    C123     C        0.29569    0.62610    0.46264    1.000
    O369     O        0.33219    0.62790    0.43862    1.000
    O370     O        0.29999    0.12467    0.00705    1.000
    O371     O        0.25514    0.12505    0.94466    1.000
    C124     C        0.29569    0.12610    0.96264    1.000
    O372     O        0.33219    0.12790    0.93862    1.000
    O373     O        0.29999    0.12533    0.24295    1.000
    O374     O        0.25514    0.12495    0.30534    1.000
    C125     C        0.29569    0.12390    0.28736    1.000
    O375     O        0.33219    0.12210    0.31138    1.000
    O376     O        0.29999    0.62533    0.74295    1.000
    O377     O        0.25514    0.62495    0.80534    1.000
    C126     C        0.29569    0.62390    0.78736    1.000
    O378     O        0.33219    0.62210    0.81138    1.000
    O379     O        0.79999    0.12533    0.74295    1.000
    O380     O        0.75514    0.12495    0.80534    1.000
    C127     C        0.79569    0.12390    0.78736    1.000
    O381     O        0.83219    0.12210    0.81138    1.000
    O382     O        0.79999    0.62533    0.24295    1.000
    O383     O        0.75514    0.62495    0.30534    1.000
    C128     C        0.79569    0.62390    0.28736    1.000
    O384     O        0.83219    0.62210    0.31138    1.000
    O385     O        0.50705    0.95001    0.62533    1.000
    O386     O        0.44466    0.99486    0.62495    1.000
    C129     C        0.46264    0.95431    0.62390    1.000
    O387     O        0.43862    0.91781    0.62210    1.000
    O388     O        0.50705    0.45001    0.12533    1.000
    O389     O        0.44466    0.49486    0.12495    1.000
    C130     C        0.46264    0.45431    0.12390    1.000
    O390     O        0.43862    0.41781    0.12210    1.000
    O391     O        0.00705    0.95001    0.12533    1.000
    O392     O        0.94466    0.99486    0.12495    1.000
    C131     C        0.96264    0.95431    0.12390    1.000
    O393     O        0.93862    0.91781    0.12210    1.000
    O394     O        0.00705    0.45001    0.62533    1.000
    O395     O        0.94466    0.49486    0.62495    1.000
    C132     C        0.96264    0.45431    0.62390    1.000
    O396     O        0.93862    0.41781    0.62210    1.000
    O397     O        0.74295    0.45001    0.12467    1.000
    O398     O        0.80534    0.49486    0.12505    1.000
    C133     C        0.78736    0.45431    0.12610    1.000
    O399     O        0.81138    0.41781    0.12790    1.000
    O400     O        0.74295    0.95001    0.62467    1.000
    O401     O        0.80534    0.99486    0.62505    1.000
    C134     C        0.78736    0.95431    0.62610    1.000
    O402     O        0.81138    0.91781    0.62790    1.000
    O403     O        0.24295    0.45001    0.62467    1.000
    O404     O        0.30534    0.49486    0.62505    1.000
    C135     C        0.28736    0.45431    0.62610    1.000
    O405     O        0.31138    0.41781    0.62790    1.000
    O406     O        0.24295    0.95001    0.12467    1.000
    O407     O        0.30534    0.99486    0.12505    1.000
    C136     C        0.28736    0.95431    0.12610    1.000
    O408     O        0.31138    0.91781    0.12790    1.000
    O409     O        0.00705    0.79999    0.62467    1.000
    O410     O        0.94466    0.75514    0.62505    1.000
    C137     C        0.96264    0.79569    0.62610    1.000
    O411     O        0.93862    0.83219    0.62790    1.000
    O412     O        0.00705    0.29999    0.12467    1.000
    O413     O        0.94466    0.25514    0.12505    1.000
    C138     C        0.96264    0.29569    0.12610    1.000
    O414     O        0.93862    0.33219    0.12790    1.000
    O415     O        0.50705    0.79999    0.12467    1.000
    O416     O        0.44466    0.75514    0.12505    1.000
    C139     C        0.46264    0.79569    0.12610    1.000
    O417     O        0.43862    0.83219    0.12790    1.000
    O418     O        0.50705    0.29999    0.62467    1.000
    O419     O        0.44466    0.25514    0.62505    1.000
    C140     C        0.46264    0.29569    0.62610    1.000
    O420     O        0.43862    0.33219    0.62790    1.000
    O421     O        0.24295    0.29999    0.12533    1.000
    O422     O        0.30534    0.25514    0.12495    1.000
    C141     C        0.28736    0.29569    0.12390    1.000
    O423     O        0.31138    0.33219    0.12210    1.000
    O424     O        0.24295    0.79999    0.62533    1.000
    O425     O        0.30534    0.75514    0.62495    1.000
    C142     C        0.28736    0.79569    0.62390    1.000
    O426     O        0.31138    0.83219    0.62210    1.000
    O427     O        0.74295    0.29999    0.62533    1.000
    O428     O        0.80534    0.25514    0.62495    1.000
    C143     C        0.78736    0.29569    0.62390    1.000
    O429     O        0.81138    0.33219    0.62210    1.000
    O430     O        0.74295    0.79999    0.12533    1.000
    O431     O        0.80534    0.75514    0.12495    1.000
    C144     C        0.78736    0.79569    0.12390    1.000
    O432     O        0.81138    0.83219    0.12210    1.000
    O433     O        0.75705    0.37533    0.04999    1.000
    O434     O        0.69466    0.37495    0.00514    1.000
    C145     C        0.71264    0.37390    0.04569    1.000
    O435     O        0.68862    0.37210    0.08219    1.000
    O436     O        0.75705    0.87533    0.54999    1.000
    O437     O        0.69466    0.87495    0.50514    1.000
    C146     C        0.71264    0.87390    0.54569    1.000
    O438     O        0.68862    0.87210    0.58219    1.000
    O439     O        0.25705    0.37533    0.54999    1.000
    O440     O        0.19466    0.37495    0.50514    1.000
    C147     C        0.21264    0.37390    0.54569    1.000
    O441     O        0.18862    0.37210    0.58219    1.000
    O442     O        0.25705    0.87533    0.04999    1.000
    O443     O        0.19466    0.87495    0.00514    1.000
    C148     C        0.21264    0.87390    0.04569    1.000
    O444     O        0.18862    0.87210    0.08219    1.000
    O445     O        0.99295    0.87467    0.54999    1.000
    O446     O        0.05534    0.87505    0.50514    1.000
    C149     C        0.03736    0.87610    0.54569    1.000
    O447     O        0.06138    0.87790    0.58219    1.000
    O448     O        0.99295    0.37467    0.04999    1.000
    O449     O        0.05534    0.37505    0.00514    1.000
    C150     C        0.03736    0.37610    0.04569    1.000
    O450     O        0.06138    0.37790    0.08219    1.000
    O451     O        0.49295    0.87467    0.04999    1.000
    O452     O        0.55534    0.87505    0.00514    1.000
    C151     C        0.53736    0.87610    0.04569    1.000
    O453     O        0.56138    0.87790    0.08219    1.000
    O454     O        0.49295    0.37467    0.54999    1.000
    O455     O        0.55534    0.37505    0.50514    1.000
    C152     C        0.53736    0.37610    0.54569    1.000
    O456     O        0.56138    0.37790    0.58219    1.000
    O457     O        0.25705    0.37467    0.20001    1.000
    O458     O        0.19466    0.37505    0.24486    1.000
    C153     C        0.21264    0.37610    0.20431    1.000
    O459     O        0.18862    0.37790    0.16781    1.000
    O460     O        0.25705    0.87467    0.70001    1.000
    O461     O        0.19466    0.87505    0.74486    1.000
    C154     C        0.21264    0.87610    0.70431    1.000
    O462     O        0.18862    0.87790    0.66781    1.000
    O463     O        0.75705    0.37467    0.70001    1.000
    O464     O        0.69466    0.37505    0.74486    1.000
    C155     C        0.71264    0.37610    0.70431    1.000
    O465     O        0.68862    0.37790    0.66781    1.000
    O466     O        0.75705    0.87467    0.20001    1.000
    O467     O        0.69466    0.87505    0.24486    1.000
    C156     C        0.71264    0.87610    0.20431    1.000
    O468     O        0.68862    0.87790    0.16781    1.000
    O469     O        0.49295    0.87533    0.70001    1.000
    O470     O        0.55534    0.87495    0.74486    1.000
    C157     C        0.53736    0.87390    0.70431    1.000
    O471     O        0.56138    0.87210    0.66781    1.000
    O472     O        0.49295    0.37533    0.20001    1.000
    O473     O        0.55534    0.37495    0.24486    1.000
    C158     C        0.53736    0.37390    0.20431    1.000
    O474     O        0.56138    0.37210    0.16781    1.000
    O475     O        0.99295    0.87533    0.20001    1.000
    O476     O        0.05534    0.87495    0.24486    1.000
    C159     C        0.03736    0.87390    0.20431    1.000
    O477     O        0.06138    0.87210    0.16781    1.000
    O478     O        0.99295    0.37533    0.70001    1.000
    O479     O        0.05534    0.37495    0.74486    1.000
    C160     C        0.03736    0.37390    0.70431    1.000
    O480     O        0.06138    0.37210    0.66781    1.000
    O481     O        0.87533    0.70001    0.49295    1.000
    O482     O        0.87495    0.74486    0.55534    1.000
    C161     C        0.87390    0.70431    0.53736    1.000
    O483     O        0.87210    0.66781    0.56138    1.000
    O484     O        0.87533    0.20001    0.99295    1.000
    O485     O        0.87495    0.24486    0.05534    1.000
    C162     C        0.87390    0.20431    0.03736    1.000
    O486     O        0.87210    0.16781    0.06138    1.000
    O487     O        0.37533    0.70001    0.99295    1.000
    O488     O        0.37495    0.74486    0.05534    1.000
    C163     C        0.37390    0.70431    0.03736    1.000
    O489     O        0.37210    0.66781    0.06138    1.000
    O490     O        0.37533    0.20001    0.49295    1.000
    O491     O        0.37495    0.24486    0.55534    1.000
    C164     C        0.37390    0.20431    0.53736    1.000
    O492     O        0.37210    0.16781    0.56138    1.000
    O493     O        0.37467    0.20001    0.25705    1.000
    O494     O        0.37505    0.24486    0.19466    1.000
    C165     C        0.37610    0.20431    0.21264    1.000
    O495     O        0.37790    0.16781    0.18862    1.000
    O496     O        0.37467    0.70001    0.75705    1.000
    O497     O        0.37505    0.74486    0.69466    1.000
    C166     C        0.37610    0.70431    0.71264    1.000
    O498     O        0.37790    0.66781    0.68862    1.000
    O499     O        0.87467    0.20001    0.75705    1.000
    O500     O        0.87505    0.24486    0.69466    1.000
    C167     C        0.87610    0.20431    0.71264    1.000
    O501     O        0.87790    0.16781    0.68862    1.000
    O502     O        0.87467    0.70001    0.25705    1.000
    O503     O        0.87505    0.74486    0.19466    1.000
    C168     C        0.87610    0.70431    0.21264    1.000
    O504     O        0.87790    0.66781    0.18862    1.000
    O505     O        0.87467    0.54999    0.99295    1.000
    O506     O        0.87505    0.50514    0.05534    1.000
    C169     C        0.87610    0.54569    0.03736    1.000
    O507     O        0.87790    0.58219    0.06138    1.000
    O508     O        0.87467    0.04999    0.49295    1.000
    O509     O        0.87505    0.00514    0.55534    1.000
    C170     C        0.87610    0.04569    0.53736    1.000
    O510     O        0.87790    0.08219    0.56138    1.000
    O511     O        0.37467    0.54999    0.49295    1.000
    O512     O        0.37505    0.50514    0.55534    1.000
    C171     C        0.37610    0.54569    0.53736    1.000
    O513     O        0.37790    0.58219    0.56138    1.000
    O514     O        0.37467    0.04999    0.99295    1.000
    O515     O        0.37505    0.00514    0.05534    1.000
    C172     C        0.37610    0.04569    0.03736    1.000
    O516     O        0.37790    0.08219    0.06138    1.000
    O517     O        0.37533    0.04999    0.75705    1.000
    O518     O        0.37495    0.00514    0.69466    1.000
    C173     C        0.37390    0.04569    0.71264    1.000
    O519     O        0.37210    0.08219    0.68862    1.000
    O520     O        0.37533    0.54999    0.25705    1.000
    O521     O        0.37495    0.50514    0.19466    1.000
    C174     C        0.37390    0.54569    0.21264    1.000
    O522     O        0.37210    0.58219    0.18862    1.000
    O523     O        0.87533    0.04999    0.25705    1.000
    O524     O        0.87495    0.00514    0.19466    1.000
    C175     C        0.87390    0.04569    0.21264    1.000
    O525     O        0.87210    0.08219    0.18862    1.000
    O526     O        0.87533    0.54999    0.75705    1.000
    O527     O        0.87495    0.50514    0.69466    1.000
    C176     C        0.87390    0.54569    0.71264    1.000
    O528     O        0.87210    0.58219    0.68862    1.000
    O529     O        0.20001    0.25705    0.37467    1.000
    O530     O        0.24486    0.19466    0.37505    1.000
    C177     C        0.20431    0.21264    0.37610    1.000
    O531     O        0.16781    0.18862    0.37790    1.000
    O532     O        0.20001    0.75705    0.87467    1.000
    O533     O        0.24486    0.69466    0.87505    1.000
    C178     C        0.20431    0.71264    0.87610    1.000
    O534     O        0.16781    0.68862    0.87790    1.000
    O535     O        0.70001    0.25705    0.87467    1.000
    O536     O        0.74486    0.19466    0.87505    1.000
    C179     C        0.70431    0.21264    0.87610    1.000
    O537     O        0.66781    0.18862    0.87790    1.000
    O538     O        0.70001    0.75705    0.37467    1.000
    O539     O        0.74486    0.69466    0.37505    1.000
    C180     C        0.70431    0.71264    0.37610    1.000
    O540     O        0.66781    0.68862    0.37790    1.000
    O541     O        0.70001    0.49295    0.87533    1.000
    O542     O        0.74486    0.55534    0.87495    1.000
    C181     C        0.70431    0.53736    0.87390    1.000
    O543     O        0.66781    0.56138    0.87210    1.000
    O544     O        0.70001    0.99295    0.37533    1.000
    O545     O        0.74486    0.05534    0.37495    1.000
    C182     C        0.70431    0.03736    0.37390    1.000
    O546     O        0.66781    0.06138    0.37210    1.000
    O547     O        0.20001    0.49295    0.37533    1.000
    O548     O        0.24486    0.55534    0.37495    1.000
    C183     C        0.20431    0.53736    0.37390    1.000
    O549     O        0.16781    0.56138    0.37210    1.000
    O550     O        0.20001    0.99295    0.87533    1.000
    O551     O        0.24486    0.05534    0.87495    1.000
    C184     C        0.20431    0.03736    0.87390    1.000
    O552     O        0.16781    0.06138    0.87210    1.000
    O553     O        0.04999    0.75705    0.37533    1.000
    O554     O        0.00514    0.69466    0.37495    1.000
    C185     C        0.04569    0.71264    0.37390    1.000
    O555     O        0.08219    0.68862    0.37210    1.000
    O556     O        0.04999    0.25705    0.87533    1.000
    O557     O        0.00514    0.19466    0.87495    1.000
    C186     C        0.04569    0.21264    0.87390    1.000
    O558     O        0.08219    0.18862    0.87210    1.000
    O559     O        0.54999    0.75705    0.87533    1.000
    O560     O        0.50514    0.69466    0.87495    1.000
    C187     C        0.54569    0.71264    0.87390    1.000
    O561     O        0.58219    0.68862    0.87210    1.000
    O562     O        0.54999    0.25705    0.37533    1.000
    O563     O        0.50514    0.19466    0.37495    1.000
    C188     C        0.54569    0.21264    0.37390    1.000
    O564     O        0.58219    0.18862    0.37210    1.000
    O565     O        0.54999    0.99295    0.87467    1.000
    O566     O        0.50514    0.05534    0.87505    1.000
    C189     C        0.54569    0.03736    0.87610    1.000
    O567     O        0.58219    0.06138    0.87790    1.000
    O568     O        0.54999    0.49295    0.37467    1.000
    O569     O        0.50514    0.55534    0.37505    1.000
    C190     C        0.54569    0.53736    0.37610    1.000
    O570     O        0.58219    0.56138    0.37790    1.000
    O571     O        0.04999    0.99295    0.37467    1.000
    O572     O        0.00514    0.05534    0.37505    1.000
    C191     C        0.04569    0.03736    0.37610    1.000
    O573     O        0.08219    0.06138    0.37790    1.000
    O574     O        0.04999    0.49295    0.87467    1.000
    O575     O        0.00514    0.55534    0.87505    1.000
    C192     C        0.04569    0.53736    0.87610    1.000
    O576     O        0.08219    0.56138    0.87790    1.000
    Mg1      Mg       0.37412    0.50000    0.12412    1.000
    Mg2      Mg       0.37412    0.00000    0.62412    1.000
    Mg3      Mg       0.87412    0.50000    0.62412    1.000
    Mg4      Mg       0.87412    0.00000    0.12412    1.000
    Mg5      Mg       0.87588    0.25000    0.62412    1.000
    Mg6      Mg       0.87588    0.75000    0.12412    1.000
    Mg7      Mg       0.37588    0.25000    0.12412    1.000
    Mg8      Mg       0.37588    0.75000    0.62412    1.000
    Mg9      Mg       0.37588    0.00000    0.12588    1.000
    Mg10     Mg       0.37588    0.50000    0.62588    1.000
    Mg11     Mg       0.87588    0.00000    0.62588    1.000
    Mg12     Mg       0.87588    0.50000    0.12588    1.000
    Mg13     Mg       0.87412    0.75000    0.62588    1.000
    Mg14     Mg       0.87412    0.25000    0.12588    1.000
    Mg15     Mg       0.37412    0.75000    0.12588    1.000
    Mg16     Mg       0.37412    0.25000    0.62588    1.000
    Mg17     Mg       0.12412    0.37412    0.50000    1.000
    Mg18     Mg       0.12412    0.87412    0.00000    1.000
    Mg19     Mg       0.62412    0.37412    0.00000    1.000
    Mg20     Mg       0.62412    0.87412    0.50000    1.000
    Mg21     Mg       0.62412    0.87588    0.25000    1.000
    Mg22     Mg       0.62412    0.37588    0.75000    1.000
    Mg23     Mg       0.12412    0.87588    0.75000    1.000
    Mg24     Mg       0.12412    0.37588    0.25000    1.000
    Mg25     Mg       0.12588    0.37588    0.00000    1.000
    Mg26     Mg       0.12588    0.87588    0.50000    1.000
    Mg27     Mg       0.62588    0.37588    0.50000    1.000
    Mg28     Mg       0.62588    0.87588    0.00000    1.000
    Mg29     Mg       0.62588    0.87412    0.75000    1.000
    Mg30     Mg       0.62588    0.37412    0.25000    1.000
    Mg31     Mg       0.12588    0.87412    0.25000    1.000
    Mg32     Mg       0.12588    0.37412    0.75000    1.000
    Mg33     Mg       0.50000    0.12412    0.37412    1.000
    Mg34     Mg       0.50000    0.62412    0.87412    1.000
    Mg35     Mg       0.00000    0.12412    0.87412    1.000
    Mg36     Mg       0.00000    0.62412    0.37412    1.000
    Mg37     Mg       0.25000    0.62412    0.87588    1.000
    Mg38     Mg       0.25000    0.12412    0.37588    1.000
    Mg39     Mg       0.75000    0.62412    0.37588    1.000
    Mg40     Mg       0.75000    0.12412    0.87588    1.000
    Mg41     Mg       0.00000    0.12588    0.37588    1.000
    Mg42     Mg       0.00000    0.62588    0.87588    1.000
    Mg43     Mg       0.50000    0.12588    0.87588    1.000
    Mg44     Mg       0.50000    0.62588    0.37588    1.000
    Mg45     Mg       0.75000    0.62588    0.87412    1.000
    Mg46     Mg       0.75000    0.12588    0.37412    1.000
    Mg47     Mg       0.25000    0.62588    0.37412    1.000
    Mg48     Mg       0.25000    0.12588    0.87412    1.000
    Mg49     Mg       0.62588    0.50000    0.87588    1.000
    Mg50     Mg       0.62588    0.00000    0.37588    1.000
    Mg51     Mg       0.12588    0.50000    0.37588    1.000
    Mg52     Mg       0.12588    0.00000    0.87588    1.000
    Mg53     Mg       0.12412    0.75000    0.37588    1.000
    Mg54     Mg       0.12412    0.25000    0.87588    1.000
    Mg55     Mg       0.62412    0.75000    0.87588    1.000
    Mg56     Mg       0.62412    0.25000    0.37588    1.000
    Mg57     Mg       0.62412    0.00000    0.87412    1.000
    Mg58     Mg       0.62412    0.50000    0.37412    1.000
    Mg59     Mg       0.12412    0.00000    0.37412    1.000
    Mg60     Mg       0.12412    0.50000    0.87412    1.000
    Mg61     Mg       0.12588    0.25000    0.37412    1.000
    Mg62     Mg       0.12588    0.75000    0.87412    1.000
    Mg63     Mg       0.62588    0.25000    0.87412    1.000
    Mg64     Mg       0.62588    0.75000    0.37412    1.000
    Mg65     Mg       0.87588    0.62588    0.50000    1.000
    Mg66     Mg       0.87588    0.12588    0.00000    1.000
    Mg67     Mg       0.37588    0.62588    0.00000    1.000
    Mg68     Mg       0.37588    0.12588    0.50000    1.000
    Mg69     Mg       0.37588    0.12412    0.75000    1.000
    Mg70     Mg       0.37588    0.62412    0.25000    1.000
    Mg71     Mg       0.87588    0.12412    0.25000    1.000
    Mg72     Mg       0.87588    0.62412    0.75000    1.000
    Mg73     Mg       0.87412    0.62412    0.00000    1.000
    Mg74     Mg       0.87412    0.12412    0.50000    1.000
    Mg75     Mg       0.37412    0.62412    0.50000    1.000
    Mg76     Mg       0.37412    0.12412    0.00000    1.000
    Mg77     Mg       0.37412    0.12588    0.25000    1.000
    Mg78     Mg       0.37412    0.62588    0.75000    1.000
    Mg79     Mg       0.87412    0.12588    0.75000    1.000
    Mg80     Mg       0.87412    0.62588    0.25000    1.000
    Mg81     Mg       0.50000    0.87588    0.62588    1.000
    Mg82     Mg       0.50000    0.37588    0.12588    1.000
    Mg83     Mg       0.00000    0.87588    0.12588    1.000
    Mg84     Mg       0.00000    0.37588    0.62588    1.000
    Mg85     Mg       0.75000    0.37588    0.12412    1.000
    Mg86     Mg       0.75000    0.87588    0.62412    1.000
    Mg87     Mg       0.25000    0.37588    0.62412    1.000
    Mg88     Mg       0.25000    0.87588    0.12412    1.000
    Mg89     Mg       0.00000    0.87412    0.62412    1.000
    Mg90     Mg       0.00000    0.37412    0.12412    1.000
    Mg91     Mg       0.50000    0.87412    0.12412    1.000
    Mg92     Mg       0.50000    0.37412    0.62412    1.000
    Mg93     Mg       0.25000    0.37412    0.12588    1.000
    Mg94     Mg       0.25000    0.87412    0.62588    1.000
    Mg95     Mg       0.75000    0.37412    0.62588    1.000
    Mg96     Mg       0.75000    0.87412    0.12588    1.000
    Na1      Na       0.37500    0.62500    0.12500    1.000
    Na2      Na       0.87500    0.12500    0.62500    1.000
    Na3      Na       0.37500    0.12500    0.12500    1.000
    Na4      Na       0.37500    0.62500    0.62500    1.000
    Na5      Na       0.87500    0.62500    0.62500    1.000
    Na6      Na       0.87500    0.12500    0.12500    1.000
    Na7      Na       0.12500    0.37500    0.62500    1.000
    Na8      Na       0.12500    0.87500    0.12500    1.000
    Na9      Na       0.62500    0.87500    0.12500    1.000
    Na10     Na       0.62500    0.37500    0.62500    1.000
    Na11     Na       0.12500    0.37500    0.12500    1.000
    Na12     Na       0.62500    0.87500    0.62500    1.000
    Na13     Na       0.62500    0.12500    0.37500    1.000
    Na14     Na       0.12500    0.62500    0.87500    1.000
    Na15     Na       0.12500    0.12500    0.37500    1.000
    Na16     Na       0.62500    0.62500    0.87500    1.000
    Na17     Na       0.37500    0.62500    0.87500    1.000
    Na18     Na       0.87500    0.12500    0.37500    1.000
    Na19     Na       0.87500    0.62500    0.87500    1.000
    Na20     Na       0.37500    0.12500    0.37500    1.000
    Na21     Na       0.12500    0.37500    0.37500    1.000
    Na22     Na       0.12500    0.87500    0.87500    1.000
    Na23     Na       0.62500    0.87500    0.87500    1.000
    Na24     Na       0.62500    0.37500    0.37500    1.000
    Na25     Na       0.12500    0.37500    0.87500    1.000
    Na26     Na       0.62500    0.87500    0.37500    1.000
    Na27     Na       0.87500    0.87500    0.62500    1.000
    Na28     Na       0.37500    0.37500    0.12500    1.000
    Na29     Na       0.87500    0.37500    0.62500    1.000
    Na30     Na       0.87500    0.87500    0.12500    1.000
    Na31     Na       0.37500    0.87500    0.12500    1.000
    Na32     Na       0.37500    0.37500    0.62500    1.000
    Na33     Na       0.62500    0.37500    0.87500    1.000
    Na34     Na       0.12500    0.87500    0.37500    1.000
    Na35     Na       0.87500    0.62500    0.37500    1.000
    Na36     Na       0.87500    0.12500    0.87500    1.000
    Na37     Na       0.37500    0.12500    0.87500    1.000
    Na38     Na       0.37500    0.62500    0.37500    1.000
    Na39     Na       0.37500    0.87500    0.62500    1.000
    Na40     Na       0.87500    0.37500    0.12500    1.000
    Na41     Na       0.62500    0.37500    0.12500    1.000
    Na42     Na       0.12500    0.87500    0.62500    1.000
    Na43     Na       0.87500    0.62500    0.12500    1.000
    Na44     Na       0.37500    0.12500    0.62500    1.000
    Na45     Na       0.12500    0.62500    0.37500    1.000
    Na46     Na       0.12500    0.12500    0.87500    1.000
    Na47     Na       0.62500    0.12500    0.87500    1.000
    Na48     Na       0.62500    0.62500    0.37500    1.000
