# CIF file generated by openbabel 3.1.0, see https://openbabel.org
data_I
_chemical_name_common 'image0'
_cell_length_a 21.403
_cell_length_b 34.255
_cell_length_c 8.023
_cell_angle_alpha 90
_cell_angle_beta 90
_cell_angle_gamma 90
_space_group_name_H-M_alt 'P 1'
_space_group_name_Hall 'P 1'
loop_
    _symmetry_equiv_pos_as_xyz
    x,y,z
loop_
    _atom_site_label
    _atom_site_type_symbol
    _atom_site_fract_x
    _atom_site_fract_y
    _atom_site_fract_z
    _atom_site_occupancy
    C1       C        0.80750    0.91620    0.46200    1.000
    H1       H        0.84530    0.93050    0.47290    1.000
    C2       C        0.80910    0.87590    0.43300    1.000
    C3       C        0.86130    0.85490    0.45100    1.000
    C4       C        0.90940    0.83620    0.47800    1.000
    C5       C        0.96120    0.81580    0.50500    1.000
    C6       C        0.98900    0.79510    0.37500    1.000
    H2       H        0.97060    0.79550    0.26740    1.000
    C7       C        0.04300    0.77380    0.40400    1.000
    H3       H        0.06190    0.75970    0.31520    1.000
    C8       C        0.06980    0.77330    0.56200    1.000
    C9       C        0.04200    0.79400    0.69100    1.000
    H4       H        0.06040    0.79360    0.79910    1.000
    C10      C        0.98800    0.81530    0.66300    1.000
    H5       H        0.96910    0.82940    0.75140    1.000
    O1       O        0.15030    0.75220    0.77300    1.000
    O2       O        0.18800    0.76540    0.52800    1.000
    C11      C        0.13000    0.76180    0.64400    1.000
    C12      C        0.30750    0.41620    0.96200    1.000
    H6       H        0.34530    0.43050    0.97290    1.000
    C13      C        0.30910    0.37590    0.93300    1.000
    C14      C        0.36130    0.35490    0.95100    1.000
    C15      C        0.40940    0.33620    0.97800    1.000
    C16      C        0.46120    0.31580    0.00500    1.000
    C17      C        0.48900    0.29510    0.87500    1.000
    H7       H        0.47060    0.29550    0.76740    1.000
    C18      C        0.54300    0.27380    0.90400    1.000
    H8       H        0.56190    0.25970    0.81520    1.000
    C19      C        0.56980    0.27330    0.06200    1.000
    C20      C        0.54200    0.29400    0.19100    1.000
    H9       H        0.56040    0.29360    0.29910    1.000
    C21      C        0.48800    0.31530    0.16300    1.000
    H10      H        0.46910    0.32940    0.25140    1.000
    O3       O        0.65030    0.25220    0.27300    1.000
    O4       O        0.68800    0.26540    0.02800    1.000
    C22      C        0.63000    0.26180    0.14400    1.000
    C23      C        0.19250    0.08380    0.46200    1.000
    H11      H        0.15470    0.06950    0.47290    1.000
    C24      C        0.19090    0.12410    0.43300    1.000
    C25      C        0.13870    0.14510    0.45100    1.000
    C26      C        0.09060    0.16380    0.47800    1.000
    C27      C        0.03880    0.18420    0.50500    1.000
    C28      C        0.01100    0.20490    0.37500    1.000
    H12      H        0.02940    0.20450    0.26740    1.000
    C29      C        0.95700    0.22620    0.40400    1.000
    H13      H        0.93810    0.24030    0.31520    1.000
    C30      C        0.93020    0.22670    0.56200    1.000
    C31      C        0.95800    0.20600    0.69100    1.000
    H14      H        0.93960    0.20640    0.79910    1.000
    C32      C        0.01200    0.18470    0.66300    1.000
    H15      H        0.03090    0.17060    0.75140    1.000
    O5       O        0.84970    0.24780    0.77300    1.000
    O6       O        0.81200    0.23460    0.52800    1.000
    C33      C        0.87000    0.23820    0.64400    1.000
    C34      C        0.69250    0.58380    0.96200    1.000
    H16      H        0.65470    0.56950    0.97290    1.000
    C35      C        0.69090    0.62410    0.93300    1.000
    C36      C        0.63870    0.64510    0.95100    1.000
    C37      C        0.59060    0.66380    0.97800    1.000
    C38      C        0.53880    0.68420    0.00500    1.000
    C39      C        0.51100    0.70490    0.87500    1.000
    H17      H        0.52940    0.70450    0.76740    1.000
    C40      C        0.45700    0.72620    0.90400    1.000
    H18      H        0.43810    0.74030    0.81520    1.000
    C41      C        0.43020    0.72670    0.06200    1.000
    C42      C        0.45800    0.70600    0.19100    1.000
    H19      H        0.43960    0.70640    0.29910    1.000
    C43      C        0.51200    0.68470    0.16300    1.000
    H20      H        0.53090    0.67060    0.25140    1.000
    O7       O        0.34970    0.74780    0.27300    1.000
    O8       O        0.31200    0.73460    0.02800    1.000
    C44      C        0.37000    0.73820    0.14400    1.000
    C45      C        0.30750    0.08380    0.46200    1.000
    H21      H        0.34530    0.06950    0.47290    1.000
    C46      C        0.30910    0.12410    0.43300    1.000
    C47      C        0.36130    0.14510    0.45100    1.000
    C48      C        0.40940    0.16380    0.47800    1.000
    C49      C        0.46120    0.18420    0.50500    1.000
    C50      C        0.48900    0.20490    0.37500    1.000
    H22      H        0.47060    0.20450    0.26740    1.000
    C51      C        0.54300    0.22620    0.40400    1.000
    H23      H        0.56190    0.24030    0.31520    1.000
    C52      C        0.56980    0.22670    0.56200    1.000
    C53      C        0.54200    0.20600    0.69100    1.000
    H24      H        0.56040    0.20640    0.79910    1.000
    C54      C        0.48800    0.18470    0.66300    1.000
    H25      H        0.46910    0.17060    0.75140    1.000
    O9       O        0.65030    0.24780    0.77300    1.000
    O10      O        0.68800    0.23460    0.52800    1.000
    C55      C        0.63000    0.23820    0.64400    1.000
    C56      C        0.80750    0.58380    0.96200    1.000
    H26      H        0.84530    0.56950    0.97290    1.000
    C57      C        0.80910    0.62410    0.93300    1.000
    C58      C        0.86130    0.64510    0.95100    1.000
    C59      C        0.90940    0.66380    0.97800    1.000
    C60      C        0.96120    0.68420    0.00500    1.000
    C61      C        0.98900    0.70490    0.87500    1.000
    H27      H        0.97060    0.70450    0.76740    1.000
    C62      C        0.04300    0.72620    0.90400    1.000
    H28      H        0.06190    0.74030    0.81520    1.000
    C63      C        0.06980    0.72670    0.06200    1.000
    C64      C        0.04200    0.70600    0.19100    1.000
    H29      H        0.06040    0.70640    0.29910    1.000
    C65      C        0.98800    0.68470    0.16300    1.000
    H30      H        0.96910    0.67060    0.25140    1.000
    O11      O        0.15030    0.74780    0.27300    1.000
    O12      O        0.18800    0.73460    0.02800    1.000
    C66      C        0.13000    0.73820    0.14400    1.000
    C67      C        0.69250    0.91620    0.46200    1.000
    H31      H        0.65470    0.93050    0.47290    1.000
    C68      C        0.69090    0.87590    0.43300    1.000
    C69      C        0.63870    0.85490    0.45100    1.000
    C70      C        0.59060    0.83620    0.47800    1.000
    C71      C        0.53880    0.81580    0.50500    1.000
    C72      C        0.51100    0.79510    0.37500    1.000
    H32      H        0.52940    0.79550    0.26740    1.000
    C73      C        0.45700    0.77380    0.40400    1.000
    H33      H        0.43810    0.75970    0.31520    1.000
    C74      C        0.43020    0.77330    0.56200    1.000
    C75      C        0.45800    0.79400    0.69100    1.000
    H34      H        0.43960    0.79360    0.79910    1.000
    C76      C        0.51200    0.81530    0.66300    1.000
    H35      H        0.53090    0.82940    0.75140    1.000
    O13      O        0.34970    0.75220    0.77300    1.000
    O14      O        0.31200    0.76540    0.52800    1.000
    C77      C        0.37000    0.76180    0.64400    1.000
    C78      C        0.19250    0.41620    0.96200    1.000
    H36      H        0.15470    0.43050    0.97290    1.000
    C79      C        0.19090    0.37590    0.93300    1.000
    C80      C        0.13870    0.35490    0.95100    1.000
    C81      C        0.09060    0.33620    0.97800    1.000
    C82      C        0.03880    0.31580    0.00500    1.000
    C83      C        0.01100    0.29510    0.87500    1.000
    H37      H        0.02940    0.29550    0.76740    1.000
    C84      C        0.95700    0.27380    0.90400    1.000
    H38      H        0.93810    0.25970    0.81520    1.000
    C85      C        0.93020    0.27330    0.06200    1.000
    C86      C        0.95800    0.29400    0.19100    1.000
    H39      H        0.93960    0.29360    0.29910    1.000
    C87      C        0.01200    0.31530    0.16300    1.000
    H40      H        0.03090    0.32940    0.25140    1.000
    O15      O        0.84970    0.25220    0.27300    1.000
    O16      O        0.81200    0.26540    0.02800    1.000
    C88      C        0.87000    0.26180    0.14400    1.000
    C89      C        0.75000    0.17860    0.51900    1.000
    C90      C        0.75000    0.13680    0.50500    1.000
    C91      C        0.75000    0.11590    0.65400    1.000
    H41      H        0.75000    0.12930    0.75740    1.000
    C92      C        0.75000    0.07530    0.65100    1.000
    H42      H        0.75000    0.06100    0.75230    1.000
    C93      C        0.75000    0.05560    0.49900    1.000
    C94      C        0.75000    0.07650    0.35100    1.000
    H43      H        0.75000    0.06310    0.24720    1.000
    C95      C        0.75000    0.11710    0.35400    1.000
    H44      H        0.75000    0.13140    0.25230    1.000
    C96      C        0.75000    0.01300    0.49243    1.000
    C97      C        0.75000    0.97670    0.48700    1.000
    C98      C        0.75000    0.93520    0.47500    1.000
    C99      C        0.75000    0.85800    0.43200    1.000
    H45      H        0.75000    0.83030    0.43040    1.000
    O17      O        0.75000    0.19630    0.66600    1.000
    O18      O        0.75000    0.19710    0.38200    1.000
    Ho1      Ho       0.75000    0.23370    0.88300    1.000
    C100     C        0.25000    0.67860    0.01900    1.000
    C101     C        0.25000    0.63680    0.00500    1.000
    C102     C        0.25000    0.61590    0.15400    1.000
    H46      H        0.25000    0.62930    0.25740    1.000
    C103     C        0.25000    0.57530    0.15100    1.000
    H47      H        0.25000    0.56100    0.25230    1.000
    C104     C        0.25000    0.55560    0.99900    1.000
    C105     C        0.25000    0.57650    0.85100    1.000
    H48      H        0.25000    0.56310    0.74720    1.000
    C106     C        0.25000    0.61710    0.85400    1.000
    H49      H        0.25000    0.63140    0.75230    1.000
    C107     C        0.25000    0.51300    0.99243    1.000
    C108     C        0.25000    0.47670    0.98700    1.000
    C109     C        0.25000    0.43520    0.97500    1.000
    C110     C        0.25000    0.35800    0.93200    1.000
    H50      H        0.25000    0.33030    0.93040    1.000
    O19      O        0.25000    0.69630    0.16600    1.000
    O20      O        0.25000    0.69710    0.88200    1.000
    Ho2      Ho       0.25000    0.73370    0.38300    1.000
    C111     C        0.25000    0.82140    0.51900    1.000
    C112     C        0.25000    0.86320    0.50500    1.000
    C113     C        0.25000    0.88410    0.65400    1.000
    H51      H        0.25000    0.87070    0.75740    1.000
    C114     C        0.25000    0.92470    0.65100    1.000
    H52      H        0.25000    0.93900    0.75230    1.000
    C115     C        0.25000    0.94440    0.49900    1.000
    C116     C        0.25000    0.92350    0.35100    1.000
    H53      H        0.25000    0.93690    0.24720    1.000
    C117     C        0.25000    0.88290    0.35400    1.000
    H54      H        0.25000    0.86860    0.25230    1.000
    C118     C        0.25000    0.98700    0.49243    1.000
    C119     C        0.25000    0.02330    0.48700    1.000
    C120     C        0.25000    0.06480    0.47500    1.000
    C121     C        0.25000    0.14200    0.43200    1.000
    H55      H        0.25000    0.16970    0.43040    1.000
    O21      O        0.25000    0.80370    0.66600    1.000
    O22      O        0.25000    0.80290    0.38200    1.000
    Ho3      Ho       0.25000    0.76630    0.88300    1.000
    C122     C        0.75000    0.32140    0.01900    1.000
    C123     C        0.75000    0.36320    0.00500    1.000
    C124     C        0.75000    0.38410    0.15400    1.000
    H56      H        0.75000    0.37070    0.25740    1.000
    C125     C        0.75000    0.42470    0.15100    1.000
    H57      H        0.75000    0.43900    0.25230    1.000
    C126     C        0.75000    0.44440    0.99900    1.000
    C127     C        0.75000    0.42350    0.85100    1.000
    H58      H        0.75000    0.43690    0.74720    1.000
    C128     C        0.75000    0.38290    0.85400    1.000
    H59      H        0.75000    0.36860    0.75230    1.000
    C129     C        0.75000    0.48700    0.99243    1.000
    C130     C        0.75000    0.52330    0.98700    1.000
    C131     C        0.75000    0.56480    0.97500    1.000
    C132     C        0.75000    0.64200    0.93200    1.000
    H60      H        0.75000    0.66970    0.93040    1.000
    O23      O        0.75000    0.30370    0.16600    1.000
    O24      O        0.75000    0.30290    0.88200    1.000
    Ho4      Ho       0.75000    0.26630    0.38300    1.000
