data_functionalizedCrystal
_audit_creation_method	'EQeq! by Chris Wilmer'
_symmetry_space_group_name_H-M	'P1'
_symmetry_Int_Tables_number	1
_symmetry_cell_setting	triclinic
loop_
_symmetry_equiv_pos_as_xyz
  x,y,z
_cell_length_a	9.153
_cell_length_b	9.4866
_cell_length_c	11.1531
_cell_angle_alpha	90.929
_cell_angle_beta	99.746
_cell_angle_gamma	105.174
loop_
_atom_site_label
_atom_site_type_symbol
_atom_site_fract_x
_atom_site_fract_y
_atom_site_fract_z
_atom_site_charge
Mof_Cd	Cd	0.33839	0.13384	0.46713	0.432
Mof_Cd	Cd	0.49582	0.47679	0.64997	0.467
Mof_C 	C 	0.5755	0.7645	0.8033	0.271
Mof_C 	C 	0.634	0.8625	0.918	0.013
Mof_C 	C 	0.6481	0.8038	0.0313	-0.065
Mof_H 	H 	0.6255	0.7028	0.0363	0.08
Mof_C 	C 	0.6957	0.8949	0.1372	0.016
Mof_C 	C 	0.7011	0.8295	0.2595	0.286
Mof_C 	C 	0.6682	0.0141	0.9107	-0.169
Mof_H 	H 	0.6583	0.0543	0.8352	0.124
Mof_C 	C 	0.7301	0.0463	0.1301	-0.175
Mof_H 	H 	0.7614	0.1079	0.2007	0.117
Mof_C 	C 	0.717	0.1038	0.0165	0.231
Mof_C 	C 	0.8552	0.3526	0.0795	0.278
Mof_C 	C 	0.9918	0.3252	0.1302	-0.243
Mof_H 	H 	0.009	0.2346	0.1157	0.123
Mof_C 	C 	0.1043	0.4349	0.2035	0.097
Mof_H 	H 	0.1967	0.4167	0.2387	0.001
Mof_C 	C 	0.0807	0.5711	0.2248	-0.106
Mof_C 	C 	0.943	0.5964	0.1708	0.101
Mof_H 	H 	0.9263	0.6878	0.1829	0.014
Mof_C 	C 	0.8293	0.4869	0.0987	-0.237
Mof_H 	H 	0.7365	0.5043	0.0636	0.142
Mof_C 	C 	0.198	0.6874	0.3033	0.147
Mof_H 	H 	0.281	0.383	0.467	0.314
Mof_N 	N 	0.3426	0.6842	0.34746	-0.119
Mof_N 	N 	0.4071	0.8115	0.41474	-0.063
Mof_N 	N 	0.3056	0.8866	0.4103	-0.068
Mof_N 	N 	0.1716	0.8116	0.3407	-0.101
Mof_O 	O 	0.5385	0.8207	0.70492	-0.264
Mof_O 	O 	0.5617	0.62949	0.81386	-0.276
Mof_O 	O 	0.6588	0.693	0.2585	-0.283
Mof_O 	O 	0.748	0.9161	0.35397	-0.273
Mof_O 	O 	0.7393	0.25259	0.00175	-0.282
Mof_O 	O 	0.3601	0.37373	0.46863	-0.532
Mof_Cd	Cd	0.66161	0.86616	0.53287	0.433
Mof_Cd	Cd	0.50418	0.52321	0.35003	0.468
Mof_C 	C 	0.4245	0.2355	0.1967	0.272
Mof_C 	C 	0.366	0.1375	0.082	0.014
Mof_C 	C 	0.3519	0.1962	0.9687	-0.065
Mof_H 	H 	0.3745	0.2972	0.9637	0.08
Mof_C 	C 	0.3043	0.1051	0.8628	0.016
Mof_C 	C 	0.2989	0.1705	0.7405	0.286
Mof_C 	C 	0.3318	0.9859	0.0893	-0.169
Mof_H 	H 	0.3417	0.9457	0.1648	0.124
Mof_C 	C 	0.2699	0.9537	0.8699	-0.175
Mof_H 	H 	0.2386	0.8921	0.7993	0.117
Mof_C 	C 	0.283	0.8962	0.9835	0.231
Mof_C 	C 	0.1448	0.6474	0.9205	0.278
Mof_C 	C 	0.0082	0.6748	0.8698	-0.243
Mof_H 	H 	0.991	0.7654	0.8843	0.123
Mof_C 	C 	0.8957	0.5651	0.7965	0.097
Mof_H 	H 	0.8033	0.5833	0.7613	0.001
Mof_C 	C 	0.9193	0.4289	0.7752	-0.106
Mof_C 	C 	0.057	0.4036	0.8292	0.101
Mof_H 	H 	0.0737	0.3122	0.8171	0.014
Mof_C 	C 	0.1707	0.5131	0.9013	-0.237
Mof_H 	H 	0.2635	0.4957	0.9364	0.142
Mof_C 	C 	0.802	0.3126	0.6967	0.147
Mof_H 	H 	0.719	0.617	0.533	0.314
Mof_N 	N 	0.6574	0.3158	0.65254	-0.119
Mof_N 	N 	0.5929	0.1885	0.58526	-0.063
Mof_N 	N 	0.6944	0.1134	0.5897	-0.068
Mof_N 	N 	0.8284	0.1884	0.6593	-0.101
Mof_O 	O 	0.4615	0.1793	0.29508	-0.264
Mof_O 	O 	0.4383	0.37051	0.18614	-0.276
Mof_O 	O 	0.3412	0.307	0.7415	-0.283
Mof_O 	O 	0.252	0.0839	0.64603	-0.273
Mof_O 	O 	0.2607	0.74741	0.99825	-0.282
Mof_O 	O 	0.6399	0.62627	0.53137	-0.532
_end
