data_functionalizedCrystal
_audit_creation_method	'EQeq! by Chris Wilmer'
_symmetry_space_group_name_H-M	'P1'
_symmetry_Int_Tables_number	1
_symmetry_cell_setting	triclinic
loop_
_symmetry_equiv_pos_as_xyz
  x,y,z
_cell_length_a	25.2378
_cell_length_b	8.6872
_cell_length_c	18.8139
_cell_angle_alpha	90
_cell_angle_beta	130.447
_cell_angle_gamma	90
loop_
_atom_site_label
_atom_site_type_symbol
_atom_site_fract_x
_atom_site_fract_y
_atom_site_fract_z
_atom_site_charge
Mof_Co	Co	0.12867	0.20514	0.06328	1.113
Mof_N 	N 	0.185	0.044	0.0554	-0.241
Mof_O 	O 	0.0751	0.3419	0.0907	-0.552
Mof_O 	O 	0.1491	0.1757	0.1979	-0.386
Mof_O 	O 	0.0513	0.4614	0.4506	-0.438
Mof_O 	O 	0.0855	0.6937	0.4396	-0.463
Mof_O 	O 	0.0631	0.6727	0.1046	-0.404
Mof_O 	O 	0.1476	0.7949	0.2553	-0.256
Mof_O 	O 	0.1838	0.5836	0.2106	-0.279
Mof_S 	S 	0.12754	0.6514	0.20211	0.479
Mof_C 	C 	0.1101	0.2872	0.1737	0.321
Mof_C 	C 	0.1028	0.3609	0.239	-0.051
Mof_C 	C 	0.1071	0.5185	0.2537	-0.078
Mof_C 	C 	0.098	0.5792	0.3135	0.018
Mof_H 	H 	0.1015	0.6849	0.3237	0.044
Mof_C 	C 	0.0837	0.4827	0.3584	-0.11
Mof_C 	C 	0.08	0.3256	0.3439	0.005
Mof_H 	H 	0.0704	0.2604	0.3735	0.024
Mof_C 	C 	0.0904	0.264	0.2861	-0.056
Mof_H 	H 	0.0891	0.1579	0.2785	0.045
Mof_C 	C 	0.0722	0.5519	0.4207	0.36
Mof_C 	C 	0.2011	0.0687	0.0006	-0.11
Mof_H 	H 	0.1936	0.1668	0.9757	0.068
Mof_C 	C 	0.2272	0.9617	0.9796	0.08
Mof_H 	H 	0.2385	0.9873	0.9428	0.017
Mof_C 	C 	0.2373	0.8123	0.0127	-0.084
Mof_C 	C 	0.2218	0.7876	0.0705	-0.051
Mof_H 	H 	0.2284	0.6903	0.0957	0.061
Mof_C 	C 	0.1973	0.9032	0.0906	0.07
Mof_H 	H 	0.1886	0.883	0.1309	0.012
Mof_Co	Co	0.62867	0.70514	0.06328	1.124
Mof_N 	N 	0.685	0.544	0.0554	-0.233
Mof_O 	O 	0.5751	0.8419	0.0907	-0.521
Mof_O 	O 	0.6491	0.6757	0.1979	-0.373
Mof_O 	O 	0.5513	0.9614	0.4506	-0.37
Mof_O 	O 	0.5855	0.1937	0.4396	-0.436
Mof_O 	O 	0.5631	0.1727	0.1046	-0.39
Mof_O 	O 	0.6476	0.2949	0.2553	-0.26
Mof_O 	O 	0.6838	0.0836	0.2106	-0.293
Mof_S 	S 	0.62754	0.1514	0.20211	0.477
Mof_C 	C 	0.6101	0.7872	0.1737	0.32
Mof_C 	C 	0.6028	0.8609	0.239	-0.022
Mof_C 	C 	0.6071	0.0185	0.2537	-0.083
Mof_C 	C 	0.598	0.0792	0.3135	-0.049
Mof_H 	H 	0.6015	0.1849	0.3237	0.07
Mof_C 	C 	0.5837	0.9827	0.3584	0.002
Mof_C 	C 	0.58	0.8256	0.3439	-0.036
Mof_H 	H 	0.5704	0.7604	0.3735	0.057
Mof_C 	C 	0.5904	0.764	0.2861	-0.027
Mof_H 	H 	0.5891	0.6579	0.2785	0.052
Mof_C 	C 	0.5722	0.0519	0.4207	0.274
Mof_C 	C 	0.7011	0.5687	0.0006	-0.021
Mof_H 	H 	0.6936	0.6668	0.9757	0.041
Mof_C 	C 	0.7272	0.4617	0.9796	-0.001
Mof_H 	H 	0.7385	0.4873	0.9428	0.036
Mof_C 	C 	0.7373	0.3123	0.0127	-0.064
Mof_C 	C 	0.7218	0.2876	0.0705	-0.055
Mof_H 	H 	0.7284	0.1903	0.0957	0.058
Mof_C 	C 	0.6973	0.4032	0.0906	0.04
Mof_H 	H 	0.6886	0.383	0.1309	0.016
Mof_Co	Co	0.87133	0.20514	0.43672	1.126
Mof_N 	N 	0.815	0.044	0.4446	-0.267
Mof_O 	O 	0.9249	0.3419	0.4093	-0.507
Mof_O 	O 	0.8509	0.1757	0.3021	-0.378
Mof_O 	O 	0.9487	0.4614	0.0494	-0.389
Mof_O 	O 	0.9145	0.6937	0.0604	-0.437
Mof_O 	O 	0.9369	0.6727	0.3954	-0.345
Mof_O 	O 	0.8524	0.7949	0.2447	-0.241
Mof_O 	O 	0.8162	0.5836	0.2894	-0.277
Mof_S 	S 	0.87246	0.6514	0.29789	0.473
Mof_C 	C 	0.8899	0.2872	0.3263	0.325
Mof_C 	C 	0.8972	0.3609	0.261	-0.037
Mof_C 	C 	0.8929	0.5185	0.2463	-0.056
Mof_C 	C 	0.902	0.5792	0.1865	0.022
Mof_H 	H 	0.8985	0.6849	0.1763	0.06
Mof_C 	C 	0.9163	0.4827	0.1416	-0.081
Mof_C 	C 	0.92	0.3256	0.1561	0.011
Mof_H 	H 	0.9296	0.2604	0.1265	0.048
Mof_C 	C 	0.9096	0.264	0.2139	-0.034
Mof_H 	H 	0.9109	0.1579	0.2215	0.061
Mof_C 	C 	0.9278	0.5519	0.0793	0.364
Mof_C 	C 	0.7989	0.0687	0.4994	0.024
Mof_H 	H 	0.8064	0.1668	0.5243	0.01
Mof_C 	C 	0.7728	0.9617	0.5204	-0.07
Mof_H 	H 	0.7615	0.9873	0.5572	0.069
Mof_C 	C 	0.7627	0.8123	0.4873	0.044
Mof_C 	C 	0.7782	0.7876	0.4295	-0.134
Mof_H 	H 	0.7716	0.6903	0.4043	0.093
Mof_C 	C 	0.8027	0.9032	0.4094	0.124
Mof_H 	H 	0.8114	0.883	0.3691	-0.001
Mof_Co	Co	0.37133	0.70514	0.43672	1.128
Mof_N 	N 	0.315	0.544	0.4446	-0.257
Mof_O 	O 	0.4249	0.8419	0.4093	-0.518
Mof_O 	O 	0.3509	0.6757	0.3021	-0.371
Mof_O 	O 	0.4487	0.9614	0.0494	-0.372
Mof_O 	O 	0.4145	0.1937	0.0604	-0.441
Mof_O 	O 	0.4369	0.1727	0.3954	-0.385
Mof_O 	O 	0.3524	0.2949	0.2447	-0.259
Mof_O 	O 	0.3162	0.0836	0.2894	-0.292
Mof_S 	S 	0.37246	0.1514	0.29789	0.476
Mof_C 	C 	0.3899	0.7872	0.3263	0.32
Mof_C 	C 	0.3972	0.8609	0.261	-0.023
Mof_C 	C 	0.3929	0.0185	0.2463	-0.081
Mof_C 	C 	0.402	0.0792	0.1865	-0.053
Mof_H 	H 	0.3985	0.1849	0.1763	0.072
Mof_C 	C 	0.4163	0.9827	0.1416	0.005
Mof_C 	C 	0.42	0.8256	0.1561	-0.039
Mof_H 	H 	0.4296	0.7604	0.1265	0.055
Mof_C 	C 	0.4096	0.764	0.2139	-0.026
Mof_H 	H 	0.4109	0.6579	0.2215	0.052
Mof_C 	C 	0.4278	0.0519	0.0793	0.269
Mof_C 	C 	0.2989	0.5687	0.4994	0.085
Mof_H 	H 	0.3064	0.6668	0.5243	-0.004
Mof_C 	C 	0.2728	0.4617	0.5204	-0.133
Mof_H 	H 	0.2615	0.4873	0.5572	0.081
Mof_C 	C 	0.2627	0.3123	0.4873	0.053
Mof_C 	C 	0.2782	0.2876	0.4295	-0.128
Mof_H 	H 	0.2716	0.1903	0.4043	0.088
Mof_C 	C 	0.3027	0.4032	0.4094	0.088
Mof_H 	H 	0.3114	0.383	0.3691	0.001
Mof_Co	Co	0.87133	0.79486	0.93672	1.136
Mof_N 	N 	0.815	0.956	0.9446	-0.278
Mof_O 	O 	0.9249	0.6581	0.9093	-0.498
Mof_O 	O 	0.8509	0.8243	0.8021	-0.361
Mof_O 	O 	0.9487	0.5386	0.5494	-0.386
Mof_O 	O 	0.9145	0.3063	0.5604	-0.441
Mof_O 	O 	0.9369	0.3273	0.8954	-0.349
Mof_O 	O 	0.8524	0.2051	0.7447	-0.261
Mof_O 	O 	0.8162	0.4164	0.7894	-0.28
Mof_S 	S 	0.87246	0.3486	0.79789	0.476
Mof_C 	C 	0.8899	0.7128	0.8263	0.321
Mof_C 	C 	0.8972	0.6391	0.761	-0.029
Mof_C 	C 	0.8929	0.4815	0.7463	-0.063
Mof_C 	C 	0.902	0.4208	0.6865	0.027
Mof_H 	H 	0.8985	0.3151	0.6763	0.051
Mof_C 	C 	0.9163	0.5173	0.6416	-0.085
Mof_C 	C 	0.92	0.6744	0.6561	0.017
Mof_H 	H 	0.9296	0.7396	0.6265	0.054
Mof_C 	C 	0.9096	0.736	0.7139	-0.041
Mof_H 	H 	0.9109	0.8421	0.7215	0.075
Mof_C 	C 	0.9278	0.4481	0.5793	0.365
Mof_C 	C 	0.7989	0.9313	0.9994	0.256
Mof_H 	H 	0.8064	0.8332	0.0243	-0.068
Mof_C 	C 	0.7728	0.0383	0.0204	-0.341
Mof_H 	H 	0.7615	0.0127	0.0572	0.141
Mof_C 	C 	0.7627	0.1877	0.9873	0.205
Mof_C 	C 	0.7782	0.2124	0.9295	-0.221
Mof_H 	H 	0.7716	0.3097	0.9043	0.126
Mof_C 	C 	0.8027	0.0968	0.9094	0.119
Mof_H 	H 	0.8114	0.117	0.8691	-0.014
Mof_Co	Co	0.37133	0.29486	0.93672	1.128
Mof_N 	N 	0.315	0.456	0.9446	-0.293
Mof_O 	O 	0.4249	0.1581	0.9093	-0.53
Mof_O 	O 	0.3509	0.3243	0.8021	-0.373
Mof_O 	O 	0.4487	0.0386	0.5494	-0.458
Mof_O 	O 	0.4145	0.8063	0.5604	-0.469
Mof_O 	O 	0.4369	0.8273	0.8954	-0.369
Mof_O 	O 	0.3524	0.7051	0.7447	-0.257
Mof_O 	O 	0.3162	0.9164	0.7894	-0.268
Mof_S 	S 	0.37246	0.8486	0.79789	0.479
Mof_C 	C 	0.3899	0.2128	0.8263	0.322
Mof_C 	C 	0.3972	0.1391	0.761	-0.053
Mof_C 	C 	0.3929	0.9815	0.7463	-0.062
Mof_C 	C 	0.402	0.9208	0.6865	0.091
Mof_H 	H 	0.3985	0.8151	0.6763	0.027
Mof_C 	C 	0.4163	0.0173	0.6416	-0.189
Mof_C 	C 	0.42	0.1744	0.6561	0.057
Mof_H 	H 	0.4296	0.2396	0.6265	0.023
Mof_C 	C 	0.4096	0.236	0.7139	-0.07
Mof_H 	H 	0.4109	0.3421	0.7215	0.069
Mof_C 	C 	0.4278	0.9481	0.5793	0.447
Mof_C 	C 	0.2989	0.4313	0.9994	0.226
Mof_H 	H 	0.3064	0.3332	0.0243	-0.072
Mof_C 	C 	0.2728	0.5383	0.0204	-0.307
Mof_H 	H 	0.2615	0.5127	0.0572	0.14
Mof_C 	C 	0.2627	0.6877	0.9873	0.212
Mof_C 	C 	0.2782	0.7124	0.9295	-0.235
Mof_H 	H 	0.2716	0.8097	0.9043	0.135
Mof_C 	C 	0.3027	0.5968	0.9094	0.153
Mof_H 	H 	0.3114	0.617	0.8691	-0.02
Mof_Co	Co	0.12867	0.79486	0.56328	1.124
Mof_N 	N 	0.185	0.956	0.5554	-0.256
Mof_O 	O 	0.0751	0.6581	0.5907	-0.544
Mof_O 	O 	0.1491	0.8243	0.6979	-0.37
Mof_O 	O 	0.0513	0.5386	0.9506	-0.428
Mof_O 	O 	0.0855	0.3063	0.9396	-0.462
Mof_O 	O 	0.0631	0.3273	0.6046	-0.409
Mof_O 	O 	0.1476	0.2051	0.7553	-0.274
Mof_O 	O 	0.1838	0.4164	0.7106	-0.281
Mof_S 	S 	0.12754	0.3486	0.70211	0.482
Mof_C 	C 	0.1101	0.7128	0.6737	0.317
Mof_C 	C 	0.1028	0.6391	0.739	-0.044
Mof_C 	C 	0.1071	0.4815	0.7537	-0.083
Mof_C 	C 	0.098	0.4208	0.8135	0.023
Mof_H 	H 	0.1015	0.3151	0.8237	0.037
Mof_C 	C 	0.0837	0.5173	0.8584	-0.111
Mof_C 	C 	0.08	0.6744	0.8439	0.011
Mof_H 	H 	0.0704	0.7396	0.8735	0.033
Mof_C 	C 	0.0904	0.736	0.7861	-0.06
Mof_H 	H 	0.0891	0.8421	0.7785	0.06
Mof_C 	C 	0.0722	0.4481	0.9207	0.36
Mof_C 	C 	0.2011	0.9313	0.5006	0.153
Mof_H 	H 	0.1936	0.8332	0.4757	-0.028
Mof_C 	C 	0.2272	0.0383	0.4796	-0.212
Mof_H 	H 	0.2385	0.0127	0.4428	0.098
Mof_C 	C 	0.2373	0.1877	0.5127	0.088
Mof_C 	C 	0.2218	0.2124	0.5705	-0.145
Mof_H 	H 	0.2284	0.3097	0.5957	0.096
Mof_C 	C 	0.1973	0.0968	0.5906	0.065
Mof_H 	H 	0.1886	0.117	0.6309	-0.001
Mof_Co	Co	0.62867	0.29486	0.56328	1.122
Mof_N 	N 	0.685	0.456	0.5554	-0.264
Mof_O 	O 	0.5751	0.1581	0.5907	-0.539
Mof_O 	O 	0.6491	0.3243	0.6979	-0.376
Mof_O 	O 	0.5513	0.0386	0.9506	-0.446
Mof_O 	O 	0.5855	0.8063	0.9396	-0.461
Mof_O 	O 	0.5631	0.8273	0.6046	-0.375
Mof_O 	O 	0.6476	0.7051	0.7553	-0.258
Mof_O 	O 	0.6838	0.9164	0.7106	-0.269
Mof_S 	S 	0.62754	0.8486	0.70211	0.478
Mof_C 	C 	0.6101	0.2128	0.6737	0.325
Mof_C 	C 	0.6028	0.1391	0.739	-0.058
Mof_C 	C 	0.6071	0.9815	0.7537	-0.058
Mof_C 	C 	0.598	0.9208	0.8135	0.084
Mof_H 	H 	0.6015	0.8151	0.8237	0.029
Mof_C 	C 	0.5837	0.0173	0.8584	-0.178
Mof_C 	C 	0.58	0.1744	0.8439	0.051
Mof_H 	H 	0.5704	0.2396	0.8735	0.028
Mof_C 	C 	0.5904	0.236	0.7861	-0.063
Mof_H 	H 	0.5891	0.3421	0.7785	0.067
Mof_C 	C 	0.5722	0.9481	0.9207	0.439
Mof_C 	C 	0.7011	0.4313	0.5006	0.095
Mof_H 	H 	0.6936	0.3332	0.4757	-0.015
Mof_C 	C 	0.7272	0.5383	0.4796	-0.152
Mof_H 	H 	0.7385	0.5127	0.4428	0.087
Mof_C 	C 	0.7373	0.6877	0.5127	0.08
Mof_C 	C 	0.7218	0.7124	0.5705	-0.15
Mof_H 	H 	0.7284	0.8097	0.5957	0.102
Mof_C 	C 	0.6973	0.5968	0.5906	0.099
Mof_H 	H 	0.6886	0.617	0.6309	-0.003
Mof_Co	Co	-0	0.5	-0	1.168
Mof_Co	Co	0.5	0	-0	1.185
Mof_Co	Co	2.30416e-33	0.5	0.5	1.174
Mof_Co	Co	0.5	0	0.5	1.194
_end
