data_functionalizedCrystal
_audit_creation_method	'EQeq! by Chris Wilmer'
_symmetry_space_group_name_H-M	'P1'
_symmetry_Int_Tables_number	1
_symmetry_cell_setting	triclinic
loop_
_symmetry_equiv_pos_as_xyz
  x,y,z
_cell_length_a	21.6492
_cell_length_b	9.9528
_cell_length_c	8.4146
_cell_angle_alpha	90
_cell_angle_beta	105.597
_cell_angle_gamma	90
loop_
_atom_site_label
_atom_site_type_symbol
_atom_site_fract_x
_atom_site_fract_y
_atom_site_fract_z
_atom_site_charge
Mof_H 	H 	0.5705	0.163	0.831	0.096
Mof_C 	C 	0.61871	0.3282	0.625	0.169
Mof_C 	C 	0.64279	0.2773	0.7972	-0.2
Mof_H 	H 	0.67	0.3446	0.865	0.119
Mof_H 	H 	0.6683	0.197	0.7979	0.116
Mof_C 	C 	0.66168	0.1303	0.1065	0.156
Mof_C 	C 	0.61081	0.2367	0.049	-0.204
Mof_H 	H 	0.5746	0.2164	0.0924	0.094
Mof_H 	H 	0.628	0.323	0.0931	0.104
Mof_N 	N 	0.56326	0.3921	0.5708	-0.129
Mof_N 	N 	0.56148	0.4327	0.4168	-0.072
Mof_N 	N 	0.61359	0.394	0.3803	-0.057
Mof_N 	N 	0.65041	0.3265	0.5089	-0.124
Mof_N 	N 	0.66227	0.0165	0.0239	-0.109
Mof_N 	N 	0.71588	0.9525	0.1096	-0.072
Mof_N 	N 	0.74545	0.0229	0.2382	-0.054
Mof_N 	N 	0.71189	0.1378	0.2388	-0.123
Mof_N 	N 	0.58815	0.2459	0.8668	-0.118
Mof_H 	H 	0.0705	0.663	0.831	0.092
Mof_C 	C 	0.11871	0.8282	0.625	0.169
Mof_C 	C 	0.14279	0.7773	0.7972	-0.199
Mof_H 	H 	0.17	0.8446	0.865	0.12
Mof_H 	H 	0.1683	0.697	0.7979	0.117
Mof_C 	C 	0.16168	0.6303	0.1065	0.155
Mof_C 	C 	0.11081	0.7367	0.049	-0.2
Mof_H 	H 	0.0746	0.7164	0.0924	0.089
Mof_H 	H 	0.128	0.823	0.0931	0.104
Mof_N 	N 	0.06326	0.8921	0.5708	-0.132
Mof_N 	N 	0.06148	0.9327	0.4168	-0.076
Mof_N 	N 	0.11359	0.894	0.3803	-0.058
Mof_N 	N 	0.15041	0.8265	0.5089	-0.125
Mof_N 	N 	0.16227	0.5165	0.0239	-0.111
Mof_N 	N 	0.21588	0.4525	0.1096	-0.071
Mof_N 	N 	0.24545	0.5229	0.2382	-0.055
Mof_N 	N 	0.21189	0.6378	0.2388	-0.123
Mof_N 	N 	0.08815	0.7459	0.8668	-0.118
Mof_H 	H 	0.4295	0.163	0.669	0.095
Mof_C 	C 	0.38129	0.3282	0.875	0.172
Mof_C 	C 	0.35721	0.2773	0.7028	-0.194
Mof_H 	H 	0.33	0.3446	0.635	0.112
Mof_H 	H 	0.3317	0.197	0.7021	0.112
Mof_C 	C 	0.33832	0.1303	0.3935	0.156
Mof_C 	C 	0.38919	0.2367	0.451	-0.177
Mof_H 	H 	0.4254	0.2164	0.4076	0.092
Mof_H 	H 	0.372	0.323	0.4069	0.103
Mof_N 	N 	0.43674	0.3921	0.9292	-0.117
Mof_N 	N 	0.43852	0.4327	0.0832	-0.083
Mof_N 	N 	0.38641	0.394	0.1197	-0.066
Mof_N 	N 	0.34959	0.3265	0.9911	-0.108
Mof_N 	N 	0.33773	0.0165	0.4761	-0.101
Mof_N 	N 	0.28412	0.9525	0.3904	-0.07
Mof_N 	N 	0.25455	0.0229	0.2618	-0.056
Mof_N 	N 	0.28811	0.1378	0.2612	-0.123
Mof_N 	N 	0.41185	0.2459	0.6332	-0.129
Mof_H 	H 	0.9295	0.663	0.669	0.102
Mof_C 	C 	0.88129	0.8282	0.875	0.174
Mof_C 	C 	0.85721	0.7773	0.7028	-0.191
Mof_H 	H 	0.83	0.8446	0.635	0.112
Mof_H 	H 	0.8317	0.697	0.7021	0.112
Mof_C 	C 	0.83832	0.6303	0.3935	0.158
Mof_C 	C 	0.88919	0.7367	0.451	-0.18
Mof_H 	H 	0.9254	0.7164	0.4076	0.101
Mof_H 	H 	0.872	0.823	0.4069	0.106
Mof_N 	N 	0.93674	0.8921	0.9292	-0.107
Mof_N 	N 	0.93852	0.9327	0.0832	-0.072
Mof_N 	N 	0.88641	0.894	0.1197	-0.064
Mof_N 	N 	0.84959	0.8265	0.9911	-0.108
Mof_N 	N 	0.83773	0.5165	0.4761	-0.1
Mof_N 	N 	0.78412	0.4525	0.3904	-0.069
Mof_N 	N 	0.75455	0.5229	0.2618	-0.056
Mof_N 	N 	0.78811	0.6378	0.2612	-0.123
Mof_N 	N 	0.91185	0.7459	0.6332	-0.125
Mof_H 	H 	0.4295	0.837	0.169	0.089
Mof_C 	C 	0.38129	0.6718	0.375	0.167
Mof_C 	C 	0.35721	0.7227	0.2028	-0.19
Mof_H 	H 	0.33	0.6554	0.135	0.104
Mof_H 	H 	0.3317	0.803	0.2021	0.105
Mof_C 	C 	0.33832	0.8697	0.8935	0.158
Mof_C 	C 	0.38919	0.7633	0.951	-0.154
Mof_H 	H 	0.4254	0.7836	0.9076	0.093
Mof_H 	H 	0.372	0.677	0.9069	0.103
Mof_N 	N 	0.43674	0.6079	0.4292	-0.128
Mof_N 	N 	0.43852	0.5673	0.5832	-0.071
Mof_N 	N 	0.38641	0.606	0.6197	-0.055
Mof_N 	N 	0.34959	0.6735	0.4911	-0.124
Mof_N 	N 	0.33773	0.9835	0.9761	-0.094
Mof_N 	N 	0.28412	0.0475	0.8904	-0.062
Mof_N 	N 	0.25455	0.9771	0.7618	-0.053
Mof_N 	N 	0.28811	0.8622	0.7612	-0.121
Mof_N 	N 	0.41185	0.7541	0.1332	-0.14
Mof_H 	H 	0.9295	0.337	0.169	0.096
Mof_C 	C 	0.88129	0.1718	0.375	0.169
Mof_C 	C 	0.85721	0.2227	0.2028	-0.188
Mof_H 	H 	0.83	0.1554	0.135	0.104
Mof_H 	H 	0.8317	0.303	0.2021	0.105
Mof_C 	C 	0.83832	0.3697	0.8935	0.161
Mof_C 	C 	0.88919	0.2633	0.951	-0.158
Mof_H 	H 	0.9254	0.2836	0.9076	0.102
Mof_H 	H 	0.872	0.177	0.9069	0.106
Mof_N 	N 	0.93674	0.1079	0.4292	-0.117
Mof_N 	N 	0.93852	0.0673	0.5832	-0.06
Mof_N 	N 	0.88641	0.106	0.6197	-0.053
Mof_N 	N 	0.84959	0.1735	0.4911	-0.123
Mof_N 	N 	0.83773	0.4835	0.9761	-0.092
Mof_N 	N 	0.78412	0.5475	0.8904	-0.062
Mof_N 	N 	0.75455	0.4771	0.7618	-0.053
Mof_N 	N 	0.78811	0.3622	0.7612	-0.121
Mof_N 	N 	0.91185	0.2541	0.1332	-0.135
Mof_H 	H 	0.5705	0.837	0.331	0.091
Mof_C 	C 	0.61871	0.6718	0.125	0.166
Mof_C 	C 	0.64279	0.7227	0.2972	-0.195
Mof_H 	H 	0.67	0.6554	0.365	0.112
Mof_H 	H 	0.6683	0.803	0.2979	0.111
Mof_C 	C 	0.66168	0.8697	0.6065	0.16
Mof_C 	C 	0.61081	0.7633	0.549	-0.18
Mof_H 	H 	0.5746	0.7836	0.5924	0.096
Mof_H 	H 	0.628	0.677	0.5931	0.106
Mof_N 	N 	0.56326	0.6079	0.0708	-0.139
Mof_N 	N 	0.56148	0.5673	0.9168	-0.06
Mof_N 	N 	0.61359	0.606	0.8803	-0.045
Mof_N 	N 	0.65041	0.6735	0.0089	-0.135
Mof_N 	N 	0.66227	0.9835	0.5239	-0.103
Mof_N 	N 	0.71588	0.0475	0.6096	-0.068
Mof_N 	N 	0.74545	0.9771	0.7382	-0.051
Mof_N 	N 	0.71189	0.8622	0.7388	-0.117
Mof_N 	N 	0.58815	0.7541	0.3668	-0.129
Mof_H 	H 	0.0705	0.337	0.331	0.086
Mof_C 	C 	0.11871	0.1718	0.125	0.165
Mof_C 	C 	0.14279	0.2227	0.2972	-0.195
Mof_H 	H 	0.17	0.1554	0.365	0.113
Mof_H 	H 	0.1683	0.303	0.2979	0.111
Mof_C 	C 	0.16168	0.3697	0.6065	0.158
Mof_C 	C 	0.11081	0.2633	0.549	-0.178
Mof_H 	H 	0.0746	0.2836	0.5924	0.09
Mof_H 	H 	0.128	0.177	0.5931	0.105
Mof_N 	N 	0.06326	0.1079	0.0708	-0.142
Mof_N 	N 	0.06148	0.0673	0.9168	-0.064
Mof_N 	N 	0.11359	0.106	0.8803	-0.046
Mof_N 	N 	0.15041	0.1735	0.0089	-0.135
Mof_N 	N 	0.16227	0.4835	0.5239	-0.103
Mof_N 	N 	0.21588	0.5475	0.6096	-0.069
Mof_N 	N 	0.24545	0.4771	0.7382	-0.05
Mof_N 	N 	0.21189	0.3622	0.7388	-0.116
Mof_N 	N 	0.08815	0.2541	0.3668	-0.129
Mof_Cd	Cd	0.75	0.75	-0	0.377
Mof_Cd	Cd	0.25	0.75	0.5	0.4
Mof_Cd	Cd	0.25	0.25	-0	0.377
Mof_Cd	Cd	0.75	0.25	0.5	0.401
Mof_Cd	Cd	0.5	0.40325	0.75	0.384
Mof_Cd	Cd	1.38686e-33	0.90325	0.75	0.354
Mof_Cd	Cd	0.5	0.59675	0.25	0.374
Mof_Cd	Cd	4.62285e-34	0.09675	0.25	0.346
_end
