# CIF file generated by openbabel 3.1.0, see https://openbabel.org
data_I
_chemical_name_common 'image0'
_cell_length_a 25.7599
_cell_length_b 25.7599
_cell_length_c 6.8766
_cell_angle_alpha 90
_cell_angle_beta 90
_cell_angle_gamma 120
_space_group_name_H-M_alt 'P 1'
_space_group_name_Hall 'P 1'
loop_
    _symmetry_equiv_pos_as_xyz
    x,y,z
loop_
    _atom_site_label
    _atom_site_type_symbol
    _atom_site_fract_x
    _atom_site_fract_y
    _atom_site_fract_z
    _atom_site_occupancy
    Co1      Co       0.31428    0.36412    0.47743    1.000
    O1       O        0.02929    0.32539    0.64150    1.000
    O2       O        0.25231    0.31108    0.67050    1.000
    O3       O        0.07257    0.30239    0.40470    1.000
    C1       C        0.07160    0.31830    0.57540    1.000
    C2       C        0.11970    0.32700    0.71340    1.000
    C3       C        0.16490    0.31810    0.64310    1.000
    H1       H        0.16360    0.30790    0.50970    1.000
    C4       C        0.21150    0.32290    0.75400    1.000
    Co2      Co       0.98095    0.69745    0.81076    1.000
    O4       O        0.69596    0.65872    0.97483    1.000
    O5       O        0.91898    0.64441    0.00383    1.000
    O6       O        0.73924    0.63572    0.73803    1.000
    C5       C        0.73827    0.65163    0.90873    1.000
    C6       C        0.78637    0.66033    0.04673    1.000
    C7       C        0.83157    0.65143    0.97643    1.000
    H2       H        0.83027    0.64123    0.84303    1.000
    C8       C        0.87817    0.65623    0.08733    1.000
    Co3      Co       0.64761    0.03079    0.14410    1.000
    O7       O        0.36262    0.99206    0.30817    1.000
    O8       O        0.58564    0.97775    0.33717    1.000
    O9       O        0.40590    0.96906    0.07137    1.000
    C9       C        0.40493    0.98497    0.24207    1.000
    C10      C        0.45303    0.99367    0.38007    1.000
    C11      C        0.49823    0.98477    0.30977    1.000
    H3       H        0.49693    0.97457    0.17637    1.000
    C12      C        0.54483    0.98957    0.42067    1.000
    Co4      Co       0.63588    0.95016    0.47743    1.000
    O10      O        0.67461    0.70390    0.64150    1.000
    O11      O        0.68892    0.94123    0.67050    1.000
    O12      O        0.69761    0.77018    0.40470    1.000
    C13      C        0.68170    0.75330    0.57540    1.000
    C14      C        0.67300    0.79270    0.71340    1.000
    C15      C        0.68190    0.84680    0.64310    1.000
    H4       H        0.69210    0.85570    0.50970    1.000
    C16      C        0.67710    0.88860    0.75400    1.000
    Co5      Co       0.30255    0.28349    0.81076    1.000
    O13      O        0.34128    0.03723    0.97483    1.000
    O14      O        0.35559    0.27456    0.00383    1.000
    O15      O        0.36428    0.10351    0.73803    1.000
    C17      C        0.34837    0.08663    0.90873    1.000
    C18      C        0.33967    0.12603    0.04673    1.000
    C19      C        0.34857    0.18013    0.97643    1.000
    H5       H        0.35877    0.18903    0.84303    1.000
    C20      C        0.34377    0.22193    0.08733    1.000
    Co6      Co       0.96921    0.61683    0.14410    1.000
    O16      O        0.00794    0.37057    0.30817    1.000
    O17      O        0.02225    0.60790    0.33717    1.000
    O18      O        0.03094    0.43685    0.07137    1.000
    C21      C        0.01503    0.41997    0.24207    1.000
    C22      C        0.00633    0.45937    0.38007    1.000
    C23      C        0.01523    0.51347    0.30977    1.000
    H6       H        0.02543    0.52237    0.17637    1.000
    C24      C        0.01043    0.55527    0.42067    1.000
    Co7      Co       0.04984    0.68572    0.47743    1.000
    O19      O        0.29610    0.97071    0.64150    1.000
    O20      O        0.05877    0.74769    0.67050    1.000
    O21      O        0.22982    0.92743    0.40470    1.000
    C25      C        0.24670    0.92840    0.57540    1.000
    C26      C        0.20730    0.88030    0.71340    1.000
    C27      C        0.15320    0.83510    0.64310    1.000
    H7       H        0.14430    0.83640    0.50970    1.000
    C28      C        0.11140    0.78850    0.75400    1.000
    Co8      Co       0.71651    0.01905    0.81076    1.000
    O22      O        0.96277    0.30404    0.97483    1.000
    O23      O        0.72544    0.08102    0.00383    1.000
    O24      O        0.89649    0.26076    0.73803    1.000
    C29      C        0.91337    0.26173    0.90873    1.000
    C30      C        0.87397    0.21363    0.04673    1.000
    C31      C        0.81987    0.16843    0.97643    1.000
    H8       H        0.81097    0.16973    0.84303    1.000
    C32      C        0.77807    0.12183    0.08733    1.000
    Co9      Co       0.38317    0.35239    0.14410    1.000
    O25      O        0.62943    0.63738    0.30817    1.000
    O26      O        0.39210    0.41436    0.33717    1.000
    O27      O        0.56315    0.59410    0.07137    1.000
    C33      C        0.58003    0.59507    0.24207    1.000
    C34      C        0.54063    0.54697    0.38007    1.000
    C35      C        0.48653    0.50177    0.30977    1.000
    H9       H        0.47763    0.50307    0.17637    1.000
    C36      C        0.44473    0.45517    0.42067    1.000
    Co10     Co       0.68572    0.63588    0.52257    1.000
    O28      O        0.97071    0.67461    0.35850    1.000
    O29      O        0.74769    0.68892    0.32950    1.000
    O30      O        0.92743    0.69761    0.59530    1.000
    C37      C        0.92840    0.68170    0.42460    1.000
    C38      C        0.88030    0.67300    0.28660    1.000
    C39      C        0.83510    0.68190    0.35690    1.000
    H10      H        0.83640    0.69210    0.49030    1.000
    C40      C        0.78850    0.67710    0.24600    1.000
    Co11     Co       0.35239    0.96921    0.85590    1.000
    O31      O        0.63738    0.00794    0.69183    1.000
    O32      O        0.41436    0.02225    0.66283    1.000
    O33      O        0.59410    0.03094    0.92863    1.000
    C41      C        0.59507    0.01503    0.75793    1.000
    C42      C        0.54697    0.00633    0.61993    1.000
    C43      C        0.50177    0.01523    0.69023    1.000
    H11      H        0.50307    0.02543    0.82363    1.000
    C44      C        0.45517    0.01043    0.57933    1.000
    Co12     Co       0.01905    0.30255    0.18924    1.000
    O34      O        0.30404    0.34128    0.02517    1.000
    O35      O        0.08102    0.35559    0.99617    1.000
    O36      O        0.26076    0.36428    0.26197    1.000
    C45      C        0.26173    0.34837    0.09127    1.000
    C46      C        0.21363    0.33967    0.95327    1.000
    C47      C        0.16843    0.34857    0.02357    1.000
    H12      H        0.16973    0.35877    0.15697    1.000
    C48      C        0.12183    0.34377    0.91267    1.000
    Co13     Co       0.36412    0.04984    0.52257    1.000
    O37      O        0.32539    0.29610    0.35850    1.000
    O38      O        0.31108    0.05877    0.32950    1.000
    O39      O        0.30239    0.22982    0.59530    1.000
    C49      C        0.31830    0.24670    0.42460    1.000
    C50      C        0.32700    0.20730    0.28660    1.000
    C51      C        0.31810    0.15320    0.35690    1.000
    H13      H        0.30790    0.14430    0.49030    1.000
    C52      C        0.32290    0.11140    0.24600    1.000
    Co14     Co       0.03079    0.38317    0.85590    1.000
    O40      O        0.99206    0.62943    0.69183    1.000
    O41      O        0.97775    0.39210    0.66283    1.000
    O42      O        0.96906    0.56315    0.92863    1.000
    C53      C        0.98497    0.58003    0.75793    1.000
    C54      C        0.99367    0.54063    0.61993    1.000
    C55      C        0.98477    0.48653    0.69023    1.000
    H14      H        0.97457    0.47763    0.82363    1.000
    C56      C        0.98957    0.44473    0.57933    1.000
    Co15     Co       0.69745    0.71651    0.18924    1.000
    O43      O        0.65872    0.96277    0.02517    1.000
    O44      O        0.64441    0.72544    0.99617    1.000
    O45      O        0.63572    0.89649    0.26197    1.000
    C57      C        0.65163    0.91337    0.09127    1.000
    C58      C        0.66033    0.87397    0.95327    1.000
    C59      C        0.65143    0.81987    0.02357    1.000
    H15      H        0.64123    0.81097    0.15697    1.000
    C60      C        0.65623    0.77807    0.91267    1.000
    Co16     Co       0.95016    0.31428    0.52257    1.000
    O46      O        0.70390    0.02929    0.35850    1.000
    O47      O        0.94123    0.25231    0.32950    1.000
    O48      O        0.77018    0.07257    0.59530    1.000
    C61      C        0.75330    0.07160    0.42460    1.000
    C62      C        0.79270    0.11970    0.28660    1.000
    C63      C        0.84680    0.16490    0.35690    1.000
    H16      H        0.85570    0.16360    0.49030    1.000
    C64      C        0.88860    0.21150    0.24600    1.000
    Co17     Co       0.61683    0.64761    0.85590    1.000
    O49      O        0.37057    0.36262    0.69183    1.000
    O50      O        0.60790    0.58564    0.66283    1.000
    O51      O        0.43685    0.40590    0.92863    1.000
    C65      C        0.41997    0.40493    0.75793    1.000
    C66      C        0.45937    0.45303    0.61993    1.000
    C67      C        0.51347    0.49823    0.69023    1.000
    H17      H        0.52237    0.49693    0.82363    1.000
    C68      C        0.55527    0.54483    0.57933    1.000
    Co18     Co       0.28349    0.98095    0.18924    1.000
    O52      O        0.03723    0.69596    0.02517    1.000
    O53      O        0.27456    0.91898    0.99617    1.000
    O54      O        0.10351    0.73924    0.26197    1.000
    C69      C        0.08663    0.73827    0.09127    1.000
    C70      C        0.12603    0.78637    0.95327    1.000
    C71      C        0.18013    0.83157    0.02357    1.000
    H18      H        0.18903    0.83027    0.15697    1.000
    C72      C        0.22193    0.87817    0.91267    1.000
