data_functionalizedCrystal
_audit_creation_method	'EQeq! by Chris Wilmer'
_symmetry_space_group_name_H-M	'P1'
_symmetry_Int_Tables_number	1
_symmetry_cell_setting	triclinic
loop_
_symmetry_equiv_pos_as_xyz
  x,y,z
_cell_length_a	5.1462
_cell_length_b	18.9798
_cell_length_c	18.9798
_cell_angle_alpha	88.9469
_cell_angle_beta	82.2084
_cell_angle_gamma	82.2083
loop_
_atom_site_label
_atom_site_type_symbol
_atom_site_fract_x
_atom_site_fract_y
_atom_site_fract_z
_atom_site_charge
Mof_Zn	Zn	0.19842	0.94087	0.51214	1.219
Mof_Zn	Zn	0.65142	0.05913	0.48786	1.22
Mof_Zn	Zn	0.28945	0.51214	0.05912	1.22
Mof_Zn	Zn	0.86071	0.48786	0.94088	1.218
Mof_H 	H 	0.4463	0.8115	0.5959	-0.001
Mof_H 	H 	0.1808	0.0596	0.5274	0.246
Mof_H 	H 	0.7063	0.9925	0.6325	0.036
Mof_H 	H 	0.2995	0.0491	0.7067	0.055
Mof_H 	H 	0.0273	0.0597	0.8149	0.035
Mof_H 	H 	0.1344	0.9878	0.9118	0.032
Mof_H 	H 	0.504	0.904	0.9008	0.056
Mof_H 	H 	0.8937	0.8388	0.8258	0.074
Mof_H 	H 	0.4605	0.7012	0.6374	0.113
Mof_H 	H 	0.6075	0.5926	0.6906	0.014
Mof_H 	H 	0.4775	0.6895	0.8825	-0.003
Mof_H 	H 	0.3385	0.7976	0.827	0.1
Mof_H 	H 	0.8537	0.1885	0.4041	-0.001
Mof_H 	H 	0.7678	0.9404	0.4726	0.247
Mof_H 	H 	0.3313	0.0075	0.3675	0.033
Mof_H 	H 	0.0553	0.9509	0.2933	0.054
Mof_H 	H 	0.9019	0.9403	0.1851	0.035
Mof_H 	H 	0.034	0.0122	0.0882	0.032
Mof_H 	H 	0.3088	0.096	0.0992	0.058
Mof_H 	H 	0.5583	0.1612	0.1742	0.076
Mof_H 	H 	0.7991	0.2988	0.3626	0.113
Mof_H 	H 	0.8907	0.4074	0.3094	0.015
Mof_H 	H 	0.0495	0.3105	0.1175	-0.003
Mof_H 	H 	0.9631	0.2024	0.173	0.101
Mof_H 	H 	0.9578	0.5959	0.1885	-0.01
Mof_H 	H 	0.2918	0.5274	0.9404	0.247
Mof_H 	H 	0.6612	0.6325	0.0075	0.035
Mof_H 	H 	0.9938	0.7067	0.9509	0.058
Mof_H 	H 	0.1578	0.8149	0.9403	0.028
Mof_H 	H 	0.9538	0.9118	0.0122	0.037
Mof_H 	H 	0.5952	0.9008	0.096	0.053
Mof_H 	H 	0.2805	0.8258	0.1612	0.074
Mof_H 	H 	0.9021	0.6374	0.2988	0.11
Mof_H 	H 	0.7019	0.6906	0.4074	0.015
Mof_H 	H 	0.64	0.8825	0.3105	-0.002
Mof_H 	H 	0.8345	0.827	0.2024	0.098
Mof_H 	H 	0.7422	0.4041	0.8115	-0
Mof_H 	H 	0.7596	0.4726	0.0596	0.245
Mof_H 	H 	0.3012	0.3675	0.9925	0.035
Mof_H 	H 	0.6514	0.2933	0.0491	0.054
Mof_H 	H 	0.913	0.1851	0.0597	0.034
Mof_H 	H 	0.8778	0.0882	0.9878	0.031
Mof_H 	H 	0.592	0.0992	0.904	0.057
Mof_H 	H 	0.2675	0.1742	0.8388	0.076
Mof_H 	H 	0.8383	0.3626	0.7012	0.113
Mof_H 	H 	0.7999	0.3094	0.5926	0.014
Mof_H 	H 	0.833	0.1175	0.6895	-0.002
Mof_H 	H 	0.8639	0.173	0.7976	0.1
Mof_C 	C 	0.30106	0.83551	0.62637	0.101
Mof_C 	C 	0.95642	0.9098	0.66516	0.048
Mof_C 	C 	0.74217	0.96208	0.67138	-0.121
Mof_C 	C 	0.57783	0.9691	0.73704	0.035
Mof_C 	C 	0.34379	0.0197	0.74552	-0.076
Mof_C 	C 	0.18255	0.02589	0.80961	-0.029
Mof_C 	C 	0.24628	0.98234	0.8675	-0.024
Mof_C 	C 	0.46487	0.93275	0.86111	-0.085
Mof_C 	C 	0.63644	0.92335	0.79517	0.04
Mof_C 	C 	0.85486	0.86959	0.78749	-0.122
Mof_C 	C 	0.00903	0.86342	0.72272	0.076
Mof_C 	C 	0.35259	0.75455	0.72867	0.185
Mof_C 	C 	0.4556	0.6979	0.6875	-0.2
Mof_C 	C 	0.5551	0.6345	0.7183	0.103
Mof_C 	C 	0.57667	0.6339	0.79316	-0.18
Mof_C 	C 	0.48032	0.69143	0.83233	0.116
Mof_C 	C 	0.38304	0.7549	0.80022	-0.2
Mof_C 	C 	0.6592	0.5624	0.8258	0.415
Mof_C 	C 	0.76294	0.16449	0.37363	0.102
Mof_C 	C 	0.53138	0.0902	0.33484	0.042
Mof_C 	C 	0.37563	0.03792	0.32862	-0.118
Mof_C 	C 	0.28397	0.0309	0.26296	0.032
Mof_C 	C 	0.10901	0.9803	0.25448	-0.074
Mof_C 	C 	0.01805	0.97411	0.19039	-0.032
Mof_C 	C 	0.09612	0.01766	0.1325	-0.021
Mof_C 	C 	0.25873	0.06725	0.13889	-0.087
Mof_C 	C 	0.35496	0.07665	0.20483	0.043
Mof_C 	C 	0.51194	0.13041	0.21251	-0.126
Mof_C 	C 	0.59517	0.13658	0.27728	0.081
Mof_C 	C 	0.83581	0.24545	0.27133	0.186
Mof_C 	C 	0.841	0.3021	0.3125	-0.199
Mof_C 	C 	0.9079	0.3655	0.2817	0.096
Mof_C 	C 	0.00373	0.3661	0.20684	-0.175
Mof_C 	C 	0.00408	0.30857	0.16767	0.119
Mof_C 	C 	0.93816	0.2451	0.19978	-0.206
Mof_C 	C 	0.0474	0.4376	0.1742	0.414
Mof_C 	C 	0.07257	0.62637	0.16449	0.113
Mof_C 	C 	0.37842	0.66516	0.0902	0.045
Mof_C 	C 	0.58645	0.67138	0.03792	-0.124
Mof_C 	C 	0.68513	0.73704	0.0309	0.042
Mof_C 	C 	0.91069	0.74552	0.9803	-0.094
Mof_C 	C 	0.00784	0.80961	0.97411	-0.008
Mof_C 	C 	0.88622	0.8675	0.01766	-0.04
Mof_C 	C 	0.67402	0.86111	0.06725	-0.075
Mof_C 	C 	0.56839	0.79517	0.07665	0.034
Mof_C 	C 	0.35765	0.78749	0.13041	-0.121
Mof_C 	C 	0.26825	0.72272	0.13658	0.078
Mof_C 	C 	0.91874	0.72867	0.24545	0.179
Mof_C 	C 	0.8569	0.6875	0.3021	-0.197
Mof_C 	C 	0.7266	0.7183	0.3655	0.101
Mof_C 	C 	0.63017	0.79316	0.3661	-0.178
Mof_C 	C 	0.68735	0.83233	0.30857	0.113
Mof_C 	C 	0.81674	0.80022	0.2451	-0.197
Mof_C 	C 	0.515	0.8258	0.4376	0.414
Mof_C 	C 	0.86343	0.37363	0.83551	0.101
Mof_C 	C 	0.13378	0.33484	0.9098	0.048
Mof_C 	C 	0.29575	0.32862	0.96208	-0.12
Mof_C 	C 	0.45307	0.26296	0.9691	0.033
Mof_C 	C 	0.63651	0.25448	0.0197	-0.075
Mof_C 	C 	0.79156	0.19039	0.02589	-0.03
Mof_C 	C 	0.77138	0.1325	0.98234	-0.024
Mof_C 	C 	0.60238	0.13889	0.93275	-0.086
Mof_C 	C 	0.44021	0.20483	0.92335	0.043
Mof_C 	C 	0.27555	0.21251	0.86959	-0.126
Mof_C 	C 	0.12755	0.27728	0.86342	0.083
Mof_C 	C 	0.89286	0.27133	0.75455	0.185
Mof_C 	C 	0.8465	0.3125	0.6979	-0.2
Mof_C 	C 	0.8104	0.2817	0.6345	0.103
Mof_C 	C 	0.78943	0.20684	0.6339	-0.179
Mof_C 	C 	0.82825	0.16767	0.69143	0.115
Mof_C 	C 	0.86206	0.19978	0.7549	-0.2
Mof_C 	C 	0.7784	0.1742	0.5624	0.414
Mof_N 	N 	0.14779	0.89002	0.6066	-0.276
Mof_N 	N 	0.23297	0.81608	0.69558	-0.161
Mof_N 	N 	0.64441	0.10998	0.3934	-0.274
Mof_N 	N 	0.74463	0.18392	0.30442	-0.162
Mof_N 	N 	0.24561	0.6066	0.10998	-0.276
Mof_N 	N 	0.07145	0.69558	0.18392	-0.161
Mof_N 	N 	0.96219	0.3934	0.89002	-0.278
Mof_N 	N 	0.95095	0.30442	0.81608	-0.164
Mof_O 	O 	0.32362	0.02954	0.52882	-0.769
Mof_O 	O 	0.63515	0.55541	0.88769	-0.542
Mof_O 	O 	0.77496	0.51193	0.78275	-0.311
Mof_O 	O 	0.88198	0.97046	0.47118	-0.766
Mof_O 	O 	0.07825	0.44459	0.11231	-0.539
Mof_O 	O 	0.06964	0.48807	0.21725	-0.308
Mof_O 	O 	0.14756	0.52882	0.97046	-0.764
Mof_O 	O 	0.47716	0.88769	0.44459	-0.542
Mof_O 	O 	0.44229	0.78275	0.48807	-0.311
Mof_O 	O 	0.64684	0.47118	0.02954	-0.768
Mof_O 	O 	0.80944	0.11231	0.55541	-0.541
Mof_O 	O 	0.71311	0.21725	0.51193	-0.31
_end
