# CIF file generated by openbabel 3.1.0, see https://openbabel.org
data_I
_chemical_name_common 'image0'
_cell_length_a 7.9435
_cell_length_b 13.8339
_cell_length_c 7.3016
_cell_angle_alpha 90
_cell_angle_beta 90
_cell_angle_gamma 90
_space_group_name_H-M_alt 'P 1'
_space_group_name_Hall 'P 1'
loop_
    _symmetry_equiv_pos_as_xyz
    x,y,z
loop_
    _atom_site_label
    _atom_site_type_symbol
    _atom_site_fract_x
    _atom_site_fract_y
    _atom_site_fract_z
    _atom_site_occupancy
    Co1      Co       0.21919    0.33541    0.75969    1.000
    O1       O        0.10451    0.22848    0.60839    1.000
    O2       O        0.92571    0.16384    0.41139    1.000
    O3       O        0.30674    0.21147    0.90291    1.000
    O4       O        0.50341    0.14450    0.07831    1.000
    O5       O        0.11168    0.45314    0.61960    1.000
    O6       O        0.13201    0.57273    0.41822    1.000
    C1       C        0.98440    0.23405    0.49870    1.000
    H1       H        0.93420    0.29560    0.48020    1.000
    C2       C        0.44280    0.21412    0.99100    1.000
    H2       H        0.50380    0.27320    0.99120    1.000
    C3       C        0.19410    0.50501    0.50940    1.000
    H3       H        0.31070    0.49180    0.49470    1.000
    Co2      Co       0.28081    0.66459    0.25969    1.000
    O7       O        0.39549    0.77152    0.10839    1.000
    O8       O        0.57429    0.83616    0.91139    1.000
    O9       O        0.19326    0.78853    0.40291    1.000
    O10      O        0.99659    0.85550    0.57831    1.000
    O11      O        0.38832    0.54686    0.11960    1.000
    O12      O        0.36799    0.42727    0.91822    1.000
    C4       C        0.51560    0.76595    0.99870    1.000
    H4       H        0.56580    0.70440    0.98020    1.000
    C5       C        0.05720    0.78588    0.49100    1.000
    H5       H        0.99620    0.72680    0.49120    1.000
    C6       C        0.30590    0.49499    0.00940    1.000
    H6       H        0.18930    0.50820    0.99470    1.000
    Co3      Co       0.78081    0.83541    0.74031    1.000
    O13      O        0.89549    0.72848    0.89161    1.000
    O14      O        0.07429    0.66384    0.08861    1.000
    O15      O        0.69326    0.71147    0.59709    1.000
    O16      O        0.49659    0.64450    0.42169    1.000
    O17      O        0.88832    0.95314    0.88040    1.000
    O18      O        0.86799    0.07273    0.08178    1.000
    C7       C        0.01560    0.73405    0.00130    1.000
    H7       H        0.06580    0.79560    0.01980    1.000
    C8       C        0.55720    0.71412    0.50900    1.000
    H8       H        0.49620    0.77320    0.50880    1.000
    C9       C        0.80590    0.00501    0.99060    1.000
    H9       H        0.68930    0.99180    0.00530    1.000
    Co4      Co       0.71919    0.16459    0.24031    1.000
    O19      O        0.60451    0.27152    0.39161    1.000
    O20      O        0.42571    0.33616    0.58861    1.000
    O21      O        0.80674    0.28853    0.09709    1.000
    O22      O        0.00341    0.35550    0.92169    1.000
    O23      O        0.61168    0.04686    0.38040    1.000
    O24      O        0.63201    0.92727    0.58178    1.000
    C10      C        0.48440    0.26595    0.50130    1.000
    H10      H        0.43420    0.20440    0.51980    1.000
    C11      C        0.94280    0.28588    0.00900    1.000
    H11      H        0.00380    0.22680    0.00880    1.000
    C12      C        0.69410    0.99499    0.49060    1.000
    H12      H        0.81070    0.00820    0.50530    1.000
