# CIF file generated by openbabel 3.1.0, see https://openbabel.org
data_I
_chemical_name_common 'image0'
_cell_length_a 35.0087
_cell_length_b 14.9458
_cell_length_c 30.6949
_cell_angle_alpha 90
_cell_angle_beta 100.8
_cell_angle_gamma 90
_space_group_name_H-M_alt 'P 1'
_space_group_name_Hall 'P 1'
loop_
    _symmetry_equiv_pos_as_xyz
    x,y,z
loop_
    _atom_site_label
    _atom_site_type_symbol
    _atom_site_fract_x
    _atom_site_fract_y
    _atom_site_fract_z
    _atom_site_occupancy
    I1       I        0.38396    0.23726    0.43965    1.000
    I2       I        0.47889    0.15581    0.36602    1.000
    I3       I        0.61087    0.27100    0.59806    1.000
    I4       I        0.25658    0.72426    0.69000    1.000
    Zn1      Zn       0.42090    0.12396    0.40206    1.000
    Zn2      Zn       0.62907    0.41010    0.56190    1.000
    Zn3      Zn       0.32204    0.64978    0.72175    1.000
    N1       N        0.43390    0.01680    0.44520    1.000
    N2       N        0.58330    0.49750    0.55830    1.000
    N3       N        0.35730    0.66630    0.67540    1.000
    N4       N        0.46310    0.65080    0.58570    1.000
    N5       N        0.47910    0.73030    0.52440    1.000
    N6       N        0.42510    0.77610    0.55580    1.000
    N7       N        0.38250    0.94860    0.85510    1.000
    N8       N        0.17170    0.97470    0.60680    1.000
    N9       N        0.31370    0.51230    0.71890    1.000
    N10      N        0.32070    0.18430    0.74890    1.000
    N11      N        0.26730    0.19550    0.68990    1.000
    N12      N        0.28190    0.05690    0.72780    1.000
    C1       C        0.56480    0.53380    0.52030    1.000
    H1       H        0.57420    0.52150    0.49460    1.000
    C2       C        0.53270    0.58840    0.51710    1.000
    H2       H        0.52050    0.61160    0.49000    1.000
    C3       C        0.51910    0.60770    0.55620    1.000
    C4       C        0.53840    0.57330    0.59520    1.000
    H3       H        0.52970    0.58510    0.62150    1.000
    C5       C        0.57130    0.51990    0.59570    1.000
    H4       H        0.58520    0.49960    0.62270    1.000
    C6       C        0.44390    0.86440    0.49840    1.000
    C7       C        0.47160    0.89050    0.47410    1.000
    H5       H        0.49430    0.85730    0.47540    1.000
    C8       C        0.46540    0.96500    0.44840    1.000
    H6       H        0.48410    0.98080    0.43200    1.000
    C9       C        0.40640    0.99160    0.46890    1.000
    H7       H        0.38420    0.02640    0.46720    1.000
    C10      C        0.41050    0.91590    0.49540    1.000
    H8       H        0.39110    0.89970    0.51090    1.000
    C11      C        0.40720    0.69290    0.61570    1.000
    C12      C        0.36990    0.73160    0.60940    1.000
    H9       H        0.36150    0.76840    0.58510    1.000
    C13      C        0.34620    0.71530    0.63870    1.000
    H10      H        0.32120    0.73920    0.63320    1.000
    C14      C        0.39280    0.62950    0.68250    1.000
    H11      H        0.40070    0.59500    0.70780    1.000
    C15      C        0.41800    0.64150    0.65350    1.000
    H12      H        0.44240    0.61490    0.65940    1.000
    C16      C        0.43300    0.70660    0.58380    1.000
    C17      C        0.44920    0.78570    0.52770    1.000
    C18      C        0.48520    0.66610    0.55530    1.000
    C19      C        0.33600    0.04580    0.78910    1.000
    C20      C        0.37270    0.07820    0.80930    1.000
    H13      H        0.38210    0.13250    0.80090    1.000
    C21      C        0.39410    0.02610    0.84200    1.000
    H14      H        0.41840    0.04710    0.85570    1.000
    C22      C        0.34730    0.91780    0.83520    1.000
    H15      H        0.33880    0.86290    0.84400    1.000
    C23      C        0.32400    0.96490    0.80240    1.000
    H16      H        0.29990    0.94190    0.78910    1.000
    C24      C        0.23050    0.06160    0.66410    1.000
    C25      C        0.22240    0.97180    0.67050    1.000
    H17      H        0.23680    0.93990    0.69400    1.000
    C26      C        0.19280    0.93120    0.64170    1.000
    H18      H        0.18700    0.87160    0.64630    1.000
    C27      C        0.17980    0.05950    0.59990    1.000
    H19      H        0.16560    0.08900    0.57540    1.000
    C28      C        0.20870    0.10570    0.62800    1.000
    H20      H        0.21350    0.16550    0.62280    1.000
    C29      C        0.30360    0.32760    0.71700    1.000
    C30      C        0.27950    0.38220    0.68690    1.000
    H21      H        0.25960    0.35790    0.66590    1.000
    C31      C        0.28600    0.47390    0.68900    1.000
    H22      H        0.27030    0.51040    0.66850    1.000
    C32      C        0.33620    0.45950    0.74780    1.000
    H23      H        0.35550    0.48600    0.76880    1.000
    C33      C        0.33240    0.36670    0.74840    1.000
    H24      H        0.34870    0.33200    0.76910    1.000
    C34      C        0.29700    0.22950    0.71850    1.000
    C35      C        0.26170    0.10630    0.69550    1.000
    C36      C        0.31180    0.09930    0.75370    1.000
    I5       I        0.65075    0.42135    0.48578    1.000
    I6       I        0.36845    0.68260    0.79960    1.000
    I7       I        0.35711    0.68270    0.79530    1.000
    I8       I        0.60630    0.27570    0.61250    1.000
    I9       I        0.64924    0.38640    0.49740    1.000
    I10      I        0.26600    0.73600    0.70290    1.000
    I11      I        0.39430    0.21200    0.45540    1.000
    I12      I        0.88396    0.73726    0.43965    1.000
    I13      I        0.97889    0.65581    0.36602    1.000
    I14      I        0.11087    0.77100    0.59806    1.000
    I15      I        0.75658    0.22426    0.69000    1.000
    Zn4      Zn       0.92090    0.62396    0.40206    1.000
    Zn5      Zn       0.12907    0.91010    0.56190    1.000
    Zn6      Zn       0.82204    0.14978    0.72175    1.000
    N13      N        0.93390    0.51680    0.44520    1.000
    N14      N        0.08330    0.99750    0.55830    1.000
    N15      N        0.85730    0.16630    0.67540    1.000
    N16      N        0.96310    0.15080    0.58570    1.000
    N17      N        0.97910    0.23030    0.52440    1.000
    N18      N        0.92510    0.27610    0.55580    1.000
    N19      N        0.88250    0.44860    0.85510    1.000
    N20      N        0.67170    0.47470    0.60680    1.000
    N21      N        0.81370    0.01230    0.71890    1.000
    N22      N        0.82070    0.68430    0.74890    1.000
    N23      N        0.76730    0.69550    0.68990    1.000
    N24      N        0.78190    0.55690    0.72780    1.000
    C37      C        0.06480    0.03380    0.52030    1.000
    H25      H        0.07420    0.02150    0.49460    1.000
    C38      C        0.03270    0.08840    0.51710    1.000
    H26      H        0.02050    0.11160    0.49000    1.000
    C39      C        0.01910    0.10770    0.55620    1.000
    C40      C        0.03840    0.07330    0.59520    1.000
    H27      H        0.02970    0.08510    0.62150    1.000
    C41      C        0.07130    0.01990    0.59570    1.000
    H28      H        0.08520    0.99960    0.62270    1.000
    C42      C        0.94390    0.36440    0.49840    1.000
    C43      C        0.97160    0.39050    0.47410    1.000
    H29      H        0.99430    0.35730    0.47540    1.000
    C44      C        0.96540    0.46500    0.44840    1.000
    H30      H        0.98410    0.48080    0.43200    1.000
    C45      C        0.90640    0.49160    0.46890    1.000
    H31      H        0.88420    0.52640    0.46720    1.000
    C46      C        0.91050    0.41590    0.49540    1.000
    H32      H        0.89110    0.39970    0.51090    1.000
    C47      C        0.90720    0.19290    0.61570    1.000
    C48      C        0.86990    0.23160    0.60940    1.000
    H33      H        0.86150    0.26840    0.58510    1.000
    C49      C        0.84620    0.21530    0.63870    1.000
    H34      H        0.82120    0.23920    0.63320    1.000
    C50      C        0.89280    0.12950    0.68250    1.000
    H35      H        0.90070    0.09500    0.70780    1.000
    C51      C        0.91800    0.14150    0.65350    1.000
    H36      H        0.94240    0.11490    0.65940    1.000
    C52      C        0.93300    0.20660    0.58380    1.000
    C53      C        0.94920    0.28570    0.52770    1.000
    C54      C        0.98520    0.16610    0.55530    1.000
    C55      C        0.83600    0.54580    0.78910    1.000
    C56      C        0.87270    0.57820    0.80930    1.000
    H37      H        0.88210    0.63250    0.80090    1.000
    C57      C        0.89410    0.52610    0.84200    1.000
    H38      H        0.91840    0.54710    0.85570    1.000
    C58      C        0.84730    0.41780    0.83520    1.000
    H39      H        0.83880    0.36290    0.84400    1.000
    C59      C        0.82400    0.46490    0.80240    1.000
    H40      H        0.79990    0.44190    0.78910    1.000
    C60      C        0.73050    0.56160    0.66410    1.000
    C61      C        0.72240    0.47180    0.67050    1.000
    H41      H        0.73680    0.43990    0.69400    1.000
    C62      C        0.69280    0.43120    0.64170    1.000
    H42      H        0.68700    0.37160    0.64630    1.000
    C63      C        0.67980    0.55950    0.59990    1.000
    H43      H        0.66560    0.58900    0.57540    1.000
    C64      C        0.70870    0.60570    0.62800    1.000
    H44      H        0.71350    0.66550    0.62280    1.000
    C65      C        0.80360    0.82760    0.71700    1.000
    C66      C        0.77950    0.88220    0.68690    1.000
    H45      H        0.75960    0.85790    0.66590    1.000
    C67      C        0.78600    0.97390    0.68900    1.000
    H46      H        0.77030    0.01040    0.66850    1.000
    C68      C        0.83620    0.95950    0.74780    1.000
    H47      H        0.85550    0.98600    0.76880    1.000
    C69      C        0.83240    0.86670    0.74840    1.000
    H48      H        0.84870    0.83200    0.76910    1.000
    C70      C        0.79700    0.72950    0.71850    1.000
    C71      C        0.76170    0.60630    0.69550    1.000
    C72      C        0.81180    0.59930    0.75370    1.000
    I16      I        0.15075    0.92135    0.48578    1.000
    I17      I        0.86845    0.18260    0.79960    1.000
    I18      I        0.85711    0.18270    0.79530    1.000
    I19      I        0.10630    0.77570    0.61250    1.000
    I20      I        0.14924    0.88640    0.49740    1.000
    I21      I        0.76600    0.23600    0.70290    1.000
    I22      I        0.89430    0.71200    0.45540    1.000
    I23      I        0.38396    0.76274    0.93965    1.000
    I24      I        0.47889    0.84419    0.86602    1.000
    I25      I        0.61087    0.72900    0.09806    1.000
    I26      I        0.25658    0.27574    0.19000    1.000
    Zn7      Zn       0.42090    0.87604    0.90206    1.000
    Zn8      Zn       0.62907    0.58990    0.06190    1.000
    Zn9      Zn       0.32204    0.35022    0.22175    1.000
    N25      N        0.43390    0.98320    0.94520    1.000
    N26      N        0.58330    0.50250    0.05830    1.000
    N27      N        0.35730    0.33370    0.17540    1.000
    N28      N        0.46310    0.34920    0.08570    1.000
    N29      N        0.47910    0.26970    0.02440    1.000
    N30      N        0.42510    0.22390    0.05580    1.000
    N31      N        0.38250    0.05140    0.35510    1.000
    N32      N        0.17170    0.02530    0.10680    1.000
    N33      N        0.31370    0.48770    0.21890    1.000
    N34      N        0.32070    0.81570    0.24890    1.000
    N35      N        0.26730    0.80450    0.18990    1.000
    N36      N        0.28190    0.94310    0.22780    1.000
    C73      C        0.56480    0.46620    0.02030    1.000
    H49      H        0.57420    0.47850    0.99460    1.000
    C74      C        0.53270    0.41160    0.01710    1.000
    H50      H        0.52050    0.38840    0.99000    1.000
    C75      C        0.51910    0.39230    0.05620    1.000
    C76      C        0.53840    0.42670    0.09520    1.000
    H51      H        0.52970    0.41490    0.12150    1.000
    C77      C        0.57130    0.48010    0.09570    1.000
    H52      H        0.58520    0.50040    0.12270    1.000
    C78      C        0.44390    0.13560    0.99840    1.000
    C79      C        0.47160    0.10950    0.97410    1.000
    H53      H        0.49430    0.14270    0.97540    1.000
    C80      C        0.46540    0.03500    0.94840    1.000
    H54      H        0.48410    0.01920    0.93200    1.000
    C81      C        0.40640    0.00840    0.96890    1.000
    H55      H        0.38420    0.97360    0.96720    1.000
    C82      C        0.41050    0.08410    0.99540    1.000
    H56      H        0.39110    0.10030    0.01090    1.000
    C83      C        0.40720    0.30710    0.11570    1.000
    C84      C        0.36990    0.26840    0.10940    1.000
    H57      H        0.36150    0.23160    0.08510    1.000
    C85      C        0.34620    0.28470    0.13870    1.000
    H58      H        0.32120    0.26080    0.13320    1.000
    C86      C        0.39280    0.37050    0.18250    1.000
    H59      H        0.40070    0.40500    0.20780    1.000
    C87      C        0.41800    0.35850    0.15350    1.000
    H60      H        0.44240    0.38510    0.15940    1.000
    C88      C        0.43300    0.29340    0.08380    1.000
    C89      C        0.44920    0.21430    0.02770    1.000
    C90      C        0.48520    0.33390    0.05530    1.000
    C91      C        0.33600    0.95420    0.28910    1.000
    C92      C        0.37270    0.92180    0.30930    1.000
    H61      H        0.38210    0.86750    0.30090    1.000
    C93      C        0.39410    0.97390    0.34200    1.000
    H62      H        0.41840    0.95290    0.35570    1.000
    C94      C        0.34730    0.08220    0.33520    1.000
    H63      H        0.33880    0.13710    0.34400    1.000
    C95      C        0.32400    0.03510    0.30240    1.000
    H64      H        0.29990    0.05810    0.28910    1.000
    C96      C        0.23050    0.93840    0.16410    1.000
    C97      C        0.22240    0.02820    0.17050    1.000
    H65      H        0.23680    0.06010    0.19400    1.000
    C98      C        0.19280    0.06880    0.14170    1.000
    H66      H        0.18700    0.12840    0.14630    1.000
    C99      C        0.17980    0.94050    0.09990    1.000
    H67      H        0.16560    0.91100    0.07540    1.000
    C100     C        0.20870    0.89430    0.12800    1.000
    H68      H        0.21350    0.83450    0.12280    1.000
    C101     C        0.30360    0.67240    0.21700    1.000
    C102     C        0.27950    0.61780    0.18690    1.000
    H69      H        0.25960    0.64210    0.16590    1.000
    C103     C        0.28600    0.52610    0.18900    1.000
    H70      H        0.27030    0.48960    0.16850    1.000
    C104     C        0.33620    0.54050    0.24780    1.000
    H71      H        0.35550    0.51400    0.26880    1.000
    C105     C        0.33240    0.63330    0.24840    1.000
    H72      H        0.34870    0.66800    0.26910    1.000
    C106     C        0.29700    0.77050    0.21850    1.000
    C107     C        0.26170    0.89370    0.19550    1.000
    C108     C        0.31180    0.90070    0.25370    1.000
    I27      I        0.65075    0.57865    0.98578    1.000
    I28      I        0.36845    0.31740    0.29960    1.000
    I29      I        0.35711    0.31730    0.29530    1.000
    I30      I        0.60630    0.72430    0.11250    1.000
    I31      I        0.64924    0.61360    0.99740    1.000
    I32      I        0.26600    0.26400    0.20290    1.000
    I33      I        0.39430    0.78800    0.95540    1.000
    I34      I        0.88396    0.26274    0.93965    1.000
    I35      I        0.97889    0.34419    0.86602    1.000
    I36      I        0.11087    0.22900    0.09806    1.000
    I37      I        0.75658    0.77574    0.19000    1.000
    Zn10     Zn       0.92090    0.37604    0.90206    1.000
    Zn11     Zn       0.12907    0.08990    0.06190    1.000
    Zn12     Zn       0.82204    0.85022    0.22175    1.000
    N37      N        0.93390    0.48320    0.94520    1.000
    N38      N        0.08330    0.00250    0.05830    1.000
    N39      N        0.85730    0.83370    0.17540    1.000
    N40      N        0.96310    0.84920    0.08570    1.000
    N41      N        0.97910    0.76970    0.02440    1.000
    N42      N        0.92510    0.72390    0.05580    1.000
    N43      N        0.88250    0.55140    0.35510    1.000
    N44      N        0.67170    0.52530    0.10680    1.000
    N45      N        0.81370    0.98770    0.21890    1.000
    N46      N        0.82070    0.31570    0.24890    1.000
    N47      N        0.76730    0.30450    0.18990    1.000
    N48      N        0.78190    0.44310    0.22780    1.000
    C109     C        0.06480    0.96620    0.02030    1.000
    H73      H        0.07420    0.97850    0.99460    1.000
    C110     C        0.03270    0.91160    0.01710    1.000
    H74      H        0.02050    0.88840    0.99000    1.000
    C111     C        0.01910    0.89230    0.05620    1.000
    C112     C        0.03840    0.92670    0.09520    1.000
    H75      H        0.02970    0.91490    0.12150    1.000
    C113     C        0.07130    0.98010    0.09570    1.000
    H76      H        0.08520    0.00040    0.12270    1.000
    C114     C        0.94390    0.63560    0.99840    1.000
    C115     C        0.97160    0.60950    0.97410    1.000
    H77      H        0.99430    0.64270    0.97540    1.000
    C116     C        0.96540    0.53500    0.94840    1.000
    H78      H        0.98410    0.51920    0.93200    1.000
    C117     C        0.90640    0.50840    0.96890    1.000
    H79      H        0.88420    0.47360    0.96720    1.000
    C118     C        0.91050    0.58410    0.99540    1.000
    H80      H        0.89110    0.60030    0.01090    1.000
    C119     C        0.90720    0.80710    0.11570    1.000
    C120     C        0.86990    0.76840    0.10940    1.000
    H81      H        0.86150    0.73160    0.08510    1.000
    C121     C        0.84620    0.78470    0.13870    1.000
    H82      H        0.82120    0.76080    0.13320    1.000
    C122     C        0.89280    0.87050    0.18250    1.000
    H83      H        0.90070    0.90500    0.20780    1.000
    C123     C        0.91800    0.85850    0.15350    1.000
    H84      H        0.94240    0.88510    0.15940    1.000
    C124     C        0.93300    0.79340    0.08380    1.000
    C125     C        0.94920    0.71430    0.02770    1.000
    C126     C        0.98520    0.83390    0.05530    1.000
    C127     C        0.83600    0.45420    0.28910    1.000
    C128     C        0.87270    0.42180    0.30930    1.000
    H85      H        0.88210    0.36750    0.30090    1.000
    C129     C        0.89410    0.47390    0.34200    1.000
    H86      H        0.91840    0.45290    0.35570    1.000
    C130     C        0.84730    0.58220    0.33520    1.000
    H87      H        0.83880    0.63710    0.34400    1.000
    C131     C        0.82400    0.53510    0.30240    1.000
    H88      H        0.79990    0.55810    0.28910    1.000
    C132     C        0.73050    0.43840    0.16410    1.000
    C133     C        0.72240    0.52820    0.17050    1.000
    H89      H        0.73680    0.56010    0.19400    1.000
    C134     C        0.69280    0.56880    0.14170    1.000
    H90      H        0.68700    0.62840    0.14630    1.000
    C135     C        0.67980    0.44050    0.09990    1.000
    H91      H        0.66560    0.41100    0.07540    1.000
    C136     C        0.70870    0.39430    0.12800    1.000
    H92      H        0.71350    0.33450    0.12280    1.000
    C137     C        0.80360    0.17240    0.21700    1.000
    C138     C        0.77950    0.11780    0.18690    1.000
    H93      H        0.75960    0.14210    0.16590    1.000
    C139     C        0.78600    0.02610    0.18900    1.000
    H94      H        0.77030    0.98960    0.16850    1.000
    C140     C        0.83620    0.04050    0.24780    1.000
    H95      H        0.85550    0.01400    0.26880    1.000
    C141     C        0.83240    0.13330    0.24840    1.000
    H96      H        0.84870    0.16800    0.26910    1.000
    C142     C        0.79700    0.27050    0.21850    1.000
    C143     C        0.76170    0.39370    0.19550    1.000
    C144     C        0.81180    0.40070    0.25370    1.000
    I38      I        0.15075    0.07865    0.98578    1.000
    I39      I        0.86845    0.81740    0.29960    1.000
    I40      I        0.85711    0.81730    0.29530    1.000
    I41      I        0.10630    0.22430    0.11250    1.000
    I42      I        0.14924    0.11360    0.99740    1.000
    I43      I        0.76600    0.76400    0.20290    1.000
    I44      I        0.89430    0.28800    0.95540    1.000
    I45      I        0.61604    0.23726    0.06035    1.000
    I46      I        0.52111    0.15581    0.13398    1.000
    I47      I        0.38913    0.27100    0.90194    1.000
    I48      I        0.74342    0.72426    0.81000    1.000
    Zn13     Zn       0.57910    0.12396    0.09794    1.000
    Zn14     Zn       0.37093    0.41010    0.93810    1.000
    Zn15     Zn       0.67796    0.64978    0.77825    1.000
    N49      N        0.56610    0.01680    0.05480    1.000
    N50      N        0.41670    0.49750    0.94170    1.000
    N51      N        0.64270    0.66630    0.82460    1.000
    N52      N        0.53690    0.65080    0.91430    1.000
    N53      N        0.52090    0.73030    0.97560    1.000
    N54      N        0.57490    0.77610    0.94420    1.000
    N55      N        0.61750    0.94860    0.64490    1.000
    N56      N        0.82830    0.97470    0.89320    1.000
    N57      N        0.68630    0.51230    0.78110    1.000
    N58      N        0.67930    0.18430    0.75110    1.000
    N59      N        0.73270    0.19550    0.81010    1.000
    N60      N        0.71810    0.05690    0.77220    1.000
    C145     C        0.43520    0.53380    0.97970    1.000
    H97      H        0.42580    0.52150    0.00540    1.000
    C146     C        0.46730    0.58840    0.98290    1.000
    H98      H        0.47950    0.61160    0.01000    1.000
    C147     C        0.48090    0.60770    0.94380    1.000
    C148     C        0.46160    0.57330    0.90480    1.000
    H99      H        0.47030    0.58510    0.87850    1.000
    C149     C        0.42870    0.51990    0.90430    1.000
    H100     H        0.41480    0.49960    0.87730    1.000
    C150     C        0.55610    0.86440    0.00160    1.000
    C151     C        0.52840    0.89050    0.02590    1.000
    H101     H        0.50570    0.85730    0.02460    1.000
    C152     C        0.53460    0.96500    0.05160    1.000
    H102     H        0.51590    0.98080    0.06800    1.000
    C153     C        0.59360    0.99160    0.03110    1.000
    H103     H        0.61580    0.02640    0.03280    1.000
    C154     C        0.58950    0.91590    0.00460    1.000
    H104     H        0.60890    0.89970    0.98910    1.000
    C155     C        0.59280    0.69290    0.88430    1.000
    C156     C        0.63010    0.73160    0.89060    1.000
    H105     H        0.63850    0.76840    0.91490    1.000
    C157     C        0.65380    0.71530    0.86130    1.000
    H106     H        0.67880    0.73920    0.86680    1.000
    C158     C        0.60720    0.62950    0.81750    1.000
    H107     H        0.59930    0.59500    0.79220    1.000
    C159     C        0.58200    0.64150    0.84650    1.000
    H108     H        0.55760    0.61490    0.84060    1.000
    C160     C        0.56700    0.70660    0.91620    1.000
    C161     C        0.55080    0.78570    0.97230    1.000
    C162     C        0.51480    0.66610    0.94470    1.000
    C163     C        0.66400    0.04580    0.71090    1.000
    C164     C        0.62730    0.07820    0.69070    1.000
    H109     H        0.61790    0.13250    0.69910    1.000
    C165     C        0.60590    0.02610    0.65800    1.000
    H110     H        0.58160    0.04710    0.64430    1.000
    C166     C        0.65270    0.91780    0.66480    1.000
    H111     H        0.66120    0.86290    0.65600    1.000
    C167     C        0.67600    0.96490    0.69760    1.000
    H112     H        0.70010    0.94190    0.71090    1.000
    C168     C        0.76950    0.06160    0.83590    1.000
    C169     C        0.77760    0.97180    0.82950    1.000
    H113     H        0.76320    0.93990    0.80600    1.000
    C170     C        0.80720    0.93120    0.85830    1.000
    H114     H        0.81300    0.87160    0.85370    1.000
    C171     C        0.82020    0.05950    0.90010    1.000
    H115     H        0.83440    0.08900    0.92460    1.000
    C172     C        0.79130    0.10570    0.87200    1.000
    H116     H        0.78650    0.16550    0.87720    1.000
    C173     C        0.69640    0.32760    0.78300    1.000
    C174     C        0.72050    0.38220    0.81310    1.000
    H117     H        0.74040    0.35790    0.83410    1.000
    C175     C        0.71400    0.47390    0.81100    1.000
    H118     H        0.72970    0.51040    0.83150    1.000
    C176     C        0.66380    0.45950    0.75220    1.000
    H119     H        0.64450    0.48600    0.73120    1.000
    C177     C        0.66760    0.36670    0.75160    1.000
    H120     H        0.65130    0.33200    0.73090    1.000
    C178     C        0.70300    0.22950    0.78150    1.000
    C179     C        0.73830    0.10630    0.80450    1.000
    C180     C        0.68820    0.09930    0.74630    1.000
    I49      I        0.34925    0.42135    0.01422    1.000
    I50      I        0.63155    0.68260    0.70040    1.000
    I51      I        0.64289    0.68270    0.70470    1.000
    I52      I        0.39370    0.27570    0.88750    1.000
    I53      I        0.35076    0.38640    0.00260    1.000
    I54      I        0.73400    0.73600    0.79710    1.000
    I55      I        0.60570    0.21200    0.04460    1.000
    I56      I        0.11604    0.73726    0.06035    1.000
    I57      I        0.02111    0.65581    0.13398    1.000
    I58      I        0.88913    0.77100    0.90194    1.000
    I59      I        0.24342    0.22426    0.81000    1.000
    Zn16     Zn       0.07910    0.62396    0.09794    1.000
    Zn17     Zn       0.87093    0.91010    0.93810    1.000
    Zn18     Zn       0.17796    0.14978    0.77825    1.000
    N61      N        0.06610    0.51680    0.05480    1.000
    N62      N        0.91670    0.99750    0.94170    1.000
    N63      N        0.14270    0.16630    0.82460    1.000
    N64      N        0.03690    0.15080    0.91430    1.000
    N65      N        0.02090    0.23030    0.97560    1.000
    N66      N        0.07490    0.27610    0.94420    1.000
    N67      N        0.11750    0.44860    0.64490    1.000
    N68      N        0.32830    0.47470    0.89320    1.000
    N69      N        0.18630    0.01230    0.78110    1.000
    N70      N        0.17930    0.68430    0.75110    1.000
    N71      N        0.23270    0.69550    0.81010    1.000
    N72      N        0.21810    0.55690    0.77220    1.000
    C181     C        0.93520    0.03380    0.97970    1.000
    H121     H        0.92580    0.02150    0.00540    1.000
    C182     C        0.96730    0.08840    0.98290    1.000
    H122     H        0.97950    0.11160    0.01000    1.000
    C183     C        0.98090    0.10770    0.94380    1.000
    C184     C        0.96160    0.07330    0.90480    1.000
    H123     H        0.97030    0.08510    0.87850    1.000
    C185     C        0.92870    0.01990    0.90430    1.000
    H124     H        0.91480    0.99960    0.87730    1.000
    C186     C        0.05610    0.36440    0.00160    1.000
    C187     C        0.02840    0.39050    0.02590    1.000
    H125     H        0.00570    0.35730    0.02460    1.000
    C188     C        0.03460    0.46500    0.05160    1.000
    H126     H        0.01590    0.48080    0.06800    1.000
    C189     C        0.09360    0.49160    0.03110    1.000
    H127     H        0.11580    0.52640    0.03280    1.000
    C190     C        0.08950    0.41590    0.00460    1.000
    H128     H        0.10890    0.39970    0.98910    1.000
    C191     C        0.09280    0.19290    0.88430    1.000
    C192     C        0.13010    0.23160    0.89060    1.000
    H129     H        0.13850    0.26840    0.91490    1.000
    C193     C        0.15380    0.21530    0.86130    1.000
    H130     H        0.17880    0.23920    0.86680    1.000
    C194     C        0.10720    0.12950    0.81750    1.000
    H131     H        0.09930    0.09500    0.79220    1.000
    C195     C        0.08200    0.14150    0.84650    1.000
    H132     H        0.05760    0.11490    0.84060    1.000
    C196     C        0.06700    0.20660    0.91620    1.000
    C197     C        0.05080    0.28570    0.97230    1.000
    C198     C        0.01480    0.16610    0.94470    1.000
    C199     C        0.16400    0.54580    0.71090    1.000
    C200     C        0.12730    0.57820    0.69070    1.000
    H133     H        0.11790    0.63250    0.69910    1.000
    C201     C        0.10590    0.52610    0.65800    1.000
    H134     H        0.08160    0.54710    0.64430    1.000
    C202     C        0.15270    0.41780    0.66480    1.000
    H135     H        0.16120    0.36290    0.65600    1.000
    C203     C        0.17600    0.46490    0.69760    1.000
    H136     H        0.20010    0.44190    0.71090    1.000
    C204     C        0.26950    0.56160    0.83590    1.000
    C205     C        0.27760    0.47180    0.82950    1.000
    H137     H        0.26320    0.43990    0.80600    1.000
    C206     C        0.30720    0.43120    0.85830    1.000
    H138     H        0.31300    0.37160    0.85370    1.000
    C207     C        0.32020    0.55950    0.90010    1.000
    H139     H        0.33440    0.58900    0.92460    1.000
    C208     C        0.29130    0.60570    0.87200    1.000
    H140     H        0.28650    0.66550    0.87720    1.000
    C209     C        0.19640    0.82760    0.78300    1.000
    C210     C        0.22050    0.88220    0.81310    1.000
    H141     H        0.24040    0.85790    0.83410    1.000
    C211     C        0.21400    0.97390    0.81100    1.000
    H142     H        0.22970    0.01040    0.83150    1.000
    C212     C        0.16380    0.95950    0.75220    1.000
    H143     H        0.14450    0.98600    0.73120    1.000
    C213     C        0.16760    0.86670    0.75160    1.000
    H144     H        0.15130    0.83200    0.73090    1.000
    C214     C        0.20300    0.72950    0.78150    1.000
    C215     C        0.23830    0.60630    0.80450    1.000
    C216     C        0.18820    0.59930    0.74630    1.000
    I60      I        0.84925    0.92135    0.01422    1.000
    I61      I        0.13155    0.18260    0.70040    1.000
    I62      I        0.14289    0.18270    0.70470    1.000
    I63      I        0.89370    0.77570    0.88750    1.000
    I64      I        0.85076    0.88640    0.00260    1.000
    I65      I        0.23400    0.23600    0.79710    1.000
    I66      I        0.10570    0.71200    0.04460    1.000
    I67      I        0.61604    0.76274    0.56035    1.000
    I68      I        0.52111    0.84419    0.63398    1.000
    I69      I        0.38913    0.72900    0.40194    1.000
    I70      I        0.74342    0.27574    0.31000    1.000
    Zn19     Zn       0.57910    0.87604    0.59794    1.000
    Zn20     Zn       0.37093    0.58990    0.43810    1.000
    Zn21     Zn       0.67796    0.35022    0.27825    1.000
    N73      N        0.56610    0.98320    0.55480    1.000
    N74      N        0.41670    0.50250    0.44170    1.000
    N75      N        0.64270    0.33370    0.32460    1.000
    N76      N        0.53690    0.34920    0.41430    1.000
    N77      N        0.52090    0.26970    0.47560    1.000
    N78      N        0.57490    0.22390    0.44420    1.000
    N79      N        0.61750    0.05140    0.14490    1.000
    N80      N        0.82830    0.02530    0.39320    1.000
    N81      N        0.68630    0.48770    0.28110    1.000
    N82      N        0.67930    0.81570    0.25110    1.000
    N83      N        0.73270    0.80450    0.31010    1.000
    N84      N        0.71810    0.94310    0.27220    1.000
    C217     C        0.43520    0.46620    0.47970    1.000
    H145     H        0.42580    0.47850    0.50540    1.000
    C218     C        0.46730    0.41160    0.48290    1.000
    H146     H        0.47950    0.38840    0.51000    1.000
    C219     C        0.48090    0.39230    0.44380    1.000
    C220     C        0.46160    0.42670    0.40480    1.000
    H147     H        0.47030    0.41490    0.37850    1.000
    C221     C        0.42870    0.48010    0.40430    1.000
    H148     H        0.41480    0.50040    0.37730    1.000
    C222     C        0.55610    0.13560    0.50160    1.000
    C223     C        0.52840    0.10950    0.52590    1.000
    H149     H        0.50570    0.14270    0.52460    1.000
    C224     C        0.53460    0.03500    0.55160    1.000
    H150     H        0.51590    0.01920    0.56800    1.000
    C225     C        0.59360    0.00840    0.53110    1.000
    H151     H        0.61580    0.97360    0.53280    1.000
    C226     C        0.58950    0.08410    0.50460    1.000
    H152     H        0.60890    0.10030    0.48910    1.000
    C227     C        0.59280    0.30710    0.38430    1.000
    C228     C        0.63010    0.26840    0.39060    1.000
    H153     H        0.63850    0.23160    0.41490    1.000
    C229     C        0.65380    0.28470    0.36130    1.000
    H154     H        0.67880    0.26080    0.36680    1.000
    C230     C        0.60720    0.37050    0.31750    1.000
    H155     H        0.59930    0.40500    0.29220    1.000
    C231     C        0.58200    0.35850    0.34650    1.000
    H156     H        0.55760    0.38510    0.34060    1.000
    C232     C        0.56700    0.29340    0.41620    1.000
    C233     C        0.55080    0.21430    0.47230    1.000
    C234     C        0.51480    0.33390    0.44470    1.000
    C235     C        0.66400    0.95420    0.21090    1.000
    C236     C        0.62730    0.92180    0.19070    1.000
    H157     H        0.61790    0.86750    0.19910    1.000
    C237     C        0.60590    0.97390    0.15800    1.000
    H158     H        0.58160    0.95290    0.14430    1.000
    C238     C        0.65270    0.08220    0.16480    1.000
    H159     H        0.66120    0.13710    0.15600    1.000
    C239     C        0.67600    0.03510    0.19760    1.000
    H160     H        0.70010    0.05810    0.21090    1.000
    C240     C        0.76950    0.93840    0.33590    1.000
    C241     C        0.77760    0.02820    0.32950    1.000
    H161     H        0.76320    0.06010    0.30600    1.000
    C242     C        0.80720    0.06880    0.35830    1.000
    H162     H        0.81300    0.12840    0.35370    1.000
    C243     C        0.82020    0.94050    0.40010    1.000
    H163     H        0.83440    0.91100    0.42460    1.000
    C244     C        0.79130    0.89430    0.37200    1.000
    H164     H        0.78650    0.83450    0.37720    1.000
    C245     C        0.69640    0.67240    0.28300    1.000
    C246     C        0.72050    0.61780    0.31310    1.000
    H165     H        0.74040    0.64210    0.33410    1.000
    C247     C        0.71400    0.52610    0.31100    1.000
    H166     H        0.72970    0.48960    0.33150    1.000
    C248     C        0.66380    0.54050    0.25220    1.000
    H167     H        0.64450    0.51400    0.23120    1.000
    C249     C        0.66760    0.63330    0.25160    1.000
    H168     H        0.65130    0.66800    0.23090    1.000
    C250     C        0.70300    0.77050    0.28150    1.000
    C251     C        0.73830    0.89370    0.30450    1.000
    C252     C        0.68820    0.90070    0.24630    1.000
    I71      I        0.34925    0.57865    0.51422    1.000
    I72      I        0.63155    0.31740    0.20040    1.000
    I73      I        0.64289    0.31730    0.20470    1.000
    I74      I        0.39370    0.72430    0.38750    1.000
    I75      I        0.35076    0.61360    0.50260    1.000
    I76      I        0.73400    0.26400    0.29710    1.000
    I77      I        0.60570    0.78800    0.54460    1.000
    I78      I        0.11604    0.26274    0.56035    1.000
    I79      I        0.02111    0.34419    0.63398    1.000
    I80      I        0.88913    0.22900    0.40194    1.000
    I81      I        0.24342    0.77574    0.31000    1.000
    Zn22     Zn       0.07910    0.37604    0.59794    1.000
    Zn23     Zn       0.87093    0.08990    0.43810    1.000
    Zn24     Zn       0.17796    0.85022    0.27825    1.000
    N85      N        0.06610    0.48320    0.55480    1.000
    N86      N        0.91670    0.00250    0.44170    1.000
    N87      N        0.14270    0.83370    0.32460    1.000
    N88      N        0.03690    0.84920    0.41430    1.000
    N89      N        0.02090    0.76970    0.47560    1.000
    N90      N        0.07490    0.72390    0.44420    1.000
    N91      N        0.11750    0.55140    0.14490    1.000
    N92      N        0.32830    0.52530    0.39320    1.000
    N93      N        0.18630    0.98770    0.28110    1.000
    N94      N        0.17930    0.31570    0.25110    1.000
    N95      N        0.23270    0.30450    0.31010    1.000
    N96      N        0.21810    0.44310    0.27220    1.000
    C253     C        0.93520    0.96620    0.47970    1.000
    H169     H        0.92580    0.97850    0.50540    1.000
    C254     C        0.96730    0.91160    0.48290    1.000
    H170     H        0.97950    0.88840    0.51000    1.000
    C255     C        0.98090    0.89230    0.44380    1.000
    C256     C        0.96160    0.92670    0.40480    1.000
    H171     H        0.97030    0.91490    0.37850    1.000
    C257     C        0.92870    0.98010    0.40430    1.000
    H172     H        0.91480    0.00040    0.37730    1.000
    C258     C        0.05610    0.63560    0.50160    1.000
    C259     C        0.02840    0.60950    0.52590    1.000
    H173     H        0.00570    0.64270    0.52460    1.000
    C260     C        0.03460    0.53500    0.55160    1.000
    H174     H        0.01590    0.51920    0.56800    1.000
    C261     C        0.09360    0.50840    0.53110    1.000
    H175     H        0.11580    0.47360    0.53280    1.000
    C262     C        0.08950    0.58410    0.50460    1.000
    H176     H        0.10890    0.60030    0.48910    1.000
    C263     C        0.09280    0.80710    0.38430    1.000
    C264     C        0.13010    0.76840    0.39060    1.000
    H177     H        0.13850    0.73160    0.41490    1.000
    C265     C        0.15380    0.78470    0.36130    1.000
    H178     H        0.17880    0.76080    0.36680    1.000
    C266     C        0.10720    0.87050    0.31750    1.000
    H179     H        0.09930    0.90500    0.29220    1.000
    C267     C        0.08200    0.85850    0.34650    1.000
    H180     H        0.05760    0.88510    0.34060    1.000
    C268     C        0.06700    0.79340    0.41620    1.000
    C269     C        0.05080    0.71430    0.47230    1.000
    C270     C        0.01480    0.83390    0.44470    1.000
    C271     C        0.16400    0.45420    0.21090    1.000
    C272     C        0.12730    0.42180    0.19070    1.000
    H181     H        0.11790    0.36750    0.19910    1.000
    C273     C        0.10590    0.47390    0.15800    1.000
    H182     H        0.08160    0.45290    0.14430    1.000
    C274     C        0.15270    0.58220    0.16480    1.000
    H183     H        0.16120    0.63710    0.15600    1.000
    C275     C        0.17600    0.53510    0.19760    1.000
    H184     H        0.20010    0.55810    0.21090    1.000
    C276     C        0.26950    0.43840    0.33590    1.000
    C277     C        0.27760    0.52820    0.32950    1.000
    H185     H        0.26320    0.56010    0.30600    1.000
    C278     C        0.30720    0.56880    0.35830    1.000
    H186     H        0.31300    0.62840    0.35370    1.000
    C279     C        0.32020    0.44050    0.40010    1.000
    H187     H        0.33440    0.41100    0.42460    1.000
    C280     C        0.29130    0.39430    0.37200    1.000
    H188     H        0.28650    0.33450    0.37720    1.000
    C281     C        0.19640    0.17240    0.28300    1.000
    C282     C        0.22050    0.11780    0.31310    1.000
    H189     H        0.24040    0.14210    0.33410    1.000
    C283     C        0.21400    0.02610    0.31100    1.000
    H190     H        0.22970    0.98960    0.33150    1.000
    C284     C        0.16380    0.04050    0.25220    1.000
    H191     H        0.14450    0.01400    0.23120    1.000
    C285     C        0.16760    0.13330    0.25160    1.000
    H192     H        0.15130    0.16800    0.23090    1.000
    C286     C        0.20300    0.27050    0.28150    1.000
    C287     C        0.23830    0.39370    0.30450    1.000
    C288     C        0.18820    0.40070    0.24630    1.000
    I82      I        0.84925    0.07865    0.51422    1.000
    I83      I        0.13155    0.81740    0.20040    1.000
    I84      I        0.14289    0.81730    0.20470    1.000
    I85      I        0.89370    0.22430    0.38750    1.000
    I86      I        0.85076    0.11360    0.50260    1.000
    I87      I        0.23400    0.76400    0.29710    1.000
    I88      I        0.10570    0.28800    0.54460    1.000
