data_functionalizedCrystal
_audit_creation_method	'EQeq! by Chris Wilmer'
_symmetry_space_group_name_H-M	'P1'
_symmetry_Int_Tables_number	1
_symmetry_cell_setting	triclinic
loop_
_symmetry_equiv_pos_as_xyz
  x,y,z
_cell_length_a	19.536
_cell_length_b	24.875
_cell_length_c	24.9627
_cell_angle_alpha	90
_cell_angle_beta	90
_cell_angle_gamma	90
loop_
_atom_site_label
_atom_site_type_symbol
_atom_site_fract_x
_atom_site_fract_y
_atom_site_fract_z
_atom_site_charge
Mof_Co	Co	0.9172	0.90656	0.92202	1.164
Mof_Co	Co	0.75052	0.94039	0.87556	1.198
Mof_Co	Co	0.08054	0.52719	0.91765	1.114
Mof_Co	Co	0.4172	0.09344	0.57798	1.164
Mof_Co	Co	0.25052	0.05961	0.62444	1.198
Mof_Co	Co	0.58054	0.47281	0.58235	1.114
Mof_Co	Co	0.5828	0.40656	0.07798	1.165
Mof_Co	Co	0.74948	0.44039	0.12444	1.199
Mof_Co	Co	0.41946	0.02719	0.08235	1.114
Mof_Co	Co	0.0828	0.59344	0.42202	1.165
Mof_Co	Co	0.24948	0.55961	0.37556	1.199
Mof_Co	Co	0.91946	0.97281	0.41765	1.114
Mof_Co	Co	0.0828	0.09344	0.07798	1.165
Mof_Co	Co	0.24948	0.05961	0.12444	1.199
Mof_Co	Co	0.91946	0.47281	0.08235	1.115
Mof_Co	Co	0.5828	0.90656	0.42202	1.165
Mof_Co	Co	0.74948	0.94039	0.37556	1.199
Mof_Co	Co	0.41946	0.52719	0.41765	1.115
Mof_Co	Co	0.4172	0.59344	0.92202	1.165
Mof_Co	Co	0.25052	0.55961	0.87556	1.199
Mof_Co	Co	0.58054	0.97281	0.91765	1.114
Mof_Co	Co	0.9172	0.40656	0.57798	1.165
Mof_Co	Co	0.75052	0.44039	0.62444	1.199
Mof_Co	Co	0.08054	0.02719	0.58235	1.114
Mof_P 	P 	0.91677	0.76267	0.59704	0.185
Mof_P 	P 	0.08934	0.88186	0.9041	0.217
Mof_P 	P 	0.41677	0.23733	0.90296	0.184
Mof_P 	P 	0.58934	0.11814	0.5959	0.217
Mof_P 	P 	0.58323	0.26267	0.40296	0.185
Mof_P 	P 	0.41066	0.38186	0.0959	0.217
Mof_P 	P 	0.08323	0.73733	0.09704	0.185
Mof_P 	P 	0.91066	0.61814	0.4041	0.217
Mof_P 	P 	0.08323	0.23733	0.40296	0.185
Mof_P 	P 	0.91066	0.11814	0.0959	0.217
Mof_P 	P 	0.58323	0.76267	0.09704	0.184
Mof_P 	P 	0.41066	0.88186	0.4041	0.217
Mof_P 	P 	0.41677	0.73733	0.59704	0.185
Mof_P 	P 	0.58934	0.61814	0.9041	0.217
Mof_P 	P 	0.91677	0.26267	0.90296	0.185
Mof_P 	P 	0.08934	0.38186	0.5959	0.217
Mof_H 	H 	0.9956	0.7891	0.689	0.065
Mof_H 	H 	0.9755	0.8308	0.7723	0.039
Mof_H 	H 	0.7749	0.845	0.7355	0.042
Mof_H 	H 	0.7952	0.8008	0.6539	0.057
Mof_H 	H 	0.9784	0.673	0.5468	0.064
Mof_H 	H 	0.9628	0.579	0.5472	0.031
Mof_H 	H 	0.8159	0.596	0.6616	0.041
Mof_H 	H 	0.8324	0.6892	0.6605	0.055
Mof_H 	H 	0.8925	0.8594	0.5423	0.044
Mof_H 	H 	0.8029	0.8979	0.492	0.023
Mof_H 	H 	0.6981	0.7571	0.5025	0.041
Mof_H 	H 	0.7842	0.7203	0.5544	0.056
Mof_H 	H 	0.181	0.8096	0.8459	0.05
Mof_H 	H 	0.195	0.7166	0.843	0.044
Mof_H 	H 	0.0269	0.6973	0.9372	0.039
Mof_H 	H 	0.0159	0.7909	0.944	0.059
Mof_H 	H 	0.2108	0.9097	0.8432	0.049
Mof_H 	H 	0.2303	0.9534	0.7611	0.042
Mof_H 	H 	0.0261	0.9687	0.7391	0.037
Mof_H 	H 	0.0066	0.9246	0.8207	0.055
Mof_H 	H 	0.2111	0.8352	0.9587	0.054
Mof_H 	H 	0.2988	0.8726	0.0101	0.041
Mof_H 	H 	0.2097	0.0186	0.0008	0.029
Mof_H 	H 	0.1225	0.9823	0.9486	0.051
Mof_H 	H 	0.4956	0.2109	0.811	0.065
Mof_H 	H 	0.4755	0.1692	0.7277	0.04
Mof_H 	H 	0.2749	0.155	0.7645	0.042
Mof_H 	H 	0.2952	0.1992	0.8461	0.057
Mof_H 	H 	0.4784	0.327	0.9532	0.064
Mof_H 	H 	0.4628	0.421	0.9528	0.031
Mof_H 	H 	0.3159	0.404	0.8384	0.041
Mof_H 	H 	0.3324	0.3108	0.8395	0.055
Mof_H 	H 	0.3925	0.1406	0.9577	0.044
Mof_H 	H 	0.3029	0.1021	0.008	0.021
Mof_H 	H 	0.1981	0.2429	0.9975	0.041
Mof_H 	H 	0.2842	0.2797	0.9456	0.057
Mof_H 	H 	0.681	0.1904	0.6541	0.05
Mof_H 	H 	0.695	0.2834	0.657	0.044
Mof_H 	H 	0.5269	0.3027	0.5628	0.039
Mof_H 	H 	0.5159	0.2091	0.556	0.059
Mof_H 	H 	0.7108	0.0903	0.6568	0.049
Mof_H 	H 	0.7303	0.0466	0.7389	0.042
Mof_H 	H 	0.5261	0.0313	0.7609	0.037
Mof_H 	H 	0.5066	0.0754	0.6793	0.055
Mof_H 	H 	0.7111	0.1648	0.5413	0.054
Mof_H 	H 	0.7988	0.1274	0.4899	0.04
Mof_H 	H 	0.7097	0.9814	0.4992	0.029
Mof_H 	H 	0.6225	0.0177	0.5514	0.051
Mof_H 	H 	0.5044	0.2891	0.311	0.065
Mof_H 	H 	0.5245	0.3308	0.2277	0.04
Mof_H 	H 	0.7251	0.345	0.2645	0.042
Mof_H 	H 	0.7048	0.3008	0.3461	0.057
Mof_H 	H 	0.5216	0.173	0.4532	0.064
Mof_H 	H 	0.5372	0.079	0.4528	0.03
Mof_H 	H 	0.6841	0.096	0.3384	0.041
Mof_H 	H 	0.6676	0.1892	0.3395	0.055
Mof_H 	H 	0.6075	0.3594	0.4577	0.044
Mof_H 	H 	0.6971	0.3979	0.508	0.023
Mof_H 	H 	0.8019	0.2571	0.4975	0.041
Mof_H 	H 	0.7158	0.2203	0.4456	0.056
Mof_H 	H 	0.319	0.3096	0.1541	0.05
Mof_H 	H 	0.305	0.2166	0.157	0.044
Mof_H 	H 	0.4731	0.1973	0.0628	0.039
Mof_H 	H 	0.4841	0.2909	0.056	0.059
Mof_H 	H 	0.2892	0.4097	0.1568	0.049
Mof_H 	H 	0.2697	0.4534	0.2389	0.042
Mof_H 	H 	0.4739	0.4687	0.2609	0.037
Mof_H 	H 	0.4934	0.4246	0.1793	0.055
Mof_H 	H 	0.2889	0.3352	0.0413	0.054
Mof_H 	H 	0.2012	0.3726	0.9899	0.041
Mof_H 	H 	0.2903	0.5186	0.9992	0.031
Mof_H 	H 	0.3775	0.4823	0.0514	0.051
Mof_H 	H 	0.0044	0.7109	0.189	0.066
Mof_H 	H 	0.0245	0.6692	0.2723	0.04
Mof_H 	H 	0.2251	0.655	0.2355	0.042
Mof_H 	H 	0.2048	0.6992	0.1539	0.057
Mof_H 	H 	0.0216	0.827	0.0468	0.064
Mof_H 	H 	0.0372	0.921	0.0472	0.031
Mof_H 	H 	0.1841	0.904	0.1616	0.041
Mof_H 	H 	0.1676	0.8108	0.1605	0.055
Mof_H 	H 	0.1075	0.6406	0.0423	0.044
Mof_H 	H 	0.1971	0.6021	0.992	0.023
Mof_H 	H 	0.3019	0.7429	0.0025	0.041
Mof_H 	H 	0.2158	0.7797	0.0544	0.056
Mof_H 	H 	0.819	0.6904	0.3459	0.05
Mof_H 	H 	0.805	0.7834	0.343	0.044
Mof_H 	H 	0.9731	0.8027	0.4372	0.039
Mof_H 	H 	0.9841	0.7091	0.444	0.059
Mof_H 	H 	0.7892	0.5903	0.3432	0.049
Mof_H 	H 	0.7697	0.5466	0.2611	0.042
Mof_H 	H 	0.9739	0.5313	0.2391	0.037
Mof_H 	H 	0.9934	0.5754	0.3207	0.055
Mof_H 	H 	0.7889	0.6648	0.4587	0.054
Mof_H 	H 	0.7012	0.6274	0.5101	0.04
Mof_H 	H 	0.7903	0.4814	0.5008	0.03
Mof_H 	H 	0.8775	0.5177	0.4486	0.051
Mof_H 	H 	0.0044	0.2109	0.311	0.065
Mof_H 	H 	0.0245	0.1692	0.2277	0.039
Mof_H 	H 	0.2251	0.155	0.2645	0.042
Mof_H 	H 	0.2048	0.1992	0.3461	0.057
Mof_H 	H 	0.0216	0.327	0.4532	0.064
Mof_H 	H 	0.0372	0.421	0.4528	0.031
Mof_H 	H 	0.1841	0.404	0.3384	0.041
Mof_H 	H 	0.1676	0.3108	0.3395	0.055
Mof_H 	H 	0.1075	0.1406	0.4577	0.044
Mof_H 	H 	0.1971	0.1021	0.508	0.023
Mof_H 	H 	0.3019	0.2429	0.4975	0.041
Mof_H 	H 	0.2158	0.2797	0.4456	0.056
Mof_H 	H 	0.819	0.1904	0.1541	0.05
Mof_H 	H 	0.805	0.2834	0.157	0.044
Mof_H 	H 	0.9731	0.3027	0.0628	0.039
Mof_H 	H 	0.9841	0.2091	0.056	0.059
Mof_H 	H 	0.7892	0.0903	0.1568	0.049
Mof_H 	H 	0.7697	0.0466	0.2389	0.042
Mof_H 	H 	0.9739	0.0313	0.2609	0.037
Mof_H 	H 	0.9934	0.0754	0.1793	0.055
Mof_H 	H 	0.7889	0.1648	0.0413	0.054
Mof_H 	H 	0.7012	0.1274	0.9899	0.041
Mof_H 	H 	0.7903	0.9814	0.9992	0.029
Mof_H 	H 	0.8775	0.0177	0.0514	0.051
Mof_H 	H 	0.5044	0.7891	0.189	0.065
Mof_H 	H 	0.5245	0.8308	0.2723	0.04
Mof_H 	H 	0.7251	0.845	0.2355	0.042
Mof_H 	H 	0.7048	0.8008	0.1539	0.057
Mof_H 	H 	0.5216	0.673	0.0468	0.064
Mof_H 	H 	0.5372	0.579	0.0472	0.031
Mof_H 	H 	0.6841	0.596	0.1616	0.041
Mof_H 	H 	0.6676	0.6892	0.1605	0.055
Mof_H 	H 	0.6075	0.8594	0.0423	0.044
Mof_H 	H 	0.6971	0.8979	0.992	0.021
Mof_H 	H 	0.8019	0.7571	0.0025	0.041
Mof_H 	H 	0.7158	0.7203	0.0544	0.057
Mof_H 	H 	0.319	0.8096	0.3459	0.05
Mof_H 	H 	0.305	0.7166	0.343	0.044
Mof_H 	H 	0.4731	0.6973	0.4372	0.039
Mof_H 	H 	0.4841	0.7909	0.444	0.059
Mof_H 	H 	0.2892	0.9097	0.3432	0.049
Mof_H 	H 	0.2697	0.9534	0.2611	0.042
Mof_H 	H 	0.4739	0.9687	0.2391	0.037
Mof_H 	H 	0.4934	0.9246	0.3207	0.055
Mof_H 	H 	0.2889	0.8352	0.4587	0.054
Mof_H 	H 	0.2012	0.8726	0.5101	0.04
Mof_H 	H 	0.2903	0.0186	0.5008	0.029
Mof_H 	H 	0.3775	0.9823	0.4486	0.051
Mof_H 	H 	0.4956	0.7109	0.689	0.065
Mof_H 	H 	0.4755	0.6692	0.7723	0.04
Mof_H 	H 	0.2749	0.655	0.7355	0.042
Mof_H 	H 	0.2952	0.6992	0.6539	0.057
Mof_H 	H 	0.4784	0.827	0.5468	0.064
Mof_H 	H 	0.4628	0.921	0.5472	0.03
Mof_H 	H 	0.3159	0.904	0.6616	0.041
Mof_H 	H 	0.3324	0.8108	0.6605	0.055
Mof_H 	H 	0.3925	0.6406	0.5423	0.044
Mof_H 	H 	0.3029	0.6021	0.492	0.023
Mof_H 	H 	0.1981	0.7429	0.5025	0.041
Mof_H 	H 	0.2842	0.7797	0.5544	0.056
Mof_H 	H 	0.681	0.6904	0.8459	0.05
Mof_H 	H 	0.695	0.7834	0.843	0.044
Mof_H 	H 	0.5269	0.8027	0.9372	0.039
Mof_H 	H 	0.5159	0.7091	0.944	0.059
Mof_H 	H 	0.7108	0.5903	0.8432	0.049
Mof_H 	H 	0.7303	0.5466	0.7611	0.042
Mof_H 	H 	0.5261	0.5313	0.7391	0.037
Mof_H 	H 	0.5066	0.5754	0.8207	0.055
Mof_H 	H 	0.7111	0.6648	0.9587	0.054
Mof_H 	H 	0.7988	0.6274	0.0101	0.041
Mof_H 	H 	0.7097	0.4814	0.0008	0.031
Mof_H 	H 	0.6225	0.5177	0.9486	0.051
Mof_H 	H 	0.9956	0.2891	0.811	0.066
Mof_H 	H 	0.9755	0.3308	0.7277	0.04
Mof_H 	H 	0.7749	0.345	0.7645	0.042
Mof_H 	H 	0.7952	0.3008	0.8461	0.057
Mof_H 	H 	0.9784	0.173	0.9532	0.064
Mof_H 	H 	0.9628	0.079	0.9528	0.031
Mof_H 	H 	0.8159	0.096	0.8384	0.041
Mof_H 	H 	0.8324	0.1892	0.8395	0.055
Mof_H 	H 	0.8925	0.3594	0.9577	0.044
Mof_H 	H 	0.8029	0.3979	0.008	0.023
Mof_H 	H 	0.6981	0.2571	0.9975	0.041
Mof_H 	H 	0.7842	0.2203	0.9456	0.056
Mof_H 	H 	0.181	0.3096	0.6541	0.05
Mof_H 	H 	0.195	0.2166	0.657	0.044
Mof_H 	H 	0.0269	0.1973	0.5628	0.039
Mof_H 	H 	0.0159	0.2909	0.556	0.059
Mof_H 	H 	0.2108	0.4097	0.6568	0.049
Mof_H 	H 	0.2303	0.4534	0.7389	0.042
Mof_H 	H 	0.0261	0.4687	0.7609	0.037
Mof_H 	H 	0.0066	0.4246	0.6793	0.055
Mof_H 	H 	0.2111	0.3352	0.5413	0.054
Mof_H 	H 	0.2988	0.3726	0.4899	0.04
Mof_H 	H 	0.2097	0.5186	0.4992	0.03
Mof_H 	H 	0.1225	0.4823	0.5514	0.051
Mof_C 	C 	0.8978	0.7924	0.6628	-0
Mof_C 	C 	0.9507	0.8005	0.6981	-0.073
Mof_C 	C 	0.9387	0.826	0.7479	0.015
Mof_C 	C 	0.8739	0.84376	0.7614	-0.097
Mof_C 	C 	0.861	0.874	0.813	0.367
Mof_C 	C 	0.82	0.834	0.7263	0.015
Mof_C 	C 	0.8324	0.8079	0.6774	-0.078
Mof_C 	C 	0.9069	0.69032	0.6025	-0.001
Mof_C 	C 	0.9452	0.6575	0.57	-0.072
Mof_C 	C 	0.9363	0.6011	0.5704	0.019
Mof_C 	C 	0.8882	0.57782	0.6051	-0.095
Mof_C 	C 	0.8755	0.5181	0.6051	0.366
Mof_C 	C 	0.8491	0.6113	0.6383	0.016
Mof_C 	C 	0.8587	0.6669	0.6374	-0.075
Mof_C 	C 	0.8477	0.7858	0.5541	-0.008
Mof_C 	C 	0.8527	0.8388	0.5347	-0.064
Mof_C 	C 	0.7995	0.86185	0.5043	0.002
Mof_C 	C 	0.7415	0.831	0.4923	-0.091
Mof_C 	C 	0.6833	0.8563	0.4629	0.317
Mof_C 	C 	0.7372	0.7781	0.511	0.012
Mof_C 	C 	0.7886	0.7561	0.5415	-0.072
Mof_C 	C 	0.0978	0.81018	0.89552	-0.019
Mof_C 	C 	0.1504	0.78712	0.8652	-0.064
Mof_C 	C 	0.1585	0.7317	0.863	0.009
Mof_C 	C 	0.1122	0.69767	0.8907	-0.093
Mof_C 	C 	0.1226	0.6373	0.8891	0.371
Mof_C 	C 	0.0589	0.72007	0.9196	0.014
Mof_C 	C 	0.0517	0.77591	0.9231	-0.061
Mof_C 	C 	0.1062	0.91401	0.84079	-0.018
Mof_C 	C 	0.1731	0.9219	0.8224	-0.064
Mof_C 	C 	0.1847	0.948	0.7732	0.009
Mof_C 	C 	0.1303	0.9658	0.7422	-0.09
Mof_C 	C 	0.1436	0.9957	0.6902	0.367
Mof_C 	C 	0.0638	0.957	0.7601	0.01
Mof_C 	C 	0.0523	0.9308	0.8091	-0.061
Mof_C 	C 	0.1576	0.90477	0.94708	-0.016
Mof_C 	C 	0.2105	0.8726	0.9666	-0.065
Mof_C 	C 	0.2626	0.8949	0.9978	0.005
Mof_C 	C 	0.2625	0.94908	0.01115	-0.09
Mof_C 	C 	0.3199	0.97354	0.04222	0.306
Mof_C 	C 	0.2102	0.9814	0.9923	0.001
Mof_C 	C 	0.1583	0.9596	0.961	-0.061
Mof_C 	C 	0.3978	0.2076	0.8372	-0
Mof_C 	C 	0.4507	0.1995	0.8019	-0.073
Mof_C 	C 	0.4387	0.174	0.7521	0.015
Mof_C 	C 	0.3739	0.15624	0.7386	-0.097
Mof_C 	C 	0.361	0.126	0.687	0.367
Mof_C 	C 	0.32	0.166	0.7737	0.015
Mof_C 	C 	0.3324	0.1921	0.8226	-0.077
Mof_C 	C 	0.4069	0.30968	0.8975	-0.001
Mof_C 	C 	0.4452	0.3425	0.93	-0.072
Mof_C 	C 	0.4363	0.3989	0.9296	0.019
Mof_C 	C 	0.3882	0.42218	0.8949	-0.095
Mof_C 	C 	0.3755	0.4819	0.8949	0.366
Mof_C 	C 	0.3491	0.3887	0.8617	0.016
Mof_C 	C 	0.3587	0.3331	0.8626	-0.075
Mof_C 	C 	0.3477	0.2142	0.9459	-0.007
Mof_C 	C 	0.3527	0.1612	0.9653	-0.066
Mof_C 	C 	0.2995	0.13815	0.9957	0.004
Mof_C 	C 	0.2415	0.169	0.0077	-0.093
Mof_C 	C 	0.1833	0.1437	0.0371	0.318
Mof_C 	C 	0.2372	0.2219	0.989	0.014
Mof_C 	C 	0.2886	0.2439	0.9585	-0.073
Mof_C 	C 	0.5978	0.18982	0.60448	-0.019
Mof_C 	C 	0.6504	0.21288	0.6348	-0.064
Mof_C 	C 	0.6585	0.2683	0.637	0.009
Mof_C 	C 	0.6122	0.30233	0.6093	-0.093
Mof_C 	C 	0.6226	0.3627	0.6109	0.371
Mof_C 	C 	0.5589	0.27993	0.5804	0.014
Mof_C 	C 	0.5517	0.22409	0.5769	-0.061
Mof_C 	C 	0.6062	0.08599	0.65921	-0.018
Mof_C 	C 	0.6731	0.0781	0.6776	-0.064
Mof_C 	C 	0.6847	0.052	0.7268	0.009
Mof_C 	C 	0.6303	0.0342	0.7578	-0.09
Mof_C 	C 	0.6436	0.0043	0.8098	0.368
Mof_C 	C 	0.5638	0.043	0.7399	0.01
Mof_C 	C 	0.5523	0.0692	0.6909	-0.061
Mof_C 	C 	0.6576	0.09523	0.55292	-0.015
Mof_C 	C 	0.7105	0.1274	0.5334	-0.066
Mof_C 	C 	0.7626	0.1051	0.5022	0.006
Mof_C 	C 	0.7625	0.05092	0.48885	-0.091
Mof_C 	C 	0.8199	0.02646	0.45778	0.306
Mof_C 	C 	0.7102	0.0186	0.5077	0.002
Mof_C 	C 	0.6583	0.0404	0.539	-0.061
Mof_C 	C 	0.6022	0.2924	0.3372	-0
Mof_C 	C 	0.5493	0.3005	0.3019	-0.073
Mof_C 	C 	0.5613	0.326	0.2521	0.015
Mof_C 	C 	0.6261	0.34376	0.2386	-0.097
Mof_C 	C 	0.639	0.374	0.187	0.367
Mof_C 	C 	0.68	0.334	0.2737	0.015
Mof_C 	C 	0.6676	0.3079	0.3226	-0.077
Mof_C 	C 	0.5931	0.19032	0.3975	-0.001
Mof_C 	C 	0.5548	0.1575	0.43	-0.072
Mof_C 	C 	0.5637	0.1011	0.4296	0.019
Mof_C 	C 	0.6118	0.07782	0.3949	-0.095
Mof_C 	C 	0.6245	0.0181	0.3949	0.366
Mof_C 	C 	0.6509	0.1113	0.3617	0.016
Mof_C 	C 	0.6413	0.1669	0.3626	-0.075
Mof_C 	C 	0.6523	0.2858	0.4459	-0.008
Mof_C 	C 	0.6473	0.3388	0.4653	-0.064
Mof_C 	C 	0.7005	0.36185	0.4957	0.002
Mof_C 	C 	0.7585	0.331	0.5077	-0.091
Mof_C 	C 	0.8167	0.3563	0.5371	0.317
Mof_C 	C 	0.7628	0.2781	0.489	0.012
Mof_C 	C 	0.7114	0.2561	0.4585	-0.072
Mof_C 	C 	0.4022	0.31018	0.10448	-0.019
Mof_C 	C 	0.3496	0.28712	0.1348	-0.064
Mof_C 	C 	0.3415	0.2317	0.137	0.009
Mof_C 	C 	0.3878	0.19767	0.1093	-0.093
Mof_C 	C 	0.3774	0.1373	0.1109	0.371
Mof_C 	C 	0.4411	0.22007	0.0804	0.014
Mof_C 	C 	0.4483	0.27591	0.0769	-0.061
Mof_C 	C 	0.3938	0.41401	0.15921	-0.018
Mof_C 	C 	0.3269	0.4219	0.1776	-0.064
Mof_C 	C 	0.3153	0.448	0.2268	0.008
Mof_C 	C 	0.3697	0.4658	0.2578	-0.09
Mof_C 	C 	0.3564	0.4957	0.3098	0.367
Mof_C 	C 	0.4362	0.457	0.2399	0.01
Mof_C 	C 	0.4477	0.4308	0.1909	-0.061
Mof_C 	C 	0.3424	0.40477	0.05292	-0.016
Mof_C 	C 	0.2895	0.3726	0.0334	-0.065
Mof_C 	C 	0.2374	0.3949	0.0022	0.004
Mof_C 	C 	0.2375	0.44908	0.98885	-0.089
Mof_C 	C 	0.1801	0.47354	0.95778	0.305
Mof_C 	C 	0.2898	0.4814	0.0077	-0.001
Mof_C 	C 	0.3417	0.4596	0.039	-0.059
Mof_C 	C 	0.1022	0.7076	0.1628	-0
Mof_C 	C 	0.0493	0.6995	0.1981	-0.073
Mof_C 	C 	0.0613	0.674	0.2479	0.015
Mof_C 	C 	0.1261	0.65624	0.2614	-0.097
Mof_C 	C 	0.139	0.626	0.313	0.367
Mof_C 	C 	0.18	0.666	0.2263	0.015
Mof_C 	C 	0.1676	0.6921	0.1774	-0.077
Mof_C 	C 	0.0931	0.80968	0.1025	-0.001
Mof_C 	C 	0.0548	0.8425	0.07	-0.073
Mof_C 	C 	0.0637	0.8989	0.0704	0.02
Mof_C 	C 	0.1118	0.92218	0.1051	-0.096
Mof_C 	C 	0.1245	0.9819	0.1051	0.367
Mof_C 	C 	0.1509	0.8887	0.1383	0.017
Mof_C 	C 	0.1413	0.8331	0.1374	-0.075
Mof_C 	C 	0.1523	0.7142	0.0541	-0.008
Mof_C 	C 	0.1473	0.6612	0.0347	-0.064
Mof_C 	C 	0.2005	0.63815	0.0043	0.002
Mof_C 	C 	0.2585	0.669	0.9923	-0.091
Mof_C 	C 	0.3167	0.6437	0.9629	0.317
Mof_C 	C 	0.2628	0.7219	0.011	0.012
Mof_C 	C 	0.2114	0.7439	0.0415	-0.072
Mof_C 	C 	0.9022	0.68982	0.39552	-0.019
Mof_C 	C 	0.8496	0.71288	0.3652	-0.064
Mof_C 	C 	0.8415	0.7683	0.363	0.009
Mof_C 	C 	0.8878	0.80233	0.3907	-0.093
Mof_C 	C 	0.8774	0.8627	0.3891	0.371
Mof_C 	C 	0.9411	0.77993	0.4196	0.014
Mof_C 	C 	0.9483	0.72409	0.4231	-0.061
Mof_C 	C 	0.8938	0.58599	0.34079	-0.018
Mof_C 	C 	0.8269	0.5781	0.3224	-0.064
Mof_C 	C 	0.8153	0.552	0.2732	0.008
Mof_C 	C 	0.8697	0.5342	0.2422	-0.09
Mof_C 	C 	0.8564	0.5043	0.1902	0.367
Mof_C 	C 	0.9362	0.543	0.2601	0.01
Mof_C 	C 	0.9477	0.5692	0.3091	-0.061
Mof_C 	C 	0.8424	0.59523	0.44708	-0.016
Mof_C 	C 	0.7895	0.6274	0.4666	-0.066
Mof_C 	C 	0.7374	0.6051	0.4978	0.006
Mof_C 	C 	0.7375	0.55092	0.51115	-0.091
Mof_C 	C 	0.6801	0.52646	0.54222	0.305
Mof_C 	C 	0.7898	0.5186	0.4923	-0
Mof_C 	C 	0.8417	0.5404	0.461	-0.06
Mof_C 	C 	0.1022	0.2076	0.3372	-0
Mof_C 	C 	0.0493	0.1995	0.3019	-0.073
Mof_C 	C 	0.0613	0.174	0.2521	0.015
Mof_C 	C 	0.1261	0.15624	0.2386	-0.097
Mof_C 	C 	0.139	0.126	0.187	0.367
Mof_C 	C 	0.18	0.166	0.2737	0.015
Mof_C 	C 	0.1676	0.1921	0.3226	-0.078
Mof_C 	C 	0.0931	0.30968	0.3975	-0.001
Mof_C 	C 	0.0548	0.3425	0.43	-0.072
Mof_C 	C 	0.0637	0.3989	0.4296	0.019
Mof_C 	C 	0.1118	0.42218	0.3949	-0.095
Mof_C 	C 	0.1245	0.4819	0.3949	0.366
Mof_C 	C 	0.1509	0.3887	0.3617	0.016
Mof_C 	C 	0.1413	0.3331	0.3626	-0.075
Mof_C 	C 	0.1523	0.2142	0.4459	-0.008
Mof_C 	C 	0.1473	0.1612	0.4653	-0.064
Mof_C 	C 	0.2005	0.13815	0.4957	0.002
Mof_C 	C 	0.2585	0.169	0.5077	-0.091
Mof_C 	C 	0.3167	0.1437	0.5371	0.317
Mof_C 	C 	0.2628	0.2219	0.489	0.012
Mof_C 	C 	0.2114	0.2439	0.4585	-0.072
Mof_C 	C 	0.9022	0.18982	0.10448	-0.019
Mof_C 	C 	0.8496	0.21288	0.1348	-0.064
Mof_C 	C 	0.8415	0.2683	0.137	0.009
Mof_C 	C 	0.8878	0.30233	0.1093	-0.093
Mof_C 	C 	0.8774	0.3627	0.1109	0.371
Mof_C 	C 	0.9411	0.27993	0.0804	0.014
Mof_C 	C 	0.9483	0.22409	0.0769	-0.061
Mof_C 	C 	0.8938	0.08599	0.15921	-0.018
Mof_C 	C 	0.8269	0.0781	0.1776	-0.064
Mof_C 	C 	0.8153	0.052	0.2268	0.009
Mof_C 	C 	0.8697	0.0342	0.2578	-0.09
Mof_C 	C 	0.8564	0.0043	0.3098	0.367
Mof_C 	C 	0.9362	0.043	0.2399	0.01
Mof_C 	C 	0.9477	0.0692	0.1909	-0.061
Mof_C 	C 	0.8424	0.09523	0.05292	-0.016
Mof_C 	C 	0.7895	0.1274	0.0334	-0.065
Mof_C 	C 	0.7374	0.1051	0.0022	0.005
Mof_C 	C 	0.7375	0.05092	0.98885	-0.09
Mof_C 	C 	0.6801	0.02646	0.95778	0.306
Mof_C 	C 	0.7898	0.0186	0.0077	0.001
Mof_C 	C 	0.8417	0.0404	0.039	-0.061
Mof_C 	C 	0.6022	0.7924	0.1628	-0
Mof_C 	C 	0.5493	0.8005	0.1981	-0.073
Mof_C 	C 	0.5613	0.826	0.2479	0.015
Mof_C 	C 	0.6261	0.84376	0.2614	-0.097
Mof_C 	C 	0.639	0.874	0.313	0.367
Mof_C 	C 	0.68	0.834	0.2263	0.015
Mof_C 	C 	0.6676	0.8079	0.1774	-0.077
Mof_C 	C 	0.5931	0.69032	0.1025	-0.001
Mof_C 	C 	0.5548	0.6575	0.07	-0.072
Mof_C 	C 	0.5637	0.6011	0.0704	0.019
Mof_C 	C 	0.6118	0.57782	0.1051	-0.095
Mof_C 	C 	0.6245	0.5181	0.1051	0.366
Mof_C 	C 	0.6509	0.6113	0.1383	0.016
Mof_C 	C 	0.6413	0.6669	0.1374	-0.075
Mof_C 	C 	0.6523	0.7858	0.0541	-0.007
Mof_C 	C 	0.6473	0.8388	0.0347	-0.066
Mof_C 	C 	0.7005	0.86185	0.0043	0.004
Mof_C 	C 	0.7585	0.831	0.9923	-0.093
Mof_C 	C 	0.8167	0.8563	0.9629	0.318
Mof_C 	C 	0.7628	0.7781	0.011	0.014
Mof_C 	C 	0.7114	0.7561	0.0415	-0.073
Mof_C 	C 	0.4022	0.81018	0.39552	-0.019
Mof_C 	C 	0.3496	0.78712	0.3652	-0.064
Mof_C 	C 	0.3415	0.7317	0.363	0.009
Mof_C 	C 	0.3878	0.69767	0.3907	-0.093
Mof_C 	C 	0.3774	0.6373	0.3891	0.371
Mof_C 	C 	0.4411	0.72007	0.4196	0.014
Mof_C 	C 	0.4483	0.77591	0.4231	-0.061
Mof_C 	C 	0.3938	0.91401	0.34079	-0.018
Mof_C 	C 	0.3269	0.9219	0.3224	-0.064
Mof_C 	C 	0.3153	0.948	0.2732	0.009
Mof_C 	C 	0.3697	0.9658	0.2422	-0.09
Mof_C 	C 	0.3564	0.9957	0.1902	0.368
Mof_C 	C 	0.4362	0.957	0.2601	0.01
Mof_C 	C 	0.4477	0.9308	0.3091	-0.061
Mof_C 	C 	0.3424	0.90477	0.44708	-0.015
Mof_C 	C 	0.2895	0.8726	0.4666	-0.066
Mof_C 	C 	0.2374	0.8949	0.4978	0.006
Mof_C 	C 	0.2375	0.94908	0.51115	-0.091
Mof_C 	C 	0.1801	0.97354	0.54222	0.306
Mof_C 	C 	0.2898	0.9814	0.4923	0.002
Mof_C 	C 	0.3417	0.9596	0.461	-0.061
Mof_C 	C 	0.3978	0.7076	0.6628	-0
Mof_C 	C 	0.4507	0.6995	0.6981	-0.073
Mof_C 	C 	0.4387	0.674	0.7479	0.015
Mof_C 	C 	0.3739	0.65624	0.7614	-0.097
Mof_C 	C 	0.361	0.626	0.813	0.367
Mof_C 	C 	0.32	0.666	0.7263	0.015
Mof_C 	C 	0.3324	0.6921	0.6774	-0.077
Mof_C 	C 	0.4069	0.80968	0.6025	-0.001
Mof_C 	C 	0.4452	0.8425	0.57	-0.072
Mof_C 	C 	0.4363	0.8989	0.5704	0.019
Mof_C 	C 	0.3882	0.92218	0.6051	-0.095
Mof_C 	C 	0.3755	0.9819	0.6051	0.366
Mof_C 	C 	0.3491	0.8887	0.6383	0.016
Mof_C 	C 	0.3587	0.8331	0.6374	-0.075
Mof_C 	C 	0.3477	0.7142	0.5541	-0.008
Mof_C 	C 	0.3527	0.6612	0.5347	-0.064
Mof_C 	C 	0.2995	0.63815	0.5043	0.002
Mof_C 	C 	0.2415	0.669	0.4923	-0.091
Mof_C 	C 	0.1833	0.6437	0.4629	0.317
Mof_C 	C 	0.2372	0.7219	0.511	0.012
Mof_C 	C 	0.2886	0.7439	0.5415	-0.072
Mof_C 	C 	0.5978	0.68982	0.89552	-0.019
Mof_C 	C 	0.6504	0.71288	0.8652	-0.064
Mof_C 	C 	0.6585	0.7683	0.863	0.009
Mof_C 	C 	0.6122	0.80233	0.8907	-0.093
Mof_C 	C 	0.6226	0.8627	0.8891	0.371
Mof_C 	C 	0.5589	0.77993	0.9196	0.014
Mof_C 	C 	0.5517	0.72409	0.9231	-0.061
Mof_C 	C 	0.6062	0.58599	0.84079	-0.018
Mof_C 	C 	0.6731	0.5781	0.8224	-0.064
Mof_C 	C 	0.6847	0.552	0.7732	0.008
Mof_C 	C 	0.6303	0.5342	0.7422	-0.09
Mof_C 	C 	0.6436	0.5043	0.6902	0.367
Mof_C 	C 	0.5638	0.543	0.7601	0.01
Mof_C 	C 	0.5523	0.5692	0.8091	-0.061
Mof_C 	C 	0.6576	0.59523	0.94708	-0.016
Mof_C 	C 	0.7105	0.6274	0.9666	-0.065
Mof_C 	C 	0.7626	0.6051	0.9978	0.004
Mof_C 	C 	0.7625	0.55092	0.01115	-0.089
Mof_C 	C 	0.8199	0.52646	0.04222	0.305
Mof_C 	C 	0.7102	0.5186	0.9923	-0.001
Mof_C 	C 	0.6583	0.5404	0.961	-0.059
Mof_C 	C 	0.8978	0.2924	0.8372	-0
Mof_C 	C 	0.9507	0.3005	0.8019	-0.073
Mof_C 	C 	0.9387	0.326	0.7521	0.015
Mof_C 	C 	0.8739	0.34376	0.7386	-0.097
Mof_C 	C 	0.861	0.374	0.687	0.367
Mof_C 	C 	0.82	0.334	0.7737	0.015
Mof_C 	C 	0.8324	0.3079	0.8226	-0.077
Mof_C 	C 	0.9069	0.19032	0.8975	-0.001
Mof_C 	C 	0.9452	0.1575	0.93	-0.073
Mof_C 	C 	0.9363	0.1011	0.9296	0.02
Mof_C 	C 	0.8882	0.07782	0.8949	-0.096
Mof_C 	C 	0.8755	0.0181	0.8949	0.367
Mof_C 	C 	0.8491	0.1113	0.8617	0.017
Mof_C 	C 	0.8587	0.1669	0.8626	-0.075
Mof_C 	C 	0.8477	0.2858	0.9459	-0.008
Mof_C 	C 	0.8527	0.3388	0.9653	-0.064
Mof_C 	C 	0.7995	0.36185	0.9957	0.002
Mof_C 	C 	0.7415	0.331	0.0077	-0.091
Mof_C 	C 	0.6833	0.3563	0.0371	0.317
Mof_C 	C 	0.7372	0.2781	0.989	0.012
Mof_C 	C 	0.7886	0.2561	0.9585	-0.072
Mof_C 	C 	0.0978	0.31018	0.60448	-0.019
Mof_C 	C 	0.1504	0.28712	0.6348	-0.064
Mof_C 	C 	0.1585	0.2317	0.637	0.009
Mof_C 	C 	0.1122	0.19767	0.6093	-0.093
Mof_C 	C 	0.1226	0.1373	0.6109	0.371
Mof_C 	C 	0.0589	0.22007	0.5804	0.014
Mof_C 	C 	0.0517	0.27591	0.5769	-0.061
Mof_C 	C 	0.1062	0.41401	0.65921	-0.018
Mof_C 	C 	0.1731	0.4219	0.6776	-0.064
Mof_C 	C 	0.1847	0.448	0.7268	0.008
Mof_C 	C 	0.1303	0.4658	0.7578	-0.09
Mof_C 	C 	0.1436	0.4957	0.8098	0.367
Mof_C 	C 	0.0638	0.457	0.7399	0.01
Mof_C 	C 	0.0523	0.4308	0.6909	-0.061
Mof_C 	C 	0.1576	0.40477	0.55292	-0.016
Mof_C 	C 	0.2105	0.3726	0.5334	-0.066
Mof_C 	C 	0.2626	0.3949	0.5022	0.006
Mof_C 	C 	0.2625	0.44908	0.48885	-0.091
Mof_C 	C 	0.3199	0.47354	0.45778	0.305
Mof_C 	C 	0.2102	0.4814	0.5077	-0
Mof_C 	C 	0.1583	0.4596	0.539	-0.06
Mof_O 	O 	0.90933	0.8749	0.84698	-0.432
Mof_O 	O 	0.8038	0.89693	0.8175	-0.406
Mof_O 	O 	0.92269	0.48794	0.5862	-0.435
Mof_O 	O 	0.81852	0.50305	0.62307	-0.425
Mof_O 	O 	0.69207	0.90158	0.43844	-0.496
Mof_O 	O 	0.6242	0.8356	0.4623	-0.379
Mof_O 	O 	0.98612	0.77884	0.57706	-0.211
Mof_O 	O 	0.18195	0.62197	0.87412	-0.423
Mof_O 	O 	0.0733	0.60754	0.90203	-0.461
Mof_O 	O 	0.20304	0.01503	0.68428	-0.402
Mof_O 	O 	0.09314	0.99987	0.65822	-0.448
Mof_O 	O 	0.37744	0.95019	0.04607	-0.391
Mof_O 	O 	0.31268	0.02125	0.06263	-0.499
Mof_O 	O 	0.02067	0.89688	0.92636	-0.375
Mof_O 	O 	0.40933	0.1251	0.65302	-0.431
Mof_O 	O 	0.3038	0.10307	0.6825	-0.405
Mof_O 	O 	0.42269	0.51206	0.9138	-0.435
Mof_O 	O 	0.31852	0.49695	0.87693	-0.425
Mof_O 	O 	0.19207	0.09842	0.06156	-0.496
Mof_O 	O 	0.1242	0.1644	0.0377	-0.38
Mof_O 	O 	0.48612	0.22116	0.92294	-0.21
Mof_O 	O 	0.68195	0.37803	0.62588	-0.423
Mof_O 	O 	0.5733	0.39246	0.59797	-0.462
Mof_O 	O 	0.70304	0.98497	0.81572	-0.402
Mof_O 	O 	0.59314	0.00013	0.84178	-0.448
Mof_O 	O 	0.87744	0.04981	0.45393	-0.391
Mof_O 	O 	0.81268	0.97875	0.43737	-0.499
Mof_O 	O 	0.52067	0.10312	0.57364	-0.375
Mof_O 	O 	0.59067	0.3749	0.15302	-0.431
Mof_O 	O 	0.6962	0.39693	0.1825	-0.405
Mof_O 	O 	0.57731	0.98794	0.4138	-0.435
Mof_O 	O 	0.68148	0.00305	0.37693	-0.425
Mof_O 	O 	0.80793	0.40158	0.56156	-0.496
Mof_O 	O 	0.8758	0.3356	0.5377	-0.379
Mof_O 	O 	0.51388	0.27884	0.42294	-0.21
Mof_O 	O 	0.31805	0.12197	0.12588	-0.423
Mof_O 	O 	0.4267	0.10754	0.09797	-0.462
Mof_O 	O 	0.29696	0.51503	0.31572	-0.402
Mof_O 	O 	0.40686	0.49987	0.34178	-0.448
Mof_O 	O 	0.12256	0.45019	0.95393	-0.391
Mof_O 	O 	0.18732	0.52125	0.93737	-0.498
Mof_O 	O 	0.47933	0.39688	0.07364	-0.375
Mof_O 	O 	0.09067	0.6251	0.34698	-0.431
Mof_O 	O 	0.1962	0.60307	0.3175	-0.405
Mof_O 	O 	0.07731	0.01206	0.0862	-0.437
Mof_O 	O 	0.18148	0.99695	0.12307	-0.425
Mof_O 	O 	0.30793	0.59842	0.93844	-0.496
Mof_O 	O 	0.3758	0.6644	0.9623	-0.379
Mof_O 	O 	0.01388	0.72116	0.07706	-0.21
Mof_O 	O 	0.81805	0.87803	0.37412	-0.423
Mof_O 	O 	0.9267	0.89246	0.40203	-0.462
Mof_O 	O 	0.79696	0.48497	0.18428	-0.402
Mof_O 	O 	0.90686	0.50013	0.15822	-0.448
Mof_O 	O 	0.62256	0.54981	0.54607	-0.391
Mof_O 	O 	0.68732	0.47875	0.56263	-0.498
Mof_O 	O 	0.97933	0.60312	0.42636	-0.375
Mof_O 	O 	0.09067	0.1251	0.15302	-0.432
Mof_O 	O 	0.1962	0.10307	0.1825	-0.406
Mof_O 	O 	0.07731	0.51206	0.4138	-0.435
Mof_O 	O 	0.18148	0.49695	0.37693	-0.425
Mof_O 	O 	0.30793	0.09842	0.56156	-0.496
Mof_O 	O 	0.3758	0.1644	0.5377	-0.379
Mof_O 	O 	0.01388	0.22116	0.42294	-0.211
Mof_O 	O 	0.81805	0.37803	0.12588	-0.423
Mof_O 	O 	0.9267	0.39246	0.09797	-0.461
Mof_O 	O 	0.79696	0.98497	0.31572	-0.402
Mof_O 	O 	0.90686	0.00013	0.34178	-0.448
Mof_O 	O 	0.62256	0.04981	0.95393	-0.391
Mof_O 	O 	0.68732	0.97875	0.93737	-0.499
Mof_O 	O 	0.97933	0.10312	0.07364	-0.375
Mof_O 	O 	0.59067	0.8749	0.34698	-0.431
Mof_O 	O 	0.6962	0.89693	0.3175	-0.405
Mof_O 	O 	0.57731	0.48794	0.0862	-0.435
Mof_O 	O 	0.68148	0.50305	0.12307	-0.425
Mof_O 	O 	0.80793	0.90158	0.93844	-0.496
Mof_O 	O 	0.8758	0.8356	0.9623	-0.38
Mof_O 	O 	0.51388	0.77884	0.07706	-0.21
Mof_O 	O 	0.31805	0.62197	0.37412	-0.423
Mof_O 	O 	0.4267	0.60754	0.40203	-0.462
Mof_O 	O 	0.29696	0.01503	0.18428	-0.402
Mof_O 	O 	0.40686	0.99987	0.15822	-0.448
Mof_O 	O 	0.12256	0.95019	0.54607	-0.391
Mof_O 	O 	0.18732	0.02125	0.56263	-0.499
Mof_O 	O 	0.47933	0.89688	0.42636	-0.375
Mof_O 	O 	0.40933	0.6251	0.84698	-0.431
Mof_O 	O 	0.3038	0.60307	0.8175	-0.405
Mof_O 	O 	0.42269	0.01206	0.5862	-0.435
Mof_O 	O 	0.31852	0.99695	0.62307	-0.425
Mof_O 	O 	0.19207	0.59842	0.43844	-0.496
Mof_O 	O 	0.1242	0.6644	0.4623	-0.379
Mof_O 	O 	0.48612	0.72116	0.57706	-0.21
Mof_O 	O 	0.68195	0.87803	0.87412	-0.423
Mof_O 	O 	0.5733	0.89246	0.90203	-0.462
Mof_O 	O 	0.70304	0.48497	0.68428	-0.402
Mof_O 	O 	0.59314	0.50013	0.65822	-0.448
Mof_O 	O 	0.87744	0.54981	0.04607	-0.391
Mof_O 	O 	0.81268	0.47875	0.06263	-0.498
Mof_O 	O 	0.52067	0.60312	0.92636	-0.375
Mof_O 	O 	0.90933	0.3749	0.65302	-0.431
Mof_O 	O 	0.8038	0.39693	0.6825	-0.405
Mof_O 	O 	0.92269	0.98794	0.9138	-0.437
Mof_O 	O 	0.81852	0.00305	0.87693	-0.425
Mof_O 	O 	0.69207	0.40158	0.06156	-0.496
Mof_O 	O 	0.6242	0.3356	0.0377	-0.379
Mof_O 	O 	0.98612	0.27884	0.92294	-0.21
Mof_O 	O 	0.18195	0.12197	0.62588	-0.423
Mof_O 	O 	0.0733	0.10754	0.59797	-0.462
Mof_O 	O 	0.20304	0.51503	0.81572	-0.402
Mof_O 	O 	0.09314	0.49987	0.84178	-0.448
Mof_O 	O 	0.37744	0.45019	0.45393	-0.391
Mof_O 	O 	0.31268	0.52125	0.43737	-0.498
Mof_O 	O 	0.02067	0.39688	0.57364	-0.375
_end
