data_functionalizedCrystal
_audit_creation_method	'EQeq! by Chris Wilmer'
_symmetry_space_group_name_H-M	'P1'
_symmetry_Int_Tables_number	1
_symmetry_cell_setting	triclinic
loop_
_symmetry_equiv_pos_as_xyz
  x,y,z
_cell_length_a	11.346
_cell_length_b	11.759
_cell_length_c	11.963
_cell_angle_alpha	119.437
_cell_angle_beta	90
_cell_angle_gamma	90
loop_
_atom_site_label
_atom_site_type_symbol
_atom_site_fract_x
_atom_site_fract_y
_atom_site_fract_z
_atom_site_charge
Mof_Ag	Ag	0.52492	0.14113	0.49262	0.482
Mof_Ag	Ag	0.02492	0.85887	0.50738	0.418
Mof_Ag	Ag	0.02492	0.35149	0.49262	0.427
Mof_Ag	Ag	0.52492	0.64851	0.50738	0.474
Mof_Ag	Ag	0.70176	0.17392	-0	0.35
Mof_Ag	Ag	0.20176	0.82608	-0	0.318
Mof_H 	H 	0.8188	0.0868	0.5714	0.002
Mof_H 	H 	0.7751	0.9578	0.4518	-0.011
Mof_H 	H 	0.5812	0.8709	0.4572	-0.021
Mof_H 	H 	0.5025	0.9451	0.5802	-0.014
Mof_H 	H 	0.5712	0.1421	0.7602	-0.006
Mof_H 	H 	0.6956	0.1985	0.7566	-0.001
Mof_H 	H 	0.6664	0.8712	0.781	0.005
Mof_H 	H 	0.5535	0.9452	0.7748	0.002
Mof_H 	H 	0.862	0.9578	0.775	0.01
Mof_H 	H 	0.8726	0.0864	0.7666	0.008
Mof_H 	H 	0.7925	0.7593	0.5928	0.006
Mof_H 	H 	0.7584	0.7582	0.4652	-0.009
Mof_H 	H 	0.3188	0.9132	0.4286	-0.006
Mof_H 	H 	0.2751	0.0422	0.5482	-0.002
Mof_H 	H 	0.0812	0.1291	0.5428	-0.024
Mof_H 	H 	0.0025	0.0549	0.4198	-0.027
Mof_H 	H 	0.0712	0.8579	0.2398	-0.034
Mof_H 	H 	0.1956	0.8015	0.2434	-0.026
Mof_H 	H 	0.1664	0.1288	0.219	-0.024
Mof_H 	H 	0.0535	0.0548	0.2252	-0.027
Mof_H 	H 	0.362	0.0422	0.225	-0.011
Mof_H 	H 	0.3726	0.9136	0.2334	-0.02
Mof_H 	H 	0.2925	0.2407	0.4072	-0.008
Mof_H 	H 	0.2584	0.2418	0.5348	-0.013
Mof_H 	H 	0.3188	0.4846	0.5714	-0.008
Mof_H 	H 	0.2751	0.494	0.4518	-0.016
Mof_H 	H 	0.0812	0.5863	0.4572	-0.03
Mof_H 	H 	0.0025	0.6351	0.5802	-0.026
Mof_H 	H 	0.0712	0.6181	0.7602	-0.014
Mof_H 	H 	0.1956	0.5581	0.7566	-0.007
Mof_H 	H 	0.1664	0.9098	0.781	-0.004
Mof_H 	H 	0.0535	0.8296	0.7748	-0.01
Mof_H 	H 	0.362	0.8172	0.775	0
Mof_H 	H 	0.3726	0.6802	0.7666	-0.003
Mof_H 	H 	0.2925	0.8335	0.5928	-0.006
Mof_H 	H 	0.2584	0.707	0.4652	-0.019
Mof_H 	H 	0.8188	0.5154	0.4286	0.003
Mof_H 	H 	0.7751	0.506	0.5482	0.002
Mof_H 	H 	0.5812	0.4137	0.5428	-0.016
Mof_H 	H 	0.5025	0.3649	0.4198	-0.014
Mof_H 	H 	0.5712	0.3819	0.2398	-0.026
Mof_H 	H 	0.6956	0.4419	0.2434	-0.021
Mof_H 	H 	0.6664	0.0902	0.219	-0.015
Mof_H 	H 	0.5535	0.1704	0.2252	-0.016
Mof_H 	H 	0.862	0.1828	0.225	-0.002
Mof_H 	H 	0.8726	0.3198	0.2334	-0.009
Mof_H 	H 	0.7925	0.1665	0.4072	0.004
Mof_H 	H 	0.7584	0.293	0.5348	-0.004
Mof_C 	C 	0.7736	0.0076	0.5448	0.036
Mof_C 	C 	0.583	0.92231	0.55022	0.019
Mof_C 	C 	0.6514	0.11854	0.72948	0.02
Mof_C 	C 	0.6339	0.92197	0.74434	0.014
Mof_C 	C 	0.8264	0.00768	0.73896	0.025
Mof_C 	C 	0.7576	0.81058	0.55796	0.018
Mof_C 	C 	0.2736	0.9924	0.4552	0.015
Mof_C 	C 	0.083	0.07769	0.44978	0.034
Mof_C 	C 	0.1514	0.88146	0.27052	0.035
Mof_C 	C 	0.1339	0.07803	0.25566	0.04
Mof_C 	C 	0.3264	0.99232	0.26104	0.021
Mof_C 	C 	0.2576	0.18942	0.44204	0.024
Mof_C 	C 	0.2736	0.5372	0.5448	0.032
Mof_C 	C 	0.083	0.62791	0.55022	0.031
Mof_C 	C 	0.1514	0.61094	0.72948	0.024
Mof_C 	C 	0.1339	0.82237	0.74434	0.025
Mof_C 	C 	0.3264	0.73128	0.73896	0.024
Mof_C 	C 	0.2576	0.74738	0.55796	0.025
Mof_C 	C 	0.7736	0.4628	0.4552	0.023
Mof_C 	C 	0.583	0.37209	0.44978	0.022
Mof_C 	C 	0.6514	0.38906	0.27052	0.031
Mof_C 	C 	0.6339	0.17763	0.25566	0.03
Mof_C 	C 	0.8264	0.26872	0.26104	0.026
Mof_C 	C 	0.7576	0.25262	0.44204	0.017
Mof_N 	N 	0.6509	0.04232	0.58844	-0.159
Mof_N 	N 	0.7051	0.04338	0.7876	-0.15
Mof_N 	N 	0.6342	0.8426	0.603	-0.162
Mof_N 	N 	0.8292	0.92975	0.5975	-0.152
Mof_N 	N 	0.1509	0.95768	0.41156	-0.163
Mof_N 	N 	0.2051	0.95662	0.2124	-0.173
Mof_N 	N 	0.1342	0.1574	0.397	-0.167
Mof_N 	N 	0.3292	0.07025	0.4025	-0.159
Mof_N 	N 	0.1509	0.54612	0.58844	-0.162
Mof_N 	N 	0.2051	0.74422	0.7876	-0.153
Mof_N 	N 	0.1342	0.7604	0.603	-0.165
Mof_N 	N 	0.3292	0.66775	0.5975	-0.163
Mof_N 	N 	0.6509	0.45388	0.41156	-0.161
Mof_N 	N 	0.7051	0.25578	0.2124	-0.17
Mof_N 	N 	0.6342	0.2396	0.397	-0.164
Mof_N 	N 	0.8292	0.33225	0.4025	-0.149
_end
