data_functionalizedCrystal
_audit_creation_method	'EQeq! by Chris Wilmer'
_symmetry_space_group_name_H-M	'P1'
_symmetry_Int_Tables_number	1
_symmetry_cell_setting	triclinic
loop_
_symmetry_equiv_pos_as_xyz
  x,y,z
_cell_length_a	34.172
_cell_length_b	34.172
_cell_length_c	34.172
_cell_angle_alpha	90
_cell_angle_beta	90
_cell_angle_gamma	90
loop_
_atom_site_label
_atom_site_type_symbol
_atom_site_fract_x
_atom_site_fract_y
_atom_site_fract_z
_atom_site_charge
Mof_O 	O 	0.1463	0.8622	0.9872	-0.201
Mof_O 	O 	0.195	0.7661	0.0259	-0.407
Mof_C 	C 	0.4001	0.8577	0.9125	-0.019
Mof_H 	H 	0.407	0.8363	0.9277	0.053
Mof_C 	C 	0.1172	0.7432	0.9918	-0.37
Mof_H 	H 	0.1228	0.7304	0.9671	0.159
Mof_H 	H 	0.1284	0.7274	0.0125	0.149
Mof_N 	N 	0.3062	0.8745	0.9585	-0.213
Mof_O 	O 	0.2136	0.9444	0.9912	-0.41
Mof_C 	C 	0.3672	0.8799	0.9227	-0.044
Mof_C 	C 	0.1205	0.8677	0.9227	-0.045
Mof_O 	O 	0.2662	0.8047	0.0251	-0.424
Mof_C 	C 	0.1317	0.8453	0.9581	0.214
Mof_N 	N 	0.1254	0.8065	0.958	-0.218
Mof_H 	H 	0.1146	0.7954	0.9381	0.132
Mof_C 	C 	0.137	0.7835	0.992	0.079
Mof_H 	H 	0.1296	0.7976	0.0159	0.032
Mof_C 	C 	0.2434	0.8827	0.9921	-0.338
Mof_C 	C 	0.0875	0.8574	0.9001	-0.018
Mof_H 	H 	0.0726	0.8357	0.9069	0.052
Mof_C 	C 	0.181	0.7755	0.9926	0.328
Mof_O 	O 	0.3621	0.8542	0.9874	-0.199
Mof_C 	C 	0.2755	0.8186	0.9927	0.357
Mof_C 	C 	0.2455	0.9264	0.997	0.458
Mof_C 	C 	0.3453	0.8685	0.9583	0.214
Mof_O 	O 	0.2758	0.8007	0.9607	-0.405
Mof_C 	C 	0.0735	0.7454	0.9972	0.475
Mof_O 	O 	0.056	0.7136	0.9911	-0.427
Mof_O 	O 	0.19921	0.7758	0.9605	-0.394
Mof_O 	O 	0.277	0.9421	0.0073	-0.426
Mof_C 	C 	0.2833	0.8625	0.992	0.063
Mof_O 	O 	0.058	0.777	0.0075	-0.445
Mof_H 	H 	0.2954	0.884	0.9377	0.131
Mof_H 	H 	0.23	0.8776	0.9669	0.145
Mof_H 	H 	0.227	0.8718	0.0123	0.143
Mof_H 	H 	0.2977	0.8698	0.0155	0.039
Mof_O 	O 	0.1463	0.3622	0.4872	-0.214
Mof_O 	O 	0.195	0.2661	0.5259	-0.383
Mof_C 	C 	0.4001	0.3577	0.4125	-0.018
Mof_H 	H 	0.407	0.3363	0.4277	0.052
Mof_C 	C 	0.1172	0.2432	0.4918	-0.411
Mof_H 	H 	0.1228	0.2304	0.4671	0.172
Mof_H 	H 	0.1284	0.2274	0.5125	0.183
Mof_N 	N 	0.3062	0.3745	0.4585	-0.212
Mof_O 	O 	0.2136	0.4444	0.4912	-0.428
Mof_C 	C 	0.3672	0.3799	0.4227	-0.047
Mof_C 	C 	0.1205	0.3677	0.4227	-0.047
Mof_O 	O 	0.2662	0.3047	0.5251	-0.398
Mof_C 	C 	0.1317	0.3453	0.4581	0.214
Mof_N 	N 	0.1254	0.3065	0.458	-0.217
Mof_H 	H 	0.1146	0.2954	0.4381	0.133
Mof_C 	C 	0.137	0.2835	0.492	0.059
Mof_H 	H 	0.1296	0.2976	0.5159	0.057
Mof_C 	C 	0.2434	0.3827	0.4921	-0.383
Mof_C 	C 	0.0875	0.3574	0.4001	-0.018
Mof_H 	H 	0.0726	0.3357	0.4069	0.05
Mof_C 	C 	0.181	0.2755	0.4926	0.299
Mof_O 	O 	0.3621	0.3542	0.4874	-0.213
Mof_C 	C 	0.2755	0.3186	0.4927	0.326
Mof_C 	C 	0.2455	0.4264	0.497	0.439
Mof_C 	C 	0.3453	0.3685	0.4583	0.212
Mof_O 	O 	0.2758	0.3007	0.4607	-0.4
Mof_C 	C 	0.0735	0.2454	0.4972	0.452
Mof_O 	O 	0.056	0.2136	0.4911	-0.436
Mof_O 	O 	0.19921	0.2758	0.4605	-0.39
Mof_O 	O 	0.277	0.4421	0.5073	-0.41
Mof_C 	C 	0.2833	0.3625	0.492	0.044
Mof_O 	O 	0.058	0.277	0.5075	-0.418
Mof_H 	H 	0.2954	0.384	0.4377	0.131
Mof_H 	H 	0.23	0.3776	0.4669	0.157
Mof_H 	H 	0.227	0.3718	0.5123	0.177
Mof_H 	H 	0.2977	0.3698	0.5155	0.063
Mof_O 	O 	0.6463	0.8622	0.4872	-0.211
Mof_O 	O 	0.695	0.7661	0.5259	-0.382
Mof_C 	C 	0.9001	0.8577	0.4125	-0.018
Mof_H 	H 	0.907	0.8363	0.4277	0.054
Mof_C 	C 	0.6172	0.7432	0.4918	-0.409
Mof_H 	H 	0.6228	0.7304	0.4671	0.171
Mof_H 	H 	0.6284	0.7274	0.5125	0.184
Mof_N 	N 	0.8062	0.8745	0.4585	-0.211
Mof_O 	O 	0.7136	0.9444	0.4912	-0.417
Mof_C 	C 	0.8672	0.8799	0.4227	-0.044
Mof_C 	C 	0.6205	0.8677	0.4227	-0.045
Mof_O 	O 	0.7662	0.8047	0.5251	-0.397
Mof_C 	C 	0.6317	0.8453	0.4581	0.214
Mof_N 	N 	0.6254	0.8065	0.458	-0.216
Mof_H 	H 	0.6146	0.7954	0.4381	0.133
Mof_C 	C 	0.637	0.7835	0.492	0.058
Mof_H 	H 	0.6296	0.7976	0.5159	0.059
Mof_C 	C 	0.7434	0.8827	0.4921	-0.379
Mof_C 	C 	0.5875	0.8574	0.4001	-0.018
Mof_H 	H 	0.5726	0.8357	0.4069	0.051
Mof_C 	C 	0.681	0.7755	0.4926	0.299
Mof_O 	O 	0.8621	0.8542	0.4874	-0.209
Mof_C 	C 	0.7755	0.8186	0.4927	0.326
Mof_C 	C 	0.7455	0.9264	0.497	0.434
Mof_C 	C 	0.8453	0.8685	0.4583	0.212
Mof_O 	O 	0.7758	0.8007	0.4607	-0.4
Mof_C 	C 	0.5735	0.7454	0.4972	0.45
Mof_O 	O 	0.556	0.7136	0.4911	-0.431
Mof_O 	O 	0.69921	0.7758	0.4605	-0.39
Mof_O 	O 	0.777	0.9421	0.5073	-0.398
Mof_C 	C 	0.7833	0.8625	0.492	0.042
Mof_O 	O 	0.558	0.777	0.5075	-0.412
Mof_H 	H 	0.7954	0.884	0.4377	0.131
Mof_H 	H 	0.73	0.8776	0.4669	0.156
Mof_H 	H 	0.727	0.8718	0.5123	0.177
Mof_H 	H 	0.7977	0.8698	0.5155	0.065
Mof_O 	O 	0.6463	0.3622	0.9872	-0.201
Mof_O 	O 	0.695	0.2661	0.0259	-0.406
Mof_C 	C 	0.9001	0.3577	0.9125	-0.018
Mof_H 	H 	0.907	0.3363	0.9277	0.055
Mof_C 	C 	0.6172	0.2432	0.9918	-0.368
Mof_H 	H 	0.6228	0.2304	0.9671	0.16
Mof_H 	H 	0.6284	0.2274	0.0125	0.15
Mof_N 	N 	0.8062	0.3745	0.9585	-0.212
Mof_O 	O 	0.7136	0.4444	0.9912	-0.419
Mof_C 	C 	0.8672	0.3799	0.9227	-0.043
Mof_C 	C 	0.6205	0.3677	0.9227	-0.044
Mof_O 	O 	0.7662	0.3047	0.0251	-0.423
Mof_C 	C 	0.6317	0.3453	0.9581	0.215
Mof_N 	N 	0.6254	0.3065	0.958	-0.217
Mof_H 	H 	0.6146	0.2954	0.9381	0.133
Mof_C 	C 	0.637	0.2835	0.992	0.079
Mof_H 	H 	0.6296	0.2976	0.0159	0.033
Mof_C 	C 	0.7434	0.3827	0.9921	-0.341
Mof_C 	C 	0.5875	0.3574	0.9001	-0.018
Mof_H 	H 	0.5726	0.3357	0.9069	0.052
Mof_C 	C 	0.681	0.2755	0.9926	0.328
Mof_O 	O 	0.8621	0.3542	0.9874	-0.199
Mof_C 	C 	0.7755	0.3186	0.9927	0.357
Mof_C 	C 	0.7455	0.4264	0.997	0.462
Mof_C 	C 	0.8453	0.3685	0.9583	0.213
Mof_O 	O 	0.7758	0.3007	0.9607	-0.405
Mof_C 	C 	0.5735	0.2454	0.9972	0.474
Mof_O 	O 	0.556	0.2136	0.9911	-0.423
Mof_O 	O 	0.69921	0.2758	0.9605	-0.394
Mof_O 	O 	0.777	0.4421	0.0073	-0.437
Mof_C 	C 	0.7833	0.3625	0.992	0.064
Mof_O 	O 	0.558	0.277	0.0075	-0.441
Mof_H 	H 	0.7954	0.384	0.9377	0.131
Mof_H 	H 	0.73	0.3776	0.9669	0.146
Mof_H 	H 	0.727	0.3718	0.0123	0.143
Mof_H 	H 	0.7977	0.3698	0.0155	0.038
Mof_O 	O 	0.8537	0.1378	0.9872	-0.201
Mof_O 	O 	0.805	0.2339	0.0259	-0.406
Mof_C 	C 	0.5999	0.1423	0.9125	-0.018
Mof_H 	H 	0.593	0.1637	0.9277	0.053
Mof_C 	C 	0.8828	0.2568	0.9918	-0.365
Mof_H 	H 	0.8772	0.2696	0.9671	0.159
Mof_H 	H 	0.8716	0.2726	0.0125	0.15
Mof_N 	N 	0.6938	0.1255	0.9585	-0.213
Mof_O 	O 	0.7864	0.0556	0.9912	-0.423
Mof_C 	C 	0.6328	0.1201	0.9227	-0.046
Mof_C 	C 	0.8795	0.1323	0.9227	-0.044
Mof_O 	O 	0.7338	0.1953	0.0251	-0.423
Mof_C 	C 	0.8683	0.1547	0.9581	0.216
Mof_N 	N 	0.8746	0.1935	0.958	-0.217
Mof_H 	H 	0.8854	0.2046	0.9381	0.133
Mof_C 	C 	0.863	0.2165	0.992	0.078
Mof_H 	H 	0.8704	0.2024	0.0159	0.034
Mof_C 	C 	0.7566	0.1173	0.9921	-0.343
Mof_C 	C 	0.9125	0.1426	0.9001	-0.018
Mof_H 	H 	0.9274	0.1643	0.9069	0.054
Mof_C 	C 	0.819	0.2245	0.9926	0.328
Mof_O 	O 	0.6379	0.1458	0.9874	-0.203
Mof_C 	C 	0.7245	0.1814	0.9927	0.356
Mof_C 	C 	0.7545	0.0736	0.997	0.464
Mof_C 	C 	0.6547	0.1315	0.9583	0.213
Mof_O 	O 	0.7242	0.1993	0.9607	-0.404
Mof_C 	C 	0.9265	0.2546	0.9972	0.47
Mof_O 	O 	0.944	0.2864	0.9911	-0.412
Mof_O 	O 	0.80079	0.2242	0.9605	-0.394
Mof_O 	O 	0.723	0.0579	0.0073	-0.443
Mof_C 	C 	0.7167	0.1375	0.992	0.065
Mof_O 	O 	0.942	0.223	0.0075	-0.43
Mof_H 	H 	0.7046	0.116	0.9377	0.131
Mof_H 	H 	0.77	0.1224	0.9669	0.146
Mof_H 	H 	0.773	0.1282	0.0123	0.143
Mof_H 	H 	0.7023	0.1302	0.0155	0.036
Mof_O 	O 	0.8537	0.6378	0.4872	-0.211
Mof_O 	O 	0.805	0.7339	0.5259	-0.382
Mof_C 	C 	0.5999	0.6423	0.4125	-0.018
Mof_H 	H 	0.593	0.6637	0.4277	0.052
Mof_C 	C 	0.8828	0.7568	0.4918	-0.407
Mof_H 	H 	0.8772	0.7696	0.4671	0.17
Mof_H 	H 	0.8716	0.7726	0.5125	0.184
Mof_N 	N 	0.6938	0.6255	0.4585	-0.212
Mof_O 	O 	0.7864	0.5556	0.4912	-0.427
Mof_C 	C 	0.6328	0.6201	0.4227	-0.047
Mof_C 	C 	0.8795	0.6323	0.4227	-0.045
Mof_O 	O 	0.7338	0.6953	0.5251	-0.397
Mof_C 	C 	0.8683	0.6547	0.4581	0.214
Mof_N 	N 	0.8746	0.6935	0.458	-0.216
Mof_H 	H 	0.8854	0.7046	0.4381	0.133
Mof_C 	C 	0.863	0.7165	0.492	0.057
Mof_H 	H 	0.8704	0.7024	0.5159	0.06
Mof_C 	C 	0.7566	0.6173	0.4921	-0.383
Mof_C 	C 	0.9125	0.6426	0.4001	-0.018
Mof_H 	H 	0.9274	0.6643	0.4069	0.052
Mof_C 	C 	0.819	0.7245	0.4926	0.299
Mof_O 	O 	0.6379	0.6458	0.4874	-0.213
Mof_C 	C 	0.7245	0.6814	0.4927	0.325
Mof_C 	C 	0.7545	0.5736	0.497	0.438
Mof_C 	C 	0.6547	0.6315	0.4583	0.212
Mof_O 	O 	0.7242	0.6993	0.4607	-0.4
Mof_C 	C 	0.9265	0.7546	0.4972	0.447
Mof_O 	O 	0.944	0.7864	0.4911	-0.419
Mof_O 	O 	0.80079	0.7242	0.4605	-0.39
Mof_O 	O 	0.723	0.5579	0.5073	-0.41
Mof_C 	C 	0.7167	0.6375	0.492	0.044
Mof_O 	O 	0.942	0.723	0.5075	-0.402
Mof_H 	H 	0.7046	0.616	0.4377	0.131
Mof_H 	H 	0.77	0.6224	0.4669	0.157
Mof_H 	H 	0.773	0.6282	0.5123	0.177
Mof_H 	H 	0.7023	0.6302	0.5155	0.063
Mof_O 	O 	0.3537	0.1378	0.4872	-0.214
Mof_O 	O 	0.305	0.2339	0.5259	-0.382
Mof_C 	C 	0.0999	0.1423	0.4125	-0.018
Mof_H 	H 	0.093	0.1637	0.4277	0.05
Mof_C 	C 	0.3828	0.2568	0.4918	-0.41
Mof_H 	H 	0.3772	0.2696	0.4671	0.171
Mof_H 	H 	0.3716	0.2726	0.5125	0.184
Mof_N 	N 	0.1938	0.1255	0.4585	-0.212
Mof_O 	O 	0.2864	0.0556	0.4912	-0.432
Mof_C 	C 	0.1328	0.1201	0.4227	-0.049
Mof_C 	C 	0.3795	0.1323	0.4227	-0.047
Mof_O 	O 	0.2338	0.1953	0.5251	-0.398
Mof_C 	C 	0.3683	0.1547	0.4581	0.214
Mof_N 	N 	0.3746	0.1935	0.458	-0.216
Mof_H 	H 	0.3854	0.2046	0.4381	0.133
Mof_C 	C 	0.363	0.2165	0.492	0.059
Mof_H 	H 	0.3704	0.2024	0.5159	0.057
Mof_C 	C 	0.2566	0.1173	0.4921	-0.385
Mof_C 	C 	0.4125	0.1426	0.4001	-0.018
Mof_H 	H 	0.4274	0.1643	0.4069	0.051
Mof_C 	C 	0.319	0.2245	0.4926	0.299
Mof_O 	O 	0.1379	0.1458	0.4874	-0.216
Mof_C 	C 	0.2245	0.1814	0.4927	0.325
Mof_C 	C 	0.2545	0.0736	0.497	0.44
Mof_C 	C 	0.1547	0.1315	0.4583	0.212
Mof_O 	O 	0.2242	0.1993	0.4607	-0.399
Mof_C 	C 	0.4265	0.2546	0.4972	0.451
Mof_O 	O 	0.444	0.2864	0.4911	-0.431
Mof_O 	O 	0.30079	0.2242	0.4605	-0.39
Mof_O 	O 	0.223	0.0579	0.5073	-0.416
Mof_C 	C 	0.2167	0.1375	0.492	0.045
Mof_O 	O 	0.442	0.223	0.5075	-0.413
Mof_H 	H 	0.2046	0.116	0.4377	0.131
Mof_H 	H 	0.27	0.1224	0.4669	0.157
Mof_H 	H 	0.273	0.1282	0.5123	0.177
Mof_H 	H 	0.2023	0.1302	0.5155	0.061
Mof_O 	O 	0.3537	0.6378	0.9872	-0.201
Mof_O 	O 	0.305	0.7339	0.0259	-0.406
Mof_C 	C 	0.0999	0.6423	0.9125	-0.018
Mof_H 	H 	0.093	0.6637	0.9277	0.052
Mof_C 	C 	0.3828	0.7568	0.9918	-0.368
Mof_H 	H 	0.3772	0.7696	0.9671	0.16
Mof_H 	H 	0.3716	0.7726	0.0125	0.15
Mof_N 	N 	0.1938	0.6255	0.9585	-0.213
Mof_O 	O 	0.2864	0.5556	0.9912	-0.419
Mof_C 	C 	0.1328	0.6201	0.9227	-0.046
Mof_C 	C 	0.3795	0.6323	0.9227	-0.044
Mof_O 	O 	0.2338	0.6953	0.0251	-0.423
Mof_C 	C 	0.3683	0.6547	0.9581	0.215
Mof_N 	N 	0.3746	0.6935	0.958	-0.217
Mof_H 	H 	0.3854	0.7046	0.9381	0.133
Mof_C 	C 	0.363	0.7165	0.992	0.079
Mof_H 	H 	0.3704	0.7024	0.0159	0.033
Mof_C 	C 	0.2566	0.6173	0.9921	-0.342
Mof_C 	C 	0.4125	0.6426	0.9001	-0.018
Mof_H 	H 	0.4274	0.6643	0.9069	0.052
Mof_C 	C 	0.319	0.7245	0.9926	0.328
Mof_O 	O 	0.1379	0.6458	0.9874	-0.203
Mof_C 	C 	0.2245	0.6814	0.9927	0.356
Mof_C 	C 	0.2545	0.5736	0.997	0.462
Mof_C 	C 	0.1547	0.6315	0.9583	0.214
Mof_O 	O 	0.2242	0.6993	0.9607	-0.405
Mof_C 	C 	0.4265	0.7546	0.9972	0.474
Mof_O 	O 	0.444	0.7864	0.9911	-0.422
Mof_O 	O 	0.30079	0.7242	0.9605	-0.394
Mof_O 	O 	0.223	0.5579	0.0073	-0.438
Mof_C 	C 	0.2167	0.6375	0.992	0.065
Mof_O 	O 	0.442	0.723	0.0075	-0.441
Mof_H 	H 	0.2046	0.616	0.9377	0.131
Mof_H 	H 	0.27	0.6224	0.9669	0.146
Mof_H 	H 	0.273	0.6282	0.0123	0.143
Mof_H 	H 	0.2023	0.6302	0.0155	0.037
Mof_O 	O 	0.8537	0.8622	0.0128	-0.22
Mof_O 	O 	0.805	0.7661	0.9741	-0.358
Mof_C 	C 	0.5999	0.8577	0.0875	-0.018
Mof_H 	H 	0.593	0.8363	0.0723	0.051
Mof_C 	C 	0.8828	0.7432	0.0082	-0.446
Mof_H 	H 	0.8772	0.7304	0.0329	0.181
Mof_H 	H 	0.8716	0.7274	0.9875	0.217
Mof_N 	N 	0.6938	0.8745	0.0415	-0.21
Mof_O 	O 	0.7864	0.9444	0.0088	-0.418
Mof_C 	C 	0.6328	0.8799	0.0773	-0.047
Mof_C 	C 	0.8795	0.8677	0.0773	-0.045
Mof_O 	O 	0.7338	0.8047	0.9749	-0.372
Mof_C 	C 	0.8683	0.8453	0.0419	0.212
Mof_N 	N 	0.8746	0.8065	0.042	-0.215
Mof_H 	H 	0.8854	0.7954	0.0619	0.133
Mof_C 	C 	0.863	0.7835	0.008	0.036
Mof_H 	H 	0.8704	0.7976	0.9841	0.085
Mof_C 	C 	0.7566	0.8827	0.0079	-0.419
Mof_C 	C 	0.9125	0.8574	0.0999	-0.018
Mof_H 	H 	0.9274	0.8357	0.0931	0.052
Mof_C 	C 	0.819	0.7755	0.0074	0.271
Mof_O 	O 	0.6379	0.8542	0.0126	-0.223
Mof_C 	C 	0.7245	0.8186	0.0073	0.295
Mof_C 	C 	0.7545	0.9264	0.003	0.409
Mof_C 	C 	0.6547	0.8685	0.0417	0.211
Mof_O 	O 	0.7242	0.8007	0.0393	-0.395
Mof_C 	C 	0.9265	0.7454	0.0028	0.421
Mof_O 	O 	0.944	0.7136	0.0089	-0.422
Mof_O 	O 	0.80079	0.7758	0.0395	-0.386
Mof_O 	O 	0.723	0.9421	0.9927	-0.365
Mof_C 	C 	0.7167	0.8625	0.008	0.022
Mof_O 	O 	0.942	0.777	0.9925	-0.368
Mof_H 	H 	0.7046	0.884	0.0623	0.131
Mof_H 	H 	0.77	0.8776	0.0331	0.166
Mof_H 	H 	0.773	0.8718	0.9877	0.21
Mof_H 	H 	0.7023	0.8698	0.9845	0.09
Mof_O 	O 	0.8537	0.3622	0.5128	-0.211
Mof_O 	O 	0.805	0.2661	0.4741	-0.382
Mof_C 	C 	0.5999	0.3577	0.5875	-0.018
Mof_H 	H 	0.593	0.3363	0.5723	0.052
Mof_C 	C 	0.8828	0.2432	0.5082	-0.406
Mof_H 	H 	0.8772	0.2304	0.5329	0.17
Mof_H 	H 	0.8716	0.2274	0.4875	0.183
Mof_N 	N 	0.6938	0.3745	0.5415	-0.212
Mof_O 	O 	0.7864	0.4444	0.5088	-0.427
Mof_C 	C 	0.6328	0.3799	0.5773	-0.047
Mof_C 	C 	0.8795	0.3677	0.5773	-0.045
Mof_O 	O 	0.7338	0.3047	0.4749	-0.398
Mof_C 	C 	0.8683	0.3453	0.5419	0.214
Mof_N 	N 	0.8746	0.3065	0.542	-0.216
Mof_H 	H 	0.8854	0.2954	0.5619	0.133
Mof_C 	C 	0.863	0.2835	0.508	0.057
Mof_H 	H 	0.8704	0.2976	0.4841	0.06
Mof_C 	C 	0.7566	0.3827	0.5079	-0.383
Mof_C 	C 	0.9125	0.3574	0.5999	-0.018
Mof_H 	H 	0.9274	0.3357	0.5931	0.052
Mof_C 	C 	0.819	0.2755	0.5074	0.299
Mof_O 	O 	0.6379	0.3542	0.5126	-0.213
Mof_C 	C 	0.7245	0.3186	0.5073	0.325
Mof_C 	C 	0.7545	0.4264	0.503	0.438
Mof_C 	C 	0.6547	0.3685	0.5417	0.212
Mof_O 	O 	0.7242	0.3007	0.5393	-0.4
Mof_C 	C 	0.9265	0.2454	0.5028	0.447
Mof_O 	O 	0.944	0.2136	0.5089	-0.421
Mof_O 	O 	0.80079	0.2758	0.5395	-0.39
Mof_O 	O 	0.723	0.4421	0.4927	-0.41
Mof_C 	C 	0.7167	0.3625	0.508	0.044
Mof_O 	O 	0.942	0.277	0.4925	-0.402
Mof_H 	H 	0.7046	0.384	0.5623	0.131
Mof_H 	H 	0.77	0.3776	0.5331	0.157
Mof_H 	H 	0.773	0.3718	0.4877	0.177
Mof_H 	H 	0.7023	0.3698	0.4845	0.063
Mof_O 	O 	0.3537	0.8622	0.5128	-0.211
Mof_O 	O 	0.305	0.7661	0.4741	-0.382
Mof_C 	C 	0.0999	0.8577	0.5875	-0.019
Mof_H 	H 	0.093	0.8363	0.5723	0.051
Mof_C 	C 	0.3828	0.7432	0.5082	-0.409
Mof_H 	H 	0.3772	0.7304	0.5329	0.171
Mof_H 	H 	0.3716	0.7274	0.4875	0.184
Mof_N 	N 	0.1938	0.8745	0.5415	-0.211
Mof_O 	O 	0.2864	0.9444	0.5088	-0.417
Mof_C 	C 	0.1328	0.8799	0.5773	-0.047
Mof_C 	C 	0.3795	0.8677	0.5773	-0.045
Mof_O 	O 	0.2338	0.8047	0.4749	-0.397
Mof_C 	C 	0.3683	0.8453	0.5419	0.214
Mof_N 	N 	0.3746	0.8065	0.542	-0.216
Mof_H 	H 	0.3854	0.7954	0.5619	0.133
Mof_C 	C 	0.363	0.7835	0.508	0.058
Mof_H 	H 	0.3704	0.7976	0.4841	0.059
Mof_C 	C 	0.2566	0.8827	0.5079	-0.38
Mof_C 	C 	0.4125	0.8574	0.5999	-0.018
Mof_H 	H 	0.4274	0.8357	0.5931	0.051
Mof_C 	C 	0.319	0.7755	0.5074	0.299
Mof_O 	O 	0.1379	0.8542	0.5126	-0.213
Mof_C 	C 	0.2245	0.8186	0.5073	0.326
Mof_C 	C 	0.2545	0.9264	0.503	0.435
Mof_C 	C 	0.1547	0.8685	0.5417	0.212
Mof_O 	O 	0.2242	0.8007	0.5393	-0.4
Mof_C 	C 	0.4265	0.7454	0.5028	0.45
Mof_O 	O 	0.444	0.7136	0.5089	-0.431
Mof_O 	O 	0.30079	0.7758	0.5395	-0.39
Mof_O 	O 	0.223	0.9421	0.4927	-0.399
Mof_C 	C 	0.2167	0.8625	0.508	0.043
Mof_O 	O 	0.442	0.777	0.4925	-0.412
Mof_H 	H 	0.2046	0.884	0.5623	0.131
Mof_H 	H 	0.27	0.8776	0.5331	0.156
Mof_H 	H 	0.273	0.8718	0.4877	0.177
Mof_H 	H 	0.2023	0.8698	0.4845	0.064
Mof_O 	O 	0.3537	0.3622	0.0128	-0.224
Mof_O 	O 	0.305	0.2661	0.9741	-0.358
Mof_C 	C 	0.0999	0.3577	0.0875	-0.018
Mof_H 	H 	0.093	0.3363	0.0723	0.049
Mof_C 	C 	0.3828	0.2432	0.0082	-0.45
Mof_H 	H 	0.3772	0.2304	0.0329	0.182
Mof_H 	H 	0.3716	0.2274	0.9875	0.217
Mof_N 	N 	0.1938	0.3745	0.0415	-0.211
Mof_O 	O 	0.2864	0.4444	0.0088	-0.43
Mof_C 	C 	0.1328	0.3799	0.0773	-0.05
Mof_C 	C 	0.3795	0.3677	0.0773	-0.048
Mof_O 	O 	0.2338	0.3047	0.9749	-0.372
Mof_C 	C 	0.3683	0.3453	0.0419	0.212
Mof_N 	N 	0.3746	0.3065	0.042	-0.215
Mof_H 	H 	0.3854	0.2954	0.0619	0.133
Mof_C 	C 	0.363	0.2835	0.008	0.037
Mof_H 	H 	0.3704	0.2976	0.9841	0.084
Mof_C 	C 	0.2566	0.3827	0.0079	-0.423
Mof_C 	C 	0.4125	0.3574	0.0999	-0.018
Mof_H 	H 	0.4274	0.3357	0.0931	0.05
Mof_C 	C 	0.319	0.2755	0.0074	0.27
Mof_O 	O 	0.1379	0.3542	0.0126	-0.226
Mof_C 	C 	0.2245	0.3186	0.0073	0.295
Mof_C 	C 	0.2545	0.4264	0.003	0.413
Mof_C 	C 	0.1547	0.3685	0.0417	0.211
Mof_O 	O 	0.2242	0.3007	0.0393	-0.395
Mof_C 	C 	0.4265	0.2454	0.0028	0.425
Mof_O 	O 	0.444	0.2136	0.0089	-0.433
Mof_O 	O 	0.30079	0.2758	0.0395	-0.386
Mof_O 	O 	0.223	0.4421	0.9927	-0.376
Mof_C 	C 	0.2167	0.3625	0.008	0.023
Mof_O 	O 	0.442	0.277	0.9925	-0.379
Mof_H 	H 	0.2046	0.384	0.0623	0.131
Mof_H 	H 	0.27	0.3776	0.0331	0.167
Mof_H 	H 	0.273	0.3718	0.9877	0.211
Mof_H 	H 	0.2023	0.3698	0.9845	0.088
Mof_O 	O 	0.1463	0.1378	0.0128	-0.227
Mof_O 	O 	0.195	0.2339	0.9741	-0.359
Mof_C 	C 	0.4001	0.1423	0.0875	-0.018
Mof_H 	H 	0.407	0.1637	0.0723	0.05
Mof_C 	C 	0.1172	0.2568	0.0082	-0.452
Mof_H 	H 	0.1228	0.2696	0.0329	0.183
Mof_H 	H 	0.1284	0.2726	0.9875	0.217
Mof_N 	N 	0.3062	0.1255	0.0415	-0.211
Mof_O 	O 	0.2136	0.0556	0.0088	-0.435
Mof_C 	C 	0.3672	0.1201	0.0773	-0.05
Mof_C 	C 	0.1205	0.1323	0.0773	-0.051
Mof_O 	O 	0.2662	0.1953	0.9749	-0.373
Mof_C 	C 	0.1317	0.1547	0.0419	0.212
Mof_N 	N 	0.1254	0.1935	0.042	-0.216
Mof_H 	H 	0.1146	0.2046	0.0619	0.133
Mof_C 	C 	0.137	0.2165	0.008	0.038
Mof_H 	H 	0.1296	0.2024	0.9841	0.082
Mof_C 	C 	0.2434	0.1173	0.0079	-0.424
Mof_C 	C 	0.0875	0.1426	0.0999	-0.018
Mof_H 	H 	0.0726	0.1643	0.0931	0.048
Mof_C 	C 	0.181	0.2245	0.0074	0.27
Mof_O 	O 	0.3621	0.1458	0.0126	-0.226
Mof_C 	C 	0.2755	0.1814	0.0073	0.295
Mof_C 	C 	0.2455	0.0736	0.003	0.415
Mof_C 	C 	0.3453	0.1315	0.0417	0.21
Mof_O 	O 	0.2758	0.1993	0.0393	-0.395
Mof_C 	C 	0.0735	0.2546	0.0028	0.427
Mof_O 	O 	0.056	0.2864	0.0089	-0.438
Mof_O 	O 	0.19921	0.2242	0.0395	-0.386
Mof_O 	O 	0.277	0.0579	0.9927	-0.381
Mof_C 	C 	0.2833	0.1375	0.008	0.024
Mof_O 	O 	0.058	0.223	0.9925	-0.385
Mof_H 	H 	0.2954	0.116	0.0623	0.131
Mof_H 	H 	0.23	0.1224	0.0331	0.167
Mof_H 	H 	0.227	0.1282	0.9877	0.21
Mof_H 	H 	0.2977	0.1302	0.9845	0.087
Mof_O 	O 	0.1463	0.6378	0.5128	-0.214
Mof_O 	O 	0.195	0.7339	0.4741	-0.383
Mof_C 	C 	0.4001	0.6423	0.5875	-0.018
Mof_H 	H 	0.407	0.6637	0.5723	0.052
Mof_C 	C 	0.1172	0.7568	0.5082	-0.411
Mof_H 	H 	0.1228	0.7696	0.5329	0.172
Mof_H 	H 	0.1284	0.7726	0.4875	0.184
Mof_N 	N 	0.3062	0.6255	0.5415	-0.212
Mof_O 	O 	0.2136	0.5556	0.5088	-0.428
Mof_C 	C 	0.3672	0.6201	0.5773	-0.047
Mof_C 	C 	0.1205	0.6323	0.5773	-0.048
Mof_O 	O 	0.2662	0.6953	0.4749	-0.398
Mof_C 	C 	0.1317	0.6547	0.5419	0.213
Mof_N 	N 	0.1254	0.6935	0.542	-0.217
Mof_H 	H 	0.1146	0.7046	0.5619	0.133
Mof_C 	C 	0.137	0.7165	0.508	0.059
Mof_H 	H 	0.1296	0.7024	0.4841	0.057
Mof_C 	C 	0.2434	0.6173	0.5079	-0.383
Mof_C 	C 	0.0875	0.6426	0.5999	-0.018
Mof_H 	H 	0.0726	0.6643	0.5931	0.05
Mof_C 	C 	0.181	0.7245	0.5074	0.299
Mof_O 	O 	0.3621	0.6458	0.5126	-0.213
Mof_C 	C 	0.2755	0.6814	0.5073	0.326
Mof_C 	C 	0.2455	0.5736	0.503	0.439
Mof_C 	C 	0.3453	0.6315	0.5417	0.212
Mof_O 	O 	0.2758	0.6993	0.5393	-0.4
Mof_C 	C 	0.0735	0.7546	0.5028	0.452
Mof_O 	O 	0.056	0.7864	0.5089	-0.435
Mof_O 	O 	0.19921	0.7242	0.5395	-0.39
Mof_O 	O 	0.277	0.5579	0.4927	-0.41
Mof_C 	C 	0.2833	0.6375	0.508	0.044
Mof_O 	O 	0.058	0.723	0.4925	-0.418
Mof_H 	H 	0.2954	0.616	0.5623	0.131
Mof_H 	H 	0.23	0.6224	0.5331	0.157
Mof_H 	H 	0.227	0.6282	0.4877	0.177
Mof_H 	H 	0.2977	0.6302	0.4845	0.063
Mof_O 	O 	0.6463	0.1378	0.5128	-0.215
Mof_O 	O 	0.695	0.2339	0.4741	-0.382
Mof_C 	C 	0.9001	0.1423	0.5875	-0.018
Mof_H 	H 	0.907	0.1637	0.5723	0.053
Mof_C 	C 	0.6172	0.2568	0.5082	-0.41
Mof_H 	H 	0.6228	0.2696	0.5329	0.171
Mof_H 	H 	0.6284	0.2726	0.4875	0.184
Mof_N 	N 	0.8062	0.1255	0.5415	-0.212
Mof_O 	O 	0.7136	0.0556	0.5088	-0.432
Mof_C 	C 	0.8672	0.1201	0.5773	-0.047
Mof_C 	C 	0.6205	0.1323	0.5773	-0.048
Mof_O 	O 	0.7662	0.1953	0.4749	-0.398
Mof_C 	C 	0.6317	0.1547	0.5419	0.214
Mof_N 	N 	0.6254	0.1935	0.542	-0.216
Mof_H 	H 	0.6146	0.2046	0.5619	0.133
Mof_C 	C 	0.637	0.2165	0.508	0.058
Mof_H 	H 	0.6296	0.2024	0.4841	0.058
Mof_C 	C 	0.7434	0.1173	0.5079	-0.384
Mof_C 	C 	0.5875	0.1426	0.5999	-0.018
Mof_H 	H 	0.5726	0.1643	0.5931	0.051
Mof_C 	C 	0.681	0.2245	0.5074	0.299
Mof_O 	O 	0.8621	0.1458	0.5126	-0.212
Mof_C 	C 	0.7755	0.1814	0.5073	0.325
Mof_C 	C 	0.7455	0.0736	0.503	0.44
Mof_C 	C 	0.8453	0.1315	0.5417	0.211
Mof_O 	O 	0.7758	0.1993	0.5393	-0.4
Mof_C 	C 	0.5735	0.2546	0.5028	0.451
Mof_O 	O 	0.556	0.2864	0.5089	-0.431
Mof_O 	O 	0.69921	0.2242	0.5395	-0.39
Mof_O 	O 	0.777	0.0579	0.4927	-0.414
Mof_C 	C 	0.7833	0.1375	0.508	0.044
Mof_O 	O 	0.558	0.223	0.4925	-0.413
Mof_H 	H 	0.7954	0.116	0.5623	0.131
Mof_H 	H 	0.73	0.1224	0.5331	0.157
Mof_H 	H 	0.727	0.1282	0.4877	0.177
Mof_H 	H 	0.7977	0.1302	0.4845	0.062
Mof_O 	O 	0.6463	0.6378	0.0128	-0.224
Mof_O 	O 	0.695	0.7339	0.9741	-0.358
Mof_C 	C 	0.9001	0.6423	0.0875	-0.018
Mof_H 	H 	0.907	0.6637	0.0723	0.052
Mof_C 	C 	0.6172	0.7568	0.0082	-0.45
Mof_H 	H 	0.6228	0.7696	0.0329	0.182
Mof_H 	H 	0.6284	0.7726	0.9875	0.217
Mof_N 	N 	0.8062	0.6255	0.0415	-0.211
Mof_O 	O 	0.7136	0.5556	0.0088	-0.43
Mof_C 	C 	0.8672	0.6201	0.0773	-0.047
Mof_C 	C 	0.6205	0.6323	0.0773	-0.048
Mof_O 	O 	0.7662	0.6953	0.9749	-0.372
Mof_C 	C 	0.6317	0.6547	0.0419	0.212
Mof_N 	N 	0.6254	0.6935	0.042	-0.215
Mof_H 	H 	0.6146	0.7046	0.0619	0.133
Mof_C 	C 	0.637	0.7165	0.008	0.037
Mof_H 	H 	0.6296	0.7024	0.9841	0.083
Mof_C 	C 	0.7434	0.6173	0.0079	-0.422
Mof_C 	C 	0.5875	0.6426	0.0999	-0.018
Mof_H 	H 	0.5726	0.6643	0.0931	0.05
Mof_C 	C 	0.681	0.7245	0.0074	0.27
Mof_O 	O 	0.8621	0.6458	0.0126	-0.222
Mof_C 	C 	0.7755	0.6814	0.0073	0.295
Mof_C 	C 	0.7455	0.5736	0.003	0.413
Mof_C 	C 	0.8453	0.6315	0.0417	0.21
Mof_O 	O 	0.7758	0.6993	0.0393	-0.395
Mof_C 	C 	0.5735	0.7546	0.0028	0.425
Mof_O 	O 	0.556	0.7864	0.0089	-0.432
Mof_O 	O 	0.69921	0.7242	0.0395	-0.386
Mof_O 	O 	0.777	0.5579	0.9927	-0.375
Mof_C 	C 	0.7833	0.6375	0.008	0.023
Mof_O 	O 	0.558	0.723	0.9925	-0.379
Mof_H 	H 	0.7954	0.616	0.0623	0.131
Mof_H 	H 	0.73	0.6224	0.0331	0.167
Mof_H 	H 	0.727	0.6282	0.9877	0.21
Mof_H 	H 	0.7977	0.6302	0.9845	0.089
Mof_O 	O 	0.9872	0.1463	0.8622	-0.2
Mof_O 	O 	0.0259	0.195	0.7661	-0.406
Mof_C 	C 	0.9125	0.4001	0.8577	-0.018
Mof_H 	H 	0.9277	0.407	0.8363	0.054
Mof_C 	C 	0.9918	0.1172	0.7432	-0.369
Mof_H 	H 	0.9671	0.1228	0.7304	0.16
Mof_H 	H 	0.0125	0.1284	0.7274	0.15
Mof_N 	N 	0.9585	0.3062	0.8745	-0.212
Mof_O 	O 	0.9912	0.2136	0.9444	-0.409
Mof_C 	C 	0.9227	0.3672	0.8799	-0.043
Mof_C 	C 	0.9227	0.1205	0.8677	-0.044
Mof_O 	O 	0.0251	0.2662	0.8047	-0.423
Mof_C 	C 	0.9581	0.1317	0.8453	0.215
Mof_N 	N 	0.958	0.1254	0.8065	-0.217
Mof_H 	H 	0.9381	0.1146	0.7954	0.133
Mof_C 	C 	0.992	0.137	0.7835	0.079
Mof_H 	H 	0.0159	0.1296	0.7976	0.032
Mof_C 	C 	0.9921	0.2434	0.8827	-0.338
Mof_C 	C 	0.9001	0.0875	0.8574	-0.018
Mof_H 	H 	0.9069	0.0726	0.8357	0.052
Mof_C 	C 	0.9926	0.181	0.7755	0.328
Mof_O 	O 	0.9874	0.3621	0.8542	-0.199
Mof_C 	C 	0.9927	0.2755	0.8186	0.357
Mof_C 	C 	0.997	0.2455	0.9264	0.458
Mof_C 	C 	0.9583	0.3453	0.8685	0.214
Mof_O 	O 	0.9607	0.2758	0.8007	-0.405
Mof_C 	C 	0.9972	0.0735	0.7454	0.475
Mof_O 	O 	0.9911	0.056	0.7136	-0.427
Mof_O 	O 	0.9605	0.19921	0.7758	-0.394
Mof_O 	O 	0.0073	0.277	0.9421	-0.426
Mof_C 	C 	0.992	0.2833	0.8625	0.063
Mof_O 	O 	0.0075	0.058	0.777	-0.445
Mof_H 	H 	0.9377	0.2954	0.884	0.131
Mof_H 	H 	0.9669	0.23	0.8776	0.145
Mof_H 	H 	0.0123	0.227	0.8718	0.143
Mof_H 	H 	0.0155	0.2977	0.8698	0.039
Mof_O 	O 	0.9872	0.6463	0.3622	-0.201
Mof_O 	O 	0.0259	0.695	0.2661	-0.406
Mof_C 	C 	0.9125	0.9001	0.3577	-0.018
Mof_H 	H 	0.9277	0.907	0.3363	0.055
Mof_C 	C 	0.9918	0.6172	0.2432	-0.368
Mof_H 	H 	0.9671	0.6228	0.2304	0.16
Mof_H 	H 	0.0125	0.6284	0.2274	0.15
Mof_N 	N 	0.9585	0.8062	0.3745	-0.212
Mof_O 	O 	0.9912	0.7136	0.4444	-0.419
Mof_C 	C 	0.9227	0.8672	0.3799	-0.043
Mof_C 	C 	0.9227	0.6205	0.3677	-0.044
Mof_O 	O 	0.0251	0.7662	0.3047	-0.423
Mof_C 	C 	0.9581	0.6317	0.3453	0.215
Mof_N 	N 	0.958	0.6254	0.3065	-0.217
Mof_H 	H 	0.9381	0.6146	0.2954	0.133
Mof_C 	C 	0.992	0.637	0.2835	0.079
Mof_H 	H 	0.0159	0.6296	0.2976	0.033
Mof_C 	C 	0.9921	0.7434	0.3827	-0.341
Mof_C 	C 	0.9001	0.5875	0.3574	-0.018
Mof_H 	H 	0.9069	0.5726	0.3357	0.052
Mof_C 	C 	0.9926	0.681	0.2755	0.328
Mof_O 	O 	0.9874	0.8621	0.3542	-0.199
Mof_C 	C 	0.9927	0.7755	0.3186	0.357
Mof_C 	C 	0.997	0.7455	0.4264	0.462
Mof_C 	C 	0.9583	0.8453	0.3685	0.213
Mof_O 	O 	0.9607	0.7758	0.3007	-0.405
Mof_C 	C 	0.9972	0.5735	0.2454	0.474
Mof_O 	O 	0.9911	0.556	0.2136	-0.423
Mof_O 	O 	0.9605	0.69921	0.2758	-0.394
Mof_O 	O 	0.0073	0.777	0.4421	-0.437
Mof_C 	C 	0.992	0.7833	0.3625	0.064
Mof_O 	O 	0.0075	0.558	0.277	-0.441
Mof_H 	H 	0.9377	0.7954	0.384	0.131
Mof_H 	H 	0.9669	0.73	0.3776	0.146
Mof_H 	H 	0.0123	0.727	0.3718	0.143
Mof_H 	H 	0.0155	0.7977	0.3698	0.038
Mof_O 	O 	0.4872	0.1463	0.3622	-0.214
Mof_O 	O 	0.5259	0.195	0.2661	-0.383
Mof_C 	C 	0.4125	0.4001	0.3577	-0.018
Mof_H 	H 	0.4277	0.407	0.3363	0.052
Mof_C 	C 	0.4918	0.1172	0.2432	-0.411
Mof_H 	H 	0.4671	0.1228	0.2304	0.172
Mof_H 	H 	0.5125	0.1284	0.2274	0.183
Mof_N 	N 	0.4585	0.3062	0.3745	-0.212
Mof_O 	O 	0.4912	0.2136	0.4444	-0.428
Mof_C 	C 	0.4227	0.3672	0.3799	-0.047
Mof_C 	C 	0.4227	0.1205	0.3677	-0.047
Mof_O 	O 	0.5251	0.2662	0.3047	-0.398
Mof_C 	C 	0.4581	0.1317	0.3453	0.214
Mof_N 	N 	0.458	0.1254	0.3065	-0.217
Mof_H 	H 	0.4381	0.1146	0.2954	0.133
Mof_C 	C 	0.492	0.137	0.2835	0.059
Mof_H 	H 	0.5159	0.1296	0.2976	0.057
Mof_C 	C 	0.4921	0.2434	0.3827	-0.383
Mof_C 	C 	0.4001	0.0875	0.3574	-0.018
Mof_H 	H 	0.4069	0.0726	0.3357	0.05
Mof_C 	C 	0.4926	0.181	0.2755	0.299
Mof_O 	O 	0.4874	0.3621	0.3542	-0.213
Mof_C 	C 	0.4927	0.2755	0.3186	0.326
Mof_C 	C 	0.497	0.2455	0.4264	0.439
Mof_C 	C 	0.4583	0.3453	0.3685	0.212
Mof_O 	O 	0.4607	0.2758	0.3007	-0.4
Mof_C 	C 	0.4972	0.0735	0.2454	0.452
Mof_O 	O 	0.4911	0.056	0.2136	-0.436
Mof_O 	O 	0.4605	0.19921	0.2758	-0.39
Mof_O 	O 	0.5073	0.277	0.4421	-0.41
Mof_C 	C 	0.492	0.2833	0.3625	0.044
Mof_O 	O 	0.5075	0.058	0.277	-0.418
Mof_H 	H 	0.4377	0.2954	0.384	0.131
Mof_H 	H 	0.4669	0.23	0.3776	0.157
Mof_H 	H 	0.5123	0.227	0.3718	0.177
Mof_H 	H 	0.5155	0.2977	0.3698	0.063
Mof_O 	O 	0.4872	0.6463	0.8622	-0.211
Mof_O 	O 	0.5259	0.695	0.7661	-0.382
Mof_C 	C 	0.4125	0.9001	0.8577	-0.018
Mof_H 	H 	0.4277	0.907	0.8363	0.054
Mof_C 	C 	0.4918	0.6172	0.7432	-0.409
Mof_H 	H 	0.4671	0.6228	0.7304	0.171
Mof_H 	H 	0.5125	0.6284	0.7274	0.184
Mof_N 	N 	0.4585	0.8062	0.8745	-0.211
Mof_O 	O 	0.4912	0.7136	0.9444	-0.417
Mof_C 	C 	0.4227	0.8672	0.8799	-0.044
Mof_C 	C 	0.4227	0.6205	0.8677	-0.045
Mof_O 	O 	0.5251	0.7662	0.8047	-0.397
Mof_C 	C 	0.4581	0.6317	0.8453	0.214
Mof_N 	N 	0.458	0.6254	0.8065	-0.216
Mof_H 	H 	0.4381	0.6146	0.7954	0.133
Mof_C 	C 	0.492	0.637	0.7835	0.058
Mof_H 	H 	0.5159	0.6296	0.7976	0.059
Mof_C 	C 	0.4921	0.7434	0.8827	-0.379
Mof_C 	C 	0.4001	0.5875	0.8574	-0.018
Mof_H 	H 	0.4069	0.5726	0.8357	0.051
Mof_C 	C 	0.4926	0.681	0.7755	0.299
Mof_O 	O 	0.4874	0.8621	0.8542	-0.209
Mof_C 	C 	0.4927	0.7755	0.8186	0.326
Mof_C 	C 	0.497	0.7455	0.9264	0.434
Mof_C 	C 	0.4583	0.8453	0.8685	0.212
Mof_O 	O 	0.4607	0.7758	0.8007	-0.4
Mof_C 	C 	0.4972	0.5735	0.7454	0.45
Mof_O 	O 	0.4911	0.556	0.7136	-0.431
Mof_O 	O 	0.4605	0.69921	0.7758	-0.39
Mof_O 	O 	0.5073	0.777	0.9421	-0.398
Mof_C 	C 	0.492	0.7833	0.8625	0.042
Mof_O 	O 	0.5075	0.558	0.777	-0.412
Mof_H 	H 	0.4377	0.7954	0.884	0.131
Mof_H 	H 	0.4669	0.73	0.8776	0.156
Mof_H 	H 	0.5123	0.727	0.8718	0.177
Mof_H 	H 	0.5155	0.7977	0.8698	0.065
Mof_O 	O 	0.9872	0.8537	0.1378	-0.201
Mof_O 	O 	0.0259	0.805	0.2339	-0.406
Mof_C 	C 	0.9125	0.5999	0.1423	-0.018
Mof_H 	H 	0.9277	0.593	0.1637	0.053
Mof_C 	C 	0.9918	0.8828	0.2568	-0.365
Mof_H 	H 	0.9671	0.8772	0.2696	0.159
Mof_H 	H 	0.0125	0.8716	0.2726	0.15
Mof_N 	N 	0.9585	0.6938	0.1255	-0.213
Mof_O 	O 	0.9912	0.7864	0.0556	-0.423
Mof_C 	C 	0.9227	0.6328	0.1201	-0.046
Mof_C 	C 	0.9227	0.8795	0.1323	-0.044
Mof_O 	O 	0.0251	0.7338	0.1953	-0.423
Mof_C 	C 	0.9581	0.8683	0.1547	0.216
Mof_N 	N 	0.958	0.8746	0.1935	-0.217
Mof_H 	H 	0.9381	0.8854	0.2046	0.133
Mof_C 	C 	0.992	0.863	0.2165	0.078
Mof_H 	H 	0.0159	0.8704	0.2024	0.034
Mof_C 	C 	0.9921	0.7566	0.1173	-0.343
Mof_C 	C 	0.9001	0.9125	0.1426	-0.018
Mof_H 	H 	0.9069	0.9274	0.1643	0.054
Mof_C 	C 	0.9926	0.819	0.2245	0.328
Mof_O 	O 	0.9874	0.6379	0.1458	-0.203
Mof_C 	C 	0.9927	0.7245	0.1814	0.356
Mof_C 	C 	0.997	0.7545	0.0736	0.464
Mof_C 	C 	0.9583	0.6547	0.1315	0.213
Mof_O 	O 	0.9607	0.7242	0.1993	-0.404
Mof_C 	C 	0.9972	0.9265	0.2546	0.47
Mof_O 	O 	0.9911	0.944	0.2864	-0.412
Mof_O 	O 	0.9605	0.80079	0.2242	-0.394
Mof_O 	O 	0.0073	0.723	0.0579	-0.443
Mof_C 	C 	0.992	0.7167	0.1375	0.065
Mof_O 	O 	0.0075	0.942	0.223	-0.43
Mof_H 	H 	0.9377	0.7046	0.116	0.131
Mof_H 	H 	0.9669	0.77	0.1224	0.146
Mof_H 	H 	0.0123	0.773	0.1282	0.143
Mof_H 	H 	0.0155	0.7023	0.1302	0.036
Mof_O 	O 	0.9872	0.3537	0.6378	-0.201
Mof_O 	O 	0.0259	0.305	0.7339	-0.406
Mof_C 	C 	0.9125	0.0999	0.6423	-0.018
Mof_H 	H 	0.9277	0.093	0.6637	0.052
Mof_C 	C 	0.9918	0.3828	0.7568	-0.368
Mof_H 	H 	0.9671	0.3772	0.7696	0.16
Mof_H 	H 	0.0125	0.3716	0.7726	0.15
Mof_N 	N 	0.9585	0.1938	0.6255	-0.213
Mof_O 	O 	0.9912	0.2864	0.5556	-0.419
Mof_C 	C 	0.9227	0.1328	0.6201	-0.046
Mof_C 	C 	0.9227	0.3795	0.6323	-0.044
Mof_O 	O 	0.0251	0.2338	0.6953	-0.423
Mof_C 	C 	0.9581	0.3683	0.6547	0.215
Mof_N 	N 	0.958	0.3746	0.6935	-0.217
Mof_H 	H 	0.9381	0.3854	0.7046	0.133
Mof_C 	C 	0.992	0.363	0.7165	0.079
Mof_H 	H 	0.0159	0.3704	0.7024	0.033
Mof_C 	C 	0.9921	0.2566	0.6173	-0.342
Mof_C 	C 	0.9001	0.4125	0.6426	-0.018
Mof_H 	H 	0.9069	0.4274	0.6643	0.052
Mof_C 	C 	0.9926	0.319	0.7245	0.328
Mof_O 	O 	0.9874	0.1379	0.6458	-0.203
Mof_C 	C 	0.9927	0.2245	0.6814	0.356
Mof_C 	C 	0.997	0.2545	0.5736	0.462
Mof_C 	C 	0.9583	0.1547	0.6315	0.214
Mof_O 	O 	0.9607	0.2242	0.6993	-0.405
Mof_C 	C 	0.9972	0.4265	0.7546	0.474
Mof_O 	O 	0.9911	0.444	0.7864	-0.422
Mof_O 	O 	0.9605	0.30079	0.7242	-0.394
Mof_O 	O 	0.0073	0.223	0.5579	-0.438
Mof_C 	C 	0.992	0.2167	0.6375	0.065
Mof_O 	O 	0.0075	0.442	0.723	-0.441
Mof_H 	H 	0.9377	0.2046	0.616	0.131
Mof_H 	H 	0.9669	0.27	0.6224	0.146
Mof_H 	H 	0.0123	0.273	0.6282	0.143
Mof_H 	H 	0.0155	0.2023	0.6302	0.037
Mof_O 	O 	0.4872	0.8537	0.6378	-0.211
Mof_O 	O 	0.5259	0.805	0.7339	-0.382
Mof_C 	C 	0.4125	0.5999	0.6423	-0.018
Mof_H 	H 	0.4277	0.593	0.6637	0.052
Mof_C 	C 	0.4918	0.8828	0.7568	-0.407
Mof_H 	H 	0.4671	0.8772	0.7696	0.17
Mof_H 	H 	0.5125	0.8716	0.7726	0.184
Mof_N 	N 	0.4585	0.6938	0.6255	-0.212
Mof_O 	O 	0.4912	0.7864	0.5556	-0.427
Mof_C 	C 	0.4227	0.6328	0.6201	-0.047
Mof_C 	C 	0.4227	0.8795	0.6323	-0.045
Mof_O 	O 	0.5251	0.7338	0.6953	-0.397
Mof_C 	C 	0.4581	0.8683	0.6547	0.214
Mof_N 	N 	0.458	0.8746	0.6935	-0.216
Mof_H 	H 	0.4381	0.8854	0.7046	0.133
Mof_C 	C 	0.492	0.863	0.7165	0.057
Mof_H 	H 	0.5159	0.8704	0.7024	0.06
Mof_C 	C 	0.4921	0.7566	0.6173	-0.383
Mof_C 	C 	0.4001	0.9125	0.6426	-0.018
Mof_H 	H 	0.4069	0.9274	0.6643	0.052
Mof_C 	C 	0.4926	0.819	0.7245	0.299
Mof_O 	O 	0.4874	0.6379	0.6458	-0.213
Mof_C 	C 	0.4927	0.7245	0.6814	0.325
Mof_C 	C 	0.497	0.7545	0.5736	0.438
Mof_C 	C 	0.4583	0.6547	0.6315	0.212
Mof_O 	O 	0.4607	0.7242	0.6993	-0.4
Mof_C 	C 	0.4972	0.9265	0.7546	0.447
Mof_O 	O 	0.4911	0.944	0.7864	-0.419
Mof_O 	O 	0.4605	0.80079	0.7242	-0.39
Mof_O 	O 	0.5073	0.723	0.5579	-0.41
Mof_C 	C 	0.492	0.7167	0.6375	0.044
Mof_O 	O 	0.5075	0.942	0.723	-0.402
Mof_H 	H 	0.4377	0.7046	0.616	0.131
Mof_H 	H 	0.4669	0.77	0.6224	0.157
Mof_H 	H 	0.5123	0.773	0.6282	0.177
Mof_H 	H 	0.5155	0.7023	0.6302	0.063
Mof_O 	O 	0.4872	0.3537	0.1378	-0.214
Mof_O 	O 	0.5259	0.305	0.2339	-0.382
Mof_C 	C 	0.4125	0.0999	0.1423	-0.018
Mof_H 	H 	0.4277	0.093	0.1637	0.05
Mof_C 	C 	0.4918	0.3828	0.2568	-0.41
Mof_H 	H 	0.4671	0.3772	0.2696	0.171
Mof_H 	H 	0.5125	0.3716	0.2726	0.184
Mof_N 	N 	0.4585	0.1938	0.1255	-0.212
Mof_O 	O 	0.4912	0.2864	0.0556	-0.432
Mof_C 	C 	0.4227	0.1328	0.1201	-0.049
Mof_C 	C 	0.4227	0.3795	0.1323	-0.047
Mof_O 	O 	0.5251	0.2338	0.1953	-0.398
Mof_C 	C 	0.4581	0.3683	0.1547	0.214
Mof_N 	N 	0.458	0.3746	0.1935	-0.216
Mof_H 	H 	0.4381	0.3854	0.2046	0.133
Mof_C 	C 	0.492	0.363	0.2165	0.059
Mof_H 	H 	0.5159	0.3704	0.2024	0.057
Mof_C 	C 	0.4921	0.2566	0.1173	-0.385
Mof_C 	C 	0.4001	0.4125	0.1426	-0.018
Mof_H 	H 	0.4069	0.4274	0.1643	0.051
Mof_C 	C 	0.4926	0.319	0.2245	0.299
Mof_O 	O 	0.4874	0.1379	0.1458	-0.216
Mof_C 	C 	0.4927	0.2245	0.1814	0.325
Mof_C 	C 	0.497	0.2545	0.0736	0.44
Mof_C 	C 	0.4583	0.1547	0.1315	0.212
Mof_O 	O 	0.4607	0.2242	0.1993	-0.399
Mof_C 	C 	0.4972	0.4265	0.2546	0.451
Mof_O 	O 	0.4911	0.444	0.2864	-0.431
Mof_O 	O 	0.4605	0.30079	0.2242	-0.39
Mof_O 	O 	0.5073	0.223	0.0579	-0.416
Mof_C 	C 	0.492	0.2167	0.1375	0.045
Mof_O 	O 	0.5075	0.442	0.223	-0.413
Mof_H 	H 	0.4377	0.2046	0.116	0.131
Mof_H 	H 	0.4669	0.27	0.1224	0.157
Mof_H 	H 	0.5123	0.273	0.1282	0.177
Mof_H 	H 	0.5155	0.2023	0.1302	0.061
Mof_O 	O 	0.0128	0.8537	0.8622	-0.22
Mof_O 	O 	0.9741	0.805	0.7661	-0.358
Mof_C 	C 	0.0875	0.5999	0.8577	-0.018
Mof_H 	H 	0.0723	0.593	0.8363	0.051
Mof_C 	C 	0.0082	0.8828	0.7432	-0.446
Mof_H 	H 	0.0329	0.8772	0.7304	0.181
Mof_H 	H 	0.9875	0.8716	0.7274	0.217
Mof_N 	N 	0.0415	0.6938	0.8745	-0.21
Mof_O 	O 	0.0088	0.7864	0.9444	-0.418
Mof_C 	C 	0.0773	0.6328	0.8799	-0.047
Mof_C 	C 	0.0773	0.8795	0.8677	-0.045
Mof_O 	O 	0.9749	0.7338	0.8047	-0.372
Mof_C 	C 	0.0419	0.8683	0.8453	0.212
Mof_N 	N 	0.042	0.8746	0.8065	-0.215
Mof_H 	H 	0.0619	0.8854	0.7954	0.133
Mof_C 	C 	0.008	0.863	0.7835	0.036
Mof_H 	H 	0.9841	0.8704	0.7976	0.085
Mof_C 	C 	0.0079	0.7566	0.8827	-0.419
Mof_C 	C 	0.0999	0.9125	0.8574	-0.018
Mof_H 	H 	0.0931	0.9274	0.8357	0.052
Mof_C 	C 	0.0074	0.819	0.7755	0.271
Mof_O 	O 	0.0126	0.6379	0.8542	-0.223
Mof_C 	C 	0.0073	0.7245	0.8186	0.295
Mof_C 	C 	0.003	0.7545	0.9264	0.409
Mof_C 	C 	0.0417	0.6547	0.8685	0.211
Mof_O 	O 	0.0393	0.7242	0.8007	-0.395
Mof_C 	C 	0.0028	0.9265	0.7454	0.421
Mof_O 	O 	0.0089	0.944	0.7136	-0.422
Mof_O 	O 	0.0395	0.80079	0.7758	-0.386
Mof_O 	O 	0.9927	0.723	0.9421	-0.365
Mof_C 	C 	0.008	0.7167	0.8625	0.022
Mof_O 	O 	0.9925	0.942	0.777	-0.368
Mof_H 	H 	0.0623	0.7046	0.884	0.131
Mof_H 	H 	0.0331	0.77	0.8776	0.166
Mof_H 	H 	0.9877	0.773	0.8718	0.21
Mof_H 	H 	0.9845	0.7023	0.8698	0.09
Mof_O 	O 	0.0128	0.3537	0.3622	-0.224
Mof_O 	O 	0.9741	0.305	0.2661	-0.358
Mof_C 	C 	0.0875	0.0999	0.3577	-0.018
Mof_H 	H 	0.0723	0.093	0.3363	0.049
Mof_C 	C 	0.0082	0.3828	0.2432	-0.45
Mof_H 	H 	0.0329	0.3772	0.2304	0.182
Mof_H 	H 	0.9875	0.3716	0.2274	0.217
Mof_N 	N 	0.0415	0.1938	0.3745	-0.211
Mof_O 	O 	0.0088	0.2864	0.4444	-0.43
Mof_C 	C 	0.0773	0.1328	0.3799	-0.05
Mof_C 	C 	0.0773	0.3795	0.3677	-0.048
Mof_O 	O 	0.9749	0.2338	0.3047	-0.372
Mof_C 	C 	0.0419	0.3683	0.3453	0.212
Mof_N 	N 	0.042	0.3746	0.3065	-0.215
Mof_H 	H 	0.0619	0.3854	0.2954	0.133
Mof_C 	C 	0.008	0.363	0.2835	0.037
Mof_H 	H 	0.9841	0.3704	0.2976	0.084
Mof_C 	C 	0.0079	0.2566	0.3827	-0.423
Mof_C 	C 	0.0999	0.4125	0.3574	-0.018
Mof_H 	H 	0.0931	0.4274	0.3357	0.05
Mof_C 	C 	0.0074	0.319	0.2755	0.27
Mof_O 	O 	0.0126	0.1379	0.3542	-0.226
Mof_C 	C 	0.0073	0.2245	0.3186	0.295
Mof_C 	C 	0.003	0.2545	0.4264	0.413
Mof_C 	C 	0.0417	0.1547	0.3685	0.211
Mof_O 	O 	0.0393	0.2242	0.3007	-0.395
Mof_C 	C 	0.0028	0.4265	0.2454	0.425
Mof_O 	O 	0.0089	0.444	0.2136	-0.433
Mof_O 	O 	0.0395	0.30079	0.2758	-0.386
Mof_O 	O 	0.9927	0.223	0.4421	-0.376
Mof_C 	C 	0.008	0.2167	0.3625	0.023
Mof_O 	O 	0.9925	0.442	0.277	-0.379
Mof_H 	H 	0.0623	0.2046	0.384	0.131
Mof_H 	H 	0.0331	0.27	0.3776	0.167
Mof_H 	H 	0.9877	0.273	0.3718	0.211
Mof_H 	H 	0.9845	0.2023	0.3698	0.088
Mof_O 	O 	0.5128	0.8537	0.3622	-0.211
Mof_O 	O 	0.4741	0.805	0.2661	-0.382
Mof_C 	C 	0.5875	0.5999	0.3577	-0.018
Mof_H 	H 	0.5723	0.593	0.3363	0.052
Mof_C 	C 	0.5082	0.8828	0.2432	-0.406
Mof_H 	H 	0.5329	0.8772	0.2304	0.17
Mof_H 	H 	0.4875	0.8716	0.2274	0.183
Mof_N 	N 	0.5415	0.6938	0.3745	-0.212
Mof_O 	O 	0.5088	0.7864	0.4444	-0.427
Mof_C 	C 	0.5773	0.6328	0.3799	-0.047
Mof_C 	C 	0.5773	0.8795	0.3677	-0.045
Mof_O 	O 	0.4749	0.7338	0.3047	-0.398
Mof_C 	C 	0.5419	0.8683	0.3453	0.214
Mof_N 	N 	0.542	0.8746	0.3065	-0.216
Mof_H 	H 	0.5619	0.8854	0.2954	0.133
Mof_C 	C 	0.508	0.863	0.2835	0.057
Mof_H 	H 	0.4841	0.8704	0.2976	0.06
Mof_C 	C 	0.5079	0.7566	0.3827	-0.383
Mof_C 	C 	0.5999	0.9125	0.3574	-0.018
Mof_H 	H 	0.5931	0.9274	0.3357	0.052
Mof_C 	C 	0.5074	0.819	0.2755	0.299
Mof_O 	O 	0.5126	0.6379	0.3542	-0.213
Mof_C 	C 	0.5073	0.7245	0.3186	0.325
Mof_C 	C 	0.503	0.7545	0.4264	0.438
Mof_C 	C 	0.5417	0.6547	0.3685	0.212
Mof_O 	O 	0.5393	0.7242	0.3007	-0.4
Mof_C 	C 	0.5028	0.9265	0.2454	0.447
Mof_O 	O 	0.5089	0.944	0.2136	-0.421
Mof_O 	O 	0.5395	0.80079	0.2758	-0.39
Mof_O 	O 	0.4927	0.723	0.4421	-0.41
Mof_C 	C 	0.508	0.7167	0.3625	0.044
Mof_O 	O 	0.4925	0.942	0.277	-0.402
Mof_H 	H 	0.5623	0.7046	0.384	0.131
Mof_H 	H 	0.5331	0.77	0.3776	0.157
Mof_H 	H 	0.4877	0.773	0.3718	0.177
Mof_H 	H 	0.4845	0.7023	0.3698	0.063
Mof_O 	O 	0.5128	0.3537	0.8622	-0.211
Mof_O 	O 	0.4741	0.305	0.7661	-0.382
Mof_C 	C 	0.5875	0.0999	0.8577	-0.019
Mof_H 	H 	0.5723	0.093	0.8363	0.051
Mof_C 	C 	0.5082	0.3828	0.7432	-0.409
Mof_H 	H 	0.5329	0.3772	0.7304	0.171
Mof_H 	H 	0.4875	0.3716	0.7274	0.184
Mof_N 	N 	0.5415	0.1938	0.8745	-0.211
Mof_O 	O 	0.5088	0.2864	0.9444	-0.417
Mof_C 	C 	0.5773	0.1328	0.8799	-0.047
Mof_C 	C 	0.5773	0.3795	0.8677	-0.045
Mof_O 	O 	0.4749	0.2338	0.8047	-0.397
Mof_C 	C 	0.5419	0.3683	0.8453	0.214
Mof_N 	N 	0.542	0.3746	0.8065	-0.216
Mof_H 	H 	0.5619	0.3854	0.7954	0.133
Mof_C 	C 	0.508	0.363	0.7835	0.058
Mof_H 	H 	0.4841	0.3704	0.7976	0.059
Mof_C 	C 	0.5079	0.2566	0.8827	-0.38
Mof_C 	C 	0.5999	0.4125	0.8574	-0.018
Mof_H 	H 	0.5931	0.4274	0.8357	0.051
Mof_C 	C 	0.5074	0.319	0.7755	0.299
Mof_O 	O 	0.5126	0.1379	0.8542	-0.213
Mof_C 	C 	0.5073	0.2245	0.8186	0.326
Mof_C 	C 	0.503	0.2545	0.9264	0.435
Mof_C 	C 	0.5417	0.1547	0.8685	0.212
Mof_O 	O 	0.5393	0.2242	0.8007	-0.4
Mof_C 	C 	0.5028	0.4265	0.7454	0.45
Mof_O 	O 	0.5089	0.444	0.7136	-0.431
Mof_O 	O 	0.5395	0.30079	0.7758	-0.39
Mof_O 	O 	0.4927	0.223	0.9421	-0.399
Mof_C 	C 	0.508	0.2167	0.8625	0.043
Mof_O 	O 	0.4925	0.442	0.777	-0.412
Mof_H 	H 	0.5623	0.2046	0.884	0.131
Mof_H 	H 	0.5331	0.27	0.8776	0.156
Mof_H 	H 	0.4877	0.273	0.8718	0.177
Mof_H 	H 	0.4845	0.2023	0.8698	0.064
Mof_O 	O 	0.0128	0.1463	0.1378	-0.227
Mof_O 	O 	0.9741	0.195	0.2339	-0.359
Mof_C 	C 	0.0875	0.4001	0.1423	-0.018
Mof_H 	H 	0.0723	0.407	0.1637	0.05
Mof_C 	C 	0.0082	0.1172	0.2568	-0.452
Mof_H 	H 	0.0329	0.1228	0.2696	0.183
Mof_H 	H 	0.9875	0.1284	0.2726	0.217
Mof_N 	N 	0.0415	0.3062	0.1255	-0.211
Mof_O 	O 	0.0088	0.2136	0.0556	-0.435
Mof_C 	C 	0.0773	0.3672	0.1201	-0.05
Mof_C 	C 	0.0773	0.1205	0.1323	-0.051
Mof_O 	O 	0.9749	0.2662	0.1953	-0.373
Mof_C 	C 	0.0419	0.1317	0.1547	0.212
Mof_N 	N 	0.042	0.1254	0.1935	-0.216
Mof_H 	H 	0.0619	0.1146	0.2046	0.133
Mof_C 	C 	0.008	0.137	0.2165	0.038
Mof_H 	H 	0.9841	0.1296	0.2024	0.082
Mof_C 	C 	0.0079	0.2434	0.1173	-0.424
Mof_C 	C 	0.0999	0.0875	0.1426	-0.018
Mof_H 	H 	0.0931	0.0726	0.1643	0.048
Mof_C 	C 	0.0074	0.181	0.2245	0.27
Mof_O 	O 	0.0126	0.3621	0.1458	-0.226
Mof_C 	C 	0.0073	0.2755	0.1814	0.295
Mof_C 	C 	0.003	0.2455	0.0736	0.415
Mof_C 	C 	0.0417	0.3453	0.1315	0.21
Mof_O 	O 	0.0393	0.2758	0.1993	-0.395
Mof_C 	C 	0.0028	0.0735	0.2546	0.427
Mof_O 	O 	0.0089	0.056	0.2864	-0.438
Mof_O 	O 	0.0395	0.19921	0.2242	-0.386
Mof_O 	O 	0.9927	0.277	0.0579	-0.381
Mof_C 	C 	0.008	0.2833	0.1375	0.024
Mof_O 	O 	0.9925	0.058	0.223	-0.385
Mof_H 	H 	0.0623	0.2954	0.116	0.131
Mof_H 	H 	0.0331	0.23	0.1224	0.167
Mof_H 	H 	0.9877	0.227	0.1282	0.21
Mof_H 	H 	0.9845	0.2977	0.1302	0.087
Mof_O 	O 	0.0128	0.6463	0.6378	-0.224
Mof_O 	O 	0.9741	0.695	0.7339	-0.358
Mof_C 	C 	0.0875	0.9001	0.6423	-0.018
Mof_H 	H 	0.0723	0.907	0.6637	0.052
Mof_C 	C 	0.0082	0.6172	0.7568	-0.45
Mof_H 	H 	0.0329	0.6228	0.7696	0.182
Mof_H 	H 	0.9875	0.6284	0.7726	0.217
Mof_N 	N 	0.0415	0.8062	0.6255	-0.211
Mof_O 	O 	0.0088	0.7136	0.5556	-0.43
Mof_C 	C 	0.0773	0.8672	0.6201	-0.047
Mof_C 	C 	0.0773	0.6205	0.6323	-0.048
Mof_O 	O 	0.9749	0.7662	0.6953	-0.372
Mof_C 	C 	0.0419	0.6317	0.6547	0.212
Mof_N 	N 	0.042	0.6254	0.6935	-0.215
Mof_H 	H 	0.0619	0.6146	0.7046	0.133
Mof_C 	C 	0.008	0.637	0.7165	0.037
Mof_H 	H 	0.9841	0.6296	0.7024	0.083
Mof_C 	C 	0.0079	0.7434	0.6173	-0.422
Mof_C 	C 	0.0999	0.5875	0.6426	-0.018
Mof_H 	H 	0.0931	0.5726	0.6643	0.05
Mof_C 	C 	0.0074	0.681	0.7245	0.27
Mof_O 	O 	0.0126	0.8621	0.6458	-0.222
Mof_C 	C 	0.0073	0.7755	0.6814	0.295
Mof_C 	C 	0.003	0.7455	0.5736	0.413
Mof_C 	C 	0.0417	0.8453	0.6315	0.21
Mof_O 	O 	0.0393	0.7758	0.6993	-0.395
Mof_C 	C 	0.0028	0.5735	0.7546	0.425
Mof_O 	O 	0.0089	0.556	0.7864	-0.432
Mof_O 	O 	0.0395	0.69921	0.7242	-0.386
Mof_O 	O 	0.9927	0.777	0.5579	-0.375
Mof_C 	C 	0.008	0.7833	0.6375	0.023
Mof_O 	O 	0.9925	0.558	0.723	-0.379
Mof_H 	H 	0.0623	0.7954	0.616	0.131
Mof_H 	H 	0.0331	0.73	0.6224	0.167
Mof_H 	H 	0.9877	0.727	0.6282	0.21
Mof_H 	H 	0.9845	0.7977	0.6302	0.089
Mof_O 	O 	0.5128	0.1463	0.6378	-0.214
Mof_O 	O 	0.4741	0.195	0.7339	-0.383
Mof_C 	C 	0.5875	0.4001	0.6423	-0.018
Mof_H 	H 	0.5723	0.407	0.6637	0.052
Mof_C 	C 	0.5082	0.1172	0.7568	-0.411
Mof_H 	H 	0.5329	0.1228	0.7696	0.172
Mof_H 	H 	0.4875	0.1284	0.7726	0.184
Mof_N 	N 	0.5415	0.3062	0.6255	-0.212
Mof_O 	O 	0.5088	0.2136	0.5556	-0.428
Mof_C 	C 	0.5773	0.3672	0.6201	-0.047
Mof_C 	C 	0.5773	0.1205	0.6323	-0.048
Mof_O 	O 	0.4749	0.2662	0.6953	-0.398
Mof_C 	C 	0.5419	0.1317	0.6547	0.213
Mof_N 	N 	0.542	0.1254	0.6935	-0.217
Mof_H 	H 	0.5619	0.1146	0.7046	0.133
Mof_C 	C 	0.508	0.137	0.7165	0.059
Mof_H 	H 	0.4841	0.1296	0.7024	0.057
Mof_C 	C 	0.5079	0.2434	0.6173	-0.383
Mof_C 	C 	0.5999	0.0875	0.6426	-0.018
Mof_H 	H 	0.5931	0.0726	0.6643	0.05
Mof_C 	C 	0.5074	0.181	0.7245	0.299
Mof_O 	O 	0.5126	0.3621	0.6458	-0.213
Mof_C 	C 	0.5073	0.2755	0.6814	0.326
Mof_C 	C 	0.503	0.2455	0.5736	0.439
Mof_C 	C 	0.5417	0.3453	0.6315	0.212
Mof_O 	O 	0.5393	0.2758	0.6993	-0.4
Mof_C 	C 	0.5028	0.0735	0.7546	0.452
Mof_O 	O 	0.5089	0.056	0.7864	-0.435
Mof_O 	O 	0.5395	0.19921	0.7242	-0.39
Mof_O 	O 	0.4927	0.277	0.5579	-0.41
Mof_C 	C 	0.508	0.2833	0.6375	0.044
Mof_O 	O 	0.4925	0.058	0.723	-0.418
Mof_H 	H 	0.5623	0.2954	0.616	0.131
Mof_H 	H 	0.5331	0.23	0.6224	0.157
Mof_H 	H 	0.4877	0.227	0.6282	0.177
Mof_H 	H 	0.4845	0.2977	0.6302	0.063
Mof_O 	O 	0.5128	0.6463	0.1378	-0.215
Mof_O 	O 	0.4741	0.695	0.2339	-0.382
Mof_C 	C 	0.5875	0.9001	0.1423	-0.018
Mof_H 	H 	0.5723	0.907	0.1637	0.053
Mof_C 	C 	0.5082	0.6172	0.2568	-0.41
Mof_H 	H 	0.5329	0.6228	0.2696	0.171
Mof_H 	H 	0.4875	0.6284	0.2726	0.184
Mof_N 	N 	0.5415	0.8062	0.1255	-0.212
Mof_O 	O 	0.5088	0.7136	0.0556	-0.432
Mof_C 	C 	0.5773	0.8672	0.1201	-0.047
Mof_C 	C 	0.5773	0.6205	0.1323	-0.048
Mof_O 	O 	0.4749	0.7662	0.1953	-0.398
Mof_C 	C 	0.5419	0.6317	0.1547	0.214
Mof_N 	N 	0.542	0.6254	0.1935	-0.216
Mof_H 	H 	0.5619	0.6146	0.2046	0.133
Mof_C 	C 	0.508	0.637	0.2165	0.058
Mof_H 	H 	0.4841	0.6296	0.2024	0.058
Mof_C 	C 	0.5079	0.7434	0.1173	-0.384
Mof_C 	C 	0.5999	0.5875	0.1426	-0.018
Mof_H 	H 	0.5931	0.5726	0.1643	0.051
Mof_C 	C 	0.5074	0.681	0.2245	0.299
Mof_O 	O 	0.5126	0.8621	0.1458	-0.212
Mof_C 	C 	0.5073	0.7755	0.1814	0.325
Mof_C 	C 	0.503	0.7455	0.0736	0.44
Mof_C 	C 	0.5417	0.8453	0.1315	0.211
Mof_O 	O 	0.5393	0.7758	0.1993	-0.4
Mof_C 	C 	0.5028	0.5735	0.2546	0.451
Mof_O 	O 	0.5089	0.556	0.2864	-0.431
Mof_O 	O 	0.5395	0.69921	0.2242	-0.39
Mof_O 	O 	0.4927	0.777	0.0579	-0.414
Mof_C 	C 	0.508	0.7833	0.1375	0.044
Mof_O 	O 	0.4925	0.558	0.223	-0.413
Mof_H 	H 	0.5623	0.7954	0.116	0.131
Mof_H 	H 	0.5331	0.73	0.1224	0.157
Mof_H 	H 	0.4877	0.727	0.1282	0.177
Mof_H 	H 	0.4845	0.7977	0.1302	0.062
Mof_O 	O 	0.8622	0.9872	0.1463	-0.2
Mof_O 	O 	0.7661	0.0259	0.195	-0.406
Mof_C 	C 	0.8577	0.9125	0.4001	-0.018
Mof_H 	H 	0.8363	0.9277	0.407	0.054
Mof_C 	C 	0.7432	0.9918	0.1172	-0.369
Mof_H 	H 	0.7304	0.9671	0.1228	0.16
Mof_H 	H 	0.7274	0.0125	0.1284	0.15
Mof_N 	N 	0.8745	0.9585	0.3062	-0.212
Mof_O 	O 	0.9444	0.9912	0.2136	-0.409
Mof_C 	C 	0.8799	0.9227	0.3672	-0.043
Mof_C 	C 	0.8677	0.9227	0.1205	-0.044
Mof_O 	O 	0.8047	0.0251	0.2662	-0.423
Mof_C 	C 	0.8453	0.9581	0.1317	0.215
Mof_N 	N 	0.8065	0.958	0.1254	-0.217
Mof_H 	H 	0.7954	0.9381	0.1146	0.133
Mof_C 	C 	0.7835	0.992	0.137	0.079
Mof_H 	H 	0.7976	0.0159	0.1296	0.032
Mof_C 	C 	0.8827	0.9921	0.2434	-0.338
Mof_C 	C 	0.8574	0.9001	0.0875	-0.018
Mof_H 	H 	0.8357	0.9069	0.0726	0.052
Mof_C 	C 	0.7755	0.9926	0.181	0.328
Mof_O 	O 	0.8542	0.9874	0.3621	-0.199
Mof_C 	C 	0.8186	0.9927	0.2755	0.357
Mof_C 	C 	0.9264	0.997	0.2455	0.458
Mof_C 	C 	0.8685	0.9583	0.3453	0.214
Mof_O 	O 	0.8007	0.9607	0.2758	-0.405
Mof_C 	C 	0.7454	0.9972	0.0735	0.475
Mof_O 	O 	0.7136	0.9911	0.056	-0.427
Mof_O 	O 	0.7758	0.9605	0.19921	-0.394
Mof_O 	O 	0.9421	0.0073	0.277	-0.426
Mof_C 	C 	0.8625	0.992	0.2833	0.063
Mof_O 	O 	0.777	0.0075	0.058	-0.445
Mof_H 	H 	0.884	0.9377	0.2954	0.131
Mof_H 	H 	0.8776	0.9669	0.23	0.145
Mof_H 	H 	0.8718	0.0123	0.227	0.143
Mof_H 	H 	0.8698	0.0155	0.2977	0.039
Mof_O 	O 	0.8622	0.4872	0.6463	-0.211
Mof_O 	O 	0.7661	0.5259	0.695	-0.382
Mof_C 	C 	0.8577	0.4125	0.9001	-0.018
Mof_H 	H 	0.8363	0.4277	0.907	0.054
Mof_C 	C 	0.7432	0.4918	0.6172	-0.409
Mof_H 	H 	0.7304	0.4671	0.6228	0.171
Mof_H 	H 	0.7274	0.5125	0.6284	0.184
Mof_N 	N 	0.8745	0.4585	0.8062	-0.211
Mof_O 	O 	0.9444	0.4912	0.7136	-0.417
Mof_C 	C 	0.8799	0.4227	0.8672	-0.044
Mof_C 	C 	0.8677	0.4227	0.6205	-0.045
Mof_O 	O 	0.8047	0.5251	0.7662	-0.397
Mof_C 	C 	0.8453	0.4581	0.6317	0.214
Mof_N 	N 	0.8065	0.458	0.6254	-0.216
Mof_H 	H 	0.7954	0.4381	0.6146	0.133
Mof_C 	C 	0.7835	0.492	0.637	0.058
Mof_H 	H 	0.7976	0.5159	0.6296	0.059
Mof_C 	C 	0.8827	0.4921	0.7434	-0.379
Mof_C 	C 	0.8574	0.4001	0.5875	-0.018
Mof_H 	H 	0.8357	0.4069	0.5726	0.051
Mof_C 	C 	0.7755	0.4926	0.681	0.299
Mof_O 	O 	0.8542	0.4874	0.8621	-0.209
Mof_C 	C 	0.8186	0.4927	0.7755	0.326
Mof_C 	C 	0.9264	0.497	0.7455	0.434
Mof_C 	C 	0.8685	0.4583	0.8453	0.212
Mof_O 	O 	0.8007	0.4607	0.7758	-0.4
Mof_C 	C 	0.7454	0.4972	0.5735	0.45
Mof_O 	O 	0.7136	0.4911	0.556	-0.431
Mof_O 	O 	0.7758	0.4605	0.69921	-0.39
Mof_O 	O 	0.9421	0.5073	0.777	-0.398
Mof_C 	C 	0.8625	0.492	0.7833	0.042
Mof_O 	O 	0.777	0.5075	0.558	-0.412
Mof_H 	H 	0.884	0.4377	0.7954	0.131
Mof_H 	H 	0.8776	0.4669	0.73	0.156
Mof_H 	H 	0.8718	0.5123	0.727	0.177
Mof_H 	H 	0.8698	0.5155	0.7977	0.065
Mof_O 	O 	0.3622	0.9872	0.6463	-0.201
Mof_O 	O 	0.2661	0.0259	0.695	-0.406
Mof_C 	C 	0.3577	0.9125	0.9001	-0.018
Mof_H 	H 	0.3363	0.9277	0.907	0.055
Mof_C 	C 	0.2432	0.9918	0.6172	-0.368
Mof_H 	H 	0.2304	0.9671	0.6228	0.16
Mof_H 	H 	0.2274	0.0125	0.6284	0.15
Mof_N 	N 	0.3745	0.9585	0.8062	-0.212
Mof_O 	O 	0.4444	0.9912	0.7136	-0.419
Mof_C 	C 	0.3799	0.9227	0.8672	-0.043
Mof_C 	C 	0.3677	0.9227	0.6205	-0.044
Mof_O 	O 	0.3047	0.0251	0.7662	-0.423
Mof_C 	C 	0.3453	0.9581	0.6317	0.215
Mof_N 	N 	0.3065	0.958	0.6254	-0.217
Mof_H 	H 	0.2954	0.9381	0.6146	0.133
Mof_C 	C 	0.2835	0.992	0.637	0.079
Mof_H 	H 	0.2976	0.0159	0.6296	0.033
Mof_C 	C 	0.3827	0.9921	0.7434	-0.341
Mof_C 	C 	0.3574	0.9001	0.5875	-0.018
Mof_H 	H 	0.3357	0.9069	0.5726	0.052
Mof_C 	C 	0.2755	0.9926	0.681	0.328
Mof_O 	O 	0.3542	0.9874	0.8621	-0.199
Mof_C 	C 	0.3186	0.9927	0.7755	0.357
Mof_C 	C 	0.4264	0.997	0.7455	0.462
Mof_C 	C 	0.3685	0.9583	0.8453	0.213
Mof_O 	O 	0.3007	0.9607	0.7758	-0.405
Mof_C 	C 	0.2454	0.9972	0.5735	0.474
Mof_O 	O 	0.2136	0.9911	0.556	-0.423
Mof_O 	O 	0.2758	0.9605	0.69921	-0.394
Mof_O 	O 	0.4421	0.0073	0.777	-0.437
Mof_C 	C 	0.3625	0.992	0.7833	0.064
Mof_O 	O 	0.277	0.0075	0.558	-0.441
Mof_H 	H 	0.384	0.9377	0.7954	0.131
Mof_H 	H 	0.3776	0.9669	0.73	0.146
Mof_H 	H 	0.3718	0.0123	0.727	0.143
Mof_H 	H 	0.3698	0.0155	0.7977	0.038
Mof_O 	O 	0.3622	0.4872	0.1463	-0.214
Mof_O 	O 	0.2661	0.5259	0.195	-0.383
Mof_C 	C 	0.3577	0.4125	0.4001	-0.018
Mof_H 	H 	0.3363	0.4277	0.407	0.052
Mof_C 	C 	0.2432	0.4918	0.1172	-0.411
Mof_H 	H 	0.2304	0.4671	0.1228	0.172
Mof_H 	H 	0.2274	0.5125	0.1284	0.183
Mof_N 	N 	0.3745	0.4585	0.3062	-0.212
Mof_O 	O 	0.4444	0.4912	0.2136	-0.428
Mof_C 	C 	0.3799	0.4227	0.3672	-0.047
Mof_C 	C 	0.3677	0.4227	0.1205	-0.047
Mof_O 	O 	0.3047	0.5251	0.2662	-0.398
Mof_C 	C 	0.3453	0.4581	0.1317	0.214
Mof_N 	N 	0.3065	0.458	0.1254	-0.217
Mof_H 	H 	0.2954	0.4381	0.1146	0.133
Mof_C 	C 	0.2835	0.492	0.137	0.059
Mof_H 	H 	0.2976	0.5159	0.1296	0.057
Mof_C 	C 	0.3827	0.4921	0.2434	-0.383
Mof_C 	C 	0.3574	0.4001	0.0875	-0.018
Mof_H 	H 	0.3357	0.4069	0.0726	0.05
Mof_C 	C 	0.2755	0.4926	0.181	0.299
Mof_O 	O 	0.3542	0.4874	0.3621	-0.213
Mof_C 	C 	0.3186	0.4927	0.2755	0.326
Mof_C 	C 	0.4264	0.497	0.2455	0.439
Mof_C 	C 	0.3685	0.4583	0.3453	0.212
Mof_O 	O 	0.3007	0.4607	0.2758	-0.4
Mof_C 	C 	0.2454	0.4972	0.0735	0.452
Mof_O 	O 	0.2136	0.4911	0.056	-0.436
Mof_O 	O 	0.2758	0.4605	0.19921	-0.39
Mof_O 	O 	0.4421	0.5073	0.277	-0.41
Mof_C 	C 	0.3625	0.492	0.2833	0.044
Mof_O 	O 	0.277	0.5075	0.058	-0.418
Mof_H 	H 	0.384	0.4377	0.2954	0.131
Mof_H 	H 	0.3776	0.4669	0.23	0.157
Mof_H 	H 	0.3718	0.5123	0.227	0.177
Mof_H 	H 	0.3698	0.5155	0.2977	0.063
Mof_O 	O 	0.1378	0.9872	0.8537	-0.201
Mof_O 	O 	0.2339	0.0259	0.805	-0.406
Mof_C 	C 	0.1423	0.9125	0.5999	-0.018
Mof_H 	H 	0.1637	0.9277	0.593	0.053
Mof_C 	C 	0.2568	0.9918	0.8828	-0.365
Mof_H 	H 	0.2696	0.9671	0.8772	0.159
Mof_H 	H 	0.2726	0.0125	0.8716	0.15
Mof_N 	N 	0.1255	0.9585	0.6938	-0.213
Mof_O 	O 	0.0556	0.9912	0.7864	-0.423
Mof_C 	C 	0.1201	0.9227	0.6328	-0.046
Mof_C 	C 	0.1323	0.9227	0.8795	-0.044
Mof_O 	O 	0.1953	0.0251	0.7338	-0.423
Mof_C 	C 	0.1547	0.9581	0.8683	0.216
Mof_N 	N 	0.1935	0.958	0.8746	-0.217
Mof_H 	H 	0.2046	0.9381	0.8854	0.133
Mof_C 	C 	0.2165	0.992	0.863	0.078
Mof_H 	H 	0.2024	0.0159	0.8704	0.034
Mof_C 	C 	0.1173	0.9921	0.7566	-0.343
Mof_C 	C 	0.1426	0.9001	0.9125	-0.018
Mof_H 	H 	0.1643	0.9069	0.9274	0.054
Mof_C 	C 	0.2245	0.9926	0.819	0.328
Mof_O 	O 	0.1458	0.9874	0.6379	-0.203
Mof_C 	C 	0.1814	0.9927	0.7245	0.356
Mof_C 	C 	0.0736	0.997	0.7545	0.464
Mof_C 	C 	0.1315	0.9583	0.6547	0.213
Mof_O 	O 	0.1993	0.9607	0.7242	-0.404
Mof_C 	C 	0.2546	0.9972	0.9265	0.47
Mof_O 	O 	0.2864	0.9911	0.944	-0.412
Mof_O 	O 	0.2242	0.9605	0.80079	-0.394
Mof_O 	O 	0.0579	0.0073	0.723	-0.443
Mof_C 	C 	0.1375	0.992	0.7167	0.065
Mof_O 	O 	0.223	0.0075	0.942	-0.43
Mof_H 	H 	0.116	0.9377	0.7046	0.131
Mof_H 	H 	0.1224	0.9669	0.77	0.146
Mof_H 	H 	0.1282	0.0123	0.773	0.143
Mof_H 	H 	0.1302	0.0155	0.7023	0.036
Mof_O 	O 	0.1378	0.4872	0.3537	-0.214
Mof_O 	O 	0.2339	0.5259	0.305	-0.382
Mof_C 	C 	0.1423	0.4125	0.0999	-0.018
Mof_H 	H 	0.1637	0.4277	0.093	0.05
Mof_C 	C 	0.2568	0.4918	0.3828	-0.41
Mof_H 	H 	0.2696	0.4671	0.3772	0.171
Mof_H 	H 	0.2726	0.5125	0.3716	0.184
Mof_N 	N 	0.1255	0.4585	0.1938	-0.212
Mof_O 	O 	0.0556	0.4912	0.2864	-0.432
Mof_C 	C 	0.1201	0.4227	0.1328	-0.049
Mof_C 	C 	0.1323	0.4227	0.3795	-0.047
Mof_O 	O 	0.1953	0.5251	0.2338	-0.398
Mof_C 	C 	0.1547	0.4581	0.3683	0.214
Mof_N 	N 	0.1935	0.458	0.3746	-0.216
Mof_H 	H 	0.2046	0.4381	0.3854	0.133
Mof_C 	C 	0.2165	0.492	0.363	0.059
Mof_H 	H 	0.2024	0.5159	0.3704	0.057
Mof_C 	C 	0.1173	0.4921	0.2566	-0.385
Mof_C 	C 	0.1426	0.4001	0.4125	-0.018
Mof_H 	H 	0.1643	0.4069	0.4274	0.051
Mof_C 	C 	0.2245	0.4926	0.319	0.299
Mof_O 	O 	0.1458	0.4874	0.1379	-0.216
Mof_C 	C 	0.1814	0.4927	0.2245	0.325
Mof_C 	C 	0.0736	0.497	0.2545	0.44
Mof_C 	C 	0.1315	0.4583	0.1547	0.212
Mof_O 	O 	0.1993	0.4607	0.2242	-0.399
Mof_C 	C 	0.2546	0.4972	0.4265	0.451
Mof_O 	O 	0.2864	0.4911	0.444	-0.431
Mof_O 	O 	0.2242	0.4605	0.30079	-0.39
Mof_O 	O 	0.0579	0.5073	0.223	-0.416
Mof_C 	C 	0.1375	0.492	0.2167	0.045
Mof_O 	O 	0.223	0.5075	0.442	-0.413
Mof_H 	H 	0.116	0.4377	0.2046	0.131
Mof_H 	H 	0.1224	0.4669	0.27	0.157
Mof_H 	H 	0.1282	0.5123	0.273	0.177
Mof_H 	H 	0.1302	0.5155	0.2023	0.061
Mof_O 	O 	0.6378	0.9872	0.3537	-0.201
Mof_O 	O 	0.7339	0.0259	0.305	-0.406
Mof_C 	C 	0.6423	0.9125	0.0999	-0.018
Mof_H 	H 	0.6637	0.9277	0.093	0.052
Mof_C 	C 	0.7568	0.9918	0.3828	-0.368
Mof_H 	H 	0.7696	0.9671	0.3772	0.16
Mof_H 	H 	0.7726	0.0125	0.3716	0.15
Mof_N 	N 	0.6255	0.9585	0.1938	-0.213
Mof_O 	O 	0.5556	0.9912	0.2864	-0.419
Mof_C 	C 	0.6201	0.9227	0.1328	-0.046
Mof_C 	C 	0.6323	0.9227	0.3795	-0.044
Mof_O 	O 	0.6953	0.0251	0.2338	-0.423
Mof_C 	C 	0.6547	0.9581	0.3683	0.215
Mof_N 	N 	0.6935	0.958	0.3746	-0.217
Mof_H 	H 	0.7046	0.9381	0.3854	0.133
Mof_C 	C 	0.7165	0.992	0.363	0.079
Mof_H 	H 	0.7024	0.0159	0.3704	0.033
Mof_C 	C 	0.6173	0.9921	0.2566	-0.342
Mof_C 	C 	0.6426	0.9001	0.4125	-0.018
Mof_H 	H 	0.6643	0.9069	0.4274	0.052
Mof_C 	C 	0.7245	0.9926	0.319	0.328
Mof_O 	O 	0.6458	0.9874	0.1379	-0.203
Mof_C 	C 	0.6814	0.9927	0.2245	0.356
Mof_C 	C 	0.5736	0.997	0.2545	0.462
Mof_C 	C 	0.6315	0.9583	0.1547	0.214
Mof_O 	O 	0.6993	0.9607	0.2242	-0.405
Mof_C 	C 	0.7546	0.9972	0.4265	0.474
Mof_O 	O 	0.7864	0.9911	0.444	-0.422
Mof_O 	O 	0.7242	0.9605	0.30079	-0.394
Mof_O 	O 	0.5579	0.0073	0.223	-0.438
Mof_C 	C 	0.6375	0.992	0.2167	0.065
Mof_O 	O 	0.723	0.0075	0.442	-0.441
Mof_H 	H 	0.616	0.9377	0.2046	0.131
Mof_H 	H 	0.6224	0.9669	0.27	0.146
Mof_H 	H 	0.6282	0.0123	0.273	0.143
Mof_H 	H 	0.6302	0.0155	0.2023	0.037
Mof_O 	O 	0.6378	0.4872	0.8537	-0.211
Mof_O 	O 	0.7339	0.5259	0.805	-0.382
Mof_C 	C 	0.6423	0.4125	0.5999	-0.018
Mof_H 	H 	0.6637	0.4277	0.593	0.052
Mof_C 	C 	0.7568	0.4918	0.8828	-0.407
Mof_H 	H 	0.7696	0.4671	0.8772	0.17
Mof_H 	H 	0.7726	0.5125	0.8716	0.184
Mof_N 	N 	0.6255	0.4585	0.6938	-0.212
Mof_O 	O 	0.5556	0.4912	0.7864	-0.427
Mof_C 	C 	0.6201	0.4227	0.6328	-0.047
Mof_C 	C 	0.6323	0.4227	0.8795	-0.045
Mof_O 	O 	0.6953	0.5251	0.7338	-0.397
Mof_C 	C 	0.6547	0.4581	0.8683	0.214
Mof_N 	N 	0.6935	0.458	0.8746	-0.216
Mof_H 	H 	0.7046	0.4381	0.8854	0.133
Mof_C 	C 	0.7165	0.492	0.863	0.057
Mof_H 	H 	0.7024	0.5159	0.8704	0.06
Mof_C 	C 	0.6173	0.4921	0.7566	-0.383
Mof_C 	C 	0.6426	0.4001	0.9125	-0.018
Mof_H 	H 	0.6643	0.4069	0.9274	0.052
Mof_C 	C 	0.7245	0.4926	0.819	0.299
Mof_O 	O 	0.6458	0.4874	0.6379	-0.213
Mof_C 	C 	0.6814	0.4927	0.7245	0.325
Mof_C 	C 	0.5736	0.497	0.7545	0.438
Mof_C 	C 	0.6315	0.4583	0.6547	0.212
Mof_O 	O 	0.6993	0.4607	0.7242	-0.4
Mof_C 	C 	0.7546	0.4972	0.9265	0.447
Mof_O 	O 	0.7864	0.4911	0.944	-0.419
Mof_O 	O 	0.7242	0.4605	0.80079	-0.39
Mof_O 	O 	0.5579	0.5073	0.723	-0.41
Mof_C 	C 	0.6375	0.492	0.7167	0.044
Mof_O 	O 	0.723	0.5075	0.942	-0.402
Mof_H 	H 	0.616	0.4377	0.7046	0.131
Mof_H 	H 	0.6224	0.4669	0.77	0.157
Mof_H 	H 	0.6282	0.5123	0.773	0.177
Mof_H 	H 	0.6302	0.5155	0.7023	0.063
Mof_O 	O 	0.8622	0.0128	0.8537	-0.22
Mof_O 	O 	0.7661	0.9741	0.805	-0.358
Mof_C 	C 	0.8577	0.0875	0.5999	-0.018
Mof_H 	H 	0.8363	0.0723	0.593	0.051
Mof_C 	C 	0.7432	0.0082	0.8828	-0.446
Mof_H 	H 	0.7304	0.0329	0.8772	0.181
Mof_H 	H 	0.7274	0.9875	0.8716	0.217
Mof_N 	N 	0.8745	0.0415	0.6938	-0.21
Mof_O 	O 	0.9444	0.0088	0.7864	-0.418
Mof_C 	C 	0.8799	0.0773	0.6328	-0.047
Mof_C 	C 	0.8677	0.0773	0.8795	-0.045
Mof_O 	O 	0.8047	0.9749	0.7338	-0.372
Mof_C 	C 	0.8453	0.0419	0.8683	0.212
Mof_N 	N 	0.8065	0.042	0.8746	-0.215
Mof_H 	H 	0.7954	0.0619	0.8854	0.133
Mof_C 	C 	0.7835	0.008	0.863	0.036
Mof_H 	H 	0.7976	0.9841	0.8704	0.085
Mof_C 	C 	0.8827	0.0079	0.7566	-0.419
Mof_C 	C 	0.8574	0.0999	0.9125	-0.018
Mof_H 	H 	0.8357	0.0931	0.9274	0.052
Mof_C 	C 	0.7755	0.0074	0.819	0.271
Mof_O 	O 	0.8542	0.0126	0.6379	-0.223
Mof_C 	C 	0.8186	0.0073	0.7245	0.295
Mof_C 	C 	0.9264	0.003	0.7545	0.409
Mof_C 	C 	0.8685	0.0417	0.6547	0.211
Mof_O 	O 	0.8007	0.0393	0.7242	-0.395
Mof_C 	C 	0.7454	0.0028	0.9265	0.421
Mof_O 	O 	0.7136	0.0089	0.944	-0.422
Mof_O 	O 	0.7758	0.0395	0.80079	-0.386
Mof_O 	O 	0.9421	0.9927	0.723	-0.365
Mof_C 	C 	0.8625	0.008	0.7167	0.022
Mof_O 	O 	0.777	0.9925	0.942	-0.368
Mof_H 	H 	0.884	0.0623	0.7046	0.131
Mof_H 	H 	0.8776	0.0331	0.77	0.166
Mof_H 	H 	0.8718	0.9877	0.773	0.21
Mof_H 	H 	0.8698	0.9845	0.7023	0.09
Mof_O 	O 	0.8622	0.5128	0.3537	-0.211
Mof_O 	O 	0.7661	0.4741	0.305	-0.382
Mof_C 	C 	0.8577	0.5875	0.0999	-0.019
Mof_H 	H 	0.8363	0.5723	0.093	0.051
Mof_C 	C 	0.7432	0.5082	0.3828	-0.409
Mof_H 	H 	0.7304	0.5329	0.3772	0.171
Mof_H 	H 	0.7274	0.4875	0.3716	0.184
Mof_N 	N 	0.8745	0.5415	0.1938	-0.211
Mof_O 	O 	0.9444	0.5088	0.2864	-0.417
Mof_C 	C 	0.8799	0.5773	0.1328	-0.047
Mof_C 	C 	0.8677	0.5773	0.3795	-0.045
Mof_O 	O 	0.8047	0.4749	0.2338	-0.397
Mof_C 	C 	0.8453	0.5419	0.3683	0.214
Mof_N 	N 	0.8065	0.542	0.3746	-0.216
Mof_H 	H 	0.7954	0.5619	0.3854	0.133
Mof_C 	C 	0.7835	0.508	0.363	0.058
Mof_H 	H 	0.7976	0.4841	0.3704	0.059
Mof_C 	C 	0.8827	0.5079	0.2566	-0.38
Mof_C 	C 	0.8574	0.5999	0.4125	-0.018
Mof_H 	H 	0.8357	0.5931	0.4274	0.051
Mof_C 	C 	0.7755	0.5074	0.319	0.299
Mof_O 	O 	0.8542	0.5126	0.1379	-0.213
Mof_C 	C 	0.8186	0.5073	0.2245	0.326
Mof_C 	C 	0.9264	0.503	0.2545	0.435
Mof_C 	C 	0.8685	0.5417	0.1547	0.212
Mof_O 	O 	0.8007	0.5393	0.2242	-0.4
Mof_C 	C 	0.7454	0.5028	0.4265	0.45
Mof_O 	O 	0.7136	0.5089	0.444	-0.431
Mof_O 	O 	0.7758	0.5395	0.30079	-0.39
Mof_O 	O 	0.9421	0.4927	0.223	-0.399
Mof_C 	C 	0.8625	0.508	0.2167	0.043
Mof_O 	O 	0.777	0.4925	0.442	-0.412
Mof_H 	H 	0.884	0.5623	0.2046	0.131
Mof_H 	H 	0.8776	0.5331	0.27	0.156
Mof_H 	H 	0.8718	0.4877	0.273	0.177
Mof_H 	H 	0.8698	0.4845	0.2023	0.064
Mof_O 	O 	0.3622	0.0128	0.3537	-0.224
Mof_O 	O 	0.2661	0.9741	0.305	-0.358
Mof_C 	C 	0.3577	0.0875	0.0999	-0.018
Mof_H 	H 	0.3363	0.0723	0.093	0.049
Mof_C 	C 	0.2432	0.0082	0.3828	-0.45
Mof_H 	H 	0.2304	0.0329	0.3772	0.182
Mof_H 	H 	0.2274	0.9875	0.3716	0.217
Mof_N 	N 	0.3745	0.0415	0.1938	-0.211
Mof_O 	O 	0.4444	0.0088	0.2864	-0.43
Mof_C 	C 	0.3799	0.0773	0.1328	-0.05
Mof_C 	C 	0.3677	0.0773	0.3795	-0.048
Mof_O 	O 	0.3047	0.9749	0.2338	-0.372
Mof_C 	C 	0.3453	0.0419	0.3683	0.212
Mof_N 	N 	0.3065	0.042	0.3746	-0.215
Mof_H 	H 	0.2954	0.0619	0.3854	0.133
Mof_C 	C 	0.2835	0.008	0.363	0.037
Mof_H 	H 	0.2976	0.9841	0.3704	0.084
Mof_C 	C 	0.3827	0.0079	0.2566	-0.423
Mof_C 	C 	0.3574	0.0999	0.4125	-0.018
Mof_H 	H 	0.3357	0.0931	0.4274	0.05
Mof_C 	C 	0.2755	0.0074	0.319	0.27
Mof_O 	O 	0.3542	0.0126	0.1379	-0.226
Mof_C 	C 	0.3186	0.0073	0.2245	0.295
Mof_C 	C 	0.4264	0.003	0.2545	0.413
Mof_C 	C 	0.3685	0.0417	0.1547	0.211
Mof_O 	O 	0.3007	0.0393	0.2242	-0.395
Mof_C 	C 	0.2454	0.0028	0.4265	0.425
Mof_O 	O 	0.2136	0.0089	0.444	-0.433
Mof_O 	O 	0.2758	0.0395	0.30079	-0.386
Mof_O 	O 	0.4421	0.9927	0.223	-0.376
Mof_C 	C 	0.3625	0.008	0.2167	0.023
Mof_O 	O 	0.277	0.9925	0.442	-0.379
Mof_H 	H 	0.384	0.0623	0.2046	0.131
Mof_H 	H 	0.3776	0.0331	0.27	0.167
Mof_H 	H 	0.3718	0.9877	0.273	0.211
Mof_H 	H 	0.3698	0.9845	0.2023	0.088
Mof_O 	O 	0.3622	0.5128	0.8537	-0.211
Mof_O 	O 	0.2661	0.4741	0.805	-0.382
Mof_C 	C 	0.3577	0.5875	0.5999	-0.018
Mof_H 	H 	0.3363	0.5723	0.593	0.052
Mof_C 	C 	0.2432	0.5082	0.8828	-0.406
Mof_H 	H 	0.2304	0.5329	0.8772	0.17
Mof_H 	H 	0.2274	0.4875	0.8716	0.183
Mof_N 	N 	0.3745	0.5415	0.6938	-0.212
Mof_O 	O 	0.4444	0.5088	0.7864	-0.427
Mof_C 	C 	0.3799	0.5773	0.6328	-0.047
Mof_C 	C 	0.3677	0.5773	0.8795	-0.045
Mof_O 	O 	0.3047	0.4749	0.7338	-0.398
Mof_C 	C 	0.3453	0.5419	0.8683	0.214
Mof_N 	N 	0.3065	0.542	0.8746	-0.216
Mof_H 	H 	0.2954	0.5619	0.8854	0.133
Mof_C 	C 	0.2835	0.508	0.863	0.057
Mof_H 	H 	0.2976	0.4841	0.8704	0.06
Mof_C 	C 	0.3827	0.5079	0.7566	-0.383
Mof_C 	C 	0.3574	0.5999	0.9125	-0.018
Mof_H 	H 	0.3357	0.5931	0.9274	0.052
Mof_C 	C 	0.2755	0.5074	0.819	0.299
Mof_O 	O 	0.3542	0.5126	0.6379	-0.213
Mof_C 	C 	0.3186	0.5073	0.7245	0.325
Mof_C 	C 	0.4264	0.503	0.7545	0.438
Mof_C 	C 	0.3685	0.5417	0.6547	0.212
Mof_O 	O 	0.3007	0.5393	0.7242	-0.4
Mof_C 	C 	0.2454	0.5028	0.9265	0.447
Mof_O 	O 	0.2136	0.5089	0.944	-0.421
Mof_O 	O 	0.2758	0.5395	0.80079	-0.39
Mof_O 	O 	0.4421	0.4927	0.723	-0.41
Mof_C 	C 	0.3625	0.508	0.7167	0.044
Mof_O 	O 	0.277	0.4925	0.942	-0.402
Mof_H 	H 	0.384	0.5623	0.7046	0.131
Mof_H 	H 	0.3776	0.5331	0.77	0.157
Mof_H 	H 	0.3718	0.4877	0.773	0.177
Mof_H 	H 	0.3698	0.4845	0.7023	0.063
Mof_O 	O 	0.1378	0.0128	0.1463	-0.227
Mof_O 	O 	0.2339	0.9741	0.195	-0.359
Mof_C 	C 	0.1423	0.0875	0.4001	-0.018
Mof_H 	H 	0.1637	0.0723	0.407	0.05
Mof_C 	C 	0.2568	0.0082	0.1172	-0.452
Mof_H 	H 	0.2696	0.0329	0.1228	0.183
Mof_H 	H 	0.2726	0.9875	0.1284	0.217
Mof_N 	N 	0.1255	0.0415	0.3062	-0.211
Mof_O 	O 	0.0556	0.0088	0.2136	-0.435
Mof_C 	C 	0.1201	0.0773	0.3672	-0.05
Mof_C 	C 	0.1323	0.0773	0.1205	-0.051
Mof_O 	O 	0.1953	0.9749	0.2662	-0.373
Mof_C 	C 	0.1547	0.0419	0.1317	0.212
Mof_N 	N 	0.1935	0.042	0.1254	-0.216
Mof_H 	H 	0.2046	0.0619	0.1146	0.133
Mof_C 	C 	0.2165	0.008	0.137	0.038
Mof_H 	H 	0.2024	0.9841	0.1296	0.082
Mof_C 	C 	0.1173	0.0079	0.2434	-0.424
Mof_C 	C 	0.1426	0.0999	0.0875	-0.018
Mof_H 	H 	0.1643	0.0931	0.0726	0.048
Mof_C 	C 	0.2245	0.0074	0.181	0.27
Mof_O 	O 	0.1458	0.0126	0.3621	-0.226
Mof_C 	C 	0.1814	0.0073	0.2755	0.295
Mof_C 	C 	0.0736	0.003	0.2455	0.415
Mof_C 	C 	0.1315	0.0417	0.3453	0.21
Mof_O 	O 	0.1993	0.0393	0.2758	-0.395
Mof_C 	C 	0.2546	0.0028	0.0735	0.427
Mof_O 	O 	0.2864	0.0089	0.056	-0.438
Mof_O 	O 	0.2242	0.0395	0.19921	-0.386
Mof_O 	O 	0.0579	0.9927	0.277	-0.381
Mof_C 	C 	0.1375	0.008	0.2833	0.024
Mof_O 	O 	0.223	0.9925	0.058	-0.385
Mof_H 	H 	0.116	0.0623	0.2954	0.131
Mof_H 	H 	0.1224	0.0331	0.23	0.167
Mof_H 	H 	0.1282	0.9877	0.227	0.21
Mof_H 	H 	0.1302	0.9845	0.2977	0.087
Mof_O 	O 	0.1378	0.5128	0.6463	-0.215
Mof_O 	O 	0.2339	0.4741	0.695	-0.382
Mof_C 	C 	0.1423	0.5875	0.9001	-0.018
Mof_H 	H 	0.1637	0.5723	0.907	0.053
Mof_C 	C 	0.2568	0.5082	0.6172	-0.41
Mof_H 	H 	0.2696	0.5329	0.6228	0.171
Mof_H 	H 	0.2726	0.4875	0.6284	0.184
Mof_N 	N 	0.1255	0.5415	0.8062	-0.212
Mof_O 	O 	0.0556	0.5088	0.7136	-0.432
Mof_C 	C 	0.1201	0.5773	0.8672	-0.047
Mof_C 	C 	0.1323	0.5773	0.6205	-0.048
Mof_O 	O 	0.1953	0.4749	0.7662	-0.398
Mof_C 	C 	0.1547	0.5419	0.6317	0.214
Mof_N 	N 	0.1935	0.542	0.6254	-0.216
Mof_H 	H 	0.2046	0.5619	0.6146	0.133
Mof_C 	C 	0.2165	0.508	0.637	0.058
Mof_H 	H 	0.2024	0.4841	0.6296	0.058
Mof_C 	C 	0.1173	0.5079	0.7434	-0.384
Mof_C 	C 	0.1426	0.5999	0.5875	-0.018
Mof_H 	H 	0.1643	0.5931	0.5726	0.051
Mof_C 	C 	0.2245	0.5074	0.681	0.299
Mof_O 	O 	0.1458	0.5126	0.8621	-0.212
Mof_C 	C 	0.1814	0.5073	0.7755	0.325
Mof_C 	C 	0.0736	0.503	0.7455	0.44
Mof_C 	C 	0.1315	0.5417	0.8453	0.211
Mof_O 	O 	0.1993	0.5393	0.7758	-0.4
Mof_C 	C 	0.2546	0.5028	0.5735	0.451
Mof_O 	O 	0.2864	0.5089	0.556	-0.431
Mof_O 	O 	0.2242	0.5395	0.69921	-0.39
Mof_O 	O 	0.0579	0.4927	0.777	-0.414
Mof_C 	C 	0.1375	0.508	0.7833	0.044
Mof_O 	O 	0.223	0.4925	0.558	-0.413
Mof_H 	H 	0.116	0.5623	0.7954	0.131
Mof_H 	H 	0.1224	0.5331	0.73	0.157
Mof_H 	H 	0.1282	0.4877	0.727	0.177
Mof_H 	H 	0.1302	0.4845	0.7977	0.062
Mof_O 	O 	0.6378	0.0128	0.6463	-0.224
Mof_O 	O 	0.7339	0.9741	0.695	-0.358
Mof_C 	C 	0.6423	0.0875	0.9001	-0.018
Mof_H 	H 	0.6637	0.0723	0.907	0.052
Mof_C 	C 	0.7568	0.0082	0.6172	-0.45
Mof_H 	H 	0.7696	0.0329	0.6228	0.182
Mof_H 	H 	0.7726	0.9875	0.6284	0.217
Mof_N 	N 	0.6255	0.0415	0.8062	-0.211
Mof_O 	O 	0.5556	0.0088	0.7136	-0.43
Mof_C 	C 	0.6201	0.0773	0.8672	-0.047
Mof_C 	C 	0.6323	0.0773	0.6205	-0.048
Mof_O 	O 	0.6953	0.9749	0.7662	-0.372
Mof_C 	C 	0.6547	0.0419	0.6317	0.212
Mof_N 	N 	0.6935	0.042	0.6254	-0.215
Mof_H 	H 	0.7046	0.0619	0.6146	0.133
Mof_C 	C 	0.7165	0.008	0.637	0.037
Mof_H 	H 	0.7024	0.9841	0.6296	0.083
Mof_C 	C 	0.6173	0.0079	0.7434	-0.422
Mof_C 	C 	0.6426	0.0999	0.5875	-0.018
Mof_H 	H 	0.6643	0.0931	0.5726	0.05
Mof_C 	C 	0.7245	0.0074	0.681	0.27
Mof_O 	O 	0.6458	0.0126	0.8621	-0.222
Mof_C 	C 	0.6814	0.0073	0.7755	0.295
Mof_C 	C 	0.5736	0.003	0.7455	0.413
Mof_C 	C 	0.6315	0.0417	0.8453	0.21
Mof_O 	O 	0.6993	0.0393	0.7758	-0.395
Mof_C 	C 	0.7546	0.0028	0.5735	0.425
Mof_O 	O 	0.7864	0.0089	0.556	-0.432
Mof_O 	O 	0.7242	0.0395	0.69921	-0.386
Mof_O 	O 	0.5579	0.9927	0.777	-0.375
Mof_C 	C 	0.6375	0.008	0.7833	0.023
Mof_O 	O 	0.723	0.9925	0.558	-0.379
Mof_H 	H 	0.616	0.0623	0.7954	0.131
Mof_H 	H 	0.6224	0.0331	0.73	0.167
Mof_H 	H 	0.6282	0.9877	0.727	0.21
Mof_H 	H 	0.6302	0.9845	0.7977	0.089
Mof_O 	O 	0.6378	0.5128	0.1463	-0.214
Mof_O 	O 	0.7339	0.4741	0.195	-0.383
Mof_C 	C 	0.6423	0.5875	0.4001	-0.018
Mof_H 	H 	0.6637	0.5723	0.407	0.052
Mof_C 	C 	0.7568	0.5082	0.1172	-0.411
Mof_H 	H 	0.7696	0.5329	0.1228	0.172
Mof_H 	H 	0.7726	0.4875	0.1284	0.184
Mof_N 	N 	0.6255	0.5415	0.3062	-0.212
Mof_O 	O 	0.5556	0.5088	0.2136	-0.428
Mof_C 	C 	0.6201	0.5773	0.3672	-0.047
Mof_C 	C 	0.6323	0.5773	0.1205	-0.048
Mof_O 	O 	0.6953	0.4749	0.2662	-0.398
Mof_C 	C 	0.6547	0.5419	0.1317	0.213
Mof_N 	N 	0.6935	0.542	0.1254	-0.217
Mof_H 	H 	0.7046	0.5619	0.1146	0.133
Mof_C 	C 	0.7165	0.508	0.137	0.059
Mof_H 	H 	0.7024	0.4841	0.1296	0.057
Mof_C 	C 	0.6173	0.5079	0.2434	-0.383
Mof_C 	C 	0.6426	0.5999	0.0875	-0.018
Mof_H 	H 	0.6643	0.5931	0.0726	0.05
Mof_C 	C 	0.7245	0.5074	0.181	0.299
Mof_O 	O 	0.6458	0.5126	0.3621	-0.213
Mof_C 	C 	0.6814	0.5073	0.2755	0.326
Mof_C 	C 	0.5736	0.503	0.2455	0.439
Mof_C 	C 	0.6315	0.5417	0.3453	0.212
Mof_O 	O 	0.6993	0.5393	0.2758	-0.4
Mof_C 	C 	0.7546	0.5028	0.0735	0.452
Mof_O 	O 	0.7864	0.5089	0.056	-0.435
Mof_O 	O 	0.7242	0.5395	0.19921	-0.39
Mof_O 	O 	0.5579	0.4927	0.277	-0.41
Mof_C 	C 	0.6375	0.508	0.2833	0.044
Mof_O 	O 	0.723	0.4925	0.058	-0.418
Mof_H 	H 	0.616	0.5623	0.2954	0.131
Mof_H 	H 	0.6224	0.5331	0.23	0.157
Mof_H 	H 	0.6282	0.4877	0.227	0.177
Mof_H 	H 	0.6302	0.4845	0.2977	0.063
Mof_Cu	Cu	0.25	0.75	0.95473	0.905
Mof_Cu	Cu	0.25	0.75	0.03162	0.9
Mof_Cu	Cu	0.25	0.25	0.45473	0.9
Mof_Cu	Cu	0.25	0.25	0.53162	0.903
Mof_Cu	Cu	0.75	0.25	0.95473	0.905
Mof_Cu	Cu	0.75	0.25	0.03162	0.9
Mof_Cu	Cu	0.75	0.75	0.45473	0.9
Mof_Cu	Cu	0.75	0.75	0.53162	0.903
Mof_Cu	Cu	0.75	0.75	0.04527	0.896
Mof_Cu	Cu	0.75	0.75	0.96838	0.905
Mof_Cu	Cu	0.75	0.25	0.54527	0.9
Mof_Cu	Cu	0.75	0.25	0.46838	0.903
Mof_Cu	Cu	0.25	0.25	0.04527	0.896
Mof_Cu	Cu	0.25	0.25	0.96838	0.905
Mof_Cu	Cu	0.25	0.75	0.54527	0.9
Mof_Cu	Cu	0.25	0.75	0.46838	0.903
Mof_Cu	Cu	0.95473	0.25	0.75	0.905
Mof_Cu	Cu	0.03162	0.25	0.75	0.9
Mof_Cu	Cu	0.45473	0.25	0.25	0.9
Mof_Cu	Cu	0.53162	0.25	0.25	0.903
Mof_Cu	Cu	0.95473	0.75	0.25	0.905
Mof_Cu	Cu	0.03162	0.75	0.25	0.9
Mof_Cu	Cu	0.45473	0.75	0.75	0.9
Mof_Cu	Cu	0.53162	0.75	0.75	0.903
Mof_Cu	Cu	0.04527	0.75	0.75	0.896
Mof_Cu	Cu	0.96838	0.75	0.75	0.905
Mof_Cu	Cu	0.54527	0.75	0.25	0.9
Mof_Cu	Cu	0.46838	0.75	0.25	0.903
Mof_Cu	Cu	0.04527	0.25	0.25	0.896
Mof_Cu	Cu	0.96838	0.25	0.25	0.905
Mof_Cu	Cu	0.54527	0.25	0.75	0.9
Mof_Cu	Cu	0.46838	0.25	0.75	0.903
Mof_Cu	Cu	0.75	0.95473	0.25	0.905
Mof_Cu	Cu	0.75	0.03162	0.25	0.9
Mof_Cu	Cu	0.75	0.45473	0.75	0.9
Mof_Cu	Cu	0.75	0.53162	0.75	0.903
Mof_Cu	Cu	0.25	0.95473	0.75	0.905
Mof_Cu	Cu	0.25	0.03162	0.75	0.9
Mof_Cu	Cu	0.25	0.45473	0.25	0.9
Mof_Cu	Cu	0.25	0.53162	0.25	0.903
Mof_Cu	Cu	0.75	0.04527	0.75	0.896
Mof_Cu	Cu	0.75	0.96838	0.75	0.905
Mof_Cu	Cu	0.75	0.54527	0.25	0.9
Mof_Cu	Cu	0.75	0.46838	0.25	0.903
Mof_Cu	Cu	0.25	0.04527	0.25	0.896
Mof_Cu	Cu	0.25	0.96838	0.25	0.905
Mof_Cu	Cu	0.25	0.54527	0.75	0.9
Mof_Cu	Cu	0.25	0.46838	0.75	0.903
Mof_Cu	Cu	0.2892	0	-0	0.882
Mof_Cu	Cu	0.21095	0	-0	0.883
Mof_Cu	Cu	0.2892	0.5	0.5	0.906
Mof_Cu	Cu	0.21095	0.5	0.5	0.907
Mof_Cu	Cu	0.7892	0	0.5	0.895
Mof_Cu	Cu	0.71095	0	0.5	0.895
Mof_Cu	Cu	0.7892	0.5	-0	0.895
Mof_Cu	Cu	0.71095	0.5	-0	0.895
Mof_Cu	Cu	0.7108	0	-0	0.882
Mof_Cu	Cu	0.78905	0	-0	0.884
Mof_Cu	Cu	0.7108	0.5	0.5	0.906
Mof_Cu	Cu	0.78905	0.5	0.5	0.908
Mof_Cu	Cu	0.2108	0	0.5	0.894
Mof_Cu	Cu	0.28905	0	0.5	0.895
Mof_Cu	Cu	0.2108	0.5	-0	0.894
Mof_Cu	Cu	0.28905	0.5	-0	0.895
Mof_Cu	Cu	-0	0.2892	-0	0.882
Mof_Cu	Cu	-0	0.21095	-0	0.883
Mof_Cu	Cu	-3.18622e-33	0.7892	0.5	0.895
Mof_Cu	Cu	6.93562e-33	0.71095	0.5	0.895
Mof_Cu	Cu	0.5	0.2892	0.5	0.906
Mof_Cu	Cu	0.5	0.21095	0.5	0.907
Mof_Cu	Cu	0.5	0.7892	-0	0.895
Mof_Cu	Cu	0.5	0.71095	-0	0.895
Mof_Cu	Cu	-5.06092e-33	0.7108	-0	0.882
Mof_Cu	Cu	1.01218e-32	0.78905	-0	0.884
Mof_Cu	Cu	6.93562e-33	0.2108	0.5	0.894
Mof_Cu	Cu	-3.18622e-33	0.28905	0.5	0.895
Mof_Cu	Cu	0.5	0.7108	0.5	0.906
Mof_Cu	Cu	0.5	0.78905	0.5	0.908
Mof_Cu	Cu	0.5	0.2108	-0	0.894
Mof_Cu	Cu	0.5	0.28905	-0	0.895
Mof_Cu	Cu	1.08433e-33	0	0.2892	0.882
Mof_Cu	Cu	7.90936e-34	0	0.21095	0.883
Mof_Cu	Cu	2.95903e-33	0.5	0.7892	0.895
Mof_Cu	Cu	7.72655e-33	0.5	0.71095	0.895
Mof_Cu	Cu	0.5	0	0.7892	0.895
Mof_Cu	Cu	0.5	0	0.71095	0.895
Mof_Cu	Cu	0.5	0.5	0.2892	0.906
Mof_Cu	Cu	0.5	0.5	0.21095	0.907
Mof_Cu	Cu	-7.45676e-33	-5.06092e-33	0.7108	0.882
Mof_Cu	Cu	1.30803e-32	1.01218e-32	0.78905	0.884
Mof_Cu	Cu	3.32083e-33	0.5	0.2108	0.894
Mof_Cu	Cu	1.08376e-33	0.5	0.28905	0.895
Mof_Cu	Cu	0.5	0	0.2108	0.894
Mof_Cu	Cu	0.5	2.53046e-33	0.28905	0.895
Mof_Cu	Cu	0.5	0.5	0.7108	0.906
Mof_Cu	Cu	0.5	0.5	0.78905	0.908
_end
