data_functionalizedCrystal
_audit_creation_method	'EQeq! by Chris Wilmer'
_symmetry_space_group_name_H-M	'P1'
_symmetry_Int_Tables_number	1
_symmetry_cell_setting	triclinic
loop_
_symmetry_equiv_pos_as_xyz
  x,y,z
_cell_length_a	17.993
_cell_length_b	7.2497
_cell_length_c	11.5979
_cell_angle_alpha	90
_cell_angle_beta	90
_cell_angle_gamma	90
loop_
_atom_site_label
_atom_site_type_symbol
_atom_site_fract_x
_atom_site_fract_y
_atom_site_fract_z
_atom_site_charge
Mof_O 	O 	0.58268	0.0958	0.39725	-0.705
Mof_C 	C 	0.71653	0.087	0.2791	3.44
Mof_N 	N 	0.6901	0.9161	0.3231	6.729
Mof_O 	O 	0.6461	0.8416	0.2558	-1.009
Mof_O 	O 	0.715	0.8507	0.4127	-1.459
Mof_H 	H 	0.5939	0.6567	0.1928	1.12
Mof_H 	H 	0.5272	0.7298	0.1542	0.311
Mof_H 	H 	0.6939	0.9729	0.299	-7.094
Mof_O 	O 	0.08268	0.5958	0.89725	-0.681
Mof_C 	C 	0.21653	0.587	0.7791	3.549
Mof_N 	N 	0.1901	0.4161	0.8231	6.792
Mof_O 	O 	0.1461	0.3416	0.7558	-1
Mof_O 	O 	0.215	0.3507	0.9127	-1.393
Mof_H 	H 	0.0939	0.1567	0.6928	1.192
Mof_H 	H 	0.0272	0.2298	0.6542	0.304
Mof_H 	H 	0.1939	0.4729	0.799	-7.197
Mof_O 	O 	0.41732	0.4042	0.39725	-0.708
Mof_C 	C 	0.28347	0.413	0.2791	3.396
Mof_N 	N 	0.3099	0.5839	0.3231	6.599
Mof_O 	O 	0.3539	0.6584	0.2558	-0.992
Mof_O 	O 	0.285	0.6493	0.4127	-1.424
Mof_H 	H 	0.4061	0.8433	0.1928	1.132
Mof_H 	H 	0.4728	0.7702	0.1542	0.308
Mof_H 	H 	0.3061	0.5271	0.299	-6.966
Mof_O 	O 	0.91732	0.9042	0.89725	-0.689
Mof_C 	C 	0.78347	0.913	0.7791	3.979
Mof_N 	N 	0.8099	0.0839	0.8231	7.925
Mof_O 	O 	0.8539	0.1584	0.7558	-1.143
Mof_O 	O 	0.785	0.1493	0.9127	-1.659
Mof_H 	H 	0.9061	0.3433	0.6928	1.199
Mof_H 	H 	0.9728	0.2702	0.6542	0.357
Mof_H 	H 	0.8061	0.0271	0.799	-8.314
Mof_O 	O 	0.41732	0.5958	0.60275	-0.731
Mof_C 	C 	0.28347	0.587	0.7209	3.535
Mof_N 	N 	0.3099	0.4161	0.6769	6.794
Mof_O 	O 	0.3539	0.3416	0.7442	-1.005
Mof_O 	O 	0.285	0.3507	0.5873	-1.443
Mof_H 	H 	0.4061	0.1567	0.8072	1.247
Mof_H 	H 	0.4728	0.2298	0.8458	0.341
Mof_H 	H 	0.3061	0.4729	0.701	-7.194
Mof_O 	O 	0.91732	0.0958	0.10275	-0.719
Mof_C 	C 	0.78347	0.087	0.2209	3.448
Mof_N 	N 	0.8099	0.9161	0.1769	6.76
Mof_O 	O 	0.8539	0.8416	0.2442	-1.013
Mof_O 	O 	0.785	0.8507	0.0873	-1.496
Mof_H 	H 	0.9061	0.6567	0.3072	1.172
Mof_H 	H 	0.9728	0.7298	0.3458	0.346
Mof_H 	H 	0.8061	0.9729	0.201	-7.118
Mof_O 	O 	0.58268	0.9042	0.60275	-0.749
Mof_C 	C 	0.71653	0.913	0.7209	3.949
Mof_N 	N 	0.6901	0.0839	0.6769	7.886
Mof_O 	O 	0.6461	0.1584	0.7442	-1.138
Mof_O 	O 	0.715	0.1493	0.5873	-1.707
Mof_H 	H 	0.5939	0.3433	0.8072	1.205
Mof_H 	H 	0.5272	0.2702	0.8458	0.349
Mof_H 	H 	0.6939	0.0271	0.701	-8.275
Mof_O 	O 	0.08268	0.4042	0.10275	-0.745
Mof_C 	C 	0.21653	0.413	0.2209	3.386
Mof_N 	N 	0.1901	0.5839	0.1769	6.59
Mof_O 	O 	0.1461	0.6584	0.2442	-0.988
Mof_O 	O 	0.215	0.6493	0.0873	-1.464
Mof_H 	H 	0.0939	0.8433	0.3072	1.136
Mof_H 	H 	0.0272	0.7702	0.3458	0.298
Mof_H 	H 	0.1939	0.5271	0.201	-6.956
Mof_O 	O 	0.41732	0.9042	0.60275	-0.748
Mof_C 	C 	0.28347	0.913	0.7209	3.932
Mof_N 	N 	0.3099	0.0839	0.6769	7.846
Mof_O 	O 	0.3539	0.1584	0.7442	-1.133
Mof_O 	O 	0.285	0.1493	0.5873	-1.7
Mof_H 	H 	0.4061	0.3433	0.8072	1.205
Mof_H 	H 	0.4728	0.2702	0.8458	0.349
Mof_H 	H 	0.3061	0.0271	0.701	-8.235
Mof_O 	O 	0.91732	0.4042	0.10275	-0.712
Mof_C 	C 	0.78347	0.413	0.2209	3.376
Mof_N 	N 	0.8099	0.5839	0.1769	6.577
Mof_O 	O 	0.8539	0.6584	0.2442	-0.991
Mof_O 	O 	0.785	0.6493	0.0873	-1.46
Mof_H 	H 	0.9061	0.8433	0.3072	1.178
Mof_H 	H 	0.9728	0.7702	0.3458	0.348
Mof_H 	H 	0.8061	0.5271	0.201	-6.938
Mof_O 	O 	0.58268	0.5958	0.60275	-0.731
Mof_C 	C 	0.71653	0.587	0.7209	3.534
Mof_N 	N 	0.6901	0.4161	0.6769	6.785
Mof_O 	O 	0.6461	0.3416	0.7442	-1.004
Mof_O 	O 	0.715	0.3507	0.5873	-1.439
Mof_H 	H 	0.5939	0.1567	0.8072	1.248
Mof_H 	H 	0.5272	0.2298	0.8458	0.341
Mof_H 	H 	0.6939	0.4729	0.701	-7.187
Mof_O 	O 	0.08268	0.0958	0.10275	-0.753
Mof_C 	C 	0.21653	0.087	0.2209	3.48
Mof_N 	N 	0.1901	0.9161	0.1769	6.83
Mof_O 	O 	0.1461	0.8416	0.2442	-1.016
Mof_O 	O 	0.215	0.8507	0.0873	-1.513
Mof_H 	H 	0.0939	0.6567	0.3072	1.128
Mof_H 	H 	0.0272	0.7298	0.3458	0.296
Mof_H 	H 	0.1939	0.9729	0.201	-7.191
Mof_O 	O 	0.58268	0.4042	0.39725	-0.706
Mof_C 	C 	0.71653	0.413	0.2791	3.387
Mof_N 	N 	0.6901	0.5839	0.3231	6.583
Mof_O 	O 	0.6461	0.6584	0.2558	-0.991
Mof_O 	O 	0.715	0.6493	0.4127	-1.42
Mof_H 	H 	0.5939	0.8433	0.1928	1.128
Mof_H 	H 	0.5272	0.7702	0.1542	0.306
Mof_H 	H 	0.6939	0.5271	0.299	-6.948
Mof_O 	O 	0.08268	0.9042	0.89725	-0.708
Mof_C 	C 	0.21653	0.913	0.7791	3.963
Mof_N 	N 	0.1901	0.0839	0.8231	7.881
Mof_O 	O 	0.1461	0.1584	0.7558	-1.133
Mof_O 	O 	0.215	0.1493	0.9127	-1.647
Mof_H 	H 	0.0939	0.3433	0.6928	1.152
Mof_H 	H 	0.0272	0.2702	0.6542	0.306
Mof_H 	H 	0.1939	0.0271	0.799	-8.272
Mof_O 	O 	0.41732	0.0958	0.39725	-0.707
Mof_C 	C 	0.28347	0.087	0.2791	3.47
Mof_N 	N 	0.3099	0.9161	0.3231	6.799
Mof_O 	O 	0.3539	0.8416	0.2558	-1.017
Mof_O 	O 	0.285	0.8507	0.4127	-1.475
Mof_H 	H 	0.4061	0.6567	0.1928	1.123
Mof_H 	H 	0.4728	0.7298	0.1542	0.312
Mof_H 	H 	0.3061	0.9729	0.299	-7.165
Mof_O 	O 	0.91732	0.5958	0.89725	-0.66
Mof_C 	C 	0.78347	0.587	0.7791	3.545
Mof_N 	N 	0.8099	0.4161	0.8231	6.784
Mof_O 	O 	0.8539	0.3416	0.7558	-1.004
Mof_O 	O 	0.785	0.3507	0.9127	-1.392
Mof_H 	H 	0.9061	0.1567	0.6928	1.241
Mof_H 	H 	0.9728	0.2298	0.6542	0.355
Mof_H 	H 	0.8061	0.4729	0.799	-7.188
Mof_Co	Co	0.5	0	0.5	1.252
Mof_Co	Co	-0	0.5	-0	1.164
Mof_Co	Co	0.5	0.5	0.5	1.244
Mof_Co	Co	-0	0	-0	1.154
Mof_C 	C 	0.6096	0.25	0.3737	1.49
Mof_C 	C 	0.6819	0.25	0.3091	-2.69
Mof_H 	H 	0.5446	0.25	0.6593	0.33
Mof_C 	C 	0.1096	0.75	0.8737	1.597
Mof_C 	C 	0.1819	0.75	0.8091	-2.942
Mof_H 	H 	0.0446	0.75	0.1593	0.332
Mof_C 	C 	0.3904	0.25	0.3737	1.497
Mof_C 	C 	0.3181	0.25	0.3091	-2.707
Mof_H 	H 	0.4554	0.25	0.6593	0.33
Mof_C 	C 	0.8904	0.75	0.8737	1.597
Mof_C 	C 	0.8181	0.75	0.8091	-2.944
Mof_H 	H 	0.9554	0.75	0.1593	0.371
Mof_C 	C 	0.3904	0.75	0.6263	1.599
Mof_C 	C 	0.3181	0.75	0.6909	-2.936
Mof_H 	H 	0.4554	0.75	0.3407	0.322
Mof_C 	C 	0.8904	0.25	0.1263	1.479
Mof_C 	C 	0.8181	0.25	0.1909	-2.699
Mof_H 	H 	0.9554	0.25	0.8407	0.364
Mof_C 	C 	0.6096	0.75	0.6263	1.601
Mof_C 	C 	0.6819	0.75	0.6909	-2.943
Mof_H 	H 	0.5446	0.75	0.3407	0.322
Mof_C 	C 	0.1096	0.25	0.1263	1.489
Mof_C 	C 	0.1819	0.25	0.1909	-2.722
Mof_H 	H 	0.0446	0.25	0.8407	0.329
Mof_O 	O 	0.5	0.25	0.6092	-0.666
Mof_O 	O 	-2.57519e-34	0.75	0.1092	-0.745
Mof_O 	O 	0.5	0.75	0.3908	-0.67
Mof_O 	O 	-6.19004e-33	0.25	0.8908	-0.632
Mof_O 	O 	0.5662	0.75	0.1937	-2.154
Mof_O 	O 	0.0662	0.25	0.6937	-2.196
Mof_O 	O 	0.4338	0.75	0.1937	-2.159
Mof_O 	O 	0.9338	0.25	0.6937	-2.298
Mof_O 	O 	0.4338	0.25	0.8063	-2.287
Mof_O 	O 	0.9338	0.75	0.3063	-2.241
Mof_O 	O 	0.5662	0.25	0.8063	-2.289
Mof_O 	O 	0.0662	0.75	0.3063	-2.147
_end
