data_functionalizedCrystal
_audit_creation_method	'EQeq! by Chris Wilmer'
_symmetry_space_group_name_H-M	'P1'
_symmetry_Int_Tables_number	1
_symmetry_cell_setting	triclinic
loop_
_symmetry_equiv_pos_as_xyz
  x,y,z
_cell_length_a	19.7623
_cell_length_b	21.3747
_cell_length_c	8.369
_cell_angle_alpha	90
_cell_angle_beta	112.171
_cell_angle_gamma	90
loop_
_atom_site_label
_atom_site_type_symbol
_atom_site_fract_x
_atom_site_fract_y
_atom_site_fract_z
_atom_site_charge
Mof_Zn	Zn	0.25861	0.00732	0.40768	1.195
Mof_C 	C 	0.3692	0.0451	0.6902	0.264
Mof_C 	C 	0.4372	0.0446	0.8528	-0.12
Mof_C 	C 	0.4692	0.9884	0.9275	0.044
Mof_H 	H 	0.4483	0.9507	0.8778	0.043
Mof_C 	C 	0.4686	0.0997	0.9283	-0.016
Mof_H 	H 	0.4468	0.1375	0.8813	0.054
Mof_C 	C 	0.1169	0.0215	0.3788	0.325
Mof_C 	C 	0.0578	0.0249	0.4417	-0.085
Mof_C 	C 	0.0709	0.0249	0.6124	-0.017
Mof_H 	H 	0.1191	0.0245	0.6909	0.041
Mof_C 	C 	0.9836	0.0253	0.327	-0.033
Mof_H 	H 	0.9723	0.0258	0.2086	0.052
Mof_C 	C 	0.197	0.8917	0.1934	0.144
Mof_H 	H 	0.1611	0.9137	0.1066	-0.004
Mof_C 	C 	0.263	0.8153	0.3369	0.025
Mof_H 	H 	0.2824	0.7756	0.3718	0.029
Mof_C 	C 	0.286	0.8688	0.4175	-0.005
Mof_H 	H 	0.3254	0.873	0.5219	0.036
Mof_C 	C 	0.1612	0.7869	0.0617	0.247
Mof_C 	C 	0.0935	0.8042	0.9531	-0.287
Mof_H 	H 	0.0742	0.8429	0.9639	0.147
Mof_C 	C 	0.0525	0.761	0.8209	0.233
Mof_C 	C 	0.9602	0.8394	0.6477	0.022
Mof_H 	H 	0.9877	0.8755	0.6858	0.043
Mof_C 	C 	0.8932	0.8365	0.5323	-0.005
Mof_H 	H 	0.8661	0.8707	0.4736	0.053
Mof_C 	C 	0.9269	0.7423	0.6174	0.102
Mof_H 	H 	0.9285	0.6991	0.6304	0.008
Mof_C 	C 	0.0829	0.7065	0.7968	-0.289
Mof_H 	H 	0.0583	0.6805	0.704	0.138
Mof_C 	C 	0.152	0.6909	0.9149	0.238
Mof_C 	C 	0.1864	0.6123	0.7407	0.085
Mof_H 	H 	0.165	0.632	0.6344	0.005
Mof_C 	C 	0.2458	0.5462	0.9444	0.008
Mof_H 	H 	0.2722	0.5113	0.0003	0.015
Mof_C 	C 	0.2229	0.5932	0.0215	0.012
Mof_H 	H 	0.2316	0.5971	0.1383	0.042
Mof_C 	C 	0.1916	0.7301	0.0448	-0.294
Mof_H 	H 	0.2381	0.7189	0.1207	0.146
Mof_N 	N 	0.2438	0.9175	0.3255	-0.249
Mof_N 	N 	0.2047	0.8305	0.1916	-0.169
Mof_N 	N 	0.8681	0.7735	0.51	-0.11
Mof_N 	N 	0.9822	0.7795	0.7021	-0.161
Mof_N 	N 	0.2239	0.5583	0.7723	-0.265
Mof_N 	N 	0.1856	0.6326	0.8955	-0.153
Mof_O 	O 	0.3445	0.9941	0.6203	-0.377
Mof_O 	O 	0.3406	0.0959	0.6364	-0.309
Mof_O 	O 	0.18144	0.0289	0.4882	-0.467
Mof_O 	O 	0.10525	0.0105	0.224	-0.332
Mof_Zn	Zn	0.75861	0.50732	0.40768	1.212
Mof_C 	C 	0.8692	0.5451	0.6902	0.335
Mof_C 	C 	0.9372	0.5446	0.8528	-0.066
Mof_C 	C 	0.9692	0.4884	0.9275	-0.023
Mof_H 	H 	0.9483	0.4507	0.8778	0.052
Mof_C 	C 	0.9686	0.5997	0.9283	-0.023
Mof_H 	H 	0.9468	0.6375	0.8813	0.055
Mof_C 	C 	0.6169	0.5215	0.3788	0.325
Mof_C 	C 	0.5578	0.5249	0.4417	-0.074
Mof_C 	C 	0.5709	0.5249	0.6124	-0.013
Mof_H 	H 	0.6191	0.5245	0.6909	0.049
Mof_C 	C 	0.4836	0.5253	0.327	-0.027
Mof_H 	H 	0.4723	0.5258	0.2086	0.059
Mof_C 	C 	0.697	0.3917	0.1934	0.139
Mof_H 	H 	0.6611	0.4137	0.1066	-0.024
Mof_C 	C 	0.763	0.3153	0.3369	0.022
Mof_H 	H 	0.7824	0.2756	0.3718	0.028
Mof_C 	C 	0.786	0.3688	0.4175	-0.008
Mof_H 	H 	0.8254	0.373	0.5219	0.031
Mof_C 	C 	0.6612	0.2869	0.0617	0.241
Mof_C 	C 	0.5935	0.3042	0.9531	-0.282
Mof_H 	H 	0.5742	0.3429	0.9639	0.138
Mof_C 	C 	0.5525	0.261	0.8209	0.228
Mof_C 	C 	0.4602	0.3394	0.6477	0.021
Mof_H 	H 	0.4877	0.3755	0.6858	0.029
Mof_C 	C 	0.3932	0.3365	0.5323	-0.007
Mof_H 	H 	0.3661	0.3707	0.4736	0.04
Mof_C 	C 	0.4269	0.2423	0.6174	0.102
Mof_H 	H 	0.4285	0.1991	0.6304	0.007
Mof_C 	C 	0.5829	0.2065	0.7968	-0.286
Mof_H 	H 	0.5583	0.1805	0.704	0.135
Mof_C 	C 	0.652	0.1909	0.9149	0.234
Mof_C 	C 	0.6864	0.1123	0.7407	0.08
Mof_H 	H 	0.665	0.132	0.6344	0.003
Mof_C 	C 	0.7458	0.0462	0.9444	0.005
Mof_H 	H 	0.7722	0.0113	0.0003	-0.002
Mof_C 	C 	0.7229	0.0932	0.0215	0.005
Mof_H 	H 	0.7316	0.0971	0.1383	0.041
Mof_C 	C 	0.6916	0.2301	0.0448	-0.291
Mof_H 	H 	0.7381	0.2189	0.1207	0.143
Mof_N 	N 	0.7438	0.4175	0.3255	-0.268
Mof_N 	N 	0.7047	0.3305	0.1916	-0.169
Mof_N 	N 	0.3681	0.2735	0.51	-0.111
Mof_N 	N 	0.4822	0.2795	0.7021	-0.161
Mof_N 	N 	0.7239	0.0583	0.7723	-0.274
Mof_N 	N 	0.6856	0.1326	0.8955	-0.153
Mof_O 	O 	0.8445	0.4941	0.6203	-0.458
Mof_O 	O 	0.8406	0.5959	0.6364	-0.323
Mof_O 	O 	0.68144	0.5289	0.4882	-0.45
Mof_O 	O 	0.60525	0.5105	0.224	-0.311
Mof_Zn	Zn	0.74139	0.00732	0.59232	1.194
Mof_C 	C 	0.6308	0.0451	0.3098	0.263
Mof_C 	C 	0.5628	0.0446	0.1472	-0.121
Mof_C 	C 	0.5308	0.9884	0.0725	0.043
Mof_H 	H 	0.5517	0.9507	0.1222	0.042
Mof_C 	C 	0.5314	0.0997	0.0717	-0.017
Mof_H 	H 	0.5532	0.1375	0.1187	0.053
Mof_C 	C 	0.8831	0.0215	0.6212	0.324
Mof_C 	C 	0.9422	0.0249	0.5583	-0.085
Mof_C 	C 	0.9291	0.0249	0.3876	-0.017
Mof_H 	H 	0.8809	0.0245	0.3091	0.041
Mof_C 	C 	0.0164	0.0253	0.673	-0.033
Mof_H 	H 	0.0277	0.0258	0.7914	0.052
Mof_C 	C 	0.803	0.8917	0.8066	0.144
Mof_H 	H 	0.8389	0.9137	0.8934	-0.004
Mof_C 	C 	0.737	0.8153	0.6631	0.025
Mof_H 	H 	0.7176	0.7756	0.6282	0.029
Mof_C 	C 	0.714	0.8688	0.5825	-0.005
Mof_H 	H 	0.6746	0.873	0.4781	0.036
Mof_C 	C 	0.8388	0.7869	0.9383	0.247
Mof_C 	C 	0.9065	0.8042	0.0469	-0.287
Mof_H 	H 	0.9258	0.8429	0.0361	0.147
Mof_C 	C 	0.9475	0.761	0.1791	0.233
Mof_C 	C 	0.0398	0.8394	0.3523	0.022
Mof_H 	H 	0.0123	0.8755	0.3142	0.043
Mof_C 	C 	0.1068	0.8365	0.4677	-0.005
Mof_H 	H 	0.1339	0.8707	0.5264	0.053
Mof_C 	C 	0.0731	0.7423	0.3826	0.102
Mof_H 	H 	0.0715	0.6991	0.3696	0.008
Mof_C 	C 	0.9171	0.7065	0.2032	-0.289
Mof_H 	H 	0.9417	0.6805	0.296	0.138
Mof_C 	C 	0.848	0.6909	0.0851	0.238
Mof_C 	C 	0.8136	0.6123	0.2593	0.085
Mof_H 	H 	0.835	0.632	0.3656	0.005
Mof_C 	C 	0.7542	0.5462	0.0556	0.008
Mof_H 	H 	0.7278	0.5113	0.9997	0.015
Mof_C 	C 	0.7771	0.5932	0.9785	0.012
Mof_H 	H 	0.7684	0.5971	0.8617	0.042
Mof_C 	C 	0.8084	0.7301	0.9552	-0.294
Mof_H 	H 	0.7619	0.7189	0.8793	0.146
Mof_N 	N 	0.7562	0.9175	0.6745	-0.249
Mof_N 	N 	0.7953	0.8305	0.8084	-0.169
Mof_N 	N 	0.1319	0.7735	0.49	-0.11
Mof_N 	N 	0.0178	0.7795	0.2979	-0.161
Mof_N 	N 	0.7761	0.5583	0.2277	-0.265
Mof_N 	N 	0.8144	0.6326	0.1045	-0.153
Mof_O 	O 	0.6555	0.9941	0.3797	-0.377
Mof_O 	O 	0.6594	0.0959	0.3636	-0.309
Mof_O 	O 	0.81856	0.0289	0.5118	-0.467
Mof_O 	O 	0.89475	0.0105	0.776	-0.332
Mof_Zn	Zn	0.24139	0.50732	0.59232	1.212
Mof_C 	C 	0.1308	0.5451	0.3098	0.335
Mof_C 	C 	0.0628	0.5446	0.1472	-0.066
Mof_C 	C 	0.0308	0.4884	0.0725	-0.023
Mof_H 	H 	0.0517	0.4507	0.1222	0.052
Mof_C 	C 	0.0314	0.5997	0.0717	-0.023
Mof_H 	H 	0.0532	0.6375	0.1187	0.055
Mof_C 	C 	0.3831	0.5215	0.6212	0.325
Mof_C 	C 	0.4422	0.5249	0.5583	-0.074
Mof_C 	C 	0.4291	0.5249	0.3876	-0.013
Mof_H 	H 	0.3809	0.5245	0.3091	0.049
Mof_C 	C 	0.5164	0.5253	0.673	-0.027
Mof_H 	H 	0.5277	0.5258	0.7914	0.059
Mof_C 	C 	0.303	0.3917	0.8066	0.139
Mof_H 	H 	0.3389	0.4137	0.8934	-0.024
Mof_C 	C 	0.237	0.3153	0.6631	0.022
Mof_H 	H 	0.2176	0.2756	0.6282	0.028
Mof_C 	C 	0.214	0.3688	0.5825	-0.008
Mof_H 	H 	0.1746	0.373	0.4781	0.031
Mof_C 	C 	0.3388	0.2869	0.9383	0.241
Mof_C 	C 	0.4065	0.3042	0.0469	-0.282
Mof_H 	H 	0.4258	0.3429	0.0361	0.138
Mof_C 	C 	0.4475	0.261	0.1791	0.228
Mof_C 	C 	0.5398	0.3394	0.3523	0.021
Mof_H 	H 	0.5123	0.3755	0.3142	0.029
Mof_C 	C 	0.6068	0.3365	0.4677	-0.007
Mof_H 	H 	0.6339	0.3707	0.5264	0.04
Mof_C 	C 	0.5731	0.2423	0.3826	0.102
Mof_H 	H 	0.5715	0.1991	0.3696	0.007
Mof_C 	C 	0.4171	0.2065	0.2032	-0.286
Mof_H 	H 	0.4417	0.1805	0.296	0.135
Mof_C 	C 	0.348	0.1909	0.0851	0.234
Mof_C 	C 	0.3136	0.1123	0.2593	0.08
Mof_H 	H 	0.335	0.132	0.3656	0.003
Mof_C 	C 	0.2542	0.0462	0.0556	0.005
Mof_H 	H 	0.2278	0.0113	0.9997	-0.002
Mof_C 	C 	0.2771	0.0932	0.9785	0.005
Mof_H 	H 	0.2684	0.0971	0.8617	0.041
Mof_C 	C 	0.3084	0.2301	0.9552	-0.291
Mof_H 	H 	0.2619	0.2189	0.8793	0.143
Mof_N 	N 	0.2562	0.4175	0.6745	-0.268
Mof_N 	N 	0.2953	0.3305	0.8084	-0.169
Mof_N 	N 	0.6319	0.2735	0.49	-0.111
Mof_N 	N 	0.5178	0.2795	0.2979	-0.161
Mof_N 	N 	0.2761	0.0583	0.2277	-0.274
Mof_N 	N 	0.3144	0.1326	0.1045	-0.153
Mof_O 	O 	0.1555	0.4941	0.3797	-0.458
Mof_O 	O 	0.1594	0.5959	0.3636	-0.323
Mof_O 	O 	0.31856	0.5289	0.5118	-0.45
Mof_O 	O 	0.39475	0.5105	0.776	-0.311
_end
