# CIF file generated by openbabel 3.1.0, see https://openbabel.org
data_I
_chemical_name_common 'image0'
_cell_length_a 10.2541
_cell_length_b 10.8657
_cell_length_c 10.986
_cell_angle_alpha 83.309
_cell_angle_beta 91.74
_cell_angle_gamma 61.657
_space_group_name_H-M_alt 'P 1'
_space_group_name_Hall 'P 1'
loop_
    _symmetry_equiv_pos_as_xyz
    x,y,z
loop_
    _atom_site_label
    _atom_site_type_symbol
    _atom_site_fract_x
    _atom_site_fract_y
    _atom_site_fract_z
    _atom_site_occupancy
    Co1      Co       0.09820    0.88310    0.25679    1.000
    Co2      Co       0.95350    0.87670    0.99792    1.000
    Co3      Co       0.83400    0.04260    0.46798    1.000
    C1       C        0.67900    0.93870    0.28350    1.000
    C2       C        0.68900    0.91710    0.16020    1.000
    C3       C        0.60300    0.86940    0.10220    1.000
    H1       H        0.61340    0.85260    0.02100    1.000
    C4       C        0.50300    0.84780    0.16910    1.000
    H2       H        0.43970    0.82030    0.13250    1.000
    C5       C        0.49600    0.86760    0.29350    1.000
    C6       C        0.58100    0.91370    0.35180    1.000
    H3       H        0.57270    0.92770    0.43380    1.000
    C7       C        0.39500    0.83300    0.36450    1.000
    C8       C        0.10290    0.26960    0.21680    1.000
    C9       C        0.11700    0.23480    0.34430    1.000
    C10      C        0.11800    0.32600    0.42420    1.000
    H4       H        0.12690    0.30250    0.50930    1.000
    C11      C        0.10400    0.45320    0.36900    1.000
    H5       H        0.10470    0.51700    0.41860    1.000
    C12      C        0.09100    0.48870    0.24090    1.000
    C13      C        0.08980    0.39740    0.16250    1.000
    H6       H        0.08080    0.42090    0.07740    1.000
    C14      C        0.07700    0.62760    0.18990    1.000
    N1       N        0.78000    0.97840    0.31580    1.000
    N2       N        0.84800    0.98470    0.21570    1.000
    N3       N        0.79600    0.94680    0.12190    1.000
    N4       N        0.10570    0.15940    0.16820    1.000
    N5       N        0.12040    0.06530    0.26420    1.000
    N6       N        0.12770    0.10530    0.37330    1.000
    O1       O        0.11120    0.90800    0.07480    1.000
    H7       H        0.21440    0.87020    0.05880    1.000
    O2       O        0.05400    0.89080    0.43080    1.000
    H8       H        0.11980    0.79630    0.47500    1.000
    O3       O        0.37400    0.86260    0.47550    1.000
    O4       O        0.32600    0.77500    0.31440    1.000
    O5       O        0.03700    0.66960    0.07380    1.000
    O6       O        0.08600    0.69880    0.26540    1.000
    Co4      Co       0.90180    0.11690    0.74321    1.000
    Co5      Co       0.04650    0.12330    0.00208    1.000
    Co6      Co       0.16600    0.95740    0.53202    1.000
    C15      C        0.32100    0.06130    0.71650    1.000
    C16      C        0.31100    0.08290    0.83980    1.000
    C17      C        0.39700    0.13060    0.89780    1.000
    H9       H        0.38660    0.14740    0.97900    1.000
    C18      C        0.49700    0.15220    0.83090    1.000
    H10      H        0.56030    0.17970    0.86750    1.000
    C19      C        0.50400    0.13240    0.70650    1.000
    C20      C        0.41900    0.08630    0.64820    1.000
    H11      H        0.42730    0.07230    0.56620    1.000
    C21      C        0.60500    0.16700    0.63550    1.000
    C22      C        0.89710    0.73040    0.78320    1.000
    C23      C        0.88300    0.76520    0.65570    1.000
    C24      C        0.88200    0.67400    0.57580    1.000
    H12      H        0.87310    0.69750    0.49070    1.000
    C25      C        0.89600    0.54680    0.63100    1.000
    H13      H        0.89530    0.48300    0.58140    1.000
    C26      C        0.90900    0.51130    0.75910    1.000
    C27      C        0.91020    0.60260    0.83750    1.000
    H14      H        0.91920    0.57910    0.92260    1.000
    C28      C        0.92300    0.37240    0.81010    1.000
    N7       N        0.22000    0.02160    0.68420    1.000
    N8       N        0.15200    0.01530    0.78430    1.000
    N9       N        0.20400    0.05320    0.87810    1.000
    N10      N        0.89430    0.84060    0.83180    1.000
    N11      N        0.87960    0.93470    0.73580    1.000
    N12      N        0.87230    0.89470    0.62670    1.000
    O7       O        0.88880    0.09200    0.92520    1.000
    H15      H        0.78560    0.12980    0.94120    1.000
    O8       O        0.94600    0.10920    0.56920    1.000
    H16      H        0.88020    0.20370    0.52500    1.000
    O9       O        0.62600    0.13740    0.52450    1.000
    O10      O        0.67400    0.22500    0.68560    1.000
    O11      O        0.96300    0.33040    0.92620    1.000
    O12      O        0.91400    0.30120    0.73460    1.000
