data_functionalizedCrystal
_audit_creation_method	'EQeq! by Chris Wilmer'
_symmetry_space_group_name_H-M	'P1'
_symmetry_Int_Tables_number	1
_symmetry_cell_setting	triclinic
loop_
_symmetry_equiv_pos_as_xyz
  x,y,z
_cell_length_a	18.28
_cell_length_b	11.9163
_cell_length_c	11.0923
_cell_angle_alpha	90
_cell_angle_beta	94.04
_cell_angle_gamma	90
loop_
_atom_site_label
_atom_site_type_symbol
_atom_site_fract_x
_atom_site_fract_y
_atom_site_fract_z
_atom_site_charge
Mof_Co	Co	0.57704	0.4329	0.99566	1.137
Mof_C 	C 	0.63	0.26	0.1676	0.36
Mof_C 	C 	0.6956	0.1942	0.2214	-0.089
Mof_C 	C 	0.7508	0.1618	0.15	-0.056
Mof_H 	H 	0.7485	0.1765	0.0675	0.058
Mof_C 	C 	0.8106	0.1053	0.2086	0.041
Mof_C 	C 	0.813	0.0813	0.3308	0.076
Mof_C 	C 	0.7572	0.114	0.4035	-0.143
Mof_H 	H 	0.7594	0.0988	0.486	0.067
Mof_C 	C 	0.6992	0.1696	0.346	0.036
Mof_H 	H 	0.6606	0.192	0.3909	0.017
Mof_N 	N 	0.87299	0.0622	0.1652	-0.211
Mof_N 	N 	0.91108	0.016	0.2589	-0.165
Mof_N 	N 	0.87712	0.0258	0.3602	-0.214
Mof_O 	O 	0.47979	0.4144	0.0667	-0.819
Mof_O 	O 	0.6315	0.2941	0.0588	-0.454
Mof_O 	O 	0.57891	0.276	0.2353	-0.446
Mof_H 	H 	0.4567	0.355	0.047	0.272
Mof_Co	Co	0.07704	0.9329	0.99566	1.111
Mof_C 	C 	0.13	0.76	0.1676	0.36
Mof_C 	C 	0.1956	0.6942	0.2214	-0.098
Mof_C 	C 	0.2508	0.6618	0.15	-0.056
Mof_H 	H 	0.2485	0.6765	0.0675	0.056
Mof_C 	C 	0.3106	0.6053	0.2086	0.035
Mof_C 	C 	0.313	0.5813	0.3308	0.075
Mof_C 	C 	0.2572	0.614	0.4035	-0.15
Mof_H 	H 	0.2594	0.5988	0.486	0.065
Mof_C 	C 	0.1992	0.6696	0.346	0.038
Mof_H 	H 	0.1606	0.692	0.3909	0.008
Mof_N 	N 	0.37299	0.5622	0.1652	-0.216
Mof_N 	N 	0.41108	0.516	0.2589	-0.189
Mof_N 	N 	0.37712	0.5258	0.3602	-0.222
Mof_O 	O 	0.97979	0.9144	0.0667	-0.747
Mof_O 	O 	0.1315	0.7941	0.0588	-0.468
Mof_O 	O 	0.07891	0.776	0.2353	-0.474
Mof_H 	H 	0.9567	0.855	0.047	0.273
Mof_Co	Co	0.42296	0.4329	0.50434	1.133
Mof_C 	C 	0.37	0.26	0.3324	0.358
Mof_C 	C 	0.3044	0.1942	0.2786	-0.09
Mof_C 	C 	0.2492	0.1618	0.35	-0.06
Mof_H 	H 	0.2515	0.1765	0.4325	0.059
Mof_C 	C 	0.1894	0.1053	0.2914	0.035
Mof_C 	C 	0.187	0.0813	0.1692	0.073
Mof_C 	C 	0.2428	0.114	0.0965	-0.146
Mof_H 	H 	0.2406	0.0988	0.014	0.066
Mof_C 	C 	0.3008	0.1696	0.154	0.034
Mof_H 	H 	0.3394	0.192	0.1091	0.017
Mof_N 	N 	0.12701	0.0622	0.3348	-0.22
Mof_N 	N 	0.08892	0.016	0.2411	-0.202
Mof_N 	N 	0.12288	0.0258	0.1398	-0.229
Mof_O 	O 	0.52021	0.4144	0.4333	-0.818
Mof_O 	O 	0.3685	0.2941	0.4412	-0.452
Mof_O 	O 	0.42109	0.276	0.2647	-0.446
Mof_H 	H 	0.5433	0.355	0.453	0.273
Mof_Co	Co	0.92296	0.9329	0.50434	1.157
Mof_C 	C 	0.87	0.76	0.3324	0.352
Mof_C 	C 	0.8044	0.6942	0.2786	-0.077
Mof_C 	C 	0.7492	0.6618	0.35	-0.063
Mof_H 	H 	0.7515	0.6765	0.4325	0.064
Mof_C 	C 	0.6894	0.6053	0.2914	0.042
Mof_C 	C 	0.687	0.5813	0.1692	0.072
Mof_C 	C 	0.7428	0.614	0.0965	-0.137
Mof_H 	H 	0.7406	0.5988	0.014	0.066
Mof_C 	C 	0.8008	0.6696	0.154	0.03
Mof_H 	H 	0.8394	0.692	0.1091	0.028
Mof_N 	N 	0.62701	0.5622	0.3348	-0.216
Mof_N 	N 	0.58892	0.516	0.2411	-0.188
Mof_N 	N 	0.62288	0.5258	0.1398	-0.222
Mof_O 	O 	0.02021	0.9144	0.4333	-0.873
Mof_O 	O 	0.8685	0.7941	0.4412	-0.432
Mof_O 	O 	0.92109	0.776	0.2647	-0.4
Mof_H 	H 	0.0433	0.855	0.453	0.27
Mof_Co	Co	0.42296	0.5671	0.00434	1.132
Mof_C 	C 	0.37	0.74	0.8324	0.358
Mof_C 	C 	0.3044	0.8058	0.7786	-0.089
Mof_C 	C 	0.2492	0.8382	0.85	-0.06
Mof_H 	H 	0.2515	0.8235	0.9325	0.06
Mof_C 	C 	0.1894	0.8947	0.7914	0.035
Mof_C 	C 	0.187	0.9187	0.6692	0.073
Mof_C 	C 	0.2428	0.886	0.5965	-0.146
Mof_H 	H 	0.2406	0.9012	0.514	0.067
Mof_C 	C 	0.3008	0.8304	0.654	0.034
Mof_H 	H 	0.3394	0.808	0.6091	0.018
Mof_N 	N 	0.12701	0.9378	0.8348	-0.221
Mof_N 	N 	0.08892	0.984	0.7411	-0.203
Mof_N 	N 	0.12288	0.9742	0.6398	-0.229
Mof_O 	O 	0.52021	0.5856	0.9333	-0.817
Mof_O 	O 	0.3685	0.7059	0.9412	-0.451
Mof_O 	O 	0.42109	0.724	0.7647	-0.445
Mof_H 	H 	0.5433	0.645	0.953	0.273
Mof_Co	Co	0.92296	0.0671	0.00434	1.153
Mof_C 	C 	0.87	0.24	0.8324	0.352
Mof_C 	C 	0.8044	0.3058	0.7786	-0.075
Mof_C 	C 	0.7492	0.3382	0.85	-0.063
Mof_H 	H 	0.7515	0.3235	0.9325	0.066
Mof_C 	C 	0.6894	0.3947	0.7914	0.044
Mof_C 	C 	0.687	0.4187	0.6692	0.072
Mof_C 	C 	0.7428	0.386	0.5965	-0.136
Mof_H 	H 	0.7406	0.4012	0.514	0.067
Mof_C 	C 	0.8008	0.3304	0.654	0.029
Mof_H 	H 	0.8394	0.308	0.6091	0.029
Mof_N 	N 	0.62701	0.4378	0.8348	-0.215
Mof_N 	N 	0.58892	0.484	0.7411	-0.188
Mof_N 	N 	0.62288	0.4742	0.6398	-0.221
Mof_O 	O 	0.02021	0.0856	0.9333	-0.87
Mof_O 	O 	0.8685	0.2059	0.9412	-0.428
Mof_O 	O 	0.92109	0.224	0.7647	-0.398
Mof_H 	H 	0.0433	0.145	0.953	0.271
Mof_Co	Co	0.57704	0.5671	0.49566	1.133
Mof_C 	C 	0.63	0.74	0.6676	0.359
Mof_C 	C 	0.6956	0.8058	0.7214	-0.088
Mof_C 	C 	0.7508	0.8382	0.65	-0.057
Mof_H 	H 	0.7485	0.8235	0.5675	0.06
Mof_C 	C 	0.8106	0.8947	0.7086	0.042
Mof_C 	C 	0.813	0.9187	0.8308	0.076
Mof_C 	C 	0.7572	0.886	0.9035	-0.142
Mof_H 	H 	0.7594	0.9012	0.986	0.067
Mof_C 	C 	0.6992	0.8304	0.846	0.036
Mof_H 	H 	0.6606	0.808	0.8909	0.018
Mof_N 	N 	0.87299	0.9378	0.6652	-0.21
Mof_N 	N 	0.91108	0.984	0.7589	-0.165
Mof_N 	N 	0.87712	0.9742	0.8602	-0.214
Mof_O 	O 	0.47979	0.5856	0.5667	-0.818
Mof_O 	O 	0.6315	0.7059	0.5588	-0.451
Mof_O 	O 	0.57891	0.724	0.7353	-0.445
Mof_H 	H 	0.4567	0.645	0.547	0.272
Mof_Co	Co	0.07704	0.0671	0.49566	1.111
Mof_C 	C 	0.13	0.24	0.6676	0.36
Mof_C 	C 	0.1956	0.3058	0.7214	-0.098
Mof_C 	C 	0.2508	0.3382	0.65	-0.056
Mof_H 	H 	0.2485	0.3235	0.5675	0.056
Mof_C 	C 	0.3106	0.3947	0.7086	0.035
Mof_C 	C 	0.313	0.4187	0.8308	0.076
Mof_C 	C 	0.2572	0.386	0.9035	-0.15
Mof_H 	H 	0.2594	0.4012	0.986	0.066
Mof_C 	C 	0.1992	0.3304	0.846	0.039
Mof_H 	H 	0.1606	0.308	0.8909	0.009
Mof_N 	N 	0.37299	0.4378	0.6652	-0.215
Mof_N 	N 	0.41108	0.484	0.7589	-0.188
Mof_N 	N 	0.37712	0.4742	0.8602	-0.222
Mof_O 	O 	0.97979	0.0856	0.5667	-0.745
Mof_O 	O 	0.1315	0.2059	0.5588	-0.468
Mof_O 	O 	0.07891	0.224	0.7353	-0.474
Mof_H 	H 	0.9567	0.145	0.547	0.274
Mof_Co	Co	0.5	0.39937	0.25	1.152
Mof_Co	Co	2.94803e-18	0.89937	0.25	1.105
Mof_Co	Co	0.5	0.60063	0.75	1.152
Mof_Co	Co	5.89605e-18	0.10063	0.75	1.104
_end
