data_functionalizedCrystal
_audit_creation_method	'EQeq! by Chris Wilmer'
_symmetry_space_group_name_H-M	'P1'
_symmetry_Int_Tables_number	1
_symmetry_cell_setting	triclinic
loop_
_symmetry_equiv_pos_as_xyz
  x,y,z
_cell_length_a	28.598
_cell_length_b	28.598
_cell_length_c	17.074
_cell_angle_alpha	90
_cell_angle_beta	90
_cell_angle_gamma	90
loop_
_atom_site_label
_atom_site_type_symbol
_atom_site_fract_x
_atom_site_fract_y
_atom_site_fract_z
_atom_site_charge
Mof_Zn	Zn	0.1772	0.06671	0.36751	1.193
Mof_Zn	Zn	0.28121	0.12308	0.38132	1.243
Mof_O 	O 	0.17637	0.22653	0.9688	-0.263
Mof_O 	O 	0.13208	0.21377	0.7686	-0.25
Mof_O 	O 	0.05381	0.29225	0.9232	-0.276
Mof_O 	O 	0.13898	0.34795	0.8588	-0.264
Mof_C 	C 	0.12808	0.26653	0.8783	-0.001
Mof_O 	O 	0.18796	0.10135	0.2726	-0.574
Mof_O 	O 	0.27495	0.52012	0.8852	-0.554
Mof_C 	C 	0.1527	0.1957	0.7015	0.289
Mof_C 	C 	0.07606	0.2736	0.8545	0.04
Mof_H 	H 	0.0619	0.244	0.8395	0.028
Mof_H 	H 	0.0735	0.2952	0.811	0.043
Mof_O 	O 	0.8415	0.34815	0.8694	-0.473
Mof_O 	O 	0.24564	0.14214	0.4719	-0.514
Mof_C 	C 	0.20693	0.47482	0.8725	-0.314
Mof_C 	C 	0.1865	0.1567	0.5644	-0.26
Mof_C 	C 	0.18284	0.2014	0.0367	0.347
Mof_O 	O 	0.24901	0.14593	0.2878	-0.522
Mof_C 	C 	0.9781	0.2973	0.8573	-0.42
Mof_H 	H 	0.9885	0.2809	0.8137	0.179
Mof_O 	O 	0.17641	0.1082	0.4575	-0.559
Mof_C 	C 	0.93285	0.3142	0.861	0.314
Mof_H 	H 	0.9133	0.309	0.8184	-0.056
Mof_C 	C 	0.1501	0.3109	0.9084	0.051
Mof_H 	H 	0.1387	0.3175	0.9608	0.04
Mof_H 	H 	0.1838	0.3072	0.911	0.025
Mof_C 	C 	0.866	0.3533	0.9276	0.476
Mof_O 	O 	0.20755	0.55619	0.8643	-0.507
Mof_C 	C 	0.1553	0.25258	0.8041	0.02
Mof_H 	H 	0.1564	0.2787	0.7679	0.041
Mof_H 	H 	0.1871	0.244	0.8178	0.036
Mof_C 	C 	0.2041	0.1571	0.1772	-0.3
Mof_C 	C 	0.2371	0.1862	0.139	0.241
Mof_H 	H 	0.2666	0.1899	0.1609	-0.031
Mof_C 	C 	0.1293	0.229	0.94	0.025
Mof_H 	H 	0.108	0.2366	0.9823	0.037
Mof_H 	H 	0.1201	0.1992	0.9177	0.036
Mof_C 	C 	0.2316	0.51983	0.8743	0.493
Mof_C 	C 	0.2143	0.1334	0.251	0.532
Mof_C 	C 	0.2121	0.1877	0.6056	0.189
Mof_H 	H 	0.2415	0.1958	0.5869	-0.017
Mof_C 	C 	0.1632	0.3891	0.8666	0.352
Mof_C 	C 	0.2289	0.4359	0.8982	0.264
Mof_H 	H 	0.2592	0.4383	0.9179	-0.053
Mof_C 	C 	0.0071	0.3055	0.9194	0.418
Mof_C 	C 	0.2041	0.1346	0.4924	0.486
Mof_C 	C 	0.2267	0.2087	0.0716	-0.343
Mof_H 	H 	0.2483	0.2287	0.0486	0.163
Mof_C 	C 	0.1512	0.1736	0.071	-0.372
Mof_H 	H 	0.1223	0.169	0.0471	0.158
Mof_C 	C 	0.1962	0.2087	0.6765	-0.294
Mof_H 	H 	0.2144	0.2301	0.7042	0.134
Mof_C 	C 	0.1606	0.1517	0.1407	0.252
Mof_H 	H 	0.1378	0.1331	0.164	-0.059
Mof_O 	O 	0.852	0.3734	0.9838	-0.353
Mof_C 	C 	0.1245	0.1647	0.6598	-0.29
Mof_H 	H 	0.0947	0.1574	0.6777	0.126
Mof_C 	C 	0.1633	0.4712	0.841	0.252
Mof_H 	H 	0.1486	0.4977	0.8212	-0.038
Mof_C 	C 	0.1414	0.1449	0.5915	0.183
Mof_H 	H 	0.123	0.1239	0.5634	-0.041
Mof_C 	C 	0.2071	0.3925	0.8956	-0.365
Mof_H 	H 	0.2226	0.3659	0.9137	0.163
Mof_C 	C 	0.9162	0.3369	0.9206	-0.318
Mof_C 	C 	0.1408	0.4285	0.8381	-0.342
Mof_H 	H 	0.1108	0.4262	0.8172	0.166
Mof_C 	C 	0.9912	0.3282	0.9808	-0.45
Mof_H 	H 	0.0116	0.3345	0.0219	0.202
Mof_C 	C 	0.9472	0.3424	0.9862	0.306
Mof_H 	H 	0.9364	0.3559	0.0324	-0.056
Mof_Zn	Zn	0.8228	0.93329	0.36751	1.192
Mof_Zn	Zn	0.71879	0.87692	0.38132	1.242
Mof_O 	O 	0.82363	0.77347	0.9688	-0.264
Mof_O 	O 	0.86792	0.78623	0.7686	-0.251
Mof_O 	O 	0.94619	0.70775	0.9232	-0.277
Mof_O 	O 	0.86102	0.65205	0.8588	-0.265
Mof_C 	C 	0.87192	0.73347	0.8783	-0.002
Mof_O 	O 	0.81204	0.89865	0.2726	-0.575
Mof_O 	O 	0.72505	0.47988	0.8852	-0.555
Mof_C 	C 	0.8473	0.8043	0.7015	0.288
Mof_C 	C 	0.92394	0.7264	0.8545	0.039
Mof_H 	H 	0.9381	0.756	0.8395	0.027
Mof_H 	H 	0.9265	0.7048	0.811	0.042
Mof_O 	O 	0.1585	0.65185	0.8694	-0.474
Mof_O 	O 	0.75436	0.85786	0.4719	-0.515
Mof_C 	C 	0.79307	0.52518	0.8725	-0.315
Mof_C 	C 	0.8135	0.8433	0.5644	-0.26
Mof_C 	C 	0.81716	0.7986	0.0367	0.347
Mof_O 	O 	0.75099	0.85407	0.2878	-0.522
Mof_C 	C 	0.0219	0.7027	0.8573	-0.42
Mof_H 	H 	0.0115	0.7191	0.8137	0.179
Mof_O 	O 	0.82359	0.8918	0.4575	-0.559
Mof_C 	C 	0.06715	0.6858	0.861	0.314
Mof_H 	H 	0.0867	0.691	0.8184	-0.056
Mof_C 	C 	0.8499	0.6891	0.9084	0.051
Mof_H 	H 	0.8613	0.6825	0.9608	0.04
Mof_H 	H 	0.8162	0.6928	0.911	0.025
Mof_C 	C 	0.134	0.6467	0.9276	0.476
Mof_O 	O 	0.79245	0.44381	0.8643	-0.507
Mof_C 	C 	0.8447	0.74742	0.8041	0.02
Mof_H 	H 	0.8436	0.7213	0.7679	0.041
Mof_H 	H 	0.8129	0.756	0.8178	0.036
Mof_C 	C 	0.7959	0.8429	0.1772	-0.3
Mof_C 	C 	0.7629	0.8138	0.139	0.241
Mof_H 	H 	0.7334	0.8101	0.1609	-0.031
Mof_C 	C 	0.8707	0.771	0.94	0.025
Mof_H 	H 	0.892	0.7634	0.9823	0.037
Mof_H 	H 	0.8799	0.8008	0.9177	0.036
Mof_C 	C 	0.7684	0.48017	0.8743	0.493
Mof_C 	C 	0.7857	0.8666	0.251	0.532
Mof_C 	C 	0.7879	0.8123	0.6056	0.189
Mof_H 	H 	0.7585	0.8042	0.5869	-0.017
Mof_C 	C 	0.8368	0.6109	0.8666	0.352
Mof_C 	C 	0.7711	0.5641	0.8982	0.264
Mof_H 	H 	0.7408	0.5617	0.9179	-0.053
Mof_C 	C 	0.9929	0.6945	0.9194	0.418
Mof_C 	C 	0.7959	0.8654	0.4924	0.486
Mof_C 	C 	0.7733	0.7913	0.0716	-0.343
Mof_H 	H 	0.7517	0.7713	0.0486	0.163
Mof_C 	C 	0.8488	0.8264	0.071	-0.372
Mof_H 	H 	0.8777	0.831	0.0471	0.158
Mof_C 	C 	0.8038	0.7913	0.6765	-0.294
Mof_H 	H 	0.7856	0.7699	0.7042	0.134
Mof_C 	C 	0.8394	0.8483	0.1407	0.252
Mof_H 	H 	0.8622	0.8669	0.164	-0.059
Mof_O 	O 	0.148	0.6266	0.9838	-0.353
Mof_C 	C 	0.8755	0.8353	0.6598	-0.29
Mof_H 	H 	0.9053	0.8426	0.6777	0.126
Mof_C 	C 	0.8367	0.5288	0.841	0.252
Mof_H 	H 	0.8514	0.5023	0.8212	-0.038
Mof_C 	C 	0.8586	0.8551	0.5915	0.183
Mof_H 	H 	0.877	0.8761	0.5634	-0.041
Mof_C 	C 	0.7929	0.6075	0.8956	-0.365
Mof_H 	H 	0.7774	0.6341	0.9137	0.163
Mof_C 	C 	0.0838	0.6631	0.9206	-0.318
Mof_C 	C 	0.8592	0.5715	0.8381	-0.342
Mof_H 	H 	0.8892	0.5738	0.8172	0.166
Mof_C 	C 	0.0088	0.6718	0.9808	-0.45
Mof_H 	H 	0.9884	0.6655	0.0219	0.202
Mof_C 	C 	0.0528	0.6576	0.9862	0.306
Mof_H 	H 	0.0636	0.6441	0.0324	-0.056
Mof_Zn	Zn	0.6772	0.43329	0.86751	1.192
Mof_Zn	Zn	0.78121	0.37692	0.88132	1.242
Mof_O 	O 	0.67637	0.27347	0.4688	-0.264
Mof_O 	O 	0.63208	0.28623	0.2686	-0.251
Mof_O 	O 	0.55381	0.20775	0.4232	-0.277
Mof_O 	O 	0.63898	0.15205	0.3588	-0.265
Mof_C 	C 	0.62808	0.23347	0.3783	-0.002
Mof_O 	O 	0.68796	0.39865	0.7726	-0.575
Mof_O 	O 	0.77495	0.97988	0.3852	-0.555
Mof_C 	C 	0.6527	0.3043	0.2015	0.288
Mof_C 	C 	0.57606	0.2264	0.3545	0.039
Mof_H 	H 	0.5619	0.256	0.3395	0.027
Mof_H 	H 	0.5735	0.2048	0.311	0.042
Mof_O 	O 	0.3415	0.15185	0.3694	-0.474
Mof_O 	O 	0.74564	0.35786	0.9719	-0.515
Mof_C 	C 	0.70693	0.02518	0.3725	-0.315
Mof_C 	C 	0.6865	0.3433	0.0644	-0.26
Mof_C 	C 	0.68284	0.2986	0.5367	0.347
Mof_O 	O 	0.74901	0.35407	0.7878	-0.522
Mof_C 	C 	0.4781	0.2027	0.3573	-0.42
Mof_H 	H 	0.4885	0.2191	0.3137	0.179
Mof_O 	O 	0.67641	0.3918	0.9575	-0.559
Mof_C 	C 	0.43285	0.1858	0.361	0.314
Mof_H 	H 	0.4133	0.191	0.3184	-0.056
Mof_C 	C 	0.6501	0.1891	0.4084	0.051
Mof_H 	H 	0.6387	0.1825	0.4608	0.04
Mof_H 	H 	0.6838	0.1928	0.411	0.025
Mof_C 	C 	0.366	0.1467	0.4276	0.476
Mof_O 	O 	0.70755	0.94381	0.3643	-0.507
Mof_C 	C 	0.6553	0.24742	0.3041	0.02
Mof_H 	H 	0.6564	0.2213	0.2679	0.041
Mof_H 	H 	0.6871	0.256	0.3178	0.036
Mof_C 	C 	0.7041	0.3429	0.6772	-0.3
Mof_C 	C 	0.7371	0.3138	0.639	0.241
Mof_H 	H 	0.7666	0.3101	0.6609	-0.031
Mof_C 	C 	0.6293	0.271	0.44	0.025
Mof_H 	H 	0.608	0.2634	0.4823	0.037
Mof_H 	H 	0.6201	0.3008	0.4177	0.036
Mof_C 	C 	0.7316	0.98017	0.3743	0.493
Mof_C 	C 	0.7143	0.3666	0.751	0.532
Mof_C 	C 	0.7121	0.3123	0.1056	0.189
Mof_H 	H 	0.7415	0.3042	0.0869	-0.017
Mof_C 	C 	0.6632	0.1109	0.3666	0.352
Mof_C 	C 	0.7289	0.0641	0.3982	0.264
Mof_H 	H 	0.7592	0.0617	0.4179	-0.053
Mof_C 	C 	0.5071	0.1945	0.4194	0.418
Mof_C 	C 	0.7041	0.3654	0.9924	0.486
Mof_C 	C 	0.7267	0.2913	0.5716	-0.343
Mof_H 	H 	0.7483	0.2713	0.5486	0.163
Mof_C 	C 	0.6512	0.3264	0.571	-0.372
Mof_H 	H 	0.6223	0.331	0.5471	0.158
Mof_C 	C 	0.6962	0.2913	0.1765	-0.294
Mof_H 	H 	0.7144	0.2699	0.2042	0.134
Mof_C 	C 	0.6606	0.3483	0.6407	0.252
Mof_H 	H 	0.6378	0.3669	0.664	-0.059
Mof_O 	O 	0.352	0.1266	0.4838	-0.353
Mof_C 	C 	0.6245	0.3353	0.1598	-0.29
Mof_H 	H 	0.5947	0.3426	0.1777	0.126
Mof_C 	C 	0.6633	0.0288	0.341	0.252
Mof_H 	H 	0.6486	0.0023	0.3212	-0.038
Mof_C 	C 	0.6414	0.3551	0.0915	0.183
Mof_H 	H 	0.623	0.3761	0.0634	-0.041
Mof_C 	C 	0.7071	0.1075	0.3956	-0.365
Mof_H 	H 	0.7226	0.1341	0.4137	0.163
Mof_C 	C 	0.4162	0.1631	0.4206	-0.318
Mof_C 	C 	0.6408	0.0715	0.3381	-0.342
Mof_H 	H 	0.6108	0.0738	0.3172	0.166
Mof_C 	C 	0.4912	0.1718	0.4808	-0.45
Mof_H 	H 	0.5116	0.1655	0.5219	0.202
Mof_C 	C 	0.4472	0.1576	0.4862	0.306
Mof_H 	H 	0.4364	0.1441	0.5324	-0.056
Mof_Zn	Zn	0.3228	0.56671	0.86751	1.192
Mof_Zn	Zn	0.21879	0.62308	0.88132	1.242
Mof_O 	O 	0.32363	0.72653	0.4688	-0.264
Mof_O 	O 	0.36792	0.71377	0.2686	-0.251
Mof_O 	O 	0.44619	0.79225	0.4232	-0.277
Mof_O 	O 	0.36102	0.84795	0.3588	-0.265
Mof_C 	C 	0.37192	0.76653	0.3783	-0.002
Mof_O 	O 	0.31204	0.60135	0.7726	-0.575
Mof_O 	O 	0.22505	0.02012	0.3852	-0.555
Mof_C 	C 	0.3473	0.6957	0.2015	0.288
Mof_C 	C 	0.42394	0.7736	0.3545	0.039
Mof_H 	H 	0.4381	0.744	0.3395	0.027
Mof_H 	H 	0.4265	0.7952	0.311	0.042
Mof_O 	O 	0.6585	0.84815	0.3694	-0.474
Mof_O 	O 	0.25436	0.64214	0.9719	-0.515
Mof_C 	C 	0.29307	0.97482	0.3725	-0.315
Mof_C 	C 	0.3135	0.6567	0.0644	-0.26
Mof_C 	C 	0.31716	0.7014	0.5367	0.347
Mof_O 	O 	0.25099	0.64593	0.7878	-0.522
Mof_C 	C 	0.5219	0.7973	0.3573	-0.42
Mof_H 	H 	0.5115	0.7809	0.3137	0.179
Mof_O 	O 	0.32359	0.6082	0.9575	-0.559
Mof_C 	C 	0.56715	0.8142	0.361	0.314
Mof_H 	H 	0.5867	0.809	0.3184	-0.056
Mof_C 	C 	0.3499	0.8109	0.4084	0.051
Mof_H 	H 	0.3613	0.8175	0.4608	0.04
Mof_H 	H 	0.3162	0.8072	0.411	0.025
Mof_C 	C 	0.634	0.8533	0.4276	0.476
Mof_O 	O 	0.29245	0.05619	0.3643	-0.507
Mof_C 	C 	0.3447	0.75258	0.3041	0.02
Mof_H 	H 	0.3436	0.7787	0.2679	0.041
Mof_H 	H 	0.3129	0.744	0.3178	0.036
Mof_C 	C 	0.2959	0.6571	0.6772	-0.3
Mof_C 	C 	0.2629	0.6862	0.639	0.241
Mof_H 	H 	0.2334	0.6899	0.6609	-0.031
Mof_C 	C 	0.3707	0.729	0.44	0.025
Mof_H 	H 	0.392	0.7366	0.4823	0.037
Mof_H 	H 	0.3799	0.6992	0.4177	0.036
Mof_C 	C 	0.2684	0.01983	0.3743	0.493
Mof_C 	C 	0.2857	0.6334	0.751	0.532
Mof_C 	C 	0.2879	0.6877	0.1056	0.189
Mof_H 	H 	0.2585	0.6958	0.0869	-0.017
Mof_C 	C 	0.3368	0.8891	0.3666	0.352
Mof_C 	C 	0.2711	0.9359	0.3982	0.264
Mof_H 	H 	0.2408	0.9383	0.4179	-0.053
Mof_C 	C 	0.4929	0.8055	0.4194	0.418
Mof_C 	C 	0.2959	0.6346	0.9924	0.486
Mof_C 	C 	0.2733	0.7087	0.5716	-0.343
Mof_H 	H 	0.2517	0.7287	0.5486	0.163
Mof_C 	C 	0.3488	0.6736	0.571	-0.372
Mof_H 	H 	0.3777	0.669	0.5471	0.158
Mof_C 	C 	0.3038	0.7087	0.1765	-0.294
Mof_H 	H 	0.2856	0.7301	0.2042	0.134
Mof_C 	C 	0.3394	0.6517	0.6407	0.252
Mof_H 	H 	0.3622	0.6331	0.664	-0.059
Mof_O 	O 	0.648	0.8734	0.4838	-0.353
Mof_C 	C 	0.3755	0.6647	0.1598	-0.29
Mof_H 	H 	0.4053	0.6574	0.1777	0.126
Mof_C 	C 	0.3367	0.9712	0.341	0.252
Mof_H 	H 	0.3514	0.9977	0.3212	-0.038
Mof_C 	C 	0.3586	0.6449	0.0915	0.183
Mof_H 	H 	0.377	0.6239	0.0634	-0.041
Mof_C 	C 	0.2929	0.8925	0.3956	-0.365
Mof_H 	H 	0.2774	0.8659	0.4137	0.163
Mof_C 	C 	0.5838	0.8369	0.4206	-0.318
Mof_C 	C 	0.3592	0.9285	0.3381	-0.342
Mof_H 	H 	0.3892	0.9262	0.3172	0.166
Mof_C 	C 	0.5088	0.8282	0.4808	-0.45
Mof_H 	H 	0.4884	0.8345	0.5219	0.202
Mof_C 	C 	0.5528	0.8424	0.4862	0.306
Mof_H 	H 	0.5636	0.8559	0.5324	-0.056
Mof_Zn	Zn	0.06671	0.8228	0.63249	1.192
Mof_Zn	Zn	0.12308	0.71879	0.61868	1.242
Mof_O 	O 	0.22653	0.82363	0.0312	-0.264
Mof_O 	O 	0.21377	0.86792	0.2314	-0.251
Mof_O 	O 	0.29225	0.94619	0.0768	-0.277
Mof_O 	O 	0.34795	0.86102	0.1412	-0.265
Mof_C 	C 	0.26653	0.87192	0.1217	-0.002
Mof_O 	O 	0.10135	0.81204	0.7274	-0.575
Mof_O 	O 	0.52012	0.72505	0.1148	-0.555
Mof_C 	C 	0.1957	0.8473	0.2985	0.288
Mof_C 	C 	0.2736	0.92394	0.1455	0.039
Mof_H 	H 	0.244	0.9381	0.1605	0.027
Mof_H 	H 	0.2952	0.9265	0.189	0.042
Mof_O 	O 	0.34815	0.1585	0.1306	-0.474
Mof_O 	O 	0.14214	0.75436	0.5281	-0.515
Mof_C 	C 	0.47482	0.79307	0.1275	-0.315
Mof_C 	C 	0.1567	0.8135	0.4356	-0.26
Mof_C 	C 	0.2014	0.81716	0.9633	0.347
Mof_O 	O 	0.14593	0.75099	0.7122	-0.522
Mof_C 	C 	0.2973	0.0219	0.1427	-0.42
Mof_H 	H 	0.2809	0.0115	0.1863	0.179
Mof_O 	O 	0.1082	0.82359	0.5425	-0.559
Mof_C 	C 	0.3142	0.06715	0.139	0.314
Mof_H 	H 	0.309	0.0867	0.1816	-0.056
Mof_C 	C 	0.3109	0.8499	0.0916	0.051
Mof_H 	H 	0.3175	0.8613	0.0392	0.04
Mof_H 	H 	0.3072	0.8162	0.089	0.025
Mof_C 	C 	0.3533	0.134	0.0724	0.476
Mof_O 	O 	0.55619	0.79245	0.1357	-0.507
Mof_C 	C 	0.25258	0.8447	0.1959	0.02
Mof_H 	H 	0.2787	0.8436	0.2321	0.041
Mof_H 	H 	0.244	0.8129	0.1822	0.036
Mof_C 	C 	0.1571	0.7959	0.8228	-0.3
Mof_C 	C 	0.1862	0.7629	0.861	0.241
Mof_H 	H 	0.1899	0.7334	0.8391	-0.031
Mof_C 	C 	0.229	0.8707	0.06	0.025
Mof_H 	H 	0.2366	0.892	0.0177	0.037
Mof_H 	H 	0.1992	0.8799	0.0823	0.036
Mof_C 	C 	0.51983	0.7684	0.1257	0.493
Mof_C 	C 	0.1334	0.7857	0.749	0.532
Mof_C 	C 	0.1877	0.7879	0.3944	0.189
Mof_H 	H 	0.1958	0.7585	0.4131	-0.017
Mof_C 	C 	0.3891	0.8368	0.1334	0.352
Mof_C 	C 	0.4359	0.7711	0.1018	0.264
Mof_H 	H 	0.4383	0.7408	0.0821	-0.053
Mof_C 	C 	0.3055	0.9929	0.0806	0.418
Mof_C 	C 	0.1346	0.7959	0.5076	0.486
Mof_C 	C 	0.2087	0.7733	0.9284	-0.343
Mof_H 	H 	0.2287	0.7517	0.9514	0.163
Mof_C 	C 	0.1736	0.8488	0.929	-0.372
Mof_H 	H 	0.169	0.8777	0.9529	0.158
Mof_C 	C 	0.2087	0.8038	0.3235	-0.294
Mof_H 	H 	0.2301	0.7856	0.2958	0.134
Mof_C 	C 	0.1517	0.8394	0.8593	0.252
Mof_H 	H 	0.1331	0.8622	0.836	-0.059
Mof_O 	O 	0.3734	0.148	0.0162	-0.353
Mof_C 	C 	0.1647	0.8755	0.3402	-0.29
Mof_H 	H 	0.1574	0.9053	0.3223	0.126
Mof_C 	C 	0.4712	0.8367	0.159	0.252
Mof_H 	H 	0.4977	0.8514	0.1788	-0.038
Mof_C 	C 	0.1449	0.8586	0.4085	0.183
Mof_H 	H 	0.1239	0.877	0.4366	-0.041
Mof_C 	C 	0.3925	0.7929	0.1044	-0.365
Mof_H 	H 	0.3659	0.7774	0.0863	0.163
Mof_C 	C 	0.3369	0.0838	0.0794	-0.318
Mof_C 	C 	0.4285	0.8592	0.1619	-0.342
Mof_H 	H 	0.4262	0.8892	0.1828	0.166
Mof_C 	C 	0.3282	0.0088	0.0192	-0.45
Mof_H 	H 	0.3345	0.9884	0.9781	0.202
Mof_C 	C 	0.3424	0.0528	0.0138	0.306
Mof_H 	H 	0.3559	0.0636	0.9676	-0.056
Mof_Zn	Zn	0.93329	0.1772	0.63249	1.192
Mof_Zn	Zn	0.87692	0.28121	0.61868	1.242
Mof_O 	O 	0.77347	0.17637	0.0312	-0.264
Mof_O 	O 	0.78623	0.13208	0.2314	-0.251
Mof_O 	O 	0.70775	0.05381	0.0768	-0.277
Mof_O 	O 	0.65205	0.13898	0.1412	-0.265
Mof_C 	C 	0.73347	0.12808	0.1217	-0.002
Mof_O 	O 	0.89865	0.18796	0.7274	-0.575
Mof_O 	O 	0.47988	0.27495	0.1148	-0.555
Mof_C 	C 	0.8043	0.1527	0.2985	0.288
Mof_C 	C 	0.7264	0.07606	0.1455	0.039
Mof_H 	H 	0.756	0.0619	0.1605	0.027
Mof_H 	H 	0.7048	0.0735	0.189	0.042
Mof_O 	O 	0.65185	0.8415	0.1306	-0.474
Mof_O 	O 	0.85786	0.24564	0.5281	-0.515
Mof_C 	C 	0.52518	0.20693	0.1275	-0.315
Mof_C 	C 	0.8433	0.1865	0.4356	-0.26
Mof_C 	C 	0.7986	0.18284	0.9633	0.347
Mof_O 	O 	0.85407	0.24901	0.7122	-0.522
Mof_C 	C 	0.7027	0.9781	0.1427	-0.42
Mof_H 	H 	0.7191	0.9885	0.1863	0.179
Mof_O 	O 	0.8918	0.17641	0.5425	-0.559
Mof_C 	C 	0.6858	0.93285	0.139	0.314
Mof_H 	H 	0.691	0.9133	0.1816	-0.056
Mof_C 	C 	0.6891	0.1501	0.0916	0.051
Mof_H 	H 	0.6825	0.1387	0.0392	0.04
Mof_H 	H 	0.6928	0.1838	0.089	0.025
Mof_C 	C 	0.6467	0.866	0.0724	0.476
Mof_O 	O 	0.44381	0.20755	0.1357	-0.507
Mof_C 	C 	0.74742	0.1553	0.1959	0.02
Mof_H 	H 	0.7213	0.1564	0.2321	0.041
Mof_H 	H 	0.756	0.1871	0.1822	0.036
Mof_C 	C 	0.8429	0.2041	0.8228	-0.3
Mof_C 	C 	0.8138	0.2371	0.861	0.241
Mof_H 	H 	0.8101	0.2666	0.8391	-0.031
Mof_C 	C 	0.771	0.1293	0.06	0.025
Mof_H 	H 	0.7634	0.108	0.0177	0.037
Mof_H 	H 	0.8008	0.1201	0.0823	0.036
Mof_C 	C 	0.48017	0.2316	0.1257	0.493
Mof_C 	C 	0.8666	0.2143	0.749	0.532
Mof_C 	C 	0.8123	0.2121	0.3944	0.189
Mof_H 	H 	0.8042	0.2415	0.4131	-0.017
Mof_C 	C 	0.6109	0.1632	0.1334	0.352
Mof_C 	C 	0.5641	0.2289	0.1018	0.264
Mof_H 	H 	0.5617	0.2592	0.0821	-0.053
Mof_C 	C 	0.6945	0.0071	0.0806	0.418
Mof_C 	C 	0.8654	0.2041	0.5076	0.486
Mof_C 	C 	0.7913	0.2267	0.9284	-0.343
Mof_H 	H 	0.7713	0.2483	0.9514	0.163
Mof_C 	C 	0.8264	0.1512	0.929	-0.372
Mof_H 	H 	0.831	0.1223	0.9529	0.158
Mof_C 	C 	0.7913	0.1962	0.3235	-0.294
Mof_H 	H 	0.7699	0.2144	0.2958	0.134
Mof_C 	C 	0.8483	0.1606	0.8593	0.252
Mof_H 	H 	0.8669	0.1378	0.836	-0.059
Mof_O 	O 	0.6266	0.852	0.0162	-0.353
Mof_C 	C 	0.8353	0.1245	0.3402	-0.29
Mof_H 	H 	0.8426	0.0947	0.3223	0.126
Mof_C 	C 	0.5288	0.1633	0.159	0.252
Mof_H 	H 	0.5023	0.1486	0.1788	-0.038
Mof_C 	C 	0.8551	0.1414	0.4085	0.183
Mof_H 	H 	0.8761	0.123	0.4366	-0.041
Mof_C 	C 	0.6075	0.2071	0.1044	-0.365
Mof_H 	H 	0.6341	0.2226	0.0863	0.163
Mof_C 	C 	0.6631	0.9162	0.0794	-0.318
Mof_C 	C 	0.5715	0.1408	0.1619	-0.342
Mof_H 	H 	0.5738	0.1108	0.1828	0.166
Mof_C 	C 	0.6718	0.9912	0.0192	-0.45
Mof_H 	H 	0.6655	0.0116	0.9781	0.202
Mof_C 	C 	0.6576	0.9472	0.0138	0.306
Mof_H 	H 	0.6441	0.9364	0.9676	-0.056
Mof_Zn	Zn	0.56671	0.6772	0.13249	1.192
Mof_Zn	Zn	0.62308	0.78121	0.11868	1.242
Mof_O 	O 	0.72653	0.67637	0.5312	-0.264
Mof_O 	O 	0.71377	0.63208	0.7314	-0.251
Mof_O 	O 	0.79225	0.55381	0.5768	-0.277
Mof_O 	O 	0.84795	0.63898	0.6412	-0.265
Mof_C 	C 	0.76653	0.62808	0.6217	-0.002
Mof_O 	O 	0.60135	0.68796	0.2274	-0.575
Mof_O 	O 	0.02012	0.77495	0.6148	-0.555
Mof_C 	C 	0.6957	0.6527	0.7985	0.288
Mof_C 	C 	0.7736	0.57606	0.6455	0.039
Mof_H 	H 	0.744	0.5619	0.6605	0.027
Mof_H 	H 	0.7952	0.5735	0.689	0.042
Mof_O 	O 	0.84815	0.3415	0.6306	-0.474
Mof_O 	O 	0.64214	0.74564	0.0281	-0.515
Mof_C 	C 	0.97482	0.70693	0.6275	-0.315
Mof_C 	C 	0.6567	0.6865	0.9356	-0.26
Mof_C 	C 	0.7014	0.68284	0.4633	0.347
Mof_O 	O 	0.64593	0.74901	0.2122	-0.522
Mof_C 	C 	0.7973	0.4781	0.6427	-0.42
Mof_H 	H 	0.7809	0.4885	0.6863	0.179
Mof_O 	O 	0.6082	0.67641	0.0425	-0.559
Mof_C 	C 	0.8142	0.43285	0.639	0.314
Mof_H 	H 	0.809	0.4133	0.6816	-0.056
Mof_C 	C 	0.8109	0.6501	0.5916	0.051
Mof_H 	H 	0.8175	0.6387	0.5392	0.04
Mof_H 	H 	0.8072	0.6838	0.589	0.025
Mof_C 	C 	0.8533	0.366	0.5724	0.476
Mof_O 	O 	0.05619	0.70755	0.6357	-0.507
Mof_C 	C 	0.75258	0.6553	0.6959	0.02
Mof_H 	H 	0.7787	0.6564	0.7321	0.041
Mof_H 	H 	0.744	0.6871	0.6822	0.036
Mof_C 	C 	0.6571	0.7041	0.3228	-0.3
Mof_C 	C 	0.6862	0.7371	0.361	0.241
Mof_H 	H 	0.6899	0.7666	0.3391	-0.031
Mof_C 	C 	0.729	0.6293	0.56	0.025
Mof_H 	H 	0.7366	0.608	0.5177	0.037
Mof_H 	H 	0.6992	0.6201	0.5823	0.036
Mof_C 	C 	0.01983	0.7316	0.6257	0.493
Mof_C 	C 	0.6334	0.7143	0.249	0.532
Mof_C 	C 	0.6877	0.7121	0.8944	0.189
Mof_H 	H 	0.6958	0.7415	0.9131	-0.017
Mof_C 	C 	0.8891	0.6632	0.6334	0.352
Mof_C 	C 	0.9359	0.7289	0.6018	0.264
Mof_H 	H 	0.9383	0.7592	0.5821	-0.053
Mof_C 	C 	0.8055	0.5071	0.5806	0.418
Mof_C 	C 	0.6346	0.7041	0.0076	0.486
Mof_C 	C 	0.7087	0.7267	0.4284	-0.343
Mof_H 	H 	0.7287	0.7483	0.4514	0.163
Mof_C 	C 	0.6736	0.6512	0.429	-0.372
Mof_H 	H 	0.669	0.6223	0.4529	0.158
Mof_C 	C 	0.7087	0.6962	0.8235	-0.294
Mof_H 	H 	0.7301	0.7144	0.7958	0.134
Mof_C 	C 	0.6517	0.6606	0.3593	0.252
Mof_H 	H 	0.6331	0.6378	0.336	-0.059
Mof_O 	O 	0.8734	0.352	0.5162	-0.353
Mof_C 	C 	0.6647	0.6245	0.8402	-0.29
Mof_H 	H 	0.6574	0.5947	0.8223	0.126
Mof_C 	C 	0.9712	0.6633	0.659	0.252
Mof_H 	H 	0.9977	0.6486	0.6788	-0.038
Mof_C 	C 	0.6449	0.6414	0.9085	0.183
Mof_H 	H 	0.6239	0.623	0.9366	-0.041
Mof_C 	C 	0.8925	0.7071	0.6044	-0.365
Mof_H 	H 	0.8659	0.7226	0.5863	0.163
Mof_C 	C 	0.8369	0.4162	0.5794	-0.318
Mof_C 	C 	0.9285	0.6408	0.6619	-0.342
Mof_H 	H 	0.9262	0.6108	0.6828	0.166
Mof_C 	C 	0.8282	0.4912	0.5192	-0.45
Mof_H 	H 	0.8345	0.5116	0.4781	0.202
Mof_C 	C 	0.8424	0.4472	0.5138	0.306
Mof_H 	H 	0.8559	0.4364	0.4676	-0.056
Mof_Zn	Zn	0.43329	0.3228	0.13249	1.192
Mof_Zn	Zn	0.37692	0.21879	0.11868	1.242
Mof_O 	O 	0.27347	0.32363	0.5312	-0.264
Mof_O 	O 	0.28623	0.36792	0.7314	-0.251
Mof_O 	O 	0.20775	0.44619	0.5768	-0.277
Mof_O 	O 	0.15205	0.36102	0.6412	-0.265
Mof_C 	C 	0.23347	0.37192	0.6217	-0.002
Mof_O 	O 	0.39865	0.31204	0.2274	-0.575
Mof_O 	O 	0.97988	0.22505	0.6148	-0.555
Mof_C 	C 	0.3043	0.3473	0.7985	0.288
Mof_C 	C 	0.2264	0.42394	0.6455	0.039
Mof_H 	H 	0.256	0.4381	0.6605	0.027
Mof_H 	H 	0.2048	0.4265	0.689	0.042
Mof_O 	O 	0.15185	0.6585	0.6306	-0.474
Mof_O 	O 	0.35786	0.25436	0.0281	-0.515
Mof_C 	C 	0.02518	0.29307	0.6275	-0.315
Mof_C 	C 	0.3433	0.3135	0.9356	-0.26
Mof_C 	C 	0.2986	0.31716	0.4633	0.347
Mof_O 	O 	0.35407	0.25099	0.2122	-0.522
Mof_C 	C 	0.2027	0.5219	0.6427	-0.42
Mof_H 	H 	0.2191	0.5115	0.6863	0.179
Mof_O 	O 	0.3918	0.32359	0.0425	-0.559
Mof_C 	C 	0.1858	0.56715	0.639	0.314
Mof_H 	H 	0.191	0.5867	0.6816	-0.056
Mof_C 	C 	0.1891	0.3499	0.5916	0.051
Mof_H 	H 	0.1825	0.3613	0.5392	0.04
Mof_H 	H 	0.1928	0.3162	0.589	0.025
Mof_C 	C 	0.1467	0.634	0.5724	0.476
Mof_O 	O 	0.94381	0.29245	0.6357	-0.507
Mof_C 	C 	0.24742	0.3447	0.6959	0.02
Mof_H 	H 	0.2213	0.3436	0.7321	0.041
Mof_H 	H 	0.256	0.3129	0.6822	0.036
Mof_C 	C 	0.3429	0.2959	0.3228	-0.3
Mof_C 	C 	0.3138	0.2629	0.361	0.241
Mof_H 	H 	0.3101	0.2334	0.3391	-0.031
Mof_C 	C 	0.271	0.3707	0.56	0.025
Mof_H 	H 	0.2634	0.392	0.5177	0.037
Mof_H 	H 	0.3008	0.3799	0.5823	0.036
Mof_C 	C 	0.98017	0.2684	0.6257	0.493
Mof_C 	C 	0.3666	0.2857	0.249	0.532
Mof_C 	C 	0.3123	0.2879	0.8944	0.189
Mof_H 	H 	0.3042	0.2585	0.9131	-0.017
Mof_C 	C 	0.1109	0.3368	0.6334	0.352
Mof_C 	C 	0.0641	0.2711	0.6018	0.264
Mof_H 	H 	0.0617	0.2408	0.5821	-0.053
Mof_C 	C 	0.1945	0.4929	0.5806	0.418
Mof_C 	C 	0.3654	0.2959	0.0076	0.486
Mof_C 	C 	0.2913	0.2733	0.4284	-0.343
Mof_H 	H 	0.2713	0.2517	0.4514	0.163
Mof_C 	C 	0.3264	0.3488	0.429	-0.372
Mof_H 	H 	0.331	0.3777	0.4529	0.158
Mof_C 	C 	0.2913	0.3038	0.8235	-0.294
Mof_H 	H 	0.2699	0.2856	0.7958	0.134
Mof_C 	C 	0.3483	0.3394	0.3593	0.252
Mof_H 	H 	0.3669	0.3622	0.336	-0.059
Mof_O 	O 	0.1266	0.648	0.5162	-0.353
Mof_C 	C 	0.3353	0.3755	0.8402	-0.29
Mof_H 	H 	0.3426	0.4053	0.8223	0.126
Mof_C 	C 	0.0288	0.3367	0.659	0.252
Mof_H 	H 	0.0023	0.3514	0.6788	-0.038
Mof_C 	C 	0.3551	0.3586	0.9085	0.183
Mof_H 	H 	0.3761	0.377	0.9366	-0.041
Mof_C 	C 	0.1075	0.2929	0.6044	-0.365
Mof_H 	H 	0.1341	0.2774	0.5863	0.163
Mof_C 	C 	0.1631	0.5838	0.5794	-0.318
Mof_C 	C 	0.0715	0.3592	0.6619	-0.342
Mof_H 	H 	0.0738	0.3892	0.6828	0.166
Mof_C 	C 	0.1718	0.5088	0.5192	-0.45
Mof_H 	H 	0.1655	0.4884	0.4781	0.202
Mof_C 	C 	0.1576	0.5528	0.5138	0.306
Mof_H 	H 	0.1441	0.5636	0.4676	-0.056
_end
