data_functionalizedCrystal
_audit_creation_method	'EQeq! by Chris Wilmer'
_symmetry_space_group_name_H-M	'P1'
_symmetry_Int_Tables_number	1
_symmetry_cell_setting	triclinic
loop_
_symmetry_equiv_pos_as_xyz
  x,y,z
_cell_length_a	41.702
_cell_length_b	9.8988
_cell_length_c	18.444
_cell_angle_alpha	90
_cell_angle_beta	103.422
_cell_angle_gamma	90
loop_
_atom_site_label
_atom_site_type_symbol
_atom_site_fract_x
_atom_site_fract_y
_atom_site_fract_z
_atom_site_charge
Mof_Cd	Cd	0.66146	0.32227	0.45308	0.455
Mof_O 	O 	0.6643	0.1652	0.3704	-0.305
Mof_O 	O 	0.71597	0.1113	0.4208	-0.291
Mof_O 	O 	0.6705	0.8107	0.0525	-0.285
Mof_O 	O 	0.7251	0.7866	0.0935	-0.284
Mof_O 	O 	0.71262	0.4175	0.4539	-0.288
Mof_O 	O 	0.68049	0.5306	0.5123	-0.264
Mof_C 	C 	0.691	0.1122	0.3695	0.346
Mof_C 	C 	0.6935	0.0378	0.3005	-0.073
Mof_C 	C 	0.7223	0.9834	0.2916	-0.007
Mof_H 	H 	0.7417	0.9915	0.3304	0.055
Mof_C 	C 	0.7237	0.9156	0.2257	-0.029
Mof_H 	H 	0.744	0.8786	0.2203	0.06
Mof_C 	C 	0.6963	0.9018	0.1692	-0.053
Mof_C 	C 	0.6667	0.9553	0.1783	-0.03
Mof_H 	H 	0.6474	0.9454	0.1398	0.055
Mof_C 	C 	0.6653	0.0225	0.2425	-0.01
Mof_H 	H 	0.6449	0.059	0.2478	0.044
Mof_C 	C 	0.6977	0.8266	0.0996	0.315
Mof_C 	C 	0.7068	0.5239	0.4887	0.282
Mof_C 	C 	0.7291	0.64	0.4949	-0.053
Mof_C 	C 	0.726	0.7491	0.5414	-0.02
Mof_H 	H 	0.7098	0.7475	0.5702	0.055
Mof_C 	C 	0.7467	0.8588	0.5448	-0.017
Mof_H 	H 	0.7443	0.9343	0.5749	0.058
Mof_N 	N 	0.6074	0.3876	0.4593	-0.066
Mof_C 	C 	0.5931	0.4989	0.4184	-0.041
Mof_H 	H 	0.6033	0.5386	0.3826	0.045
Mof_C 	C 	0.5638	0.5519	0.4298	-0.145
Mof_H 	H 	0.554	0.628	0.4018	0.102
Mof_C 	C 	0.5488	0.4937	0.4822	0.036
Mof_C 	C 	0.5632	0.3825	0.5231	-0.408
Mof_H 	H 	0.553	0.3427	0.5589	0.19
Mof_C 	C 	0.5925	0.3294	0.5117	0.192
Mof_H 	H 	0.6023	0.2533	0.5397	-0.007
Mof_N 	N 	0.3887	0.6875	0.5334	-0.125
Mof_C 	C 	0.4069	0.5716	0.5287	-0.045
Mof_H 	H 	0.3966	0.4855	0.5252	0.085
Mof_C 	C 	0.4402	0.5817	0.5292	0.218
Mof_H 	H 	0.4527	0.5024	0.526	0.014
Mof_C 	C 	0.4553	0.7077	0.5343	0.094
Mof_C 	C 	0.4371	0.8236	0.539	-0.124
Mof_H 	H 	0.4474	0.9097	0.5425	0.112
Mof_C 	C 	0.4038	0.8135	0.5385	0.01
Mof_H 	H 	0.3913	0.8928	0.5417	0.046
Mof_F 	F 	0.4733	0.922	0.409	-0.587
Mof_C 	C 	0.5154	0.557	0.4937	-0.257
Mof_H 	H 	0.4969	0.493	0.4734	0.148
Mof_C 	C 	0.5048	0.702	0.4651	0.191
Mof_H 	H 	0.5245	0.7608	0.4661	0.008
Mof_C 	C 	0.4913	0.724	0.5348	-0.151
Mof_H 	H 	0.5002	0.8092	0.5606	0.131
Mof_C 	C 	0.5138	0.597	0.5704	0.063
Mof_H 	H 	0.5005	0.5307	0.5918	0.027
Mof_C 	C 	0.4819	0.701	0.3892	-0.334
Mof_C 	C 	0.4672	0.827	0.37	0.658
Mof_C 	C 	0.4424	0.84	0.305	-0.468
Mof_H 	H 	0.4324	0.9257	0.2923	0.22
Mof_C 	C 	0.4323	0.729	0.2602	0.28
Mof_H 	H 	0.4153	0.7379	0.2161	-0.059
Mof_C 	C 	0.4469	0.604	0.2794	-0.274
Mof_H 	H 	0.44	0.5273	0.2485	0.157
Mof_C 	C 	0.4717	0.59	0.3439	0.236
Mof_H 	H 	0.4817	0.5044	0.3571	0.001
Mof_F 	F 	0.5196	0.574	0.7311	-0.443
Mof_C 	C 	0.5418	0.653	0.6311	-0.169
Mof_C 	C 	0.5432	0.631	0.7062	0.416
Mof_C 	C 	0.5684	0.688	0.7602	-0.306
Mof_H 	H 	0.5693	0.6726	0.8115	0.164
Mof_C 	C 	0.5923	0.766	0.7391	0.146
Mof_H 	H 	0.6096	0.8053	0.776	-0.007
Mof_C 	C 	0.5909	0.788	0.664	-0.174
Mof_H 	H 	0.6072	0.8422	0.6495	0.095
Mof_C 	C 	0.5657	0.731	0.61	0.105
Mof_H 	H 	0.5647	0.7463	0.5586	0.015
Mof_Cd	Cd	0.16146	0.82227	0.45308	0.456
Mof_O 	O 	0.1643	0.6652	0.3704	-0.304
Mof_O 	O 	0.21597	0.6113	0.4208	-0.291
Mof_O 	O 	0.1705	0.3107	0.0525	-0.285
Mof_O 	O 	0.2251	0.2866	0.0935	-0.284
Mof_O 	O 	0.21262	0.9175	0.4539	-0.288
Mof_O 	O 	0.18049	0.0306	0.5123	-0.264
Mof_C 	C 	0.191	0.6122	0.3695	0.346
Mof_C 	C 	0.1935	0.5378	0.3005	-0.073
Mof_C 	C 	0.2223	0.4834	0.2916	-0.007
Mof_H 	H 	0.2417	0.4915	0.3304	0.055
Mof_C 	C 	0.2237	0.4156	0.2257	-0.029
Mof_H 	H 	0.244	0.3786	0.2203	0.06
Mof_C 	C 	0.1963	0.4018	0.1692	-0.053
Mof_C 	C 	0.1667	0.4553	0.1783	-0.031
Mof_H 	H 	0.1474	0.4454	0.1398	0.055
Mof_C 	C 	0.1653	0.5225	0.2425	-0.01
Mof_H 	H 	0.1449	0.559	0.2478	0.044
Mof_C 	C 	0.1977	0.3266	0.0996	0.315
Mof_C 	C 	0.2068	0.0239	0.4887	0.282
Mof_C 	C 	0.2291	0.14	0.4949	-0.053
Mof_C 	C 	0.226	0.2491	0.5414	-0.02
Mof_H 	H 	0.2098	0.2475	0.5702	0.055
Mof_C 	C 	0.2467	0.3588	0.5448	-0.017
Mof_H 	H 	0.2443	0.4343	0.5749	0.058
Mof_N 	N 	0.1074	0.8876	0.4593	-0.066
Mof_C 	C 	0.0931	0.9989	0.4184	-0.041
Mof_H 	H 	0.1033	0.0386	0.3826	0.045
Mof_C 	C 	0.0638	0.0519	0.4298	-0.145
Mof_H 	H 	0.054	0.128	0.4018	0.102
Mof_C 	C 	0.0488	0.9937	0.4822	0.036
Mof_C 	C 	0.0632	0.8825	0.5231	-0.408
Mof_H 	H 	0.053	0.8427	0.5589	0.19
Mof_C 	C 	0.0925	0.8294	0.5117	0.192
Mof_H 	H 	0.1023	0.7533	0.5397	-0.007
Mof_N 	N 	0.8887	0.1875	0.5334	-0.125
Mof_C 	C 	0.9069	0.0716	0.5287	-0.044
Mof_H 	H 	0.8966	0.9855	0.5252	0.084
Mof_C 	C 	0.9402	0.0817	0.5292	0.218
Mof_H 	H 	0.9527	0.0024	0.526	0.015
Mof_C 	C 	0.9553	0.2077	0.5343	0.094
Mof_C 	C 	0.9371	0.3236	0.539	-0.124
Mof_H 	H 	0.9474	0.4097	0.5425	0.112
Mof_C 	C 	0.9038	0.3135	0.5385	0.01
Mof_H 	H 	0.8913	0.3928	0.5417	0.046
Mof_F 	F 	0.9733	0.422	0.409	-0.587
Mof_C 	C 	0.0154	0.057	0.4937	-0.257
Mof_H 	H 	0.9969	0.993	0.4734	0.148
Mof_C 	C 	0.0048	0.202	0.4651	0.19
Mof_H 	H 	0.0245	0.2608	0.4661	0.008
Mof_C 	C 	0.9913	0.224	0.5348	-0.151
Mof_H 	H 	0.0002	0.3092	0.5606	0.131
Mof_C 	C 	0.0138	0.097	0.5704	0.062
Mof_H 	H 	0.0005	0.0307	0.5918	0.028
Mof_C 	C 	0.9819	0.201	0.3892	-0.334
Mof_C 	C 	0.9672	0.327	0.37	0.658
Mof_C 	C 	0.9424	0.34	0.305	-0.468
Mof_H 	H 	0.9324	0.4257	0.2923	0.22
Mof_C 	C 	0.9323	0.229	0.2602	0.28
Mof_H 	H 	0.9153	0.2379	0.2161	-0.059
Mof_C 	C 	0.9469	0.104	0.2794	-0.274
Mof_H 	H 	0.94	0.0273	0.2485	0.157
Mof_C 	C 	0.9717	0.09	0.3439	0.236
Mof_H 	H 	0.9817	0.0044	0.3571	0.001
Mof_F 	F 	0.0196	0.074	0.7311	-0.443
Mof_C 	C 	0.0418	0.153	0.6311	-0.169
Mof_C 	C 	0.0432	0.131	0.7062	0.416
Mof_C 	C 	0.0684	0.188	0.7602	-0.306
Mof_H 	H 	0.0693	0.1726	0.8115	0.164
Mof_C 	C 	0.0923	0.266	0.7391	0.146
Mof_H 	H 	0.1096	0.3053	0.776	-0.007
Mof_C 	C 	0.0909	0.288	0.664	-0.174
Mof_H 	H 	0.1072	0.3422	0.6495	0.095
Mof_C 	C 	0.0657	0.231	0.61	0.105
Mof_H 	H 	0.0647	0.2463	0.5586	0.015
Mof_Cd	Cd	0.33854	0.32227	0.04692	0.449
Mof_O 	O 	0.3357	0.1652	0.1296	-0.304
Mof_O 	O 	0.28403	0.1113	0.0792	-0.293
Mof_O 	O 	0.3295	0.8107	0.4475	-0.28
Mof_O 	O 	0.2749	0.7866	0.4065	-0.283
Mof_O 	O 	0.28738	0.4175	0.0461	-0.287
Mof_O 	O 	0.31951	0.5306	0.9877	-0.254
Mof_C 	C 	0.309	0.1122	0.1305	0.346
Mof_C 	C 	0.3065	0.0378	0.1995	-0.074
Mof_C 	C 	0.2777	0.9834	0.2084	-0.005
Mof_H 	H 	0.2583	0.9915	0.1696	0.054
Mof_C 	C 	0.2763	0.9156	0.2743	-0.03
Mof_H 	H 	0.256	0.8786	0.2797	0.06
Mof_C 	C 	0.3037	0.9018	0.3308	-0.052
Mof_C 	C 	0.3333	0.9553	0.3217	-0.031
Mof_H 	H 	0.3526	0.9454	0.3602	0.056
Mof_C 	C 	0.3347	0.0225	0.2575	-0.009
Mof_H 	H 	0.3551	0.059	0.2522	0.044
Mof_C 	C 	0.3023	0.8266	0.4004	0.314
Mof_C 	C 	0.2932	0.5239	0.0113	0.277
Mof_C 	C 	0.2709	0.64	0.0051	-0.072
Mof_C 	C 	0.274	0.7491	0.9586	0.004
Mof_H 	H 	0.2902	0.7475	0.9298	0.049
Mof_C 	C 	0.2533	0.8588	0.9552	-0.033
Mof_H 	H 	0.2557	0.9343	0.9251	0.064
Mof_N 	N 	0.3926	0.3876	0.0407	-0.058
Mof_C 	C 	0.4069	0.4989	0.0816	-0.034
Mof_H 	H 	0.3967	0.5386	0.1174	0.041
Mof_C 	C 	0.4362	0.5519	0.0702	-0.138
Mof_H 	H 	0.446	0.628	0.0982	0.099
Mof_C 	C 	0.4512	0.4937	0.0178	0.044
Mof_C 	C 	0.4368	0.3825	0.9769	-0.367
Mof_H 	H 	0.447	0.3427	0.9411	0.178
Mof_C 	C 	0.4075	0.3294	0.9883	0.207
Mof_H 	H 	0.3977	0.2533	0.9603	-0.009
Mof_N 	N 	0.6113	0.6875	0.9666	-0.117
Mof_C 	C 	0.5931	0.5716	0.9713	-0.029
Mof_H 	H 	0.6034	0.4855	0.9748	0.086
Mof_C 	C 	0.5598	0.5817	0.9708	0.255
Mof_H 	H 	0.5473	0.5024	0.974	0.012
Mof_C 	C 	0.5447	0.7077	0.9657	0.093
Mof_C 	C 	0.5629	0.8236	0.961	-0.12
Mof_H 	H 	0.5526	0.9097	0.9575	0.112
Mof_C 	C 	0.5962	0.8135	0.9615	0.011
Mof_H 	H 	0.6087	0.8928	0.9583	0.047
Mof_F 	F 	0.5267	0.922	0.091	-0.589
Mof_C 	C 	0.4846	0.557	0.0063	-0.271
Mof_H 	H 	0.5031	0.493	0.0266	0.143
Mof_C 	C 	0.4952	0.702	0.0349	0.187
Mof_H 	H 	0.4755	0.7608	0.0339	0.007
Mof_C 	C 	0.5087	0.724	0.9652	-0.145
Mof_H 	H 	0.4998	0.8092	0.9394	0.131
Mof_C 	C 	0.4862	0.597	0.9296	0.069
Mof_H 	H 	0.4995	0.5307	0.9082	0.024
Mof_C 	C 	0.5181	0.701	0.1108	-0.335
Mof_C 	C 	0.5328	0.827	0.13	0.658
Mof_C 	C 	0.5576	0.84	0.195	-0.468
Mof_H 	H 	0.5676	0.9257	0.2077	0.22
Mof_C 	C 	0.5677	0.729	0.2398	0.279
Mof_H 	H 	0.5847	0.7379	0.2839	-0.059
Mof_C 	C 	0.5531	0.604	0.2206	-0.274
Mof_H 	H 	0.56	0.5273	0.2515	0.157
Mof_C 	C 	0.5283	0.59	0.1561	0.236
Mof_H 	H 	0.5183	0.5044	0.1429	0.001
Mof_F 	F 	0.4804	0.574	0.7689	-0.444
Mof_C 	C 	0.4582	0.653	0.8689	-0.171
Mof_C 	C 	0.4568	0.631	0.7938	0.417
Mof_C 	C 	0.4316	0.688	0.7398	-0.307
Mof_H 	H 	0.4307	0.6726	0.6885	0.165
Mof_C 	C 	0.4077	0.766	0.7609	0.147
Mof_H 	H 	0.3904	0.8053	0.724	-0.008
Mof_C 	C 	0.4091	0.788	0.836	-0.175
Mof_H 	H 	0.3928	0.8422	0.8505	0.096
Mof_C 	C 	0.4343	0.731	0.89	0.106
Mof_H 	H 	0.4353	0.7463	0.9414	0.017
Mof_Cd	Cd	0.83854	0.82227	0.04692	0.45
Mof_O 	O 	0.8357	0.6652	0.1296	-0.304
Mof_O 	O 	0.78403	0.6113	0.0792	-0.293
Mof_O 	O 	0.8295	0.3107	0.4475	-0.28
Mof_O 	O 	0.7749	0.2866	0.4065	-0.283
Mof_O 	O 	0.78738	0.9175	0.0461	-0.287
Mof_O 	O 	0.81951	0.0306	0.9877	-0.253
Mof_C 	C 	0.809	0.6122	0.1305	0.346
Mof_C 	C 	0.8065	0.5378	0.1995	-0.074
Mof_C 	C 	0.7777	0.4834	0.2084	-0.006
Mof_H 	H 	0.7583	0.4915	0.1696	0.054
Mof_C 	C 	0.7763	0.4156	0.2743	-0.03
Mof_H 	H 	0.756	0.3786	0.2797	0.06
Mof_C 	C 	0.8037	0.4018	0.3308	-0.052
Mof_C 	C 	0.8333	0.4553	0.3217	-0.032
Mof_H 	H 	0.8526	0.4454	0.3602	0.056
Mof_C 	C 	0.8347	0.5225	0.2575	-0.008
Mof_H 	H 	0.8551	0.559	0.2522	0.044
Mof_C 	C 	0.8023	0.3266	0.4004	0.314
Mof_C 	C 	0.7932	0.0239	0.0113	0.275
Mof_C 	C 	0.7709	0.14	0.0051	-0.074
Mof_C 	C 	0.774	0.2491	0.9586	0.006
Mof_H 	H 	0.7902	0.2475	0.9298	0.049
Mof_C 	C 	0.7533	0.3588	0.9552	-0.034
Mof_H 	H 	0.7557	0.4343	0.9251	0.065
Mof_N 	N 	0.8926	0.8876	0.0407	-0.059
Mof_C 	C 	0.9069	0.9989	0.0816	-0.03
Mof_H 	H 	0.8967	0.0386	0.1174	0.04
Mof_C 	C 	0.9362	0.0519	0.0702	-0.142
Mof_H 	H 	0.946	0.128	0.0982	0.1
Mof_C 	C 	0.9512	0.9937	0.0178	0.043
Mof_C 	C 	0.9368	0.8825	0.9769	-0.372
Mof_H 	H 	0.947	0.8427	0.9411	0.179
Mof_C 	C 	0.9075	0.8294	0.9883	0.207
Mof_H 	H 	0.8977	0.7533	0.9603	-0.009
Mof_N 	N 	0.1113	0.1875	0.9666	-0.116
Mof_C 	C 	0.0931	0.0716	0.9713	-0.029
Mof_H 	H 	0.1034	0.9855	0.9748	0.084
Mof_C 	C 	0.0598	0.0817	0.9708	0.259
Mof_H 	H 	0.0473	0.0024	0.974	0.014
Mof_C 	C 	0.0447	0.2077	0.9657	0.093
Mof_C 	C 	0.0629	0.3236	0.961	-0.12
Mof_H 	H 	0.0526	0.4097	0.9575	0.112
Mof_C 	C 	0.0962	0.3135	0.9615	0.011
Mof_H 	H 	0.1087	0.3928	0.9583	0.047
Mof_F 	F 	0.0267	0.422	0.091	-0.589
Mof_C 	C 	0.9846	0.057	0.0063	-0.274
Mof_H 	H 	0.0031	0.993	0.0266	0.146
Mof_C 	C 	0.9952	0.202	0.0349	0.188
Mof_H 	H 	0.9755	0.2608	0.0339	0.006
Mof_C 	C 	0.0087	0.224	0.9652	-0.145
Mof_H 	H 	0.9998	0.3092	0.9394	0.131
Mof_C 	C 	0.9862	0.097	0.9296	0.07
Mof_H 	H 	0.9995	0.0307	0.9082	0.024
Mof_C 	C 	0.0181	0.201	0.1108	-0.336
Mof_C 	C 	0.0328	0.327	0.13	0.658
Mof_C 	C 	0.0576	0.34	0.195	-0.469
Mof_H 	H 	0.0676	0.4257	0.2077	0.22
Mof_C 	C 	0.0677	0.229	0.2398	0.28
Mof_H 	H 	0.0847	0.2379	0.2839	-0.059
Mof_C 	C 	0.0531	0.104	0.2206	-0.274
Mof_H 	H 	0.06	0.0273	0.2515	0.157
Mof_C 	C 	0.0283	0.09	0.1561	0.236
Mof_H 	H 	0.0183	0.0044	0.1429	0
Mof_F 	F 	0.9804	0.074	0.7689	-0.443
Mof_C 	C 	0.9582	0.153	0.8689	-0.171
Mof_C 	C 	0.9568	0.131	0.7938	0.417
Mof_C 	C 	0.9316	0.188	0.7398	-0.307
Mof_H 	H 	0.9307	0.1726	0.6885	0.165
Mof_C 	C 	0.9077	0.266	0.7609	0.147
Mof_H 	H 	0.8904	0.3053	0.724	-0.007
Mof_C 	C 	0.9091	0.288	0.836	-0.175
Mof_H 	H 	0.8928	0.3422	0.8505	0.096
Mof_C 	C 	0.9343	0.231	0.89	0.106
Mof_H 	H 	0.9353	0.2463	0.9414	0.018
Mof_Cd	Cd	0.33854	0.67773	0.54692	0.456
Mof_O 	O 	0.3357	0.8348	0.6296	-0.304
Mof_O 	O 	0.28403	0.8887	0.5792	-0.291
Mof_O 	O 	0.3295	0.1893	0.9475	-0.274
Mof_O 	O 	0.2749	0.2134	0.9065	-0.278
Mof_O 	O 	0.28738	0.5825	0.5461	-0.288
Mof_O 	O 	0.31951	0.4694	0.4877	-0.264
Mof_C 	C 	0.309	0.8878	0.6305	0.346
Mof_C 	C 	0.3065	0.9622	0.6995	-0.074
Mof_C 	C 	0.2777	0.0166	0.7084	-0.005
Mof_H 	H 	0.2583	0.0085	0.6696	0.055
Mof_C 	C 	0.2763	0.0844	0.7743	-0.03
Mof_H 	H 	0.256	0.1214	0.7797	0.061
Mof_C 	C 	0.3037	0.0982	0.8308	-0.051
Mof_C 	C 	0.3333	0.0447	0.8217	-0.031
Mof_H 	H 	0.3526	0.0546	0.8602	0.057
Mof_C 	C 	0.3347	0.9775	0.7575	-0.009
Mof_H 	H 	0.3551	0.941	0.7522	0.044
Mof_C 	C 	0.3023	0.1734	0.9004	0.313
Mof_C 	C 	0.2932	0.4761	0.5113	0.282
Mof_C 	C 	0.2709	0.36	0.5051	-0.053
Mof_C 	C 	0.274	0.2509	0.4586	-0.02
Mof_H 	H 	0.2902	0.2525	0.4298	0.055
Mof_C 	C 	0.2533	0.1412	0.4552	-0.017
Mof_H 	H 	0.2557	0.0657	0.4251	0.058
Mof_N 	N 	0.3926	0.6124	0.5407	-0.066
Mof_C 	C 	0.4069	0.5011	0.5816	-0.041
Mof_H 	H 	0.3967	0.4614	0.6174	0.045
Mof_C 	C 	0.4362	0.4481	0.5702	-0.145
Mof_H 	H 	0.446	0.372	0.5982	0.102
Mof_C 	C 	0.4512	0.5063	0.5178	0.036
Mof_C 	C 	0.4368	0.6175	0.4769	-0.408
Mof_H 	H 	0.447	0.6573	0.4411	0.19
Mof_C 	C 	0.4075	0.6706	0.4883	0.192
Mof_H 	H 	0.3977	0.7467	0.4603	-0.007
Mof_N 	N 	0.6113	0.3125	0.4666	-0.125
Mof_C 	C 	0.5931	0.4284	0.4713	-0.045
Mof_H 	H 	0.6034	0.5145	0.4748	0.085
Mof_C 	C 	0.5598	0.4183	0.4708	0.218
Mof_H 	H 	0.5473	0.4976	0.474	0.014
Mof_C 	C 	0.5447	0.2923	0.4657	0.094
Mof_C 	C 	0.5629	0.1764	0.461	-0.124
Mof_H 	H 	0.5526	0.0903	0.4575	0.112
Mof_C 	C 	0.5962	0.1865	0.4615	0.01
Mof_H 	H 	0.6087	0.1072	0.4583	0.046
Mof_F 	F 	0.5267	0.078	0.591	-0.587
Mof_C 	C 	0.4846	0.443	0.5063	-0.257
Mof_H 	H 	0.5031	0.507	0.5266	0.148
Mof_C 	C 	0.4952	0.298	0.5349	0.19
Mof_H 	H 	0.4755	0.2392	0.5339	0.008
Mof_C 	C 	0.5087	0.276	0.4652	-0.151
Mof_H 	H 	0.4998	0.1908	0.4394	0.132
Mof_C 	C 	0.4862	0.403	0.4296	0.063
Mof_H 	H 	0.4995	0.4693	0.4082	0.027
Mof_C 	C 	0.5181	0.299	0.6108	-0.334
Mof_C 	C 	0.5328	0.173	0.63	0.658
Mof_C 	C 	0.5576	0.16	0.695	-0.468
Mof_H 	H 	0.5676	0.0743	0.7077	0.221
Mof_C 	C 	0.5677	0.271	0.7398	0.279
Mof_H 	H 	0.5847	0.2621	0.7839	-0.058
Mof_C 	C 	0.5531	0.396	0.7206	-0.274
Mof_H 	H 	0.56	0.4727	0.7515	0.156
Mof_C 	C 	0.5283	0.41	0.6561	0.236
Mof_H 	H 	0.5183	0.4956	0.6429	0.001
Mof_F 	F 	0.4804	0.426	0.2689	-0.443
Mof_C 	C 	0.4582	0.347	0.3689	-0.169
Mof_C 	C 	0.4568	0.369	0.2938	0.417
Mof_C 	C 	0.4316	0.312	0.2398	-0.307
Mof_H 	H 	0.4307	0.3274	0.1885	0.165
Mof_C 	C 	0.4077	0.234	0.2609	0.147
Mof_H 	H 	0.3904	0.1947	0.224	-0.008
Mof_C 	C 	0.4091	0.212	0.336	-0.175
Mof_H 	H 	0.3928	0.1578	0.3505	0.095
Mof_C 	C 	0.4343	0.269	0.39	0.105
Mof_H 	H 	0.4353	0.2537	0.4414	0.015
Mof_Cd	Cd	0.83854	0.17773	0.54692	0.456
Mof_O 	O 	0.8357	0.3348	0.6296	-0.304
Mof_O 	O 	0.78403	0.3887	0.5792	-0.291
Mof_O 	O 	0.8295	0.6893	0.9475	-0.275
Mof_O 	O 	0.7749	0.7134	0.9065	-0.279
Mof_O 	O 	0.78738	0.0825	0.5461	-0.288
Mof_O 	O 	0.81951	0.9694	0.4877	-0.264
Mof_C 	C 	0.809	0.3878	0.6305	0.346
Mof_C 	C 	0.8065	0.4622	0.6995	-0.074
Mof_C 	C 	0.7777	0.5166	0.7084	-0.006
Mof_H 	H 	0.7583	0.5085	0.6696	0.055
Mof_C 	C 	0.7763	0.5844	0.7743	-0.03
Mof_H 	H 	0.756	0.6214	0.7797	0.06
Mof_C 	C 	0.8037	0.5982	0.8308	-0.051
Mof_C 	C 	0.8333	0.5447	0.8217	-0.032
Mof_H 	H 	0.8526	0.5546	0.8602	0.058
Mof_C 	C 	0.8347	0.4775	0.7575	-0.008
Mof_H 	H 	0.8551	0.441	0.7522	0.044
Mof_C 	C 	0.8023	0.6734	0.9004	0.312
Mof_C 	C 	0.7932	0.9761	0.5113	0.282
Mof_C 	C 	0.7709	0.86	0.5051	-0.053
Mof_C 	C 	0.774	0.7509	0.4586	-0.02
Mof_H 	H 	0.7902	0.7525	0.4298	0.055
Mof_C 	C 	0.7533	0.6412	0.4552	-0.017
Mof_H 	H 	0.7557	0.5657	0.4251	0.058
Mof_N 	N 	0.8926	0.1124	0.5407	-0.066
Mof_C 	C 	0.9069	0.0011	0.5816	-0.039
Mof_H 	H 	0.8967	0.9614	0.6174	0.044
Mof_C 	C 	0.9362	0.9481	0.5702	-0.146
Mof_H 	H 	0.946	0.872	0.5982	0.103
Mof_C 	C 	0.9512	0.0063	0.5178	0.036
Mof_C 	C 	0.9368	0.1175	0.4769	-0.408
Mof_H 	H 	0.947	0.1573	0.4411	0.19
Mof_C 	C 	0.9075	0.1706	0.4883	0.192
Mof_H 	H 	0.8977	0.2467	0.4603	-0.007
Mof_N 	N 	0.1113	0.8125	0.4666	-0.125
Mof_C 	C 	0.0931	0.9284	0.4713	-0.044
Mof_H 	H 	0.1034	0.0145	0.4748	0.085
Mof_C 	C 	0.0598	0.9183	0.4708	0.217
Mof_H 	H 	0.0473	0.9976	0.474	0.014
Mof_C 	C 	0.0447	0.7923	0.4657	0.094
Mof_C 	C 	0.0629	0.6764	0.461	-0.125
Mof_H 	H 	0.0526	0.5903	0.4575	0.112
Mof_C 	C 	0.0962	0.6865	0.4615	0.01
Mof_H 	H 	0.1087	0.6072	0.4583	0.046
Mof_F 	F 	0.0267	0.578	0.591	-0.587
Mof_C 	C 	0.9846	0.943	0.5063	-0.257
Mof_H 	H 	0.0031	0.007	0.5266	0.148
Mof_C 	C 	0.9952	0.798	0.5349	0.191
Mof_H 	H 	0.9755	0.7392	0.5339	0.008
Mof_C 	C 	0.0087	0.776	0.4652	-0.152
Mof_H 	H 	0.9998	0.6908	0.4394	0.132
Mof_C 	C 	0.9862	0.903	0.4296	0.063
Mof_H 	H 	0.9995	0.9693	0.4082	0.027
Mof_C 	C 	0.0181	0.799	0.6108	-0.334
Mof_C 	C 	0.0328	0.673	0.63	0.658
Mof_C 	C 	0.0576	0.66	0.695	-0.468
Mof_H 	H 	0.0676	0.5743	0.7077	0.22
Mof_C 	C 	0.0677	0.771	0.7398	0.279
Mof_H 	H 	0.0847	0.7621	0.7839	-0.058
Mof_C 	C 	0.0531	0.896	0.7206	-0.274
Mof_H 	H 	0.06	0.9727	0.7515	0.156
Mof_C 	C 	0.0283	0.91	0.6561	0.236
Mof_H 	H 	0.0183	0.9956	0.6429	0
Mof_F 	F 	0.9804	0.926	0.2689	-0.443
Mof_C 	C 	0.9582	0.847	0.3689	-0.169
Mof_C 	C 	0.9568	0.869	0.2938	0.417
Mof_C 	C 	0.9316	0.812	0.2398	-0.307
Mof_H 	H 	0.9307	0.8274	0.1885	0.165
Mof_C 	C 	0.9077	0.734	0.2609	0.147
Mof_H 	H 	0.8904	0.6947	0.224	-0.007
Mof_C 	C 	0.9091	0.712	0.336	-0.175
Mof_H 	H 	0.8928	0.6578	0.3505	0.095
Mof_C 	C 	0.9343	0.769	0.39	0.105
Mof_H 	H 	0.9353	0.7537	0.4414	0.015
Mof_Cd	Cd	0.66146	0.67773	0.95308	0.462
Mof_O 	O 	0.6643	0.8348	0.8704	-0.303
Mof_O 	O 	0.71597	0.8887	0.9208	-0.286
Mof_O 	O 	0.6705	0.1893	0.5525	-0.28
Mof_O 	O 	0.7251	0.2134	0.5935	-0.283
Mof_O 	O 	0.71262	0.5825	0.9539	-0.286
Mof_O 	O 	0.68049	0.4694	0.0123	-0.273
Mof_C 	C 	0.691	0.8878	0.8695	0.345
Mof_C 	C 	0.6935	0.9622	0.8005	-0.073
Mof_C 	C 	0.7223	0.0166	0.7916	-0.006
Mof_H 	H 	0.7417	0.0085	0.8304	0.056
Mof_C 	C 	0.7237	0.0844	0.7257	-0.029
Mof_H 	H 	0.744	0.1214	0.7203	0.06
Mof_C 	C 	0.6963	0.0982	0.6692	-0.053
Mof_C 	C 	0.6667	0.0447	0.6783	-0.03
Mof_H 	H 	0.6474	0.0546	0.6398	0.056
Mof_C 	C 	0.6653	0.9775	0.7425	-0.01
Mof_H 	H 	0.6449	0.941	0.7478	0.044
Mof_C 	C 	0.6977	0.1734	0.5996	0.314
Mof_C 	C 	0.7068	0.4761	0.9887	0.287
Mof_C 	C 	0.7291	0.36	0.9949	-0.032
Mof_C 	C 	0.726	0.2509	0.0414	-0.046
Mof_H 	H 	0.7098	0.2525	0.0702	0.062
Mof_C 	C 	0.7467	0.1412	0.0448	0
Mof_H 	H 	0.7443	0.0657	0.0749	0.052
Mof_N 	N 	0.6074	0.6124	0.9593	-0.074
Mof_C 	C 	0.5931	0.5011	0.9184	-0.049
Mof_H 	H 	0.6033	0.4614	0.8826	0.049
Mof_C 	C 	0.5638	0.4481	0.9298	-0.151
Mof_H 	H 	0.554	0.372	0.9018	0.105
Mof_C 	C 	0.5488	0.5063	0.9822	0.03
Mof_C 	C 	0.5632	0.6175	0.0231	-0.447
Mof_H 	H 	0.553	0.6573	0.0589	0.202
Mof_C 	C 	0.5925	0.6706	0.0117	0.177
Mof_H 	H 	0.6023	0.7467	0.0397	-0.005
Mof_N 	N 	0.3887	0.3125	0.0334	-0.133
Mof_C 	C 	0.4069	0.4284	0.0287	-0.06
Mof_H 	H 	0.3966	0.5145	0.0252	0.084
Mof_C 	C 	0.4402	0.4183	0.0292	0.178
Mof_H 	H 	0.4527	0.4976	0.026	0.016
Mof_C 	C 	0.4553	0.2923	0.0343	0.095
Mof_C 	C 	0.4371	0.1764	0.039	-0.129
Mof_H 	H 	0.4474	0.0903	0.0425	0.111
Mof_C 	C 	0.4038	0.1865	0.0385	0.008
Mof_H 	H 	0.3913	0.1072	0.0417	0.044
Mof_F 	F 	0.4733	0.078	0.909	-0.585
Mof_C 	C 	0.5154	0.443	0.9937	-0.243
Mof_H 	H 	0.4969	0.507	0.9734	0.152
Mof_C 	C 	0.5048	0.298	0.9651	0.195
Mof_H 	H 	0.5245	0.2392	0.9661	0.01
Mof_C 	C 	0.4913	0.276	0.0348	-0.158
Mof_H 	H 	0.5002	0.1908	0.0606	0.132
Mof_C 	C 	0.5138	0.403	0.0704	0.056
Mof_H 	H 	0.5005	0.4693	0.0918	0.031
Mof_C 	C 	0.4819	0.299	0.8892	-0.334
Mof_C 	C 	0.4672	0.173	0.87	0.659
Mof_C 	C 	0.4424	0.16	0.805	-0.468
Mof_H 	H 	0.4324	0.0743	0.7923	0.221
Mof_C 	C 	0.4323	0.271	0.7602	0.279
Mof_H 	H 	0.4153	0.2621	0.7161	-0.059
Mof_C 	C 	0.4469	0.396	0.7794	-0.274
Mof_H 	H 	0.44	0.4727	0.7485	0.157
Mof_C 	C 	0.4717	0.41	0.8439	0.236
Mof_H 	H 	0.4817	0.4956	0.8571	0.001
Mof_F 	F 	0.5196	0.426	0.2311	-0.443
Mof_C 	C 	0.5418	0.347	0.1311	-0.168
Mof_C 	C 	0.5432	0.369	0.2062	0.416
Mof_C 	C 	0.5684	0.312	0.2602	-0.306
Mof_H 	H 	0.5693	0.3274	0.3115	0.164
Mof_C 	C 	0.5923	0.234	0.2391	0.146
Mof_H 	H 	0.6096	0.1947	0.276	-0.007
Mof_C 	C 	0.5909	0.212	0.164	-0.175
Mof_H 	H 	0.6072	0.1578	0.1495	0.094
Mof_C 	C 	0.5657	0.269	0.11	0.104
Mof_H 	H 	0.5647	0.2537	0.0586	0.012
Mof_Cd	Cd	0.16146	0.17773	0.95308	0.463
Mof_O 	O 	0.1643	0.3348	0.8704	-0.303
Mof_O 	O 	0.21597	0.3887	0.9208	-0.286
Mof_O 	O 	0.1705	0.6893	0.5525	-0.28
Mof_O 	O 	0.2251	0.7134	0.5935	-0.283
Mof_O 	O 	0.21262	0.0825	0.9539	-0.285
Mof_O 	O 	0.18049	0.9694	0.0123	-0.272
Mof_C 	C 	0.191	0.3878	0.8695	0.345
Mof_C 	C 	0.1935	0.4622	0.8005	-0.072
Mof_C 	C 	0.2223	0.5166	0.7916	-0.007
Mof_H 	H 	0.2417	0.5085	0.8304	0.056
Mof_C 	C 	0.2237	0.5844	0.7257	-0.029
Mof_H 	H 	0.244	0.6214	0.7203	0.06
Mof_C 	C 	0.1963	0.5982	0.6692	-0.053
Mof_C 	C 	0.1667	0.5447	0.6783	-0.031
Mof_H 	H 	0.1474	0.5546	0.6398	0.056
Mof_C 	C 	0.1653	0.4775	0.7425	-0.01
Mof_H 	H 	0.1449	0.441	0.7478	0.044
Mof_C 	C 	0.1977	0.6734	0.5996	0.314
Mof_C 	C 	0.2068	0.9761	0.9887	0.285
Mof_C 	C 	0.2291	0.86	0.9949	-0.033
Mof_C 	C 	0.226	0.7509	0.0414	-0.044
Mof_H 	H 	0.2098	0.7525	0.0702	0.062
Mof_C 	C 	0.2467	0.6412	0.0448	-0.001
Mof_H 	H 	0.2443	0.5657	0.0749	0.053
Mof_N 	N 	0.1074	0.1124	0.9593	-0.075
Mof_C 	C 	0.0931	0.0011	0.9184	-0.042
Mof_H 	H 	0.1033	0.9614	0.8826	0.046
Mof_C 	C 	0.0638	0.9481	0.9298	-0.156
Mof_H 	H 	0.054	0.872	0.9018	0.107
Mof_C 	C 	0.0488	0.0063	0.9822	0.029
Mof_C 	C 	0.0632	0.1175	0.0231	-0.451
Mof_H 	H 	0.053	0.1573	0.0589	0.204
Mof_C 	C 	0.0925	0.1706	0.0117	0.177
Mof_H 	H 	0.1023	0.2467	0.0397	-0.005
Mof_N 	N 	0.8887	0.8125	0.0334	-0.132
Mof_C 	C 	0.9069	0.9284	0.0287	-0.059
Mof_H 	H 	0.8966	0.0145	0.0252	0.082
Mof_C 	C 	0.9402	0.9183	0.0292	0.182
Mof_H 	H 	0.9527	0.9976	0.026	0.018
Mof_C 	C 	0.9553	0.7923	0.0343	0.095
Mof_C 	C 	0.9371	0.6764	0.039	-0.129
Mof_H 	H 	0.9474	0.5903	0.0425	0.111
Mof_C 	C 	0.9038	0.6865	0.0385	0.008
Mof_H 	H 	0.8913	0.6072	0.0417	0.044
Mof_F 	F 	0.9733	0.578	0.909	-0.585
Mof_C 	C 	0.0154	0.943	0.9937	-0.247
Mof_H 	H 	0.9969	0.007	0.9734	0.154
Mof_C 	C 	0.0048	0.798	0.9651	0.195
Mof_H 	H 	0.0245	0.7392	0.9661	0.009
Mof_C 	C 	0.9913	0.776	0.0348	-0.158
Mof_H 	H 	0.0002	0.6908	0.0606	0.132
Mof_C 	C 	0.0138	0.903	0.0704	0.057
Mof_H 	H 	0.0005	0.9693	0.0918	0.031
Mof_C 	C 	0.9819	0.799	0.8892	-0.334
Mof_C 	C 	0.9672	0.673	0.87	0.659
Mof_C 	C 	0.9424	0.66	0.805	-0.468
Mof_H 	H 	0.9324	0.5743	0.7923	0.221
Mof_C 	C 	0.9323	0.771	0.7602	0.28
Mof_H 	H 	0.9153	0.7621	0.7161	-0.059
Mof_C 	C 	0.9469	0.896	0.7794	-0.275
Mof_H 	H 	0.94	0.9727	0.7485	0.156
Mof_C 	C 	0.9717	0.91	0.8439	0.236
Mof_H 	H 	0.9817	0.9956	0.8571	0
Mof_F 	F 	0.0196	0.926	0.2311	-0.443
Mof_C 	C 	0.0418	0.847	0.1311	-0.168
Mof_C 	C 	0.0432	0.869	0.2062	0.416
Mof_C 	C 	0.0684	0.812	0.2602	-0.306
Mof_H 	H 	0.0693	0.8274	0.3115	0.164
Mof_C 	C 	0.0923	0.734	0.2391	0.146
Mof_H 	H 	0.1096	0.6947	0.276	-0.007
Mof_C 	C 	0.0909	0.712	0.164	-0.174
Mof_H 	H 	0.1072	0.6578	0.1495	0.094
Mof_C 	C 	0.0657	0.769	0.11	0.104
Mof_H 	H 	0.0647	0.7537	0.0586	0.013
Mof_Cd	Cd	0.75	0.25	0.5	0.523
Mof_Cd	Cd	0.25	0.25	-0	0.513
Mof_Cd	Cd	0.25	0.75	0.5	0.522
Mof_Cd	Cd	0.75	0.75	-0	0.514
_end
