# CIF file generated by openbabel 3.1.0, see https://openbabel.org
data_I
_chemical_name_common 'image0'
_cell_length_a 9.0238
_cell_length_b 9.0392
_cell_length_c 13.8071
_cell_angle_alpha 95.965
_cell_angle_beta 96.049
_cell_angle_gamma 110.228
_space_group_name_H-M_alt 'P 1'
_space_group_name_Hall 'P 1'
loop_
    _symmetry_equiv_pos_as_xyz
    x,y,z
loop_
    _atom_site_label
    _atom_site_type_symbol
    _atom_site_fract_x
    _atom_site_fract_y
    _atom_site_fract_z
    _atom_site_occupancy
    Zn1      Zn       0.97132    0.13261    0.89652    1.000
    Zn2      Zn       0.28221    0.71760    0.75007    1.000
    Zn3      Zn       0.86704    0.02871    0.60324    1.000
    P1       P        0.05630    0.81780    0.88412    1.000
    H1       H        0.94200    0.74900    0.80000    1.000
    P2       P        0.18160    0.94330    0.61577    1.000
    H2       H        0.25900    0.05700    0.70300    1.000
    P3       P        0.05480    0.36620    0.73236    1.000
    H3       H        0.95600    0.44100    0.75600    1.000
    P4       P        0.63340    0.94490    0.76714    1.000
    H4       H        0.55500    0.04500    0.74200    1.000
    O1       O        0.09400    0.99480    0.89200    1.000
    O2       O        0.98960    0.74870    0.97240    1.000
    O3       O        0.20340    0.77820    0.86680    1.000
    O4       O        0.22140    0.79670    0.63340    1.000
    O5       O        0.00400    0.90470    0.60750    1.000
    O6       O        0.25040    0.01030    0.52720    1.000
    O7       O        0.97000    0.25400    0.64020    1.000
    O8       O        0.20700    0.48940    0.71460    1.000
    O9       O        0.09000    0.28550    0.81810    1.000
    O10      O        0.71400    0.91040    0.68130    1.000
    O11      O        0.51030    0.79130    0.78500    1.000
    O12      O        0.74600    0.03150    0.86010    1.000
    Zn4      Zn       0.02868    0.86739    0.10348    1.000
    Zn5      Zn       0.71779    0.28240    0.24993    1.000
    Zn6      Zn       0.13296    0.97129    0.39676    1.000
    P5       P        0.94370    0.18220    0.11588    1.000
    H5       H        0.05800    0.25100    0.20000    1.000
    P6       P        0.81840    0.05670    0.38423    1.000
    H6       H        0.74100    0.94300    0.29700    1.000
    P7       P        0.94520    0.63380    0.26764    1.000
    H7       H        0.04400    0.55900    0.24400    1.000
    P8       P        0.36660    0.05510    0.23286    1.000
    H8       H        0.44500    0.95500    0.25800    1.000
    O13      O        0.90600    0.00520    0.10800    1.000
    O14      O        0.01040    0.25130    0.02760    1.000
    O15      O        0.79660    0.22180    0.13320    1.000
    O16      O        0.77860    0.20330    0.36660    1.000
    O17      O        0.99600    0.09530    0.39250    1.000
    O18      O        0.74960    0.98970    0.47280    1.000
    O19      O        0.03000    0.74600    0.35980    1.000
    O20      O        0.79300    0.51060    0.28540    1.000
    O21      O        0.91000    0.71450    0.18190    1.000
    O22      O        0.28600    0.08960    0.31870    1.000
    O23      O        0.48970    0.20870    0.21500    1.000
    O24      O        0.25400    0.96850    0.13990    1.000
