data_functionalizedCrystal
_audit_creation_method	'EQeq! by Chris Wilmer'
_symmetry_space_group_name_H-M	'P1'
_symmetry_Int_Tables_number	1
_symmetry_cell_setting	triclinic
loop_
_symmetry_equiv_pos_as_xyz
  x,y,z
_cell_length_a	14.2928
_cell_length_b	10.244
_cell_length_c	18.9901
_cell_angle_alpha	90
_cell_angle_beta	96.658
_cell_angle_gamma	90
loop_
_atom_site_label
_atom_site_type_symbol
_atom_site_fract_x
_atom_site_fract_y
_atom_site_fract_z
_atom_site_charge
Mof_V 	V 	0.1554	0.6147	0.0894	1.703
Mof_V 	V 	0.2276	0.5561	0.2808	1.7
Mof_P 	P 	0.7851	0.3749	0.0749	0.534
Mof_P 	P 	0.1662	0.3325	0.1694	0.482
Mof_O 	O 	0.7964	0.4254	0.0006	-0.54
Mof_O 	O 	0.6922	0.3003	0.0759	-0.565
Mof_O 	O 	0.1555	0.4027	0.2388	-0.569
Mof_O 	O 	0.1829	0.4288	0.1098	-0.55
Mof_O 	O 	0.7889	0.4936	0.1232	-0.543
Mof_O 	O 	0.2471	0.2335	0.1759	-0.543
Mof_O 	O 	0.1909	0.6513	0.1905	-0.744
Mof_C 	C 	0.8806	0.2661	0.1046	-0.478
Mof_C 	C 	0.0579	0.2465	0.1433	-0.442
Mof_C 	C 	0.9745	0.3372	0.1209	0.273
Mof_H 	H 	0.8864	0.2009	0.0683	0.127
Mof_H 	H 	0.8661	0.2211	0.147	0.123
Mof_H 	H 	0.043	0.1929	0.1826	0.107
Mof_H 	H 	0.0668	0.1888	0.1041	0.124
Mof_H 	H 	0.9873	0.3854	0.0791	-0.126
Mof_H 	H 	0.9691	0.3999	0.1585	-0.086
Mof_V 	V 	0.6554	0.1147	0.0894	1.699
Mof_V 	V 	0.7276	0.0561	0.2808	1.698
Mof_P 	P 	0.2851	0.8749	0.0749	0.534
Mof_P 	P 	0.6662	0.8325	0.1694	0.483
Mof_O 	O 	0.2964	0.9254	0.0006	-0.535
Mof_O 	O 	0.1922	0.8003	0.0759	-0.561
Mof_O 	O 	0.6555	0.9027	0.2388	-0.566
Mof_O 	O 	0.6829	0.9288	0.1098	-0.545
Mof_O 	O 	0.2889	0.9936	0.1232	-0.539
Mof_O 	O 	0.7471	0.7335	0.1759	-0.54
Mof_O 	O 	0.6909	0.1513	0.1905	-0.747
Mof_C 	C 	0.3806	0.7661	0.1046	-0.478
Mof_C 	C 	0.5579	0.7465	0.1433	-0.441
Mof_C 	C 	0.4745	0.8372	0.1209	0.272
Mof_H 	H 	0.3864	0.7009	0.0683	0.129
Mof_H 	H 	0.3661	0.7211	0.147	0.124
Mof_H 	H 	0.543	0.6929	0.1826	0.108
Mof_H 	H 	0.5668	0.6888	0.1041	0.126
Mof_H 	H 	0.4873	0.8854	0.0791	-0.124
Mof_H 	H 	0.4691	0.8999	0.1585	-0.085
Mof_V 	V 	0.8446	0.6147	0.4106	1.703
Mof_V 	V 	0.7724	0.5561	0.2192	1.7
Mof_P 	P 	0.2149	0.3749	0.4251	0.535
Mof_P 	P 	0.8338	0.3325	0.3306	0.483
Mof_O 	O 	0.2036	0.4254	0.4994	-0.539
Mof_O 	O 	0.3078	0.3003	0.4241	-0.563
Mof_O 	O 	0.8445	0.4027	0.2612	-0.569
Mof_O 	O 	0.8171	0.4288	0.3902	-0.549
Mof_O 	O 	0.2111	0.4936	0.3768	-0.544
Mof_O 	O 	0.7529	0.2335	0.3241	-0.541
Mof_O 	O 	0.8091	0.6513	0.3095	-0.744
Mof_C 	C 	0.1194	0.2661	0.3954	-0.48
Mof_C 	C 	0.9421	0.2465	0.3567	-0.442
Mof_C 	C 	0.0255	0.3372	0.3791	0.274
Mof_H 	H 	0.1136	0.2009	0.4317	0.129
Mof_H 	H 	0.1339	0.2211	0.353	0.124
Mof_H 	H 	0.957	0.1929	0.3174	0.108
Mof_H 	H 	0.9332	0.1888	0.3959	0.126
Mof_H 	H 	0.0127	0.3854	0.4209	-0.126
Mof_H 	H 	0.0309	0.3999	0.3415	-0.087
Mof_V 	V 	0.3446	0.1147	0.4106	1.702
Mof_V 	V 	0.2724	0.0561	0.2192	1.697
Mof_P 	P 	0.7149	0.8749	0.4251	0.535
Mof_P 	P 	0.3338	0.8325	0.3306	0.483
Mof_O 	O 	0.7036	0.9254	0.4994	-0.539
Mof_O 	O 	0.8078	0.8003	0.4241	-0.563
Mof_O 	O 	0.3445	0.9027	0.2612	-0.566
Mof_O 	O 	0.3171	0.9288	0.3902	-0.548
Mof_O 	O 	0.7111	0.9936	0.3768	-0.541
Mof_O 	O 	0.2529	0.7335	0.3241	-0.54
Mof_O 	O 	0.3091	0.1513	0.3095	-0.746
Mof_C 	C 	0.6194	0.7661	0.3954	-0.479
Mof_C 	C 	0.4421	0.7465	0.3567	-0.442
Mof_C 	C 	0.5255	0.8372	0.3791	0.274
Mof_H 	H 	0.6136	0.7009	0.4317	0.129
Mof_H 	H 	0.6339	0.7211	0.353	0.125
Mof_H 	H 	0.457	0.6929	0.3174	0.108
Mof_H 	H 	0.4332	0.6888	0.3959	0.126
Mof_H 	H 	0.5127	0.8854	0.4209	-0.126
Mof_H 	H 	0.5309	0.8999	0.3415	-0.086
Mof_V 	V 	0.8446	0.3853	0.9106	1.703
Mof_V 	V 	0.7724	0.4439	0.7192	1.7
Mof_P 	P 	0.2149	0.6251	0.9251	0.534
Mof_P 	P 	0.8338	0.6675	0.8306	0.482
Mof_O 	O 	0.2036	0.5746	0.9994	-0.54
Mof_O 	O 	0.3078	0.6997	0.9241	-0.565
Mof_O 	O 	0.8445	0.5973	0.7612	-0.569
Mof_O 	O 	0.8171	0.5712	0.8902	-0.55
Mof_O 	O 	0.2111	0.5064	0.8768	-0.543
Mof_O 	O 	0.7529	0.7665	0.8241	-0.543
Mof_O 	O 	0.8091	0.3487	0.8095	-0.744
Mof_C 	C 	0.1194	0.7339	0.8954	-0.478
Mof_C 	C 	0.9421	0.7535	0.8567	-0.442
Mof_C 	C 	0.0255	0.6628	0.8791	0.273
Mof_H 	H 	0.1136	0.7991	0.9317	0.127
Mof_H 	H 	0.1339	0.7789	0.853	0.123
Mof_H 	H 	0.957	0.8071	0.8174	0.107
Mof_H 	H 	0.9332	0.8112	0.8959	0.124
Mof_H 	H 	0.0127	0.6146	0.9209	-0.126
Mof_H 	H 	0.0309	0.6001	0.8415	-0.086
Mof_V 	V 	0.3446	0.8853	0.9106	1.699
Mof_V 	V 	0.2724	0.9439	0.7192	1.698
Mof_P 	P 	0.7149	0.1251	0.9251	0.534
Mof_P 	P 	0.3338	0.1675	0.8306	0.483
Mof_O 	O 	0.7036	0.0746	0.9994	-0.535
Mof_O 	O 	0.8078	0.1997	0.9241	-0.561
Mof_O 	O 	0.3445	0.0973	0.7612	-0.566
Mof_O 	O 	0.3171	0.0712	0.8902	-0.545
Mof_O 	O 	0.7111	0.0064	0.8768	-0.539
Mof_O 	O 	0.2529	0.2665	0.8241	-0.54
Mof_O 	O 	0.3091	0.8487	0.8095	-0.747
Mof_C 	C 	0.6194	0.2339	0.8954	-0.478
Mof_C 	C 	0.4421	0.2535	0.8567	-0.441
Mof_C 	C 	0.5255	0.1628	0.8791	0.272
Mof_H 	H 	0.6136	0.2991	0.9317	0.129
Mof_H 	H 	0.6339	0.2789	0.853	0.124
Mof_H 	H 	0.457	0.3071	0.8174	0.108
Mof_H 	H 	0.4332	0.3112	0.8959	0.126
Mof_H 	H 	0.5127	0.1146	0.9209	-0.124
Mof_H 	H 	0.5309	0.1001	0.8415	-0.085
Mof_V 	V 	0.1554	0.3853	0.5894	1.703
Mof_V 	V 	0.2276	0.4439	0.7808	1.7
Mof_P 	P 	0.7851	0.6251	0.5749	0.535
Mof_P 	P 	0.1662	0.6675	0.6694	0.483
Mof_O 	O 	0.7964	0.5746	0.5006	-0.539
Mof_O 	O 	0.6922	0.6997	0.5759	-0.563
Mof_O 	O 	0.1555	0.5973	0.7388	-0.569
Mof_O 	O 	0.1829	0.5712	0.6098	-0.549
Mof_O 	O 	0.7889	0.5064	0.6232	-0.544
Mof_O 	O 	0.2471	0.7665	0.6759	-0.541
Mof_O 	O 	0.1909	0.3487	0.6905	-0.744
Mof_C 	C 	0.8806	0.7339	0.6046	-0.48
Mof_C 	C 	0.0579	0.7535	0.6433	-0.442
Mof_C 	C 	0.9745	0.6628	0.6209	0.274
Mof_H 	H 	0.8864	0.7991	0.5683	0.129
Mof_H 	H 	0.8661	0.7789	0.647	0.124
Mof_H 	H 	0.043	0.8071	0.6826	0.108
Mof_H 	H 	0.0668	0.8112	0.6041	0.126
Mof_H 	H 	0.9873	0.6146	0.5791	-0.126
Mof_H 	H 	0.9691	0.6001	0.6585	-0.087
Mof_V 	V 	0.6554	0.8853	0.5894	1.702
Mof_V 	V 	0.7276	0.9439	0.7808	1.697
Mof_P 	P 	0.2851	0.1251	0.5749	0.535
Mof_P 	P 	0.6662	0.1675	0.6694	0.483
Mof_O 	O 	0.2964	0.0746	0.5006	-0.539
Mof_O 	O 	0.1922	0.1997	0.5759	-0.563
Mof_O 	O 	0.6555	0.0973	0.7388	-0.566
Mof_O 	O 	0.6829	0.0712	0.6098	-0.548
Mof_O 	O 	0.2889	0.0064	0.6232	-0.541
Mof_O 	O 	0.7471	0.2665	0.6759	-0.54
Mof_O 	O 	0.6909	0.8487	0.6905	-0.746
Mof_C 	C 	0.3806	0.2339	0.6046	-0.479
Mof_C 	C 	0.5579	0.2535	0.6433	-0.442
Mof_C 	C 	0.4745	0.1628	0.6209	0.274
Mof_H 	H 	0.3864	0.2991	0.5683	0.129
Mof_H 	H 	0.3661	0.2789	0.647	0.125
Mof_H 	H 	0.543	0.3071	0.6826	0.108
Mof_H 	H 	0.5668	0.3112	0.6041	0.126
Mof_H 	H 	0.4873	0.1146	0.5791	-0.126
Mof_H 	H 	0.4691	0.1001	0.6585	-0.086
_end
