# CIF file generated by openbabel 3.1.0, see https://openbabel.org
data_I
_chemical_name_common 'EXIBUI_clean'
_cell_length_a 7.219
_cell_length_b 10.795
_cell_length_c 11.662
_cell_angle_alpha 113.686
_cell_angle_beta 102.814
_cell_angle_gamma 95.069
_space_group_name_H-M_alt 'P 1'
_space_group_name_Hall 'P 1'
loop_
    _symmetry_equiv_pos_as_xyz
    x,y,z
loop_
    _atom_site_label
    _atom_site_type_symbol
    _atom_site_fract_x
    _atom_site_fract_y
    _atom_site_fract_z
    _atom_site_occupancy
    Ba1      Ba       0.54785    0.22705    0.61578    1.000
    Ba2      Ba       0.45215    0.77295    0.38422    1.000
    V1       V        0.86984    0.74980    0.17464    1.000
    V2       V        0.13016    0.25020    0.82536    1.000
    H1       H        0.59600    0.73000    0.73150    1.000
    H2       H        0.76000    0.12150    0.02400    1.000
    H3       H        0.15000    0.97700    0.42460    1.000
    H4       H        0.18700    0.95300    0.54500    1.000
    H5       H        0.40400    0.27000    0.26850    1.000
    H6       H        0.24000    0.87850    0.97600    1.000
    H7       H        0.85000    0.02300    0.57540    1.000
    H8       H        0.81300    0.04700    0.45500    1.000
    C1       C        0.70630    0.59780    0.89410    1.000
    C2       C        0.71330    0.74520    0.91440    1.000
    C3       C        0.65210    0.79270    0.82160    1.000
    C4       C        0.66460    0.93460    0.86300    1.000
    C5       C        0.59070    0.98880    0.76170    1.000
    C6       C        0.74170    0.02390    0.99510    1.000
    C7       C        0.80320    0.96780    0.08170    1.000
    C8       C        0.88790    0.04190    0.22760    1.000
    C9       C        0.29370    0.40220    0.10590    1.000
    C10      C        0.28670    0.25480    0.08560    1.000
    C11      C        0.34790    0.20730    0.17840    1.000
    C12      C        0.33540    0.06540    0.13700    1.000
    C13      C        0.40930    0.01120    0.23830    1.000
    C14      C        0.25830    0.97610    0.00490    1.000
    C15      C        0.19680    0.03220    0.91830    1.000
    C16      C        0.11210    0.95810    0.77240    1.000
    N1       N        0.78820    0.83160    0.03980    1.000
    N2       N        0.21180    0.16840    0.96020    1.000
    O1       O        0.64230    0.50130    0.78680    1.000
    O2       O        0.77160    0.58780    0.00310    1.000
    O3       O        0.92540    0.95770    0.28060    1.000
    O4       O        0.91500    0.16660    0.28720    1.000
    O5       O        0.56740    0.90900    0.64740    1.000
    O6       O        0.56020    0.10810    0.80220    1.000
    O7       O        0.74040    0.71020    0.25600    1.000
    O8       O        0.08680    0.72720    0.21870    1.000
    O9       O        0.24210    0.98970    0.49870    1.000
    O10      O        0.35770    0.49870    0.21320    1.000
    O11      O        0.22840    0.41220    0.99690    1.000
    O12      O        0.07460    0.04230    0.71940    1.000
    O13      O        0.08500    0.83340    0.71280    1.000
    O14      O        0.43260    0.09100    0.35260    1.000
    O15      O        0.43980    0.89190    0.19780    1.000
    O16      O        0.25960    0.28980    0.74400    1.000
    O17      O        0.91320    0.27280    0.78130    1.000
    O18      O        0.75790    0.01030    0.50130    1.000
