data_functionalizedCrystal
_audit_creation_method	'EQeq! by Chris Wilmer'
_symmetry_space_group_name_H-M	'P1'
_symmetry_Int_Tables_number	1
_symmetry_cell_setting	triclinic
loop_
_symmetry_equiv_pos_as_xyz
  x,y,z
_cell_length_a	9.459
_cell_length_b	12.0481
_cell_length_c	16.683
_cell_angle_alpha	96.0553
_cell_angle_beta	90
_cell_angle_gamma	113.113
loop_
_atom_site_label
_atom_site_type_symbol
_atom_site_fract_x
_atom_site_fract_y
_atom_site_fract_z
_atom_site_charge
Mof_Ho	Ho	0.30343	0.00942	0.4341	2.171
Mof_Ho	Ho	0.69657	0.99058	0.5659	2.171
Mof_Ho	Ho	0.29401	0.99058	0.0659	2.18
Mof_Ho	Ho	0.70599	0.00942	0.9341	2.18
Mof_Ag	Ag	0.03444	0.31684	0.08018	0.682
Mof_Ag	Ag	0.96556	0.68316	0.91982	0.682
Mof_Ag	Ag	0.2824	0.31684	0.58018	0.687
Mof_Ag	Ag	0.7176	0.68316	0.41982	0.687
Mof_H 	H 	0.4247	0.8104	0.2205	0.054
Mof_H 	H 	0.1304	0.0968	0.8305	0.043
Mof_H 	H 	0.5361	0.292	0.6811	-0.002
Mof_H 	H 	0.5625	0.5732	0.1314	0.091
Mof_H 	H 	0.5753	0.1896	0.7795	0.054
Mof_H 	H 	0.8276	0.4144	0.9593	-0.04
Mof_H 	H 	0.5868	0.4144	0.4593	-0.042
Mof_H 	H 	0.4132	0.5856	0.5407	-0.042
Mof_H 	H 	0.5016	0.6342	0.8814	-0.012
Mof_H 	H 	0.4375	0.4268	0.8686	0.091
Mof_H 	H 	0.2441	0.708	0.8189	-0.002
Mof_H 	H 	0.0336	0.9032	0.6695	0.051
Mof_H 	H 	0.0519	0.3046	0.4447	-0.007
Mof_H 	H 	0.3857	0.8104	0.7205	0.056
Mof_H 	H 	0.2527	0.3046	0.9447	-0.004
Mof_H 	H 	0.9893	0.4268	0.3686	0.094
Mof_H 	H 	0.6143	0.1896	0.2795	0.056
Mof_H 	H 	0.4639	0.708	0.3189	-0.002
Mof_H 	H 	0.9481	0.6954	0.5553	-0.007
Mof_H 	H 	0.9095	0.8022	0.7724	0.007
Mof_H 	H 	0.1724	0.5856	0.0407	-0.04
Mof_H 	H 	0.4984	0.3658	0.1186	-0.012
Mof_H 	H 	0.8696	0.9032	0.1695	0.043
Mof_H 	H 	0.7473	0.6954	0.0553	-0.004
Mof_H 	H 	0.0905	0.1978	0.2276	0.007
Mof_H 	H 	0.0107	0.5732	0.6314	0.094
Mof_H 	H 	0.8927	0.8022	0.2724	0.015
Mof_H 	H 	0.7559	0.292	0.1811	-0.002
Mof_H 	H 	0.1073	0.1978	0.7276	0.015
Mof_H 	H 	0.9664	0.0968	0.3305	0.051
Mof_H 	H 	0.1326	0.6342	0.3814	-0.014
Mof_H 	H 	0.8674	0.3658	0.6186	-0.014
Mof_C 	C 	0.7115	0.19	0.2702	-0.043
Mof_C 	C 	0.3764	0.7646	0.9765	0.541
Mof_C 	C 	0.7974	0.2506	0.2114	0.039
Mof_C 	C 	0.7724	0.446	0.9942	0.133
Mof_C 	C 	0.2147	0.1344	0.8	-0.031
Mof_C 	C 	0.4532	0.2506	0.7114	0.035
Mof_C 	C 	0.2885	0.81	0.7298	-0.043
Mof_C 	C 	0.9651	0.9304	0.9884	0.255
Mof_C 	C 	0.9251	0.5394	0.5958	-0.198
Mof_C 	C 	0.4236	0.584	0.9109	0.123
Mof_C 	C 	0.6726	0.0528	0.3785	0.497
Mof_C 	C 	0.8396	0.416	0.5891	0.128
Mof_C 	C 	0.7268	0.6128	0.0511	0.104
Mof_C 	C 	0.9197	0.1344	0.3	-0.04
Mof_C 	C 	0.2203	0.9302	0.2446	0.261
Mof_C 	C 	0.0803	0.8656	0.7	-0.04
Mof_C 	C 	0.6143	0.5394	0.0958	-0.19
Mof_C 	C 	0.6118	0.2354	0.5235	0.537
Mof_C 	C 	0.4785	0.19	0.7702	-0.039
Mof_C 	C 	0.9653	0.9304	0.4884	0.251
Mof_C 	C 	0.5468	0.7494	0.2886	0.035
Mof_C 	C 	0.7099	0.9302	0.7446	0.257
Mof_C 	C 	0.2936	0.6326	0.4649	-0.254
Mof_C 	C 	0.6736	0.446	0.4942	0.139
Mof_C 	C 	0.6236	0.2354	0.0235	0.541
Mof_C 	C 	0.0065	0.8036	0.7613	0.05
Mof_C 	C 	0.2029	0.1964	0.7387	0.033
Mof_C 	C 	0.7853	0.8656	0.2	-0.031
Mof_C 	C 	0.7728	0.1284	0.316	-0.097
Mof_C 	C 	0.1604	0.584	0.4109	0.128
Mof_C 	C 	0.7971	0.8036	0.2613	0.033
Mof_C 	C 	0.339	0.6326	0.9649	-0.249
Mof_C 	C 	0.0749	0.4606	0.4042	-0.198
Mof_C 	C 	0.5215	0.81	0.2298	-0.039
Mof_C 	C 	0.7064	0.3674	0.5351	-0.254
Mof_C 	C 	0.2276	0.554	0.0058	0.133
Mof_C 	C 	0.886	0.6128	0.5511	0.108
Mof_C 	C 	0.114	0.3872	0.4489	0.108
Mof_C 	C 	0.2901	0.0698	0.2554	0.257
Mof_C 	C 	0.3264	0.554	0.5058	0.139
Mof_C 	C 	0.661	0.3674	0.0351	-0.249
Mof_C 	C 	0.0349	0.0696	0.0116	0.255
Mof_C 	C 	0.3556	0.1284	0.816	-0.104
Mof_C 	C 	0.3802	0.0528	0.8785	0.5
Mof_C 	C 	0.6444	0.8716	0.184	-0.104
Mof_C 	C 	0.3274	0.9472	0.6215	0.497
Mof_C 	C 	0.9935	0.1964	0.2387	0.05
Mof_C 	C 	0.3882	0.7646	0.4765	0.537
Mof_C 	C 	0.2732	0.3872	0.9489	0.104
Mof_C 	C 	0.2272	0.8716	0.684	-0.097
Mof_C 	C 	0.7797	0.0698	0.7554	0.261
Mof_C 	C 	0.6198	0.9472	0.1215	0.5
Mof_C 	C 	0.0347	0.0696	0.5116	0.251
Mof_C 	C 	0.3857	0.4606	0.9042	-0.19
Mof_C 	C 	0.2026	0.7494	0.7886	0.039
Mof_C 	C 	0.5764	0.416	0.0891	0.123
Mof_N 	N 	0.8099	0.5676	0.0002	-0.226
Mof_N 	N 	0.3173	0.2552	0.6937	-0.198
Mof_N 	N 	0.7577	0.5676	0.5002	-0.23
Mof_N 	N 	0.2423	0.4324	0.4998	-0.23
Mof_N 	N 	0.9379	0.2552	0.1937	-0.199
Mof_N 	N 	0.1901	0.4324	0.9998	-0.226
Mof_N 	N 	0.6827	0.7448	0.3063	-0.198
Mof_N 	N 	0.0621	0.7448	0.8063	-0.199
Mof_O 	O 	0.4624	0.9616	0.6227	-0.555
Mof_O 	O 	0.5008	0.0384	0.8773	-0.558
Mof_O 	O 	0.5044	0.8344	0.9555	-0.572
Mof_O 	O 	0.8184	0.1228	0.8249	-0.43
Mof_O 	O 	0.7389	0.0132	0.4267	-0.513
Mof_O 	O 	0.67	0.1656	0.5445	-0.571
Mof_O 	O 	0.33	0.8344	0.4555	-0.571
Mof_O 	O 	0.4992	0.9616	0.1227	-0.558
Mof_O 	O 	0.8393	0.8738	0.5206	-0.471
Mof_O 	O 	0.1607	0.1262	0.4794	-0.471
Mof_O 	O 	0.9655	0.1262	0.9794	-0.469
Mof_O 	O 	0.2107	0.8804	0.3084	-0.413
Mof_O 	O 	0.522	0.7978	0.5077	-0.552
Mof_O 	O 	0.4956	0.1656	0.0445	-0.572
Mof_O 	O 	0.7893	0.1196	0.6916	-0.413
Mof_O 	O 	0.0345	0.8738	0.0206	-0.469
Mof_O 	O 	0.1816	0.8772	0.1751	-0.43
Mof_O 	O 	0.3303	0.1196	0.1916	-0.413
Mof_O 	O 	0.5376	0.0384	0.3773	-0.555
Mof_O 	O 	0.7242	0.2022	0.9923	-0.555
Mof_O 	O 	0.7257	0.9868	0.0733	-0.519
Mof_O 	O 	0.3044	0.1228	0.3249	-0.43
Mof_O 	O 	0.2611	0.9868	0.5733	-0.513
Mof_O 	O 	0.2743	0.0132	0.9267	-0.519
Mof_O 	O 	0.478	0.2022	0.4923	-0.552
Mof_O 	O 	0.1518	0.1164	0.0582	-0.443
Mof_O 	O 	0.9646	0.1164	0.5582	-0.437
Mof_O 	O 	0.8482	0.8836	0.9418	-0.443
Mof_O 	O 	0.0354	0.8836	0.4418	-0.437
Mof_O 	O 	0.6956	0.8772	0.6751	-0.43
Mof_O 	O 	0.2758	0.7978	0.0077	-0.555
Mof_O 	O 	0.6697	0.8804	0.8084	-0.413
_end
