data_functionalizedCrystal
_audit_creation_method	'EQeq! by Chris Wilmer'
_symmetry_space_group_name_H-M	'P1'
_symmetry_Int_Tables_number	1
_symmetry_cell_setting	triclinic
loop_
_symmetry_equiv_pos_as_xyz
  x,y,z
_cell_length_a	11.575
_cell_length_b	12.634
_cell_length_c	14.335
_cell_angle_alpha	101.369
_cell_angle_beta	102.935
_cell_angle_gamma	96.457
loop_
_atom_site_label
_atom_site_type_symbol
_atom_site_fract_x
_atom_site_fract_y
_atom_site_fract_z
_atom_site_charge
Mof_Cu	Cu	0.90035	0.93702	0.28558	0.921
Mof_Cu	Cu	0.10615	0.95002	0.48356	0.914
Mof_Cu	Cu	0.09965	0.06298	0.71442	0.92
Mof_Cu	Cu	0.89385	0.04998	0.51644	0.913
Mof_H 	H 	0.5616	0.695	0.4693	0.051
Mof_H 	H 	0.5723	0.5912	0.7138	0.049
Mof_H 	H 	0.2561	0.5656	0.5232	0.045
Mof_H 	H 	0.1806	0.6829	0.2341	0.132
Mof_H 	H 	0.0678	0.6158	0.251	0.128
Mof_H 	H 	0.9474	0.7133	0.6562	0.13
Mof_H 	H 	0.9467	0.7119	0.5464	0.124
Mof_H 	H 	0.4077	0.3392	0.821	0.119
Mof_H 	H 	0.3015	0.4057	0.8206	0.125
Mof_H 	H 	0.3364	0.1062	0.5298	-0.023
Mof_H 	H 	0.5276	0.1212	0.6071	0.158
Mof_H 	H 	0.4486	0.8442	0.694	0.14
Mof_H 	H 	0.2548	0.8322	0.6081	-0.025
Mof_H 	H 	0.6804	0.9466	0.662	0.183
Mof_H 	H 	0.6861	0.0709	0.7088	0.169
Mof_H 	H 	0.6305	0.9023	0.7995	-0.032
Mof_H 	H 	0.6419	0.0274	0.8465	-0.035
Mof_H 	H 	0.8435	0.9211	0.8107	0.17
Mof_H 	H 	0.8583	0.0493	0.8438	0.16
Mof_H 	H 	0.8445	0.1313	0.0157	0.139
Mof_H 	H 	0.8627	0.11	0.1722	-0.021
Mof_H 	H 	0.8653	0.8008	0.0897	-0.024
Mof_H 	H 	0.8328	0.8112	0.9303	0.151
Mof_H 	H 	0.1782	0.6034	0.3955	0.125
Mof_H 	H 	0.7469	0.6839	0.508	0.146
Mof_H 	H 	0.468	0.4311	0.7184	0.137
Mof_H 	H 	0.4384	0.305	0.5307	0.051
Mof_H 	H 	0.4277	0.4088	0.2862	0.049
Mof_H 	H 	0.7439	0.4344	0.4768	0.045
Mof_H 	H 	0.8194	0.3171	0.7659	0.132
Mof_H 	H 	0.9322	0.3842	0.749	0.128
Mof_H 	H 	0.0526	0.2867	0.3438	0.13
Mof_H 	H 	0.0533	0.2881	0.4536	0.124
Mof_H 	H 	0.5923	0.6608	0.179	0.119
Mof_H 	H 	0.6985	0.5943	0.1794	0.125
Mof_H 	H 	0.6636	0.8938	0.4702	-0.023
Mof_H 	H 	0.4724	0.8788	0.3929	0.158
Mof_H 	H 	0.5514	0.1558	0.306	0.14
Mof_H 	H 	0.7452	0.1678	0.3919	-0.025
Mof_H 	H 	0.3196	0.0534	0.338	0.183
Mof_H 	H 	0.3139	0.9291	0.2912	0.169
Mof_H 	H 	0.3695	0.0977	0.2005	-0.032
Mof_H 	H 	0.3581	0.9726	0.1535	-0.035
Mof_H 	H 	0.1565	0.0789	0.1893	0.17
Mof_H 	H 	0.1417	0.9507	0.1562	0.16
Mof_H 	H 	0.1555	0.8687	0.9843	0.139
Mof_H 	H 	0.1373	0.89	0.8278	-0.021
Mof_H 	H 	0.1347	0.1992	0.9103	-0.024
Mof_H 	H 	0.1672	0.1888	0.0697	0.151
Mof_H 	H 	0.8218	0.3966	0.6045	0.125
Mof_H 	H 	0.2531	0.3161	0.492	0.146
Mof_H 	H 	0.532	0.5689	0.2816	0.137
Mof_C 	C 	0.397	0.6305	0.4782	-0.048
Mof_C 	C 	0.5223	0.6632	0.5093	-0.016
Mof_C 	C 	0.5875	0.6497	0.5964	-0.055
Mof_C 	C 	0.5281	0.6009	0.6543	-0.01
Mof_C 	C 	0.4076	0.5668	0.6277	-0.057
Mof_C 	C 	0.3394	0.5844	0.5402	-0.014
Mof_C 	C 	0.3311	0.6487	0.3807	0.208
Mof_C 	C 	0.1371	0.6724	0.2829	-0.271
Mof_C 	C 	0.0947	0.7768	0.3195	0.437
Mof_C 	C 	0.7178	0.6837	0.6316	0.207
Mof_C 	C 	0.911	0.7399	0.5993	-0.24
Mof_C 	C 	0.9371	0.8634	0.6244	0.374
Mof_C 	C 	0.3379	0.5078	0.6845	0.226
Mof_C 	C 	0.3434	0.3636	0.7787	-0.239
Mof_C 	C 	0.2566	0.2642	0.7134	0.396
Mof_C 	C 	0.3602	0.053	0.5631	0.186
Mof_C 	C 	0.4732	0.062	0.6091	-0.327
Mof_C 	C 	0.5133	0.9876	0.6594	0.291
Mof_C 	C 	0.4264	0.8972	0.66	-0.284
Mof_C 	C 	0.3111	0.8916	0.6096	0.164
Mof_C 	C 	0.6469	0.9974	0.7045	-0.455
Mof_C 	C 	0.6721	0.9746	0.803	0.222
Mof_C 	C 	0.8146	0.9809	0.8477	-0.428
Mof_C 	C 	0.8333	0.973	0.9526	0.296
Mof_C 	C 	0.8458	0.062	0.0284	-0.299
Mof_C 	C 	0.8603	0.0492	0.1228	0.165
Mof_C 	C 	0.86	0.8688	0.0748	0.182
Mof_C 	C 	0.8408	0.8745	0.9787	-0.309
Mof_C 	C 	0.603	0.3695	0.5218	-0.048
Mof_C 	C 	0.4777	0.3368	0.4907	-0.016
Mof_C 	C 	0.4125	0.3503	0.4036	-0.055
Mof_C 	C 	0.4719	0.3991	0.3457	-0.01
Mof_C 	C 	0.5924	0.4332	0.3723	-0.057
Mof_C 	C 	0.6606	0.4156	0.4598	-0.014
Mof_C 	C 	0.6689	0.3513	0.6193	0.208
Mof_C 	C 	0.8629	0.3276	0.7171	-0.271
Mof_C 	C 	0.9053	0.2232	0.6805	0.437
Mof_C 	C 	0.2822	0.3163	0.3684	0.207
Mof_C 	C 	0.089	0.2601	0.4007	-0.24
Mof_C 	C 	0.0629	0.1366	0.3756	0.374
Mof_C 	C 	0.6621	0.4922	0.3155	0.226
Mof_C 	C 	0.6566	0.6364	0.2213	-0.239
Mof_C 	C 	0.7434	0.7358	0.2866	0.396
Mof_C 	C 	0.6398	0.947	0.4369	0.186
Mof_C 	C 	0.5268	0.938	0.3909	-0.327
Mof_C 	C 	0.4867	0.0124	0.3406	0.291
Mof_C 	C 	0.5736	0.1028	0.34	-0.284
Mof_C 	C 	0.6889	0.1084	0.3904	0.164
Mof_C 	C 	0.3531	0.0026	0.2955	-0.455
Mof_C 	C 	0.3279	0.0254	0.197	0.222
Mof_C 	C 	0.1854	0.0191	0.1523	-0.428
Mof_C 	C 	0.1667	0.027	0.0474	0.296
Mof_C 	C 	0.1542	0.938	0.9716	-0.299
Mof_C 	C 	0.1397	0.9508	0.8772	0.165
Mof_C 	C 	0.14	0.1312	0.9252	0.182
Mof_C 	C 	0.1592	0.1255	0.0213	-0.309
Mof_N 	N 	0.2131	0.6364	0.3596	-0.17
Mof_N 	N 	0.7824	0.6989	0.5697	-0.183
Mof_N 	N 	0.3964	0.4357	0.7245	-0.185
Mof_N 	N 	0.2751	0.9669	0.5625	-0.256
Mof_N 	N 	0.8712	0.9533	0.1472	-0.257
Mof_N 	N 	0.7869	0.3636	0.6404	-0.17
Mof_N 	N 	0.2176	0.3011	0.4303	-0.183
Mof_N 	N 	0.6036	0.5643	0.2755	-0.185
Mof_N 	N 	0.7249	0.0331	0.4375	-0.256
Mof_N 	N 	0.1288	0.0467	0.8528	-0.257
Mof_O 	O 	0.3894	0.675	0.3234	-0.238
Mof_O 	O 	0.125	0.8122	0.409	-0.435
Mof_O 	O 	0.0335	0.8165	0.25667	-0.394
Mof_O 	O 	0.7682	0.6969	0.72238	-0.227
Mof_O 	O 	0.8574	0.919	0.60306	-0.379
Mof_O 	O 	0.0485	0.9032	0.6647	-0.436
Mof_O 	O 	0.2395	0.5219	0.69315	-0.228
Mof_O 	O 	0.219	0.2586	0.62477	-0.275
Mof_O 	O 	0.2308	0.1926	0.7582	-0.395
Mof_O 	O 	0.9317	0.9277	0.42318	-0.499
Mof_O 	O 	0.6106	0.325	0.6766	-0.238
Mof_O 	O 	0.875	0.1878	0.591	-0.435
Mof_O 	O 	0.9665	0.1835	0.74333	-0.394
Mof_O 	O 	0.2318	0.3031	0.27762	-0.227
Mof_O 	O 	0.1426	0.081	0.39694	-0.379
Mof_O 	O 	0.9515	0.0968	0.3353	-0.436
Mof_O 	O 	0.7605	0.4781	0.30685	-0.228
Mof_O 	O 	0.781	0.7414	0.37523	-0.275
Mof_O 	O 	0.7692	0.8074	0.2418	-0.395
Mof_O 	O 	0.0683	0.0723	0.57682	-0.499
_end
