# CIF file generated by openbabel 3.1.0, see https://openbabel.org
data_I
_chemical_name_common 'image0'
_cell_length_a 7.2452
_cell_length_b 13.9706
_cell_length_c 16.3779
_cell_angle_alpha 73.531
_cell_angle_beta 83.678
_cell_angle_gamma 89.998
_space_group_name_H-M_alt 'P 1'
_space_group_name_Hall 'P 1'
loop_
    _symmetry_equiv_pos_as_xyz
    x,y,z
loop_
    _atom_site_label
    _atom_site_type_symbol
    _atom_site_fract_x
    _atom_site_fract_y
    _atom_site_fract_z
    _atom_site_occupancy
    Pt1      Pt       0.49309    0.23753    0.03257    1.000
    N1       N        0.02230    0.09430    0.88160    1.000
    N2       N        0.18130    0.08370    0.02810    1.000
    N3       N        0.81160    0.39520    0.01990    1.000
    N4       N        0.19340    0.40300    0.00810    1.000
    N5       N        0.99250    0.48040    0.12590    1.000
    N6       N        0.79900    0.07940    0.03170    1.000
    C1       C        0.04500    0.06050    0.81240    1.000
    H1       H        0.05440    0.99210    0.82060    1.000
    C2       C        0.05520    0.12290    0.72920    1.000
    H2       H        0.07380    0.09680    0.68270    1.000
    C3       C        0.03690    0.22570    0.71640    1.000
    C4       C        0.01720    0.26220    0.78710    1.000
    H3       H        0.00810    0.33040    0.78010    1.000
    C5       C        0.01140    0.19570    0.86850    1.000
    H4       H        0.99970    0.22060    0.91580    1.000
    C6       C        0.03340    0.28990    0.63070    1.000
    C7       C        0.02390    0.33610    0.55700    1.000
    C8       C        0.29530    0.13900    0.03340    1.000
    C9       C        0.69390    0.33680    0.02660    1.000
    C10      C        0.30410    0.34270    0.01830    1.000
    C11      C        0.68420    0.13480    0.03760    1.000
    C12      C        0.15070    0.48460    0.16230    1.000
    H5       H        0.26180    0.50110    0.12650    1.000
    C13      C        0.15640    0.46580    0.24980    1.000
    H6       H        0.26780    0.47180    0.27160    1.000
    C14      C        0.99210    0.43770    0.30440    1.000
    C15      C        0.82730    0.43320    0.26860    1.000
    H7       H        0.71520    0.41550    0.30350    1.000
    C16      C        0.83300    0.45540    0.17960    1.000
    H8       H        0.72240    0.45310    0.15620    1.000
    C17      C        0.99640    0.41010    0.39620    1.000
    C18      C        0.01110    0.37920    0.47140    1.000
    Pt2      Pt       0.50691    0.76247    0.96743    1.000
    N7       N        0.97770    0.90570    0.11840    1.000
    N8       N        0.81870    0.91630    0.97190    1.000
    N9       N        0.18840    0.60480    0.98010    1.000
    N10      N        0.80660    0.59700    0.99190    1.000
    N11      N        0.00750    0.51960    0.87410    1.000
    N12      N        0.20100    0.92060    0.96830    1.000
    C19      C        0.95500    0.93950    0.18760    1.000
    H9       H        0.94560    0.00790    0.17940    1.000
    C20      C        0.94480    0.87710    0.27080    1.000
    H10      H        0.92620    0.90320    0.31730    1.000
    C21      C        0.96310    0.77430    0.28360    1.000
    C22      C        0.98280    0.73780    0.21290    1.000
    H11      H        0.99190    0.66960    0.21990    1.000
    C23      C        0.98860    0.80430    0.13150    1.000
    H12      H        0.00030    0.77940    0.08420    1.000
    C24      C        0.96660    0.71010    0.36930    1.000
    C25      C        0.97610    0.66390    0.44300    1.000
    C26      C        0.70470    0.86100    0.96660    1.000
    C27      C        0.30610    0.66320    0.97340    1.000
    C28      C        0.69590    0.65730    0.98170    1.000
    C29      C        0.31580    0.86520    0.96240    1.000
    C30      C        0.84930    0.51540    0.83770    1.000
    H13      H        0.73820    0.49890    0.87350    1.000
    C31      C        0.84360    0.53420    0.75020    1.000
    H14      H        0.73220    0.52820    0.72840    1.000
    C32      C        0.00790    0.56230    0.69560    1.000
    C33      C        0.17270    0.56680    0.73140    1.000
    H15      H        0.28480    0.58450    0.69650    1.000
    C34      C        0.16700    0.54460    0.82040    1.000
    H16      H        0.27760    0.54690    0.84380    1.000
    C35      C        0.00360    0.58990    0.60380    1.000
    C36      C        0.98890    0.62080    0.52860    1.000
    Fe1      Fe       0.00000    0.50000    0.00000    1.000
    Fe2      Fe       0.00000    0.00000    0.00000    1.000
