data_functionalizedCrystal
_audit_creation_method	'EQeq! by Chris Wilmer'
_symmetry_space_group_name_H-M	'P1'
_symmetry_Int_Tables_number	1
_symmetry_cell_setting	triclinic
loop_
_symmetry_equiv_pos_as_xyz
  x,y,z
_cell_length_a	20.299
_cell_length_b	20.331
_cell_length_c	20.331
_cell_angle_alpha	90
_cell_angle_beta	90
_cell_angle_gamma	90
loop_
_atom_site_label
_atom_site_type_symbol
_atom_site_fract_x
_atom_site_fract_y
_atom_site_fract_z
_atom_site_charge
Mof_Na	Na	0.865	0.8146	0.8146	1.436
Mof_Na	Na	0.135	0.8146	0.8146	1.547
Mof_Na	Na	0.865	0.1854	0.1854	1.458
Mof_Na	Na	0.865	0.1854	0.8146	1.447
Mof_Na	Na	0.865	0.8146	0.1854	1.447
Mof_Na	Na	0.135	0.1854	0.8146	1.559
Mof_Na	Na	0.135	0.8146	0.1854	1.559
Mof_Na	Na	0.135	0.1854	0.1854	1.57
Mof_Cd	Cd	2.74591e-32	0.9029	0.9029	0.343
Mof_Cd	Cd	3.39067e-33	0.0971	0.9029	0.35
Mof_Cd	Cd	-3.87499e-34	0.0971	0.0971	0.357
Mof_Cd	Cd	5.62962e-33	0.9029	0.0971	0.35
Mof_Cd	Cd	0.5	0.94812	0.5	0.214
Mof_Cd	Cd	0.5	0.5	0.05188	0.242
Mof_Cd	Cd	0.5	0.05188	0.5	0.242
Mof_Cd	Cd	0.5	0.5	0.94812	0.214
Mof_H 	H 	0.2293	0.9004	0.7533	-0.146
Mof_H 	H 	0.7707	0.9004	0.2467	-0.141
Mof_H 	H 	0.2293	0.7533	0.0996	-0.148
Mof_H 	H 	0.7449	3.00856e-33	0.4395	0.022
Mof_H 	H 	0.2293	0.0996	0.2467	-0.148
Mof_H 	H 	0.3199	0.682	0.0997	0.06
Mof_H 	H 	0.7449	0.4395	-0	0.022
Mof_H 	H 	0.7449	0	0.5605	0.022
Mof_H 	H 	0.6801	0.0997	0.318	0.058
Mof_H 	H 	0.6801	0.682	0.0997	0.057
Mof_H 	H 	0.2293	0.7533	0.9004	-0.146
Mof_H 	H 	0.6801	0.682	0.9003	0.057
Mof_H 	H 	0.5606	0	0.7477	0.042
Mof_H 	H 	0.3199	0.318	0.0997	0.061
Mof_H 	H 	0.2551	0.4395	-0	0.029
Mof_H 	H 	0.4394	0	0.2523	0.044
Mof_H 	H 	0.7707	0.7533	0.9004	-0.141
Mof_H 	H 	0.2551	3.00856e-33	0.4395	0.029
Mof_H 	H 	0.7707	0.0996	0.7533	-0.143
Mof_H 	H 	0.6801	0.318	0.0997	0.058
Mof_H 	H 	0.3199	0.0997	0.318	0.061
Mof_H 	H 	0.3199	0.0997	0.682	0.06
Mof_H 	H 	0.3199	0.682	0.9003	0.06
Mof_H 	H 	0.5606	0.7477	-0	0.042
Mof_H 	H 	0.6801	0.0997	0.682	0.057
Mof_H 	H 	0.5606	0.2523	-0	0.044
Mof_H 	H 	0.3199	0.318	0.9003	0.061
Mof_H 	H 	0.2551	0	0.5605	0.029
Mof_H 	H 	0.3199	0.9003	0.682	0.06
Mof_H 	H 	0.7449	0.5605	-0	0.022
Mof_H 	H 	0.6801	0.318	0.9003	0.058
Mof_H 	H 	0.6801	0.9003	0.682	0.057
Mof_H 	H 	0.2293	0.0996	0.7533	-0.148
Mof_H 	H 	0.7707	0.2467	0.0996	-0.143
Mof_H 	H 	0.7707	0.2467	0.9004	-0.141
Mof_H 	H 	0.4394	0	0.7477	0.042
Mof_H 	H 	0.2551	0.5605	-0	0.029
Mof_H 	H 	0.4394	0.2523	-0	0.044
Mof_H 	H 	0.7707	0.0996	0.2467	-0.143
Mof_H 	H 	0.4394	0.7477	-0	0.042
Mof_H 	H 	0.2293	0.2467	0.0996	-0.148
Mof_H 	H 	0.2293	0.2467	0.9004	-0.147
Mof_H 	H 	0.2293	0.9004	0.2467	-0.147
Mof_H 	H 	0.6801	0.9003	0.318	0.058
Mof_H 	H 	0.5606	0	0.2523	0.044
Mof_H 	H 	0.7707	0.7533	0.0996	-0.143
Mof_H 	H 	0.3199	0.9003	0.318	0.061
Mof_H 	H 	0.7707	0.9004	0.7533	-0.141
Mof_C 	C 	0.3005	0.05924	0.3048	-0.231
Mof_C 	C 	0.44519	0.6465	-0	0.089
Mof_C 	C 	0.2467	0.7375	0.05922	0.12
Mof_C 	C 	0.6995	0.05924	0.3048	-0.227
Mof_C 	C 	0.3565	0.55476	-0	0.086
Mof_C 	C 	0.6742	3.00856e-33	0.3278	0.143
Mof_C 	C 	0.3804	0	0.3797	-0.142
Mof_C 	C 	0.2467	0.2625	0.94078	0.108
Mof_C 	C 	0.6742	0.3278	-0	0.143
Mof_C 	C 	0.53337	0.7097	-0	-0.096
Mof_C 	C 	0.161	0.2016	-0	0.16
Mof_C 	C 	0.7816	0.2433	-0	-0.199
Mof_C 	C 	0.3258	0	0.6722	0.147
Mof_C 	C 	0.839	0.2016	-0	0.151
Mof_C 	C 	0.839	0.7984	-0	0.15
Mof_C 	C 	0.7533	0.2625	0.94078	0.098
Mof_C 	C 	0.3804	0.3797	-0	-0.142
Mof_C 	C 	0.161	-6.01711e-33	0.7984	0.158
Mof_C 	C 	0.6995	0.3048	0.94076	-0.241
Mof_C 	C 	0.3565	6.01711e-33	0.55476	0.086
Mof_C 	C 	0.7533	0.94078	0.2625	0.098
Mof_C 	C 	0.7533	0.7375	0.94078	0.096
Mof_C 	C 	0.44519	0	0.3535	0.09
Mof_C 	C 	0.46663	0.2903	-0	-0.096
Mof_C 	C 	0.7533	0.7375	0.05922	0.11
Mof_C 	C 	0.3005	0.3048	0.05924	-0.231
Mof_C 	C 	0.3804	0.6203	-0	-0.142
Mof_C 	C 	0.53337	6.01711e-33	0.7097	-0.096
Mof_C 	C 	0.2467	0.7375	0.94078	0.106
Mof_C 	C 	0.46663	6.01711e-33	0.7097	-0.096
Mof_C 	C 	0.55481	0	0.6465	0.089
Mof_C 	C 	0.6196	0.3797	-0	-0.141
Mof_C 	C 	0.2184	0.2433	-0	-0.205
Mof_C 	C 	0.6435	6.01711e-33	0.44524	0.084
Mof_C 	C 	0.7816	0	0.7567	-0.198
Mof_C 	C 	0.7533	0.05922	0.7375	0.11
Mof_C 	C 	0.7816	0	0.2433	-0.199
Mof_C 	C 	0.6995	0.3048	0.05924	-0.227
Mof_C 	C 	0.3565	0.44524	-0	0.086
Mof_C 	C 	0.6742	0.6722	-0	0.143
Mof_C 	C 	0.7069	0.53332	-0	-0.104
Mof_C 	C 	0.7533	0.94078	0.7375	0.096
Mof_C 	C 	0.53337	0	0.2903	-0.096
Mof_C 	C 	0.44519	0	0.6465	0.089
Mof_C 	C 	0.6196	6.01711e-33	0.6203	-0.141
Mof_C 	C 	0.161	1.50428e-33	0.2016	0.16
Mof_C 	C 	0.2184	0	0.7567	-0.204
Mof_C 	C 	0.6435	6.01711e-33	0.55476	0.084
Mof_C 	C 	0.839	1.50428e-33	0.2016	0.151
Mof_C 	C 	0.46663	0.7097	-0	-0.096
Mof_C 	C 	0.7533	0.2625	0.05922	0.112
Mof_C 	C 	0.2467	0.94078	0.2625	0.108
Mof_C 	C 	0.3005	0.6952	0.05924	-0.231
Mof_C 	C 	0.3005	0.94076	0.6952	-0.245
Mof_C 	C 	0.3258	0.3278	-0	0.148
Mof_C 	C 	0.6995	0.6952	0.05924	-0.226
Mof_C 	C 	0.2467	0.05922	0.7375	0.12
Mof_C 	C 	0.2184	0.7567	-0	-0.204
Mof_C 	C 	0.3258	3.00856e-33	0.3278	0.148
Mof_C 	C 	0.839	-6.01711e-33	0.7984	0.15
Mof_C 	C 	0.2931	0	0.46668	-0.102
Mof_C 	C 	0.6196	0	0.3797	-0.141
Mof_C 	C 	0.2931	0.53332	-0	-0.102
Mof_C 	C 	0.3005	0.05924	0.6952	-0.231
Mof_C 	C 	0.6742	0	0.6722	0.143
Mof_C 	C 	0.3804	6.01711e-33	0.6203	-0.142
Mof_C 	C 	0.6435	0.55476	-0	0.084
Mof_C 	C 	0.2467	0.05922	0.2625	0.122
Mof_C 	C 	0.7069	0	0.53332	-0.104
Mof_C 	C 	0.7069	0.46668	-0	-0.104
Mof_C 	C 	0.53337	0.2903	-0	-0.096
Mof_C 	C 	0.55481	0.3535	-0	0.089
Mof_C 	C 	0.2467	0.94078	0.7375	0.106
Mof_C 	C 	0.7816	0.7567	-0	-0.198
Mof_C 	C 	0.6995	0.05924	0.6952	-0.226
Mof_C 	C 	0.7533	0.05922	0.2625	0.112
Mof_C 	C 	0.2931	0.46668	-0	-0.102
Mof_C 	C 	0.6196	0.6203	-0	-0.141
Mof_C 	C 	0.2931	0	0.53332	-0.102
Mof_C 	C 	0.3005	0.94076	0.3048	-0.245
Mof_C 	C 	0.3258	0.6722	-0	0.147
Mof_C 	C 	0.44519	0.3535	-0	0.09
Mof_C 	C 	0.161	0.7984	-0	0.158
Mof_C 	C 	0.2184	0	0.2433	-0.205
Mof_C 	C 	0.6995	0.6952	0.94076	-0.24
Mof_C 	C 	0.6995	0.94076	0.3048	-0.241
Mof_C 	C 	0.6435	0.44524	-0	0.084
Mof_C 	C 	0.3005	0.3048	0.94076	-0.245
Mof_C 	C 	0.2467	0.2625	0.05922	0.122
Mof_C 	C 	0.6995	0.94076	0.6952	-0.24
Mof_C 	C 	0.7069	0	0.46668	-0.104
Mof_C 	C 	0.3565	6.01711e-33	0.44524	0.086
Mof_C 	C 	0.55481	0	0.3535	0.089
Mof_C 	C 	0.46663	0	0.2903	-0.096
Mof_C 	C 	0.55481	0.6465	-0	0.089
Mof_C 	C 	0.3005	0.6952	0.94076	-0.245
Mof_N 	N 	0.5	6.01711e-33	0.6047	-0.176
Mof_N 	N 	0.8696	0.055	0.1816	-0.245
Mof_N 	N 	0.1304	0.945	0.8184	-0.254
Mof_N 	N 	0.92062	0.1465	0.96788	-0.133
Mof_N 	N 	0.1304	0.8184	0.945	-0.254
Mof_N 	N 	0.8696	0.1816	0.945	-0.252
Mof_N 	N 	0.8696	0.8184	0.055	-0.245
Mof_N 	N 	0.07938	0.03212	0.8535	-0.101
Mof_N 	N 	0.07938	0.03212	0.1465	-0.1
Mof_N 	N 	0.07938	0.8535	0.96788	-0.115
Mof_N 	N 	0.92062	0.96788	0.8535	-0.134
Mof_N 	N 	0.8696	0.055	0.8184	-0.245
Mof_N 	N 	0.1304	0.945	0.1816	-0.254
Mof_N 	N 	0.07938	0.1465	0.03212	-0.1
Mof_N 	N 	0.8696	0.945	0.8184	-0.252
Mof_N 	N 	0.92062	0.96788	0.1465	-0.133
Mof_N 	N 	0.8696	0.8184	0.945	-0.252
Mof_N 	N 	0.5	0.6047	-0	-0.176
Mof_N 	N 	0.6017	0	0.5	-0.179
Mof_N 	N 	0.1304	0.055	0.1816	-0.247
Mof_N 	N 	0.1304	0.1816	0.055	-0.247
Mof_N 	N 	0.92062	0.1465	0.03212	-0.119
Mof_N 	N 	0.8696	0.945	0.1816	-0.252
Mof_N 	N 	0.3983	0	0.5	-0.179
Mof_N 	N 	0.5	0.3953	-0	-0.176
Mof_N 	N 	0.92062	0.8535	0.96788	-0.134
Mof_N 	N 	0.92062	0.03212	0.8535	-0.12
Mof_N 	N 	0.92062	0.03212	0.1465	-0.119
Mof_N 	N 	0.3983	0.5	-0	-0.179
Mof_N 	N 	0.07938	0.96788	0.1465	-0.114
Mof_N 	N 	0.1304	0.055	0.8184	-0.247
Mof_N 	N 	0.6017	0.5	-0	-0.179
Mof_N 	N 	0.07938	0.96788	0.8535	-0.115
Mof_N 	N 	0.5	-3.00856e-33	0.3953	-0.176
Mof_N 	N 	0.8696	0.1816	0.055	-0.245
Mof_N 	N 	0.1304	0.8184	0.055	-0.247
Mof_N 	N 	0.92062	0.8535	0.03212	-0.12
Mof_N 	N 	0.1304	0.1816	0.945	-0.254
Mof_N 	N 	0.07938	0.1465	0.96788	-0.114
Mof_N 	N 	0.07938	0.8535	0.03212	-0.101
Mof_Cl	Cl	5.18654e-33	0.8206	0.1794	-0.915
Mof_Cl	Cl	-8.30576e-34	0.1794	0.1794	-0.916
Mof_Cl	Cl	3.08161e-33	0.8206	0.8206	-0.913
Mof_Cl	Cl	9.09872e-33	0.1794	0.8206	-0.915
_end
