data_functionalizedCrystal
_audit_creation_method	'EQeq! by Chris Wilmer'
_symmetry_space_group_name_H-M	'P1'
_symmetry_Int_Tables_number	1
_symmetry_cell_setting	triclinic
loop_
_symmetry_equiv_pos_as_xyz
  x,y,z
_cell_length_a	30.2005
_cell_length_b	30.2005
_cell_length_c	30.2005
_cell_angle_alpha	60
_cell_angle_beta	60
_cell_angle_gamma	60
loop_
_atom_site_label
_atom_site_type_symbol
_atom_site_fract_x
_atom_site_fract_y
_atom_site_fract_z
_atom_site_charge
Mof_Cu	Cu	-2.33476e-17	0.26254	-0	0.806
Mof_Cu	Cu	-2.33476e-17	0.35008	-0	0.803
Mof_Cu	Cu	0.26254	0	0.73746	0.862
Mof_Cu	Cu	0.35008	0	0.64992	0.855
Mof_Cu	Cu	-4.66953e-17	0.73746	-0	0.813
Mof_Cu	Cu	-4.66953e-17	0.64992	-0	0.804
Mof_Cu	Cu	0.73746	1.16738e-17	0.26254	0.862
Mof_Cu	Cu	0.64992	2.33476e-17	0.35008	0.855
Mof_Cu	Cu	-0	0	0.73746	0.813
Mof_Cu	Cu	2.33476e-17	0	0.64992	0.804
Mof_Cu	Cu	0.26254	0.73746	-0	0.862
Mof_Cu	Cu	0.35008	0.64992	-0	0.855
Mof_Cu	Cu	5.83691e-18	1.16738e-17	0.26254	0.806
Mof_Cu	Cu	-1.16738e-17	2.33476e-17	0.35008	0.803
Mof_Cu	Cu	0.73746	0.26254	-0	0.862
Mof_Cu	Cu	0.64992	0.35008	-0	0.855
Mof_Cu	Cu	-8.75536e-17	0.73746	0.26254	0.862
Mof_Cu	Cu	-5.83691e-17	0.64992	0.35008	0.855
Mof_Cu	Cu	0.26254	0	-0	0.806
Mof_Cu	Cu	0.35008	0	-0	0.803
Mof_Cu	Cu	-4.66953e-17	0.26254	0.73746	0.862
Mof_Cu	Cu	-7.00429e-17	0.35008	0.64992	0.856
Mof_Cu	Cu	0.73746	0	-0	0.814
Mof_Cu	Cu	0.64992	0	-0	0.805
Mof_H 	H 	0.1689	0.3031	0.9697	0.06
Mof_H 	H 	0.3875	0.2343	0.9391	0.14
Mof_H 	H 	0.3031	0.1689	0.5583	0.042
Mof_H 	H 	0.2343	0.3875	0.4391	0.129
Mof_H 	H 	0.9697	0.5583	0.1689	0.063
Mof_H 	H 	0.9391	0.4391	0.3875	0.146
Mof_H 	H 	0.5583	0.9697	0.3031	0.07
Mof_H 	H 	0.4391	0.9391	0.2343	0.14
Mof_H 	H 	0.1689	0.9697	0.5583	0.063
Mof_H 	H 	0.3875	0.9391	0.4391	0.146
Mof_H 	H 	0.3031	0.5583	0.9697	0.07
Mof_H 	H 	0.2343	0.4391	0.9391	0.14
Mof_H 	H 	0.9697	0.1689	0.3031	0.06
Mof_H 	H 	0.9391	0.3875	0.2343	0.14
Mof_H 	H 	0.5583	0.3031	0.1689	0.042
Mof_H 	H 	0.4391	0.2343	0.3875	0.129
Mof_H 	H 	0.1689	0.5583	0.3031	0.042
Mof_H 	H 	0.3875	0.4391	0.2343	0.129
Mof_H 	H 	0.3031	0.9697	0.1689	0.06
Mof_H 	H 	0.2343	0.9391	0.3875	0.14
Mof_H 	H 	0.9697	0.3031	0.5583	0.07
Mof_H 	H 	0.9391	0.2343	0.4391	0.14
Mof_H 	H 	0.5583	0.1689	0.9697	0.063
Mof_H 	H 	0.4391	0.3875	0.9391	0.146
Mof_H 	H 	0.6969	0.8311	0.0303	0.059
Mof_H 	H 	0.7657	0.6125	0.0609	0.137
Mof_H 	H 	0.8311	0.6969	0.4417	0.073
Mof_H 	H 	0.6125	0.7657	0.5609	0.147
Mof_H 	H 	0.4417	0.0303	0.8311	0.055
Mof_H 	H 	0.5609	0.0609	0.6125	0.13
Mof_H 	H 	0.0303	0.4417	0.6969	0.046
Mof_H 	H 	0.0609	0.5609	0.7657	0.137
Mof_H 	H 	0.0303	0.8311	0.4417	0.055
Mof_H 	H 	0.0609	0.6125	0.5609	0.13
Mof_H 	H 	0.4417	0.6969	0.0303	0.046
Mof_H 	H 	0.5609	0.7657	0.0609	0.137
Mof_H 	H 	0.8311	0.0303	0.6969	0.059
Mof_H 	H 	0.6125	0.0609	0.7657	0.137
Mof_H 	H 	0.6969	0.4417	0.8311	0.073
Mof_H 	H 	0.7657	0.5609	0.6125	0.147
Mof_H 	H 	0.4417	0.8311	0.6969	0.073
Mof_H 	H 	0.5609	0.6125	0.7657	0.147
Mof_H 	H 	0.0303	0.6969	0.8311	0.059
Mof_H 	H 	0.0609	0.7657	0.6125	0.137
Mof_H 	H 	0.6969	0.0303	0.4417	0.046
Mof_H 	H 	0.7657	0.0609	0.5609	0.137
Mof_H 	H 	0.8311	0.4417	0.0303	0.055
Mof_H 	H 	0.6125	0.5609	0.0609	0.13
Mof_H 	H 	0.8311	0.6969	0.0303	0.059
Mof_H 	H 	0.6125	0.7657	0.0609	0.137
Mof_H 	H 	0.6969	0.8311	0.4417	0.073
Mof_H 	H 	0.7657	0.6125	0.5609	0.147
Mof_H 	H 	0.0303	0.4417	0.8311	0.055
Mof_H 	H 	0.0609	0.5609	0.6125	0.13
Mof_H 	H 	0.4417	0.0303	0.6969	0.046
Mof_H 	H 	0.5609	0.0609	0.7657	0.137
Mof_H 	H 	0.8311	0.0303	0.4417	0.055
Mof_H 	H 	0.6125	0.0609	0.5609	0.13
Mof_H 	H 	0.6969	0.4417	0.0303	0.046
Mof_H 	H 	0.7657	0.5609	0.0609	0.137
Mof_H 	H 	0.0303	0.8311	0.6969	0.059
Mof_H 	H 	0.0609	0.6125	0.7657	0.137
Mof_H 	H 	0.4417	0.6969	0.8311	0.073
Mof_H 	H 	0.5609	0.7657	0.6125	0.147
Mof_H 	H 	0.8311	0.4417	0.6969	0.073
Mof_H 	H 	0.6125	0.5609	0.7657	0.147
Mof_H 	H 	0.6969	0.0303	0.8311	0.059
Mof_H 	H 	0.7657	0.0609	0.6125	0.137
Mof_H 	H 	0.0303	0.6969	0.4417	0.046
Mof_H 	H 	0.0609	0.7657	0.5609	0.137
Mof_H 	H 	0.4417	0.8311	0.0303	0.055
Mof_H 	H 	0.5609	0.6125	0.0609	0.13
Mof_H 	H 	0.3031	0.1689	0.9697	0.06
Mof_H 	H 	0.2343	0.3875	0.9391	0.14
Mof_H 	H 	0.1689	0.3031	0.5583	0.042
Mof_H 	H 	0.3875	0.2343	0.4391	0.129
Mof_H 	H 	0.5583	0.9697	0.1689	0.063
Mof_H 	H 	0.4391	0.9391	0.3875	0.146
Mof_H 	H 	0.9697	0.5583	0.3031	0.07
Mof_H 	H 	0.9391	0.4391	0.2343	0.14
Mof_H 	H 	0.9697	0.1689	0.5583	0.063
Mof_H 	H 	0.9391	0.3875	0.4391	0.146
Mof_H 	H 	0.5583	0.3031	0.9697	0.07
Mof_H 	H 	0.4391	0.2343	0.9391	0.14
Mof_H 	H 	0.1689	0.9697	0.3031	0.06
Mof_H 	H 	0.3875	0.9391	0.2343	0.14
Mof_H 	H 	0.3031	0.5583	0.1689	0.042
Mof_H 	H 	0.2343	0.4391	0.3875	0.129
Mof_H 	H 	0.5583	0.1689	0.3031	0.042
Mof_H 	H 	0.4391	0.3875	0.2343	0.129
Mof_H 	H 	0.9697	0.3031	0.1689	0.06
Mof_H 	H 	0.9391	0.2343	0.3875	0.14
Mof_H 	H 	0.3031	0.9697	0.5583	0.07
Mof_H 	H 	0.2343	0.9391	0.4391	0.14
Mof_H 	H 	0.1689	0.5583	0.9697	0.063
Mof_H 	H 	0.3875	0.4391	0.9391	0.146
Mof_H 	H 	0.1654	0.1654	0.9834	0.051
Mof_H 	H 	0.1654	0.1654	0.6858	0.03
Mof_H 	H 	0.9834	0.6858	0.1654	0.066
Mof_H 	H 	0.6858	0.9834	0.1654	0.066
Mof_H 	H 	0.1654	0.9834	0.6858	0.066
Mof_H 	H 	0.1654	0.6858	0.9834	0.066
Mof_H 	H 	0.9834	0.1654	0.1654	0.051
Mof_H 	H 	0.6858	0.1654	0.1654	0.03
Mof_H 	H 	0.1654	0.6858	0.1654	0.03
Mof_H 	H 	0.1654	0.9834	0.1654	0.051
Mof_H 	H 	0.9834	0.1654	0.6858	0.066
Mof_H 	H 	0.6858	0.1654	0.9834	0.066
Mof_H 	H 	0.8346	0.8346	0.0166	0.057
Mof_H 	H 	0.8346	0.8346	0.3142	0.073
Mof_H 	H 	0.3142	0.0166	0.8346	0.04
Mof_H 	H 	0.0166	0.3142	0.8346	0.04
Mof_H 	H 	0.0166	0.8346	0.3142	0.04
Mof_H 	H 	0.3142	0.8346	0.0166	0.04
Mof_H 	H 	0.8346	0.0166	0.8346	0.057
Mof_H 	H 	0.8346	0.3142	0.8346	0.073
Mof_H 	H 	0.3142	0.8346	0.8346	0.073
Mof_H 	H 	0.0166	0.8346	0.8346	0.057
Mof_H 	H 	0.8346	0.0166	0.3142	0.04
Mof_H 	H 	0.8346	0.3142	0.0166	0.04
Mof_C 	C 	0.10109	0.26429	0.98295	0.345
Mof_C 	C 	0.15844	0.2376	0.97742	-0.083
Mof_C 	C 	0.18665	0.26655	0.97045	-0.032
Mof_C 	C 	0.26429	0.10109	0.65167	0.359
Mof_C 	C 	0.2376	0.15844	0.62654	-0.117
Mof_C 	C 	0.26655	0.18665	0.57635	-0.019
Mof_C 	C 	0.98295	0.65167	0.10109	0.341
Mof_C 	C 	0.97742	0.62654	0.15844	-0.071
Mof_C 	C 	0.97045	0.57635	0.18665	-0.038
Mof_C 	C 	0.65167	0.98295	0.26429	0.341
Mof_C 	C 	0.62654	0.97742	0.2376	-0.064
Mof_C 	C 	0.57635	0.97045	0.26655	-0.039
Mof_C 	C 	0.10109	0.98295	0.65167	0.341
Mof_C 	C 	0.15844	0.97742	0.62654	-0.071
Mof_C 	C 	0.18665	0.97045	0.57635	-0.038
Mof_C 	C 	0.26429	0.65167	0.98295	0.341
Mof_C 	C 	0.2376	0.62654	0.97742	-0.064
Mof_C 	C 	0.26655	0.57635	0.97045	-0.039
Mof_C 	C 	0.98295	0.10109	0.26429	0.345
Mof_C 	C 	0.97742	0.15844	0.2376	-0.083
Mof_C 	C 	0.97045	0.18665	0.26655	-0.032
Mof_C 	C 	0.65167	0.26429	0.10109	0.359
Mof_C 	C 	0.62654	0.2376	0.15844	-0.117
Mof_C 	C 	0.57635	0.26655	0.18665	-0.019
Mof_C 	C 	0.10109	0.65167	0.26429	0.359
Mof_C 	C 	0.15844	0.62654	0.2376	-0.117
Mof_C 	C 	0.18665	0.57635	0.26655	-0.019
Mof_C 	C 	0.26429	0.98295	0.10109	0.345
Mof_C 	C 	0.2376	0.97742	0.15844	-0.083
Mof_C 	C 	0.26655	0.97045	0.18665	-0.032
Mof_C 	C 	0.98295	0.26429	0.65167	0.341
Mof_C 	C 	0.97742	0.2376	0.62654	-0.064
Mof_C 	C 	0.97045	0.26655	0.57635	-0.039
Mof_C 	C 	0.65167	0.10109	0.98295	0.341
Mof_C 	C 	0.62654	0.15844	0.97742	-0.071
Mof_C 	C 	0.57635	0.18665	0.97045	-0.038
Mof_C 	C 	0.73571	0.89891	0.01705	0.342
Mof_C 	C 	0.7624	0.84156	0.02258	-0.081
Mof_C 	C 	0.73345	0.81335	0.02955	-0.035
Mof_C 	C 	0.89891	0.73571	0.34833	0.34
Mof_C 	C 	0.84156	0.7624	0.37346	-0.057
Mof_C 	C 	0.81335	0.73345	0.42365	-0.041
Mof_C 	C 	0.34833	0.01705	0.89891	0.346
Mof_C 	C 	0.37346	0.02258	0.84156	-0.095
Mof_C 	C 	0.42365	0.02955	0.81335	-0.027
Mof_C 	C 	0.01705	0.34833	0.73571	0.357
Mof_C 	C 	0.02258	0.37346	0.7624	-0.106
Mof_C 	C 	0.02955	0.42365	0.73345	-0.024
Mof_C 	C 	0.01705	0.89891	0.34833	0.346
Mof_C 	C 	0.02258	0.84156	0.37346	-0.095
Mof_C 	C 	0.02955	0.81335	0.42365	-0.027
Mof_C 	C 	0.34833	0.73571	0.01705	0.357
Mof_C 	C 	0.37346	0.7624	0.02258	-0.106
Mof_C 	C 	0.42365	0.73345	0.02955	-0.024
Mof_C 	C 	0.89891	0.01705	0.73571	0.342
Mof_C 	C 	0.84156	0.02258	0.7624	-0.081
Mof_C 	C 	0.81335	0.02955	0.73345	-0.035
Mof_C 	C 	0.73571	0.34833	0.89891	0.34
Mof_C 	C 	0.7624	0.37346	0.84156	-0.057
Mof_C 	C 	0.73345	0.42365	0.81335	-0.041
Mof_C 	C 	0.34833	0.89891	0.73571	0.34
Mof_C 	C 	0.37346	0.84156	0.7624	-0.057
Mof_C 	C 	0.42365	0.81335	0.73345	-0.041
Mof_C 	C 	0.01705	0.73571	0.89891	0.342
Mof_C 	C 	0.02258	0.7624	0.84156	-0.081
Mof_C 	C 	0.02955	0.73345	0.81335	-0.035
Mof_C 	C 	0.73571	0.01705	0.34833	0.357
Mof_C 	C 	0.7624	0.02258	0.37346	-0.106
Mof_C 	C 	0.73345	0.02955	0.42365	-0.024
Mof_C 	C 	0.89891	0.34833	0.01705	0.346
Mof_C 	C 	0.84156	0.37346	0.02258	-0.095
Mof_C 	C 	0.81335	0.42365	0.02955	-0.027
Mof_C 	C 	0.89891	0.73571	0.01705	0.342
Mof_C 	C 	0.84156	0.7624	0.02258	-0.081
Mof_C 	C 	0.81335	0.73345	0.02955	-0.035
Mof_C 	C 	0.73571	0.89891	0.34833	0.34
Mof_C 	C 	0.7624	0.84156	0.37346	-0.057
Mof_C 	C 	0.73345	0.81335	0.42365	-0.041
Mof_C 	C 	0.01705	0.34833	0.89891	0.346
Mof_C 	C 	0.02258	0.37346	0.84156	-0.095
Mof_C 	C 	0.02955	0.42365	0.81335	-0.027
Mof_C 	C 	0.34833	0.01705	0.73571	0.357
Mof_C 	C 	0.37346	0.02258	0.7624	-0.106
Mof_C 	C 	0.42365	0.02955	0.73345	-0.024
Mof_C 	C 	0.89891	0.01705	0.34833	0.346
Mof_C 	C 	0.84156	0.02258	0.37346	-0.095
Mof_C 	C 	0.81335	0.02955	0.42365	-0.027
Mof_C 	C 	0.73571	0.34833	0.01705	0.357
Mof_C 	C 	0.7624	0.37346	0.02258	-0.106
Mof_C 	C 	0.73345	0.42365	0.02955	-0.024
Mof_C 	C 	0.01705	0.89891	0.73571	0.342
Mof_C 	C 	0.02258	0.84156	0.7624	-0.081
Mof_C 	C 	0.02955	0.81335	0.73345	-0.035
Mof_C 	C 	0.34833	0.73571	0.89891	0.34
Mof_C 	C 	0.37346	0.7624	0.84156	-0.057
Mof_C 	C 	0.42365	0.73345	0.81335	-0.041
Mof_C 	C 	0.89891	0.34833	0.73571	0.34
Mof_C 	C 	0.84156	0.37346	0.7624	-0.057
Mof_C 	C 	0.81335	0.42365	0.73345	-0.041
Mof_C 	C 	0.73571	0.01705	0.89891	0.342
Mof_C 	C 	0.7624	0.02258	0.84156	-0.081
Mof_C 	C 	0.73345	0.02955	0.81335	-0.035
Mof_C 	C 	0.01705	0.73571	0.34833	0.357
Mof_C 	C 	0.02258	0.7624	0.37346	-0.106
Mof_C 	C 	0.02955	0.73345	0.42365	-0.024
Mof_C 	C 	0.34833	0.89891	0.01705	0.346
Mof_C 	C 	0.37346	0.84156	0.02258	-0.095
Mof_C 	C 	0.42365	0.81335	0.02955	-0.027
Mof_C 	C 	0.26429	0.10109	0.98295	0.345
Mof_C 	C 	0.2376	0.15844	0.97742	-0.083
Mof_C 	C 	0.26655	0.18665	0.97045	-0.032
Mof_C 	C 	0.10109	0.26429	0.65167	0.359
Mof_C 	C 	0.15844	0.2376	0.62654	-0.117
Mof_C 	C 	0.18665	0.26655	0.57635	-0.019
Mof_C 	C 	0.65167	0.98295	0.10109	0.341
Mof_C 	C 	0.62654	0.97742	0.15844	-0.071
Mof_C 	C 	0.57635	0.97045	0.18665	-0.038
Mof_C 	C 	0.98295	0.65167	0.26429	0.341
Mof_C 	C 	0.97742	0.62654	0.2376	-0.064
Mof_C 	C 	0.97045	0.57635	0.26655	-0.039
Mof_C 	C 	0.98295	0.10109	0.65167	0.341
Mof_C 	C 	0.97742	0.15844	0.62654	-0.071
Mof_C 	C 	0.97045	0.18665	0.57635	-0.038
Mof_C 	C 	0.65167	0.26429	0.98295	0.341
Mof_C 	C 	0.62654	0.2376	0.97742	-0.064
Mof_C 	C 	0.57635	0.26655	0.97045	-0.039
Mof_C 	C 	0.10109	0.98295	0.26429	0.345
Mof_C 	C 	0.15844	0.97742	0.2376	-0.083
Mof_C 	C 	0.18665	0.97045	0.26655	-0.032
Mof_C 	C 	0.26429	0.65167	0.10109	0.359
Mof_C 	C 	0.2376	0.62654	0.15844	-0.117
Mof_C 	C 	0.26655	0.57635	0.18665	-0.019
Mof_C 	C 	0.65167	0.10109	0.26429	0.359
Mof_C 	C 	0.62654	0.15844	0.2376	-0.117
Mof_C 	C 	0.57635	0.18665	0.26655	-0.019
Mof_C 	C 	0.98295	0.26429	0.10109	0.345
Mof_C 	C 	0.97742	0.2376	0.15844	-0.083
Mof_C 	C 	0.97045	0.26655	0.18665	-0.032
Mof_C 	C 	0.26429	0.98295	0.65167	0.341
Mof_C 	C 	0.2376	0.97742	0.62654	-0.064
Mof_C 	C 	0.26655	0.97045	0.57635	-0.039
Mof_C 	C 	0.10109	0.65167	0.98295	0.341
Mof_C 	C 	0.15844	0.62654	0.97742	-0.071
Mof_C 	C 	0.18665	0.57635	0.97045	-0.038
Mof_C 	C 	0.1847	0.1847	0.97984	0.033
Mof_C 	C 	0.2411	0.2411	0.9649	0.037
Mof_C 	C 	0.2714	0.2714	0.956	-0.062
Mof_C 	C 	0.2951	0.2951	0.9519	0.055
Mof_C 	C 	0.3219	0.3219	0.9537	-0.15
Mof_C 	C 	0.1847	0.1847	0.65076	0.05
Mof_C 	C 	0.2411	0.2411	0.5529	0.013
Mof_C 	C 	0.2714	0.2714	0.5012	-0.066
Mof_C 	C 	0.2951	0.2951	0.4579	0.04
Mof_C 	C 	0.3219	0.3219	0.4025	-0.151
Mof_C 	C 	0.97984	0.65076	0.1847	0.025
Mof_C 	C 	0.9649	0.5529	0.2411	0.047
Mof_C 	C 	0.956	0.5012	0.2714	-0.062
Mof_C 	C 	0.9519	0.4579	0.2951	0.059
Mof_C 	C 	0.9537	0.4025	0.3219	-0.151
Mof_C 	C 	0.65076	0.97984	0.1847	0.025
Mof_C 	C 	0.5529	0.9649	0.2411	0.047
Mof_C 	C 	0.5012	0.956	0.2714	-0.062
Mof_C 	C 	0.4579	0.9519	0.2951	0.059
Mof_C 	C 	0.4025	0.9537	0.3219	-0.151
Mof_C 	C 	0.1847	0.97984	0.65076	0.025
Mof_C 	C 	0.2411	0.9649	0.5529	0.047
Mof_C 	C 	0.2714	0.956	0.5012	-0.062
Mof_C 	C 	0.2951	0.9519	0.4579	0.059
Mof_C 	C 	0.3219	0.9537	0.4025	-0.151
Mof_C 	C 	0.1847	0.65076	0.97984	0.025
Mof_C 	C 	0.2411	0.5529	0.9649	0.047
Mof_C 	C 	0.2714	0.5012	0.956	-0.062
Mof_C 	C 	0.2951	0.4579	0.9519	0.059
Mof_C 	C 	0.3219	0.4025	0.9537	-0.151
Mof_C 	C 	0.97984	0.1847	0.1847	0.033
Mof_C 	C 	0.9649	0.2411	0.2411	0.037
Mof_C 	C 	0.956	0.2714	0.2714	-0.062
Mof_C 	C 	0.9519	0.2951	0.2951	0.055
Mof_C 	C 	0.9537	0.3219	0.3219	-0.15
Mof_C 	C 	0.65076	0.1847	0.1847	0.05
Mof_C 	C 	0.5529	0.2411	0.2411	0.013
Mof_C 	C 	0.5012	0.2714	0.2714	-0.066
Mof_C 	C 	0.4579	0.2951	0.2951	0.04
Mof_C 	C 	0.4025	0.3219	0.3219	-0.151
Mof_C 	C 	0.1847	0.65076	0.1847	0.05
Mof_C 	C 	0.2411	0.5529	0.2411	0.013
Mof_C 	C 	0.2714	0.5012	0.2714	-0.066
Mof_C 	C 	0.2951	0.4579	0.2951	0.04
Mof_C 	C 	0.3219	0.4025	0.3219	-0.151
Mof_C 	C 	0.1847	0.97984	0.1847	0.033
Mof_C 	C 	0.2411	0.9649	0.2411	0.037
Mof_C 	C 	0.2714	0.956	0.2714	-0.062
Mof_C 	C 	0.2951	0.9519	0.2951	0.055
Mof_C 	C 	0.3219	0.9537	0.3219	-0.15
Mof_C 	C 	0.97984	0.1847	0.65076	0.025
Mof_C 	C 	0.9649	0.2411	0.5529	0.047
Mof_C 	C 	0.956	0.2714	0.5012	-0.062
Mof_C 	C 	0.9519	0.2951	0.4579	0.059
Mof_C 	C 	0.9537	0.3219	0.4025	-0.151
Mof_C 	C 	0.65076	0.1847	0.97984	0.025
Mof_C 	C 	0.5529	0.2411	0.9649	0.047
Mof_C 	C 	0.5012	0.2714	0.956	-0.062
Mof_C 	C 	0.4579	0.2951	0.9519	0.059
Mof_C 	C 	0.4025	0.3219	0.9537	-0.151
Mof_C 	C 	0.8153	0.8153	0.02016	0.029
Mof_C 	C 	0.7589	0.7589	0.0351	0.036
Mof_C 	C 	0.7286	0.7286	0.044	-0.065
Mof_C 	C 	0.7049	0.7049	0.0481	0.052
Mof_C 	C 	0.6781	0.6781	0.0463	-0.152
Mof_C 	C 	0.8153	0.8153	0.34924	0.02
Mof_C 	C 	0.7589	0.7589	0.4471	0.054
Mof_C 	C 	0.7286	0.7286	0.4988	-0.06
Mof_C 	C 	0.7049	0.7049	0.5421	0.064
Mof_C 	C 	0.6781	0.6781	0.5975	-0.15
Mof_C 	C 	0.34924	0.02016	0.8153	0.041
Mof_C 	C 	0.4471	0.0351	0.7589	0.024
Mof_C 	C 	0.4988	0.044	0.7286	-0.065
Mof_C 	C 	0.5421	0.0481	0.7049	0.047
Mof_C 	C 	0.5975	0.0463	0.6781	-0.151
Mof_C 	C 	0.02016	0.34924	0.8153	0.041
Mof_C 	C 	0.0351	0.4471	0.7589	0.024
Mof_C 	C 	0.044	0.4988	0.7286	-0.065
Mof_C 	C 	0.0481	0.5421	0.7049	0.047
Mof_C 	C 	0.0463	0.5975	0.6781	-0.151
Mof_C 	C 	0.02016	0.8153	0.34924	0.041
Mof_C 	C 	0.0351	0.7589	0.4471	0.024
Mof_C 	C 	0.044	0.7286	0.4988	-0.065
Mof_C 	C 	0.0481	0.7049	0.5421	0.047
Mof_C 	C 	0.0463	0.6781	0.5975	-0.151
Mof_C 	C 	0.34924	0.8153	0.02016	0.041
Mof_C 	C 	0.4471	0.7589	0.0351	0.024
Mof_C 	C 	0.4988	0.7286	0.044	-0.065
Mof_C 	C 	0.5421	0.7049	0.0481	0.047
Mof_C 	C 	0.5975	0.6781	0.0463	-0.151
Mof_C 	C 	0.8153	0.02016	0.8153	0.029
Mof_C 	C 	0.7589	0.0351	0.7589	0.036
Mof_C 	C 	0.7286	0.044	0.7286	-0.065
Mof_C 	C 	0.7049	0.0481	0.7049	0.052
Mof_C 	C 	0.6781	0.0463	0.6781	-0.152
Mof_C 	C 	0.8153	0.34924	0.8153	0.02
Mof_C 	C 	0.7589	0.4471	0.7589	0.054
Mof_C 	C 	0.7286	0.4988	0.7286	-0.06
Mof_C 	C 	0.7049	0.5421	0.7049	0.064
Mof_C 	C 	0.6781	0.5975	0.6781	-0.15
Mof_C 	C 	0.34924	0.8153	0.8153	0.02
Mof_C 	C 	0.4471	0.7589	0.7589	0.054
Mof_C 	C 	0.4988	0.7286	0.7286	-0.06
Mof_C 	C 	0.5421	0.7049	0.7049	0.064
Mof_C 	C 	0.5975	0.6781	0.6781	-0.15
Mof_C 	C 	0.02016	0.8153	0.8153	0.029
Mof_C 	C 	0.0351	0.7589	0.7589	0.036
Mof_C 	C 	0.044	0.7286	0.7286	-0.065
Mof_C 	C 	0.0481	0.7049	0.7049	0.052
Mof_C 	C 	0.0463	0.6781	0.6781	-0.152
Mof_C 	C 	0.8153	0.02016	0.34924	0.041
Mof_C 	C 	0.7589	0.0351	0.4471	0.024
Mof_C 	C 	0.7286	0.044	0.4988	-0.065
Mof_C 	C 	0.7049	0.0481	0.5421	0.047
Mof_C 	C 	0.6781	0.0463	0.5975	-0.151
Mof_C 	C 	0.8153	0.34924	0.02016	0.041
Mof_C 	C 	0.7589	0.4471	0.0351	0.024
Mof_C 	C 	0.7286	0.4988	0.044	-0.065
Mof_C 	C 	0.7049	0.5421	0.0481	0.047
Mof_C 	C 	0.6781	0.5975	0.0463	-0.151
Mof_C 	C 	0.3763	0.2957	0.9517	0.188
Mof_C 	C 	0.2957	0.3763	0.3763	0.172
Mof_C 	C 	0.9517	0.3763	0.3763	0.191
Mof_C 	C 	0.3763	0.9517	0.2957	0.188
Mof_C 	C 	0.3763	0.9517	0.3763	0.191
Mof_C 	C 	0.2957	0.3763	0.9517	0.188
Mof_C 	C 	0.9517	0.3763	0.2957	0.188
Mof_C 	C 	0.3763	0.2957	0.3763	0.172
Mof_C 	C 	0.3763	0.3763	0.2957	0.172
Mof_C 	C 	0.2957	0.9517	0.3763	0.188
Mof_C 	C 	0.9517	0.2957	0.3763	0.188
Mof_C 	C 	0.3763	0.3763	0.9517	0.191
Mof_C 	C 	0.7043	0.6237	0.0483	0.181
Mof_C 	C 	0.6237	0.7043	0.6237	0.195
Mof_C 	C 	0.6237	0.0483	0.6237	0.177
Mof_C 	C 	0.0483	0.6237	0.7043	0.181
Mof_C 	C 	0.0483	0.6237	0.6237	0.177
Mof_C 	C 	0.6237	0.7043	0.0483	0.181
Mof_C 	C 	0.6237	0.0483	0.7043	0.181
Mof_C 	C 	0.7043	0.6237	0.6237	0.195
Mof_C 	C 	0.6237	0.6237	0.7043	0.195
Mof_C 	C 	0.0483	0.7043	0.6237	0.181
Mof_C 	C 	0.7043	0.0483	0.6237	0.181
Mof_C 	C 	0.6237	0.6237	0.0483	0.177
Mof_N 	N 	0.4038	0.2504	0.942	-0.298
Mof_N 	N 	0.2504	0.4038	0.4038	-0.294
Mof_N 	N 	0.942	0.4038	0.4038	-0.299
Mof_N 	N 	0.4038	0.942	0.2504	-0.298
Mof_N 	N 	0.4038	0.942	0.4038	-0.299
Mof_N 	N 	0.2504	0.4038	0.942	-0.298
Mof_N 	N 	0.942	0.4038	0.2504	-0.298
Mof_N 	N 	0.4038	0.2504	0.4038	-0.294
Mof_N 	N 	0.4038	0.4038	0.2504	-0.294
Mof_N 	N 	0.2504	0.942	0.4038	-0.298
Mof_N 	N 	0.942	0.2504	0.4038	-0.298
Mof_N 	N 	0.4038	0.4038	0.942	-0.299
Mof_N 	N 	0.7496	0.5962	0.058	-0.297
Mof_N 	N 	0.5962	0.7496	0.5962	-0.3
Mof_N 	N 	0.5962	0.058	0.5962	-0.295
Mof_N 	N 	0.058	0.5962	0.7496	-0.297
Mof_N 	N 	0.058	0.5962	0.5962	-0.295
Mof_N 	N 	0.5962	0.7496	0.058	-0.297
Mof_N 	N 	0.5962	0.058	0.7496	-0.297
Mof_N 	N 	0.7496	0.5962	0.5962	-0.3
Mof_N 	N 	0.5962	0.5962	0.7496	-0.3
Mof_N 	N 	0.058	0.7496	0.5962	-0.297
Mof_N 	N 	0.7496	0.058	0.5962	-0.297
Mof_N 	N 	0.5962	0.5962	0.058	-0.295
Mof_O 	O 	0.07649	0.23731	0.98717	-0.376
Mof_O 	O 	0.07736	0.31116	0.9866	-0.378
Mof_O 	O 	0.23731	0.07649	0.69903	-0.433
Mof_O 	O 	0.31116	0.07736	0.62488	-0.437
Mof_O 	O 	0.98717	0.69903	0.07649	-0.366
Mof_O 	O 	0.9866	0.62488	0.07736	-0.376
Mof_O 	O 	0.69903	0.98717	0.23731	-0.346
Mof_O 	O 	0.62488	0.9866	0.31116	-0.351
Mof_O 	O 	0.07649	0.98717	0.69903	-0.366
Mof_O 	O 	0.07736	0.9866	0.62488	-0.376
Mof_O 	O 	0.23731	0.69903	0.98717	-0.346
Mof_O 	O 	0.31116	0.62488	0.9866	-0.351
Mof_O 	O 	0.98717	0.07649	0.23731	-0.376
Mof_O 	O 	0.9866	0.07736	0.31116	-0.378
Mof_O 	O 	0.69903	0.23731	0.07649	-0.433
Mof_O 	O 	0.62488	0.31116	0.07736	-0.437
Mof_O 	O 	0.07649	0.69903	0.23731	-0.433
Mof_O 	O 	0.07736	0.62488	0.31116	-0.437
Mof_O 	O 	0.23731	0.98717	0.07649	-0.376
Mof_O 	O 	0.31116	0.9866	0.07736	-0.378
Mof_O 	O 	0.98717	0.23731	0.69903	-0.346
Mof_O 	O 	0.9866	0.31116	0.62488	-0.351
Mof_O 	O 	0.69903	0.07649	0.98717	-0.366
Mof_O 	O 	0.62488	0.07736	0.9866	-0.376
Mof_O 	O 	0.76269	0.92351	0.01283	-0.371
Mof_O 	O 	0.68884	0.92264	0.0134	-0.38
Mof_O 	O 	0.92351	0.76269	0.30097	-0.343
Mof_O 	O 	0.92264	0.68884	0.37512	-0.35
Mof_O 	O 	0.30097	0.01283	0.92351	-0.382
Mof_O 	O 	0.37512	0.0134	0.92264	-0.382
Mof_O 	O 	0.01283	0.30097	0.76269	-0.428
Mof_O 	O 	0.0134	0.37512	0.68884	-0.434
Mof_O 	O 	0.01283	0.92351	0.30097	-0.382
Mof_O 	O 	0.0134	0.92264	0.37512	-0.382
Mof_O 	O 	0.30097	0.76269	0.01283	-0.428
Mof_O 	O 	0.37512	0.68884	0.0134	-0.434
Mof_O 	O 	0.92351	0.01283	0.76269	-0.371
Mof_O 	O 	0.92264	0.0134	0.68884	-0.38
Mof_O 	O 	0.76269	0.30097	0.92351	-0.343
Mof_O 	O 	0.68884	0.37512	0.92264	-0.35
Mof_O 	O 	0.30097	0.92351	0.76269	-0.343
Mof_O 	O 	0.37512	0.92264	0.68884	-0.35
Mof_O 	O 	0.01283	0.76269	0.92351	-0.371
Mof_O 	O 	0.0134	0.68884	0.92264	-0.38
Mof_O 	O 	0.76269	0.01283	0.30097	-0.428
Mof_O 	O 	0.68884	0.0134	0.37512	-0.434
Mof_O 	O 	0.92351	0.30097	0.01283	-0.382
Mof_O 	O 	0.92264	0.37512	0.0134	-0.382
Mof_O 	O 	0.92351	0.76269	0.01283	-0.371
Mof_O 	O 	0.92264	0.68884	0.0134	-0.38
Mof_O 	O 	0.76269	0.92351	0.30097	-0.343
Mof_O 	O 	0.68884	0.92264	0.37512	-0.35
Mof_O 	O 	0.01283	0.30097	0.92351	-0.382
Mof_O 	O 	0.0134	0.37512	0.92264	-0.382
Mof_O 	O 	0.30097	0.01283	0.76269	-0.428
Mof_O 	O 	0.37512	0.0134	0.68884	-0.434
Mof_O 	O 	0.92351	0.01283	0.30097	-0.382
Mof_O 	O 	0.92264	0.0134	0.37512	-0.382
Mof_O 	O 	0.76269	0.30097	0.01283	-0.428
Mof_O 	O 	0.68884	0.37512	0.0134	-0.434
Mof_O 	O 	0.01283	0.92351	0.76269	-0.371
Mof_O 	O 	0.0134	0.92264	0.68884	-0.38
Mof_O 	O 	0.30097	0.76269	0.92351	-0.343
Mof_O 	O 	0.37512	0.68884	0.92264	-0.35
Mof_O 	O 	0.92351	0.30097	0.76269	-0.343
Mof_O 	O 	0.92264	0.37512	0.68884	-0.35
Mof_O 	O 	0.76269	0.01283	0.92351	-0.371
Mof_O 	O 	0.68884	0.0134	0.92264	-0.38
Mof_O 	O 	0.01283	0.76269	0.30097	-0.428
Mof_O 	O 	0.0134	0.68884	0.37512	-0.434
Mof_O 	O 	0.30097	0.92351	0.01283	-0.382
Mof_O 	O 	0.37512	0.92264	0.0134	-0.382
Mof_O 	O 	0.23731	0.07649	0.98717	-0.376
Mof_O 	O 	0.31116	0.07736	0.9866	-0.378
Mof_O 	O 	0.07649	0.23731	0.69903	-0.433
Mof_O 	O 	0.07736	0.31116	0.62488	-0.437
Mof_O 	O 	0.69903	0.98717	0.07649	-0.366
Mof_O 	O 	0.62488	0.9866	0.07736	-0.376
Mof_O 	O 	0.98717	0.69903	0.23731	-0.346
Mof_O 	O 	0.9866	0.62488	0.31116	-0.351
Mof_O 	O 	0.98717	0.07649	0.69903	-0.366
Mof_O 	O 	0.9866	0.07736	0.62488	-0.376
Mof_O 	O 	0.69903	0.23731	0.98717	-0.346
Mof_O 	O 	0.62488	0.31116	0.9866	-0.351
Mof_O 	O 	0.07649	0.98717	0.23731	-0.376
Mof_O 	O 	0.07736	0.9866	0.31116	-0.378
Mof_O 	O 	0.23731	0.69903	0.07649	-0.433
Mof_O 	O 	0.31116	0.62488	0.07736	-0.437
Mof_O 	O 	0.69903	0.07649	0.23731	-0.433
Mof_O 	O 	0.62488	0.07736	0.31116	-0.437
Mof_O 	O 	0.98717	0.23731	0.07649	-0.376
Mof_O 	O 	0.9866	0.31116	0.07736	-0.378
Mof_O 	O 	0.23731	0.98717	0.69903	-0.346
Mof_O 	O 	0.31116	0.9866	0.62488	-0.351
Mof_O 	O 	0.07649	0.69903	0.98717	-0.366
Mof_O 	O 	0.07736	0.62488	0.9866	-0.376
_end
