# CIF file generated by openbabel 3.1.0, see https://openbabel.org
data_I
_chemical_name_common 'image0'
_cell_length_a 33.914
_cell_length_b 15.135
_cell_length_c 30.963
_cell_angle_alpha 90
_cell_angle_beta 100.727
_cell_angle_gamma 90
_space_group_name_H-M_alt 'P 1'
_space_group_name_Hall 'P 1'
loop_
    _symmetry_equiv_pos_as_xyz
    x,y,z
loop_
    _atom_site_label
    _atom_site_type_symbol
    _atom_site_fract_x
    _atom_site_fract_y
    _atom_site_fract_z
    _atom_site_occupancy
    Zn1      Zn       0.23080    0.14100    0.03690    1.000
    I1       I        0.29156    0.24030    0.06293    1.000
    I2       I        0.18377    0.16720    0.96360    1.000
    N1       N        0.19770    0.15610    0.08890    1.000
    C1       C        0.18260    0.08800    0.10760    1.000
    H1       H        0.18790    0.02980    0.09810    1.000
    C2       C        0.15980    0.09600    0.13970    1.000
    H2       H        0.14930    0.04560    0.15210    1.000
    C3       C        0.15300    0.18000    0.15310    1.000
    C4       C        0.16770    0.25300    0.13470    1.000
    H3       H        0.16300    0.31110    0.14390    1.000
    C5       C        0.18950    0.23700    0.10250    1.000
    H4       H        0.19930    0.28650    0.08890    1.000
    C6       C        0.13050    0.19230    0.18940    1.000
    N2       N        0.10010    0.13640    0.19420    1.000
    C7       C        0.07570    0.15610    0.22320    1.000
    N3       N        0.08170    0.23160    0.24740    1.000
    C8       C        0.11210    0.28740    0.24260    1.000
    N4       N        0.13650    0.26780    0.21370    1.000
    N5       N        0.97350    0.99000    0.22800    1.000
    C9       C        0.98990    0.04300    0.26070    1.000
    H5       H        0.97710    0.04590    0.28550    1.000
    C10      C        0.02330    0.09500    0.26210    1.000
    H6       H        0.03310    0.13070    0.28710    1.000
    C11      C        0.04240    0.09500    0.22660    1.000
    C12      C        0.02740    0.03800    0.19240    1.000
    H7       H        0.04030    0.03280    0.16780    1.000
    C13      C        0.99350    0.99100    0.19480    1.000
    H8       H        0.98320    0.95440    0.17030    1.000
    Zn2      Zn       0.91890    0.91230    0.23090    1.000
    I3       I        0.93390    0.76300    0.20100    1.000
    I4       I        0.88570    0.94770    0.29970    1.000
    N6       N        0.12950    0.52800    0.31580    1.000
    C14      C        0.15510    0.50100    0.29100    1.000
    H9       H        0.17830    0.53580    0.29030    1.000
    C15      C        0.14960    0.42600    0.26640    1.000
    H10      H        0.16860    0.41010    0.24870    1.000
    C16      C        0.11720    0.37200    0.26700    1.000
    C17      C        0.09110    0.40000    0.29300    1.000
    H11      H        0.06840    0.36470    0.29540    1.000
    C18      C        0.09730    0.47800    0.31560    1.000
    H12      H        0.07780    0.49700    0.33190    1.000
    I5       I        0.18577    0.73750    0.32849    1.000
    Zn3      Zn       0.14400    0.62660    0.36280    1.000
    I6       I        0.08366    0.65970    0.39850    1.000
    N7       N        0.18070    0.55590    0.41140    1.000
    C19      C        0.21050    0.59400    0.43940    1.000
    H13      H        0.21560    0.65470    0.43560    1.000
    C20      C        0.23420    0.55070    0.47320    1.000
    H14      H        0.25590    0.58000    0.49160    1.000
    C21      C        0.22590    0.46410    0.47990    1.000
    C22      C        0.19800    0.41750    0.45150    1.000
    H15      H        0.19430    0.35560    0.45380    1.000
    C23      C        0.17580    0.46790    0.41950    1.000
    H16      H        0.15440    0.43870    0.40070    1.000
    C24      C        0.24520    0.41060    0.51760    1.000
    N8       N        0.27380    0.45010    0.54900    1.000
    C25      C        0.29870    0.39900    0.57930    1.000
    N9       N        0.29490    0.30840    0.57820    1.000
    C26      C        0.26630    0.26890    0.54680    1.000
    N10      N        0.24140    0.32000    0.51650    1.000
    N11      N        0.37920    0.52470    0.68180    1.000
    C27      C        0.37350    0.43760    0.68240    1.000
    H17      H        0.38540    0.40550    0.70780    1.000
    C28      C        0.35130    0.39200    0.64800    1.000
    H18      H        0.35020    0.32960    0.64860    1.000
    C29      C        0.33070    0.43800    0.61260    1.000
    C30      C        0.33570    0.52790    0.61120    1.000
    H19      H        0.32250    0.56190    0.58700    1.000
    C31      C        0.36060    0.56700    0.64600    1.000
    H20      H        0.36470    0.62890    0.64450    1.000
    N12      N        0.24660    0.99080    0.54080    1.000
    C32      C        0.22330    0.04650    0.51420    1.000
    H21      H        0.20260    0.02440    0.49190    1.000
    C33      C        0.22930    0.13500    0.51890    1.000
    H22      H        0.21090    0.17380    0.50110    1.000
    C34      C        0.26010    0.17250    0.54790    1.000
    C35      C        0.28160    0.11310    0.57620    1.000
    H23      H        0.30210    0.13410    0.59910    1.000
    C36      C        0.27440    0.02420    0.57250    1.000
    H24      H        0.28970    0.98530    0.59310    1.000
    Zn4      Zn       0.73080    0.64100    0.03690    1.000
    I7       I        0.79156    0.74030    0.06293    1.000
    I8       I        0.68377    0.66720    0.96360    1.000
    N13      N        0.69770    0.65610    0.08890    1.000
    C37      C        0.68260    0.58800    0.10760    1.000
    H25      H        0.68790    0.52980    0.09810    1.000
    C38      C        0.65980    0.59600    0.13970    1.000
    H26      H        0.64930    0.54560    0.15210    1.000
    C39      C        0.65300    0.68000    0.15310    1.000
    C40      C        0.66770    0.75300    0.13470    1.000
    H27      H        0.66300    0.81110    0.14390    1.000
    C41      C        0.68950    0.73700    0.10250    1.000
    H28      H        0.69930    0.78650    0.08890    1.000
    C42      C        0.63050    0.69230    0.18940    1.000
    N14      N        0.60010    0.63640    0.19420    1.000
    C43      C        0.57570    0.65610    0.22320    1.000
    N15      N        0.58170    0.73160    0.24740    1.000
    C44      C        0.61210    0.78740    0.24260    1.000
    N16      N        0.63650    0.76780    0.21370    1.000
    N17      N        0.47350    0.49000    0.22800    1.000
    C45      C        0.48990    0.54300    0.26070    1.000
    H29      H        0.47710    0.54590    0.28550    1.000
    C46      C        0.52330    0.59500    0.26210    1.000
    H30      H        0.53310    0.63070    0.28710    1.000
    C47      C        0.54240    0.59500    0.22660    1.000
    C48      C        0.52740    0.53800    0.19240    1.000
    H31      H        0.54030    0.53280    0.16780    1.000
    C49      C        0.49350    0.49100    0.19480    1.000
    H32      H        0.48320    0.45440    0.17030    1.000
    Zn5      Zn       0.41890    0.41230    0.23090    1.000
    I9       I        0.43390    0.26300    0.20100    1.000
    I10      I        0.38570    0.44770    0.29970    1.000
    N18      N        0.62950    0.02800    0.31580    1.000
    C50      C        0.65510    0.00100    0.29100    1.000
    H33      H        0.67830    0.03580    0.29030    1.000
    C51      C        0.64960    0.92600    0.26640    1.000
    H34      H        0.66860    0.91010    0.24870    1.000
    C52      C        0.61720    0.87200    0.26700    1.000
    C53      C        0.59110    0.90000    0.29300    1.000
    H35      H        0.56840    0.86470    0.29540    1.000
    C54      C        0.59730    0.97800    0.31560    1.000
    H36      H        0.57780    0.99700    0.33190    1.000
    I11      I        0.68577    0.23750    0.32849    1.000
    Zn6      Zn       0.64400    0.12660    0.36280    1.000
    I12      I        0.58366    0.15970    0.39850    1.000
    N19      N        0.68070    0.05590    0.41140    1.000
    C55      C        0.71050    0.09400    0.43940    1.000
    H37      H        0.71560    0.15470    0.43560    1.000
    C56      C        0.73420    0.05070    0.47320    1.000
    H38      H        0.75590    0.08000    0.49160    1.000
    C57      C        0.72590    0.96410    0.47990    1.000
    C58      C        0.69800    0.91750    0.45150    1.000
    H39      H        0.69430    0.85560    0.45380    1.000
    C59      C        0.67580    0.96790    0.41950    1.000
    H40      H        0.65440    0.93870    0.40070    1.000
    C60      C        0.74520    0.91060    0.51760    1.000
    N20      N        0.77380    0.95010    0.54900    1.000
    C61      C        0.79870    0.89900    0.57930    1.000
    N21      N        0.79490    0.80840    0.57820    1.000
    C62      C        0.76630    0.76890    0.54680    1.000
    N22      N        0.74140    0.82000    0.51650    1.000
    N23      N        0.87920    0.02470    0.68180    1.000
    C63      C        0.87350    0.93760    0.68240    1.000
    H41      H        0.88540    0.90550    0.70780    1.000
    C64      C        0.85130    0.89200    0.64800    1.000
    H42      H        0.85020    0.82960    0.64860    1.000
    C65      C        0.83070    0.93800    0.61260    1.000
    C66      C        0.83570    0.02790    0.61120    1.000
    H43      H        0.82250    0.06190    0.58700    1.000
    C67      C        0.86060    0.06700    0.64600    1.000
    H44      H        0.86470    0.12890    0.64450    1.000
    N24      N        0.74660    0.49080    0.54080    1.000
    C68      C        0.72330    0.54650    0.51420    1.000
    H45      H        0.70260    0.52440    0.49190    1.000
    C69      C        0.72930    0.63500    0.51890    1.000
    H46      H        0.71090    0.67380    0.50110    1.000
    C70      C        0.76010    0.67250    0.54790    1.000
    C71      C        0.78160    0.61310    0.57620    1.000
    H47      H        0.80210    0.63410    0.59910    1.000
    C72      C        0.77440    0.52420    0.57250    1.000
    H48      H        0.78970    0.48530    0.59310    1.000
    Zn7      Zn       0.23080    0.85900    0.53690    1.000
    I13      I        0.29156    0.75970    0.56293    1.000
    I14      I        0.18377    0.83280    0.46360    1.000
    N25      N        0.19770    0.84390    0.58890    1.000
    C73      C        0.18260    0.91200    0.60760    1.000
    H49      H        0.18790    0.97020    0.59810    1.000
    C74      C        0.15980    0.90400    0.63970    1.000
    H50      H        0.14930    0.95440    0.65210    1.000
    C75      C        0.15300    0.82000    0.65310    1.000
    C76      C        0.16770    0.74700    0.63470    1.000
    H51      H        0.16300    0.68890    0.64390    1.000
    C77      C        0.18950    0.76300    0.60250    1.000
    H52      H        0.19930    0.71350    0.58890    1.000
    C78      C        0.13050    0.80770    0.68940    1.000
    N26      N        0.10010    0.86360    0.69420    1.000
    C79      C        0.07570    0.84390    0.72320    1.000
    N27      N        0.08170    0.76840    0.74740    1.000
    C80      C        0.11210    0.71260    0.74260    1.000
    N28      N        0.13650    0.73220    0.71370    1.000
    N29      N        0.97350    0.01000    0.72800    1.000
    C81      C        0.98990    0.95700    0.76070    1.000
    H53      H        0.97710    0.95410    0.78550    1.000
    C82      C        0.02330    0.90500    0.76210    1.000
    H54      H        0.03310    0.86930    0.78710    1.000
    C83      C        0.04240    0.90500    0.72660    1.000
    C84      C        0.02740    0.96200    0.69240    1.000
    H55      H        0.04030    0.96720    0.66780    1.000
    C85      C        0.99350    0.00900    0.69480    1.000
    H56      H        0.98320    0.04560    0.67030    1.000
    Zn8      Zn       0.91890    0.08770    0.73090    1.000
    I15      I        0.93390    0.23700    0.70100    1.000
    I16      I        0.88570    0.05230    0.79970    1.000
    N30      N        0.12950    0.47200    0.81580    1.000
    C86      C        0.15510    0.49900    0.79100    1.000
    H57      H        0.17830    0.46420    0.79030    1.000
    C87      C        0.14960    0.57400    0.76640    1.000
    H58      H        0.16860    0.58990    0.74870    1.000
    C88      C        0.11720    0.62800    0.76700    1.000
    C89      C        0.09110    0.60000    0.79300    1.000
    H59      H        0.06840    0.63530    0.79540    1.000
    C90      C        0.09730    0.52200    0.81560    1.000
    H60      H        0.07780    0.50300    0.83190    1.000
    I17      I        0.18577    0.26250    0.82849    1.000
    Zn9      Zn       0.14400    0.37340    0.86280    1.000
    I18      I        0.08366    0.34030    0.89850    1.000
    N31      N        0.18070    0.44410    0.91140    1.000
    C91      C        0.21050    0.40600    0.93940    1.000
    H61      H        0.21560    0.34530    0.93560    1.000
    C92      C        0.23420    0.44930    0.97320    1.000
    H62      H        0.25590    0.42000    0.99160    1.000
    C93      C        0.22590    0.53590    0.97990    1.000
    C94      C        0.19800    0.58250    0.95150    1.000
    H63      H        0.19430    0.64440    0.95380    1.000
    C95      C        0.17580    0.53210    0.91950    1.000
    H64      H        0.15440    0.56130    0.90070    1.000
    C96      C        0.24520    0.58940    0.01760    1.000
    N32      N        0.27380    0.54990    0.04900    1.000
    C97      C        0.29870    0.60100    0.07930    1.000
    N33      N        0.29490    0.69160    0.07820    1.000
    C98      C        0.26630    0.73110    0.04680    1.000
    N34      N        0.24140    0.68000    0.01650    1.000
    N35      N        0.37920    0.47530    0.18180    1.000
    C99      C        0.37350    0.56240    0.18240    1.000
    H65      H        0.38540    0.59450    0.20780    1.000
    C100     C        0.35130    0.60800    0.14800    1.000
    H66      H        0.35020    0.67040    0.14860    1.000
    C101     C        0.33070    0.56200    0.11260    1.000
    C102     C        0.33570    0.47210    0.11120    1.000
    H67      H        0.32250    0.43810    0.08700    1.000
    C103     C        0.36060    0.43300    0.14600    1.000
    H68      H        0.36470    0.37110    0.14450    1.000
    N36      N        0.24660    0.00920    0.04080    1.000
    C104     C        0.22330    0.95350    0.01420    1.000
    H69      H        0.20260    0.97560    0.99190    1.000
    C105     C        0.22930    0.86500    0.01890    1.000
    H70      H        0.21090    0.82620    0.00110    1.000
    C106     C        0.26010    0.82750    0.04790    1.000
    C107     C        0.28160    0.88690    0.07620    1.000
    H71      H        0.30210    0.86590    0.09910    1.000
    C108     C        0.27440    0.97580    0.07250    1.000
    H72      H        0.28970    0.01470    0.09310    1.000
    Zn10     Zn       0.73080    0.35900    0.53690    1.000
    I19      I        0.79156    0.25970    0.56293    1.000
    I20      I        0.68377    0.33280    0.46360    1.000
    N37      N        0.69770    0.34390    0.58890    1.000
    C109     C        0.68260    0.41200    0.60760    1.000
    H73      H        0.68790    0.47020    0.59810    1.000
    C110     C        0.65980    0.40400    0.63970    1.000
    H74      H        0.64930    0.45440    0.65210    1.000
    C111     C        0.65300    0.32000    0.65310    1.000
    C112     C        0.66770    0.24700    0.63470    1.000
    H75      H        0.66300    0.18890    0.64390    1.000
    C113     C        0.68950    0.26300    0.60250    1.000
    H76      H        0.69930    0.21350    0.58890    1.000
    C114     C        0.63050    0.30770    0.68940    1.000
    N38      N        0.60010    0.36360    0.69420    1.000
    C115     C        0.57570    0.34390    0.72320    1.000
    N39      N        0.58170    0.26840    0.74740    1.000
    C116     C        0.61210    0.21260    0.74260    1.000
    N40      N        0.63650    0.23220    0.71370    1.000
    N41      N        0.47350    0.51000    0.72800    1.000
    C117     C        0.48990    0.45700    0.76070    1.000
    H77      H        0.47710    0.45410    0.78550    1.000
    C118     C        0.52330    0.40500    0.76210    1.000
    H78      H        0.53310    0.36930    0.78710    1.000
    C119     C        0.54240    0.40500    0.72660    1.000
    C120     C        0.52740    0.46200    0.69240    1.000
    H79      H        0.54030    0.46720    0.66780    1.000
    C121     C        0.49350    0.50900    0.69480    1.000
    H80      H        0.48320    0.54560    0.67030    1.000
    Zn11     Zn       0.41890    0.58770    0.73090    1.000
    I21      I        0.43390    0.73700    0.70100    1.000
    I22      I        0.38570    0.55230    0.79970    1.000
    N42      N        0.62950    0.97200    0.81580    1.000
    C122     C        0.65510    0.99900    0.79100    1.000
    H81      H        0.67830    0.96420    0.79030    1.000
    C123     C        0.64960    0.07400    0.76640    1.000
    H82      H        0.66860    0.08990    0.74870    1.000
    C124     C        0.61720    0.12800    0.76700    1.000
    C125     C        0.59110    0.10000    0.79300    1.000
    H83      H        0.56840    0.13530    0.79540    1.000
    C126     C        0.59730    0.02200    0.81560    1.000
    H84      H        0.57780    0.00300    0.83190    1.000
    I23      I        0.68577    0.76250    0.82849    1.000
    Zn12     Zn       0.64400    0.87340    0.86280    1.000
    I24      I        0.58366    0.84030    0.89850    1.000
    N43      N        0.68070    0.94410    0.91140    1.000
    C127     C        0.71050    0.90600    0.93940    1.000
    H85      H        0.71560    0.84530    0.93560    1.000
    C128     C        0.73420    0.94930    0.97320    1.000
    H86      H        0.75590    0.92000    0.99160    1.000
    C129     C        0.72590    0.03590    0.97990    1.000
    C130     C        0.69800    0.08250    0.95150    1.000
    H87      H        0.69430    0.14440    0.95380    1.000
    C131     C        0.67580    0.03210    0.91950    1.000
    H88      H        0.65440    0.06130    0.90070    1.000
    C132     C        0.74520    0.08940    0.01760    1.000
    N44      N        0.77380    0.04990    0.04900    1.000
    C133     C        0.79870    0.10100    0.07930    1.000
    N45      N        0.79490    0.19160    0.07820    1.000
    C134     C        0.76630    0.23110    0.04680    1.000
    N46      N        0.74140    0.18000    0.01650    1.000
    N47      N        0.87920    0.97530    0.18180    1.000
    C135     C        0.87350    0.06240    0.18240    1.000
    H89      H        0.88540    0.09450    0.20780    1.000
    C136     C        0.85130    0.10800    0.14800    1.000
    H90      H        0.85020    0.17040    0.14860    1.000
    C137     C        0.83070    0.06200    0.11260    1.000
    C138     C        0.83570    0.97210    0.11120    1.000
    H91      H        0.82250    0.93810    0.08700    1.000
    C139     C        0.86060    0.93300    0.14600    1.000
    H92      H        0.86470    0.87110    0.14450    1.000
    N48      N        0.74660    0.50920    0.04080    1.000
    C140     C        0.72330    0.45350    0.01420    1.000
    H93      H        0.70260    0.47560    0.99190    1.000
    C141     C        0.72930    0.36500    0.01890    1.000
    H94      H        0.71090    0.32620    0.00110    1.000
    C142     C        0.76010    0.32750    0.04790    1.000
    C143     C        0.78160    0.38690    0.07620    1.000
    H95      H        0.80210    0.36590    0.09910    1.000
    C144     C        0.77440    0.47580    0.07250    1.000
    H96      H        0.78970    0.51470    0.09310    1.000
    Zn13     Zn       0.37960    0.37010    0.48740    1.000
    I25      I        0.31198    0.30650    0.44780    1.000
    I26      I        0.42010    0.32710    0.56209    1.000
    N49      N        0.41670    0.36190    0.43850    1.000
    C145     C        0.40860    0.29300    0.41200    1.000
    H97      H        0.38560    0.25700    0.41250    1.000
    C146     C        0.43430    0.27400    0.38410    1.000
    H98      H        0.42990    0.22420    0.36490    1.000
    C147     C        0.46630    0.32800    0.38460    1.000
    C148     C        0.47560    0.40200    0.40950    1.000
    H99      H        0.49740    0.44090    0.40800    1.000
    C149     C        0.44870    0.41260    0.43690    1.000
    H100     H        0.45320    0.46080    0.45690    1.000
    C150     C        0.49360    0.31230    0.35340    1.000
    N50      N        0.48860    0.23860    0.32870    1.000
    C151     C        0.51330    0.22180    0.30040    1.000
    N51      N        0.54300    0.27870    0.29680    1.000
    C152     C        0.54800    0.35250    0.32150    1.000
    N52      N        0.52320    0.36920    0.34980    1.000
    N53      N        0.64640    0.52300    0.31850    1.000
    C153     C        0.62810    0.52900    0.35300    1.000
    H101     H        0.63290    0.57590    0.37360    1.000
    C154     C        0.60160    0.46200    0.35610    1.000
    H102     H        0.59630    0.44790    0.38440    1.000
    C155     C        0.58220    0.41200    0.32050    1.000
    C156     C        0.60220    0.40800    0.28610    1.000
    H103     H        0.59520    0.36520    0.26340    1.000
    C157     C        0.63260    0.46700    0.28580    1.000
    H104     H        0.64470    0.46910    0.26040    1.000
    Zn14     Zn       0.69570    0.60370    0.32341    1.000
    I27      I        0.72081    0.58540    0.25288    1.000
    I28      I        0.68103    0.74820    0.35639    1.000
    N54      N        0.50000    0.98230    0.22700    1.000
    C158     C        0.52730    0.04360    0.22260    1.000
    H105     H        0.54440    0.03200    0.20220    1.000
    C159     C        0.53260    0.12200    0.24520    1.000
    H106     H        0.55170    0.16420    0.23950    1.000
    C160     C        0.50940    0.13740    0.27620    1.000
    C161     C        0.48100    0.07910    0.28110    1.000
    H107     H        0.46280    0.09100    0.30030    1.000
    C162     C        0.47860    0.00160    0.25770    1.000
    H108     H        0.46020    0.95830    0.26390    1.000
    Zn15     Zn       0.48100    0.88090    0.18260    1.000
    I29      I        0.53915    0.85170    0.14299    1.000
    I30      I        0.44240    0.76720    0.21950    1.000
    N55      N        0.43820    0.94990    0.13650    1.000
    C163     C        0.43760    0.03760    0.13500    1.000
    H109     H        0.45230    0.06780    0.15980    1.000
    C164     C        0.41810    0.08910    0.10120    1.000
    H110     H        0.42120    0.15140    0.09970    1.000
    C165     C        0.39350    0.04050    0.06990    1.000
    C166     C        0.38620    0.95230    0.07200    1.000
    H111     H        0.36470    0.92250    0.05360    1.000
    C167     C        0.41330    0.91240    0.10360    1.000
    H112     H        0.41460    0.84980    0.10200    1.000
    C168     C        0.36850    0.08310    0.03180    1.000
    N56      N        0.37920    0.16850    0.02540    1.000
    C169     C        0.35860    0.21600    0.99080    1.000
    N57      N        0.32730    0.17810    0.96270    1.000
    C170     C        0.31660    0.09270    0.96920    1.000
    N58      N        0.33720    0.04520    0.00370    1.000
    N59      N        0.37020    0.49300    0.98780    1.000
    C171     C        0.34540    0.44700    0.95750    1.000
    H113     H        0.32700    0.47950    0.93660    1.000
    C172     C        0.34410    0.35700    0.95380    1.000
    H114     H        0.33160    0.32680    0.92790    1.000
    C173     C        0.36260    0.31320    0.99100    1.000
    C174     C        0.38510    0.35520    0.02650    1.000
    H115     H        0.39640    0.32520    0.05280    1.000
    C175     C        0.38970    0.44380    0.02080    1.000
    H116     H        0.40860    0.47340    0.04250    1.000
    N60      N        0.23580    0.96010    0.87430    1.000
    C176     C        0.26030    0.91200    0.90370    1.000
    H117     H        0.25880    0.84880    0.90320    1.000
    C177     C        0.28780    0.95500    0.93450    1.000
    H118     H        0.30430    0.92190    0.95690    1.000
    C178     C        0.29180    0.04100    0.93390    1.000
    C179     C        0.27170    0.08300    0.89750    1.000
    H119     H        0.28130    0.13860    0.88940    1.000
    C180     C        0.23780    0.04800    0.87220    1.000
    H120     H        0.21750    0.08240    0.85480    1.000
    Zn16     Zn       0.87960    0.87010    0.48740    1.000
    I31      I        0.81198    0.80650    0.44780    1.000
    I32      I        0.92010    0.82710    0.56209    1.000
    N61      N        0.91670    0.86190    0.43850    1.000
    C181     C        0.90860    0.79300    0.41200    1.000
    H121     H        0.88560    0.75700    0.41250    1.000
    C182     C        0.93430    0.77400    0.38410    1.000
    H122     H        0.92990    0.72420    0.36490    1.000
    C183     C        0.96630    0.82800    0.38460    1.000
    C184     C        0.97560    0.90200    0.40950    1.000
    H123     H        0.99740    0.94090    0.40800    1.000
    C185     C        0.94870    0.91260    0.43690    1.000
    H124     H        0.95320    0.96080    0.45690    1.000
    C186     C        0.99360    0.81230    0.35340    1.000
    N62      N        0.98860    0.73860    0.32870    1.000
    C187     C        0.01330    0.72180    0.30040    1.000
    N63      N        0.04300    0.77870    0.29680    1.000
    C188     C        0.04800    0.85250    0.32150    1.000
    N64      N        0.02320    0.86920    0.34980    1.000
    N65      N        0.14640    0.02300    0.31850    1.000
    C189     C        0.12810    0.02900    0.35300    1.000
    H125     H        0.13290    0.07590    0.37360    1.000
    C190     C        0.10160    0.96200    0.35610    1.000
    H126     H        0.09630    0.94790    0.38440    1.000
    C191     C        0.08220    0.91200    0.32050    1.000
    C192     C        0.10220    0.90800    0.28610    1.000
    H127     H        0.09520    0.86520    0.26340    1.000
    C193     C        0.13260    0.96700    0.28580    1.000
    H128     H        0.14470    0.96910    0.26040    1.000
    Zn17     Zn       0.19570    0.10370    0.32341    1.000
    I33      I        0.22081    0.08540    0.25288    1.000
    I34      I        0.18103    0.24820    0.35639    1.000
    N66      N        0.00000    0.48230    0.22700    1.000
    C194     C        0.02730    0.54360    0.22260    1.000
    H129     H        0.04440    0.53200    0.20220    1.000
    C195     C        0.03260    0.62200    0.24520    1.000
    H130     H        0.05170    0.66420    0.23950    1.000
    C196     C        0.00940    0.63740    0.27620    1.000
    C197     C        0.98100    0.57910    0.28110    1.000
    H131     H        0.96280    0.59100    0.30030    1.000
    C198     C        0.97860    0.50160    0.25770    1.000
    H132     H        0.96020    0.45830    0.26390    1.000
    Zn18     Zn       0.98100    0.38090    0.18260    1.000
    I35      I        0.03915    0.35170    0.14299    1.000
    I36      I        0.94240    0.26720    0.21950    1.000
    N67      N        0.93820    0.44990    0.13650    1.000
    C199     C        0.93760    0.53760    0.13500    1.000
    H133     H        0.95230    0.56780    0.15980    1.000
    C200     C        0.91810    0.58910    0.10120    1.000
    H134     H        0.92120    0.65140    0.09970    1.000
    C201     C        0.89350    0.54050    0.06990    1.000
    C202     C        0.88620    0.45230    0.07200    1.000
    H135     H        0.86470    0.42250    0.05360    1.000
    C203     C        0.91330    0.41240    0.10360    1.000
    H136     H        0.91460    0.34980    0.10200    1.000
    C204     C        0.86850    0.58310    0.03180    1.000
    N68      N        0.87920    0.66850    0.02540    1.000
    C205     C        0.85860    0.71600    0.99080    1.000
    N69      N        0.82730    0.67810    0.96270    1.000
    C206     C        0.81660    0.59270    0.96920    1.000
    N70      N        0.83720    0.54520    0.00370    1.000
    N71      N        0.87020    0.99300    0.98780    1.000
    C207     C        0.84540    0.94700    0.95750    1.000
    H137     H        0.82700    0.97950    0.93660    1.000
    C208     C        0.84410    0.85700    0.95380    1.000
    H138     H        0.83160    0.82680    0.92790    1.000
    C209     C        0.86260    0.81320    0.99100    1.000
    C210     C        0.88510    0.85520    0.02650    1.000
    H139     H        0.89640    0.82520    0.05280    1.000
    C211     C        0.88970    0.94380    0.02080    1.000
    H140     H        0.90860    0.97340    0.04250    1.000
    N72      N        0.73580    0.46010    0.87430    1.000
    C212     C        0.76030    0.41200    0.90370    1.000
    H141     H        0.75880    0.34880    0.90320    1.000
    C213     C        0.78780    0.45500    0.93450    1.000
    H142     H        0.80430    0.42190    0.95690    1.000
    C214     C        0.79180    0.54100    0.93390    1.000
    C215     C        0.77170    0.58300    0.89750    1.000
    H143     H        0.78130    0.63860    0.88940    1.000
    C216     C        0.73780    0.54800    0.87220    1.000
    H144     H        0.71750    0.58240    0.85480    1.000
    Zn19     Zn       0.37960    0.62990    0.98740    1.000
    I37      I        0.31198    0.69350    0.94780    1.000
    I38      I        0.42010    0.67290    0.06209    1.000
    N73      N        0.41670    0.63810    0.93850    1.000
    C217     C        0.40860    0.70700    0.91200    1.000
    H145     H        0.38560    0.74300    0.91250    1.000
    C218     C        0.43430    0.72600    0.88410    1.000
    H146     H        0.42990    0.77580    0.86490    1.000
    C219     C        0.46630    0.67200    0.88460    1.000
    C220     C        0.47560    0.59800    0.90950    1.000
    H147     H        0.49740    0.55910    0.90800    1.000
    C221     C        0.44870    0.58740    0.93690    1.000
    H148     H        0.45320    0.53920    0.95690    1.000
    C222     C        0.49360    0.68770    0.85340    1.000
    N74      N        0.48860    0.76140    0.82870    1.000
    C223     C        0.51330    0.77820    0.80040    1.000
    N75      N        0.54300    0.72130    0.79680    1.000
    C224     C        0.54800    0.64750    0.82150    1.000
    N76      N        0.52320    0.63080    0.84980    1.000
    N77      N        0.64640    0.47700    0.81850    1.000
    C225     C        0.62810    0.47100    0.85300    1.000
    H149     H        0.63290    0.42410    0.87360    1.000
    C226     C        0.60160    0.53800    0.85610    1.000
    H150     H        0.59630    0.55210    0.88440    1.000
    C227     C        0.58220    0.58800    0.82050    1.000
    C228     C        0.60220    0.59200    0.78610    1.000
    H151     H        0.59520    0.63480    0.76340    1.000
    C229     C        0.63260    0.53300    0.78580    1.000
    H152     H        0.64470    0.53090    0.76040    1.000
    Zn20     Zn       0.69570    0.39630    0.82341    1.000
    I39      I        0.72081    0.41460    0.75288    1.000
    I40      I        0.68103    0.25180    0.85639    1.000
    N78      N        0.50000    0.01770    0.72700    1.000
    C230     C        0.52730    0.95640    0.72260    1.000
    H153     H        0.54440    0.96800    0.70220    1.000
    C231     C        0.53260    0.87800    0.74520    1.000
    H154     H        0.55170    0.83580    0.73950    1.000
    C232     C        0.50940    0.86260    0.77620    1.000
    C233     C        0.48100    0.92090    0.78110    1.000
    H155     H        0.46280    0.90900    0.80030    1.000
    C234     C        0.47860    0.99840    0.75770    1.000
    H156     H        0.46020    0.04170    0.76390    1.000
    Zn21     Zn       0.48100    0.11910    0.68260    1.000
    I41      I        0.53915    0.14830    0.64299    1.000
    I42      I        0.44240    0.23280    0.71950    1.000
    N79      N        0.43820    0.05010    0.63650    1.000
    C235     C        0.43760    0.96240    0.63500    1.000
    H157     H        0.45230    0.93220    0.65980    1.000
    C236     C        0.41810    0.91090    0.60120    1.000
    H158     H        0.42120    0.84860    0.59970    1.000
    C237     C        0.39350    0.95950    0.56990    1.000
    C238     C        0.38620    0.04770    0.57200    1.000
    H159     H        0.36470    0.07750    0.55360    1.000
    C239     C        0.41330    0.08760    0.60360    1.000
    H160     H        0.41460    0.15020    0.60200    1.000
    C240     C        0.36850    0.91690    0.53180    1.000
    N80      N        0.37920    0.83150    0.52540    1.000
    C241     C        0.35860    0.78400    0.49080    1.000
    N81      N        0.32730    0.82190    0.46270    1.000
    C242     C        0.31660    0.90730    0.46920    1.000
    N82      N        0.33720    0.95480    0.50370    1.000
    N83      N        0.37020    0.50700    0.48780    1.000
    C243     C        0.34540    0.55300    0.45750    1.000
    H161     H        0.32700    0.52050    0.43660    1.000
    C244     C        0.34410    0.64300    0.45380    1.000
    H162     H        0.33160    0.67320    0.42790    1.000
    C245     C        0.36260    0.68680    0.49100    1.000
    C246     C        0.38510    0.64480    0.52650    1.000
    H163     H        0.39640    0.67480    0.55280    1.000
    C247     C        0.38970    0.55620    0.52080    1.000
    H164     H        0.40860    0.52660    0.54250    1.000
    N84      N        0.23580    0.03990    0.37430    1.000
    C248     C        0.26030    0.08800    0.40370    1.000
    H165     H        0.25880    0.15120    0.40320    1.000
    C249     C        0.28780    0.04500    0.43450    1.000
    H166     H        0.30430    0.07810    0.45690    1.000
    C250     C        0.29180    0.95900    0.43390    1.000
    C251     C        0.27170    0.91700    0.39750    1.000
    H167     H        0.28130    0.86140    0.38940    1.000
    C252     C        0.23780    0.95200    0.37220    1.000
    H168     H        0.21750    0.91760    0.35480    1.000
    Zn22     Zn       0.87960    0.12990    0.98740    1.000
    I43      I        0.81198    0.19350    0.94780    1.000
    I44      I        0.92010    0.17290    0.06209    1.000
    N85      N        0.91670    0.13810    0.93850    1.000
    C253     C        0.90860    0.20700    0.91200    1.000
    H169     H        0.88560    0.24300    0.91250    1.000
    C254     C        0.93430    0.22600    0.88410    1.000
    H170     H        0.92990    0.27580    0.86490    1.000
    C255     C        0.96630    0.17200    0.88460    1.000
    C256     C        0.97560    0.09800    0.90950    1.000
    H171     H        0.99740    0.05910    0.90800    1.000
    C257     C        0.94870    0.08740    0.93690    1.000
    H172     H        0.95320    0.03920    0.95690    1.000
    C258     C        0.99360    0.18770    0.85340    1.000
    N86      N        0.98860    0.26140    0.82870    1.000
    C259     C        0.01330    0.27820    0.80040    1.000
    N87      N        0.04300    0.22130    0.79680    1.000
    C260     C        0.04800    0.14750    0.82150    1.000
    N88      N        0.02320    0.13080    0.84980    1.000
    N89      N        0.14640    0.97700    0.81850    1.000
    C261     C        0.12810    0.97100    0.85300    1.000
    H173     H        0.13290    0.92410    0.87360    1.000
    C262     C        0.10160    0.03800    0.85610    1.000
    H174     H        0.09630    0.05210    0.88440    1.000
    C263     C        0.08220    0.08800    0.82050    1.000
    C264     C        0.10220    0.09200    0.78610    1.000
    H175     H        0.09520    0.13480    0.76340    1.000
    C265     C        0.13260    0.03300    0.78580    1.000
    H176     H        0.14470    0.03090    0.76040    1.000
    Zn23     Zn       0.19570    0.89630    0.82341    1.000
    I45      I        0.22081    0.91460    0.75288    1.000
    I46      I        0.18103    0.75180    0.85639    1.000
    N90      N        0.00000    0.51770    0.72700    1.000
    C266     C        0.02730    0.45640    0.72260    1.000
    H177     H        0.04440    0.46800    0.70220    1.000
    C267     C        0.03260    0.37800    0.74520    1.000
    H178     H        0.05170    0.33580    0.73950    1.000
    C268     C        0.00940    0.36260    0.77620    1.000
    C269     C        0.98100    0.42090    0.78110    1.000
    H179     H        0.96280    0.40900    0.80030    1.000
    C270     C        0.97860    0.49840    0.75770    1.000
    H180     H        0.96020    0.54170    0.76390    1.000
    Zn24     Zn       0.98100    0.61910    0.68260    1.000
    I47      I        0.03915    0.64830    0.64299    1.000
    I48      I        0.94240    0.73280    0.71950    1.000
    N91      N        0.93820    0.55010    0.63650    1.000
    C271     C        0.93760    0.46240    0.63500    1.000
    H181     H        0.95230    0.43220    0.65980    1.000
    C272     C        0.91810    0.41090    0.60120    1.000
    H182     H        0.92120    0.34860    0.59970    1.000
    C273     C        0.89350    0.45950    0.56990    1.000
    C274     C        0.88620    0.54770    0.57200    1.000
    H183     H        0.86470    0.57750    0.55360    1.000
    C275     C        0.91330    0.58760    0.60360    1.000
    H184     H        0.91460    0.65020    0.60200    1.000
    C276     C        0.86850    0.41690    0.53180    1.000
    N92      N        0.87920    0.33150    0.52540    1.000
    C277     C        0.85860    0.28400    0.49080    1.000
    N93      N        0.82730    0.32190    0.46270    1.000
    C278     C        0.81660    0.40730    0.46920    1.000
    N94      N        0.83720    0.45480    0.50370    1.000
    N95      N        0.87020    0.00700    0.48780    1.000
    C279     C        0.84540    0.05300    0.45750    1.000
    H185     H        0.82700    0.02050    0.43660    1.000
    C280     C        0.84410    0.14300    0.45380    1.000
    H186     H        0.83160    0.17320    0.42790    1.000
    C281     C        0.86260    0.18680    0.49100    1.000
    C282     C        0.88510    0.14480    0.52650    1.000
    H187     H        0.89640    0.17480    0.55280    1.000
    C283     C        0.88970    0.05620    0.52080    1.000
    H188     H        0.90860    0.02660    0.54250    1.000
    N96      N        0.73580    0.53990    0.37430    1.000
    C284     C        0.76030    0.58800    0.40370    1.000
    H189     H        0.75880    0.65120    0.40320    1.000
    C285     C        0.78780    0.54500    0.43450    1.000
    H190     H        0.80430    0.57810    0.45690    1.000
    C286     C        0.79180    0.45900    0.43390    1.000
    C287     C        0.77170    0.41700    0.39750    1.000
    H191     H        0.78130    0.36140    0.38940    1.000
    C288     C        0.73780    0.45200    0.37220    1.000
    H192     H        0.71750    0.41760    0.35480    1.000
