# CIF file generated by openbabel 3.1.0, see https://openbabel.org
data_I
_chemical_name_common 'image0'
_cell_length_a 14.7979
_cell_length_b 18.6413
_cell_length_c 22.2879
_cell_angle_alpha 86.672
_cell_angle_beta 79.485
_cell_angle_gamma 75.825
_space_group_name_H-M_alt 'P 1'
_space_group_name_Hall 'P 1'
loop_
    _symmetry_equiv_pos_as_xyz
    x,y,z
loop_
    _atom_site_label
    _atom_site_type_symbol
    _atom_site_fract_x
    _atom_site_fract_y
    _atom_site_fract_z
    _atom_site_occupancy
    Zn1      Zn       0.40363    0.80348    0.87209    1.000
    Zn2      Zn       0.36145    0.06322    0.69566    1.000
    Zn3      Zn       0.31222    0.70247    0.13319    1.000
    Zn4      Zn       0.27045    0.95898    0.95561    1.000
    O1       O        0.14149    0.79778    0.19063    1.000
    O2       O        0.12940    0.03402    0.06348    1.000
    O3       O        0.53778    0.73632    0.76636    1.000
    O4       O        0.44089    0.64721    0.13907    1.000
    O5       O        0.18534    0.15774    0.74954    1.000
    N1       N        0.36100    0.00201    0.77339    1.000
    N2       N        0.27740    0.02136    0.65273    1.000
    N3       N        0.39700    0.67450    0.98475    1.000
    H1       H        0.35180    0.65580    0.97830    1.000
    H2       H        0.43780    0.67260    0.95140    1.000
    O6       O        0.32493    0.17115    0.70336    1.000
    N4       N        0.31950    0.76660    0.05856    1.000
    O7       O        0.53972    0.75867    0.86261    1.000
    C1       C        0.36230    0.74654    0.00089    1.000
    C2       C        0.53440    0.99200    0.62738    1.000
    N5       N        0.37900    0.90307    0.83542    1.000
    C3       C        0.39080    0.92753    0.77820    1.000
    O8       O        0.28150    0.74301    0.21496    1.000
    N6       N        0.22150    0.63967    0.12296    1.000
    N7       N        0.31560    0.86634    0.99787    1.000
    N8       N        0.32540    0.74719    0.83561    1.000
    N9       N        0.33740    0.96717    0.87122    1.000
    N10      N        0.36190    0.80223    0.96281    1.000
    N11      N        0.24890    0.88628    0.10224    1.000
    H3       H        0.20980    0.92420    0.09020    1.000
    H4       H        0.21860    0.86200    0.12930    1.000
    O9       O        0.49512    0.05081    0.65765    1.000
    O10      O        0.43757    0.56097    0.07512    1.000
    N12      N        0.42680    0.88164    0.73021    1.000
    H5       H        0.41400    0.83930    0.73930    1.000
    H6       H        0.40100    0.90080    0.69950    1.000
    C4       C        0.68610    0.91551    0.57324    1.000
    H7       H        0.65150    0.88520    0.56120    1.000
    O11      O        0.21560    0.05878    0.97539    1.000
    C5       C        0.72990    0.65120    0.75636    1.000
    H8       H        0.69440    0.63560    0.73160    1.000
    O12      O        0.49199    0.94638    0.61586    1.000
    N13      N        0.97330    0.88941    0.49975    1.000
    C6       C        0.57960    0.73429    0.80972    1.000
    N14      N        0.92190    0.41932    0.06577    1.000
    C7       C        0.24060    0.19645    0.72761    1.000
    C8       C        0.20470    0.99830    0.68521    1.000
    H9       H        0.19280    0.00400    0.72730    1.000
    C9       C        0.14660    0.66948    0.09585    1.000
    H10      H        0.13500    0.71960    0.08570    1.000
    N15      N        0.01790    0.54518    0.75757    1.000
    C10      C        0.03600    0.85910    0.37478    1.000
    H11      H        0.97340    0.88430    0.38750    1.000
    N16      N        0.29350    0.09505    0.84910    1.000
    H12      H        0.25840    0.11820    0.82370    1.000
    H13      H        0.25990    0.09720    0.88520    1.000
    C11      C        0.82650    0.62277    0.74802    1.000
    H14      H        0.85470    0.58690    0.71860    1.000
    C12      C        0.16130    0.80134    0.29457    1.000
    C13      C        0.29220    0.84219    0.05338    1.000
    C14      C        0.09820    0.84333    0.41619    1.000
    C15      C        0.68500    0.70294    0.80137    1.000
    C16      C        0.16190    0.95713    0.59672    1.000
    C17      C        0.64030    0.97650    0.60805    1.000
    C18      C        0.06740    0.83730    0.31433    1.000
    H15      H        0.02520    0.84700    0.28700    1.000
    C19      C        0.78360    0.89890    0.55604    1.000
    H16      H        0.81360    0.85800    0.53180    1.000
    C20      C        0.17930    0.52369    0.12681    1.000
    H17      H        0.19270    0.47380    0.13770    1.000
    C21      C        0.14550    0.96620    0.65926    1.000
    H18      H        0.09550    0.95090    0.68380    1.000
    C22      C        0.29330    0.63380    0.81357    1.000
    H19      H        0.31230    0.58240    0.81240    1.000
    C23      C        0.08650    0.62979    0.08238    1.000
    H20      H        0.03580    0.65240    0.06310    1.000
    C24      C        0.32740    0.02327    0.83301    1.000
    C25      C        0.01550    0.39255    0.05911    1.000
    C26      C        0.05100    0.31207    0.04563    1.000
    C27      C        0.19150    0.80570    0.39622    1.000
    H21      H        0.23370    0.79490    0.42350    1.000
    C28      C        0.07700    0.43455    0.06896    1.000
    H22      H        0.14170    0.41370    0.06460    1.000
    C29      C        0.88250    0.64652    0.78246    1.000
    C30      C        0.23610    0.56864    0.13909    1.000
    H23      H        0.28620    0.54810    0.15940    1.000
    C31      C        0.98640    0.61607    0.77393    1.000
    C32      C        0.10310    0.55359    0.09836    1.000
    C33      C        0.19520    0.77978    0.22886    1.000
    C34      C        0.06720    0.87385    0.47890    1.000
    C35      C        0.94370    0.53654    0.09031    1.000
    H24      H        0.91730    0.58610    0.09960    1.000
    C36      C        0.14390    0.62830    0.77902    1.000
    C37      C        0.29440    0.01092    0.59172    1.000
    H25      H        0.34560    0.02590    0.56840    1.000
    C38      C        0.74030    0.72560    0.83681    1.000
    H26      H        0.71160    0.75920    0.86790    1.000
    C39      C        0.13070    0.89229    0.51007    1.000
    H27      H        0.19510    0.88040    0.49420    1.000
    C40      C        0.83640    0.69938    0.82690    1.000
    H28      H        0.87200    0.71710    0.85030    1.000
    C41      C        0.79020    0.00320    0.60949    1.000
    H29      H        0.82480    0.03290    0.62250    1.000
    C42      C        0.24650    0.78301    0.81537    1.000
    H30      H        0.23160    0.83450    0.81460    1.000
    C43      C        0.09800    0.92868    0.56528    1.000
    C44      C        0.24060    0.97971    0.56272    1.000
    H31      H        0.25570    0.97330    0.52070    1.000
    C45      C        0.83680    0.94231    0.57440    1.000
    C46      C        0.00170    0.94457    0.58709    1.000
    H32      H        0.97730    0.96850    0.62410    1.000
    C47      C        0.04050    0.50808    0.08534    1.000
    C48      C        0.04720    0.65786    0.78504    1.000
    H33      H        0.02260    0.70680    0.79680    1.000
    C49      C        0.17520    0.55461    0.76087    1.000
    H34      H        0.23960    0.53230    0.75490    1.000
    C50      C        0.78240    0.51685    0.08802    1.000
    C51      C        0.94160    0.92459    0.55353    1.000
    C52      C        0.63510    0.59800    0.13302    1.000
    H35      H        0.60320    0.63660    0.15930    1.000
    C53      C        0.58470    0.56391    0.10215    1.000
    C54      C        0.63400    0.50533    0.06373    1.000
    H36      H        0.60130    0.48230    0.04200    1.000
    C55      C        0.69360    0.02080    0.62543    1.000
    H37      H        0.66340    0.06290    0.64820    1.000
    C56      C        0.88600    0.49048    0.08127    1.000
    C57      C        0.18660    0.74740    0.79572    1.000
    H38      H        0.13180    0.77470    0.78290    1.000
    C58      C        0.20800    0.66994    0.79505    1.000
    C59      C        0.20620    0.28036    0.73044    1.000
    C60      C        0.48060    0.59115    0.10616    1.000
    C61      C        0.14270    0.43360    0.74039    1.000
    C62      C        0.11240    0.51426    0.75157    1.000
    C63      C        0.73120    0.48134    0.05775    1.000
    H39      H        0.76300    0.44100    0.03320    1.000
    C64      C        0.02630    0.18838    0.06058    1.000
    H40      H        0.98800    0.15640    0.07620    1.000
    C65      C        0.99210    0.26492    0.06723    1.000
    H41      H        0.93000    0.28430    0.08610    1.000
    C66      C        0.14140    0.28310    0.01522    1.000
    H42      H        0.18080    0.31440    0.00020    1.000
    C67      C        0.11770    0.16090    0.03048    1.000
    C68      C        0.08150    0.38860    0.75691    1.000
    H43      H        0.01790    0.40960    0.77130    1.000
    C69      C        0.34900    0.67270    0.83327    1.000
    H44      H        0.40510    0.64700    0.84550    1.000
    C70      C        0.22210    0.78430    0.33606    1.000
    H45      H        0.28430    0.75810    0.32350    1.000
    C71      C        0.73280    0.57530    0.12517    1.000
    H46      H        0.76570    0.59990    0.14540    1.000
    C72      C        0.17390    0.20760    0.00697    1.000
    H47      H        0.23430    0.18850    0.98530    1.000
    C73      C        0.23810    0.40060    0.71630    1.000
    H48      H        0.28050    0.43010    0.70330    1.000
    C74      C        0.11250    0.31260    0.75253    1.000
    H49      H        0.06990    0.28300    0.76450    1.000
    C75      C        0.26840    0.32460    0.71200    1.000
    H50      H        0.33150    0.30320    0.69650    1.000
    C76      C        0.15470    0.07910    0.02410    1.000
    Zn5      Zn       0.59637    0.19652    0.12791    1.000
    Zn6      Zn       0.63855    0.93678    0.30434    1.000
    Zn7      Zn       0.68778    0.29753    0.86681    1.000
    Zn8      Zn       0.72955    0.04102    0.04439    1.000
    O13      O        0.85851    0.20222    0.80937    1.000
    O14      O        0.87060    0.96598    0.93652    1.000
    O15      O        0.46222    0.26368    0.23364    1.000
    O16      O        0.55911    0.35279    0.86093    1.000
    O17      O        0.81466    0.84226    0.25046    1.000
    N17      N        0.63900    0.99799    0.22661    1.000
    N18      N        0.72260    0.97864    0.34727    1.000
    N19      N        0.60300    0.32550    0.01525    1.000
    H51      H        0.64820    0.34420    0.02170    1.000
    H52      H        0.56220    0.32740    0.04860    1.000
    O18      O        0.67507    0.82885    0.29664    1.000
    N20      N        0.68050    0.23340    0.94144    1.000
    O19      O        0.46028    0.24133    0.13739    1.000
    C77      C        0.63770    0.25346    0.99911    1.000
    C78      C        0.46560    0.00800    0.37262    1.000
    N21      N        0.62100    0.09693    0.16458    1.000
    C79      C        0.60920    0.07247    0.22180    1.000
    O20      O        0.71850    0.25699    0.78504    1.000
    N22      N        0.77850    0.36033    0.87704    1.000
    N23      N        0.68440    0.13366    0.00213    1.000
    N24      N        0.67460    0.25281    0.16439    1.000
    N25      N        0.66260    0.03283    0.12878    1.000
    N26      N        0.63810    0.19777    0.03719    1.000
    N27      N        0.75110    0.11372    0.89776    1.000
    H53      H        0.79020    0.07580    0.90980    1.000
    H54      H        0.78140    0.13800    0.87070    1.000
    O21      O        0.50488    0.94919    0.34235    1.000
    O22      O        0.56243    0.43903    0.92488    1.000
    N28      N        0.57320    0.11836    0.26979    1.000
    H55      H        0.58600    0.16070    0.26070    1.000
    H56      H        0.59900    0.09920    0.30050    1.000
    C80      C        0.31390    0.08449    0.42676    1.000
    H57      H        0.34850    0.11480    0.43880    1.000
    O23      O        0.78440    0.94122    0.02461    1.000
    C81      C        0.27010    0.34880    0.24364    1.000
    H58      H        0.30560    0.36440    0.26840    1.000
    O24      O        0.50801    0.05362    0.38414    1.000
    N29      N        0.02670    0.11059    0.50025    1.000
    C82      C        0.42040    0.26571    0.19028    1.000
    N30      N        0.07810    0.58068    0.93423    1.000
    C83      C        0.75940    0.80355    0.27239    1.000
    C84      C        0.79530    0.00170    0.31479    1.000
    H59      H        0.80720    0.99600    0.27270    1.000
    C85      C        0.85340    0.33052    0.90415    1.000
    H60      H        0.86500    0.28040    0.91430    1.000
    N31      N        0.98210    0.45482    0.24243    1.000
    C86      C        0.96400    0.14090    0.62522    1.000
    H61      H        0.02660    0.11570    0.61250    1.000
    N32      N        0.70650    0.90495    0.15090    1.000
    H62      H        0.74160    0.88180    0.17630    1.000
    H63      H        0.74010    0.90280    0.11480    1.000
    C87      C        0.17350    0.37723    0.25198    1.000
    H64      H        0.14530    0.41310    0.28140    1.000
    C88      C        0.83870    0.19866    0.70543    1.000
    C89      C        0.70780    0.15781    0.94662    1.000
    C90      C        0.90180    0.15667    0.58381    1.000
    C91      C        0.31500    0.29706    0.19863    1.000
    C92      C        0.83810    0.04287    0.40328    1.000
    C93      C        0.35970    0.02350    0.39195    1.000
    C94      C        0.93260    0.16270    0.68567    1.000
    H65      H        0.97480    0.15300    0.71300    1.000
    C95      C        0.21640    0.10110    0.44396    1.000
    H66      H        0.18640    0.14200    0.46820    1.000
    C96      C        0.82070    0.47631    0.87319    1.000
    H67      H        0.80730    0.52620    0.86230    1.000
    C97      C        0.85450    0.03380    0.34074    1.000
    H68      H        0.90450    0.04910    0.31620    1.000
    C98      C        0.70670    0.36620    0.18643    1.000
    H69      H        0.68770    0.41760    0.18760    1.000
    C99      C        0.91350    0.37021    0.91762    1.000
    H70      H        0.96420    0.34760    0.93690    1.000
    C100     C        0.67260    0.97673    0.16699    1.000
    C101     C        0.98450    0.60745    0.94089    1.000
    C102     C        0.94900    0.68793    0.95437    1.000
    C103     C        0.80850    0.19430    0.60378    1.000
    H71      H        0.76630    0.20510    0.57650    1.000
    C104     C        0.92300    0.56545    0.93104    1.000
    H72      H        0.85830    0.58630    0.93540    1.000
    C105     C        0.11750    0.35348    0.21754    1.000
    C106     C        0.76390    0.43136    0.86091    1.000
    H73      H        0.71380    0.45190    0.84060    1.000
    C107     C        0.01360    0.38393    0.22607    1.000
    C108     C        0.89690    0.44641    0.90164    1.000
    C109     C        0.80480    0.22022    0.77114    1.000
    C110     C        0.93280    0.12615    0.52110    1.000
    C111     C        0.05630    0.46346    0.90969    1.000
    H74      H        0.08270    0.41390    0.90040    1.000
    C112     C        0.85610    0.37170    0.22098    1.000
    C113     C        0.70560    0.98908    0.40828    1.000
    H75      H        0.65440    0.97410    0.43160    1.000
    C114     C        0.25970    0.27440    0.16319    1.000
    H76      H        0.28840    0.24080    0.13210    1.000
    C115     C        0.86930    0.10771    0.48993    1.000
    H77      H        0.80490    0.11960    0.50580    1.000
    C116     C        0.16360    0.30062    0.17310    1.000
    H78      H        0.12800    0.28290    0.14970    1.000
    C117     C        0.20980    0.99680    0.39051    1.000
    H79      H        0.17520    0.96710    0.37750    1.000
    C118     C        0.75350    0.21699    0.18463    1.000
    H80      H        0.76840    0.16550    0.18540    1.000
    C119     C        0.90200    0.07132    0.43472    1.000
    C120     C        0.75940    0.02029    0.43728    1.000
    H81      H        0.74430    0.02670    0.47930    1.000
    C121     C        0.16320    0.05769    0.42560    1.000
    C122     C        0.99830    0.05543    0.41291    1.000
    H82      H        0.02270    0.03150    0.37590    1.000
    C123     C        0.95950    0.49192    0.91466    1.000
    C124     C        0.95280    0.34214    0.21496    1.000
    H83      H        0.97740    0.29320    0.20320    1.000
    C125     C        0.82480    0.44539    0.23913    1.000
    H84      H        0.76040    0.46770    0.24510    1.000
    C126     C        0.21760    0.48315    0.91198    1.000
    C127     C        0.05840    0.07541    0.44647    1.000
    C128     C        0.36490    0.40200    0.86698    1.000
    H85      H        0.39680    0.36340    0.84070    1.000
    C129     C        0.41530    0.43609    0.89785    1.000
    C130     C        0.36600    0.49467    0.93627    1.000
    H86      H        0.39870    0.51770    0.95800    1.000
    C131     C        0.30640    0.97920    0.37457    1.000
    H87      H        0.33660    0.93710    0.35180    1.000
    C132     C        0.11400    0.50952    0.91873    1.000
    C133     C        0.81340    0.25260    0.20428    1.000
    H88      H        0.86820    0.22530    0.21710    1.000
    C134     C        0.79200    0.33006    0.20495    1.000
    C135     C        0.79380    0.71964    0.26956    1.000
    C136     C        0.51940    0.40885    0.89384    1.000
    C137     C        0.85730    0.56640    0.25961    1.000
    C138     C        0.88760    0.48574    0.24843    1.000
    C139     C        0.26880    0.51866    0.94225    1.000
    H89      H        0.23700    0.55900    0.96680    1.000
    C140     C        0.97370    0.81162    0.93942    1.000
    H90      H        0.01200    0.84360    0.92380    1.000
    C141     C        0.00790    0.73508    0.93277    1.000
    H91      H        0.07000    0.71570    0.91390    1.000
    C142     C        0.85860    0.71690    0.98478    1.000
    H92      H        0.81920    0.68560    0.99980    1.000
    C143     C        0.88230    0.83910    0.96952    1.000
    C144     C        0.91850    0.61140    0.24309    1.000
    H93      H        0.98210    0.59040    0.22870    1.000
    C145     C        0.65100    0.32730    0.16673    1.000
    H94      H        0.59490    0.35300    0.15450    1.000
    C146     C        0.77790    0.21570    0.66394    1.000
    H95      H        0.71570    0.24190    0.67650    1.000
    C147     C        0.26720    0.42470    0.87483    1.000
    H96      H        0.23430    0.40010    0.85460    1.000
    C148     C        0.82610    0.79240    0.99303    1.000
    H97      H        0.76570    0.81150    0.01470    1.000
    C149     C        0.76190    0.59940    0.28370    1.000
    H98      H        0.71950    0.56990    0.29670    1.000
    C150     C        0.88750    0.68740    0.24747    1.000
    H99      H        0.93010    0.71700    0.23550    1.000
    C151     C        0.73160    0.67540    0.28800    1.000
    H100     H        0.66850    0.69680    0.30350    1.000
    C152     C        0.84530    0.92090    0.97590    1.000
