data_functionalizedCrystal
_audit_creation_method	'EQeq! by Chris Wilmer'
_symmetry_space_group_name_H-M	'P1'
_symmetry_Int_Tables_number	1
_symmetry_cell_setting	triclinic
loop_
_symmetry_equiv_pos_as_xyz
  x,y,z
_cell_length_a	8.0203
_cell_length_b	20.455
_cell_length_c	8.612
_cell_angle_alpha	90
_cell_angle_beta	90.65
_cell_angle_gamma	90
loop_
_atom_site_label
_atom_site_type_symbol
_atom_site_fract_x
_atom_site_fract_y
_atom_site_fract_z
_atom_site_charge
Mof_N 	N 	0.1542	0.50163	0.68784	-0.188
Mof_N 	N 	0.0781	0.50271	0.8319	-0.12
Mof_N 	N 	0.3473	0.50042	0.8641	-0.107
Mof_N 	N 	0.505	0.50004	0.9278	-0.015
Mof_N 	N 	0.1256	0.57402	0.403	-0.181
Mof_N 	N 	0.2983	0.57788	0.4017	-0.093
Mof_N 	N 	0.1894	0.66724	0.3046	-0.092
Mof_N 	N 	0.1567	0.73034	0.2511	-0.048
Mof_N 	N 	0.325	0.92095	0.1191	-0.145
Mof_N 	N 	0.1525	0.91426	0.1004	-0.097
Mof_N 	N 	0.2569	0.82424	0.198	-0.1
Mof_N 	N 	0.2887	0.7614	0.2502	-0.04
Mof_C 	C 	0.3155	0.50034	0.7091	0.109
Mof_H 	H 	0.3968	0.4995	0.6297	0.023
Mof_C 	C 	0.1968	0.50194	0.936	0.17
Mof_H 	H 	0.181	0.5024	0.0451	-0.019
Mof_C 	C 	0.0622	0.62727	0.3434	0.035
Mof_H 	H 	0.9468	0.6364	0.3297	0.056
Mof_C 	C 	0.3341	0.63496	0.3432	0.096
Mof_H 	H 	0.4435	0.6516	0.3295	0.027
Mof_C 	C 	0.3837	0.86723	0.178	0.094
Mof_H 	H 	0.4975	0.8592	0.2031	0.017
Mof_C 	C 	0.1148	0.85549	0.1482	0.091
Mof_H 	H 	0.0058	0.8373	0.1485	0.012
Mof_N 	N 	0.8458	0.49837	0.31216	-0.175
Mof_N 	N 	0.9219	0.49729	0.1681	-0.078
Mof_N 	N 	0.6527	0.49958	0.1359	-0.092
Mof_N 	N 	0.495	0.49996	0.0722	-0.057
Mof_N 	N 	0.8744	0.42598	0.597	-0.186
Mof_N 	N 	0.7017	0.42212	0.5983	-0.09
Mof_N 	N 	0.8106	0.33276	0.6954	-0.106
Mof_N 	N 	0.8433	0.26966	0.7489	-0.026
Mof_N 	N 	0.675	0.07905	0.8809	-0.143
Mof_N 	N 	0.8475	0.08574	0.8996	-0.079
Mof_N 	N 	0.7431	0.17576	0.802	-0.095
Mof_N 	N 	0.7113	0.2386	0.7498	-0.034
Mof_C 	C 	0.6845	0.49966	0.2909	0.106
Mof_H 	H 	0.6032	0.5005	0.3703	0.024
Mof_C 	C 	0.8032	0.49806	0.064	0.035
Mof_H 	H 	0.819	0.4976	0.9549	0.086
Mof_C 	C 	0.9378	0.37273	0.6566	0.175
Mof_H 	H 	0.0532	0.3636	0.6703	-0.029
Mof_C 	C 	0.6659	0.36504	0.6568	0.105
Mof_H 	H 	0.5565	0.3484	0.6705	0.03
Mof_C 	C 	0.6163	0.13277	0.822	0.105
Mof_H 	H 	0.5025	0.1408	0.7969	0.02
Mof_C 	C 	0.8852	0.14451	0.8518	0.106
Mof_H 	H 	0.9942	0.1627	0.8515	0.047
Mof_Cu	Cu	-1.25737e-18	0.5	0.5	0.875
Mof_N 	N 	0.3458	0.00163	0.81216	-0.17
Mof_N 	N 	0.4219	0.00271	0.6681	-0.108
Mof_N 	N 	0.1527	0.00042	0.6359	-0.106
Mof_N 	N 	0.995	4e-05	0.5722	-0.032
Mof_N 	N 	0.3744	0.07402	0.097	-0.197
Mof_N 	N 	0.2017	0.07788	0.0983	-0.112
Mof_N 	N 	0.3106	0.16724	0.1954	-0.102
Mof_N 	N 	0.3433	0.23034	0.2489	-0.041
Mof_N 	N 	0.175	0.42095	0.3809	-0.153
Mof_N 	N 	0.3475	0.41426	0.3996	-0.089
Mof_N 	N 	0.2431	0.32424	0.302	-0.101
Mof_N 	N 	0.2113	0.2614	0.2498	-0.046
Mof_C 	C 	0.1845	0.00034	0.7909	0.042
Mof_H 	H 	0.1032	0.9995	0.8703	0.072
Mof_C 	C 	0.3032	0.00194	0.564	0.095
Mof_H 	H 	0.319	0.0024	0.4549	0.02
Mof_C 	C 	0.4378	0.12727	0.1566	0.095
Mof_H 	H 	0.5532	0.1364	0.1703	0.007
Mof_C 	C 	0.1659	0.13496	0.1568	0.09
Mof_H 	H 	0.0565	0.1516	0.1705	0.009
Mof_C 	C 	0.1163	0.36723	0.322	0.093
Mof_H 	H 	0.0025	0.3592	0.2969	0.002
Mof_C 	C 	0.3852	0.35549	0.3518	0.095
Mof_H 	H 	0.4942	0.3373	0.3515	0.029
Mof_N 	N 	0.6542	0.99837	0.18784	-0.19
Mof_N 	N 	0.5781	0.99729	0.3319	-0.089
Mof_N 	N 	0.8473	0.99958	0.3641	-0.093
Mof_N 	N 	0.005	0.99996	0.4278	-0.04
Mof_N 	N 	0.6256	0.92598	0.903	-0.166
Mof_N 	N 	0.7983	0.92212	0.9017	-0.072
Mof_N 	N 	0.6894	0.83276	0.8046	-0.096
Mof_N 	N 	0.6567	0.76966	0.7511	-0.033
Mof_N 	N 	0.825	0.57905	0.6191	-0.139
Mof_N 	N 	0.6525	0.58574	0.6004	-0.088
Mof_N 	N 	0.7569	0.67576	0.698	-0.094
Mof_N 	N 	0.7887	0.7386	0.7502	-0.028
Mof_C 	C 	0.8155	0.99966	0.2091	0.177
Mof_H 	H 	0.8968	0.0005	0.1297	-0.028
Mof_C 	C 	0.6968	0.99806	0.436	0.11
Mof_H 	H 	0.681	0.9976	0.5451	0.047
Mof_C 	C 	0.5622	0.87273	0.8434	0.113
Mof_H 	H 	0.4468	0.8636	0.8297	0.021
Mof_C 	C 	0.8341	0.86504	0.8432	0.11
Mof_H 	H 	0.9435	0.8484	0.8295	0.048
Mof_C 	C 	0.8837	0.63277	0.678	0.105
Mof_H 	H 	0.9975	0.6408	0.7031	0.035
Mof_C 	C 	0.6148	0.64451	0.6482	0.102
Mof_H 	H 	0.5058	0.6627	0.6485	0.029
Mof_Cu	Cu	0.5	0	-0	0.858
_end
