# CIF file generated by openbabel 3.1.0, see https://openbabel.org
data_I
_chemical_name_common 'image0'
_cell_length_a 7.4054
_cell_length_b 18.811
_cell_length_c 12.006
_cell_angle_alpha 90
_cell_angle_beta 97.06
_cell_angle_gamma 90
_space_group_name_H-M_alt 'P 1'
_space_group_name_Hall 'P 1'
loop_
    _symmetry_equiv_pos_as_xyz
    x,y,z
loop_
    _atom_site_label
    _atom_site_type_symbol
    _atom_site_fract_x
    _atom_site_fract_y
    _atom_site_fract_z
    _atom_site_occupancy
    C1       C        0.03140    0.17640    0.32610    1.000
    C2       C        0.95970    0.23890    0.25690    1.000
    C3       C        0.77730    0.25720    0.25260    1.000
    H1       H        0.70200    0.23150    0.29430    1.000
    C4       C        0.70820    0.31220    0.18820    1.000
    H2       H        0.58530    0.32300    0.18610    1.000
    C5       C        0.81640    0.35370    0.12400    1.000
    C6       C        0.00000    0.33540    0.12690    1.000
    C7       C        0.06930    0.27780    0.19500    1.000
    H3       H        0.19180    0.26600    0.19800    1.000
    C8       C        0.12430    0.37480    0.06140    1.000
    Cu1      Cu       0.93761    0.07552    0.49378    1.000
    Cu2      Cu       0.31740    0.05901    0.43150    1.000
    O1       O        0.91110    0.14550    0.37690    1.000
    O2       O        0.19510    0.15894    0.33100    1.000
    O3       O        0.29490    0.36657    0.08770    1.000
    O4       O        0.06650    0.41676    0.98170    1.000
    O5       O        0.91970    0.99160    0.58980    1.000
    O6       O        0.73690    0.40738    0.06670    1.000
    C9       C        0.46860    0.67640    0.17390    1.000
    C10      C        0.54030    0.73890    0.24310    1.000
    C11      C        0.72270    0.75720    0.24740    1.000
    H4       H        0.79800    0.73150    0.20570    1.000
    C12      C        0.79180    0.81220    0.31180    1.000
    H5       H        0.91470    0.82300    0.31390    1.000
    C13      C        0.68360    0.85370    0.37600    1.000
    C14      C        0.50000    0.83540    0.37310    1.000
    C15      C        0.43070    0.77780    0.30500    1.000
    H6       H        0.30820    0.76600    0.30200    1.000
    C16      C        0.37570    0.87480    0.43860    1.000
    Cu3      Cu       0.56239    0.57552    0.00622    1.000
    Cu4      Cu       0.18260    0.55901    0.06850    1.000
    O7       O        0.58890    0.64550    0.12310    1.000
    O8       O        0.30490    0.65894    0.16900    1.000
    O9       O        0.20510    0.86657    0.41230    1.000
    O10      O        0.43350    0.91676    0.51830    1.000
    O11      O        0.58030    0.49160    0.91020    1.000
    O12      O        0.76310    0.90738    0.43330    1.000
    C17      C        0.96860    0.82360    0.67390    1.000
    C18      C        0.04030    0.76110    0.74310    1.000
    C19      C        0.22270    0.74280    0.74740    1.000
    H7       H        0.29800    0.76850    0.70570    1.000
    C20      C        0.29180    0.68780    0.81180    1.000
    H8       H        0.41470    0.67700    0.81390    1.000
    C21      C        0.18360    0.64630    0.87600    1.000
    C22      C        0.00000    0.66460    0.87310    1.000
    C23      C        0.93070    0.72220    0.80500    1.000
    H9       H        0.80820    0.73400    0.80200    1.000
    C24      C        0.87570    0.62520    0.93860    1.000
    Cu5      Cu       0.06239    0.92448    0.50622    1.000
    Cu6      Cu       0.68260    0.94099    0.56850    1.000
    O13      O        0.08890    0.85450    0.62310    1.000
    O14      O        0.80490    0.84106    0.66900    1.000
    O15      O        0.70510    0.63343    0.91230    1.000
    O16      O        0.93350    0.58324    0.01830    1.000
    O17      O        0.08030    0.00840    0.41020    1.000
    O18      O        0.26310    0.59262    0.93330    1.000
    C25      C        0.53140    0.32360    0.82610    1.000
    C26      C        0.45970    0.26110    0.75690    1.000
    C27      C        0.27730    0.24280    0.75260    1.000
    H10      H        0.20200    0.26850    0.79430    1.000
    C28      C        0.20820    0.18780    0.68820    1.000
    H11      H        0.08530    0.17700    0.68610    1.000
    C29      C        0.31640    0.14630    0.62400    1.000
    C30      C        0.50000    0.16460    0.62690    1.000
    C31      C        0.56930    0.22220    0.69500    1.000
    H12      H        0.69180    0.23400    0.69800    1.000
    C32      C        0.62430    0.12520    0.56140    1.000
    Cu7      Cu       0.43761    0.42448    0.99378    1.000
    Cu8      Cu       0.81740    0.44099    0.93150    1.000
    O19      O        0.41110    0.35450    0.87690    1.000
    O20      O        0.69510    0.34106    0.83100    1.000
    O21      O        0.79490    0.13343    0.58770    1.000
    O22      O        0.56650    0.08324    0.48170    1.000
    O23      O        0.41970    0.50840    0.08980    1.000
    O24      O        0.23690    0.09262    0.56670    1.000
