data_functionalizedCrystal
_audit_creation_method	'EQeq! by Chris Wilmer'
_symmetry_space_group_name_H-M	'P1'
_symmetry_Int_Tables_number	1
_symmetry_cell_setting	triclinic
loop_
_symmetry_equiv_pos_as_xyz
  x,y,z
_cell_length_a	22.9416
_cell_length_b	22.9416
_cell_length_c	15.7488
_cell_angle_alpha	90
_cell_angle_beta	90
_cell_angle_gamma	120
loop_
_atom_site_label
_atom_site_type_symbol
_atom_site_fract_x
_atom_site_fract_y
_atom_site_fract_z
_atom_site_charge
Mof_N 	N 	0.97321	0.32361	0.42312	-0.323
Mof_C 	C 	0.00074	0.36554	0.48841	0.086
Mof_H 	H 	0.99774	0.40429	0.49419	-0.043
Mof_N 	N 	0.03315	0.34849	0.54552	-0.266
Mof_C 	C 	0.99052	0.2739	0.43666	0.045
Mof_C 	C 	0.97572	0.21712	0.39075	-0.116
Mof_H 	H 	0.95138	0.20677	0.34046	0.043
Mof_C 	C 	0.99876	0.17667	0.42227	-0.018
Mof_H 	H 	0.99002	0.13821	0.39235	0.028
Mof_C 	C 	0.03539	0.19169	0.49949	-0.031
Mof_H 	H 	0.05033	0.16306	0.51883	0.035
Mof_C 	C 	0.02691	0.28891	0.51331	0.041
Mof_C 	C 	0.04922	0.24748	0.54588	-0.1
Mof_H 	H 	0.07252	0.25714	0.59708	0.041
Mof_N 	N 	0.92444	0.4115	0.35473	-0.324
Mof_C 	C 	0.94564	0.47383	0.33074	0.124
Mof_H 	H 	0.97609	0.49339	0.28643	-0.053
Mof_N 	N 	0.92177	0.50731	0.37214	-0.274
Mof_C 	C 	0.87894	0.46164	0.43074	0.059
Mof_C 	C 	0.83874	0.46752	0.49575	-0.118
Mof_H 	H 	0.83872	0.50758	0.50379	0.045
Mof_C 	C 	0.87987	0.40287	0.42141	0.007
Mof_C 	C 	0.84014	0.34485	0.47429	-0.091
Mof_H 	H 	0.84119	0.30511	0.46763	0.019
Mof_C 	C 	0.80051	0.41326	0.54552	-0.011
Mof_H 	H 	0.77371	0.41673	0.58721	0.025
Mof_C 	C 	0.80024	0.35158	0.53607	-0.042
Mof_H 	H 	0.77327	0.31539	0.57116	0.037
Mof_Zn	Zn	0.93451	0.339	0.33107	1.179
Mof_N 	N 	0.63988	0.65694	0.75645	-0.325
Mof_C 	C 	0.66741	0.69887	0.82174	0.086
Mof_H 	H 	0.66441	0.73762	0.82752	-0.044
Mof_N 	N 	0.69982	0.68182	0.87885	-0.267
Mof_C 	C 	0.65719	0.60723	0.76999	0.045
Mof_C 	C 	0.64239	0.55045	0.72408	-0.116
Mof_H 	H 	0.61805	0.5401	0.67379	0.043
Mof_C 	C 	0.66543	0.51	0.7556	-0.018
Mof_H 	H 	0.65669	0.47154	0.72568	0.028
Mof_C 	C 	0.70206	0.52502	0.83282	-0.03
Mof_H 	H 	0.717	0.49639	0.85216	0.034
Mof_C 	C 	0.69358	0.62224	0.84664	0.042
Mof_C 	C 	0.71589	0.58081	0.87921	-0.101
Mof_H 	H 	0.73919	0.59047	0.93041	0.041
Mof_N 	N 	0.59111	0.74483	0.68806	-0.325
Mof_C 	C 	0.61231	0.80716	0.66407	0.124
Mof_H 	H 	0.64276	0.82672	0.61976	-0.054
Mof_N 	N 	0.58844	0.84064	0.70547	-0.274
Mof_C 	C 	0.54561	0.79497	0.76407	0.059
Mof_C 	C 	0.50541	0.80085	0.82908	-0.118
Mof_H 	H 	0.50539	0.84091	0.83712	0.045
Mof_C 	C 	0.54654	0.7362	0.75474	0.007
Mof_C 	C 	0.50681	0.67818	0.80762	-0.091
Mof_H 	H 	0.50786	0.63844	0.80096	0.02
Mof_C 	C 	0.46718	0.74659	0.87885	-0.011
Mof_H 	H 	0.44038	0.75006	0.92054	0.026
Mof_C 	C 	0.46691	0.68491	0.8694	-0.042
Mof_H 	H 	0.43994	0.64872	0.90449	0.037
Mof_Zn	Zn	0.60118	0.67233	0.6644	1.179
Mof_N 	N 	0.30654	0.99028	0.08979	-0.327
Mof_C 	C 	0.33407	0.03221	0.15508	0.09
Mof_H 	H 	0.33107	0.07096	0.16086	-0.045
Mof_N 	N 	0.36648	0.01516	0.21219	-0.267
Mof_C 	C 	0.32385	0.94057	0.10333	0.045
Mof_C 	C 	0.30905	0.88379	0.05742	-0.117
Mof_H 	H 	0.28471	0.87344	0.00713	0.042
Mof_C 	C 	0.33209	0.84334	0.08894	-0.018
Mof_H 	H 	0.32335	0.80488	0.05902	0.028
Mof_C 	C 	0.36872	0.85836	0.16616	-0.032
Mof_H 	H 	0.38366	0.82973	0.1855	0.035
Mof_C 	C 	0.36024	0.95558	0.17998	0.039
Mof_C 	C 	0.38255	0.91415	0.21255	-0.1
Mof_H 	H 	0.40585	0.92381	0.26375	0.041
Mof_N 	N 	0.25777	0.07817	0.0214	-0.323
Mof_C 	C 	0.27897	0.1405	0.99741	0.122
Mof_H 	H 	0.30942	0.16006	0.9531	-0.053
Mof_N 	N 	0.2551	0.17398	0.03881	-0.273
Mof_C 	C 	0.21227	0.12831	0.09741	0.059
Mof_C 	C 	0.17207	0.13419	0.16242	-0.118
Mof_H 	H 	0.17205	0.17425	0.17046	0.044
Mof_C 	C 	0.2132	0.06954	0.08808	0.006
Mof_C 	C 	0.17347	0.01152	0.14096	-0.086
Mof_H 	H 	0.17452	0.97178	0.1343	0.016
Mof_C 	C 	0.13384	0.07993	0.21219	-0.012
Mof_H 	H 	0.10704	0.0834	0.25388	0.026
Mof_C 	C 	0.13357	0.01825	0.20274	-0.04
Mof_H 	H 	0.1066	0.98206	0.23783	0.034
Mof_Zn	Zn	0.26784	0.00567	0.99774	1.179
Mof_N 	N 	0.67639	0.6496	0.42312	-0.325
Mof_C 	C 	0.63446	0.6352	0.48841	0.086
Mof_H 	H 	0.59571	0.59345	0.49419	-0.044
Mof_N 	N 	0.65151	0.68466	0.54552	-0.267
Mof_C 	C 	0.7261	0.71662	0.43666	0.045
Mof_C 	C 	0.78288	0.7586	0.39075	-0.116
Mof_H 	H 	0.79323	0.74461	0.34046	0.043
Mof_C 	C 	0.82333	0.82209	0.42227	-0.018
Mof_H 	H 	0.86179	0.85181	0.39235	0.028
Mof_C 	C 	0.80831	0.8437	0.49949	-0.03
Mof_H 	H 	0.83694	0.88727	0.51883	0.034
Mof_C 	C 	0.71109	0.738	0.51331	0.042
Mof_C 	C 	0.75252	0.80174	0.54588	-0.101
Mof_H 	H 	0.74286	0.81538	0.59708	0.041
Mof_N 	N 	0.5885	0.51294	0.35473	-0.325
Mof_C 	C 	0.52617	0.47181	0.33074	0.124
Mof_H 	H 	0.50661	0.4827	0.28643	-0.054
Mof_N 	N 	0.49269	0.41446	0.37214	-0.274
Mof_C 	C 	0.53836	0.4173	0.43074	0.059
Mof_C 	C 	0.53248	0.37122	0.49575	-0.118
Mof_H 	H 	0.49242	0.33114	0.50379	0.045
Mof_C 	C 	0.59713	0.477	0.42141	0.007
Mof_C 	C 	0.65515	0.49529	0.47429	-0.091
Mof_H 	H 	0.69489	0.53608	0.46763	0.02
Mof_C 	C 	0.58674	0.38725	0.54552	-0.011
Mof_H 	H 	0.58327	0.35698	0.58721	0.025
Mof_C 	C 	0.64842	0.44866	0.53607	-0.042
Mof_H 	H 	0.68461	0.45788	0.57116	0.037
Mof_Zn	Zn	0.661	0.59551	0.33107	1.179
Mof_N 	N 	0.34306	0.98293	0.75645	-0.324
Mof_C 	C 	0.30113	0.96853	0.82174	0.09
Mof_H 	H 	0.26238	0.92678	0.82752	-0.044
Mof_N 	N 	0.31818	0.01799	0.87885	-0.269
Mof_C 	C 	0.39277	0.04995	0.76999	0.043
Mof_C 	C 	0.44955	0.09193	0.72408	-0.115
Mof_H 	H 	0.4599	0.07794	0.67379	0.042
Mof_C 	C 	0.49	0.15542	0.7556	-0.02
Mof_H 	H 	0.52846	0.18514	0.72568	0.029
Mof_C 	C 	0.47498	0.17703	0.83282	-0.029
Mof_H 	H 	0.50361	0.2206	0.85216	0.034
Mof_C 	C 	0.37776	0.07133	0.84664	0.043
Mof_C 	C 	0.41919	0.13507	0.87921	-0.102
Mof_H 	H 	0.40953	0.14871	0.93041	0.041
Mof_N 	N 	0.25517	0.84627	0.68806	-0.325
Mof_C 	C 	0.19284	0.80514	0.66407	0.124
Mof_H 	H 	0.17328	0.81603	0.61976	-0.054
Mof_N 	N 	0.15936	0.74779	0.70547	-0.274
Mof_C 	C 	0.20503	0.75063	0.76407	0.059
Mof_C 	C 	0.19915	0.70455	0.82908	-0.118
Mof_H 	H 	0.15909	0.66447	0.83712	0.045
Mof_C 	C 	0.2638	0.81033	0.75474	0.007
Mof_C 	C 	0.32182	0.82862	0.80762	-0.09
Mof_H 	H 	0.36156	0.86941	0.80096	0.02
Mof_C 	C 	0.25341	0.72058	0.87885	-0.011
Mof_H 	H 	0.24994	0.69031	0.92054	0.026
Mof_C 	C 	0.31509	0.78199	0.8694	-0.041
Mof_H 	H 	0.35128	0.79121	0.90449	0.037
Mof_Zn	Zn	0.32767	0.92884	0.6644	1.179
Mof_N 	N 	0.00972	0.31627	0.08979	-0.326
Mof_C 	C 	0.96779	0.30187	0.15508	0.09
Mof_H 	H 	0.92904	0.26012	0.16086	-0.044
Mof_N 	N 	0.98484	0.35133	0.21219	-0.267
Mof_C 	C 	0.05943	0.38329	0.10333	0.046
Mof_C 	C 	0.11621	0.42527	0.05742	-0.117
Mof_H 	H 	0.12656	0.41128	0.00713	0.043
Mof_C 	C 	0.15666	0.48876	0.08894	-0.017
Mof_H 	H 	0.19512	0.51848	0.05902	0.028
Mof_C 	C 	0.14164	0.51037	0.16616	-0.032
Mof_H 	H 	0.17027	0.55394	0.1855	0.035
Mof_C 	C 	0.04442	0.40467	0.17998	0.039
Mof_C 	C 	0.08585	0.46841	0.21255	-0.1
Mof_H 	H 	0.07619	0.48205	0.26375	0.04
Mof_N 	N 	0.92183	0.17961	0.0214	-0.319
Mof_C 	C 	0.8595	0.13848	0.99741	0.111
Mof_H 	H 	0.83994	0.14937	0.9531	-0.05
Mof_N 	N 	0.82602	0.08113	0.03881	-0.268
Mof_C 	C 	0.87169	0.08397	0.09741	0.057
Mof_C 	C 	0.86581	0.03789	0.16242	-0.109
Mof_H 	H 	0.82575	0.99781	0.17046	0.04
Mof_C 	C 	0.93046	0.14367	0.08808	0.009
Mof_C 	C 	0.98848	0.16196	0.14096	-0.089
Mof_H 	H 	0.02822	0.20275	0.1343	0.017
Mof_C 	C 	0.92007	0.05392	0.21219	-0.018
Mof_H 	H 	0.9166	0.02365	0.25388	0.028
Mof_C 	C 	0.98175	0.11533	0.20274	-0.036
Mof_H 	H 	0.01794	0.12455	0.23783	0.033
Mof_Zn	Zn	0.99433	0.26218	0.99774	1.178
Mof_N 	N 	0.3504	0.02679	0.42312	-0.324
Mof_C 	C 	0.3648	0.99926	0.48841	0.085
Mof_H 	H 	0.40655	0.00226	0.49419	-0.044
Mof_N 	N 	0.31534	0.96685	0.54552	-0.267
Mof_C 	C 	0.28338	0.00948	0.43666	0.045
Mof_C 	C 	0.2414	0.02428	0.39075	-0.116
Mof_H 	H 	0.25539	0.04862	0.34046	0.043
Mof_C 	C 	0.17791	0.00124	0.42227	-0.018
Mof_H 	H 	0.14819	0.00998	0.39235	0.028
Mof_C 	C 	0.1563	0.96461	0.49949	-0.032
Mof_H 	H 	0.11273	0.94967	0.51883	0.035
Mof_C 	C 	0.262	0.97309	0.51331	0.041
Mof_C 	C 	0.19826	0.95078	0.54588	-0.1
Mof_H 	H 	0.18462	0.92748	0.59708	0.041
Mof_N 	N 	0.48706	0.07556	0.35473	-0.324
Mof_C 	C 	0.52819	0.05436	0.33074	0.124
Mof_H 	H 	0.5173	0.02391	0.28643	-0.053
Mof_N 	N 	0.58554	0.07823	0.37214	-0.274
Mof_C 	C 	0.5827	0.12106	0.43074	0.059
Mof_C 	C 	0.62878	0.16126	0.49575	-0.118
Mof_H 	H 	0.66886	0.16128	0.50379	0.045
Mof_C 	C 	0.523	0.12013	0.42141	0.007
Mof_C 	C 	0.50471	0.15986	0.47429	-0.091
Mof_H 	H 	0.46392	0.15881	0.46763	0.02
Mof_C 	C 	0.61275	0.19949	0.54552	-0.011
Mof_H 	H 	0.64302	0.22629	0.58721	0.025
Mof_C 	C 	0.55134	0.19976	0.53607	-0.042
Mof_H 	H 	0.54212	0.22673	0.57116	0.037
Mof_Zn	Zn	0.40449	0.06549	0.33107	1.179
Mof_N 	N 	0.01707	0.36012	0.75645	-0.324
Mof_C 	C 	0.03147	0.33259	0.82174	0.09
Mof_H 	H 	0.07322	0.33559	0.82752	-0.044
Mof_N 	N 	0.98201	0.30018	0.87885	-0.27
Mof_C 	C 	0.95005	0.34281	0.76999	0.043
Mof_C 	C 	0.90807	0.35761	0.72408	-0.115
Mof_H 	H 	0.92206	0.38195	0.67379	0.042
Mof_C 	C 	0.84458	0.33457	0.7556	-0.019
Mof_H 	H 	0.81486	0.34331	0.72568	0.029
Mof_C 	C 	0.82297	0.29794	0.83282	-0.03
Mof_H 	H 	0.7794	0.283	0.85216	0.034
Mof_C 	C 	0.92867	0.30642	0.84664	0.042
Mof_C 	C 	0.86493	0.28411	0.87921	-0.102
Mof_H 	H 	0.85129	0.26081	0.93041	0.041
Mof_N 	N 	0.15373	0.40889	0.68806	-0.325
Mof_C 	C 	0.19486	0.38769	0.66407	0.124
Mof_H 	H 	0.18397	0.35724	0.61976	-0.054
Mof_N 	N 	0.25221	0.41156	0.70547	-0.274
Mof_C 	C 	0.24937	0.45439	0.76407	0.059
Mof_C 	C 	0.29545	0.49459	0.82908	-0.118
Mof_H 	H 	0.33553	0.49461	0.83712	0.045
Mof_C 	C 	0.18967	0.45346	0.75474	0.007
Mof_C 	C 	0.17138	0.49319	0.80762	-0.091
Mof_H 	H 	0.13059	0.49214	0.80096	0.02
Mof_C 	C 	0.27942	0.53282	0.87885	-0.011
Mof_H 	H 	0.30969	0.55962	0.92054	0.026
Mof_C 	C 	0.21801	0.53309	0.8694	-0.042
Mof_H 	H 	0.20879	0.56006	0.90449	0.037
Mof_Zn	Zn	0.07116	0.39882	0.6644	1.179
Mof_N 	N 	0.68373	0.69346	0.08979	-0.325
Mof_C 	C 	0.69813	0.66593	0.15508	0.086
Mof_H 	H 	0.73988	0.66893	0.16086	-0.044
Mof_N 	N 	0.64867	0.63352	0.21219	-0.267
Mof_C 	C 	0.61671	0.67615	0.10333	0.045
Mof_C 	C 	0.57473	0.69095	0.05742	-0.116
Mof_H 	H 	0.58872	0.71529	0.00713	0.043
Mof_C 	C 	0.51124	0.66791	0.08894	-0.018
Mof_H 	H 	0.48152	0.67665	0.05902	0.028
Mof_C 	C 	0.48963	0.63128	0.16616	-0.03
Mof_H 	H 	0.44606	0.61634	0.1855	0.034
Mof_C 	C 	0.59533	0.63976	0.17998	0.042
Mof_C 	C 	0.53159	0.61745	0.21255	-0.101
Mof_H 	H 	0.51795	0.59415	0.26375	0.041
Mof_N 	N 	0.82039	0.74223	0.0214	-0.324
Mof_C 	C 	0.86152	0.72103	0.99741	0.122
Mof_H 	H 	0.85063	0.69058	0.9531	-0.053
Mof_N 	N 	0.91887	0.7449	0.03881	-0.272
Mof_C 	C 	0.91603	0.78773	0.09741	0.056
Mof_C 	C 	0.96211	0.82793	0.16242	-0.109
Mof_H 	H 	0.00219	0.82795	0.17046	0.039
Mof_C 	C 	0.85633	0.7868	0.08808	0.009
Mof_C 	C 	0.83804	0.82653	0.14096	-0.093
Mof_H 	H 	0.79725	0.82548	0.1343	0.02
Mof_C 	C 	0.94608	0.86616	0.21219	-0.017
Mof_H 	H 	0.97635	0.89296	0.25388	0.028
Mof_C 	C 	0.88467	0.86643	0.20274	-0.038
Mof_H 	H 	0.87545	0.8934	0.23783	0.035
Mof_Zn	Zn	0.73782	0.73216	0.99774	1.179
Mof_N 	N 	0.02679	0.67639	0.57688	-0.324
Mof_C 	C 	0.99926	0.63446	0.51159	0.085
Mof_H 	H 	0.00226	0.59571	0.50581	-0.044
Mof_N 	N 	0.96685	0.65151	0.45448	-0.267
Mof_C 	C 	0.00948	0.7261	0.56334	0.045
Mof_C 	C 	0.02428	0.78288	0.60925	-0.116
Mof_H 	H 	0.04862	0.79323	0.65954	0.043
Mof_C 	C 	0.00124	0.82333	0.57773	-0.018
Mof_H 	H 	0.00998	0.86179	0.60765	0.028
Mof_C 	C 	0.96461	0.80831	0.50051	-0.031
Mof_H 	H 	0.94967	0.83694	0.48117	0.035
Mof_C 	C 	0.97309	0.71109	0.48669	0.041
Mof_C 	C 	0.95078	0.75252	0.45412	-0.1
Mof_H 	H 	0.92748	0.74286	0.40292	0.041
Mof_N 	N 	0.07556	0.5885	0.64527	-0.324
Mof_C 	C 	0.05436	0.52617	0.66926	0.124
Mof_H 	H 	0.02391	0.50661	0.71357	-0.053
Mof_N 	N 	0.07823	0.49269	0.62786	-0.274
Mof_C 	C 	0.12106	0.53836	0.56926	0.059
Mof_C 	C 	0.16126	0.53248	0.50425	-0.118
Mof_H 	H 	0.16128	0.49242	0.49621	0.045
Mof_C 	C 	0.12013	0.59713	0.57859	0.007
Mof_C 	C 	0.15986	0.65515	0.52571	-0.091
Mof_H 	H 	0.15881	0.69489	0.53237	0.019
Mof_C 	C 	0.19949	0.58674	0.45448	-0.011
Mof_H 	H 	0.22629	0.58327	0.41279	0.025
Mof_C 	C 	0.19976	0.64842	0.46393	-0.042
Mof_H 	H 	0.22673	0.68461	0.42884	0.037
Mof_Zn	Zn	0.06549	0.661	0.66893	1.179
Mof_N 	N 	0.69346	0.00972	0.91021	-0.327
Mof_C 	C 	0.66593	0.96779	0.84492	0.09
Mof_H 	H 	0.66893	0.92904	0.83914	-0.045
Mof_N 	N 	0.63352	0.98484	0.78781	-0.267
Mof_C 	C 	0.67615	0.05943	0.89667	0.045
Mof_C 	C 	0.69095	0.11621	0.94258	-0.117
Mof_H 	H 	0.71529	0.12656	0.99287	0.042
Mof_C 	C 	0.66791	0.15666	0.91106	-0.018
Mof_H 	H 	0.67665	0.19512	0.94098	0.028
Mof_C 	C 	0.63128	0.14164	0.83384	-0.032
Mof_H 	H 	0.61634	0.17027	0.8145	0.035
Mof_C 	C 	0.63976	0.04442	0.82002	0.039
Mof_C 	C 	0.61745	0.08585	0.78745	-0.1
Mof_H 	H 	0.59415	0.07619	0.73625	0.041
Mof_N 	N 	0.74223	0.92183	0.9786	-0.323
Mof_C 	C 	0.72103	0.8595	0.00259	0.122
Mof_H 	H 	0.69058	0.83994	0.0469	-0.053
Mof_N 	N 	0.7449	0.82602	0.96119	-0.273
Mof_C 	C 	0.78773	0.87169	0.90259	0.059
Mof_C 	C 	0.82793	0.86581	0.83758	-0.118
Mof_H 	H 	0.82795	0.82575	0.82954	0.044
Mof_C 	C 	0.7868	0.93046	0.91192	0.006
Mof_C 	C 	0.82653	0.98848	0.85904	-0.086
Mof_H 	H 	0.82548	0.02822	0.8657	0.016
Mof_C 	C 	0.86616	0.92007	0.78781	-0.012
Mof_H 	H 	0.89296	0.9166	0.74612	0.026
Mof_C 	C 	0.86643	0.98175	0.79726	-0.04
Mof_H 	H 	0.8934	0.01794	0.76217	0.034
Mof_Zn	Zn	0.73216	0.99433	0.00226	1.179
Mof_N 	N 	0.36012	0.34306	0.24355	-0.325
Mof_C 	C 	0.33259	0.30113	0.17826	0.086
Mof_H 	H 	0.33559	0.26238	0.17248	-0.044
Mof_N 	N 	0.30018	0.31818	0.12115	-0.267
Mof_C 	C 	0.34281	0.39277	0.23001	0.045
Mof_C 	C 	0.35761	0.44955	0.27592	-0.116
Mof_H 	H 	0.38195	0.4599	0.32621	0.043
Mof_C 	C 	0.33457	0.49	0.2444	-0.018
Mof_H 	H 	0.34331	0.52846	0.27432	0.028
Mof_C 	C 	0.29794	0.47498	0.16718	-0.03
Mof_H 	H 	0.283	0.50361	0.14784	0.034
Mof_C 	C 	0.30642	0.37776	0.15336	0.042
Mof_C 	C 	0.28411	0.41919	0.12079	-0.101
Mof_H 	H 	0.26081	0.40953	0.06959	0.041
Mof_N 	N 	0.40889	0.25517	0.31194	-0.325
Mof_C 	C 	0.38769	0.19284	0.33593	0.124
Mof_H 	H 	0.35724	0.17328	0.38024	-0.054
Mof_N 	N 	0.41156	0.15936	0.29453	-0.274
Mof_C 	C 	0.45439	0.20503	0.23593	0.059
Mof_C 	C 	0.49459	0.19915	0.17092	-0.118
Mof_H 	H 	0.49461	0.15909	0.16288	0.045
Mof_C 	C 	0.45346	0.2638	0.24526	0.007
Mof_C 	C 	0.49319	0.32182	0.19238	-0.091
Mof_H 	H 	0.49214	0.36156	0.19904	0.02
Mof_C 	C 	0.53282	0.25341	0.12115	-0.011
Mof_H 	H 	0.55962	0.24994	0.07946	0.026
Mof_C 	C 	0.53309	0.31509	0.1306	-0.042
Mof_H 	H 	0.56006	0.35128	0.09551	0.037
Mof_Zn	Zn	0.39882	0.32767	0.3356	1.179
Mof_N 	N 	0.32361	0.3504	0.57688	-0.325
Mof_C 	C 	0.36554	0.3648	0.51159	0.086
Mof_H 	H 	0.40429	0.40655	0.50581	-0.044
Mof_N 	N 	0.34849	0.31534	0.45448	-0.267
Mof_C 	C 	0.2739	0.28338	0.56334	0.045
Mof_C 	C 	0.21712	0.2414	0.60925	-0.116
Mof_H 	H 	0.20677	0.25539	0.65954	0.043
Mof_C 	C 	0.17667	0.17791	0.57773	-0.018
Mof_H 	H 	0.13821	0.14819	0.60765	0.028
Mof_C 	C 	0.19169	0.1563	0.50051	-0.03
Mof_H 	H 	0.16306	0.11273	0.48117	0.034
Mof_C 	C 	0.28891	0.262	0.48669	0.042
Mof_C 	C 	0.24748	0.19826	0.45412	-0.101
Mof_H 	H 	0.25714	0.18462	0.40292	0.041
Mof_N 	N 	0.4115	0.48706	0.64527	-0.325
Mof_C 	C 	0.47383	0.52819	0.66926	0.124
Mof_H 	H 	0.49339	0.5173	0.71357	-0.054
Mof_N 	N 	0.50731	0.58554	0.62786	-0.274
Mof_C 	C 	0.46164	0.5827	0.56926	0.059
Mof_C 	C 	0.46752	0.62878	0.50425	-0.118
Mof_H 	H 	0.50758	0.66886	0.49621	0.045
Mof_C 	C 	0.40287	0.523	0.57859	0.007
Mof_C 	C 	0.34485	0.50471	0.52571	-0.091
Mof_H 	H 	0.30511	0.46392	0.53237	0.02
Mof_C 	C 	0.41326	0.61275	0.45448	-0.011
Mof_H 	H 	0.41673	0.64302	0.41279	0.025
Mof_C 	C 	0.35158	0.55134	0.46393	-0.042
Mof_H 	H 	0.31539	0.54212	0.42884	0.037
Mof_Zn	Zn	0.339	0.40449	0.66893	1.179
Mof_N 	N 	0.99028	0.68373	0.91021	-0.326
Mof_C 	C 	0.03221	0.69813	0.84492	0.09
Mof_H 	H 	0.07096	0.73988	0.83914	-0.044
Mof_N 	N 	0.01516	0.64867	0.78781	-0.267
Mof_C 	C 	0.94057	0.61671	0.89667	0.046
Mof_C 	C 	0.88379	0.57473	0.94258	-0.117
Mof_H 	H 	0.87344	0.58872	0.99287	0.043
Mof_C 	C 	0.84334	0.51124	0.91106	-0.017
Mof_H 	H 	0.80488	0.48152	0.94098	0.028
Mof_C 	C 	0.85836	0.48963	0.83384	-0.032
Mof_H 	H 	0.82973	0.44606	0.8145	0.035
Mof_C 	C 	0.95558	0.59533	0.82002	0.039
Mof_C 	C 	0.91415	0.53159	0.78745	-0.1
Mof_H 	H 	0.92381	0.51795	0.73625	0.04
Mof_N 	N 	0.07817	0.82039	0.9786	-0.319
Mof_C 	C 	0.1405	0.86152	0.00259	0.111
Mof_H 	H 	0.16006	0.85063	0.0469	-0.05
Mof_N 	N 	0.17398	0.91887	0.96119	-0.268
Mof_C 	C 	0.12831	0.91603	0.90259	0.057
Mof_C 	C 	0.13419	0.96211	0.83758	-0.109
Mof_H 	H 	0.17425	0.00219	0.82954	0.04
Mof_C 	C 	0.06954	0.85633	0.91192	0.009
Mof_C 	C 	0.01152	0.83804	0.85904	-0.089
Mof_H 	H 	0.97178	0.79725	0.8657	0.017
Mof_C 	C 	0.07993	0.94608	0.78781	-0.018
Mof_H 	H 	0.0834	0.97635	0.74612	0.028
Mof_C 	C 	0.01825	0.88467	0.79726	-0.036
Mof_H 	H 	0.98206	0.87545	0.76217	0.033
Mof_Zn	Zn	0.00567	0.73782	0.00226	1.178
Mof_N 	N 	0.65694	0.01707	0.24355	-0.324
Mof_C 	C 	0.69887	0.03147	0.17826	0.09
Mof_H 	H 	0.73762	0.07322	0.17248	-0.044
Mof_N 	N 	0.68182	0.98201	0.12115	-0.269
Mof_C 	C 	0.60723	0.95005	0.23001	0.043
Mof_C 	C 	0.55045	0.90807	0.27592	-0.115
Mof_H 	H 	0.5401	0.92206	0.32621	0.042
Mof_C 	C 	0.51	0.84458	0.2444	-0.02
Mof_H 	H 	0.47154	0.81486	0.27432	0.029
Mof_C 	C 	0.52502	0.82297	0.16718	-0.029
Mof_H 	H 	0.49639	0.7794	0.14784	0.034
Mof_C 	C 	0.62224	0.92867	0.15336	0.043
Mof_C 	C 	0.58081	0.86493	0.12079	-0.102
Mof_H 	H 	0.59047	0.85129	0.06959	0.041
Mof_N 	N 	0.74483	0.15373	0.31194	-0.325
Mof_C 	C 	0.80716	0.19486	0.33593	0.124
Mof_H 	H 	0.82672	0.18397	0.38024	-0.054
Mof_N 	N 	0.84064	0.25221	0.29453	-0.274
Mof_C 	C 	0.79497	0.24937	0.23593	0.059
Mof_C 	C 	0.80085	0.29545	0.17092	-0.118
Mof_H 	H 	0.84091	0.33553	0.16288	0.045
Mof_C 	C 	0.7362	0.18967	0.24526	0.007
Mof_C 	C 	0.67818	0.17138	0.19238	-0.09
Mof_H 	H 	0.63844	0.13059	0.19904	0.02
Mof_C 	C 	0.74659	0.27942	0.12115	-0.011
Mof_H 	H 	0.75006	0.30969	0.07946	0.026
Mof_C 	C 	0.68491	0.21801	0.1306	-0.041
Mof_H 	H 	0.64872	0.20879	0.09551	0.037
Mof_Zn	Zn	0.67233	0.07116	0.3356	1.179
Mof_N 	N 	0.6496	0.97321	0.57688	-0.324
Mof_C 	C 	0.6352	0.00074	0.51159	0.085
Mof_H 	H 	0.59345	0.99774	0.50581	-0.044
Mof_N 	N 	0.68466	0.03315	0.45448	-0.267
Mof_C 	C 	0.71662	0.99052	0.56334	0.045
Mof_C 	C 	0.7586	0.97572	0.60925	-0.116
Mof_H 	H 	0.74461	0.95138	0.65954	0.043
Mof_C 	C 	0.82209	0.99876	0.57773	-0.018
Mof_H 	H 	0.85181	0.99002	0.60765	0.028
Mof_C 	C 	0.8437	0.03539	0.50051	-0.032
Mof_H 	H 	0.88727	0.05033	0.48117	0.035
Mof_C 	C 	0.738	0.02691	0.48669	0.041
Mof_C 	C 	0.80174	0.04922	0.45412	-0.1
Mof_H 	H 	0.81538	0.07252	0.40292	0.041
Mof_N 	N 	0.51294	0.92444	0.64527	-0.324
Mof_C 	C 	0.47181	0.94564	0.66926	0.124
Mof_H 	H 	0.4827	0.97609	0.71357	-0.053
Mof_N 	N 	0.41446	0.92177	0.62786	-0.274
Mof_C 	C 	0.4173	0.87894	0.56926	0.059
Mof_C 	C 	0.37122	0.83874	0.50425	-0.118
Mof_H 	H 	0.33114	0.83872	0.49621	0.045
Mof_C 	C 	0.477	0.87987	0.57859	0.007
Mof_C 	C 	0.49529	0.84014	0.52571	-0.091
Mof_H 	H 	0.53608	0.84119	0.53237	0.02
Mof_C 	C 	0.38725	0.80051	0.45448	-0.011
Mof_H 	H 	0.35698	0.77371	0.41279	0.025
Mof_C 	C 	0.44866	0.80024	0.46393	-0.042
Mof_H 	H 	0.45788	0.77327	0.42884	0.037
Mof_Zn	Zn	0.59551	0.93451	0.66893	1.179
Mof_N 	N 	0.31627	0.30654	0.91021	-0.325
Mof_C 	C 	0.30187	0.33407	0.84492	0.086
Mof_H 	H 	0.26012	0.33107	0.83914	-0.044
Mof_N 	N 	0.35133	0.36648	0.78781	-0.267
Mof_C 	C 	0.38329	0.32385	0.89667	0.045
Mof_C 	C 	0.42527	0.30905	0.94258	-0.116
Mof_H 	H 	0.41128	0.28471	0.99287	0.043
Mof_C 	C 	0.48876	0.33209	0.91106	-0.018
Mof_H 	H 	0.51848	0.32335	0.94098	0.028
Mof_C 	C 	0.51037	0.36872	0.83384	-0.03
Mof_H 	H 	0.55394	0.38366	0.8145	0.034
Mof_C 	C 	0.40467	0.36024	0.82002	0.042
Mof_C 	C 	0.46841	0.38255	0.78745	-0.101
Mof_H 	H 	0.48205	0.40585	0.73625	0.041
Mof_N 	N 	0.17961	0.25777	0.9786	-0.324
Mof_C 	C 	0.13848	0.27897	0.00259	0.122
Mof_H 	H 	0.14937	0.30942	0.0469	-0.053
Mof_N 	N 	0.08113	0.2551	0.96119	-0.272
Mof_C 	C 	0.08397	0.21227	0.90259	0.056
Mof_C 	C 	0.03789	0.17207	0.83758	-0.109
Mof_H 	H 	0.99781	0.17205	0.82954	0.039
Mof_C 	C 	0.14367	0.2132	0.91192	0.009
Mof_C 	C 	0.16196	0.17347	0.85904	-0.093
Mof_H 	H 	0.20275	0.17452	0.8657	0.02
Mof_C 	C 	0.05392	0.13384	0.78781	-0.017
Mof_H 	H 	0.02365	0.10704	0.74612	0.028
Mof_C 	C 	0.11533	0.13357	0.79726	-0.038
Mof_H 	H 	0.12455	0.1066	0.76217	0.035
Mof_Zn	Zn	0.26218	0.26784	0.00226	1.179
Mof_N 	N 	0.98293	0.63988	0.24355	-0.324
Mof_C 	C 	0.96853	0.66741	0.17826	0.09
Mof_H 	H 	0.92678	0.66441	0.17248	-0.044
Mof_N 	N 	0.01799	0.69982	0.12115	-0.27
Mof_C 	C 	0.04995	0.65719	0.23001	0.043
Mof_C 	C 	0.09193	0.64239	0.27592	-0.115
Mof_H 	H 	0.07794	0.61805	0.32621	0.042
Mof_C 	C 	0.15542	0.66543	0.2444	-0.019
Mof_H 	H 	0.18514	0.65669	0.27432	0.029
Mof_C 	C 	0.17703	0.70206	0.16718	-0.03
Mof_H 	H 	0.2206	0.717	0.14784	0.034
Mof_C 	C 	0.07133	0.69358	0.15336	0.042
Mof_C 	C 	0.13507	0.71589	0.12079	-0.102
Mof_H 	H 	0.14871	0.73919	0.06959	0.041
Mof_N 	N 	0.84627	0.59111	0.31194	-0.325
Mof_C 	C 	0.80514	0.61231	0.33593	0.124
Mof_H 	H 	0.81603	0.64276	0.38024	-0.054
Mof_N 	N 	0.74779	0.58844	0.29453	-0.274
Mof_C 	C 	0.75063	0.54561	0.23593	0.059
Mof_C 	C 	0.70455	0.50541	0.17092	-0.118
Mof_H 	H 	0.66447	0.50539	0.16288	0.045
Mof_C 	C 	0.81033	0.54654	0.24526	0.007
Mof_C 	C 	0.82862	0.50681	0.19238	-0.091
Mof_H 	H 	0.86941	0.50786	0.19904	0.02
Mof_C 	C 	0.72058	0.46718	0.12115	-0.011
Mof_H 	H 	0.69031	0.44038	0.07946	0.026
Mof_C 	C 	0.78199	0.46691	0.1306	-0.042
Mof_H 	H 	0.79121	0.43994	0.09551	0.037
Mof_Zn	Zn	0.92884	0.60118	0.3356	1.179
_end
