data_functionalizedCrystal
_audit_creation_method	'EQeq! by Chris Wilmer'
_symmetry_space_group_name_H-M	'P1'
_symmetry_Int_Tables_number	1
_symmetry_cell_setting	triclinic
loop_
_symmetry_equiv_pos_as_xyz
  x,y,z
_cell_length_a	9.6445
_cell_length_b	14.747
_cell_length_c	12.31
_cell_angle_alpha	90
_cell_angle_beta	108.457
_cell_angle_gamma	90
loop_
_atom_site_label
_atom_site_type_symbol
_atom_site_fract_x
_atom_site_fract_y
_atom_site_fract_z
_atom_site_charge
Mof_Fe	Fe	0.94516	0.05297	0.33709	0.95
Mof_Fe	Fe	0.8409	0.21031	0.10724	0.92
Mof_Cl	Cl	0.9656	0.94904	0.2084	-0.384
Mof_Cl	Cl	0.9947	0.31512	0.2163	-0.379
Mof_O 	O 	0.8215	0.1403	0.2337	-0.534
Mof_H 	H 	0.7338	0.1507	0.2481	0.266
Mof_O 	O 	0.9672	0.1469	0.472	-0.306
Mof_O 	O 	0.1439	0.1115	0.3495	-0.235
Mof_O 	O 	0.14	0.2342	0.5892	-0.283
Mof_O 	O 	0.3098	0.2079	0.4589	-0.25
Mof_O 	O 	0.7291	0.8878	0.4885	-0.275
Mof_O 	O 	0.0107	0.8545	0.577	-0.175
Mof_O 	O 	0.059	0.9659	0.4697	-0.166
Mof_O 	O 	0.7729	0.998	0.3787	-0.281
Mof_C 	C 	0.0907	0.1842	0.5044	0.337
Mof_C 	C 	0.191	0.1667	0.4312	0.239
Mof_C 	C 	0.8113	0.937	0.4527	0.302
Mof_C 	C 	0.9733	0.918	0.5041	0.111
Mof_Fe	Fe	0.44516	0.55297	0.33709	1.005
Mof_Fe	Fe	0.3409	0.71031	0.10724	0.955
Mof_Cl	Cl	0.4656	0.44904	0.2084	-0.36
Mof_Cl	Cl	0.4947	0.81512	0.2163	-0.338
Mof_O 	O 	0.3215	0.6403	0.2337	-0.538
Mof_H 	H 	0.2338	0.6507	0.2481	0.275
Mof_O 	O 	0.4672	0.6469	0.472	-0.253
Mof_O 	O 	0.6439	0.6115	0.3495	-0.272
Mof_O 	O 	0.64	0.7342	0.5892	-0.275
Mof_O 	O 	0.8098	0.7079	0.4589	-0.267
Mof_O 	O 	0.2291	0.3878	0.4885	-0.254
Mof_O 	O 	0.5107	0.3545	0.577	-0.27
Mof_O 	O 	0.559	0.4659	0.4697	-0.259
Mof_O 	O 	0.2729	0.498	0.3787	-0.266
Mof_C 	C 	0.5907	0.6842	0.5044	0.265
Mof_C 	C 	0.691	0.6667	0.4312	0.257
Mof_C 	C 	0.3113	0.437	0.4527	0.265
Mof_C 	C 	0.4733	0.418	0.5041	0.248
Mof_Fe	Fe	0.94516	0.94703	0.83709	0.958
Mof_Fe	Fe	0.8409	0.78969	0.60724	0.983
Mof_Cl	Cl	0.9656	0.05096	0.7084	-0.359
Mof_Cl	Cl	0.9947	0.68488	0.7163	-0.36
Mof_O 	O 	0.8215	0.8597	0.7337	-0.536
Mof_H 	H 	0.7338	0.8493	0.7481	0.277
Mof_O 	O 	0.9672	0.8531	0.972	-0.224
Mof_O 	O 	0.1439	0.8885	0.8495	-0.246
Mof_O 	O 	0.14	0.7658	0.0892	-0.261
Mof_O 	O 	0.3098	0.7921	0.9589	-0.229
Mof_O 	O 	0.7291	0.1122	0.9885	-0.251
Mof_O 	O 	0.0107	0.1455	0.077	-0.156
Mof_O 	O 	0.059	0.0341	0.9697	-0.082
Mof_O 	O 	0.7729	0.002	0.8787	-0.294
Mof_C 	C 	0.0907	0.8158	0.0044	0.191
Mof_C 	C 	0.191	0.8333	0.9312	0.317
Mof_C 	C 	0.8113	0.063	0.9527	0.389
Mof_C 	C 	0.9733	0.082	0.0041	-0.04
Mof_Fe	Fe	0.44516	0.44703	0.83709	1.01
Mof_Fe	Fe	0.3409	0.28969	0.60724	1.017
Mof_Cl	Cl	0.4656	0.55096	0.7084	-0.328
Mof_Cl	Cl	0.4947	0.18488	0.7163	-0.317
Mof_O 	O 	0.3215	0.3597	0.7337	-0.54
Mof_H 	H 	0.2338	0.3493	0.7481	0.285
Mof_O 	O 	0.4672	0.3531	0.972	-0.165
Mof_O 	O 	0.6439	0.3885	0.8495	-0.285
Mof_O 	O 	0.64	0.2658	0.0892	-0.253
Mof_O 	O 	0.8098	0.2921	0.9589	-0.246
Mof_O 	O 	0.2291	0.6122	0.9885	-0.231
Mof_O 	O 	0.5107	0.6455	0.077	-0.249
Mof_O 	O 	0.559	0.5341	0.9697	-0.173
Mof_O 	O 	0.2729	0.502	0.8787	-0.276
Mof_C 	C 	0.5907	0.3158	0.0044	0.11
Mof_C 	C 	0.691	0.3333	0.9312	0.34
Mof_C 	C 	0.3113	0.563	0.9527	0.352
Mof_C 	C 	0.4733	0.582	0.0041	0.097
_end
