# CIF file generated by openbabel 3.1.0, see https://openbabel.org
data_I
_chemical_name_common 'NALYEG_clean'
_cell_length_a 9.7736
_cell_length_b 18.3539
_cell_length_c 18.3539
_cell_angle_alpha 120
_cell_angle_beta 90
_cell_angle_gamma 90
_space_group_name_H-M_alt 'P 1'
_space_group_name_Hall 'P 1'
loop_
    _symmetry_equiv_pos_as_xyz
    x,y,z
loop_
    _atom_site_label
    _atom_site_type_symbol
    _atom_site_fract_x
    _atom_site_fract_y
    _atom_site_fract_z
    _atom_site_occupancy
    U1       U        0.75000    0.64292    0.44095    1.000
    U2       U        0.75000    0.79803    0.35708    1.000
    U3       U        0.75000    0.55905    0.20197    1.000
    U4       U        0.25000    0.35708    0.55905    1.000
    U5       U        0.25000    0.20197    0.64292    1.000
    U6       U        0.25000    0.44095    0.79803    1.000
    H1       H        0.04150    0.91590    0.51550    1.000
    H2       H        0.04150    0.59960    0.08410    1.000
    H3       H        0.04150    0.48450    0.40040    1.000
    H4       H        0.54150    0.08410    0.48450    1.000
    H5       H        0.54150    0.40040    0.91590    1.000
    H6       H        0.54150    0.51550    0.59960    1.000
    H7       H        0.95850    0.08410    0.48450    1.000
    H8       H        0.95850    0.40040    0.91590    1.000
    H9       H        0.95850    0.51550    0.59960    1.000
    H10      H        0.45850    0.91590    0.51550    1.000
    H11      H        0.45850    0.59960    0.08410    1.000
    H12      H        0.45850    0.48450    0.40040    1.000
    H13      H        0.25000    0.70700    0.46330    1.000
    H14      H        0.25000    0.75630    0.29300    1.000
    H15      H        0.25000    0.53670    0.24370    1.000
    H16      H        0.75000    0.29300    0.53670    1.000
    H17      H        0.75000    0.24370    0.70700    1.000
    H18      H        0.75000    0.46330    0.75630    1.000
    C1       C        0.12700    0.80470    0.48710    1.000
    C2       C        0.12430    0.88890    0.51070    1.000
    C3       C        0.99360    0.76020    0.47190    1.000
    C4       C        0.12700    0.68240    0.19530    1.000
    C5       C        0.12430    0.62180    0.11110    1.000
    C6       C        0.99360    0.71170    0.23980    1.000
    C7       C        0.12700    0.51290    0.31760    1.000
    C8       C        0.12430    0.48930    0.37820    1.000
    C9       C        0.99360    0.52810    0.28830    1.000
    C10      C        0.62700    0.19530    0.51290    1.000
    C11      C        0.62430    0.11110    0.48930    1.000
    C12      C        0.49360    0.23980    0.52810    1.000
    C13      C        0.62700    0.31760    0.80470    1.000
    C14      C        0.62430    0.37820    0.88890    1.000
    C15      C        0.49360    0.28830    0.76020    1.000
    C16      C        0.62700    0.48710    0.68240    1.000
    C17      C        0.62430    0.51070    0.62180    1.000
    C18      C        0.49360    0.47190    0.71170    1.000
    C19      C        0.87300    0.19530    0.51290    1.000
    C20      C        0.87570    0.11110    0.48930    1.000
    C21      C        0.00640    0.23980    0.52810    1.000
    C22      C        0.87300    0.31760    0.80470    1.000
    C23      C        0.87570    0.37820    0.88890    1.000
    C24      C        0.00640    0.28830    0.76020    1.000
    C25      C        0.87300    0.48710    0.68240    1.000
    C26      C        0.87570    0.51070    0.62180    1.000
    C27      C        0.00640    0.47190    0.71170    1.000
    C28      C        0.37300    0.80470    0.48710    1.000
    C29      C        0.37570    0.88890    0.51070    1.000
    C30      C        0.50640    0.76020    0.47190    1.000
    C31      C        0.37300    0.68240    0.19530    1.000
    C32      C        0.37570    0.62180    0.11110    1.000
    C33      C        0.50640    0.71170    0.23980    1.000
    C34      C        0.37300    0.51290    0.31760    1.000
    C35      C        0.37570    0.48930    0.37820    1.000
    C36      C        0.50640    0.52810    0.28830    1.000
    C37      C        0.25000    0.93370    0.52760    1.000
    C38      C        0.25000    0.76310    0.47700    1.000
    C39      C        0.25000    0.02560    0.55820    1.000
    C40      C        0.25000    0.59390    0.06630    1.000
    C41      C        0.25000    0.71390    0.23690    1.000
    C42      C        0.25000    0.53260    0.97440    1.000
    C43      C        0.25000    0.47240    0.40610    1.000
    C44      C        0.25000    0.52300    0.28610    1.000
    C45      C        0.25000    0.44180    0.46740    1.000
    C46      C        0.75000    0.06630    0.47240    1.000
    C47      C        0.75000    0.23690    0.52300    1.000
    C48      C        0.75000    0.97440    0.44180    1.000
    C49      C        0.75000    0.40610    0.93370    1.000
    C50      C        0.75000    0.28610    0.76310    1.000
    C51      C        0.75000    0.46740    0.02560    1.000
    C52      C        0.75000    0.52760    0.59390    1.000
    C53      C        0.75000    0.47700    0.71390    1.000
    C54      C        0.75000    0.55820    0.53260    1.000
    O1       O        0.99130    0.68800    0.46180    1.000
    O2       O        0.36200    0.06500    0.57100    1.000
    O3       O        0.88400    0.79620    0.46700    1.000
    O4       O        0.99130    0.77380    0.31200    1.000
    O5       O        0.36200    0.50600    0.93500    1.000
    O6       O        0.88400    0.67080    0.20380    1.000
    O7       O        0.99130    0.53820    0.22620    1.000
    O8       O        0.36200    0.42900    0.49400    1.000
    O9       O        0.88400    0.53300    0.32920    1.000
    O10      O        0.49130    0.31200    0.53820    1.000
    O11      O        0.86200    0.93500    0.42900    1.000
    O12      O        0.38400    0.20380    0.53300    1.000
    O13      O        0.49130    0.22620    0.68800    1.000
    O14      O        0.86200    0.49400    0.06500    1.000
    O15      O        0.38400    0.32920    0.79620    1.000
    O16      O        0.49130    0.46180    0.77380    1.000
    O17      O        0.86200    0.57100    0.50600    1.000
    O18      O        0.38400    0.46700    0.67080    1.000
    O19      O        0.00870    0.31200    0.53820    1.000
    O20      O        0.63800    0.93500    0.42900    1.000
    O21      O        0.11600    0.20380    0.53300    1.000
    O22      O        0.00870    0.22620    0.68800    1.000
    O23      O        0.63800    0.49400    0.06500    1.000
    O24      O        0.11600    0.32920    0.79620    1.000
    O25      O        0.00870    0.46180    0.77380    1.000
    O26      O        0.63800    0.57100    0.50600    1.000
    O27      O        0.11600    0.46700    0.67080    1.000
    O28      O        0.50870    0.68800    0.46180    1.000
    O29      O        0.13800    0.06500    0.57100    1.000
    O30      O        0.61600    0.79620    0.46700    1.000
    O31      O        0.50870    0.77380    0.31200    1.000
    O32      O        0.13800    0.50600    0.93500    1.000
    O33      O        0.61600    0.67080    0.20380    1.000
    O34      O        0.50870    0.53820    0.22620    1.000
    O35      O        0.13800    0.42900    0.49400    1.000
    O36      O        0.61600    0.53300    0.32920    1.000
    O37      O        0.75000    0.66667    0.33334    1.000
    O38      O        0.25000    0.33333    0.66666    1.000
