# CIF file generated by openbabel 3.1.0, see https://openbabel.org
data_I
_chemical_name_common 'image0'
_cell_length_a 10.041
_cell_length_b 9.22
_cell_length_c 10.469
_cell_angle_alpha 90
_cell_angle_beta 91.6
_cell_angle_gamma 90
_space_group_name_H-M_alt 'P 1'
_space_group_name_Hall 'P 1'
loop_
    _symmetry_equiv_pos_as_xyz
    x,y,z
loop_
    _atom_site_label
    _atom_site_type_symbol
    _atom_site_fract_x
    _atom_site_fract_y
    _atom_site_fract_z
    _atom_site_occupancy
    Ga1      Ga       0.37134    0.09184    0.83895    1.000
    P1       P        0.57190    0.83365    0.87420    1.000
    O1       O        0.68670    0.93430    0.84190    1.000
    O2       O        0.58100    0.68580    0.81040    1.000
    O3       O        0.44050    0.90340    0.83170    1.000
    O4       O        0.57070    0.80180    0.01820    1.000
    Ga2      Ga       0.87134    0.59184    0.33895    1.000
    P2       P        0.07190    0.33365    0.37420    1.000
    O5       O        0.18670    0.43430    0.34190    1.000
    O6       O        0.08100    0.18580    0.31040    1.000
    O7       O        0.94050    0.40340    0.33170    1.000
    O8       O        0.07070    0.30180    0.51820    1.000
    Ga3      Ga       0.12866    0.09184    0.16105    1.000
    P3       P        0.92810    0.83365    0.12580    1.000
    O9       O        0.81330    0.93430    0.15810    1.000
    O10      O        0.91900    0.68580    0.18960    1.000
    O11      O        0.05950    0.90340    0.16830    1.000
    O12      O        0.92930    0.80180    0.98180    1.000
    Ga4      Ga       0.62866    0.59184    0.66105    1.000
    P4       P        0.42810    0.33365    0.62580    1.000
    O13      O        0.31330    0.43430    0.65810    1.000
    O14      O        0.41900    0.18580    0.68960    1.000
    O15      O        0.55950    0.40340    0.66830    1.000
    O16      O        0.42930    0.30180    0.48180    1.000
    Ga5      Ga       0.62866    0.90816    0.16105    1.000
    P5       P        0.42810    0.16635    0.12580    1.000
    O17      O        0.31330    0.06570    0.15810    1.000
    O18      O        0.41900    0.31420    0.18960    1.000
    O19      O        0.55950    0.09660    0.16830    1.000
    O20      O        0.42930    0.19820    0.98180    1.000
    Ga6      Ga       0.12866    0.40816    0.66105    1.000
    P6       P        0.92810    0.66635    0.62580    1.000
    O21      O        0.81330    0.56570    0.65810    1.000
    O22      O        0.91900    0.81420    0.68960    1.000
    O23      O        0.05950    0.59660    0.66830    1.000
    O24      O        0.92930    0.69820    0.48180    1.000
    Ga7      Ga       0.87134    0.90816    0.83895    1.000
    P7       P        0.07190    0.16635    0.87420    1.000
    O25      O        0.18670    0.06570    0.84190    1.000
    O26      O        0.08100    0.31420    0.81040    1.000
    O27      O        0.94050    0.09660    0.83170    1.000
    O28      O        0.07070    0.19820    0.01820    1.000
    Ga8      Ga       0.37134    0.40816    0.33895    1.000
    P8       P        0.57190    0.66635    0.37420    1.000
    O29      O        0.68670    0.56570    0.34190    1.000
    O30      O        0.58100    0.81420    0.31040    1.000
    O31      O        0.44050    0.59660    0.33170    1.000
    O32      O        0.57070    0.69820    0.51820    1.000
