# CIF file generated by openbabel 3.1.0, see https://openbabel.org
data_I
_chemical_name_common 'image0'
_cell_length_a 13.1451
_cell_length_b 31.9683
_cell_length_c 38.8933
_cell_angle_alpha 90
_cell_angle_beta 90
_cell_angle_gamma 90
_space_group_name_H-M_alt 'P 1'
_space_group_name_Hall 'P 1'
loop_
    _symmetry_equiv_pos_as_xyz
    x,y,z
loop_
    _atom_site_label
    _atom_site_type_symbol
    _atom_site_fract_x
    _atom_site_fract_y
    _atom_site_fract_z
    _atom_site_occupancy
    Zn1      Zn       0.40127    0.40996    0.92564    1.000
    Zn2      Zn       0.58418    0.34137    0.92783    1.000
    C1       C        0.01210    0.13850    0.73130    1.000
    C2       C        0.91930    0.14920    0.71660    1.000
    C3       C        0.87620    0.12370    0.69160    1.000
    H1       H        0.81410    0.13090    0.68180    1.000
    C4       C        0.92590    0.08740    0.68130    1.000
    C5       C        0.01870    0.07670    0.69600    1.000
    C6       C        0.06180    0.10220    0.72100    1.000
    C7       C        0.15640    0.09210    0.73480    1.000
    H2       H        0.18280    0.10860    0.75240    1.000
    C8       C        0.21370    0.05740    0.72300    1.000
    H3       H        0.27680    0.05120    0.73250    1.000
    C9       C        0.17180    0.03150    0.69550    1.000
    C10      C        0.07580    0.04210    0.68330    1.000
    H4       H        0.04750    0.02580    0.66600    1.000
    C11      C        0.05160    0.16740    0.76165    1.000
    C12      C        0.10380    0.20330    0.75183    1.000
    C13      C        0.15070    0.22810    0.77653    1.000
    H5       H        0.18570    0.25210    0.77000    1.000
    C14      C        0.14540    0.21700    0.81105    1.000
    C15      C        0.09320    0.18110    0.82086    1.000
    C16      C        0.04630    0.15631    0.79617    1.000
    C17      C        0.99380    0.12130    0.80750    1.000
    H6       H        0.96440    0.10400    0.79110    1.000
    C18      C        0.98280    0.11100    0.84040    1.000
    H7       H        0.94630    0.08710    0.84620    1.000
    C19      C        0.02610    0.13610    0.86680    1.000
    C20      C        0.08190    0.17100    0.85620    1.000
    H8       H        0.11250    0.18790    0.87270    1.000
    C21      C        0.20590    0.24400    0.83514    1.000
    C22      C        0.17710    0.28540    0.83999    1.000
    H9       H        0.11940    0.29580    0.82910    1.000
    C23      C        0.23470    0.31132    0.86110    1.000
    H10      H        0.21540    0.33900    0.86430    1.000
    C24      C        0.32100    0.29580    0.87734    1.000
    C25      C        0.34980    0.25440    0.87249    1.000
    H11      H        0.40750    0.24400    0.88340    1.000
    C26      C        0.29230    0.22848    0.85140    1.000
    H12      H        0.31150    0.20080    0.84810    1.000
    O1       O        0.47550    0.31200    0.90580    1.000
    O2       O        0.34670    0.35850    0.90580    1.000
    C27      C        0.01340    0.12750    0.90392    1.000
    C28      C        0.09400    0.13500    0.92618    1.000
    H13      H        0.15600    0.14440    0.91760    1.000
    C29      C        0.08220    0.12850    0.96128    1.000
    H14      H        0.13610    0.13360    0.97620    1.000
    C30      C        0.98960    0.11450    0.97414    1.000
    C31      C        0.90890    0.10690    0.95188    1.000
    H15      H        0.84700    0.09750    0.96050    1.000
    C32      C        0.92080    0.11340    0.91677    1.000
    H16      H        0.86680    0.10840    0.90190    1.000
    O3       O        0.04670    0.12920    0.03040    1.000
    O4       O        0.90940    0.09360    0.02430    1.000
    C33      C        0.87520    0.05940    0.65520    1.000
    C34      C        0.85500    0.07390    0.62220    1.000
    H17      H        0.87510    0.10070    0.61590    1.000
    C35      C        0.80480    0.04840    0.59880    1.000
    H18      H        0.79130    0.05820    0.57670    1.000
    C36      C        0.77480    0.00840    0.60830    1.000
    C37      C        0.79490    0.99380    0.64120    1.000
    H19      H        0.77490    0.96700    0.64760    1.000
    C38      C        0.84510    0.01930    0.66470    1.000
    H20      H        0.85860    0.00960    0.68680    1.000
    O5       O        0.35980    0.87880    0.60740    1.000
    O6       O        0.47980    0.92640    0.60270    1.000
    C39      C        0.23310    0.99880    0.67880    1.000
    C40      C        0.19190    0.96030    0.66980    1.000
    H21      H        0.12780    0.95270    0.67780    1.000
    C41      C        0.24650    0.93310    0.64890    1.000
    H22      H        0.21890    0.90730    0.64290    1.000
    C42      C        0.34220    0.94440    0.63700    1.000
    C43      C        0.38340    0.98290    0.64600    1.000
    H23      H        0.44750    0.99050    0.63800    1.000
    C44      C        0.32880    0.01010    0.66690    1.000
    H24      H        0.35640    0.03590    0.67290    1.000
    C45      C        0.72170    0.98110    0.58280    1.000
    C46      C        0.40140    0.91450    0.61250    1.000
    C47      C        0.38510    0.32470    0.89690    1.000
    C48      C        0.97330    0.11020    0.01140    1.000
    O7       O        0.72310    0.99180    0.55170    1.000
    O8       O        0.69770    0.94740    0.59310    1.000
    O9       O        0.87400    0.18800    0.72320    1.000
    O10      O        0.10720    0.21690    0.71800    1.000
    Ti1      Ti       0.18330    0.26810    0.69710    1.000
    O11      O        0.00000    0.29500    0.65500    1.000
    C49      C        0.09030    0.29410    0.63800    1.000
    H25      H        0.12100    0.26770    0.64560    1.000
    C50      C        0.16460    0.32730    0.65110    1.000
    H26      H        0.19780    0.31720    0.67150    1.000
    H27      H        0.12810    0.35250    0.65640    1.000
    H28      H        0.21460    0.33290    0.63370    1.000
    C51      C        0.08410    0.28920    0.59880    1.000
    H29      H        0.11290    0.26280    0.59230    1.000
    H30      H        0.12120    0.31150    0.58800    1.000
    H31      H        0.01420    0.29030    0.59170    1.000
    O12      O        0.13550    0.26280    0.65000    1.000
    C52      C        0.16450    0.22550    0.63640    1.000
    H32      H        0.21690    0.21570    0.65240    1.000
    C53      C        0.22220    0.23060    0.60250    1.000
    H33      H        0.17760    0.24210    0.58540    1.000
    H34      H        0.24650    0.20380    0.59490    1.000
    H35      H        0.27910    0.24900    0.60590    1.000
    C54      C        0.08460    0.19050    0.63730    1.000
    H36      H        0.09560    0.17340    0.65720    1.000
    H37      H        0.09060    0.17370    0.61690    1.000
    H38      H        0.01790    0.20270    0.63820    1.000
    Zn3      Zn       0.90127    0.90996    0.42564    1.000
    Zn4      Zn       0.08418    0.84137    0.42783    1.000
    C55      C        0.51210    0.63850    0.23130    1.000
    C56      C        0.41930    0.64920    0.21660    1.000
    C57      C        0.37620    0.62370    0.19160    1.000
    H39      H        0.31410    0.63090    0.18180    1.000
    C58      C        0.42590    0.58740    0.18130    1.000
    C59      C        0.51870    0.57670    0.19600    1.000
    C60      C        0.56180    0.60220    0.22100    1.000
    C61      C        0.65640    0.59210    0.23480    1.000
    H40      H        0.68280    0.60860    0.25240    1.000
    C62      C        0.71370    0.55740    0.22300    1.000
    H41      H        0.77680    0.55120    0.23250    1.000
    C63      C        0.67180    0.53150    0.19550    1.000
    C64      C        0.57580    0.54210    0.18330    1.000
    H42      H        0.54750    0.52580    0.16600    1.000
    C65      C        0.55160    0.66740    0.26165    1.000
    C66      C        0.60380    0.70330    0.25183    1.000
    C67      C        0.65070    0.72810    0.27653    1.000
    H43      H        0.68570    0.75210    0.27000    1.000
    C68      C        0.64540    0.71700    0.31105    1.000
    C69      C        0.59320    0.68110    0.32086    1.000
    C70      C        0.54630    0.65631    0.29617    1.000
    C71      C        0.49380    0.62130    0.30750    1.000
    H44      H        0.46440    0.60400    0.29110    1.000
    C72      C        0.48280    0.61100    0.34040    1.000
    H45      H        0.44630    0.58710    0.34620    1.000
    C73      C        0.52610    0.63610    0.36680    1.000
    C74      C        0.58190    0.67100    0.35620    1.000
    H46      H        0.61250    0.68790    0.37270    1.000
    C75      C        0.70590    0.74400    0.33514    1.000
    C76      C        0.67710    0.78540    0.33999    1.000
    H47      H        0.61940    0.79580    0.32910    1.000
    C77      C        0.73470    0.81132    0.36110    1.000
    H48      H        0.71540    0.83900    0.36430    1.000
    C78      C        0.82100    0.79580    0.37734    1.000
    C79      C        0.84980    0.75440    0.37249    1.000
    H49      H        0.90750    0.74400    0.38340    1.000
    C80      C        0.79230    0.72848    0.35140    1.000
    H50      H        0.81150    0.70080    0.34810    1.000
    O13      O        0.97550    0.81200    0.40580    1.000
    O14      O        0.84670    0.85850    0.40580    1.000
    C81      C        0.51340    0.62750    0.40392    1.000
    C82      C        0.59400    0.63500    0.42618    1.000
    H51      H        0.65600    0.64440    0.41760    1.000
    C83      C        0.58220    0.62850    0.46128    1.000
    H52      H        0.63610    0.63360    0.47620    1.000
    C84      C        0.48960    0.61450    0.47414    1.000
    C85      C        0.40890    0.60690    0.45188    1.000
    H53      H        0.34700    0.59750    0.46050    1.000
    C86      C        0.42080    0.61340    0.41677    1.000
    H54      H        0.36680    0.60840    0.40190    1.000
    O15      O        0.54670    0.62920    0.53040    1.000
    O16      O        0.40940    0.59360    0.52430    1.000
    C87      C        0.37520    0.55940    0.15520    1.000
    C88      C        0.35500    0.57390    0.12220    1.000
    H55      H        0.37510    0.60070    0.11590    1.000
    C89      C        0.30480    0.54840    0.09880    1.000
    H56      H        0.29130    0.55820    0.07670    1.000
    C90      C        0.27480    0.50840    0.10830    1.000
    C91      C        0.29490    0.49380    0.14120    1.000
    H57      H        0.27490    0.46700    0.14760    1.000
    C92      C        0.34510    0.51930    0.16470    1.000
    H58      H        0.35860    0.50960    0.18680    1.000
    O17      O        0.85980    0.37880    0.10740    1.000
    O18      O        0.97980    0.42640    0.10270    1.000
    C93      C        0.73310    0.49880    0.17880    1.000
    C94      C        0.69190    0.46030    0.16980    1.000
    H59      H        0.62780    0.45270    0.17780    1.000
    C95      C        0.74650    0.43310    0.14890    1.000
    H60      H        0.71890    0.40730    0.14290    1.000
    C96      C        0.84220    0.44440    0.13700    1.000
    C97      C        0.88340    0.48290    0.14600    1.000
    H61      H        0.94750    0.49050    0.13800    1.000
    C98      C        0.82880    0.51010    0.16690    1.000
    H62      H        0.85640    0.53590    0.17290    1.000
    C99      C        0.22170    0.48110    0.08280    1.000
    C100     C        0.90140    0.41450    0.11250    1.000
    C101     C        0.88510    0.82470    0.39690    1.000
    C102     C        0.47330    0.61020    0.51140    1.000
    O19      O        0.22310    0.49180    0.05170    1.000
    O20      O        0.19770    0.44740    0.09310    1.000
    O21      O        0.37400    0.68800    0.22320    1.000
    O22      O        0.60720    0.71690    0.21800    1.000
    Ti2      Ti       0.68330    0.76810    0.19710    1.000
    O23      O        0.50000    0.79500    0.15500    1.000
    C103     C        0.59030    0.79410    0.13800    1.000
    H63      H        0.62100    0.76770    0.14560    1.000
    C104     C        0.66460    0.82730    0.15110    1.000
    H64      H        0.69780    0.81720    0.17150    1.000
    H65      H        0.62810    0.85250    0.15640    1.000
    H66      H        0.71460    0.83290    0.13370    1.000
    C105     C        0.58410    0.78920    0.09880    1.000
    H67      H        0.61290    0.76280    0.09230    1.000
    H68      H        0.62120    0.81150    0.08800    1.000
    H69      H        0.51420    0.79030    0.09170    1.000
    O24      O        0.63550    0.76280    0.15000    1.000
    C106     C        0.66450    0.72550    0.13640    1.000
    H70      H        0.71690    0.71570    0.15240    1.000
    C107     C        0.72220    0.73060    0.10250    1.000
    H71      H        0.67760    0.74210    0.08540    1.000
    H72      H        0.74650    0.70380    0.09490    1.000
    H73      H        0.77910    0.74900    0.10590    1.000
    C108     C        0.58460    0.69050    0.13730    1.000
    H74      H        0.59560    0.67340    0.15720    1.000
    H75      H        0.59060    0.67370    0.11690    1.000
    H76      H        0.51790    0.70270    0.13820    1.000
    Zn5      Zn       0.09873    0.59004    0.42564    1.000
    Zn6      Zn       0.91582    0.65863    0.42783    1.000
    C109     C        0.48790    0.86150    0.23130    1.000
    C110     C        0.58070    0.85080    0.21660    1.000
    C111     C        0.62380    0.87630    0.19160    1.000
    H77      H        0.68590    0.86910    0.18180    1.000
    C112     C        0.57410    0.91260    0.18130    1.000
    C113     C        0.48130    0.92330    0.19600    1.000
    C114     C        0.43820    0.89780    0.22100    1.000
    C115     C        0.34360    0.90790    0.23480    1.000
    H78      H        0.31720    0.89140    0.25240    1.000
    C116     C        0.28630    0.94260    0.22300    1.000
    H79      H        0.22320    0.94880    0.23250    1.000
    C117     C        0.32820    0.96850    0.19550    1.000
    C118     C        0.42420    0.95790    0.18330    1.000
    H80      H        0.45250    0.97420    0.16600    1.000
    C119     C        0.44840    0.83260    0.26165    1.000
    C120     C        0.39620    0.79670    0.25183    1.000
    C121     C        0.34930    0.77190    0.27653    1.000
    H81      H        0.31430    0.74790    0.27000    1.000
    C122     C        0.35460    0.78300    0.31105    1.000
    C123     C        0.40680    0.81890    0.32086    1.000
    C124     C        0.45370    0.84369    0.29617    1.000
    C125     C        0.50620    0.87870    0.30750    1.000
    H82      H        0.53560    0.89600    0.29110    1.000
    C126     C        0.51720    0.88900    0.34040    1.000
    H83      H        0.55370    0.91290    0.34620    1.000
    C127     C        0.47390    0.86390    0.36680    1.000
    C128     C        0.41810    0.82900    0.35620    1.000
    H84      H        0.38750    0.81210    0.37270    1.000
    C129     C        0.29410    0.75600    0.33514    1.000
    C130     C        0.32290    0.71460    0.33999    1.000
    H85      H        0.38060    0.70420    0.32910    1.000
    C131     C        0.26530    0.68868    0.36110    1.000
    H86      H        0.28460    0.66100    0.36430    1.000
    C132     C        0.17900    0.70420    0.37734    1.000
    C133     C        0.15020    0.74560    0.37249    1.000
    H87      H        0.09250    0.75600    0.38340    1.000
    C134     C        0.20770    0.77152    0.35140    1.000
    H88      H        0.18850    0.79920    0.34810    1.000
    O25      O        0.02450    0.68800    0.40580    1.000
    O26      O        0.15330    0.64150    0.40580    1.000
    C135     C        0.48660    0.87250    0.40392    1.000
    C136     C        0.40600    0.86500    0.42618    1.000
    H89      H        0.34400    0.85560    0.41760    1.000
    C137     C        0.41780    0.87150    0.46128    1.000
    H90      H        0.36390    0.86640    0.47620    1.000
    C138     C        0.51040    0.88550    0.47414    1.000
    C139     C        0.59110    0.89310    0.45188    1.000
    H91      H        0.65300    0.90250    0.46050    1.000
    C140     C        0.57920    0.88660    0.41677    1.000
    H92      H        0.63320    0.89160    0.40190    1.000
    O27      O        0.45330    0.87080    0.53040    1.000
    O28      O        0.59060    0.90640    0.52430    1.000
    C141     C        0.62480    0.94060    0.15520    1.000
    C142     C        0.64500    0.92610    0.12220    1.000
    H93      H        0.62490    0.89930    0.11590    1.000
    C143     C        0.69520    0.95160    0.09880    1.000
    H94      H        0.70870    0.94180    0.07670    1.000
    C144     C        0.72520    0.99160    0.10830    1.000
    C145     C        0.70510    0.00620    0.14120    1.000
    H95      H        0.72510    0.03300    0.14760    1.000
    C146     C        0.65490    0.98070    0.16470    1.000
    H96      H        0.64140    0.99040    0.18680    1.000
    O29      O        0.14020    0.12120    0.10740    1.000
    O30      O        0.02020    0.07360    0.10270    1.000
    C147     C        0.26690    0.00120    0.17880    1.000
    C148     C        0.30810    0.03970    0.16980    1.000
    H97      H        0.37220    0.04730    0.17780    1.000
    C149     C        0.25350    0.06690    0.14890    1.000
    H98      H        0.28110    0.09270    0.14290    1.000
    C150     C        0.15780    0.05560    0.13700    1.000
    C151     C        0.11660    0.01710    0.14600    1.000
    H99      H        0.05250    0.00950    0.13800    1.000
    C152     C        0.17120    0.98990    0.16690    1.000
    H100     H        0.14360    0.96410    0.17290    1.000
    C153     C        0.77830    0.01890    0.08280    1.000
    C154     C        0.09860    0.08550    0.11250    1.000
    C155     C        0.11490    0.67530    0.39690    1.000
    C156     C        0.52670    0.88980    0.51140    1.000
    O31      O        0.77690    0.00820    0.05170    1.000
    O32      O        0.80230    0.05260    0.09310    1.000
    O33      O        0.62600    0.81200    0.22320    1.000
    O34      O        0.39280    0.78310    0.21800    1.000
    Ti3      Ti       0.31670    0.73190    0.19710    1.000
    O35      O        0.50000    0.70500    0.15500    1.000
    C157     C        0.40970    0.70590    0.13800    1.000
    H101     H        0.37900    0.73230    0.14560    1.000
    C158     C        0.33540    0.67270    0.15110    1.000
    H102     H        0.30220    0.68280    0.17150    1.000
    H103     H        0.37190    0.64750    0.15640    1.000
    H104     H        0.28540    0.66710    0.13370    1.000
    C159     C        0.41590    0.71080    0.09880    1.000
    H105     H        0.38710    0.73720    0.09230    1.000
    H106     H        0.37880    0.68850    0.08800    1.000
    H107     H        0.48580    0.70970    0.09170    1.000
    O36      O        0.36450    0.73720    0.15000    1.000
    C160     C        0.33550    0.77450    0.13640    1.000
    H108     H        0.28310    0.78430    0.15240    1.000
    C161     C        0.27780    0.76940    0.10250    1.000
    H109     H        0.32240    0.75790    0.08540    1.000
    H110     H        0.25350    0.79620    0.09490    1.000
    H111     H        0.22090    0.75100    0.10590    1.000
    C162     C        0.41540    0.80950    0.13730    1.000
    H112     H        0.40440    0.82660    0.15720    1.000
    H113     H        0.40940    0.82630    0.11690    1.000
    H114     H        0.48210    0.79730    0.13820    1.000
    Zn7      Zn       0.59873    0.09004    0.92564    1.000
    Zn8      Zn       0.41582    0.15863    0.92783    1.000
    C163     C        0.98790    0.36150    0.73130    1.000
    C164     C        0.08070    0.35080    0.71660    1.000
    C165     C        0.12380    0.37630    0.69160    1.000
    H115     H        0.18590    0.36910    0.68180    1.000
    C166     C        0.07410    0.41260    0.68130    1.000
    C167     C        0.98130    0.42330    0.69600    1.000
    C168     C        0.93820    0.39780    0.72100    1.000
    C169     C        0.84360    0.40790    0.73480    1.000
    H116     H        0.81720    0.39140    0.75240    1.000
    C170     C        0.78630    0.44260    0.72300    1.000
    H117     H        0.72320    0.44880    0.73250    1.000
    C171     C        0.82820    0.46850    0.69550    1.000
    C172     C        0.92420    0.45790    0.68330    1.000
    H118     H        0.95250    0.47420    0.66600    1.000
    C173     C        0.94840    0.33260    0.76165    1.000
    C174     C        0.89620    0.29670    0.75183    1.000
    C175     C        0.84930    0.27190    0.77653    1.000
    H119     H        0.81430    0.24790    0.77000    1.000
    C176     C        0.85460    0.28300    0.81105    1.000
    C177     C        0.90680    0.31890    0.82086    1.000
    C178     C        0.95370    0.34369    0.79617    1.000
    C179     C        0.00620    0.37870    0.80750    1.000
    H120     H        0.03560    0.39600    0.79110    1.000
    C180     C        0.01720    0.38900    0.84040    1.000
    H121     H        0.05370    0.41290    0.84620    1.000
    C181     C        0.97390    0.36390    0.86680    1.000
    C182     C        0.91810    0.32900    0.85620    1.000
    H122     H        0.88750    0.31210    0.87270    1.000
    C183     C        0.79410    0.25600    0.83514    1.000
    C184     C        0.82290    0.21460    0.83999    1.000
    H123     H        0.88060    0.20420    0.82910    1.000
    C185     C        0.76530    0.18868    0.86110    1.000
    H124     H        0.78460    0.16100    0.86430    1.000
    C186     C        0.67900    0.20420    0.87734    1.000
    C187     C        0.65020    0.24560    0.87249    1.000
    H125     H        0.59250    0.25600    0.88340    1.000
    C188     C        0.70770    0.27152    0.85140    1.000
    H126     H        0.68850    0.29920    0.84810    1.000
    O37      O        0.52450    0.18800    0.90580    1.000
    O38      O        0.65330    0.14150    0.90580    1.000
    C189     C        0.98660    0.37250    0.90392    1.000
    C190     C        0.90600    0.36500    0.92618    1.000
    H127     H        0.84400    0.35560    0.91760    1.000
    C191     C        0.91780    0.37150    0.96128    1.000
    H128     H        0.86390    0.36640    0.97620    1.000
    C192     C        0.01040    0.38550    0.97414    1.000
    C193     C        0.09110    0.39310    0.95188    1.000
    H129     H        0.15300    0.40250    0.96050    1.000
    C194     C        0.07920    0.38660    0.91677    1.000
    H130     H        0.13320    0.39160    0.90190    1.000
    O39      O        0.95330    0.37080    0.03040    1.000
    O40      O        0.09060    0.40640    0.02430    1.000
    C195     C        0.12480    0.44060    0.65520    1.000
    C196     C        0.14500    0.42610    0.62220    1.000
    H131     H        0.12490    0.39930    0.61590    1.000
    C197     C        0.19520    0.45160    0.59880    1.000
    H132     H        0.20870    0.44180    0.57670    1.000
    C198     C        0.22520    0.49160    0.60830    1.000
    C199     C        0.20510    0.50620    0.64120    1.000
    H133     H        0.22510    0.53300    0.64760    1.000
    C200     C        0.15490    0.48070    0.66470    1.000
    H134     H        0.14140    0.49040    0.68680    1.000
    O41      O        0.64020    0.62120    0.60740    1.000
    O42      O        0.52020    0.57360    0.60270    1.000
    C201     C        0.76690    0.50120    0.67880    1.000
    C202     C        0.80810    0.53970    0.66980    1.000
    H135     H        0.87220    0.54730    0.67780    1.000
    C203     C        0.75350    0.56690    0.64890    1.000
    H136     H        0.78110    0.59270    0.64290    1.000
    C204     C        0.65780    0.55560    0.63700    1.000
    C205     C        0.61660    0.51710    0.64600    1.000
    H137     H        0.55250    0.50950    0.63800    1.000
    C206     C        0.67120    0.48990    0.66690    1.000
    H138     H        0.64360    0.46410    0.67290    1.000
    C207     C        0.27830    0.51890    0.58280    1.000
    C208     C        0.59860    0.58550    0.61250    1.000
    C209     C        0.61490    0.17530    0.89690    1.000
    C210     C        0.02670    0.38980    0.01140    1.000
    O43      O        0.27690    0.50820    0.55170    1.000
    O44      O        0.30230    0.55260    0.59310    1.000
    O45      O        0.12600    0.31200    0.72320    1.000
    O46      O        0.89280    0.28310    0.71800    1.000
    Ti4      Ti       0.81670    0.23190    0.69710    1.000
    O47      O        0.00000    0.20500    0.65500    1.000
    C211     C        0.90970    0.20590    0.63800    1.000
    H139     H        0.87900    0.23230    0.64560    1.000
    C212     C        0.83540    0.17270    0.65110    1.000
    H140     H        0.80220    0.18280    0.67150    1.000
    H141     H        0.87190    0.14750    0.65640    1.000
    H142     H        0.78540    0.16710    0.63370    1.000
    C213     C        0.91590    0.21080    0.59880    1.000
    H143     H        0.88710    0.23720    0.59230    1.000
    H144     H        0.87880    0.18850    0.58800    1.000
    H145     H        0.98580    0.20970    0.59170    1.000
    O48      O        0.86450    0.23720    0.65000    1.000
    C214     C        0.83550    0.27450    0.63640    1.000
    H146     H        0.78310    0.28430    0.65240    1.000
    C215     C        0.77780    0.26940    0.60250    1.000
    H147     H        0.82240    0.25790    0.58540    1.000
    H148     H        0.75350    0.29620    0.59490    1.000
    H149     H        0.72090    0.25100    0.60590    1.000
    C216     C        0.91540    0.30950    0.63730    1.000
    H150     H        0.90440    0.32660    0.65720    1.000
    H151     H        0.90940    0.32630    0.61690    1.000
    H152     H        0.98210    0.29730    0.63820    1.000
    Zn9      Zn       0.59873    0.90996    0.57436    1.000
    Zn10     Zn       0.41582    0.84137    0.57217    1.000
    C217     C        0.98790    0.63850    0.76870    1.000
    C218     C        0.08070    0.64920    0.78340    1.000
    C219     C        0.12380    0.62370    0.80840    1.000
    H153     H        0.18590    0.63090    0.81820    1.000
    C220     C        0.07410    0.58740    0.81870    1.000
    C221     C        0.98130    0.57670    0.80400    1.000
    C222     C        0.93820    0.60220    0.77900    1.000
    C223     C        0.84360    0.59210    0.76520    1.000
    H154     H        0.81720    0.60860    0.74760    1.000
    C224     C        0.78630    0.55740    0.77700    1.000
    H155     H        0.72320    0.55120    0.76750    1.000
    C225     C        0.82820    0.53150    0.80450    1.000
    C226     C        0.92420    0.54210    0.81670    1.000
    H156     H        0.95250    0.52580    0.83400    1.000
    C227     C        0.94840    0.66740    0.73835    1.000
    C228     C        0.89620    0.70330    0.74817    1.000
    C229     C        0.84930    0.72810    0.72347    1.000
    H157     H        0.81430    0.75210    0.73000    1.000
    C230     C        0.85460    0.71700    0.68895    1.000
    C231     C        0.90680    0.68110    0.67914    1.000
    C232     C        0.95370    0.65631    0.70383    1.000
    C233     C        0.00620    0.62130    0.69250    1.000
    H158     H        0.03560    0.60400    0.70890    1.000
    C234     C        0.01720    0.61100    0.65960    1.000
    H159     H        0.05370    0.58710    0.65380    1.000
    C235     C        0.97390    0.63610    0.63320    1.000
    C236     C        0.91810    0.67100    0.64380    1.000
    H160     H        0.88750    0.68790    0.62730    1.000
    C237     C        0.79410    0.74400    0.66486    1.000
    C238     C        0.82290    0.78540    0.66001    1.000
    H161     H        0.88060    0.79580    0.67090    1.000
    C239     C        0.76530    0.81132    0.63890    1.000
    H162     H        0.78460    0.83900    0.63570    1.000
    C240     C        0.67900    0.79580    0.62266    1.000
    C241     C        0.65020    0.75440    0.62751    1.000
    H163     H        0.59250    0.74400    0.61660    1.000
    C242     C        0.70770    0.72848    0.64860    1.000
    H164     H        0.68850    0.70080    0.65190    1.000
    O49      O        0.52450    0.81200    0.59420    1.000
    O50      O        0.65330    0.85850    0.59420    1.000
    C243     C        0.98660    0.62750    0.59608    1.000
    C244     C        0.90600    0.63500    0.57382    1.000
    H165     H        0.84400    0.64440    0.58240    1.000
    C245     C        0.91780    0.62850    0.53872    1.000
    H166     H        0.86390    0.63360    0.52380    1.000
    C246     C        0.01040    0.61450    0.52586    1.000
    C247     C        0.09110    0.60690    0.54812    1.000
    H167     H        0.15300    0.59750    0.53950    1.000
    C248     C        0.07920    0.61340    0.58323    1.000
    H168     H        0.13320    0.60840    0.59810    1.000
    O51      O        0.95330    0.62920    0.46960    1.000
    O52      O        0.09060    0.59360    0.47570    1.000
    C249     C        0.12480    0.55940    0.84480    1.000
    C250     C        0.14500    0.57390    0.87780    1.000
    H169     H        0.12490    0.60070    0.88410    1.000
    C251     C        0.19520    0.54840    0.90120    1.000
    H170     H        0.20870    0.55820    0.92330    1.000
    C252     C        0.22520    0.50840    0.89170    1.000
    C253     C        0.20510    0.49380    0.85880    1.000
    H171     H        0.22510    0.46700    0.85240    1.000
    C254     C        0.15490    0.51930    0.83530    1.000
    H172     H        0.14140    0.50960    0.81320    1.000
    O53      O        0.64020    0.37880    0.89260    1.000
    O54      O        0.52020    0.42640    0.89730    1.000
    C255     C        0.76690    0.49880    0.82120    1.000
    C256     C        0.80810    0.46030    0.83020    1.000
    H173     H        0.87220    0.45270    0.82220    1.000
    C257     C        0.75350    0.43310    0.85110    1.000
    H174     H        0.78110    0.40730    0.85710    1.000
    C258     C        0.65780    0.44440    0.86300    1.000
    C259     C        0.61660    0.48290    0.85400    1.000
    H175     H        0.55250    0.49050    0.86200    1.000
    C260     C        0.67120    0.51010    0.83310    1.000
    H176     H        0.64360    0.53590    0.82710    1.000
    C261     C        0.27830    0.48110    0.91720    1.000
    C262     C        0.59860    0.41450    0.88750    1.000
    C263     C        0.61490    0.82470    0.60310    1.000
    C264     C        0.02670    0.61020    0.48860    1.000
    O55      O        0.27690    0.49180    0.94830    1.000
    O56      O        0.30230    0.44740    0.90690    1.000
    O57      O        0.12600    0.68800    0.77680    1.000
    O58      O        0.89280    0.71690    0.78200    1.000
    Ti5      Ti       0.81670    0.76810    0.80290    1.000
    O59      O        0.00000    0.79500    0.84500    1.000
    C265     C        0.90970    0.79410    0.86200    1.000
    H177     H        0.87900    0.76770    0.85440    1.000
    C266     C        0.83540    0.82730    0.84890    1.000
    H178     H        0.80220    0.81720    0.82850    1.000
    H179     H        0.87190    0.85250    0.84360    1.000
    H180     H        0.78540    0.83290    0.86630    1.000
    C267     C        0.91590    0.78920    0.90120    1.000
    H181     H        0.88710    0.76280    0.90770    1.000
    H182     H        0.87880    0.81150    0.91200    1.000
    H183     H        0.98580    0.79030    0.90830    1.000
    O60      O        0.86450    0.76280    0.85000    1.000
    C268     C        0.83550    0.72550    0.86360    1.000
    H184     H        0.78310    0.71570    0.84760    1.000
    C269     C        0.77780    0.73060    0.89750    1.000
    H185     H        0.82240    0.74210    0.91460    1.000
    H186     H        0.75350    0.70380    0.90510    1.000
    H187     H        0.72090    0.74900    0.89410    1.000
    C270     C        0.91540    0.69050    0.86270    1.000
    H188     H        0.90440    0.67340    0.84280    1.000
    H189     H        0.90940    0.67370    0.88310    1.000
    H190     H        0.98210    0.70270    0.86180    1.000
    Zn11     Zn       0.09873    0.40996    0.07436    1.000
    Zn12     Zn       0.91582    0.34137    0.07217    1.000
    C271     C        0.48790    0.13850    0.26870    1.000
    C272     C        0.58070    0.14920    0.28340    1.000
    C273     C        0.62380    0.12370    0.30840    1.000
    H191     H        0.68590    0.13090    0.31820    1.000
    C274     C        0.57410    0.08740    0.31870    1.000
    C275     C        0.48130    0.07670    0.30400    1.000
    C276     C        0.43820    0.10220    0.27900    1.000
    C277     C        0.34360    0.09210    0.26520    1.000
    H192     H        0.31720    0.10860    0.24760    1.000
    C278     C        0.28630    0.05740    0.27700    1.000
    H193     H        0.22320    0.05120    0.26750    1.000
    C279     C        0.32820    0.03150    0.30450    1.000
    C280     C        0.42420    0.04210    0.31670    1.000
    H194     H        0.45250    0.02580    0.33400    1.000
    C281     C        0.44840    0.16740    0.23835    1.000
    C282     C        0.39620    0.20330    0.24817    1.000
    C283     C        0.34930    0.22810    0.22347    1.000
    H195     H        0.31430    0.25210    0.23000    1.000
    C284     C        0.35460    0.21700    0.18895    1.000
    C285     C        0.40680    0.18110    0.17914    1.000
    C286     C        0.45370    0.15631    0.20383    1.000
    C287     C        0.50620    0.12130    0.19250    1.000
    H196     H        0.53560    0.10400    0.20890    1.000
    C288     C        0.51720    0.11100    0.15960    1.000
    H197     H        0.55370    0.08710    0.15380    1.000
    C289     C        0.47390    0.13610    0.13320    1.000
    C290     C        0.41810    0.17100    0.14380    1.000
    H198     H        0.38750    0.18790    0.12730    1.000
    C291     C        0.29410    0.24400    0.16486    1.000
    C292     C        0.32290    0.28540    0.16001    1.000
    H199     H        0.38060    0.29580    0.17090    1.000
    C293     C        0.26530    0.31132    0.13890    1.000
    H200     H        0.28460    0.33900    0.13570    1.000
    C294     C        0.17900    0.29580    0.12266    1.000
    C295     C        0.15020    0.25440    0.12751    1.000
    H201     H        0.09250    0.24400    0.11660    1.000
    C296     C        0.20770    0.22848    0.14860    1.000
    H202     H        0.18850    0.20080    0.15190    1.000
    O61      O        0.02450    0.31200    0.09420    1.000
    O62      O        0.15330    0.35850    0.09420    1.000
    C297     C        0.48660    0.12750    0.09608    1.000
    C298     C        0.40600    0.13500    0.07382    1.000
    H203     H        0.34400    0.14440    0.08240    1.000
    C299     C        0.41780    0.12850    0.03872    1.000
    H204     H        0.36390    0.13360    0.02380    1.000
    C300     C        0.51040    0.11450    0.02586    1.000
    C301     C        0.59110    0.10690    0.04812    1.000
    H205     H        0.65300    0.09750    0.03950    1.000
    C302     C        0.57920    0.11340    0.08323    1.000
    H206     H        0.63320    0.10840    0.09810    1.000
    O63      O        0.45330    0.12920    0.96960    1.000
    O64      O        0.59060    0.09360    0.97570    1.000
    C303     C        0.62480    0.05940    0.34480    1.000
    C304     C        0.64500    0.07390    0.37780    1.000
    H207     H        0.62490    0.10070    0.38410    1.000
    C305     C        0.69520    0.04840    0.40120    1.000
    H208     H        0.70870    0.05820    0.42330    1.000
    C306     C        0.72520    0.00840    0.39170    1.000
    C307     C        0.70510    0.99380    0.35880    1.000
    H209     H        0.72510    0.96700    0.35240    1.000
    C308     C        0.65490    0.01930    0.33530    1.000
    H210     H        0.64140    0.00960    0.31320    1.000
    O65      O        0.14020    0.87880    0.39260    1.000
    O66      O        0.02020    0.92640    0.39730    1.000
    C309     C        0.26690    0.99880    0.32120    1.000
    C310     C        0.30810    0.96030    0.33020    1.000
    H211     H        0.37220    0.95270    0.32220    1.000
    C311     C        0.25350    0.93310    0.35110    1.000
    H212     H        0.28110    0.90730    0.35710    1.000
    C312     C        0.15780    0.94440    0.36300    1.000
    C313     C        0.11660    0.98290    0.35400    1.000
    H213     H        0.05250    0.99050    0.36200    1.000
    C314     C        0.17120    0.01010    0.33310    1.000
    H214     H        0.14360    0.03590    0.32710    1.000
    C315     C        0.77830    0.98110    0.41720    1.000
    C316     C        0.09860    0.91450    0.38750    1.000
    C317     C        0.11490    0.32470    0.10310    1.000
    C318     C        0.52670    0.11020    0.98860    1.000
    O67      O        0.77690    0.99180    0.44830    1.000
    O68      O        0.80230    0.94740    0.40690    1.000
    O69      O        0.62600    0.18800    0.27680    1.000
    O70      O        0.39280    0.21690    0.28200    1.000
    Ti6      Ti       0.31670    0.26810    0.30290    1.000
    O71      O        0.50000    0.29500    0.34500    1.000
    C319     C        0.40970    0.29410    0.36200    1.000
    H215     H        0.37900    0.26770    0.35440    1.000
    C320     C        0.33540    0.32730    0.34890    1.000
    H216     H        0.30220    0.31720    0.32850    1.000
    H217     H        0.37190    0.35250    0.34360    1.000
    H218     H        0.28540    0.33290    0.36630    1.000
    C321     C        0.41590    0.28920    0.40120    1.000
    H219     H        0.38710    0.26280    0.40770    1.000
    H220     H        0.37880    0.31150    0.41200    1.000
    H221     H        0.48580    0.29030    0.40830    1.000
    O72      O        0.36450    0.26280    0.35000    1.000
    C322     C        0.33550    0.22550    0.36360    1.000
    H222     H        0.28310    0.21570    0.34760    1.000
    C323     C        0.27780    0.23060    0.39750    1.000
    H223     H        0.32240    0.24210    0.41460    1.000
    H224     H        0.25350    0.20380    0.40510    1.000
    H225     H        0.22090    0.24900    0.39410    1.000
    C324     C        0.41540    0.19050    0.36270    1.000
    H226     H        0.40440    0.17340    0.34280    1.000
    H227     H        0.40940    0.17370    0.38310    1.000
    H228     H        0.48210    0.20270    0.36180    1.000
    Zn13     Zn       0.90127    0.09004    0.07436    1.000
    Zn14     Zn       0.08418    0.15863    0.07217    1.000
    C325     C        0.51210    0.36150    0.26870    1.000
    C326     C        0.41930    0.35080    0.28340    1.000
    C327     C        0.37620    0.37630    0.30840    1.000
    H229     H        0.31410    0.36910    0.31820    1.000
    C328     C        0.42590    0.41260    0.31870    1.000
    C329     C        0.51870    0.42330    0.30400    1.000
    C330     C        0.56180    0.39780    0.27900    1.000
    C331     C        0.65640    0.40790    0.26520    1.000
    H230     H        0.68280    0.39140    0.24760    1.000
    C332     C        0.71370    0.44260    0.27700    1.000
    H231     H        0.77680    0.44880    0.26750    1.000
    C333     C        0.67180    0.46850    0.30450    1.000
    C334     C        0.57580    0.45790    0.31670    1.000
    H232     H        0.54750    0.47420    0.33400    1.000
    C335     C        0.55160    0.33260    0.23835    1.000
    C336     C        0.60380    0.29670    0.24817    1.000
    C337     C        0.65070    0.27190    0.22347    1.000
    H233     H        0.68570    0.24790    0.23000    1.000
    C338     C        0.64540    0.28300    0.18895    1.000
    C339     C        0.59320    0.31890    0.17914    1.000
    C340     C        0.54630    0.34369    0.20383    1.000
    C341     C        0.49380    0.37870    0.19250    1.000
    H234     H        0.46440    0.39600    0.20890    1.000
    C342     C        0.48280    0.38900    0.15960    1.000
    H235     H        0.44630    0.41290    0.15380    1.000
    C343     C        0.52610    0.36390    0.13320    1.000
    C344     C        0.58190    0.32900    0.14380    1.000
    H236     H        0.61250    0.31210    0.12730    1.000
    C345     C        0.70590    0.25600    0.16486    1.000
    C346     C        0.67710    0.21460    0.16001    1.000
    H237     H        0.61940    0.20420    0.17090    1.000
    C347     C        0.73470    0.18868    0.13890    1.000
    H238     H        0.71540    0.16100    0.13570    1.000
    C348     C        0.82100    0.20420    0.12266    1.000
    C349     C        0.84980    0.24560    0.12751    1.000
    H239     H        0.90750    0.25600    0.11660    1.000
    C350     C        0.79230    0.27152    0.14860    1.000
    H240     H        0.81150    0.29920    0.15190    1.000
    O73      O        0.97550    0.18800    0.09420    1.000
    O74      O        0.84670    0.14150    0.09420    1.000
    C351     C        0.51340    0.37250    0.09608    1.000
    C352     C        0.59400    0.36500    0.07382    1.000
    H241     H        0.65600    0.35560    0.08240    1.000
    C353     C        0.58220    0.37150    0.03872    1.000
    H242     H        0.63610    0.36640    0.02380    1.000
    C354     C        0.48960    0.38550    0.02586    1.000
    C355     C        0.40890    0.39310    0.04812    1.000
    H243     H        0.34700    0.40250    0.03950    1.000
    C356     C        0.42080    0.38660    0.08323    1.000
    H244     H        0.36680    0.39160    0.09810    1.000
    O75      O        0.54670    0.37080    0.96960    1.000
    O76      O        0.40940    0.40640    0.97570    1.000
    C357     C        0.37520    0.44060    0.34480    1.000
    C358     C        0.35500    0.42610    0.37780    1.000
    H245     H        0.37510    0.39930    0.38410    1.000
    C359     C        0.30480    0.45160    0.40120    1.000
    H246     H        0.29130    0.44180    0.42330    1.000
    C360     C        0.27480    0.49160    0.39170    1.000
    C361     C        0.29490    0.50620    0.35880    1.000
    H247     H        0.27490    0.53300    0.35240    1.000
    C362     C        0.34510    0.48070    0.33530    1.000
    H248     H        0.35860    0.49040    0.31320    1.000
    O77      O        0.85980    0.62120    0.39260    1.000
    O78      O        0.97980    0.57360    0.39730    1.000
    C363     C        0.73310    0.50120    0.32120    1.000
    C364     C        0.69190    0.53970    0.33020    1.000
    H249     H        0.62780    0.54730    0.32220    1.000
    C365     C        0.74650    0.56690    0.35110    1.000
    H250     H        0.71890    0.59270    0.35710    1.000
    C366     C        0.84220    0.55560    0.36300    1.000
    C367     C        0.88340    0.51710    0.35400    1.000
    H251     H        0.94750    0.50950    0.36200    1.000
    C368     C        0.82880    0.48990    0.33310    1.000
    H252     H        0.85640    0.46410    0.32710    1.000
    C369     C        0.22170    0.51890    0.41720    1.000
    C370     C        0.90140    0.58550    0.38750    1.000
    C371     C        0.88510    0.17530    0.10310    1.000
    C372     C        0.47330    0.38980    0.98860    1.000
    O79      O        0.22310    0.50820    0.44830    1.000
    O80      O        0.19770    0.55260    0.40690    1.000
    O81      O        0.37400    0.31200    0.27680    1.000
    O82      O        0.60720    0.28310    0.28200    1.000
    Ti7      Ti       0.68330    0.23190    0.30290    1.000
    O83      O        0.50000    0.20500    0.34500    1.000
    C373     C        0.59030    0.20590    0.36200    1.000
    H253     H        0.62100    0.23230    0.35440    1.000
    C374     C        0.66460    0.17270    0.34890    1.000
    H254     H        0.69780    0.18280    0.32850    1.000
    H255     H        0.62810    0.14750    0.34360    1.000
    H256     H        0.71460    0.16710    0.36630    1.000
    C375     C        0.58410    0.21080    0.40120    1.000
    H257     H        0.61290    0.23720    0.40770    1.000
    H258     H        0.62120    0.18850    0.41200    1.000
    H259     H        0.51420    0.20970    0.40830    1.000
    O84      O        0.63550    0.23720    0.35000    1.000
    C376     C        0.66450    0.27450    0.36360    1.000
    H260     H        0.71690    0.28430    0.34760    1.000
    C377     C        0.72220    0.26940    0.39750    1.000
    H261     H        0.67760    0.25790    0.41460    1.000
    H262     H        0.74650    0.29620    0.40510    1.000
    H263     H        0.77910    0.25100    0.39410    1.000
    C378     C        0.58460    0.30950    0.36270    1.000
    H264     H        0.59560    0.32660    0.34280    1.000
    H265     H        0.59060    0.32630    0.38310    1.000
    H266     H        0.51790    0.29730    0.36180    1.000
    Zn15     Zn       0.40127    0.59004    0.57436    1.000
    Zn16     Zn       0.58418    0.65863    0.57217    1.000
    C379     C        0.01210    0.86150    0.76870    1.000
    C380     C        0.91930    0.85080    0.78340    1.000
    C381     C        0.87620    0.87630    0.80840    1.000
    H267     H        0.81410    0.86910    0.81820    1.000
    C382     C        0.92590    0.91260    0.81870    1.000
    C383     C        0.01870    0.92330    0.80400    1.000
    C384     C        0.06180    0.89780    0.77900    1.000
    C385     C        0.15640    0.90790    0.76520    1.000
    H268     H        0.18280    0.89140    0.74760    1.000
    C386     C        0.21370    0.94260    0.77700    1.000
    H269     H        0.27680    0.94880    0.76750    1.000
    C387     C        0.17180    0.96850    0.80450    1.000
    C388     C        0.07580    0.95790    0.81670    1.000
    H270     H        0.04750    0.97420    0.83400    1.000
    C389     C        0.05160    0.83260    0.73835    1.000
    C390     C        0.10380    0.79670    0.74817    1.000
    C391     C        0.15070    0.77190    0.72347    1.000
    H271     H        0.18570    0.74790    0.73000    1.000
    C392     C        0.14540    0.78300    0.68895    1.000
    C393     C        0.09320    0.81890    0.67914    1.000
    C394     C        0.04630    0.84369    0.70383    1.000
    C395     C        0.99380    0.87870    0.69250    1.000
    H272     H        0.96440    0.89600    0.70890    1.000
    C396     C        0.98280    0.88900    0.65960    1.000
    H273     H        0.94630    0.91290    0.65380    1.000
    C397     C        0.02610    0.86390    0.63320    1.000
    C398     C        0.08190    0.82900    0.64380    1.000
    H274     H        0.11250    0.81210    0.62730    1.000
    C399     C        0.20590    0.75600    0.66486    1.000
    C400     C        0.17710    0.71460    0.66001    1.000
    H275     H        0.11940    0.70420    0.67090    1.000
    C401     C        0.23470    0.68868    0.63890    1.000
    H276     H        0.21540    0.66100    0.63570    1.000
    C402     C        0.32100    0.70420    0.62266    1.000
    C403     C        0.34980    0.74560    0.62751    1.000
    H277     H        0.40750    0.75600    0.61660    1.000
    C404     C        0.29230    0.77152    0.64860    1.000
    H278     H        0.31150    0.79920    0.65190    1.000
    O85      O        0.47550    0.68800    0.59420    1.000
    O86      O        0.34670    0.64150    0.59420    1.000
    C405     C        0.01340    0.87250    0.59608    1.000
    C406     C        0.09400    0.86500    0.57382    1.000
    H279     H        0.15600    0.85560    0.58240    1.000
    C407     C        0.08220    0.87150    0.53872    1.000
    H280     H        0.13610    0.86640    0.52380    1.000
    C408     C        0.98960    0.88550    0.52586    1.000
    C409     C        0.90890    0.89310    0.54812    1.000
    H281     H        0.84700    0.90250    0.53950    1.000
    C410     C        0.92080    0.88660    0.58323    1.000
    H282     H        0.86680    0.89160    0.59810    1.000
    O87      O        0.04670    0.87080    0.46960    1.000
    O88      O        0.90940    0.90640    0.47570    1.000
    C411     C        0.87520    0.94060    0.84480    1.000
    C412     C        0.85500    0.92610    0.87780    1.000
    H283     H        0.87510    0.89930    0.88410    1.000
    C413     C        0.80480    0.95160    0.90120    1.000
    H284     H        0.79130    0.94180    0.92330    1.000
    C414     C        0.77480    0.99160    0.89170    1.000
    C415     C        0.79490    0.00620    0.85880    1.000
    H285     H        0.77490    0.03300    0.85240    1.000
    C416     C        0.84510    0.98070    0.83530    1.000
    H286     H        0.85860    0.99040    0.81320    1.000
    O89      O        0.35980    0.12120    0.89260    1.000
    O90      O        0.47980    0.07360    0.89730    1.000
    C417     C        0.23310    0.00120    0.82120    1.000
    C418     C        0.19190    0.03970    0.83020    1.000
    H287     H        0.12780    0.04730    0.82220    1.000
    C419     C        0.24650    0.06690    0.85110    1.000
    H288     H        0.21890    0.09270    0.85710    1.000
    C420     C        0.34220    0.05560    0.86300    1.000
    C421     C        0.38340    0.01710    0.85400    1.000
    H289     H        0.44750    0.00950    0.86200    1.000
    C422     C        0.32880    0.98990    0.83310    1.000
    H290     H        0.35640    0.96410    0.82710    1.000
    C423     C        0.72170    0.01890    0.91720    1.000
    C424     C        0.40140    0.08550    0.88750    1.000
    C425     C        0.38510    0.67530    0.60310    1.000
    C426     C        0.97330    0.88980    0.48860    1.000
    O91      O        0.72310    0.00820    0.94830    1.000
    O92      O        0.69770    0.05260    0.90690    1.000
    O93      O        0.87400    0.81200    0.77680    1.000
    O94      O        0.10720    0.78310    0.78200    1.000
    Ti8      Ti       0.18330    0.73190    0.80290    1.000
    O95      O        0.00000    0.70500    0.84500    1.000
    C427     C        0.09030    0.70590    0.86200    1.000
    H291     H        0.12100    0.73230    0.85440    1.000
    C428     C        0.16460    0.67270    0.84890    1.000
    H292     H        0.19780    0.68280    0.82850    1.000
    H293     H        0.12810    0.64750    0.84360    1.000
    H294     H        0.21460    0.66710    0.86630    1.000
    C429     C        0.08410    0.71080    0.90120    1.000
    H295     H        0.11290    0.73720    0.90770    1.000
    H296     H        0.12120    0.68850    0.91200    1.000
    H297     H        0.01420    0.70970    0.90830    1.000
    O96      O        0.13550    0.73720    0.85000    1.000
    C430     C        0.16450    0.77450    0.86360    1.000
    H298     H        0.21690    0.78430    0.84760    1.000
    C431     C        0.22220    0.76940    0.89750    1.000
    H299     H        0.17760    0.75790    0.91460    1.000
    H300     H        0.24650    0.79620    0.90510    1.000
    H301     H        0.27910    0.75100    0.89410    1.000
    C432     C        0.08460    0.80950    0.86270    1.000
    H302     H        0.09560    0.82660    0.84280    1.000
    H303     H        0.09060    0.82630    0.88310    1.000
    H304     H        0.01790    0.79730    0.86180    1.000
    Ti9      Ti       0.00000    0.25000    0.69090    1.000
    Ti10     Ti       0.50000    0.75000    0.19090    1.000
    Ti11     Ti       0.00000    0.75000    0.80910    1.000
    Ti12     Ti       0.50000    0.25000    0.30910    1.000
