data_functionalizedCrystal
_audit_creation_method	'EQeq! by Chris Wilmer'
_symmetry_space_group_name_H-M	'P1'
_symmetry_Int_Tables_number	1
_symmetry_cell_setting	triclinic
loop_
_symmetry_equiv_pos_as_xyz
  x,y,z
_cell_length_a	13.717
_cell_length_b	14.7878
_cell_length_c	21.0282
_cell_angle_alpha	90
_cell_angle_beta	90
_cell_angle_gamma	90
loop_
_atom_site_label
_atom_site_type_symbol
_atom_site_fract_x
_atom_site_fract_y
_atom_site_fract_z
_atom_site_charge
Mof_Co	Co	0.53092	0.90024	0.56194	1.17
Mof_Co	Co	0.46908	0.40024	0.93806	1.171
Mof_Co	Co	0.46908	0.09976	0.43806	1.17
Mof_Co	Co	0.53092	0.59976	0.06194	1.171
Mof_H 	H 	0.3489	0.9677	0.6338	-0.005
Mof_H 	H 	0.1828	0.9707	0.6292	0.094
Mof_H 	H 	0.1972	0.825	0.4677	0.105
Mof_H 	H 	0.3632	0.8251	0.4777	-0.007
Mof_H 	H 	0.693	0.9716	0.6488	0.007
Mof_H 	H 	0.8588	0.9821	0.6586	0.087
Mof_H 	H 	0.884	0.8583	0.4891	0.094
Mof_H 	H 	0.7176	0.8522	0.4842	0.007
Mof_H 	H 	0.0389	0.8675	0.5034	0.087
Mof_H 	H 	0.0221	0.9556	0.6185	0.045
Mof_H 	H 	0.5171	0.6377	0.6774	0.1
Mof_H 	H 	0.5303	0.7771	0.7649	0.053
Mof_H 	H 	0.5295	0.7307	0.8751	0.137
Mof_H 	H 	0.5079	0.5888	0.791	0.022
Mof_H 	H 	0.6511	0.4677	0.8662	-0.003
Mof_H 	H 	0.8172	0.4707	0.8708	0.093
Mof_H 	H 	0.8028	0.325	0.0323	0.101
Mof_H 	H 	0.6368	0.3251	0.0223	-0.007
Mof_H 	H 	0.307	0.4716	0.8512	0.005
Mof_H 	H 	0.1412	0.4821	0.8414	0.088
Mof_H 	H 	0.116	0.3583	0.0109	0.097
Mof_H 	H 	0.2824	0.3522	0.0158	0.005
Mof_H 	H 	0.9611	0.3675	0.9966	0.082
Mof_H 	H 	0.9779	0.4556	0.8815	0.057
Mof_H 	H 	0.4829	0.1377	0.8226	0.101
Mof_H 	H 	0.4697	0.2771	0.7351	0.053
Mof_H 	H 	0.4705	0.2307	0.6249	0.137
Mof_H 	H 	0.4921	0.0888	0.709	0.023
Mof_H 	H 	0.6511	0.0323	0.3662	-0.005
Mof_H 	H 	0.8172	0.0293	0.3708	0.094
Mof_H 	H 	0.8028	0.175	0.5323	0.105
Mof_H 	H 	0.6368	0.1749	0.5223	-0.007
Mof_H 	H 	0.307	0.0284	0.3512	0.007
Mof_H 	H 	0.1412	0.0179	0.3414	0.087
Mof_H 	H 	0.116	0.1417	0.5109	0.094
Mof_H 	H 	0.2824	0.1478	0.5158	0.007
Mof_H 	H 	0.9611	0.1325	0.4966	0.087
Mof_H 	H 	0.9779	0.0444	0.3815	0.045
Mof_H 	H 	0.4829	0.3623	0.3226	0.1
Mof_H 	H 	0.4697	0.2229	0.2351	0.053
Mof_H 	H 	0.4705	0.2693	0.1249	0.137
Mof_H 	H 	0.4921	0.4112	0.209	0.022
Mof_H 	H 	0.3489	0.5323	0.1338	-0.003
Mof_H 	H 	0.1828	0.5293	0.1292	0.093
Mof_H 	H 	0.1972	0.675	0.9677	0.101
Mof_H 	H 	0.3632	0.6749	0.9777	-0.007
Mof_H 	H 	0.693	0.5284	0.1488	0.005
Mof_H 	H 	0.8588	0.5179	0.1586	0.088
Mof_H 	H 	0.884	0.6417	0.9891	0.097
Mof_H 	H 	0.7176	0.6478	0.9842	0.005
Mof_H 	H 	0.0389	0.6325	0.0034	0.082
Mof_H 	H 	0.0221	0.5444	0.1185	0.057
Mof_H 	H 	0.5171	0.8623	0.1774	0.101
Mof_H 	H 	0.5303	0.7229	0.2649	0.053
Mof_H 	H 	0.5295	0.7693	0.3751	0.137
Mof_H 	H 	0.5079	0.9112	0.291	0.023
Mof_C 	C 	0.3179	0.9386	0.5996	0.102
Mof_C 	C 	0.2182	0.9406	0.5973	-0.182
Mof_C 	C 	0.1691	0.8978	0.5475	0.144
Mof_C 	C 	0.2264	0.8547	0.5023	-0.186
Mof_C 	C 	0.3262	0.8557	0.5086	0.103
Mof_C 	C 	0.7322	0.9479	0.6161	0.092
Mof_C 	C 	0.8317	0.9547	0.6223	-0.158
Mof_C 	C 	0.8924	0.9211	0.5748	0.106
Mof_C 	C 	0.8467	0.8821	0.5227	-0.159
Mof_C 	C 	0.7466	0.8783	0.5203	0.089
Mof_C 	C 	0.0634	0.8947	0.5405	-0.123
Mof_C 	C 	0.9981	0.9269	0.5819	-0.053
Mof_C 	C 	0.5264	0.7694	0.6412	0.334
Mof_C 	C 	0.5217	0.6983	0.6904	-0.184
Mof_C 	C 	0.5236	0.7163	0.7527	-0.016
Mof_C 	C 	0.5118	0.602	0.9159	0.462
Mof_C 	C 	0.5205	0.6698	0.8637	-0.272
Mof_C 	C 	0.5162	0.6497	0.8026	0.07
Mof_C 	C 	0.6821	0.4386	0.9004	0.099
Mof_C 	C 	0.7818	0.4406	0.9027	-0.176
Mof_C 	C 	0.8309	0.3978	0.9525	0.134
Mof_C 	C 	0.7736	0.3547	0.9977	-0.177
Mof_C 	C 	0.6738	0.3557	0.9914	0.1
Mof_C 	C 	0.2678	0.4479	0.8839	0.095
Mof_C 	C 	0.1683	0.4547	0.8777	-0.165
Mof_C 	C 	0.1076	0.4211	0.9252	0.118
Mof_C 	C 	0.1533	0.3821	0.9773	-0.168
Mof_C 	C 	0.2534	0.3783	0.9797	0.094
Mof_C 	C 	0.9366	0.3947	0.9595	-0.102
Mof_C 	C 	0.0019	0.4269	0.9181	-0.08
Mof_C 	C 	0.4736	0.2694	0.8588	0.334
Mof_C 	C 	0.4783	0.1983	0.8096	-0.184
Mof_C 	C 	0.4764	0.2163	0.7473	-0.015
Mof_C 	C 	0.4882	0.102	0.5841	0.462
Mof_C 	C 	0.4795	0.1698	0.6363	-0.271
Mof_C 	C 	0.4838	0.1497	0.6974	0.07
Mof_C 	C 	0.6821	0.0614	0.4004	0.102
Mof_C 	C 	0.7818	0.0594	0.4027	-0.182
Mof_C 	C 	0.8309	0.1022	0.4525	0.144
Mof_C 	C 	0.7736	0.1453	0.4977	-0.186
Mof_C 	C 	0.6738	0.1443	0.4914	0.103
Mof_C 	C 	0.2678	0.0521	0.3839	0.092
Mof_C 	C 	0.1683	0.0453	0.3777	-0.158
Mof_C 	C 	0.1076	0.0789	0.4252	0.106
Mof_C 	C 	0.1533	0.1179	0.4773	-0.159
Mof_C 	C 	0.2534	0.1217	0.4797	0.089
Mof_C 	C 	0.9366	0.1053	0.4595	-0.123
Mof_C 	C 	0.0019	0.0731	0.4181	-0.053
Mof_C 	C 	0.4736	0.2306	0.3588	0.334
Mof_C 	C 	0.4783	0.3017	0.3096	-0.184
Mof_C 	C 	0.4764	0.2837	0.2473	-0.016
Mof_C 	C 	0.4882	0.398	0.0841	0.462
Mof_C 	C 	0.4795	0.3302	0.1363	-0.272
Mof_C 	C 	0.4838	0.3503	0.1974	0.07
Mof_C 	C 	0.3179	0.5614	0.0996	0.099
Mof_C 	C 	0.2182	0.5594	0.0973	-0.176
Mof_C 	C 	0.1691	0.6022	0.0475	0.134
Mof_C 	C 	0.2264	0.6453	0.0023	-0.177
Mof_C 	C 	0.3262	0.6443	0.0086	0.1
Mof_C 	C 	0.7322	0.5521	0.1161	0.095
Mof_C 	C 	0.8317	0.5453	0.1223	-0.165
Mof_C 	C 	0.8924	0.5789	0.0748	0.118
Mof_C 	C 	0.8467	0.6179	0.0227	-0.168
Mof_C 	C 	0.7466	0.6217	0.0203	0.094
Mof_C 	C 	0.0634	0.6053	0.0405	-0.102
Mof_C 	C 	0.9981	0.5731	0.0819	-0.08
Mof_C 	C 	0.5264	0.7306	0.1412	0.334
Mof_C 	C 	0.5217	0.8017	0.1904	-0.184
Mof_C 	C 	0.5236	0.7837	0.2527	-0.015
Mof_C 	C 	0.5118	0.898	0.4159	0.462
Mof_C 	C 	0.5205	0.8302	0.3637	-0.271
Mof_C 	C 	0.5162	0.8503	0.3026	0.07
Mof_N 	N 	0.3743	0.8975	0.55577	-0.241
Mof_N 	N 	0.6879	0.9096	0.56612	-0.226
Mof_N 	N 	0.6257	0.3975	0.94423	-0.239
Mof_N 	N 	0.3121	0.4096	0.93388	-0.228
Mof_N 	N 	0.6257	0.1025	0.44423	-0.241
Mof_N 	N 	0.3121	0.0904	0.43388	-0.226
Mof_N 	N 	0.3743	0.6025	0.05577	-0.239
Mof_N 	N 	0.6879	0.5904	0.06612	-0.228
Mof_O 	O 	0.5259	0.8523	0.6576	-0.377
Mof_O 	O 	0.5295	0.7489	0.58352	-0.372
Mof_O 	O 	0.5444	0.6271	0.96885	-0.48
Mof_O 	O 	0.4735	0.5279	0.90312	-0.471
Mof_O 	O 	0.4741	0.3523	0.8424	-0.377
Mof_O 	O 	0.4705	0.2489	0.91648	-0.371
Mof_O 	O 	0.4556	0.1271	0.53115	-0.48
Mof_O 	O 	0.5265	0.0279	0.59688	-0.471
Mof_O 	O 	0.4741	0.1477	0.3424	-0.377
Mof_O 	O 	0.4705	0.2511	0.41648	-0.372
Mof_O 	O 	0.4556	0.3729	0.03115	-0.48
Mof_O 	O 	0.5265	0.4721	0.09688	-0.471
Mof_O 	O 	0.5259	0.6477	0.1576	-0.377
Mof_O 	O 	0.5295	0.7511	0.08352	-0.371
Mof_O 	O 	0.5444	0.8729	0.46885	-0.48
Mof_O 	O 	0.4735	0.9721	0.40312	-0.471
Mof_Co	Co	0.96908	0.09976	0.06194	1.168
Mof_Co	Co	0.03092	0.59976	0.43806	1.17
Mof_Co	Co	0.03092	0.90024	0.93806	1.168
Mof_Co	Co	0.96908	0.40024	0.56194	1.17
Mof_H 	H 	0.1511	0.0323	0.1338	-0.003
Mof_H 	H 	0.3172	0.0293	0.1292	0.093
Mof_H 	H 	0.3028	0.175	0.9677	0.105
Mof_H 	H 	0.1368	0.1749	0.9777	-0.005
Mof_H 	H 	0.807	0.0284	0.1488	0.004
Mof_H 	H 	0.6412	0.0179	0.1586	0.087
Mof_H 	H 	0.616	0.1417	0.9891	0.098
Mof_H 	H 	0.7824	0.1478	0.9842	0.008
Mof_H 	H 	0.4611	0.1325	0.0034	0.082
Mof_H 	H 	0.4779	0.0444	0.1185	0.056
Mof_H 	H 	0.9829	0.3623	0.1774	0.101
Mof_H 	H 	0.9697	0.2229	0.2649	0.053
Mof_H 	H 	0.9705	0.2693	0.3751	0.136
Mof_H 	H 	0.9921	0.4112	0.291	0.023
Mof_H 	H 	0.8489	0.5323	0.3662	-0.003
Mof_H 	H 	0.6828	0.5293	0.3708	0.093
Mof_H 	H 	0.6972	0.675	0.5323	0.103
Mof_H 	H 	0.8632	0.6749	0.5223	-0.006
Mof_H 	H 	0.193	0.5284	0.3512	0.006
Mof_H 	H 	0.3588	0.5179	0.3414	0.088
Mof_H 	H 	0.384	0.6417	0.5109	0.096
Mof_H 	H 	0.2176	0.6478	0.5158	0.006
Mof_H 	H 	0.5389	0.6325	0.4966	0.082
Mof_H 	H 	0.5221	0.5444	0.3815	0.055
Mof_H 	H 	0.0171	0.8623	0.3226	0.1
Mof_H 	H 	0.0303	0.7229	0.2351	0.053
Mof_H 	H 	0.0295	0.7693	0.1249	0.136
Mof_H 	H 	0.0079	0.9112	0.209	0.022
Mof_H 	H 	0.8489	0.9677	0.8662	-0.003
Mof_H 	H 	0.6828	0.9707	0.8708	0.093
Mof_H 	H 	0.6972	0.825	0.0323	0.105
Mof_H 	H 	0.8632	0.8251	0.0223	-0.005
Mof_H 	H 	0.193	0.9716	0.8512	0.004
Mof_H 	H 	0.3588	0.9821	0.8414	0.087
Mof_H 	H 	0.384	0.8583	0.0109	0.098
Mof_H 	H 	0.2176	0.8522	0.0158	0.008
Mof_H 	H 	0.5389	0.8675	0.9966	0.082
Mof_H 	H 	0.5221	0.9556	0.8815	0.056
Mof_H 	H 	0.0171	0.6377	0.8226	0.101
Mof_H 	H 	0.0303	0.7771	0.7351	0.053
Mof_H 	H 	0.0295	0.7307	0.6249	0.136
Mof_H 	H 	0.0079	0.5888	0.709	0.023
Mof_H 	H 	0.1511	0.4677	0.6338	-0.003
Mof_H 	H 	0.3172	0.4707	0.6292	0.093
Mof_H 	H 	0.3028	0.325	0.4677	0.103
Mof_H 	H 	0.1368	0.3251	0.4777	-0.006
Mof_H 	H 	0.807	0.4716	0.6488	0.006
Mof_H 	H 	0.6412	0.4821	0.6586	0.088
Mof_H 	H 	0.616	0.3583	0.4891	0.096
Mof_H 	H 	0.7824	0.3522	0.4842	0.006
Mof_H 	H 	0.4611	0.3675	0.5034	0.082
Mof_H 	H 	0.4779	0.4556	0.6185	0.055
Mof_H 	H 	0.9829	0.1377	0.6774	0.1
Mof_H 	H 	0.9697	0.2771	0.7649	0.053
Mof_H 	H 	0.9705	0.2307	0.8751	0.136
Mof_H 	H 	0.9921	0.0888	0.791	0.022
Mof_C 	C 	0.1821	0.0614	0.0996	0.1
Mof_C 	C 	0.2818	0.0594	0.0973	-0.177
Mof_C 	C 	0.3309	0.1022	0.0475	0.136
Mof_C 	C 	0.2736	0.1453	0.0023	-0.181
Mof_C 	C 	0.1738	0.1443	0.0086	0.1
Mof_C 	C 	0.7678	0.0521	0.1161	0.094
Mof_C 	C 	0.6683	0.0453	0.1223	-0.165
Mof_C 	C 	0.6076	0.0789	0.0748	0.117
Mof_C 	C 	0.6533	0.1179	0.0227	-0.168
Mof_C 	C 	0.7534	0.1217	0.0203	0.089
Mof_C 	C 	0.4366	0.1053	0.0405	-0.104
Mof_C 	C 	0.5019	0.0731	0.0819	-0.078
Mof_C 	C 	0.9736	0.2306	0.1412	0.334
Mof_C 	C 	0.9783	0.3017	0.1904	-0.185
Mof_C 	C 	0.9764	0.2837	0.2527	-0.015
Mof_C 	C 	0.9882	0.398	0.4159	0.461
Mof_C 	C 	0.9795	0.3302	0.3637	-0.271
Mof_C 	C 	0.9838	0.3503	0.3026	0.069
Mof_C 	C 	0.8179	0.5614	0.4004	0.099
Mof_C 	C 	0.7182	0.5594	0.4027	-0.177
Mof_C 	C 	0.6691	0.6022	0.4525	0.136
Mof_C 	C 	0.7264	0.6453	0.4977	-0.18
Mof_C 	C 	0.8262	0.6443	0.4914	0.1
Mof_C 	C 	0.2322	0.5521	0.3839	0.095
Mof_C 	C 	0.3317	0.5453	0.3777	-0.164
Mof_C 	C 	0.3924	0.5789	0.4252	0.116
Mof_C 	C 	0.3467	0.6179	0.4773	-0.166
Mof_C 	C 	0.2466	0.6217	0.4797	0.092
Mof_C 	C 	0.5634	0.6053	0.4595	-0.104
Mof_C 	C 	0.4981	0.5731	0.4181	-0.077
Mof_C 	C 	0.0264	0.7306	0.3588	0.334
Mof_C 	C 	0.0217	0.8017	0.3096	-0.185
Mof_C 	C 	0.0236	0.7837	0.2473	-0.015
Mof_C 	C 	0.0118	0.898	0.0841	0.456
Mof_C 	C 	0.0205	0.8302	0.1363	-0.269
Mof_C 	C 	0.0162	0.8503	0.1974	0.068
Mof_C 	C 	0.8179	0.9386	0.9004	0.1
Mof_C 	C 	0.7182	0.9406	0.9027	-0.177
Mof_C 	C 	0.6691	0.8978	0.9525	0.136
Mof_C 	C 	0.7264	0.8547	0.9977	-0.181
Mof_C 	C 	0.8262	0.8557	0.9914	0.1
Mof_C 	C 	0.2322	0.9479	0.8839	0.094
Mof_C 	C 	0.3317	0.9547	0.8777	-0.165
Mof_C 	C 	0.3924	0.9211	0.9252	0.117
Mof_C 	C 	0.3467	0.8821	0.9773	-0.168
Mof_C 	C 	0.2466	0.8783	0.9797	0.089
Mof_C 	C 	0.5634	0.8947	0.9595	-0.104
Mof_C 	C 	0.4981	0.9269	0.9181	-0.078
Mof_C 	C 	0.0264	0.7694	0.8588	0.334
Mof_C 	C 	0.0217	0.6983	0.8096	-0.185
Mof_C 	C 	0.0236	0.7163	0.7473	-0.015
Mof_C 	C 	0.0118	0.602	0.5841	0.461
Mof_C 	C 	0.0205	0.6698	0.6363	-0.271
Mof_C 	C 	0.0162	0.6497	0.6974	0.069
Mof_C 	C 	0.1821	0.4386	0.5996	0.099
Mof_C 	C 	0.2818	0.4406	0.5973	-0.177
Mof_C 	C 	0.3309	0.3978	0.5475	0.136
Mof_C 	C 	0.2736	0.3547	0.5023	-0.18
Mof_C 	C 	0.1738	0.3557	0.5086	0.1
Mof_C 	C 	0.7678	0.4479	0.6161	0.095
Mof_C 	C 	0.6683	0.4547	0.6223	-0.164
Mof_C 	C 	0.6076	0.4211	0.5748	0.116
Mof_C 	C 	0.6533	0.3821	0.5227	-0.166
Mof_C 	C 	0.7534	0.3783	0.5203	0.092
Mof_C 	C 	0.4366	0.3947	0.5405	-0.104
Mof_C 	C 	0.5019	0.4269	0.5819	-0.077
Mof_C 	C 	0.9736	0.2694	0.6412	0.334
Mof_C 	C 	0.9783	0.1983	0.6904	-0.185
Mof_C 	C 	0.9764	0.2163	0.7527	-0.015
Mof_C 	C 	0.9882	0.102	0.9159	0.456
Mof_C 	C 	0.9795	0.1698	0.8637	-0.269
Mof_C 	C 	0.9838	0.1497	0.8026	0.068
Mof_N 	N 	0.1257	0.1025	0.05577	-0.238
Mof_N 	N 	0.8121	0.0904	0.06612	-0.228
Mof_N 	N 	0.8743	0.6025	0.44423	-0.239
Mof_N 	N 	0.1879	0.5904	0.43388	-0.227
Mof_N 	N 	0.8743	0.8975	0.94423	-0.238
Mof_N 	N 	0.1879	0.9096	0.93388	-0.228
Mof_N 	N 	0.1257	0.3975	0.55577	-0.239
Mof_N 	N 	0.8121	0.4096	0.56612	-0.227
Mof_O 	O 	0.9741	0.1477	0.1576	-0.379
Mof_O 	O 	0.9705	0.2511	0.08352	-0.373
Mof_O 	O 	0.9556	0.3729	0.46885	-0.48
Mof_O 	O 	0.0265	0.4721	0.40312	-0.469
Mof_O 	O 	0.0259	0.6477	0.3424	-0.377
Mof_O 	O 	0.0295	0.7511	0.41648	-0.373
Mof_O 	O 	0.0444	0.8729	0.03115	-0.478
Mof_O 	O 	0.9735	0.9721	0.09688	-0.464
Mof_O 	O 	0.0259	0.8523	0.8424	-0.379
Mof_O 	O 	0.0295	0.7489	0.91648	-0.373
Mof_O 	O 	0.0444	0.6271	0.53115	-0.48
Mof_O 	O 	0.9735	0.5279	0.59688	-0.469
Mof_O 	O 	0.9741	0.3523	0.6576	-0.377
Mof_O 	O 	0.9705	0.2489	0.58352	-0.373
Mof_O 	O 	0.9556	0.1271	0.96885	-0.478
Mof_O 	O 	0.0265	0.0279	0.90312	-0.464
_end
