data_functionalizedCrystal
_audit_creation_method	'EQeq! by Chris Wilmer'
_symmetry_space_group_name_H-M	'P1'
_symmetry_Int_Tables_number	1
_symmetry_cell_setting	triclinic
loop_
_symmetry_equiv_pos_as_xyz
  x,y,z
_cell_length_a	18.425
_cell_length_b	24.573
_cell_length_c	10.236
_cell_angle_alpha	90
_cell_angle_beta	90
_cell_angle_gamma	90
loop_
_atom_site_label
_atom_site_type_symbol
_atom_site_fract_x
_atom_site_fract_y
_atom_site_fract_z
_atom_site_charge
Mof_F 	F 	0.32403	0.73614	0.83244	-1.426
Mof_F 	F 	0.72177	0.7479	0.66966	-1.459
Mof_F 	F 	0.70045	0.81059	0.0816	-1.386
Mof_F 	F 	0.844	0.70127	0.5899	-1.274
Mof_Ga	Ga	0.68301	0.84851	0.90985	4.226
Mof_Ga	Ga	0.61784	0.74213	0.60406	4.423
Mof_Ga	Ga	0.42793	0.73399	0.89796	4.282
Mof_Ga	Ga	0.43752	0.94124	0.117	3.042
Mof_Ga	Ga	0.59041	0.93205	0.38503	3.497
Mof_Ga	Ga	0.73865	0.73441	0.07847	4.402
Mof_Ga	Ga	0.80815	0.7779	0.58217	4.516
Mof_Ga	Ga	0.8586	0.65747	0.39099	1.69
Mof_Ga	Ga	0.35705	0.83584	0.55185	1.446
Mof_P 	P 	0.83098	0.80193	0.87822	0.99
Mof_P 	P 	0.36453	0.85337	0.91651	0.986
Mof_P 	P 	0.60026	0.73544	0.89586	1.069
Mof_P 	P 	0.44601	0.7316	0.60423	1.037
Mof_P 	P 	0.67844	0.86282	0.59791	1.027
Mof_P 	P 	0.41924	0.93701	0.41643	1.017
Mof_P 	P 	0.60103	0.94001	0.08184	0.945
Mof_P 	P 	0.7155	0.71201	0.37503	0.992
Mof_O 	O 	0.526	0.72784	0.9594	-1.045
Mof_O 	O 	0.4462	0.70206	0.7371	-1.119
Mof_O 	O 	0.41963	0.80757	0.9383	-1.197
Mof_O 	O 	0.89744	0.8111	0.9665	-1.072
Mof_O 	O 	0.28563	0.83643	0.922	-1.022
Mof_O 	O 	0.78913	0.75123	0.9177	-1.172
Mof_O 	O 	0.65658	0.70801	0.9825	-1.043
Mof_O 	O 	0.6545	0.91166	0.9925	-1.078
Mof_O 	O 	0.85934	0.7953	0.7374	-1.046
Mof_O 	O 	0.78165	0.85263	0.8891	-1.146
Mof_O 	O 	0.66631	0.883	0.7375	-0.988
Mof_O 	O 	0.61455	0.79689	0.8718	-1.331
Mof_O 	O 	0.60183	0.70765	0.7604	-1.177
Mof_O 	O 	0.62457	0.81589	0.5659	-1.274
Mof_O 	O 	0.52145	0.73135	0.5412	-1.083
Mof_O 	O 	0.75804	0.8481	0.5732	-1.042
Mof_O 	O 	0.65971	0.90992	0.5033	-0.983
Mof_O 	O 	0.39271	0.70151	0.515	-1.041
Mof_O 	O 	0.75968	0.76103	0.4209	-1.17
Mof_O 	O 	0.42475	0.79149	0.6324	-1.126
Mof_O 	O 	0.37115	0.90474	0.5088	-0.896
Mof_O 	O 	0.76252	0.66033	0.377	-0.931
Mof_O 	O 	0.40632	0.99604	0.4496	-1.017
Mof_O 	O 	0.49758	0.91873	0.4363	-1.201
Mof_O 	O 	0.6314	0.94136	0.2204	-1.128
Mof_O 	O 	0.52676	0.9113	0.078	-1.105
Mof_O 	O 	0.39563	0.92422	0.2766	-1.015
Mof_O 	O 	0.59603	0.99808	0.0281	-0.984
Mof_O 	O 	0.68573	0.72151	0.2378	-0.998
Mof_O 	O 	0.37962	0.88013	0.7821	-0.645
Mof_O 	O 	0.37569	0.89434	0.0249	-0.853
Mof_O 	O 	0.6502	0.70132	0.464	-1.121
Mof_F 	F 	0.67597	0.26386	0.83244	-1.425
Mof_F 	F 	0.27823	0.2521	0.66966	-1.458
Mof_F 	F 	0.29955	0.18941	0.0816	-1.385
Mof_F 	F 	0.156	0.29873	0.5899	-1.273
Mof_Ga	Ga	0.31699	0.15149	0.90985	4.227
Mof_Ga	Ga	0.38216	0.25787	0.60406	4.424
Mof_Ga	Ga	0.57207	0.26601	0.89796	4.282
Mof_Ga	Ga	0.56248	0.05876	0.117	3.042
Mof_Ga	Ga	0.40959	0.06795	0.38503	3.497
Mof_Ga	Ga	0.26135	0.26559	0.07847	4.402
Mof_Ga	Ga	0.19185	0.2221	0.58217	4.516
Mof_Ga	Ga	0.1414	0.34253	0.39099	1.69
Mof_Ga	Ga	0.64295	0.16416	0.55185	1.446
Mof_P 	P 	0.16902	0.19807	0.87822	0.99
Mof_P 	P 	0.63547	0.14663	0.91651	0.986
Mof_P 	P 	0.39974	0.26456	0.89586	1.069
Mof_P 	P 	0.55399	0.2684	0.60423	1.037
Mof_P 	P 	0.32156	0.13718	0.59791	1.027
Mof_P 	P 	0.58076	0.06299	0.41643	1.017
Mof_P 	P 	0.39897	0.05999	0.08184	0.945
Mof_P 	P 	0.2845	0.28799	0.37503	0.992
Mof_O 	O 	0.474	0.27216	0.9594	-1.045
Mof_O 	O 	0.5538	0.29794	0.7371	-1.119
Mof_O 	O 	0.58037	0.19243	0.9383	-1.197
Mof_O 	O 	0.10256	0.1889	0.9665	-1.072
Mof_O 	O 	0.71437	0.16357	0.922	-1.022
Mof_O 	O 	0.21087	0.24877	0.9177	-1.172
Mof_O 	O 	0.34342	0.29199	0.9825	-1.043
Mof_O 	O 	0.3455	0.08834	0.9925	-1.078
Mof_O 	O 	0.14066	0.2047	0.7374	-1.046
Mof_O 	O 	0.21835	0.14737	0.8891	-1.146
Mof_O 	O 	0.33369	0.117	0.7375	-0.988
Mof_O 	O 	0.38545	0.20311	0.8718	-1.331
Mof_O 	O 	0.39817	0.29235	0.7604	-1.177
Mof_O 	O 	0.37543	0.18411	0.5659	-1.274
Mof_O 	O 	0.47855	0.26865	0.5412	-1.083
Mof_O 	O 	0.24196	0.1519	0.5732	-1.042
Mof_O 	O 	0.34029	0.09008	0.5033	-0.983
Mof_O 	O 	0.60729	0.29849	0.515	-1.041
Mof_O 	O 	0.24032	0.23897	0.4209	-1.17
Mof_O 	O 	0.57525	0.20851	0.6324	-1.126
Mof_O 	O 	0.62885	0.09526	0.5088	-0.896
Mof_O 	O 	0.23748	0.33967	0.377	-0.931
Mof_O 	O 	0.59368	0.00396	0.4496	-1.017
Mof_O 	O 	0.50242	0.08127	0.4363	-1.201
Mof_O 	O 	0.3686	0.05864	0.2204	-1.128
Mof_O 	O 	0.47324	0.0887	0.078	-1.105
Mof_O 	O 	0.60437	0.07578	0.2766	-1.015
Mof_O 	O 	0.40397	0.00192	0.0281	-0.984
Mof_O 	O 	0.31427	0.27849	0.2378	-0.998
Mof_O 	O 	0.62038	0.11987	0.7821	-0.645
Mof_O 	O 	0.62431	0.10566	0.0249	-0.853
Mof_O 	O 	0.3498	0.29868	0.464	-1.121
Mof_F 	F 	0.17597	0.23614	0.16756	-1.425
Mof_F 	F 	0.77823	0.2479	0.33034	-1.458
Mof_F 	F 	0.79955	0.31059	0.9184	-1.385
Mof_F 	F 	0.656	0.20127	0.4101	-1.273
Mof_Ga	Ga	0.81699	0.34851	0.09015	4.229
Mof_Ga	Ga	0.88216	0.24213	0.39594	4.424
Mof_Ga	Ga	0.07207	0.23399	0.10204	4.281
Mof_Ga	Ga	0.06248	0.44124	0.883	3.041
Mof_Ga	Ga	0.90959	0.43205	0.61497	3.499
Mof_Ga	Ga	0.76135	0.23441	0.92153	4.4
Mof_Ga	Ga	0.69185	0.2779	0.41783	4.516
Mof_Ga	Ga	0.6414	0.15747	0.60901	1.69
Mof_Ga	Ga	0.14295	0.33584	0.44815	1.446
Mof_P 	P 	0.66902	0.30193	0.12178	0.99
Mof_P 	P 	0.13547	0.35337	0.08349	0.987
Mof_P 	P 	0.89974	0.23544	0.10414	1.069
Mof_P 	P 	0.05399	0.2316	0.39577	1.036
Mof_P 	P 	0.82156	0.36282	0.40209	1.027
Mof_P 	P 	0.08076	0.43701	0.58357	1.017
Mof_P 	P 	0.89897	0.44001	0.91816	0.944
Mof_P 	P 	0.7845	0.21201	0.62497	0.992
Mof_O 	O 	0.974	0.22784	0.0406	-1.044
Mof_O 	O 	0.0538	0.20206	0.2629	-1.119
Mof_O 	O 	0.08037	0.30757	0.0617	-1.196
Mof_O 	O 	0.60256	0.3111	0.0335	-1.071
Mof_O 	O 	0.21437	0.33643	0.078	-1.022
Mof_O 	O 	0.71087	0.25123	0.0823	-1.171
Mof_O 	O 	0.84342	0.20801	0.0175	-1.042
Mof_O 	O 	0.8455	0.41166	0.0075	-1.077
Mof_O 	O 	0.64066	0.2953	0.2626	-1.046
Mof_O 	O 	0.71835	0.35263	0.1109	-1.146
Mof_O 	O 	0.83369	0.383	0.2625	-0.988
Mof_O 	O 	0.88545	0.29689	0.1282	-1.331
Mof_O 	O 	0.89817	0.20765	0.2396	-1.177
Mof_O 	O 	0.87543	0.31589	0.4341	-1.274
Mof_O 	O 	0.97855	0.23135	0.4588	-1.083
Mof_O 	O 	0.74196	0.3481	0.4268	-1.042
Mof_O 	O 	0.84029	0.40992	0.4967	-0.983
Mof_O 	O 	0.10729	0.20151	0.485	-1.041
Mof_O 	O 	0.74032	0.26103	0.5791	-1.17
Mof_O 	O 	0.07525	0.29149	0.3676	-1.126
Mof_O 	O 	0.12885	0.40474	0.4912	-0.896
Mof_O 	O 	0.73748	0.16033	0.623	-0.931
Mof_O 	O 	0.09368	0.49604	0.5504	-1.017
Mof_O 	O 	0.00242	0.41873	0.5637	-1.201
Mof_O 	O 	0.8686	0.44136	0.7796	-1.128
Mof_O 	O 	0.97324	0.4113	0.922	-1.105
Mof_O 	O 	0.10437	0.42422	0.7234	-1.015
Mof_O 	O 	0.90397	0.49808	0.9719	-0.983
Mof_O 	O 	0.81427	0.22151	0.7622	-0.998
Mof_O 	O 	0.12038	0.38013	0.2179	-0.645
Mof_O 	O 	0.12431	0.39434	0.9751	-0.854
Mof_O 	O 	0.8498	0.20132	0.536	-1.121
Mof_F 	F 	0.82403	0.76386	0.16756	-1.425
Mof_F 	F 	0.22177	0.7521	0.33034	-1.458
Mof_F 	F 	0.20045	0.68941	0.9184	-1.385
Mof_F 	F 	0.344	0.79873	0.4101	-1.273
Mof_Ga	Ga	0.18301	0.65149	0.09015	4.229
Mof_Ga	Ga	0.11784	0.75787	0.39594	4.424
Mof_Ga	Ga	0.92793	0.76601	0.10204	4.281
Mof_Ga	Ga	0.93752	0.55876	0.883	3.041
Mof_Ga	Ga	0.09041	0.56795	0.61497	3.499
Mof_Ga	Ga	0.23865	0.76559	0.92153	4.4
Mof_Ga	Ga	0.30815	0.7221	0.41783	4.516
Mof_Ga	Ga	0.3586	0.84253	0.60901	1.69
Mof_Ga	Ga	0.85705	0.66416	0.44815	1.446
Mof_P 	P 	0.33098	0.69807	0.12178	0.99
Mof_P 	P 	0.86453	0.64663	0.08349	0.987
Mof_P 	P 	0.10026	0.76456	0.10414	1.069
Mof_P 	P 	0.94601	0.7684	0.39577	1.036
Mof_P 	P 	0.17844	0.63718	0.40209	1.027
Mof_P 	P 	0.91924	0.56299	0.58357	1.017
Mof_P 	P 	0.10103	0.55999	0.91816	0.944
Mof_P 	P 	0.2155	0.78799	0.62497	0.992
Mof_O 	O 	0.026	0.77216	0.0406	-1.044
Mof_O 	O 	0.9462	0.79794	0.2629	-1.119
Mof_O 	O 	0.91963	0.69243	0.0617	-1.196
Mof_O 	O 	0.39744	0.6889	0.0335	-1.071
Mof_O 	O 	0.78563	0.66357	0.078	-1.022
Mof_O 	O 	0.28913	0.74877	0.0823	-1.171
Mof_O 	O 	0.15658	0.79199	0.0175	-1.042
Mof_O 	O 	0.1545	0.58834	0.0075	-1.077
Mof_O 	O 	0.35934	0.7047	0.2626	-1.046
Mof_O 	O 	0.28165	0.64737	0.1109	-1.146
Mof_O 	O 	0.16631	0.617	0.2625	-0.988
Mof_O 	O 	0.11455	0.70311	0.1282	-1.331
Mof_O 	O 	0.10183	0.79235	0.2396	-1.177
Mof_O 	O 	0.12457	0.68411	0.4341	-1.274
Mof_O 	O 	0.02145	0.76865	0.4588	-1.083
Mof_O 	O 	0.25804	0.6519	0.4268	-1.042
Mof_O 	O 	0.15971	0.59008	0.4967	-0.983
Mof_O 	O 	0.89271	0.79849	0.485	-1.041
Mof_O 	O 	0.25968	0.73897	0.5791	-1.17
Mof_O 	O 	0.92475	0.70851	0.3676	-1.126
Mof_O 	O 	0.87115	0.59526	0.4912	-0.896
Mof_O 	O 	0.26252	0.83967	0.623	-0.931
Mof_O 	O 	0.90632	0.50396	0.5504	-1.017
Mof_O 	O 	0.99758	0.58127	0.5637	-1.201
Mof_O 	O 	0.1314	0.55864	0.7796	-1.128
Mof_O 	O 	0.02676	0.5887	0.922	-1.105
Mof_O 	O 	0.89563	0.57578	0.7234	-1.015
Mof_O 	O 	0.09603	0.50192	0.9719	-0.983
Mof_O 	O 	0.18573	0.77849	0.7622	-0.998
Mof_O 	O 	0.87962	0.61987	0.2179	-0.645
Mof_O 	O 	0.87569	0.60566	0.9751	-0.854
Mof_O 	O 	0.1502	0.79868	0.536	-1.121
_end
