data_functionalizedCrystal
_audit_creation_method	'EQeq! by Chris Wilmer'
_symmetry_space_group_name_H-M	'P1'
_symmetry_Int_Tables_number	1
_symmetry_cell_setting	triclinic
loop_
_symmetry_equiv_pos_as_xyz
  x,y,z
_cell_length_a	25.8977
_cell_length_b	25.8977
_cell_length_c	6.846
_cell_angle_alpha	90
_cell_angle_beta	90
_cell_angle_gamma	120
loop_
_atom_site_label
_atom_site_type_symbol
_atom_site_fract_x
_atom_site_fract_y
_atom_site_fract_z
_atom_site_charge
Mof_Co	Co	0.3816	0.3488	0.133	1.162
Mof_O 	O 	0.326	0.2973	0.372	-0.585
Mof_O 	O 	0.3022	0.2275	0.6011	-0.45
Mof_O 	O 	0.3562	0.274	0.0047	-0.539
Mof_C 	C 	0.3165	0.247	0.4275	0.395
Mof_C 	C 	0.3302	0.2082	0.2879	-0.175
Mof_C 	C 	0.3473	0.2255	0.0891	0.203
Mof_C 	C 	0.3517	0.1809	0.9721	-0.07
Mof_H 	H 	0.3616	0.1928	0.826	0.067
Mof_Co	Co	0.04827	0.68213	0.46633	1.162
Mof_O 	O 	0.99267	0.63063	0.70533	-0.586
Mof_O 	O 	0.96887	0.56083	0.93443	-0.451
Mof_O 	O 	0.02287	0.60733	0.33803	-0.54
Mof_C 	C 	0.98317	0.58033	0.76083	0.394
Mof_C 	C 	0.99687	0.54153	0.62123	-0.176
Mof_C 	C 	0.01397	0.55883	0.42243	0.203
Mof_C 	C 	0.01837	0.51423	0.30543	-0.072
Mof_H 	H 	0.02827	0.52613	0.15933	0.066
Mof_Co	Co	0.71493	0.01547	0.79967	1.161
Mof_O 	O 	0.65933	0.96397	0.03867	-0.586
Mof_O 	O 	0.63553	0.89417	0.26777	-0.451
Mof_O 	O 	0.68953	0.94067	0.67137	-0.54
Mof_C 	C 	0.64983	0.91367	0.09417	0.394
Mof_C 	C 	0.66353	0.87487	0.95457	-0.177
Mof_C 	C 	0.68063	0.89217	0.75577	0.203
Mof_C 	C 	0.68503	0.84757	0.63877	-0.072
Mof_H 	H 	0.69493	0.85947	0.49267	0.066
Mof_Co	Co	0.6512	0.0328	0.133	1.161
Mof_O 	O 	0.7027	0.0287	0.372	-0.586
Mof_O 	O 	0.7725	0.0747	0.6011	-0.45
Mof_O 	O 	0.726	0.0822	0.0047	-0.54
Mof_C 	C 	0.753	0.0695	0.4275	0.394
Mof_C 	C 	0.7918	0.122	0.2879	-0.175
Mof_C 	C 	0.7745	0.1218	0.0891	0.202
Mof_C 	C 	0.8191	0.1708	0.9721	-0.07
Mof_H 	H 	0.8072	0.1688	0.826	0.066
Mof_Co	Co	0.31787	0.36613	0.46633	1.161
Mof_O 	O 	0.36937	0.36203	0.70533	-0.586
Mof_O 	O 	0.43917	0.40803	0.93443	-0.451
Mof_O 	O 	0.39267	0.41553	0.33803	-0.54
Mof_C 	C 	0.41967	0.40283	0.76083	0.394
Mof_C 	C 	0.45847	0.45533	0.62123	-0.176
Mof_C 	C 	0.44117	0.45513	0.42243	0.203
Mof_C 	C 	0.48577	0.50413	0.30543	-0.072
Mof_H 	H 	0.47387	0.50213	0.15933	0.066
Mof_Co	Co	0.98453	0.69947	0.79967	1.161
Mof_O 	O 	0.03603	0.69537	0.03867	-0.585
Mof_O 	O 	0.10583	0.74137	0.26777	-0.451
Mof_O 	O 	0.05933	0.74887	0.67137	-0.54
Mof_C 	C 	0.08633	0.73617	0.09417	0.395
Mof_C 	C 	0.12513	0.78867	0.95457	-0.177
Mof_C 	C 	0.10783	0.78847	0.75577	0.203
Mof_C 	C 	0.15243	0.83747	0.63877	-0.072
Mof_H 	H 	0.14053	0.83547	0.49267	0.067
Mof_Co	Co	0.9672	0.6184	0.133	1.161
Mof_O 	O 	0.9713	0.674	0.372	-0.586
Mof_O 	O 	0.9253	0.6978	0.6011	-0.451
Mof_O 	O 	0.9178	0.6438	0.0047	-0.54
Mof_C 	C 	0.9305	0.6835	0.4275	0.394
Mof_C 	C 	0.878	0.6698	0.2879	-0.176
Mof_C 	C 	0.8782	0.6527	0.0891	0.202
Mof_C 	C 	0.8292	0.6483	0.9721	-0.071
Mof_H 	H 	0.8312	0.6384	0.826	0.066
Mof_Co	Co	0.63387	0.95173	0.46633	1.161
Mof_O 	O 	0.63797	0.00733	0.70533	-0.586
Mof_O 	O 	0.59197	0.03113	0.93443	-0.451
Mof_O 	O 	0.58447	0.97713	0.33803	-0.54
Mof_C 	C 	0.59717	0.01683	0.76083	0.394
Mof_C 	C 	0.54467	0.00313	0.62123	-0.176
Mof_C 	C 	0.54487	0.98603	0.42243	0.203
Mof_C 	C 	0.49587	0.98163	0.30543	-0.072
Mof_H 	H 	0.49787	0.97173	0.15933	0.066
Mof_Co	Co	0.30053	0.28507	0.79967	1.161
Mof_O 	O 	0.30463	0.34067	0.03867	-0.586
Mof_O 	O 	0.25863	0.36447	0.26777	-0.451
Mof_O 	O 	0.25113	0.31047	0.67137	-0.54
Mof_C 	C 	0.26383	0.35017	0.09417	0.394
Mof_C 	C 	0.21133	0.33647	0.95457	-0.176
Mof_C 	C 	0.21153	0.31937	0.75577	0.203
Mof_C 	C 	0.16253	0.31497	0.63877	-0.072
Mof_H 	H 	0.16453	0.30507	0.49267	0.066
Mof_Co	Co	0.6184	0.6512	0.867	1.161
Mof_O 	O 	0.674	0.7027	0.628	-0.586
Mof_O 	O 	0.6978	0.7725	0.3989	-0.451
Mof_O 	O 	0.6438	0.726	0.9953	-0.54
Mof_C 	C 	0.6835	0.753	0.5725	0.394
Mof_C 	C 	0.6698	0.7918	0.7121	-0.176
Mof_C 	C 	0.6527	0.7745	0.9109	0.202
Mof_C 	C 	0.6483	0.8191	0.0279	-0.071
Mof_H 	H 	0.6384	0.8072	0.174	0.066
Mof_Co	Co	0.28507	0.98453	0.20033	1.161
Mof_O 	O 	0.34067	0.03603	0.96133	-0.586
Mof_O 	O 	0.36447	0.10583	0.73223	-0.451
Mof_O 	O 	0.31047	0.05933	0.32863	-0.54
Mof_C 	C 	0.35017	0.08633	0.90583	0.394
Mof_C 	C 	0.33647	0.12513	0.04543	-0.177
Mof_C 	C 	0.31937	0.10783	0.24423	0.203
Mof_C 	C 	0.31497	0.15243	0.36123	-0.072
Mof_H 	H 	0.30507	0.14053	0.50733	0.066
Mof_Co	Co	0.95173	0.31787	0.53367	1.161
Mof_O 	O 	0.00733	0.36937	0.29467	-0.586
Mof_O 	O 	0.03113	0.43917	0.06557	-0.451
Mof_O 	O 	0.97713	0.39267	0.66197	-0.54
Mof_C 	C 	0.01683	0.41967	0.23917	0.394
Mof_C 	C 	0.00313	0.45847	0.37877	-0.176
Mof_C 	C 	0.98603	0.44117	0.57757	0.203
Mof_C 	C 	0.98163	0.48577	0.69457	-0.072
Mof_H 	H 	0.97173	0.47387	0.84067	0.066
Mof_Co	Co	0.3488	0.9672	0.867	1.161
Mof_O 	O 	0.2973	0.9713	0.628	-0.586
Mof_O 	O 	0.2275	0.9253	0.3989	-0.45
Mof_O 	O 	0.274	0.9178	0.9953	-0.54
Mof_C 	C 	0.247	0.9305	0.5725	0.394
Mof_C 	C 	0.2082	0.878	0.7121	-0.175
Mof_C 	C 	0.2255	0.8782	0.9109	0.202
Mof_C 	C 	0.1809	0.8292	0.0279	-0.07
Mof_H 	H 	0.1928	0.8312	0.174	0.066
Mof_Co	Co	0.01547	0.30053	0.20033	1.161
Mof_O 	O 	0.96397	0.30463	0.96133	-0.585
Mof_O 	O 	0.89417	0.25863	0.73223	-0.451
Mof_O 	O 	0.94067	0.25113	0.32863	-0.54
Mof_C 	C 	0.91367	0.26383	0.90583	0.395
Mof_C 	C 	0.87487	0.21133	0.04543	-0.177
Mof_C 	C 	0.89217	0.21153	0.24423	0.203
Mof_C 	C 	0.84757	0.16253	0.36123	-0.072
Mof_H 	H 	0.85947	0.16453	0.50733	0.067
Mof_Co	Co	0.68213	0.63387	0.53367	1.161
Mof_O 	O 	0.63063	0.63797	0.29467	-0.586
Mof_O 	O 	0.56083	0.59197	0.06557	-0.451
Mof_O 	O 	0.60733	0.58447	0.66197	-0.54
Mof_C 	C 	0.58033	0.59717	0.23917	0.394
Mof_C 	C 	0.54153	0.54467	0.37877	-0.176
Mof_C 	C 	0.55883	0.54487	0.57757	0.203
Mof_C 	C 	0.51423	0.49587	0.69457	-0.072
Mof_H 	H 	0.52613	0.49787	0.84067	0.066
Mof_Co	Co	0.0328	0.3816	0.867	1.161
Mof_O 	O 	0.0287	0.326	0.628	-0.586
Mof_O 	O 	0.0747	0.3022	0.3989	-0.451
Mof_O 	O 	0.0822	0.3562	0.9953	-0.54
Mof_C 	C 	0.0695	0.3165	0.5725	0.394
Mof_C 	C 	0.122	0.3302	0.7121	-0.176
Mof_C 	C 	0.1218	0.3473	0.9109	0.202
Mof_C 	C 	0.1708	0.3517	0.0279	-0.071
Mof_H 	H 	0.1688	0.3616	0.174	0.066
Mof_Co	Co	0.69947	0.71493	0.20033	1.161
Mof_O 	O 	0.69537	0.65933	0.96133	-0.586
Mof_O 	O 	0.74137	0.63553	0.73223	-0.451
Mof_O 	O 	0.74887	0.68953	0.32863	-0.54
Mof_C 	C 	0.73617	0.64983	0.90583	0.394
Mof_C 	C 	0.78867	0.66353	0.04543	-0.176
Mof_C 	C 	0.78847	0.68063	0.24423	0.203
Mof_C 	C 	0.83747	0.68503	0.36123	-0.072
Mof_H 	H 	0.83547	0.69493	0.50733	0.066
Mof_Co	Co	0.36613	0.04827	0.53367	1.161
Mof_O 	O 	0.36203	0.99267	0.29467	-0.586
Mof_O 	O 	0.40803	0.96887	0.06557	-0.451
Mof_O 	O 	0.41553	0.02287	0.66197	-0.54
Mof_C 	C 	0.40283	0.98317	0.23917	0.394
Mof_C 	C 	0.45533	0.99687	0.37877	-0.176
Mof_C 	C 	0.45513	0.01397	0.57757	0.203
Mof_C 	C 	0.50413	0.01837	0.69457	-0.072
Mof_H 	H 	0.50213	0.02827	0.84067	0.066
_end
