data_functionalizedCrystal
_audit_creation_method	'EQeq! by Chris Wilmer'
_symmetry_space_group_name_H-M	'P1'
_symmetry_Int_Tables_number	1
_symmetry_cell_setting	triclinic
loop_
_symmetry_equiv_pos_as_xyz
  x,y,z
_cell_length_a	21.9302
_cell_length_b	16.7795
_cell_length_c	25.488
_cell_angle_alpha	90
_cell_angle_beta	115.029
_cell_angle_gamma	90
loop_
_atom_site_label
_atom_site_type_symbol
_atom_site_fract_x
_atom_site_fract_y
_atom_site_fract_z
_atom_site_charge
Mof_Ag	Ag	0.34423	0.45588	0.36631	0.525
Mof_Ag	Ag	0.32111	0.75773	0.86597	0.535
Mof_C 	C 	0.5976	0.9718	0.9986	0.1
Mof_C 	C 	0.0324	0.8091	0.4082	-0.149
Mof_H 	H 	0.0537	0.7878	0.3867	0.085
Mof_C 	C 	0.7762	0.1387	0.007	-0.132
Mof_H 	H 	0.7969	0.1347	0.0472	0.074
Mof_C 	C 	0.0597	0.7995	0.4671	0.067
Mof_C 	C 	0.2973	0.5833	0.5029	-0.139
Mof_H 	H 	0.3194	0.5873	0.543	0.087
Mof_C 	C 	0.1228	0.7556	0.4993	0.096
Mof_C 	C 	0.5035	0.8857	0.9939	-0.14
Mof_H 	H 	0.5232	0.8841	0.0341	0.088
Mof_C 	C 	0.5326	0.9279	0.9644	0.072
Mof_C 	C 	0.6815	0.0524	0.0044	0.093
Mof_C 	C 	0.2093	0.7251	0.5851	0.1
Mof_C 	C 	0.7137	0.1017	0.975	0.052
Mof_C 	C 	0.7196	0.1525	0.8898	0.063
Mof_H 	H 	0.7003	0.1564	0.8497	-0.025
Mof_C 	C 	0.4435	0.845	0.962	0.091
Mof_H 	H 	0.4241	0.8161	0.9822	-0.015
Mof_C 	C 	0.7117	0.9917	0.15	0.062
Mof_C 	C 	0.2348	0.6208	0.472	0.072
Mof_C 	C 	0.2357	0.5645	0.3867	0.087
Mof_H 	H 	0.2147	0.5586	0.3467	-0.011
Mof_C 	C 	0.2426	0.7363	0.6488	0.068
Mof_C 	C 	0.6787	0.9554	0.1792	-0.145
Mof_H 	H 	0.6349	0.9371	0.1589	0.084
Mof_C 	C 	0.0249	0.8342	0.4966	-0.158
Mof_H 	H 	0.0419	0.8308	0.5367	0.079
Mof_C 	C 	0.8063	0.1812	0.9776	0.075
Mof_H 	H 	0.8472	0.2063	0.9989	-0.012
Mof_C 	C 	0.6794	0.0025	0.0848	0.097
Mof_C 	C 	0.2041	0.6093	0.4133	-0.138
Mof_H 	H 	0.162	0.6315	0.3914	0.085
Mof_C 	C 	0.2047	0.6712	0.502	0.101
Mof_C 	C 	0.6855	0.1105	0.9162	-0.133
Mof_H 	H 	0.6436	0.0884	0.8939	0.077
Mof_C 	C 	0.3249	0.5409	0.4725	0.096
Mof_H 	H 	0.3672	0.5187	0.4929	-0.017
Mof_C 	C 	0.5011	0.9286	0.9045	-0.145
Mof_H 	H 	0.5189	0.9579	0.8833	0.082
Mof_C 	C 	0.9725	0.851	0.3809	0.078
Mof_H 	H 	0.9549	0.8583	0.341	-0.022
Mof_C 	C 	0.8059	0.0046	0.2403	0.077
Mof_H 	H 	0.8495	0.0231	0.2614	-0.026
Mof_C 	C 	0.2135	0.786	0.6756	-0.148
Mof_H 	H 	0.1738	0.8131	0.6541	0.075
Mof_C 	C 	0.9668	0.8723	0.466	0.09
Mof_H 	H 	0.9443	0.8945	0.4863	-0.027
Mof_C 	C 	0.7107	0.9463	0.2379	0.083
Mof_H 	H 	0.6873	0.9229	0.2569	-0.016
Mof_C 	C 	0.2452	0.7937	0.7346	0.084
Mof_H 	H 	0.2266	0.8284	0.7522	-0.023
Mof_C 	C 	0.4431	0.8854	0.877	0.09
Mof_H 	H 	0.4238	0.8838	0.8367	-0.009
Mof_C 	C 	0.7774	0.0152	0.1808	-0.149
Mof_H 	H 	0.802	0.0374	0.1623	0.075
Mof_C 	C 	0.302	0.6998	0.682	-0.151
Mof_H 	H 	0.3245	0.6688	0.6654	0.086
Mof_C 	C 	0.3278	0.7108	0.7418	0.096
Mof_H 	H 	0.3676	0.6845	0.7647	-0.024
Mof_N 	N 	0.2951	0.5295	0.4158	-0.195
Mof_N 	N 	0.9394	0.8807	0.4094	-0.218
Mof_N 	N 	0.3004	0.7551	0.768	-0.204
Mof_N 	N 	0.2368	0.6773	0.56	-0.137
Mof_N 	N 	0.1476	0.7095	0.4697	-0.136
Mof_N 	N 	0.1523	0.7655	0.5566	-0.141
Mof_N 	N 	0.7792	0.1876	0.9201	-0.207
Mof_N 	N 	0.4127	0.8453	0.9048	-0.191
Mof_N 	N 	0.7751	0.9698	0.2695	-0.2
Mof_N 	N 	0.6249	0.0135	0.9705	-0.142
Mof_N 	N 	0.7107	0.049	0.0625	-0.151
Mof_N 	N 	0.6223	0.9623	0.0561	-0.138
Mof_Ag	Ag	0.84423	0.95588	0.36631	0.524
Mof_Ag	Ag	0.82111	0.25773	0.86597	0.534
Mof_C 	C 	0.0976	0.4718	0.9986	0.101
Mof_C 	C 	0.5324	0.3091	0.4082	-0.149
Mof_H 	H 	0.5537	0.2878	0.3867	0.083
Mof_C 	C 	0.2762	0.6387	0.007	-0.138
Mof_H 	H 	0.2969	0.6347	0.0472	0.074
Mof_C 	C 	0.5597	0.2995	0.4671	0.066
Mof_C 	C 	0.7973	0.0833	0.5029	-0.14
Mof_H 	H 	0.8194	0.0873	0.543	0.086
Mof_C 	C 	0.6228	0.2556	0.4993	0.095
Mof_C 	C 	0.0035	0.3857	0.9939	-0.135
Mof_H 	H 	0.0232	0.3841	0.0341	0.086
Mof_C 	C 	0.0326	0.4279	0.9644	0.069
Mof_C 	C 	0.1815	0.5524	0.0044	0.091
Mof_C 	C 	0.7093	0.2251	0.5851	0.1
Mof_C 	C 	0.2137	0.6017	0.975	0.056
Mof_C 	C 	0.2196	0.6525	0.8898	0.064
Mof_H 	H 	0.2003	0.6564	0.8497	-0.026
Mof_C 	C 	0.9435	0.345	0.962	0.087
Mof_H 	H 	0.9241	0.3161	0.9822	-0.014
Mof_C 	C 	0.2117	0.4917	0.15	0.061
Mof_C 	C 	0.7348	0.1208	0.472	0.072
Mof_C 	C 	0.7357	0.0645	0.3867	0.087
Mof_H 	H 	0.7147	0.0586	0.3467	-0.011
Mof_C 	C 	0.7426	0.2363	0.6488	0.068
Mof_C 	C 	0.1787	0.4554	0.1792	-0.145
Mof_H 	H 	0.1349	0.4371	0.1589	0.084
Mof_C 	C 	0.5249	0.3342	0.4966	-0.158
Mof_H 	H 	0.5419	0.3308	0.5367	0.079
Mof_C 	C 	0.3063	0.6812	0.9776	0.077
Mof_H 	H 	0.3472	0.7063	0.9989	-0.013
Mof_C 	C 	0.1794	0.5025	0.0848	0.097
Mof_C 	C 	0.7041	0.1093	0.4133	-0.138
Mof_H 	H 	0.662	0.1315	0.3914	0.085
Mof_C 	C 	0.7047	0.1712	0.502	0.101
Mof_C 	C 	0.1855	0.6105	0.9162	-0.135
Mof_H 	H 	0.1436	0.5884	0.8939	0.078
Mof_C 	C 	0.8249	0.0409	0.4725	0.096
Mof_H 	H 	0.8672	0.0187	0.4929	-0.017
Mof_C 	C 	0.0011	0.4286	0.9045	-0.142
Mof_H 	H 	0.0189	0.4579	0.8833	0.081
Mof_C 	C 	0.4725	0.351	0.3809	0.078
Mof_H 	H 	0.4549	0.3583	0.341	-0.022
Mof_C 	C 	0.3059	0.5046	0.2403	0.077
Mof_H 	H 	0.3495	0.5231	0.2614	-0.026
Mof_C 	C 	0.7135	0.286	0.6756	-0.148
Mof_H 	H 	0.6738	0.3131	0.6541	0.075
Mof_C 	C 	0.4668	0.3723	0.466	0.09
Mof_H 	H 	0.4443	0.3945	0.4863	-0.027
Mof_C 	C 	0.2107	0.4463	0.2379	0.083
Mof_H 	H 	0.1873	0.4229	0.2569	-0.016
Mof_C 	C 	0.7452	0.2937	0.7346	0.084
Mof_H 	H 	0.7266	0.3284	0.7522	-0.023
Mof_C 	C 	0.9431	0.3854	0.877	0.087
Mof_H 	H 	0.9238	0.3838	0.8367	-0.009
Mof_C 	C 	0.2774	0.5152	0.1808	-0.149
Mof_H 	H 	0.302	0.5374	0.1623	0.075
Mof_C 	C 	0.802	0.1998	0.682	-0.152
Mof_H 	H 	0.8245	0.1688	0.6654	0.086
Mof_C 	C 	0.8278	0.2108	0.7418	0.096
Mof_H 	H 	0.8676	0.1845	0.7647	-0.024
Mof_N 	N 	0.7951	0.0295	0.4158	-0.195
Mof_N 	N 	0.4394	0.3807	0.4094	-0.218
Mof_N 	N 	0.8004	0.2551	0.768	-0.204
Mof_N 	N 	0.7368	0.1773	0.56	-0.137
Mof_N 	N 	0.6476	0.2095	0.4697	-0.136
Mof_N 	N 	0.6523	0.2655	0.5566	-0.141
Mof_N 	N 	0.2792	0.6876	0.9201	-0.208
Mof_N 	N 	0.9127	0.3453	0.9048	-0.19
Mof_N 	N 	0.2751	0.4698	0.2695	-0.2
Mof_N 	N 	0.1249	0.5135	0.9705	-0.141
Mof_N 	N 	0.2107	0.549	0.0625	-0.151
Mof_N 	N 	0.1223	0.4623	0.0561	-0.139
Mof_Ag	Ag	0.65577	0.45588	0.13369	0.524
Mof_Ag	Ag	0.67889	0.75773	0.63403	0.534
Mof_C 	C 	0.4024	0.9718	0.5014	0.1
Mof_C 	C 	0.9676	0.8091	0.0918	-0.146
Mof_H 	H 	0.9463	0.7878	0.1133	0.083
Mof_C 	C 	0.2238	0.1387	0.493	-0.135
Mof_H 	H 	0.2031	0.1347	0.4528	0.073
Mof_C 	C 	0.9403	0.7995	0.0329	0.063
Mof_C 	C 	0.7027	0.5833	0.9971	-0.142
Mof_H 	H 	0.6806	0.5873	0.957	0.087
Mof_C 	C 	0.8772	0.7556	0.0007	0.096
Mof_C 	C 	0.4965	0.8857	0.5061	-0.14
Mof_H 	H 	0.4768	0.8841	0.4659	0.088
Mof_C 	C 	0.4674	0.9279	0.5356	0.072
Mof_C 	C 	0.3185	0.0524	0.4956	0.093
Mof_C 	C 	0.7907	0.7251	0.9149	0.1
Mof_C 	C 	0.2863	0.1017	0.525	0.054
Mof_C 	C 	0.2804	0.1525	0.6102	0.063
Mof_H 	H 	0.2997	0.1564	0.6503	-0.025
Mof_C 	C 	0.5565	0.845	0.538	0.09
Mof_H 	H 	0.5759	0.8161	0.5178	-0.015
Mof_C 	C 	0.2883	0.9917	0.35	0.061
Mof_C 	C 	0.7652	0.6208	0.028	0.074
Mof_C 	C 	0.7643	0.5645	0.1133	0.088
Mof_H 	H 	0.7853	0.5586	0.1533	-0.012
Mof_C 	C 	0.7574	0.7363	0.8512	0.068
Mof_C 	C 	0.3213	0.9554	0.3208	-0.145
Mof_H 	H 	0.3651	0.9371	0.3411	0.084
Mof_C 	C 	0.9751	0.8342	0.0034	-0.152
Mof_H 	H 	0.9581	0.8308	0.9633	0.077
Mof_C 	C 	0.1937	0.1812	0.5224	0.076
Mof_H 	H 	0.1528	0.2063	0.5011	-0.012
Mof_C 	C 	0.3206	0.0025	0.4152	0.097
Mof_C 	C 	0.7959	0.6093	0.0867	-0.14
Mof_H 	H 	0.838	0.6315	0.1086	0.086
Mof_C 	C 	0.7953	0.6712	0.998	0.099
Mof_C 	C 	0.3145	0.1105	0.5838	-0.134
Mof_H 	H 	0.3564	0.0884	0.6061	0.077
Mof_C 	C 	0.6751	0.5409	0.0275	0.097
Mof_H 	H 	0.6328	0.5187	0.0071	-0.017
Mof_C 	C 	0.4989	0.9286	0.5955	-0.145
Mof_H 	H 	0.4811	0.9579	0.6167	0.082
Mof_C 	C 	0.0275	0.851	0.1191	0.076
Mof_H 	H 	0.0451	0.8583	0.159	-0.021
Mof_C 	C 	0.1941	0.0046	0.2597	0.077
Mof_H 	H 	0.1505	0.0231	0.2386	-0.026
Mof_C 	C 	0.7865	0.786	0.8244	-0.148
Mof_H 	H 	0.8262	0.8131	0.8459	0.075
Mof_C 	C 	0.0332	0.8723	0.034	0.086
Mof_H 	H 	0.0557	0.8945	0.0137	-0.026
Mof_C 	C 	0.2893	0.9463	0.2621	0.083
Mof_H 	H 	0.3127	0.9229	0.2431	-0.016
Mof_C 	C 	0.7548	0.7937	0.7654	0.084
Mof_H 	H 	0.7734	0.8284	0.7478	-0.023
Mof_C 	C 	0.5569	0.8854	0.623	0.089
Mof_H 	H 	0.5762	0.8838	0.6633	-0.009
Mof_C 	C 	0.2226	0.0152	0.3192	-0.149
Mof_H 	H 	0.198	0.0374	0.3377	0.075
Mof_C 	C 	0.698	0.6998	0.818	-0.152
Mof_H 	H 	0.6755	0.6688	0.8346	0.086
Mof_C 	C 	0.6722	0.7108	0.7582	0.096
Mof_H 	H 	0.6324	0.6845	0.7353	-0.024
Mof_N 	N 	0.7049	0.5295	0.0842	-0.195
Mof_N 	N 	0.0606	0.8807	0.0906	-0.217
Mof_N 	N 	0.6996	0.7551	0.732	-0.204
Mof_N 	N 	0.7632	0.6773	0.94	-0.137
Mof_N 	N 	0.8524	0.7095	0.0303	-0.136
Mof_N 	N 	0.8477	0.7655	0.9434	-0.142
Mof_N 	N 	0.2208	0.1876	0.5799	-0.208
Mof_N 	N 	0.5873	0.8453	0.5952	-0.191
Mof_N 	N 	0.2249	0.9698	0.2305	-0.2
Mof_N 	N 	0.3751	0.0135	0.5295	-0.142
Mof_N 	N 	0.2893	0.049	0.4375	-0.151
Mof_N 	N 	0.3777	0.9623	0.4439	-0.138
Mof_Ag	Ag	0.15577	0.95588	0.13369	0.524
Mof_Ag	Ag	0.17889	0.25773	0.63403	0.534
Mof_C 	C 	0.9024	0.4718	0.5014	0.1
Mof_C 	C 	0.4676	0.3091	0.0918	-0.149
Mof_H 	H 	0.4463	0.2878	0.1133	0.084
Mof_C 	C 	0.7238	0.6387	0.493	-0.135
Mof_H 	H 	0.7031	0.6347	0.4528	0.073
Mof_C 	C 	0.4403	0.2995	0.0329	0.066
Mof_C 	C 	0.2027	0.0833	0.9971	-0.137
Mof_H 	H 	0.1806	0.0873	0.957	0.086
Mof_C 	C 	0.3772	0.2556	0.0007	0.094
Mof_C 	C 	0.9965	0.3857	0.5061	-0.14
Mof_H 	H 	0.9768	0.3841	0.4659	0.088
Mof_C 	C 	0.9674	0.4279	0.5356	0.072
Mof_C 	C 	0.8185	0.5524	0.4956	0.092
Mof_C 	C 	0.2907	0.2251	0.9149	0.1
Mof_C 	C 	0.7863	0.6017	0.525	0.054
Mof_C 	C 	0.7804	0.6525	0.6102	0.063
Mof_H 	H 	0.7997	0.6564	0.6503	-0.025
Mof_C 	C 	0.0565	0.345	0.538	0.091
Mof_H 	H 	0.0759	0.3161	0.5178	-0.015
Mof_C 	C 	0.7883	0.4917	0.35	0.061
Mof_C 	C 	0.2652	0.1208	0.028	0.07
Mof_C 	C 	0.2643	0.0645	0.1133	0.086
Mof_H 	H 	0.2853	0.0586	0.1533	-0.011
Mof_C 	C 	0.2574	0.2363	0.8512	0.068
Mof_C 	C 	0.8213	0.4554	0.3208	-0.145
Mof_H 	H 	0.8651	0.4371	0.3411	0.084
Mof_C 	C 	0.4751	0.3342	0.0034	-0.159
Mof_H 	H 	0.4581	0.3308	0.9633	0.079
Mof_C 	C 	0.6937	0.6812	0.5224	0.076
Mof_H 	H 	0.6528	0.7063	0.5011	-0.012
Mof_C 	C 	0.8206	0.5025	0.4152	0.097
Mof_C 	C 	0.2959	0.1093	0.0867	-0.137
Mof_H 	H 	0.338	0.1315	0.1086	0.085
Mof_C 	C 	0.2953	0.1712	0.998	0.102
Mof_C 	C 	0.8145	0.6105	0.5838	-0.134
Mof_H 	H 	0.8564	0.5884	0.6061	0.077
Mof_C 	C 	0.1751	0.0409	0.0275	0.094
Mof_H 	H 	0.1328	0.0187	0.0071	-0.016
Mof_C 	C 	0.9989	0.4286	0.5955	-0.146
Mof_H 	H 	0.9811	0.4579	0.6167	0.082
Mof_C 	C 	0.5275	0.351	0.1191	0.078
Mof_H 	H 	0.5451	0.3583	0.159	-0.022
Mof_C 	C 	0.6941	0.5046	0.2597	0.077
Mof_H 	H 	0.6505	0.5231	0.2386	-0.026
Mof_C 	C 	0.2865	0.286	0.8244	-0.148
Mof_H 	H 	0.3262	0.3131	0.8459	0.075
Mof_C 	C 	0.5332	0.3723	0.034	0.091
Mof_H 	H 	0.5557	0.3945	0.0137	-0.027
Mof_C 	C 	0.7893	0.4463	0.2621	0.083
Mof_H 	H 	0.8127	0.4229	0.2431	-0.016
Mof_C 	C 	0.2548	0.2937	0.7654	0.084
Mof_H 	H 	0.2734	0.3284	0.7478	-0.023
Mof_C 	C 	0.0569	0.3854	0.623	0.09
Mof_H 	H 	0.0762	0.3838	0.6633	-0.009
Mof_C 	C 	0.7226	0.5152	0.3192	-0.149
Mof_H 	H 	0.698	0.5374	0.3377	0.075
Mof_C 	C 	0.198	0.1998	0.818	-0.152
Mof_H 	H 	0.1755	0.1688	0.8346	0.086
Mof_C 	C 	0.1722	0.2108	0.7582	0.096
Mof_H 	H 	0.1324	0.1845	0.7353	-0.024
Mof_N 	N 	0.2049	0.0295	0.0842	-0.194
Mof_N 	N 	0.5606	0.3807	0.0906	-0.218
Mof_N 	N 	0.1996	0.2551	0.732	-0.204
Mof_N 	N 	0.2632	0.1773	0.94	-0.137
Mof_N 	N 	0.3524	0.2095	0.0303	-0.137
Mof_N 	N 	0.3477	0.2655	0.9434	-0.141
Mof_N 	N 	0.7208	0.6876	0.5799	-0.208
Mof_N 	N 	0.0873	0.3453	0.5952	-0.191
Mof_N 	N 	0.7249	0.4698	0.2305	-0.2
Mof_N 	N 	0.8751	0.5135	0.5295	-0.142
Mof_N 	N 	0.7893	0.549	0.4375	-0.151
Mof_N 	N 	0.8777	0.4623	0.4439	-0.138
Mof_Ag	Ag	0.65577	0.54412	0.63369	0.524
Mof_Ag	Ag	0.67889	0.24227	0.13403	0.534
Mof_C 	C 	0.4024	0.0282	0.0014	0.099
Mof_C 	C 	0.9676	0.1909	0.5918	-0.15
Mof_H 	H 	0.9463	0.2122	0.6133	0.084
Mof_C 	C 	0.2238	0.8613	0.993	-0.133
Mof_H 	H 	0.2031	0.8653	0.9528	0.073
Mof_C 	C 	0.9403	0.2005	0.5329	0.066
Mof_C 	C 	0.7027	0.4167	0.4971	-0.14
Mof_H 	H 	0.6806	0.4127	0.457	0.086
Mof_C 	C 	0.8772	0.2444	0.5007	0.095
Mof_C 	C 	0.4965	0.1143	0.0061	-0.141
Mof_H 	H 	0.4768	0.1159	0.9659	0.088
Mof_C 	C 	0.4674	0.0721	0.0356	0.072
Mof_C 	C 	0.3185	0.9476	0.9956	0.093
Mof_C 	C 	0.7907	0.2749	0.4149	0.1
Mof_C 	C 	0.2863	0.8983	0.025	0.052
Mof_C 	C 	0.2804	0.8475	0.1102	0.063
Mof_H 	H 	0.2997	0.8436	0.1503	-0.025
Mof_C 	C 	0.5565	0.155	0.038	0.091
Mof_H 	H 	0.5759	0.1839	0.0178	-0.015
Mof_C 	C 	0.2883	0.0083	0.85	0.062
Mof_C 	C 	0.7652	0.3792	0.528	0.072
Mof_C 	C 	0.7643	0.4355	0.6133	0.087
Mof_H 	H 	0.7853	0.4414	0.6533	-0.011
Mof_C 	C 	0.7574	0.2637	0.3512	0.068
Mof_C 	C 	0.3213	0.0446	0.8208	-0.145
Mof_H 	H 	0.3651	0.0629	0.8411	0.084
Mof_C 	C 	0.9751	0.1658	0.5034	-0.158
Mof_H 	H 	0.9581	0.1692	0.4633	0.079
Mof_C 	C 	0.1937	0.8188	0.0224	0.075
Mof_H 	H 	0.1528	0.7937	0.0011	-0.012
Mof_C 	C 	0.3206	0.9975	0.9152	0.097
Mof_C 	C 	0.7959	0.3907	0.5867	-0.138
Mof_H 	H 	0.838	0.3685	0.6086	0.085
Mof_C 	C 	0.7953	0.3288	0.498	0.101
Mof_C 	C 	0.3145	0.8895	0.0838	-0.133
Mof_H 	H 	0.3564	0.9116	0.1061	0.077
Mof_C 	C 	0.6751	0.4591	0.5275	0.096
Mof_H 	H 	0.6328	0.4813	0.5071	-0.017
Mof_C 	C 	0.4989	0.0714	0.0955	-0.145
Mof_H 	H 	0.4811	0.0421	0.1167	0.082
Mof_C 	C 	0.0275	0.149	0.6191	0.078
Mof_H 	H 	0.0451	0.1417	0.659	-0.022
Mof_C 	C 	0.1941	0.9954	0.7597	0.077
Mof_H 	H 	0.1505	0.9769	0.7386	-0.026
Mof_C 	C 	0.7865	0.214	0.3244	-0.148
Mof_H 	H 	0.8262	0.1869	0.3459	0.075
Mof_C 	C 	0.0332	0.1277	0.534	0.09
Mof_H 	H 	0.0557	0.1055	0.5137	-0.027
Mof_C 	C 	0.2893	0.0537	0.7621	0.083
Mof_H 	H 	0.3127	0.0771	0.7431	-0.016
Mof_C 	C 	0.7548	0.2063	0.2654	0.084
Mof_H 	H 	0.7734	0.1716	0.2478	-0.023
Mof_C 	C 	0.5569	0.1146	0.123	0.09
Mof_H 	H 	0.5762	0.1162	0.1633	-0.009
Mof_C 	C 	0.2226	0.9848	0.8192	-0.149
Mof_H 	H 	0.198	0.9626	0.8377	0.075
Mof_C 	C 	0.698	0.3002	0.318	-0.151
Mof_H 	H 	0.6755	0.3312	0.3346	0.086
Mof_C 	C 	0.6722	0.2892	0.2582	0.096
Mof_H 	H 	0.6324	0.3155	0.2353	-0.024
Mof_N 	N 	0.7049	0.4705	0.5842	-0.195
Mof_N 	N 	0.0606	0.1193	0.5906	-0.218
Mof_N 	N 	0.6996	0.2449	0.232	-0.204
Mof_N 	N 	0.7632	0.3227	0.44	-0.137
Mof_N 	N 	0.8524	0.2905	0.5303	-0.136
Mof_N 	N 	0.8477	0.2345	0.4434	-0.141
Mof_N 	N 	0.2208	0.8124	0.0799	-0.207
Mof_N 	N 	0.5873	0.1547	0.0952	-0.191
Mof_N 	N 	0.2249	0.0302	0.7305	-0.2
Mof_N 	N 	0.3751	0.9865	0.0295	-0.142
Mof_N 	N 	0.2893	0.951	0.9375	-0.151
Mof_N 	N 	0.3777	0.0377	0.9439	-0.138
Mof_Ag	Ag	0.15577	0.04412	0.63369	0.524
Mof_Ag	Ag	0.17889	0.74227	0.13403	0.534
Mof_C 	C 	0.9024	0.5282	0.0014	0.101
Mof_C 	C 	0.4676	0.6909	0.5918	-0.149
Mof_H 	H 	0.4463	0.7122	0.6133	0.083
Mof_C 	C 	0.7238	0.3613	0.993	-0.138
Mof_H 	H 	0.7031	0.3653	0.9528	0.074
Mof_C 	C 	0.4403	0.7005	0.5329	0.066
Mof_C 	C 	0.2027	0.9167	0.4971	-0.14
Mof_H 	H 	0.1806	0.9127	0.457	0.086
Mof_C 	C 	0.3772	0.7444	0.5007	0.095
Mof_C 	C 	0.9965	0.6143	0.0061	-0.135
Mof_H 	H 	0.9768	0.6159	0.9659	0.086
Mof_C 	C 	0.9674	0.5721	0.0356	0.069
Mof_C 	C 	0.8185	0.4476	0.9956	0.091
Mof_C 	C 	0.2907	0.7749	0.4149	0.1
Mof_C 	C 	0.7863	0.3983	0.025	0.056
Mof_C 	C 	0.7804	0.3475	0.1102	0.064
Mof_H 	H 	0.7997	0.3436	0.1503	-0.026
Mof_C 	C 	0.0565	0.655	0.038	0.087
Mof_H 	H 	0.0759	0.6839	0.0178	-0.014
Mof_C 	C 	0.7883	0.5083	0.85	0.061
Mof_C 	C 	0.2652	0.8792	0.528	0.072
Mof_C 	C 	0.2643	0.9355	0.6133	0.087
Mof_H 	H 	0.2853	0.9414	0.6533	-0.011
Mof_C 	C 	0.2574	0.7637	0.3512	0.068
Mof_C 	C 	0.8213	0.5446	0.8208	-0.145
Mof_H 	H 	0.8651	0.5629	0.8411	0.084
Mof_C 	C 	0.4751	0.6658	0.5034	-0.158
Mof_H 	H 	0.4581	0.6692	0.4633	0.079
Mof_C 	C 	0.6937	0.3188	0.0224	0.077
Mof_H 	H 	0.6528	0.2937	0.0011	-0.013
Mof_C 	C 	0.8206	0.4975	0.9152	0.097
Mof_C 	C 	0.2959	0.8907	0.5867	-0.138
Mof_H 	H 	0.338	0.8685	0.6086	0.085
Mof_C 	C 	0.2953	0.8288	0.498	0.101
Mof_C 	C 	0.8145	0.3895	0.0838	-0.135
Mof_H 	H 	0.8564	0.4116	0.1061	0.078
Mof_C 	C 	0.1751	0.9591	0.5275	0.096
Mof_H 	H 	0.1328	0.9813	0.5071	-0.017
Mof_C 	C 	0.9989	0.5714	0.0955	-0.142
Mof_H 	H 	0.9811	0.5421	0.1167	0.081
Mof_C 	C 	0.5275	0.649	0.6191	0.078
Mof_H 	H 	0.5451	0.6417	0.659	-0.022
Mof_C 	C 	0.6941	0.4954	0.7597	0.077
Mof_H 	H 	0.6505	0.4769	0.7386	-0.026
Mof_C 	C 	0.2865	0.714	0.3244	-0.148
Mof_H 	H 	0.3262	0.6869	0.3459	0.075
Mof_C 	C 	0.5332	0.6277	0.534	0.09
Mof_H 	H 	0.5557	0.6055	0.5137	-0.027
Mof_C 	C 	0.7893	0.5537	0.7621	0.083
Mof_H 	H 	0.8127	0.5771	0.7431	-0.016
Mof_C 	C 	0.2548	0.7063	0.2654	0.084
Mof_H 	H 	0.2734	0.6716	0.2478	-0.023
Mof_C 	C 	0.0569	0.6146	0.123	0.087
Mof_H 	H 	0.0762	0.6162	0.1633	-0.009
Mof_C 	C 	0.7226	0.4848	0.8192	-0.149
Mof_H 	H 	0.698	0.4626	0.8377	0.075
Mof_C 	C 	0.198	0.8002	0.318	-0.152
Mof_H 	H 	0.1755	0.8312	0.3346	0.086
Mof_C 	C 	0.1722	0.7892	0.2582	0.096
Mof_H 	H 	0.1324	0.8155	0.2353	-0.024
Mof_N 	N 	0.2049	0.9705	0.5842	-0.195
Mof_N 	N 	0.5606	0.6193	0.5906	-0.218
Mof_N 	N 	0.1996	0.7449	0.232	-0.204
Mof_N 	N 	0.2632	0.8227	0.44	-0.137
Mof_N 	N 	0.3524	0.7905	0.5303	-0.136
Mof_N 	N 	0.3477	0.7345	0.4434	-0.141
Mof_N 	N 	0.7208	0.3124	0.0799	-0.208
Mof_N 	N 	0.0873	0.6547	0.0952	-0.19
Mof_N 	N 	0.7249	0.5302	0.7305	-0.2
Mof_N 	N 	0.8751	0.4865	0.0295	-0.141
Mof_N 	N 	0.7893	0.451	0.9375	-0.151
Mof_N 	N 	0.8777	0.5377	0.9439	-0.139
Mof_Ag	Ag	0.34423	0.54412	0.86631	0.524
Mof_Ag	Ag	0.32111	0.24227	0.36597	0.534
Mof_C 	C 	0.5976	0.0282	0.4986	0.1
Mof_C 	C 	0.0324	0.1909	0.9082	-0.146
Mof_H 	H 	0.0537	0.2122	0.8867	0.083
Mof_C 	C 	0.7762	0.8613	0.507	-0.135
Mof_H 	H 	0.7969	0.8653	0.5472	0.073
Mof_C 	C 	0.0597	0.2005	0.9671	0.063
Mof_C 	C 	0.2973	0.4167	0.0029	-0.142
Mof_H 	H 	0.3194	0.4127	0.043	0.087
Mof_C 	C 	0.1228	0.2444	0.9993	0.096
Mof_C 	C 	0.5035	0.1143	0.4939	-0.14
Mof_H 	H 	0.5232	0.1159	0.5341	0.088
Mof_C 	C 	0.5326	0.0721	0.4644	0.072
Mof_C 	C 	0.6815	0.9476	0.5044	0.093
Mof_C 	C 	0.2093	0.2749	0.0851	0.1
Mof_C 	C 	0.7137	0.8983	0.475	0.054
Mof_C 	C 	0.7196	0.8475	0.3898	0.063
Mof_H 	H 	0.7003	0.8436	0.3497	-0.025
Mof_C 	C 	0.4435	0.155	0.462	0.09
Mof_H 	H 	0.4241	0.1839	0.4822	-0.015
Mof_C 	C 	0.7117	0.0083	0.65	0.061
Mof_C 	C 	0.2348	0.3792	0.972	0.074
Mof_C 	C 	0.2357	0.4355	0.8867	0.088
Mof_H 	H 	0.2147	0.4414	0.8467	-0.012
Mof_C 	C 	0.2426	0.2637	0.1488	0.068
Mof_C 	C 	0.6787	0.0446	0.6792	-0.145
Mof_H 	H 	0.6349	0.0629	0.6589	0.084
Mof_C 	C 	0.0249	0.1658	0.9966	-0.152
Mof_H 	H 	0.0419	0.1692	0.0367	0.077
Mof_C 	C 	0.8063	0.8188	0.4776	0.076
Mof_H 	H 	0.8472	0.7937	0.4989	-0.012
Mof_C 	C 	0.6794	0.9975	0.5848	0.097
Mof_C 	C 	0.2041	0.3907	0.9133	-0.14
Mof_H 	H 	0.162	0.3685	0.8914	0.086
Mof_C 	C 	0.2047	0.3288	0.002	0.099
Mof_C 	C 	0.6855	0.8895	0.4162	-0.134
Mof_H 	H 	0.6436	0.9116	0.3939	0.077
Mof_C 	C 	0.3249	0.4591	0.9725	0.097
Mof_H 	H 	0.3672	0.4813	0.9929	-0.017
Mof_C 	C 	0.5011	0.0714	0.4045	-0.145
Mof_H 	H 	0.5189	0.0421	0.3833	0.082
Mof_C 	C 	0.9725	0.149	0.8809	0.076
Mof_H 	H 	0.9549	0.1417	0.841	-0.021
Mof_C 	C 	0.8059	0.9954	0.7403	0.077
Mof_H 	H 	0.8495	0.9769	0.7614	-0.026
Mof_C 	C 	0.2135	0.214	0.1756	-0.148
Mof_H 	H 	0.1738	0.1869	0.1541	0.075
Mof_C 	C 	0.9668	0.1277	0.966	0.086
Mof_H 	H 	0.9443	0.1055	0.9863	-0.026
Mof_C 	C 	0.7107	0.0537	0.7379	0.083
Mof_H 	H 	0.6873	0.0771	0.7569	-0.016
Mof_C 	C 	0.2452	0.2063	0.2346	0.084
Mof_H 	H 	0.2266	0.1716	0.2522	-0.023
Mof_C 	C 	0.4431	0.1146	0.377	0.089
Mof_H 	H 	0.4238	0.1162	0.3367	-0.009
Mof_C 	C 	0.7774	0.9848	0.6808	-0.149
Mof_H 	H 	0.802	0.9626	0.6623	0.075
Mof_C 	C 	0.302	0.3002	0.182	-0.152
Mof_H 	H 	0.3245	0.3312	0.1654	0.086
Mof_C 	C 	0.3278	0.2892	0.2418	0.096
Mof_H 	H 	0.3676	0.3155	0.2647	-0.024
Mof_N 	N 	0.2951	0.4705	0.9158	-0.195
Mof_N 	N 	0.9394	0.1193	0.9094	-0.217
Mof_N 	N 	0.3004	0.2449	0.268	-0.204
Mof_N 	N 	0.2368	0.3227	0.06	-0.137
Mof_N 	N 	0.1476	0.2905	0.9697	-0.136
Mof_N 	N 	0.1523	0.2345	0.0566	-0.142
Mof_N 	N 	0.7792	0.8124	0.4201	-0.208
Mof_N 	N 	0.4127	0.1547	0.4048	-0.191
Mof_N 	N 	0.7751	0.0302	0.7695	-0.2
Mof_N 	N 	0.6249	0.9865	0.4705	-0.142
Mof_N 	N 	0.7107	0.951	0.5625	-0.151
Mof_N 	N 	0.6223	0.0377	0.5561	-0.138
Mof_Ag	Ag	0.84423	0.04412	0.86631	0.524
Mof_Ag	Ag	0.82111	0.74227	0.36597	0.534
Mof_C 	C 	0.0976	0.5282	0.4986	0.1
Mof_C 	C 	0.5324	0.6909	0.9082	-0.149
Mof_H 	H 	0.5537	0.7122	0.8867	0.084
Mof_C 	C 	0.2762	0.3613	0.507	-0.135
Mof_H 	H 	0.2969	0.3653	0.5472	0.073
Mof_C 	C 	0.5597	0.7005	0.9671	0.066
Mof_C 	C 	0.7973	0.9167	0.0029	-0.137
Mof_H 	H 	0.8194	0.9127	0.043	0.086
Mof_C 	C 	0.6228	0.7444	0.9993	0.094
Mof_C 	C 	0.0035	0.6143	0.4939	-0.14
Mof_H 	H 	0.0232	0.6159	0.5341	0.088
Mof_C 	C 	0.0326	0.5721	0.4644	0.072
Mof_C 	C 	0.1815	0.4476	0.5044	0.092
Mof_C 	C 	0.7093	0.7749	0.0851	0.1
Mof_C 	C 	0.2137	0.3983	0.475	0.054
Mof_C 	C 	0.2196	0.3475	0.3898	0.063
Mof_H 	H 	0.2003	0.3436	0.3497	-0.025
Mof_C 	C 	0.9435	0.655	0.462	0.091
Mof_H 	H 	0.9241	0.6839	0.4822	-0.015
Mof_C 	C 	0.2117	0.5083	0.65	0.061
Mof_C 	C 	0.7348	0.8792	0.972	0.07
Mof_C 	C 	0.7357	0.9355	0.8867	0.086
Mof_H 	H 	0.7147	0.9414	0.8467	-0.011
Mof_C 	C 	0.7426	0.7637	0.1488	0.068
Mof_C 	C 	0.1787	0.5446	0.6792	-0.145
Mof_H 	H 	0.1349	0.5629	0.6589	0.084
Mof_C 	C 	0.5249	0.6658	0.9966	-0.159
Mof_H 	H 	0.5419	0.6692	0.0367	0.079
Mof_C 	C 	0.3063	0.3188	0.4776	0.076
Mof_H 	H 	0.3472	0.2937	0.4989	-0.012
Mof_C 	C 	0.1794	0.4975	0.5848	0.097
Mof_C 	C 	0.7041	0.8907	0.9133	-0.137
Mof_H 	H 	0.662	0.8685	0.8914	0.085
Mof_C 	C 	0.7047	0.8288	0.002	0.102
Mof_C 	C 	0.1855	0.3895	0.4162	-0.134
Mof_H 	H 	0.1436	0.4116	0.3939	0.077
Mof_C 	C 	0.8249	0.9591	0.9725	0.094
Mof_H 	H 	0.8672	0.9813	0.9929	-0.016
Mof_C 	C 	0.0011	0.5714	0.4045	-0.146
Mof_H 	H 	0.0189	0.5421	0.3833	0.082
Mof_C 	C 	0.4725	0.649	0.8809	0.078
Mof_H 	H 	0.4549	0.6417	0.841	-0.022
Mof_C 	C 	0.3059	0.4954	0.7403	0.077
Mof_H 	H 	0.3495	0.4769	0.7614	-0.026
Mof_C 	C 	0.7135	0.714	0.1756	-0.148
Mof_H 	H 	0.6738	0.6869	0.1541	0.075
Mof_C 	C 	0.4668	0.6277	0.966	0.091
Mof_H 	H 	0.4443	0.6055	0.9863	-0.027
Mof_C 	C 	0.2107	0.5537	0.7379	0.083
Mof_H 	H 	0.1873	0.5771	0.7569	-0.016
Mof_C 	C 	0.7452	0.7063	0.2346	0.084
Mof_H 	H 	0.7266	0.6716	0.2522	-0.023
Mof_C 	C 	0.9431	0.6146	0.377	0.09
Mof_H 	H 	0.9238	0.6162	0.3367	-0.009
Mof_C 	C 	0.2774	0.4848	0.6808	-0.149
Mof_H 	H 	0.302	0.4626	0.6623	0.075
Mof_C 	C 	0.802	0.8002	0.182	-0.152
Mof_H 	H 	0.8245	0.8312	0.1654	0.086
Mof_C 	C 	0.8278	0.7892	0.2418	0.096
Mof_H 	H 	0.8676	0.8155	0.2647	-0.024
Mof_N 	N 	0.7951	0.9705	0.9158	-0.194
Mof_N 	N 	0.4394	0.6193	0.9094	-0.218
Mof_N 	N 	0.8004	0.7449	0.268	-0.204
Mof_N 	N 	0.7368	0.8227	0.06	-0.137
Mof_N 	N 	0.6476	0.7905	0.9697	-0.137
Mof_N 	N 	0.6523	0.7345	0.0566	-0.141
Mof_N 	N 	0.2792	0.3124	0.4201	-0.208
Mof_N 	N 	0.9127	0.6547	0.4048	-0.191
Mof_N 	N 	0.2751	0.5302	0.7695	-0.2
Mof_N 	N 	0.1249	0.4865	0.4705	-0.142
Mof_N 	N 	0.2107	0.451	0.5625	-0.151
Mof_N 	N 	0.1223	0.5377	0.5561	-0.138
_end
