# CIF file generated by openbabel 3.1.0, see https://openbabel.org
data_I
_chemical_name_common 'image0'
_cell_length_a 17.9491
_cell_length_b 16.9797
_cell_length_c 10.3636
_cell_angle_alpha 90
_cell_angle_beta 90
_cell_angle_gamma 90
_space_group_name_H-M_alt 'P 1'
_space_group_name_Hall 'P 1'
loop_
    _symmetry_equiv_pos_as_xyz
    x,y,z
loop_
    _atom_site_label
    _atom_site_type_symbol
    _atom_site_fract_x
    _atom_site_fract_y
    _atom_site_fract_z
    _atom_site_occupancy
    Ga1      Ga       0.20212    0.23997    0.08722    1.000
    Ga2      Ga       0.39846    0.20173    0.11248    1.000
    Ga3      Ga       0.21780    0.41602    0.91274    1.000
    P1       P        0.32371    0.28100    0.88277    1.000
    P2       P        0.27645    0.06934    0.10647    1.000
    P3       P        0.07577    0.30446    0.90141    1.000
    F1       F        0.29840    0.24478    0.17010    1.000
    F2       F        0.21266    0.35644    0.08190    1.000
    O1       O        0.25468    0.23601    0.92540    1.000
    O2       O        0.21070    0.12600    0.09180    1.000
    O3       O        0.10568    0.24977    0.00620    1.000
    O4       O        0.34768    0.25254    0.74930    1.000
    O5       O        0.39150    0.26793    0.97170    1.000
    O6       O        0.30884    0.37001    0.88140    1.000
    O7       O        0.35364    0.10646    0.08050    1.000
    O8       O        0.07657    0.25927    0.77330    1.000
    O9       O        0.99653    0.33184    0.93430    1.000
    O10      O        0.27788    0.03119    0.24140    1.000
    O11      O        0.26534    0.00650    0.00240    1.000
    O12      O        0.12196    0.38112    0.88580    1.000
    Ga4      Ga       0.29788    0.26003    0.58722    1.000
    Ga5      Ga       0.10154    0.29827    0.61248    1.000
    Ga6      Ga       0.28220    0.08398    0.41274    1.000
    P4       P        0.17629    0.21900    0.38277    1.000
    P5       P        0.22355    0.43066    0.60647    1.000
    P6       P        0.42423    0.19554    0.40141    1.000
    F3       F        0.20160    0.25522    0.67010    1.000
    F4       F        0.28734    0.14356    0.58190    1.000
    O13      O        0.24532    0.26399    0.42540    1.000
    O14      O        0.28930    0.37400    0.59180    1.000
    O15      O        0.39432    0.25023    0.50620    1.000
    O16      O        0.15232    0.24746    0.24930    1.000
    O17      O        0.10850    0.23207    0.47170    1.000
    O18      O        0.19116    0.12999    0.38140    1.000
    O19      O        0.14636    0.39354    0.58050    1.000
    O20      O        0.42343    0.24073    0.27330    1.000
    O21      O        0.50347    0.16816    0.43430    1.000
    O22      O        0.22212    0.46881    0.74140    1.000
    O23      O        0.23466    0.49350    0.50240    1.000
    O24      O        0.37804    0.11888    0.38580    1.000
    Ga7      Ga       0.79788    0.23997    0.41278    1.000
    Ga8      Ga       0.60154    0.20173    0.38752    1.000
    Ga9      Ga       0.78220    0.41602    0.58726    1.000
    P7       P        0.67629    0.28100    0.61723    1.000
    P8       P        0.72355    0.06934    0.39353    1.000
    P9       P        0.92423    0.30446    0.59859    1.000
    F5       F        0.70160    0.24478    0.32990    1.000
    F6       F        0.78734    0.35644    0.41810    1.000
    O25      O        0.74532    0.23601    0.57460    1.000
    O26      O        0.78930    0.12600    0.40820    1.000
    O27      O        0.89432    0.24977    0.49380    1.000
    O28      O        0.65232    0.25254    0.75070    1.000
    O29      O        0.60850    0.26793    0.52830    1.000
    O30      O        0.69116    0.37001    0.61860    1.000
    O31      O        0.64636    0.10646    0.41950    1.000
    O32      O        0.92343    0.25927    0.72670    1.000
    O33      O        0.00347    0.33184    0.56570    1.000
    O34      O        0.72212    0.03119    0.25860    1.000
    O35      O        0.73466    0.00650    0.49760    1.000
    O36      O        0.87804    0.38112    0.61420    1.000
    Ga10     Ga       0.70212    0.26003    0.91278    1.000
    Ga11     Ga       0.89846    0.29827    0.88752    1.000
    Ga12     Ga       0.71780    0.08398    0.08726    1.000
    P10      P        0.82371    0.21900    0.11723    1.000
    P11      P        0.77645    0.43066    0.89353    1.000
    P12      P        0.57577    0.19554    0.09859    1.000
    F7       F        0.79840    0.25522    0.82990    1.000
    F8       F        0.71266    0.14356    0.91810    1.000
    O37      O        0.75468    0.26399    0.07460    1.000
    O38      O        0.71070    0.37400    0.90820    1.000
    O39      O        0.60568    0.25023    0.99380    1.000
    O40      O        0.84768    0.24746    0.25070    1.000
    O41      O        0.89150    0.23207    0.02830    1.000
    O42      O        0.80884    0.12999    0.11860    1.000
    O43      O        0.85364    0.39354    0.91950    1.000
    O44      O        0.57657    0.24073    0.22670    1.000
    O45      O        0.49653    0.16816    0.06570    1.000
    O46      O        0.77788    0.46881    0.75860    1.000
    O47      O        0.76534    0.49350    0.99760    1.000
    O48      O        0.62196    0.11888    0.11420    1.000
    Ga13     Ga       0.79788    0.76003    0.91278    1.000
    Ga14     Ga       0.60154    0.79827    0.88752    1.000
    Ga15     Ga       0.78220    0.58398    0.08726    1.000
    P13      P        0.67629    0.71900    0.11723    1.000
    P14      P        0.72355    0.93066    0.89353    1.000
    P15      P        0.92423    0.69554    0.09859    1.000
    F9       F        0.70160    0.75522    0.82990    1.000
    F10      F        0.78734    0.64356    0.91810    1.000
    O49      O        0.74532    0.76399    0.07460    1.000
    O50      O        0.78930    0.87400    0.90820    1.000
    O51      O        0.89432    0.75023    0.99380    1.000
    O52      O        0.65232    0.74746    0.25070    1.000
    O53      O        0.60850    0.73207    0.02830    1.000
    O54      O        0.69116    0.62999    0.11860    1.000
    O55      O        0.64636    0.89354    0.91950    1.000
    O56      O        0.92343    0.74073    0.22670    1.000
    O57      O        0.00347    0.66816    0.06570    1.000
    O58      O        0.72212    0.96881    0.75860    1.000
    O59      O        0.73466    0.99350    0.99760    1.000
    O60      O        0.87804    0.61888    0.11420    1.000
    Ga16     Ga       0.70212    0.73997    0.41278    1.000
    Ga17     Ga       0.89846    0.70173    0.38752    1.000
    Ga18     Ga       0.71780    0.91602    0.58726    1.000
    P16      P        0.82371    0.78100    0.61723    1.000
    P17      P        0.77645    0.56934    0.39353    1.000
    P18      P        0.57577    0.80446    0.59859    1.000
    F11      F        0.79840    0.74478    0.32990    1.000
    F12      F        0.71266    0.85644    0.41810    1.000
    O61      O        0.75468    0.73601    0.57460    1.000
    O62      O        0.71070    0.62600    0.40820    1.000
    O63      O        0.60568    0.74977    0.49380    1.000
    O64      O        0.84768    0.75254    0.75070    1.000
    O65      O        0.89150    0.76793    0.52830    1.000
    O66      O        0.80884    0.87001    0.61860    1.000
    O67      O        0.85364    0.60646    0.41950    1.000
    O68      O        0.57657    0.75927    0.72670    1.000
    O69      O        0.49653    0.83184    0.56570    1.000
    O70      O        0.77788    0.53119    0.25860    1.000
    O71      O        0.76534    0.50650    0.49760    1.000
    O72      O        0.62196    0.88112    0.61420    1.000
    Ga19     Ga       0.20212    0.76003    0.58722    1.000
    Ga20     Ga       0.39846    0.79827    0.61248    1.000
    Ga21     Ga       0.21780    0.58398    0.41274    1.000
    P19      P        0.32371    0.71900    0.38277    1.000
    P20      P        0.27645    0.93066    0.60647    1.000
    P21      P        0.07577    0.69554    0.40141    1.000
    F13      F        0.29840    0.75522    0.67010    1.000
    F14      F        0.21266    0.64356    0.58190    1.000
    O73      O        0.25468    0.76399    0.42540    1.000
    O74      O        0.21070    0.87400    0.59180    1.000
    O75      O        0.10568    0.75023    0.50620    1.000
    O76      O        0.34768    0.74746    0.24930    1.000
    O77      O        0.39150    0.73207    0.47170    1.000
    O78      O        0.30884    0.62999    0.38140    1.000
    O79      O        0.35364    0.89354    0.58050    1.000
    O80      O        0.07657    0.74073    0.27330    1.000
    O81      O        0.99653    0.66816    0.43430    1.000
    O82      O        0.27788    0.96881    0.74140    1.000
    O83      O        0.26534    0.99350    0.50240    1.000
    O84      O        0.12196    0.61888    0.38580    1.000
    Ga22     Ga       0.29788    0.73997    0.08722    1.000
    Ga23     Ga       0.10154    0.70173    0.11248    1.000
    Ga24     Ga       0.28220    0.91602    0.91274    1.000
    P22      P        0.17629    0.78100    0.88277    1.000
    P23      P        0.22355    0.56934    0.10647    1.000
    P24      P        0.42423    0.80446    0.90141    1.000
    F15      F        0.20160    0.74478    0.17010    1.000
    F16      F        0.28734    0.85644    0.08190    1.000
    O85      O        0.24532    0.73601    0.92540    1.000
    O86      O        0.28930    0.62600    0.09180    1.000
    O87      O        0.39432    0.74977    0.00620    1.000
    O88      O        0.15232    0.75254    0.74930    1.000
    O89      O        0.10850    0.76793    0.97170    1.000
    O90      O        0.19116    0.87001    0.88140    1.000
    O91      O        0.14636    0.60646    0.08050    1.000
    O92      O        0.42343    0.75927    0.77330    1.000
    O93      O        0.50347    0.83184    0.93430    1.000
    O94      O        0.22212    0.53119    0.24140    1.000
    O95      O        0.23466    0.50650    0.00240    1.000
    O96      O        0.37804    0.88112    0.88580    1.000
    Rb1      Rb       0.50000    0.00000    0.50000    1.000
    Rb2      Rb       0.00000    0.50000    0.00000    1.000
    Rb3      Rb       0.50000    0.00000    0.00000    1.000
    Rb4      Rb       0.00000    0.50000    0.50000    1.000
