data_functionalizedCrystal
_audit_creation_method	'EQeq! by Chris Wilmer'
_symmetry_space_group_name_H-M	'P1'
_symmetry_Int_Tables_number	1
_symmetry_cell_setting	triclinic
loop_
_symmetry_equiv_pos_as_xyz
  x,y,z
_cell_length_a	22.18
_cell_length_b	22.18
_cell_length_c	26.8823
_cell_angle_alpha	114.364
_cell_angle_beta	114.364
_cell_angle_gamma	90.0001
loop_
_atom_site_label
_atom_site_type_symbol
_atom_site_fract_x
_atom_site_fract_y
_atom_site_fract_z
_atom_site_charge
Mof_Cd	Cd	0.44336	0.94547	0.14983	0.483
Mof_Cd	Cd	0.70647	0.20436	0.14983	0.483
Mof_Cd	Cd	0.05453	0.29353	0.85017	0.479
Mof_Cd	Cd	0.79564	0.55664	0.85017	0.482
Mof_Cd	Cd	0.54353	0.80453	0.35017	0.482
Mof_Cd	Cd	0.80664	0.54564	0.35017	0.482
Mof_Cd	Cd	0.45436	0.45647	0.64983	0.482
Mof_Cd	Cd	0.19547	0.19336	0.64983	0.482
Mof_Cd	Cd	0.49285	0.875	0.25	0.514
Mof_Cd	Cd	0.75715	0.375	0.25	0.515
Mof_Cd	Cd	0.125	0.24285	0.75	0.513
Mof_Cd	Cd	0.625	0.50715	0.75	0.514
Mof_H 	H 	0.6317	0.1252	0.3378	0.054
Mof_H 	H 	0.7381	0.1667	0.4216	0.055
Mof_H 	H 	0.6595	0.9352	0.3	0.078
Mof_H 	H 	0.8757	0.1221	0.4148	0.048
Mof_H 	H 	0.9858	0.1612	0.4946	0.049
Mof_H 	H 	0.923	0.133	0.6032	0.082
Mof_H 	H 	0.7617	0.8848	0.4136	0.133
Mof_H 	H 	0.7485	0.8631	0.346	0.123
Mof_H 	H 	0.6953	0.8946	0.3678	0.135
Mof_H 	H 	0.8492	0.1066	0.6196	0.108
Mof_H 	H 	0.8579	0.0359	0.5786	0.124
Mof_H 	H 	0.7895	0.0438	0.5826	0.109
Mof_H 	H 	0.3338	0.8141	0.194	0.081
Mof_H 	H 	0.201	0.629	0.1636	0.055
Mof_H 	H 	0.3175	0.6616	0.2364	0.04
Mof_H 	H 	0.1012	0.7573	0.1116	0.056
Mof_H 	H 	0.9895	0.7253	0.0362	0.074
Mof_H 	H 	0.0246	0.5362	0.9616	0.088
Mof_H 	H 	0.2567	0.8733	0.1452	0.115
Mof_H 	H 	0.2314	0.8423	0.0742	0.121
Mof_H 	H 	0.2964	0.8251	0.1148	0.119
Mof_H 	H 	0.1251	0.4666	0.032	0.137
Mof_H 	H 	0.1645	0.4633	0.9944	0.147
Mof_H 	H 	0.0881	0.4681	0.9688	0.146
Mof_H 	H 	0.7061	0.2126	0.3378	0.054
Mof_H 	H 	0.6835	0.2549	0.4216	0.055
Mof_H 	H 	0.6405	0.3648	0.3	0.078
Mof_H 	H 	0.5391	0.2927	0.4148	0.05
Mof_H 	H 	0.5088	0.3334	0.4946	0.045
Mof_H 	H 	0.6802	0.4702	0.6032	0.079
Mof_H 	H 	0.6519	0.5288	0.4136	0.133
Mof_H 	H 	0.5975	0.4829	0.346	0.123
Mof_H 	H 	0.6725	0.4732	0.3678	0.135
Mof_H 	H 	0.7704	0.513	0.6196	0.108
Mof_H 	H 	0.7207	0.5427	0.5786	0.124
Mof_H 	H 	0.7931	0.5388	0.5826	0.109
Mof_H 	H 	0.8602	0.3799	0.194	0.081
Mof_H 	H 	0.9626	0.5346	0.1636	0.058
Mof_H 	H 	0.9189	0.5748	0.2364	0.039
Mof_H 	H 	0.0104	0.3543	0.1116	0.046
Mof_H 	H 	0.0467	0.3109	0.0362	0.071
Mof_H 	H 	0.937	0.4254	0.9616	0.09
Mof_H 	H 	0.8885	0.2719	0.1452	0.117
Mof_H 	H 	0.8428	0.2319	0.0742	0.123
Mof_H 	H 	0.8184	0.2897	0.1148	0.121
Mof_H 	H 	0.9069	0.5654	0.032	0.14
Mof_H 	H 	0.8299	0.5311	0.9944	0.149
Mof_H 	H 	0.8807	0.5007	0.9688	0.148
Mof_H 	H 	0.8748	0.2939	0.6622	0.061
Mof_H 	H 	0.8333	0.3165	0.5784	0.049
Mof_H 	H 	0.0648	0.3595	0.7	0.089
Mof_H 	H 	0.8779	0.4609	0.5852	0.052
Mof_H 	H 	0.8388	0.4912	0.5054	0.044
Mof_H 	H 	0.867	0.3198	0.3968	0.078
Mof_H 	H 	0.1152	0.3481	0.5864	0.13
Mof_H 	H 	0.1369	0.4025	0.654	0.119
Mof_H 	H 	0.1054	0.3275	0.6322	0.132
Mof_H 	H 	0.8934	0.2296	0.3804	0.109
Mof_H 	H 	0.9641	0.2793	0.4214	0.127
Mof_H 	H 	0.9562	0.2069	0.4174	0.111
Mof_H 	H 	0.1859	0.1398	0.806	0.081
Mof_H 	H 	0.371	0.0374	0.8364	0.054
Mof_H 	H 	0.3384	0.0811	0.7636	0.04
Mof_H 	H 	0.2427	0.9896	0.8884	0.063
Mof_H 	H 	0.2747	0.9533	0.9638	0.058
Mof_H 	H 	0.4638	0.063	0.0384	0.085
Mof_H 	H 	0.1267	0.1115	0.8548	0.115
Mof_H 	H 	0.1577	0.1572	0.9258	0.122
Mof_H 	H 	0.1749	0.1816	0.8852	0.12
Mof_H 	H 	0.5334	0.0931	0.968	0.127
Mof_H 	H 	0.5367	0.1701	0.0056	0.13
Mof_H 	H 	0.5319	0.1193	0.0312	0.131
Mof_H 	H 	0.7874	0.3683	0.6622	0.054
Mof_H 	H 	0.7451	0.2619	0.5784	0.055
Mof_H 	H 	0.6352	0.3405	0.7	0.078
Mof_H 	H 	0.7073	0.1243	0.5852	0.05
Mof_H 	H 	0.6666	0.0142	0.5054	0.045
Mof_H 	H 	0.5298	0.077	0.3968	0.08
Mof_H 	H 	0.4712	0.2383	0.5864	0.133
Mof_H 	H 	0.5171	0.2515	0.654	0.123
Mof_H 	H 	0.5268	0.3047	0.6322	0.136
Mof_H 	H 	0.487	0.1508	0.3804	0.107
Mof_H 	H 	0.4573	0.1421	0.4214	0.124
Mof_H 	H 	0.4612	0.2105	0.4174	0.109
Mof_H 	H 	0.6201	0.6662	0.806	0.082
Mof_H 	H 	0.4654	0.799	0.8364	0.054
Mof_H 	H 	0.4252	0.6825	0.7636	0.04
Mof_H 	H 	0.6457	0.8988	0.8884	0.064
Mof_H 	H 	0.6891	0.0105	0.9638	0.059
Mof_H 	H 	0.5746	0.9754	0.0384	0.086
Mof_H 	H 	0.7281	0.7433	0.8548	0.116
Mof_H 	H 	0.7681	0.7686	0.9258	0.123
Mof_H 	H 	0.7103	0.7036	0.8852	0.12
Mof_H 	H 	0.4346	0.8749	0.968	0.126
Mof_H 	H 	0.4689	0.8355	0.0056	0.13
Mof_H 	H 	0.4993	0.9119	0.0312	0.13
Mof_H 	H 	0.5439	0.6248	0.1622	0.054
Mof_H 	H 	0.5665	0.5833	0.0784	0.054
Mof_H 	H 	0.6095	0.8148	0.2	0.078
Mof_H 	H 	0.7109	0.6279	0.0852	0.053
Mof_H 	H 	0.7412	0.5888	0.0054	0.037
Mof_H 	H 	0.5698	0.617	0.8968	0.078
Mof_H 	H 	0.5981	0.8652	0.0864	0.133
Mof_H 	H 	0.6525	0.8869	0.154	0.122
Mof_H 	H 	0.5775	0.8554	0.1322	0.135
Mof_H 	H 	0.4796	0.6434	0.8804	0.108
Mof_H 	H 	0.5293	0.7141	0.9214	0.124
Mof_H 	H 	0.4569	0.7062	0.9174	0.109
Mof_H 	H 	0.3898	0.9359	0.306	0.082
Mof_H 	H 	0.2874	0.121	0.3364	0.053
Mof_H 	H 	0.3311	0.0884	0.2636	0.041
Mof_H 	H 	0.2396	0.9927	0.3884	0.064
Mof_H 	H 	0.2033	0.0247	0.4638	0.057
Mof_H 	H 	0.313	0.2138	0.5384	0.083
Mof_H 	H 	0.3615	0.8767	0.3548	0.115
Mof_H 	H 	0.4072	0.9077	0.4258	0.122
Mof_H 	H 	0.4316	0.9249	0.3852	0.12
Mof_H 	H 	0.3431	0.2834	0.468	0.133
Mof_H 	H 	0.4201	0.2867	0.5056	0.139
Mof_H 	H 	0.3693	0.2819	0.5312	0.14
Mof_H 	H 	0.6183	0.5374	0.1622	0.054
Mof_H 	H 	0.5119	0.4951	0.0784	0.054
Mof_H 	H 	0.5905	0.3852	0.2	0.078
Mof_H 	H 	0.3743	0.4573	0.0852	0.053
Mof_H 	H 	0.2642	0.4166	0.0054	0.037
Mof_H 	H 	0.327	0.2798	0.8968	0.078
Mof_H 	H 	0.4883	0.2212	0.0864	0.133
Mof_H 	H 	0.5015	0.2671	0.154	0.122
Mof_H 	H 	0.5547	0.2768	0.1322	0.135
Mof_H 	H 	0.4008	0.237	0.8804	0.108
Mof_H 	H 	0.3921	0.2073	0.9214	0.124
Mof_H 	H 	0.4605	0.2112	0.9174	0.109
Mof_H 	H 	0.9162	0.3701	0.306	0.078
Mof_H 	H 	0.049	0.2154	0.3364	0.059
Mof_H 	H 	0.9325	0.1752	0.2636	0.036
Mof_H 	H 	0.1488	0.3957	0.3884	0.063
Mof_H 	H 	0.2605	0.4391	0.4638	0.058
Mof_H 	H 	0.2254	0.3246	0.5384	0.084
Mof_H 	H 	0.9933	0.4781	0.3548	0.106
Mof_H 	H 	0.0186	0.5181	0.4258	0.106
Mof_H 	H 	0.9536	0.4603	0.3852	0.109
Mof_H 	H 	0.1249	0.1846	0.468	0.131
Mof_H 	H 	0.0855	0.2189	0.5056	0.137
Mof_H 	H 	0.1619	0.2493	0.5312	0.139
Mof_H 	H 	0.4626	0.4561	0.8378	0.054
Mof_H 	H 	0.5049	0.4335	0.9216	0.056
Mof_H 	H 	0.6148	0.3905	0.8	0.077
Mof_H 	H 	0.5427	0.2891	0.9148	0.047
Mof_H 	H 	0.5834	0.2588	0.9946	0.052
Mof_H 	H 	0.7202	0.4302	0.1032	0.08
Mof_H 	H 	0.7788	0.4019	0.9136	0.134
Mof_H 	H 	0.7329	0.3475	0.846	0.123
Mof_H 	H 	0.7232	0.4225	0.8678	0.136
Mof_H 	H 	0.763	0.5204	0.1196	0.107
Mof_H 	H 	0.7927	0.4707	0.0786	0.123
Mof_H 	H 	0.7888	0.5431	0.0826	0.108
Mof_H 	H 	0.6299	0.6102	0.694	0.082
Mof_H 	H 	0.7846	0.7126	0.6636	0.054
Mof_H 	H 	0.8248	0.6689	0.7364	0.041
Mof_H 	H 	0.6043	0.7604	0.6116	0.064
Mof_H 	H 	0.5609	0.7967	0.5362	0.057
Mof_H 	H 	0.6754	0.687	0.4616	0.083
Mof_H 	H 	0.5219	0.6385	0.6452	0.116
Mof_H 	H 	0.4819	0.5928	0.5742	0.122
Mof_H 	H 	0.5397	0.5684	0.6148	0.12
Mof_H 	H 	0.8154	0.6569	0.532	0.134
Mof_H 	H 	0.7811	0.5799	0.4944	0.14
Mof_H 	H 	0.7507	0.6307	0.4688	0.14
Mof_H 	H 	0.3752	0.3817	0.8378	0.054
Mof_H 	H 	0.4167	0.4881	0.9216	0.056
Mof_H 	H 	0.1852	0.4095	0.8	0.077
Mof_H 	H 	0.3721	0.6257	0.9148	0.046
Mof_H 	H 	0.4112	0.7358	0.9946	0.052
Mof_H 	H 	0.383	0.673	0.1032	0.08
Mof_H 	H 	0.1348	0.5117	0.9136	0.133
Mof_H 	H 	0.1131	0.4985	0.846	0.121
Mof_H 	H 	0.1446	0.4453	0.8678	0.135
Mof_H 	H 	0.3566	0.5992	0.1196	0.107
Mof_H 	H 	0.2859	0.6079	0.0786	0.123
Mof_H 	H 	0.2938	0.5395	0.0826	0.108
Mof_H 	H 	0.0641	0.0838	0.694	0.092
Mof_H 	H 	0.879	0.951	0.6636	0.05
Mof_H 	H 	0.9116	0.0675	0.7364	0.047
Mof_H 	H 	0.0073	0.8512	0.6116	0.056
Mof_H 	H 	0.9753	0.7395	0.5362	0.062
Mof_H 	H 	0.7862	0.7746	0.4616	0.084
Mof_H 	H 	0.1233	0.0067	0.6452	0.112
Mof_H 	H 	0.0923	0.9814	0.5742	0.118
Mof_H 	H 	0.0751	0.0464	0.6148	0.115
Mof_H 	H 	0.7166	0.8751	0.532	0.133
Mof_H 	H 	0.7133	0.9145	0.4944	0.139
Mof_H 	H 	0.7181	0.8381	0.4688	0.14
Mof_C 	C 	0.57035	0.99535	0.2533	0.276
Mof_C 	C 	0.63512	0.02612	0.31064	-0.028
Mof_C 	C 	0.65862	0.09542	0.34704	-0.026
Mof_C 	C 	0.72229	0.12029	0.39718	-0.053
Mof_C 	C 	0.76247	0.07577	0.41094	-0.002
Mof_C 	C 	0.73887	0.00647	0.37454	0.097
Mof_C 	C 	0.6752	0.9816	0.3244	-0.094
Mof_C 	C 	0.83349	0.10309	0.46198	-0.013
Mof_C 	C 	0.88469	0.12389	0.45238	-0.048
Mof_C 	C 	0.95081	0.14801	0.50082	-0.016
Mof_C 	C 	0.96466	0.15246	0.55732	-0.037
Mof_C 	C 	0.91354	0.13074	0.56528	-0.09
Mof_C 	C 	0.84731	0.10501	0.51842	0.122
Mof_C 	C 	0.03488	0.17278	0.60716	0.325
Mof_C 	C 	0.74269	0.89559	0.37978	-0.28
Mof_C 	C 	0.8267	0.0655	0.5822	-0.237
Mof_C 	C 	0.4077	0.767	0.2714	0.312
Mof_C 	C 	0.33619	0.73759	0.22158	-0.052
Mof_C 	C 	0.30931	0.77421	0.18582	-0.092
Mof_C 	C 	0.24452	0.74542	0.13884	0.095
Mof_C 	C 	0.20305	0.69425	0.1281	-0.004
Mof_C 	C 	0.22917	0.66327	0.16734	-0.063
Mof_C 	C 	0.29914	0.68464	0.21328	-0.025
Mof_C 	C 	0.13064	0.66994	0.08048	-0.023
Mof_C 	C 	0.08554	0.71314	0.08048	-0.025
Mof_C 	C 	0.0177	0.6943	0.0362	-0.07
Mof_C 	C 	0.99441	0.62661	0.99202	-0.005
Mof_C 	C 	0.03896	0.58106	0.99152	-0.122
Mof_C 	C 	0.10371	0.60551	0.03642	0.117
Mof_C 	C 	0.92507	0.60207	0.94214	0.258
Mof_C 	C 	0.25242	0.83422	0.10944	-0.243
Mof_C 	C 	0.13009	0.48219	0.00518	-0.327
Mof_C 	C 	0.68295	0.25795	0.2533	0.278
Mof_C 	C 	0.67552	0.28452	0.31064	-0.03
Mof_C 	C 	0.68842	0.25162	0.34704	-0.024
Mof_C 	C 	0.67489	0.27689	0.39718	-0.054
Mof_C 	C 	0.64847	0.33517	0.41094	-0.002
Mof_C 	C 	0.63567	0.36807	0.37454	0.095
Mof_C 	C 	0.6492	0.3428	0.3244	-0.091
Mof_C 	C 	0.62849	0.35889	0.46198	-0.011
Mof_C 	C 	0.56769	0.32849	0.45238	-0.052
Mof_C 	C 	0.55001	0.35281	0.50082	-0.01
Mof_C 	C 	0.59266	0.40486	0.55732	-0.048
Mof_C 	C 	0.65174	0.43454	0.56528	-0.085
Mof_C 	C 	0.67111	0.41341	0.51842	0.119
Mof_C 	C 	0.57228	0.43438	0.60716	0.333
Mof_C 	C 	0.63709	0.48419	0.37978	-0.28
Mof_C 	C 	0.7555	0.5167	0.5822	-0.238
Mof_C 	C 	0.8637	0.5044	0.2714	0.313
Mof_C 	C 	0.88539	0.48399	0.22158	-0.053
Mof_C 	C 	0.87651	0.41161	0.18582	-0.089
Mof_C 	C 	0.89432	0.39342	0.13884	0.093
Mof_C 	C 	0.92505	0.43385	0.1281	0.001
Mof_C 	C 	0.93817	0.50407	0.16734	-0.066
Mof_C 	C 	0.91414	0.52864	0.21328	-0.021
Mof_C 	C 	0.94984	0.41054	0.08048	-0.03
Mof_C 	C 	0.99494	0.36734	0.08048	-0.004
Mof_C 	C 	0.0185	0.3419	0.0362	-0.076
Mof_C 	C 	0.99761	0.36541	0.99202	-0.003
Mof_C 	C 	0.95256	0.41046	0.99152	-0.118
Mof_C 	C 	0.93271	0.43091	0.03642	0.12
Mof_C 	C 	0.01707	0.34007	0.94214	0.252
Mof_C 	C 	0.85702	0.27522	0.10944	-0.246
Mof_C 	C 	0.87509	0.52299	0.00518	-0.331
Mof_C 	C 	0.00465	0.31705	0.7467	0.258
Mof_C 	C 	0.97388	0.32448	0.68936	-0
Mof_C 	C 	0.90458	0.31158	0.65296	-0.045
Mof_C 	C 	0.87971	0.32511	0.60282	-0.036
Mof_C 	C 	0.92423	0.35153	0.58906	-0.016
Mof_C 	C 	0.99353	0.36433	0.62546	0.12
Mof_C 	C 	0.0184	0.3508	0.6756	-0.127
Mof_C 	C 	0.89691	0.37151	0.53802	-0.003
Mof_C 	C 	0.87611	0.43231	0.54762	-0.057
Mof_C 	C 	0.85199	0.44999	0.49918	-0.007
Mof_C 	C 	0.84754	0.40734	0.44268	-0.05
Mof_C 	C 	0.86926	0.34826	0.43472	-0.082
Mof_C 	C 	0.89499	0.32889	0.48158	0.115
Mof_C 	C 	0.82722	0.42772	0.39284	0.334
Mof_C 	C 	0.10441	0.36291	0.62022	-0.27
Mof_C 	C 	0.9345	0.2445	0.4178	-0.243
Mof_C 	C 	0.233	0.1363	0.7286	0.312
Mof_C 	C 	0.26241	0.11461	0.77842	-0.051
Mof_C 	C 	0.22579	0.12349	0.81418	-0.093
Mof_C 	C 	0.25458	0.10568	0.86116	0.097
Mof_C 	C 	0.30575	0.07495	0.8719	-0.008
Mof_C 	C 	0.33673	0.06183	0.83266	-0.061
Mof_C 	C 	0.31536	0.08586	0.78672	-0.026
Mof_C 	C 	0.33006	0.05016	0.91952	-0.013
Mof_C 	C 	0.28686	0.00506	0.91952	-0.044
Mof_C 	C 	0.3057	0.9815	0.9638	-0.03
Mof_C 	C 	0.37339	0.00239	0.00798	-0.035
Mof_C 	C 	0.41894	0.04744	0.00848	-0.109
Mof_C 	C 	0.39449	0.06729	0.96358	0.116
Mof_C 	C 	0.39793	0.98293	0.05786	0.267
Mof_C 	C 	0.16578	0.14298	0.89056	-0.243
Mof_C 	C 	0.51781	0.12491	0.99482	-0.284
Mof_C 	C 	0.74205	0.42965	0.7467	0.278
Mof_C 	C 	0.71548	0.36488	0.68936	-0.03
Mof_C 	C 	0.74838	0.34138	0.65296	-0.024
Mof_C 	C 	0.72311	0.27771	0.60282	-0.054
Mof_C 	C 	0.66483	0.23753	0.58906	-0.002
Mof_C 	C 	0.63193	0.26113	0.62546	0.095
Mof_C 	C 	0.6572	0.3248	0.6756	-0.091
Mof_C 	C 	0.64111	0.16651	0.53802	-0.011
Mof_C 	C 	0.67151	0.11531	0.54762	-0.052
Mof_C 	C 	0.64719	0.04919	0.49918	-0.011
Mof_C 	C 	0.59514	0.03534	0.44268	-0.047
Mof_C 	C 	0.56546	0.08646	0.43472	-0.085
Mof_C 	C 	0.58659	0.15269	0.48158	0.119
Mof_C 	C 	0.56562	0.96512	0.39284	0.332
Mof_C 	C 	0.51581	0.25731	0.62022	-0.28
Mof_C 	C 	0.4833	0.1733	0.4178	-0.237
Mof_C 	C 	0.4956	0.5923	0.7286	0.312
Mof_C 	C 	0.51601	0.66381	0.77842	-0.051
Mof_C 	C 	0.58839	0.69069	0.81418	-0.093
Mof_C 	C 	0.60658	0.75548	0.86116	0.097
Mof_C 	C 	0.56615	0.79695	0.8719	-0.008
Mof_C 	C 	0.49593	0.77083	0.83266	-0.061
Mof_C 	C 	0.47136	0.70086	0.78672	-0.026
Mof_C 	C 	0.58946	0.86936	0.91952	-0.014
Mof_C 	C 	0.63266	0.91446	0.91952	-0.044
Mof_C 	C 	0.6581	0.9823	0.9638	-0.031
Mof_C 	C 	0.63459	0.00559	0.00798	-0.034
Mof_C 	C 	0.58954	0.96104	0.00848	-0.111
Mof_C 	C 	0.56909	0.89629	0.96358	0.117
Mof_C 	C 	0.65993	0.07493	0.05786	0.267
Mof_C 	C 	0.72478	0.74758	0.89056	-0.245
Mof_C 	C 	0.47701	0.86991	0.99482	-0.283
Mof_C 	C 	0.56705	0.75465	0.2467	0.278
Mof_C 	C 	0.57448	0.72388	0.18936	-0.03
Mof_C 	C 	0.56158	0.65458	0.15296	-0.025
Mof_C 	C 	0.57511	0.62971	0.10282	-0.053
Mof_C 	C 	0.60153	0.67423	0.08906	-0.003
Mof_C 	C 	0.61433	0.74353	0.12546	0.096
Mof_C 	C 	0.6008	0.7684	0.1756	-0.092
Mof_C 	C 	0.62151	0.64691	0.03802	-0.01
Mof_C 	C 	0.68231	0.62611	0.04762	-0.062
Mof_C 	C 	0.69999	0.60199	0.99918	0.005
Mof_C 	C 	0.65734	0.59754	0.94268	-0.054
Mof_C 	C 	0.59826	0.61926	0.93472	-0.081
Mof_C 	C 	0.57889	0.64499	0.98158	0.119
Mof_C 	C 	0.67772	0.57722	0.89284	0.335
Mof_C 	C 	0.61291	0.85441	0.12022	-0.279
Mof_C 	C 	0.4945	0.6845	0.9178	-0.239
Mof_C 	C 	0.3863	0.983	0.2286	0.31
Mof_C 	C 	0.36461	0.01241	0.27842	-0.048
Mof_C 	C 	0.37349	0.97579	0.31418	-0.096
Mof_C 	C 	0.35568	0.00458	0.36116	0.099
Mof_C 	C 	0.32495	0.05575	0.3719	-0.01
Mof_C 	C 	0.31183	0.08673	0.33266	-0.059
Mof_C 	C 	0.33586	0.06536	0.28672	-0.028
Mof_C 	C 	0.30016	0.08006	0.41952	-0.01
Mof_C 	C 	0.25506	0.03686	0.41952	-0.046
Mof_C 	C 	0.2315	0.0557	0.4638	-0.031
Mof_C 	C 	0.25239	0.12339	0.50798	-0.035
Mof_C 	C 	0.29744	0.16894	0.50848	-0.103
Mof_C 	C 	0.31729	0.14449	0.46358	0.11
Mof_C 	C 	0.23293	0.14793	0.55786	0.268
Mof_C 	C 	0.39298	0.91578	0.39056	-0.243
Mof_C 	C 	0.37491	0.26781	0.49482	-0.308
Mof_C 	C 	0.67965	0.49205	0.2467	0.278
Mof_C 	C 	0.61488	0.46548	0.18936	-0.03
Mof_C 	C 	0.59138	0.49838	0.15296	-0.025
Mof_C 	C 	0.52771	0.47311	0.10282	-0.053
Mof_C 	C 	0.48753	0.41483	0.08906	-0.003
Mof_C 	C 	0.51113	0.38193	0.12546	0.096
Mof_C 	C 	0.5748	0.4072	0.1756	-0.092
Mof_C 	C 	0.41651	0.39111	0.03802	-0.01
Mof_C 	C 	0.36531	0.42151	0.04762	-0.062
Mof_C 	C 	0.29919	0.39719	0.99918	0.004
Mof_C 	C 	0.28534	0.34514	0.94268	-0.053
Mof_C 	C 	0.33646	0.31546	0.93472	-0.082
Mof_C 	C 	0.40269	0.33659	0.98158	0.119
Mof_C 	C 	0.21512	0.31562	0.89284	0.335
Mof_C 	C 	0.50731	0.26581	0.12022	-0.279
Mof_C 	C 	0.4233	0.2333	0.9178	-0.239
Mof_C 	C 	0.8423	0.2456	0.2286	0.315
Mof_C 	C 	0.91381	0.26601	0.27842	-0.06
Mof_C 	C 	0.94069	0.33839	0.31418	-0.079
Mof_C 	C 	0.00548	0.35658	0.36116	0.086
Mof_C 	C 	0.04695	0.31615	0.3719	-0
Mof_C 	C 	0.02083	0.24593	0.33266	-0.077
Mof_C 	C 	0.95086	0.22136	0.28672	-0.009
Mof_C 	C 	0.11936	0.33946	0.41952	-0.015
Mof_C 	C 	0.16446	0.38266	0.41952	-0.043
Mof_C 	C 	0.2323	0.4081	0.4638	-0.033
Mof_C 	C 	0.25559	0.38459	0.50798	-0.034
Mof_C 	C 	0.21104	0.33954	0.50848	-0.105
Mof_C 	C 	0.14629	0.31909	0.46358	0.112
Mof_C 	C 	0.32493	0.40993	0.55786	0.267
Mof_C 	C 	0.99758	0.47478	0.39056	-0.202
Mof_C 	C 	0.11991	0.22701	0.49482	-0.305
Mof_C 	C 	0.50795	0.43295	0.7533	0.278
Mof_C 	C 	0.53452	0.42552	0.81064	-0.03
Mof_C 	C 	0.50162	0.43842	0.84704	-0.024
Mof_C 	C 	0.52689	0.42489	0.89718	-0.054
Mof_C 	C 	0.58517	0.39847	0.91094	-0
Mof_C 	C 	0.61807	0.38567	0.87454	0.095
Mof_C 	C 	0.5928	0.3992	0.8244	-0.091
Mof_C 	C 	0.60889	0.37849	0.96198	-0.012
Mof_C 	C 	0.57849	0.31769	0.95238	-0.042
Mof_C 	C 	0.60281	0.30001	0.00082	-0.025
Mof_C 	C 	0.65486	0.34266	0.05732	-0.042
Mof_C 	C 	0.68454	0.40174	0.06528	-0.088
Mof_C 	C 	0.66341	0.42111	0.01842	0.118
Mof_C 	C 	0.68438	0.32228	0.10716	0.33
Mof_C 	C 	0.73419	0.38709	0.87978	-0.281
Mof_C 	C 	0.7667	0.5055	0.0822	-0.236
Mof_C 	C 	0.7544	0.6137	0.7714	0.311
Mof_C 	C 	0.73399	0.63539	0.72158	-0.05
Mof_C 	C 	0.66161	0.62651	0.68582	-0.094
Mof_C 	C 	0.64342	0.64432	0.63884	0.098
Mof_C 	C 	0.68385	0.67505	0.6281	-0.009
Mof_C 	C 	0.75407	0.68817	0.66734	-0.06
Mof_C 	C 	0.77864	0.66414	0.71328	-0.027
Mof_C 	C 	0.66054	0.69984	0.58048	-0.01
Mof_C 	C 	0.61734	0.74494	0.58048	-0.046
Mof_C 	C 	0.5919	0.7685	0.5362	-0.031
Mof_C 	C 	0.61541	0.74761	0.49202	-0.035
Mof_C 	C 	0.66046	0.70256	0.49152	-0.103
Mof_C 	C 	0.68091	0.68271	0.53642	0.11
Mof_C 	C 	0.59007	0.76707	0.44214	0.268
Mof_C 	C 	0.52522	0.60702	0.60944	-0.243
Mof_C 	C 	0.77299	0.62509	0.50518	-0.309
Mof_C 	C 	0.24535	0.32035	0.7533	0.278
Mof_C 	C 	0.27612	0.38512	0.81064	-0.031
Mof_C 	C 	0.34542	0.40862	0.84704	-0.023
Mof_C 	C 	0.37029	0.47229	0.89718	-0.055
Mof_C 	C 	0.32577	0.51247	0.91094	-0
Mof_C 	C 	0.25647	0.48887	0.87454	0.095
Mof_C 	C 	0.2316	0.4252	0.8244	-0.091
Mof_C 	C 	0.35309	0.58349	0.96198	-0.012
Mof_C 	C 	0.37389	0.63469	0.95238	-0.042
Mof_C 	C 	0.39801	0.70081	0.00082	-0.025
Mof_C 	C 	0.40246	0.71466	0.05732	-0.042
Mof_C 	C 	0.38074	0.66354	0.06528	-0.089
Mof_C 	C 	0.35501	0.59731	0.01842	0.118
Mof_C 	C 	0.42278	0.78488	0.10716	0.33
Mof_C 	C 	0.14559	0.49269	0.87978	-0.279
Mof_C 	C 	0.3155	0.5767	0.0822	-0.236
Mof_C 	C 	0.017	0.1577	0.7714	0.291
Mof_C 	C 	0.98759	0.08619	0.72158	-0.023
Mof_C 	C 	0.02421	0.05931	0.68582	-0.124
Mof_C 	C 	0.99542	0.99452	0.63884	0.12
Mof_C 	C 	0.94425	0.95305	0.6281	-0.02
Mof_C 	C 	0.91327	0.97917	0.66734	-0.047
Mof_C 	C 	0.93464	0.04914	0.71328	-0.044
Mof_C 	C 	0.91994	0.88064	0.58048	-0.011
Mof_C 	C 	0.96314	0.83554	0.58048	-0.033
Mof_C 	C 	0.9443	0.7677	0.5362	-0.037
Mof_C 	C 	0.87661	0.74441	0.49202	-0.032
Mof_C 	C 	0.83106	0.78896	0.49152	-0.105
Mof_C 	C 	0.85551	0.85371	0.53642	0.111
Mof_C 	C 	0.85207	0.67507	0.44214	0.266
Mof_C 	C 	0.08422	0.00242	0.60944	-0.231
Mof_C 	C 	0.73219	0.88009	0.50518	-0.308
Mof_O 	O 	0.53568	0.04046	0.2389	-0.233
Mof_O 	O 	0.54726	0.93541	0.22242	-0.305
Mof_O 	O 	0.08317	0.17978	0.59286	-0.284
Mof_O 	O 	0.0434	0.19201	0.65762	-0.314
Mof_O 	O 	0.7764	0.9623	0.39812	-0.139
Mof_O 	O 	0.80223	0.08044	0.53192	-0.153
Mof_O 	O 	0.44014	0.81784	0.28114	-0.315
Mof_O 	O 	0.43442	0.73105	0.29782	-0.271
Mof_O 	O 	0.88313	0.64324	0.94188	-0.247
Mof_O 	O 	0.90102	0.54252	0.90364	-0.268
Mof_O 	O 	0.21318	0.7793	0.1009	-0.144
Mof_O 	O 	0.15087	0.56068	0.03828	-0.157
Mof_O 	O 	0.70322	0.19844	0.2389	-0.233
Mof_O 	O 	0.67516	0.28701	0.22242	-0.305
Mof_O 	O 	0.50969	0.41308	0.59286	-0.285
Mof_O 	O 	0.61422	0.46561	0.65762	-0.315
Mof_O 	O 	0.62172	0.43582	0.39812	-0.138
Mof_O 	O 	0.72969	0.45148	0.53192	-0.153
Mof_O 	O 	0.841	0.4633	0.28114	-0.315
Mof_O 	O 	0.8634	0.56677	0.29782	-0.271
Mof_O 	O 	0.05875	0.29864	0.94188	-0.247
Mof_O 	O 	0.00262	0.36112	0.90364	-0.27
Mof_O 	O 	0.88772	0.3216	0.1009	-0.142
Mof_O 	O 	0.88741	0.4776	0.03828	-0.156
Mof_O 	O 	0.95954	0.29678	0.7611	-0.225
Mof_O 	O 	0.06459	0.32484	0.77758	-0.3
Mof_O 	O 	0.82022	0.49031	0.40714	-0.285
Mof_O 	O 	0.80799	0.38578	0.34238	-0.315
Mof_O 	O 	0.0377	0.37828	0.60188	-0.149
Mof_O 	O 	0.91956	0.27031	0.46808	-0.15
Mof_O 	O 	0.18216	0.159	0.71886	-0.315
Mof_O 	O 	0.26895	0.1366	0.70218	-0.271
Mof_O 	O 	0.35676	0.94125	0.05812	-0.251
Mof_O 	O 	0.45748	0.99738	0.09636	-0.271
Mof_O 	O 	0.2207	0.11228	0.8991	-0.144
Mof_O 	O 	0.43932	0.11259	0.96172	-0.161
Mof_O 	O 	0.80156	0.46432	0.7611	-0.233
Mof_O 	O 	0.71299	0.45274	0.77758	-0.305
Mof_O 	O 	0.58692	0.91683	0.40714	-0.285
Mof_O 	O 	0.53439	0.9566	0.34238	-0.315
Mof_O 	O 	0.56418	0.2236	0.60188	-0.138
Mof_O 	O 	0.54852	0.19777	0.46808	-0.153
Mof_O 	O 	0.5367	0.55986	0.71886	-0.315
Mof_O 	O 	0.43323	0.56558	0.70218	-0.271
Mof_O 	O 	0.70136	0.11687	0.05812	-0.251
Mof_O 	O 	0.63888	0.09898	0.09636	-0.271
Mof_O 	O 	0.6784	0.78682	0.8991	-0.143
Mof_O 	O 	0.5224	0.84913	0.96172	-0.161
Mof_O 	O 	0.54678	0.70954	0.2611	-0.233
Mof_O 	O 	0.57484	0.81459	0.27758	-0.305
Mof_O 	O 	0.74031	0.57022	0.90714	-0.285
Mof_O 	O 	0.63578	0.55799	0.84238	-0.315
Mof_O 	O 	0.62828	0.7877	0.10188	-0.139
Mof_O 	O 	0.52031	0.66956	0.96808	-0.152
Mof_O 	O 	0.409	0.93216	0.21886	-0.314
Mof_O 	O 	0.3866	0.01895	0.20218	-0.27
Mof_O 	O 	0.19125	0.10676	0.55812	-0.251
Mof_O 	O 	0.24738	0.20748	0.59636	-0.272
Mof_O 	O 	0.36228	0.9707	0.3991	-0.145
Mof_O 	O 	0.36259	0.18932	0.46172	-0.157
Mof_O 	O 	0.71432	0.55156	0.2611	-0.234
Mof_O 	O 	0.70274	0.46299	0.27758	-0.305
Mof_O 	O 	0.16683	0.33692	0.90714	-0.285
Mof_O 	O 	0.2066	0.28439	0.84238	-0.315
Mof_O 	O 	0.4736	0.31418	0.10188	-0.139
Mof_O 	O 	0.44777	0.29852	0.96808	-0.152
Mof_O 	O 	0.80986	0.2867	0.21886	-0.316
Mof_O 	O 	0.81558	0.18323	0.20218	-0.272
Mof_O 	O 	0.36687	0.45136	0.55812	-0.25
Mof_O 	O 	0.34898	0.38888	0.59636	-0.271
Mof_O 	O 	0.03682	0.4284	0.3991	-0.153
Mof_O 	O 	0.09913	0.2724	0.46172	-0.159
Mof_O 	O 	0.44844	0.45322	0.7389	-0.234
Mof_O 	O 	0.53701	0.42516	0.72242	-0.305
Mof_O 	O 	0.66308	0.25969	0.09286	-0.285
Mof_O 	O 	0.71561	0.36422	0.15762	-0.314
Mof_O 	O 	0.68582	0.37172	0.89812	-0.138
Mof_O 	O 	0.70148	0.47969	0.03192	-0.154
Mof_O 	O 	0.7133	0.591	0.78114	-0.315
Mof_O 	O 	0.81677	0.6134	0.79782	-0.27
Mof_O 	O 	0.54864	0.80875	0.44188	-0.25
Mof_O 	O 	0.61112	0.75262	0.40364	-0.272
Mof_O 	O 	0.5716	0.63772	0.6009	-0.144
Mof_O 	O 	0.7276	0.63741	0.53828	-0.157
Mof_O 	O 	0.29046	0.28568	0.7389	-0.234
Mof_O 	O 	0.18541	0.29726	0.72242	-0.305
Mof_O 	O 	0.42978	0.83317	0.09286	-0.285
Mof_O 	O 	0.44201	0.7934	0.15762	-0.314
Mof_O 	O 	0.2123	0.5264	0.89812	-0.138
Mof_O 	O 	0.33044	0.55223	0.03192	-0.154
Mof_O 	O 	0.06784	0.19014	0.78114	-0.31
Mof_O 	O 	0.98105	0.18442	0.79782	-0.261
Mof_O 	O 	0.89324	0.63313	0.44188	-0.249
Mof_O 	O 	0.79252	0.65102	0.40364	-0.271
Mof_O 	O 	0.0293	0.96318	0.6009	-0.154
Mof_O 	O 	0.81068	0.90087	0.53828	-0.157
Mof_Cd	Cd	-0	0	-0	0.501
Mof_Cd	Cd	0.25	0.75	0.5	0.51
Mof_H 	H 	0.1806	0.9706	0.1734	0.053
Mof_H 	H 	0.2169	0.9336	0.2494	0.053
Mof_H 	H 	0.9899	0.8788	0.1098	0.094
Mof_H 	H 	0.934	0.8631	0.183	0.072
Mof_H 	H 	0.9229	0.7846	0.1594	0.071
Mof_H 	H 	0.9284	0.8159	0.1184	0.078
Mof_H 	H 	0.9928	0.2028	0.1734	0.061
Mof_H 	H 	0.0325	0.3158	0.2494	0.049
Mof_H 	H 	0.1199	0.231	0.1098	0.087
Mof_H 	H 	0.249	0.3199	0.183	0.075
Mof_H 	H 	0.2365	0.3748	0.1594	0.075
Mof_H 	H 	0.19	0.3025	0.1184	0.082
Mof_H 	H 	0.0294	0.0072	0.8266	0.049
Mof_H 	H 	0.0664	0.9675	0.7506	0.054
Mof_H 	H 	0.1212	0.8801	0.8902	0.085
Mof_H 	H 	0.1369	0.751	0.817	0.076
Mof_H 	H 	0.2154	0.7635	0.8406	0.076
Mof_H 	H 	0.1841	0.81	0.8816	0.084
Mof_H 	H 	0.7972	0.8194	0.8266	0.051
Mof_H 	H 	0.6842	0.7831	0.7506	0.054
Mof_H 	H 	0.769	0.0101	0.8902	0.086
Mof_H 	H 	0.6801	0.066	0.817	0.076
Mof_H 	H 	0.6252	0.0771	0.8406	0.076
Mof_H 	H 	0.6975	0.0716	0.8816	0.084
Mof_H 	H 	0.2572	0.7794	0.3266	0.05
Mof_H 	H 	0.2175	0.8164	0.2506	0.055
Mof_H 	H 	0.1301	0.8712	0.3902	0.084
Mof_H 	H 	0.001	0.8869	0.317	0.073
Mof_H 	H 	0.0135	0.9654	0.3406	0.072
Mof_H 	H 	0.06	0.9341	0.3816	0.081
Mof_H 	H 	0.0694	0.5472	0.3266	0.049
Mof_H 	H 	0.0331	0.4342	0.2506	0.054
Mof_H 	H 	0.2601	0.519	0.3902	0.084
Mof_H 	H 	0.316	0.4301	0.317	0.076
Mof_H 	H 	0.3271	0.3752	0.3406	0.076
Mof_H 	H 	0.3216	0.4475	0.3816	0.084
Mof_H 	H 	0.4528	0.7428	0.6734	0.05
Mof_H 	H 	0.5658	0.7825	0.7494	0.055
Mof_H 	H 	0.481	0.8699	0.6098	0.085
Mof_H 	H 	0.5699	0.999	0.683	0.076
Mof_H 	H 	0.6248	0.9865	0.6594	0.076
Mof_H 	H 	0.5525	0.94	0.6184	0.083
Mof_H 	H 	0.2206	0.9306	0.6734	0.05
Mof_H 	H 	0.1836	0.9669	0.7494	0.055
Mof_H 	H 	0.1288	0.7399	0.6098	0.085
Mof_H 	H 	0.1131	0.684	0.683	0.074
Mof_H 	H 	0.0346	0.6729	0.6594	0.073
Mof_H 	H 	0.0659	0.6784	0.6184	0.081
Mof_C 	C 	0.05815	0.95445	0.0871	0.295
Mof_C 	C 	0.08208	0.92768	0.13436	-0.019
Mof_C 	C 	0.14997	0.94417	0.17614	-0.04
Mof_C 	C 	0.17138	0.92248	0.22136	-0.043
Mof_C 	C 	0.12479	0.88439	0.22458	-0.023
Mof_C 	C 	0.05667	0.86797	0.18294	0.142
Mof_C 	C 	0.03538	0.88968	0.13776	-0.134
Mof_C 	C 	0.94441	0.82231	0.15962	-0.152
Mof_C 	C 	0.02895	0.13265	0.0871	0.295
Mof_C 	C 	0.05228	0.20668	0.13436	-0.018
Mof_C 	C 	0.02617	0.23197	0.17614	-0.053
Mof_C 	C 	0.04998	0.29888	0.22136	-0.038
Mof_C 	C 	0.09979	0.34019	0.22458	-0.023
Mof_C 	C 	0.12627	0.31497	0.18294	0.138
Mof_C 	C 	0.10238	0.24808	0.13776	-0.123
Mof_C 	C 	0.21521	0.33731	0.15962	-0.166
Mof_C 	C 	0.04555	0.97105	0.9129	0.305
Mof_C 	C 	0.07232	0.94772	0.86564	-0.028
Mof_C 	C 	0.05583	0.97383	0.82386	-0.034
Mof_C 	C 	0.07752	0.95002	0.77864	-0.05
Mof_C 	C 	0.11561	0.90021	0.77542	-0.018
Mof_C 	C 	0.13203	0.87373	0.81706	0.133
Mof_C 	C 	0.11032	0.89762	0.86224	-0.116
Mof_C 	C 	0.17769	0.78479	0.84038	-0.169
Mof_C 	C 	0.86735	0.94185	0.9129	0.304
Mof_C 	C 	0.79332	0.91792	0.86564	-0.026
Mof_C 	C 	0.76803	0.85003	0.82386	-0.034
Mof_C 	C 	0.70112	0.82862	0.77864	-0.048
Mof_C 	C 	0.65981	0.87521	0.77542	-0.018
Mof_C 	C 	0.68503	0.94333	0.81706	0.134
Mof_C 	C 	0.75192	0.96462	0.86224	-0.118
Mof_C 	C 	0.66269	0.05559	0.84038	-0.169
Mof_C 	C 	0.22105	0.79555	0.4129	0.306
Mof_C 	C 	0.19772	0.82232	0.36564	-0.028
Mof_C 	C 	0.22383	0.80583	0.32386	-0.032
Mof_C 	C 	0.20002	0.82752	0.27864	-0.051
Mof_C 	C 	0.15021	0.86561	0.27542	-0.015
Mof_C 	C 	0.12373	0.88203	0.31706	0.133
Mof_C 	C 	0.14762	0.86032	0.36224	-0.116
Mof_C 	C 	0.03479	0.92769	0.34038	-0.164
Mof_C 	C 	0.19185	0.61735	0.4129	0.306
Mof_C 	C 	0.16792	0.54332	0.36564	-0.028
Mof_C 	C 	0.10003	0.51803	0.32386	-0.032
Mof_C 	C 	0.07862	0.45112	0.27864	-0.051
Mof_C 	C 	0.12521	0.40981	0.27542	-0.015
Mof_C 	C 	0.19333	0.43503	0.31706	0.132
Mof_C 	C 	0.21462	0.50192	0.36224	-0.115
Mof_C 	C 	0.30559	0.41269	0.34038	-0.17
Mof_C 	C 	0.38265	0.77895	0.5871	0.306
Mof_C 	C 	0.45668	0.80228	0.63436	-0.028
Mof_C 	C 	0.48197	0.77617	0.67614	-0.033
Mof_C 	C 	0.54888	0.79998	0.72136	-0.049
Mof_C 	C 	0.59019	0.84979	0.72458	-0.017
Mof_C 	C 	0.56497	0.87627	0.68294	0.133
Mof_C 	C 	0.49808	0.85238	0.63776	-0.116
Mof_C 	C 	0.58731	0.96521	0.65962	-0.169
Mof_C 	C 	0.20445	0.80815	0.5871	0.306
Mof_C 	C 	0.17768	0.83208	0.63436	-0.028
Mof_C 	C 	0.19417	0.89997	0.67614	-0.033
Mof_C 	C 	0.17248	0.92138	0.72136	-0.049
Mof_C 	C 	0.13439	0.87479	0.72458	-0.018
Mof_C 	C 	0.11797	0.80667	0.68294	0.134
Mof_C 	C 	0.13968	0.78538	0.63776	-0.117
Mof_C 	C 	0.07231	0.69441	0.65962	-0.165
Mof_O 	O 	0.09804	0.99705	0.0901	-0.264
Mof_O 	O 	0.99994	0.93545	0.04892	-0.271
Mof_O 	O 	0.01506	0.82749	0.18606	-0.197
Mof_O 	O 	0.99206	0.09305	0.0901	-0.258
Mof_O 	O 	0.04898	0.11347	0.04892	-0.276
Mof_O 	O 	0.171	0.35857	0.18606	-0.19
Mof_O 	O 	0.00295	0.00794	0.9099	-0.268
Mof_O 	O 	0.06455	0.95102	0.95108	-0.277
Mof_O 	O 	0.17251	0.829	0.81394	-0.188
Mof_O 	O 	0.90695	0.90196	0.9099	-0.263
Mof_O 	O 	0.88653	6e-05	0.95108	-0.273
Mof_O 	O 	0.64143	0.98494	0.81394	-0.188
Mof_O 	O 	0.25794	0.75295	0.4099	-0.266
Mof_O 	O 	0.20102	0.81455	0.45108	-0.278
Mof_O 	O 	0.079	0.92251	0.31394	-0.189
Mof_O 	O 	0.15196	0.65695	0.4099	-0.267
Mof_O 	O 	0.25006	0.63653	0.45108	-0.277
Mof_O 	O 	0.23494	0.39143	0.31394	-0.187
Mof_O 	O 	0.34305	0.74206	0.5901	-0.266
Mof_O 	O 	0.36347	0.79898	0.54892	-0.277
Mof_O 	O 	0.60857	0.921	0.68606	-0.188
Mof_O 	O 	0.24705	0.84804	0.5901	-0.266
Mof_O 	O 	0.18545	0.74994	0.54892	-0.278
Mof_O 	O 	0.07749	0.76506	0.68606	-0.19
Mof_H 	H 	0.385	0.1369	0.1818	0.145
Mof_H 	H 	0.3762	0.2095	0.1882	0.127
Mof_H 	H 	0.3443	0.177	0.216	0.125
Mof_H 	H 	0.4613	0.3107	0.3238	0.122
Mof_H 	H 	0.4329	0.2638	0.343	0.114
Mof_H 	H 	0.3846	0.2756	0.2872	0.113
Mof_H 	H 	0.4797	0.2239	0.2614	0.102
Mof_H 	H 	0.4565	0.1808	0.2818	0.106
Mof_C 	C 	0.38208	0.18088	0.20796	-0.338
Mof_C 	C 	0.42959	0.27059	0.30898	-0.315
Mof_N 	N 	0.44524	0.21084	0.26668	-0.152
Mof_H 	H 	0.2355	0.1637	0.1718	0.144
Mof_H 	H 	0.1764	0.1028	0.144	0.173
Mof_H 	H 	0.2506	0.1011	0.1846	0.149
Mof_H 	H 	0.2334	0.2607	0.306	0.147
Mof_H 	H 	0.231	0.2596	0.2466	0.15
Mof_H 	H 	0.2925	0.2404	0.289	0.131
Mof_H 	H 	0.1629	0.1614	0.2252	0.102
Mof_H 	H 	0.2232	0.1421	0.2594	0.094
Mof_C 	C 	0.2185	0.1297	0.1788	-0.388
Mof_C 	C 	0.2445	0.238	0.2728	-0.369
Mof_N 	N 	0.2074	0.1637	0.2362	-0.145
Mof_H 	H 	0.7968	0.0449	0.1818	0.145
Mof_H 	H 	0.812	0.9787	0.1882	0.126
Mof_H 	H 	0.8717	0.039	0.216	0.125
Mof_H 	H 	0.8625	0.0131	0.3238	0.123
Mof_H 	H 	0.9101	0.0792	0.343	0.115
Mof_H 	H 	0.9026	0.0116	0.2872	0.114
Mof_H 	H 	0.7817	0.0375	0.2614	0.102
Mof_H 	H 	0.8253	0.101	0.2818	0.106
Mof_C 	C 	0.82588	0.02708	0.20796	-0.336
Mof_C 	C 	0.87939	0.03839	0.30898	-0.317
Mof_N 	N 	0.82144	0.05584	0.26668	-0.152
Mof_H 	H 	0.9363	0.0081	0.1718	0.144
Mof_H 	H 	0.9676	0.0412	0.144	0.172
Mof_H 	H 	0.934	0.0835	0.1846	0.149
Mof_H 	H 	0.0726	0.0453	0.306	0.153
Mof_H 	H 	0.0156	0.987	0.2466	0.155
Mof_H 	H 	0.9965	0.0486	0.289	0.142
Mof_H 	H 	0.0623	0.0638	0.2252	0.101
Mof_H 	H 	0.0362	0.1173	0.2594	0.092
Mof_C 	C 	0.9603	0.0491	0.1788	-0.383
Mof_C 	C 	0.0283	0.0348	0.2728	-0.391
Mof_N 	N 	0.0288	0.0725	0.2362	-0.144
Mof_H 	H 	0.8631	0.2032	0.8182	0.147
Mof_H 	H 	0.7905	0.188	0.8118	0.128
Mof_H 	H 	0.823	0.1283	0.784	0.126
Mof_H 	H 	0.6893	0.1375	0.6762	0.122
Mof_H 	H 	0.7362	0.0899	0.657	0.114
Mof_H 	H 	0.7244	0.0974	0.7128	0.113
Mof_H 	H 	0.7761	0.2183	0.7386	0.102
Mof_H 	H 	0.8192	0.1747	0.7182	0.106
Mof_C 	C 	0.81912	0.17412	0.79204	-0.339
Mof_C 	C 	0.72941	0.12061	0.69102	-0.315
Mof_N 	N 	0.78916	0.17856	0.73332	-0.152
Mof_H 	H 	0.8363	0.0637	0.8282	0.146
Mof_H 	H 	0.8972	0.0324	0.856	0.175
Mof_H 	H 	0.8989	0.066	0.8154	0.151
Mof_H 	H 	0.7393	0.9274	0.694	0.147
Mof_H 	H 	0.7404	0.9844	0.7534	0.151
Mof_H 	H 	0.7596	0.0035	0.711	0.132
Mof_H 	H 	0.8386	0.9377	0.7748	0.102
Mof_H 	H 	0.8579	0.9638	0.7406	0.094
Mof_C 	C 	0.8703	0.0397	0.8212	-0.391
Mof_C 	C 	0.762	0.9717	0.7272	-0.371
Mof_N 	N 	0.8363	0.9712	0.7638	-0.144
Mof_H 	H 	0.9551	0.615	0.8182	0.14
Mof_H 	H 	0.0213	0.6238	0.8118	0.116
Mof_H 	H 	0.961	0.6557	0.784	0.119
Mof_H 	H 	0.9869	0.5387	0.6762	0.124
Mof_H 	H 	0.9208	0.5671	0.657	0.115
Mof_H 	H 	0.9884	0.6154	0.7128	0.115
Mof_H 	H 	0.9625	0.5203	0.7386	0.104
Mof_H 	H 	0.899	0.5435	0.7182	0.107
Mof_C 	C 	0.97292	0.61792	0.79204	-0.315
Mof_C 	C 	0.96161	0.57041	0.69102	-0.316
Mof_N 	N 	0.94416	0.55476	0.73332	-0.155
Mof_H 	H 	0.9919	0.7645	0.8282	0.148
Mof_H 	H 	0.9588	0.8236	0.856	0.175
Mof_H 	H 	0.9165	0.7494	0.8154	0.151
Mof_H 	H 	0.9547	0.7666	0.694	0.142
Mof_H 	H 	0.013	0.769	0.7534	0.14
Mof_H 	H 	0.9514	0.7075	0.711	0.126
Mof_H 	H 	0.9362	0.8371	0.7748	0.104
Mof_H 	H 	0.8827	0.7768	0.7406	0.095
Mof_C 	C 	0.9509	0.7815	0.8212	-0.391
Mof_C 	C 	0.9652	0.7555	0.7272	-0.347
Mof_N 	N 	0.9275	0.7926	0.7638	-0.147
Mof_H 	H 	0.4532	0.6131	0.3182	0.146
Mof_H 	H 	0.438	0.5405	0.3118	0.127
Mof_H 	H 	0.3783	0.573	0.284	0.125
Mof_H 	H 	0.3875	0.4393	0.1762	0.122
Mof_H 	H 	0.3399	0.4862	0.157	0.113
Mof_H 	H 	0.3474	0.4744	0.2128	0.113
Mof_H 	H 	0.4683	0.5261	0.2386	0.102
Mof_H 	H 	0.4247	0.5692	0.2182	0.106
Mof_C 	C 	0.42412	0.56912	0.29204	-0.338
Mof_C 	C 	0.37061	0.47941	0.19102	-0.314
Mof_N 	N 	0.42856	0.53916	0.23332	-0.152
Mof_H 	H 	0.3137	0.5863	0.3282	0.145
Mof_H 	H 	0.2824	0.6472	0.356	0.173
Mof_H 	H 	0.316	0.6489	0.3154	0.15
Mof_H 	H 	0.1774	0.4893	0.194	0.146
Mof_H 	H 	0.2344	0.4904	0.2534	0.15
Mof_H 	H 	0.2535	0.5096	0.211	0.131
Mof_H 	H 	0.1877	0.5886	0.2748	0.102
Mof_H 	H 	0.2138	0.6079	0.2406	0.094
Mof_C 	C 	0.2897	0.6203	0.3212	-0.389
Mof_C 	C 	0.2217	0.512	0.2272	-0.368
Mof_N 	N 	0.2212	0.5863	0.2638	-0.145
Mof_H 	H 	0.865	0.7051	0.3182	0.147
Mof_H 	H 	0.8738	0.7713	0.3118	0.129
Mof_H 	H 	0.9057	0.711	0.284	0.127
Mof_H 	H 	0.7887	0.7369	0.1762	0.122
Mof_H 	H 	0.8171	0.6708	0.157	0.114
Mof_H 	H 	0.8654	0.7384	0.2128	0.113
Mof_H 	H 	0.7703	0.7125	0.2386	0.102
Mof_H 	H 	0.7935	0.649	0.2182	0.106
Mof_C 	C 	0.86792	0.72292	0.29204	-0.341
Mof_C 	C 	0.82041	0.71161	0.19102	-0.315
Mof_N 	N 	0.80476	0.69416	0.23332	-0.152
Mof_H 	H 	0.0145	0.7419	0.3282	0.15
Mof_H 	H 	0.0736	0.7088	0.356	0.179
Mof_H 	H 	0.9994	0.6665	0.3154	0.161
Mof_H 	H 	0.0166	0.7047	0.194	0.152
Mof_H 	H 	0.019	0.763	0.2534	0.156
Mof_H 	H 	0.9575	0.7014	0.211	0.142
Mof_H 	H 	0.0871	0.6862	0.2748	0.101
Mof_H 	H 	0.0268	0.6327	0.2406	0.091
Mof_C 	C 	0.0315	0.7009	0.3212	-0.412
Mof_C 	C 	0.0055	0.7152	0.2272	-0.391
Mof_N 	N 	0.0426	0.6775	0.2638	-0.139
Mof_H 	H 	0.2949	0.5468	0.6818	0.145
Mof_H 	H 	0.2287	0.562	0.6882	0.127
Mof_H 	H 	0.289	0.6217	0.716	0.125
Mof_H 	H 	0.2631	0.6125	0.8238	0.122
Mof_H 	H 	0.3292	0.6601	0.843	0.114
Mof_H 	H 	0.2616	0.6526	0.7872	0.113
Mof_H 	H 	0.2875	0.5317	0.7614	0.102
Mof_H 	H 	0.351	0.5753	0.7818	0.106
Mof_C 	C 	0.27708	0.57588	0.70796	-0.338
Mof_C 	C 	0.28839	0.62939	0.80898	-0.315
Mof_N 	N 	0.30584	0.57144	0.76668	-0.152
Mof_H 	H 	0.2581	0.6863	0.6718	0.145
Mof_H 	H 	0.2912	0.7176	0.644	0.173
Mof_H 	H 	0.3335	0.684	0.6846	0.15
Mof_H 	H 	0.2953	0.8226	0.806	0.147
Mof_H 	H 	0.237	0.7656	0.7466	0.151
Mof_H 	H 	0.2986	0.7465	0.789	0.131
Mof_H 	H 	0.3138	0.8123	0.7252	0.102
Mof_H 	H 	0.3673	0.7862	0.7594	0.094
Mof_C 	C 	0.2991	0.7103	0.6788	-0.389
Mof_C 	C 	0.2848	0.7783	0.7728	-0.369
Mof_N 	N 	0.3225	0.7788	0.7362	-0.145
Mof_H 	H 	0.3869	0.135	0.6818	0.146
Mof_H 	H 	0.4595	0.1262	0.6882	0.128
Mof_H 	H 	0.427	0.0943	0.716	0.126
Mof_H 	H 	0.5607	0.2113	0.8238	0.122
Mof_H 	H 	0.5138	0.1829	0.843	0.114
Mof_H 	H 	0.5256	0.1346	0.7872	0.113
Mof_H 	H 	0.4739	0.2297	0.7614	0.102
Mof_H 	H 	0.4308	0.2065	0.7818	0.106
Mof_C 	C 	0.43088	0.13208	0.70796	-0.338
Mof_C 	C 	0.52059	0.17959	0.80898	-0.315
Mof_N 	N 	0.46084	0.19524	0.76668	-0.152
Mof_H 	H 	0.4137	0.9855	0.6718	0.145
Mof_H 	H 	0.3528	0.9264	0.644	0.173
Mof_H 	H 	0.3511	0.0006	0.6846	0.15
Mof_H 	H 	0.5107	0.9834	0.806	0.147
Mof_H 	H 	0.5096	0.981	0.7466	0.151
Mof_H 	H 	0.4904	0.0425	0.789	0.132
Mof_H 	H 	0.4114	0.9129	0.7252	0.102
Mof_H 	H 	0.3921	0.9732	0.7594	0.094
Mof_C 	C 	0.3797	0.9685	0.6788	-0.39
Mof_C 	C 	0.488	0.9945	0.7728	-0.37
Mof_N 	N 	0.4137	0.9574	0.7362	-0.144
_end
