# CIF file generated by openbabel 3.1.0, see https://openbabel.org
data_I
_chemical_name_common 'image0'
_cell_length_a 34.7076
_cell_length_b 15.0136
_cell_length_c 29.9475
_cell_angle_alpha 90
_cell_angle_beta 100.783
_cell_angle_gamma 90
_space_group_name_H-M_alt 'P 1'
_space_group_name_Hall 'P 1'
loop_
    _symmetry_equiv_pos_as_xyz
    x,y,z
loop_
    _atom_site_label
    _atom_site_type_symbol
    _atom_site_fract_x
    _atom_site_fract_y
    _atom_site_fract_z
    _atom_site_occupancy
    Zn1      Zn       0.63196    0.40599    0.54837    1.000
    I1       I        0.61987    0.26016    0.57576    1.000
    I2       I        0.66107    0.43660    0.47095    1.000
    Zn2      Zn       0.42080    0.12734    0.40668    1.000
    I3       I        0.38406    0.23940    0.44604    1.000
    I4       I        0.47529    0.15633    0.36301    1.000
    Zn3      Zn       0.33040    0.36200    0.23390    1.000
    I5       I        0.37629    0.34680    0.30833    1.000
    I6       I        0.26977    0.26672    0.20845    1.000
    N1       N        0.58348    0.48690    0.54715    1.000
    C1       C        0.56917    0.49690    0.58460    1.000
    H1       H        0.58130    0.46530    0.61100    1.000
    C2       C        0.53780    0.55030    0.58760    1.000
    H2       H        0.52800    0.55440    0.61510    1.000
    C3       C        0.52066    0.59840    0.54949    1.000
    C4       C        0.53573    0.59060    0.51090    1.000
    H3       H        0.52480    0.62370    0.48450    1.000
    C5       C        0.56729    0.53360    0.51029    1.000
    H4       H        0.57760    0.52780    0.48320    1.000
    N2       N        0.43937    0.02590    0.45311    1.000
    C6       C        0.41881    0.01020    0.48572    1.000
    H5       H        0.39980    0.05260    0.49080    1.000
    C7       C        0.42409    0.93460    0.51231    1.000
    H6       H        0.40900    0.92550    0.53540    1.000
    C8       C        0.45160    0.87200    0.50504    1.000
    C9       C        0.47408    0.89020    0.47267    1.000
    H7       H        0.49390    0.84990    0.46770    1.000
    C10      C        0.46733    0.96770    0.44760    1.000
    H8       H        0.48310    0.98020    0.42560    1.000
    N3       N        0.36182    0.65320    0.67845    1.000
    C11      C        0.35250    0.71410    0.64570    1.000
    H9       H        0.32850    0.74600    0.64330    1.000
    C12      C        0.37680    0.73180    0.61510    1.000
    H10      H        0.36990    0.77620    0.59250    1.000
    C13      C        0.41128    0.68440    0.61790    1.000
    C14      C        0.41962    0.62040    0.65080    1.000
    H11      H        0.44300    0.58620    0.65360    1.000
    C15      C        0.39390    0.60610    0.67970    1.000
    H12      H        0.39960    0.56000    0.70170    1.000
    C16      C        0.48794    0.65980    0.55249    1.000
    N4       N        0.48406    0.73130    0.52489    1.000
    C17      C        0.45594    0.78750    0.53151    1.000
    N5       N        0.43151    0.77560    0.56050    1.000
    C18      C        0.43755    0.70070    0.58491    1.000
    N6       N        0.46578    0.64150    0.58306    1.000
    N7       N        0.37952    0.05510    0.36122    1.000
    C19      C        0.35157    0.09590    0.33205    1.000
    H13      H        0.34780    0.15800    0.33550    1.000
    C20      C        0.32770    0.05160    0.29686    1.000
    H14      H        0.30820    0.08300    0.27640    1.000
    C21      C        0.33261    0.96160    0.29187    1.000
    C22      C        0.36098    0.91910    0.32290    1.000
    H15      H        0.36480    0.85660    0.32100    1.000
    C23      C        0.38356    0.96830    0.35660    1.000
    H16      H        0.40310    0.93840    0.37770    1.000
    N8       N        0.31544    0.49870    0.22227    1.000
    C24      C        0.28726    0.53300    0.19190    1.000
    H17      H        0.27140    0.49390    0.17130    1.000
    C25      C        0.27941    0.62470    0.18830    1.000
    H18      H        0.25860    0.64700    0.16590    1.000
    C26      C        0.30236    0.68100    0.21757    1.000
    C27      C        0.33238    0.64440    0.24900    1.000
    H19      H        0.34900    0.68140    0.27000    1.000
    C28      C        0.33800    0.55340    0.24960    1.000
    H20      H        0.35920    0.52920    0.27080    1.000
    N9       N        0.17236    0.03230    0.09780    1.000
    C29      C        0.19427    0.07650    0.13210    1.000
    H21      H        0.18970    0.13840    0.13520    1.000
    C30      C        0.22315    0.03620    0.16300    1.000
    H22      H        0.23830    0.07000    0.18680    1.000
    C31      C        0.22996    0.94660    0.15933    1.000
    C32      C        0.20697    0.89960    0.12425    1.000
    H23      H        0.21040    0.83730    0.12110    1.000
    C33      C        0.17910    0.94540    0.09417    1.000
    H24      H        0.16390    0.91350    0.06960    1.000
    C34      C        0.30910    0.90940    0.25390    1.000
    N10      N        0.31850    0.82420    0.25106    1.000
    C35      C        0.29561    0.77910    0.21778    1.000
    N11      N        0.26686    0.81440    0.18657    1.000
    C36      C        0.26099    0.90100    0.19240    1.000
    N12      N        0.28047    0.95183    0.22610    1.000
    I7       I        0.61026    0.25610    0.58850    1.000
    I8       I        0.64979    0.42080    0.47920    1.000
    Zn4      Zn       0.32600    0.36480    0.22260    1.000
    I9       I        0.36680    0.33730    0.30220    1.000
    I10      I        0.26310    0.28000    0.19410    1.000
    Zn5      Zn       0.31320    0.36340    0.20610    1.000
    I11      I        0.35280    0.32190    0.28510    1.000
    I12      I        0.25020    0.28590    0.17210    1.000
    Zn6      Zn       0.13196    0.90599    0.54837    1.000
    I13      I        0.11987    0.76016    0.57576    1.000
    I14      I        0.16107    0.93660    0.47095    1.000
    Zn7      Zn       0.92080    0.62734    0.40668    1.000
    I15      I        0.88406    0.73940    0.44604    1.000
    I16      I        0.97529    0.65633    0.36301    1.000
    Zn8      Zn       0.83040    0.86200    0.23390    1.000
    I17      I        0.87629    0.84680    0.30833    1.000
    I18      I        0.76977    0.76672    0.20845    1.000
    N13      N        0.08348    0.98690    0.54715    1.000
    C37      C        0.06917    0.99690    0.58460    1.000
    H25      H        0.08130    0.96530    0.61100    1.000
    C38      C        0.03780    0.05030    0.58760    1.000
    H26      H        0.02800    0.05440    0.61510    1.000
    C39      C        0.02066    0.09840    0.54949    1.000
    C40      C        0.03573    0.09060    0.51090    1.000
    H27      H        0.02480    0.12370    0.48450    1.000
    C41      C        0.06729    0.03360    0.51029    1.000
    H28      H        0.07760    0.02780    0.48320    1.000
    N14      N        0.93937    0.52590    0.45311    1.000
    C42      C        0.91881    0.51020    0.48572    1.000
    H29      H        0.89980    0.55260    0.49080    1.000
    C43      C        0.92409    0.43460    0.51231    1.000
    H30      H        0.90900    0.42550    0.53540    1.000
    C44      C        0.95160    0.37200    0.50504    1.000
    C45      C        0.97408    0.39020    0.47267    1.000
    H31      H        0.99390    0.34990    0.46770    1.000
    C46      C        0.96733    0.46770    0.44760    1.000
    H32      H        0.98310    0.48020    0.42560    1.000
    N15      N        0.86182    0.15320    0.67845    1.000
    C47      C        0.85250    0.21410    0.64570    1.000
    H33      H        0.82850    0.24600    0.64330    1.000
    C48      C        0.87680    0.23180    0.61510    1.000
    H34      H        0.86990    0.27620    0.59250    1.000
    C49      C        0.91128    0.18440    0.61790    1.000
    C50      C        0.91962    0.12040    0.65080    1.000
    H35      H        0.94300    0.08620    0.65360    1.000
    C51      C        0.89390    0.10610    0.67970    1.000
    H36      H        0.89960    0.06000    0.70170    1.000
    C52      C        0.98794    0.15980    0.55249    1.000
    N16      N        0.98406    0.23130    0.52489    1.000
    C53      C        0.95594    0.28750    0.53151    1.000
    N17      N        0.93151    0.27560    0.56050    1.000
    C54      C        0.93755    0.20070    0.58491    1.000
    N18      N        0.96578    0.14150    0.58306    1.000
    N19      N        0.87952    0.55510    0.36122    1.000
    C55      C        0.85157    0.59590    0.33205    1.000
    H37      H        0.84780    0.65800    0.33550    1.000
    C56      C        0.82770    0.55160    0.29686    1.000
    H38      H        0.80820    0.58300    0.27640    1.000
    C57      C        0.83261    0.46160    0.29187    1.000
    C58      C        0.86098    0.41910    0.32290    1.000
    H39      H        0.86480    0.35660    0.32100    1.000
    C59      C        0.88356    0.46830    0.35660    1.000
    H40      H        0.90310    0.43840    0.37770    1.000
    N20      N        0.81544    0.99870    0.22227    1.000
    C60      C        0.78726    0.03300    0.19190    1.000
    H41      H        0.77140    0.99390    0.17130    1.000
    C61      C        0.77941    0.12470    0.18830    1.000
    H42      H        0.75860    0.14700    0.16590    1.000
    C62      C        0.80236    0.18100    0.21757    1.000
    C63      C        0.83238    0.14440    0.24900    1.000
    H43      H        0.84900    0.18140    0.27000    1.000
    C64      C        0.83800    0.05340    0.24960    1.000
    H44      H        0.85920    0.02920    0.27080    1.000
    N21      N        0.67236    0.53230    0.09780    1.000
    C65      C        0.69427    0.57650    0.13210    1.000
    H45      H        0.68970    0.63840    0.13520    1.000
    C66      C        0.72315    0.53620    0.16300    1.000
    H46      H        0.73830    0.57000    0.18680    1.000
    C67      C        0.72996    0.44660    0.15933    1.000
    C68      C        0.70697    0.39960    0.12425    1.000
    H47      H        0.71040    0.33730    0.12110    1.000
    C69      C        0.67910    0.44540    0.09417    1.000
    H48      H        0.66390    0.41350    0.06960    1.000
    C70      C        0.80910    0.40940    0.25390    1.000
    N22      N        0.81850    0.32420    0.25106    1.000
    C71      C        0.79561    0.27910    0.21778    1.000
    N23      N        0.76686    0.31440    0.18657    1.000
    C72      C        0.76099    0.40100    0.19240    1.000
    N24      N        0.78047    0.45183    0.22610    1.000
    I19      I        0.11026    0.75610    0.58850    1.000
    I20      I        0.14979    0.92080    0.47920    1.000
    Zn9      Zn       0.82600    0.86480    0.22260    1.000
    I21      I        0.86680    0.83730    0.30220    1.000
    I22      I        0.76310    0.78000    0.19410    1.000
    Zn10     Zn       0.81320    0.86340    0.20610    1.000
    I23      I        0.85280    0.82190    0.28510    1.000
    I24      I        0.75020    0.78590    0.17210    1.000
    Zn11     Zn       0.63196    0.59401    0.04837    1.000
    I25      I        0.61987    0.73984    0.07576    1.000
    I26      I        0.66107    0.56340    0.97095    1.000
    Zn12     Zn       0.42080    0.87266    0.90668    1.000
    I27      I        0.38406    0.76060    0.94604    1.000
    I28      I        0.47529    0.84367    0.86301    1.000
    Zn13     Zn       0.33040    0.63800    0.73390    1.000
    I29      I        0.37629    0.65320    0.80833    1.000
    I30      I        0.26977    0.73328    0.70845    1.000
    N25      N        0.58348    0.51310    0.04715    1.000
    C73      C        0.56917    0.50310    0.08460    1.000
    H49      H        0.58130    0.53470    0.11100    1.000
    C74      C        0.53780    0.44970    0.08760    1.000
    H50      H        0.52800    0.44560    0.11510    1.000
    C75      C        0.52066    0.40160    0.04949    1.000
    C76      C        0.53573    0.40940    0.01090    1.000
    H51      H        0.52480    0.37630    0.98450    1.000
    C77      C        0.56729    0.46640    0.01029    1.000
    H52      H        0.57760    0.47220    0.98320    1.000
    N26      N        0.43937    0.97410    0.95311    1.000
    C78      C        0.41881    0.98980    0.98572    1.000
    H53      H        0.39980    0.94740    0.99080    1.000
    C79      C        0.42409    0.06540    0.01231    1.000
    H54      H        0.40900    0.07450    0.03540    1.000
    C80      C        0.45160    0.12800    0.00504    1.000
    C81      C        0.47408    0.10980    0.97267    1.000
    H55      H        0.49390    0.15010    0.96770    1.000
    C82      C        0.46733    0.03230    0.94760    1.000
    H56      H        0.48310    0.01980    0.92560    1.000
    N27      N        0.36182    0.34680    0.17845    1.000
    C83      C        0.35250    0.28590    0.14570    1.000
    H57      H        0.32850    0.25400    0.14330    1.000
    C84      C        0.37680    0.26820    0.11510    1.000
    H58      H        0.36990    0.22380    0.09250    1.000
    C85      C        0.41128    0.31560    0.11790    1.000
    C86      C        0.41962    0.37960    0.15080    1.000
    H59      H        0.44300    0.41380    0.15360    1.000
    C87      C        0.39390    0.39390    0.17970    1.000
    H60      H        0.39960    0.44000    0.20170    1.000
    C88      C        0.48794    0.34020    0.05249    1.000
    N28      N        0.48406    0.26870    0.02489    1.000
    C89      C        0.45594    0.21250    0.03151    1.000
    N29      N        0.43151    0.22440    0.06050    1.000
    C90      C        0.43755    0.29930    0.08491    1.000
    N30      N        0.46578    0.35850    0.08306    1.000
    N31      N        0.37952    0.94490    0.86122    1.000
    C91      C        0.35157    0.90410    0.83205    1.000
    H61      H        0.34780    0.84200    0.83550    1.000
    C92      C        0.32770    0.94840    0.79686    1.000
    H62      H        0.30820    0.91700    0.77640    1.000
    C93      C        0.33261    0.03840    0.79187    1.000
    C94      C        0.36098    0.08090    0.82290    1.000
    H63      H        0.36480    0.14340    0.82100    1.000
    C95      C        0.38356    0.03170    0.85660    1.000
    H64      H        0.40310    0.06160    0.87770    1.000
    N32      N        0.31544    0.50130    0.72227    1.000
    C96      C        0.28726    0.46700    0.69190    1.000
    H65      H        0.27140    0.50610    0.67130    1.000
    C97      C        0.27941    0.37530    0.68830    1.000
    H66      H        0.25860    0.35300    0.66590    1.000
    C98      C        0.30236    0.31900    0.71757    1.000
    C99      C        0.33238    0.35560    0.74900    1.000
    H67      H        0.34900    0.31860    0.77000    1.000
    C100     C        0.33800    0.44660    0.74960    1.000
    H68      H        0.35920    0.47080    0.77080    1.000
    N33      N        0.17236    0.96770    0.59780    1.000
    C101     C        0.19427    0.92350    0.63210    1.000
    H69      H        0.18970    0.86160    0.63520    1.000
    C102     C        0.22315    0.96380    0.66300    1.000
    H70      H        0.23830    0.93000    0.68680    1.000
    C103     C        0.22996    0.05340    0.65933    1.000
    C104     C        0.20697    0.10040    0.62425    1.000
    H71      H        0.21040    0.16270    0.62110    1.000
    C105     C        0.17910    0.05460    0.59417    1.000
    H72      H        0.16390    0.08650    0.56960    1.000
    C106     C        0.30910    0.09060    0.75390    1.000
    N34      N        0.31850    0.17580    0.75106    1.000
    C107     C        0.29561    0.22090    0.71778    1.000
    N35      N        0.26686    0.18560    0.68657    1.000
    C108     C        0.26099    0.09900    0.69240    1.000
    N36      N        0.28047    0.04817    0.72610    1.000
    I31      I        0.61026    0.74390    0.08850    1.000
    I32      I        0.64979    0.57920    0.97920    1.000
    Zn14     Zn       0.32600    0.63520    0.72260    1.000
    I33      I        0.36680    0.66270    0.80220    1.000
    I34      I        0.26310    0.72000    0.69410    1.000
    Zn15     Zn       0.31320    0.63660    0.70610    1.000
    I35      I        0.35280    0.67810    0.78510    1.000
    I36      I        0.25020    0.71410    0.67210    1.000
    Zn16     Zn       0.13196    0.09401    0.04837    1.000
    I37      I        0.11987    0.23984    0.07576    1.000
    I38      I        0.16107    0.06340    0.97095    1.000
    Zn17     Zn       0.92080    0.37266    0.90668    1.000
    I39      I        0.88406    0.26060    0.94604    1.000
    I40      I        0.97529    0.34367    0.86301    1.000
    Zn18     Zn       0.83040    0.13800    0.73390    1.000
    I41      I        0.87629    0.15320    0.80833    1.000
    I42      I        0.76977    0.23328    0.70845    1.000
    N37      N        0.08348    0.01310    0.04715    1.000
    C109     C        0.06917    0.00310    0.08460    1.000
    H73      H        0.08130    0.03470    0.11100    1.000
    C110     C        0.03780    0.94970    0.08760    1.000
    H74      H        0.02800    0.94560    0.11510    1.000
    C111     C        0.02066    0.90160    0.04949    1.000
    C112     C        0.03573    0.90940    0.01090    1.000
    H75      H        0.02480    0.87630    0.98450    1.000
    C113     C        0.06729    0.96640    0.01029    1.000
    H76      H        0.07760    0.97220    0.98320    1.000
    N38      N        0.93937    0.47410    0.95311    1.000
    C114     C        0.91881    0.48980    0.98572    1.000
    H77      H        0.89980    0.44740    0.99080    1.000
    C115     C        0.92409    0.56540    0.01231    1.000
    H78      H        0.90900    0.57450    0.03540    1.000
    C116     C        0.95160    0.62800    0.00504    1.000
    C117     C        0.97408    0.60980    0.97267    1.000
    H79      H        0.99390    0.65010    0.96770    1.000
    C118     C        0.96733    0.53230    0.94760    1.000
    H80      H        0.98310    0.51980    0.92560    1.000
    N39      N        0.86182    0.84680    0.17845    1.000
    C119     C        0.85250    0.78590    0.14570    1.000
    H81      H        0.82850    0.75400    0.14330    1.000
    C120     C        0.87680    0.76820    0.11510    1.000
    H82      H        0.86990    0.72380    0.09250    1.000
    C121     C        0.91128    0.81560    0.11790    1.000
    C122     C        0.91962    0.87960    0.15080    1.000
    H83      H        0.94300    0.91380    0.15360    1.000
    C123     C        0.89390    0.89390    0.17970    1.000
    H84      H        0.89960    0.94000    0.20170    1.000
    C124     C        0.98794    0.84020    0.05249    1.000
    N40      N        0.98406    0.76870    0.02489    1.000
    C125     C        0.95594    0.71250    0.03151    1.000
    N41      N        0.93151    0.72440    0.06050    1.000
    C126     C        0.93755    0.79930    0.08491    1.000
    N42      N        0.96578    0.85850    0.08306    1.000
    N43      N        0.87952    0.44490    0.86122    1.000
    C127     C        0.85157    0.40410    0.83205    1.000
    H85      H        0.84780    0.34200    0.83550    1.000
    C128     C        0.82770    0.44840    0.79686    1.000
    H86      H        0.80820    0.41700    0.77640    1.000
    C129     C        0.83261    0.53840    0.79187    1.000
    C130     C        0.86098    0.58090    0.82290    1.000
    H87      H        0.86480    0.64340    0.82100    1.000
    C131     C        0.88356    0.53170    0.85660    1.000
    H88      H        0.90310    0.56160    0.87770    1.000
    N44      N        0.81544    0.00130    0.72227    1.000
    C132     C        0.78726    0.96700    0.69190    1.000
    H89      H        0.77140    0.00610    0.67130    1.000
    C133     C        0.77941    0.87530    0.68830    1.000
    H90      H        0.75860    0.85300    0.66590    1.000
    C134     C        0.80236    0.81900    0.71757    1.000
    C135     C        0.83238    0.85560    0.74900    1.000
    H91      H        0.84900    0.81860    0.77000    1.000
    C136     C        0.83800    0.94660    0.74960    1.000
    H92      H        0.85920    0.97080    0.77080    1.000
    N45      N        0.67236    0.46770    0.59780    1.000
    C137     C        0.69427    0.42350    0.63210    1.000
    H93      H        0.68970    0.36160    0.63520    1.000
    C138     C        0.72315    0.46380    0.66300    1.000
    H94      H        0.73830    0.43000    0.68680    1.000
    C139     C        0.72996    0.55340    0.65933    1.000
    C140     C        0.70697    0.60040    0.62425    1.000
    H95      H        0.71040    0.66270    0.62110    1.000
    C141     C        0.67910    0.55460    0.59417    1.000
    H96      H        0.66390    0.58650    0.56960    1.000
    C142     C        0.80910    0.59060    0.75390    1.000
    N46      N        0.81850    0.67580    0.75106    1.000
    C143     C        0.79561    0.72090    0.71778    1.000
    N47      N        0.76686    0.68560    0.68657    1.000
    C144     C        0.76099    0.59900    0.69240    1.000
    N48      N        0.78047    0.54817    0.72610    1.000
    I43      I        0.11026    0.24390    0.08850    1.000
    I44      I        0.14979    0.07920    0.97920    1.000
    Zn19     Zn       0.82600    0.13520    0.72260    1.000
    I45      I        0.86680    0.16270    0.80220    1.000
    I46      I        0.76310    0.22000    0.69410    1.000
    Zn20     Zn       0.81320    0.13660    0.70610    1.000
    I47      I        0.85280    0.17810    0.78510    1.000
    I48      I        0.75020    0.21410    0.67210    1.000
    Zn21     Zn       0.36804    0.40599    0.95163    1.000
    I49      I        0.38013    0.26016    0.92424    1.000
    I50      I        0.33893    0.43660    0.02905    1.000
    Zn22     Zn       0.57920    0.12734    0.09332    1.000
    I51      I        0.61594    0.23940    0.05396    1.000
    I52      I        0.52471    0.15633    0.13699    1.000
    Zn23     Zn       0.66960    0.36200    0.26610    1.000
    I53      I        0.62371    0.34680    0.19167    1.000
    I54      I        0.73023    0.26672    0.29155    1.000
    N49      N        0.41652    0.48690    0.95285    1.000
    C145     C        0.43083    0.49690    0.91540    1.000
    H97      H        0.41870    0.46530    0.88900    1.000
    C146     C        0.46220    0.55030    0.91240    1.000
    H98      H        0.47200    0.55440    0.88490    1.000
    C147     C        0.47934    0.59840    0.95051    1.000
    C148     C        0.46427    0.59060    0.98910    1.000
    H99      H        0.47520    0.62370    0.01550    1.000
    C149     C        0.43271    0.53360    0.98971    1.000
    H100     H        0.42240    0.52780    0.01680    1.000
    N50      N        0.56063    0.02590    0.04689    1.000
    C150     C        0.58119    0.01020    0.01428    1.000
    H101     H        0.60020    0.05260    0.00920    1.000
    C151     C        0.57591    0.93460    0.98769    1.000
    H102     H        0.59100    0.92550    0.96460    1.000
    C152     C        0.54840    0.87200    0.99496    1.000
    C153     C        0.52592    0.89020    0.02733    1.000
    H103     H        0.50610    0.84990    0.03230    1.000
    C154     C        0.53267    0.96770    0.05240    1.000
    H104     H        0.51690    0.98020    0.07440    1.000
    N51      N        0.63818    0.65320    0.82155    1.000
    C155     C        0.64750    0.71410    0.85430    1.000
    H105     H        0.67150    0.74600    0.85670    1.000
    C156     C        0.62320    0.73180    0.88490    1.000
    H106     H        0.63010    0.77620    0.90750    1.000
    C157     C        0.58872    0.68440    0.88210    1.000
    C158     C        0.58038    0.62040    0.84920    1.000
    H107     H        0.55700    0.58620    0.84640    1.000
    C159     C        0.60610    0.60610    0.82030    1.000
    H108     H        0.60040    0.56000    0.79830    1.000
    C160     C        0.51206    0.65980    0.94751    1.000
    N52      N        0.51594    0.73130    0.97511    1.000
    C161     C        0.54406    0.78750    0.96849    1.000
    N53      N        0.56849    0.77560    0.93950    1.000
    C162     C        0.56245    0.70070    0.91509    1.000
    N54      N        0.53422    0.64150    0.91694    1.000
    N55      N        0.62048    0.05510    0.13878    1.000
    C163     C        0.64843    0.09590    0.16795    1.000
    H109     H        0.65220    0.15800    0.16450    1.000
    C164     C        0.67230    0.05160    0.20314    1.000
    H110     H        0.69180    0.08300    0.22360    1.000
    C165     C        0.66739    0.96160    0.20813    1.000
    C166     C        0.63902    0.91910    0.17710    1.000
    H111     H        0.63520    0.85660    0.17900    1.000
    C167     C        0.61644    0.96830    0.14340    1.000
    H112     H        0.59690    0.93840    0.12230    1.000
    N56      N        0.68456    0.49870    0.27773    1.000
    C168     C        0.71274    0.53300    0.30810    1.000
    H113     H        0.72860    0.49390    0.32870    1.000
    C169     C        0.72059    0.62470    0.31170    1.000
    H114     H        0.74140    0.64700    0.33410    1.000
    C170     C        0.69764    0.68100    0.28243    1.000
    C171     C        0.66762    0.64440    0.25100    1.000
    H115     H        0.65100    0.68140    0.23000    1.000
    C172     C        0.66200    0.55340    0.25040    1.000
    H116     H        0.64080    0.52920    0.22920    1.000
    N57      N        0.82764    0.03230    0.40220    1.000
    C173     C        0.80573    0.07650    0.36790    1.000
    H117     H        0.81030    0.13840    0.36480    1.000
    C174     C        0.77685    0.03620    0.33700    1.000
    H118     H        0.76170    0.07000    0.31320    1.000
    C175     C        0.77004    0.94660    0.34067    1.000
    C176     C        0.79303    0.89960    0.37575    1.000
    H119     H        0.78960    0.83730    0.37890    1.000
    C177     C        0.82090    0.94540    0.40583    1.000
    H120     H        0.83610    0.91350    0.43040    1.000
    C178     C        0.69090    0.90940    0.24610    1.000
    N58      N        0.68150    0.82420    0.24894    1.000
    C179     C        0.70439    0.77910    0.28222    1.000
    N59      N        0.73314    0.81440    0.31343    1.000
    C180     C        0.73901    0.90100    0.30760    1.000
    N60      N        0.71953    0.95183    0.27390    1.000
    I55      I        0.38974    0.25610    0.91150    1.000
    I56      I        0.35021    0.42080    0.02080    1.000
    Zn24     Zn       0.67400    0.36480    0.27740    1.000
    I57      I        0.63320    0.33730    0.19780    1.000
    I58      I        0.73690    0.28000    0.30590    1.000
    Zn25     Zn       0.68680    0.36340    0.29390    1.000
    I59      I        0.64720    0.32190    0.21490    1.000
    I60      I        0.74980    0.28590    0.32790    1.000
    Zn26     Zn       0.86804    0.90599    0.95163    1.000
    I61      I        0.88013    0.76016    0.92424    1.000
    I62      I        0.83893    0.93660    0.02905    1.000
    Zn27     Zn       0.07920    0.62734    0.09332    1.000
    I63      I        0.11594    0.73940    0.05396    1.000
    I64      I        0.02471    0.65633    0.13699    1.000
    Zn28     Zn       0.16960    0.86200    0.26610    1.000
    I65      I        0.12371    0.84680    0.19167    1.000
    I66      I        0.23023    0.76672    0.29155    1.000
    N61      N        0.91652    0.98690    0.95285    1.000
    C181     C        0.93083    0.99690    0.91540    1.000
    H121     H        0.91870    0.96530    0.88900    1.000
    C182     C        0.96220    0.05030    0.91240    1.000
    H122     H        0.97200    0.05440    0.88490    1.000
    C183     C        0.97934    0.09840    0.95051    1.000
    C184     C        0.96427    0.09060    0.98910    1.000
    H123     H        0.97520    0.12370    0.01550    1.000
    C185     C        0.93271    0.03360    0.98971    1.000
    H124     H        0.92240    0.02780    0.01680    1.000
    N62      N        0.06063    0.52590    0.04689    1.000
    C186     C        0.08119    0.51020    0.01428    1.000
    H125     H        0.10020    0.55260    0.00920    1.000
    C187     C        0.07591    0.43460    0.98769    1.000
    H126     H        0.09100    0.42550    0.96460    1.000
    C188     C        0.04840    0.37200    0.99496    1.000
    C189     C        0.02592    0.39020    0.02733    1.000
    H127     H        0.00610    0.34990    0.03230    1.000
    C190     C        0.03267    0.46770    0.05240    1.000
    H128     H        0.01690    0.48020    0.07440    1.000
    N63      N        0.13818    0.15320    0.82155    1.000
    C191     C        0.14750    0.21410    0.85430    1.000
    H129     H        0.17150    0.24600    0.85670    1.000
    C192     C        0.12320    0.23180    0.88490    1.000
    H130     H        0.13010    0.27620    0.90750    1.000
    C193     C        0.08872    0.18440    0.88210    1.000
    C194     C        0.08038    0.12040    0.84920    1.000
    H131     H        0.05700    0.08620    0.84640    1.000
    C195     C        0.10610    0.10610    0.82030    1.000
    H132     H        0.10040    0.06000    0.79830    1.000
    C196     C        0.01206    0.15980    0.94751    1.000
    N64      N        0.01594    0.23130    0.97511    1.000
    C197     C        0.04406    0.28750    0.96849    1.000
    N65      N        0.06849    0.27560    0.93950    1.000
    C198     C        0.06245    0.20070    0.91509    1.000
    N66      N        0.03422    0.14150    0.91694    1.000
    N67      N        0.12048    0.55510    0.13878    1.000
    C199     C        0.14843    0.59590    0.16795    1.000
    H133     H        0.15220    0.65800    0.16450    1.000
    C200     C        0.17230    0.55160    0.20314    1.000
    H134     H        0.19180    0.58300    0.22360    1.000
    C201     C        0.16739    0.46160    0.20813    1.000
    C202     C        0.13902    0.41910    0.17710    1.000
    H135     H        0.13520    0.35660    0.17900    1.000
    C203     C        0.11644    0.46830    0.14340    1.000
    H136     H        0.09690    0.43840    0.12230    1.000
    N68      N        0.18456    0.99870    0.27773    1.000
    C204     C        0.21274    0.03300    0.30810    1.000
    H137     H        0.22860    0.99390    0.32870    1.000
    C205     C        0.22059    0.12470    0.31170    1.000
    H138     H        0.24140    0.14700    0.33410    1.000
    C206     C        0.19764    0.18100    0.28243    1.000
    C207     C        0.16762    0.14440    0.25100    1.000
    H139     H        0.15100    0.18140    0.23000    1.000
    C208     C        0.16200    0.05340    0.25040    1.000
    H140     H        0.14080    0.02920    0.22920    1.000
    N69      N        0.32764    0.53230    0.40220    1.000
    C209     C        0.30573    0.57650    0.36790    1.000
    H141     H        0.31030    0.63840    0.36480    1.000
    C210     C        0.27685    0.53620    0.33700    1.000
    H142     H        0.26170    0.57000    0.31320    1.000
    C211     C        0.27004    0.44660    0.34067    1.000
    C212     C        0.29303    0.39960    0.37575    1.000
    H143     H        0.28960    0.33730    0.37890    1.000
    C213     C        0.32090    0.44540    0.40583    1.000
    H144     H        0.33610    0.41350    0.43040    1.000
    C214     C        0.19090    0.40940    0.24610    1.000
    N70      N        0.18150    0.32420    0.24894    1.000
    C215     C        0.20439    0.27910    0.28222    1.000
    N71      N        0.23314    0.31440    0.31343    1.000
    C216     C        0.23901    0.40100    0.30760    1.000
    N72      N        0.21953    0.45183    0.27390    1.000
    I67      I        0.88974    0.75610    0.91150    1.000
    I68      I        0.85021    0.92080    0.02080    1.000
    Zn29     Zn       0.17400    0.86480    0.27740    1.000
    I69      I        0.13320    0.83730    0.19780    1.000
    I70      I        0.23690    0.78000    0.30590    1.000
    Zn30     Zn       0.18680    0.86340    0.29390    1.000
    I71      I        0.14720    0.82190    0.21490    1.000
    I72      I        0.24980    0.78590    0.32790    1.000
    Zn31     Zn       0.36804    0.59401    0.45163    1.000
    I73      I        0.38013    0.73984    0.42424    1.000
    I74      I        0.33893    0.56340    0.52905    1.000
    Zn32     Zn       0.57920    0.87266    0.59332    1.000
    I75      I        0.61594    0.76060    0.55396    1.000
    I76      I        0.52471    0.84367    0.63699    1.000
    Zn33     Zn       0.66960    0.63800    0.76610    1.000
    I77      I        0.62371    0.65320    0.69167    1.000
    I78      I        0.73023    0.73328    0.79155    1.000
    N73      N        0.41652    0.51310    0.45285    1.000
    C217     C        0.43083    0.50310    0.41540    1.000
    H145     H        0.41870    0.53470    0.38900    1.000
    C218     C        0.46220    0.44970    0.41240    1.000
    H146     H        0.47200    0.44560    0.38490    1.000
    C219     C        0.47934    0.40160    0.45051    1.000
    C220     C        0.46427    0.40940    0.48910    1.000
    H147     H        0.47520    0.37630    0.51550    1.000
    C221     C        0.43271    0.46640    0.48971    1.000
    H148     H        0.42240    0.47220    0.51680    1.000
    N74      N        0.56063    0.97410    0.54689    1.000
    C222     C        0.58119    0.98980    0.51428    1.000
    H149     H        0.60020    0.94740    0.50920    1.000
    C223     C        0.57591    0.06540    0.48769    1.000
    H150     H        0.59100    0.07450    0.46460    1.000
    C224     C        0.54840    0.12800    0.49496    1.000
    C225     C        0.52592    0.10980    0.52733    1.000
    H151     H        0.50610    0.15010    0.53230    1.000
    C226     C        0.53267    0.03230    0.55240    1.000
    H152     H        0.51690    0.01980    0.57440    1.000
    N75      N        0.63818    0.34680    0.32155    1.000
    C227     C        0.64750    0.28590    0.35430    1.000
    H153     H        0.67150    0.25400    0.35670    1.000
    C228     C        0.62320    0.26820    0.38490    1.000
    H154     H        0.63010    0.22380    0.40750    1.000
    C229     C        0.58872    0.31560    0.38210    1.000
    C230     C        0.58038    0.37960    0.34920    1.000
    H155     H        0.55700    0.41380    0.34640    1.000
    C231     C        0.60610    0.39390    0.32030    1.000
    H156     H        0.60040    0.44000    0.29830    1.000
    C232     C        0.51206    0.34020    0.44751    1.000
    N76      N        0.51594    0.26870    0.47511    1.000
    C233     C        0.54406    0.21250    0.46849    1.000
    N77      N        0.56849    0.22440    0.43950    1.000
    C234     C        0.56245    0.29930    0.41509    1.000
    N78      N        0.53422    0.35850    0.41694    1.000
    N79      N        0.62048    0.94490    0.63878    1.000
    C235     C        0.64843    0.90410    0.66795    1.000
    H157     H        0.65220    0.84200    0.66450    1.000
    C236     C        0.67230    0.94840    0.70314    1.000
    H158     H        0.69180    0.91700    0.72360    1.000
    C237     C        0.66739    0.03840    0.70813    1.000
    C238     C        0.63902    0.08090    0.67710    1.000
    H159     H        0.63520    0.14340    0.67900    1.000
    C239     C        0.61644    0.03170    0.64340    1.000
    H160     H        0.59690    0.06160    0.62230    1.000
    N80      N        0.68456    0.50130    0.77773    1.000
    C240     C        0.71274    0.46700    0.80810    1.000
    H161     H        0.72860    0.50610    0.82870    1.000
    C241     C        0.72059    0.37530    0.81170    1.000
    H162     H        0.74140    0.35300    0.83410    1.000
    C242     C        0.69764    0.31900    0.78243    1.000
    C243     C        0.66762    0.35560    0.75100    1.000
    H163     H        0.65100    0.31860    0.73000    1.000
    C244     C        0.66200    0.44660    0.75040    1.000
    H164     H        0.64080    0.47080    0.72920    1.000
    N81      N        0.82764    0.96770    0.90220    1.000
    C245     C        0.80573    0.92350    0.86790    1.000
    H165     H        0.81030    0.86160    0.86480    1.000
    C246     C        0.77685    0.96380    0.83700    1.000
    H166     H        0.76170    0.93000    0.81320    1.000
    C247     C        0.77004    0.05340    0.84067    1.000
    C248     C        0.79303    0.10040    0.87575    1.000
    H167     H        0.78960    0.16270    0.87890    1.000
    C249     C        0.82090    0.05460    0.90583    1.000
    H168     H        0.83610    0.08650    0.93040    1.000
    C250     C        0.69090    0.09060    0.74610    1.000
    N82      N        0.68150    0.17580    0.74894    1.000
    C251     C        0.70439    0.22090    0.78222    1.000
    N83      N        0.73314    0.18560    0.81343    1.000
    C252     C        0.73901    0.09900    0.80760    1.000
    N84      N        0.71953    0.04817    0.77390    1.000
    I79      I        0.38974    0.74390    0.41150    1.000
    I80      I        0.35021    0.57920    0.52080    1.000
    Zn34     Zn       0.67400    0.63520    0.77740    1.000
    I81      I        0.63320    0.66270    0.69780    1.000
    I82      I        0.73690    0.72000    0.80590    1.000
    Zn35     Zn       0.68680    0.63660    0.79390    1.000
    I83      I        0.64720    0.67810    0.71490    1.000
    I84      I        0.74980    0.71410    0.82790    1.000
    Zn36     Zn       0.86804    0.09401    0.45163    1.000
    I85      I        0.88013    0.23984    0.42424    1.000
    I86      I        0.83893    0.06340    0.52905    1.000
    Zn37     Zn       0.07920    0.37266    0.59332    1.000
    I87      I        0.11594    0.26060    0.55396    1.000
    I88      I        0.02471    0.34367    0.63699    1.000
    Zn38     Zn       0.16960    0.13800    0.76610    1.000
    I89      I        0.12371    0.15320    0.69167    1.000
    I90      I        0.23023    0.23328    0.79155    1.000
    N85      N        0.91652    0.01310    0.45285    1.000
    C253     C        0.93083    0.00310    0.41540    1.000
    H169     H        0.91870    0.03470    0.38900    1.000
    C254     C        0.96220    0.94970    0.41240    1.000
    H170     H        0.97200    0.94560    0.38490    1.000
    C255     C        0.97934    0.90160    0.45051    1.000
    C256     C        0.96427    0.90940    0.48910    1.000
    H171     H        0.97520    0.87630    0.51550    1.000
    C257     C        0.93271    0.96640    0.48971    1.000
    H172     H        0.92240    0.97220    0.51680    1.000
    N86      N        0.06063    0.47410    0.54689    1.000
    C258     C        0.08119    0.48980    0.51428    1.000
    H173     H        0.10020    0.44740    0.50920    1.000
    C259     C        0.07591    0.56540    0.48769    1.000
    H174     H        0.09100    0.57450    0.46460    1.000
    C260     C        0.04840    0.62800    0.49496    1.000
    C261     C        0.02592    0.60980    0.52733    1.000
    H175     H        0.00610    0.65010    0.53230    1.000
    C262     C        0.03267    0.53230    0.55240    1.000
    H176     H        0.01690    0.51980    0.57440    1.000
    N87      N        0.13818    0.84680    0.32155    1.000
    C263     C        0.14750    0.78590    0.35430    1.000
    H177     H        0.17150    0.75400    0.35670    1.000
    C264     C        0.12320    0.76820    0.38490    1.000
    H178     H        0.13010    0.72380    0.40750    1.000
    C265     C        0.08872    0.81560    0.38210    1.000
    C266     C        0.08038    0.87960    0.34920    1.000
    H179     H        0.05700    0.91380    0.34640    1.000
    C267     C        0.10610    0.89390    0.32030    1.000
    H180     H        0.10040    0.94000    0.29830    1.000
    C268     C        0.01206    0.84020    0.44751    1.000
    N88      N        0.01594    0.76870    0.47511    1.000
    C269     C        0.04406    0.71250    0.46849    1.000
    N89      N        0.06849    0.72440    0.43950    1.000
    C270     C        0.06245    0.79930    0.41509    1.000
    N90      N        0.03422    0.85850    0.41694    1.000
    N91      N        0.12048    0.44490    0.63878    1.000
    C271     C        0.14843    0.40410    0.66795    1.000
    H181     H        0.15220    0.34200    0.66450    1.000
    C272     C        0.17230    0.44840    0.70314    1.000
    H182     H        0.19180    0.41700    0.72360    1.000
    C273     C        0.16739    0.53840    0.70813    1.000
    C274     C        0.13902    0.58090    0.67710    1.000
    H183     H        0.13520    0.64340    0.67900    1.000
    C275     C        0.11644    0.53170    0.64340    1.000
    H184     H        0.09690    0.56160    0.62230    1.000
    N92      N        0.18456    0.00130    0.77773    1.000
    C276     C        0.21274    0.96700    0.80810    1.000
    H185     H        0.22860    0.00610    0.82870    1.000
    C277     C        0.22059    0.87530    0.81170    1.000
    H186     H        0.24140    0.85300    0.83410    1.000
    C278     C        0.19764    0.81900    0.78243    1.000
    C279     C        0.16762    0.85560    0.75100    1.000
    H187     H        0.15100    0.81860    0.73000    1.000
    C280     C        0.16200    0.94660    0.75040    1.000
    H188     H        0.14080    0.97080    0.72920    1.000
    N93      N        0.32764    0.46770    0.90220    1.000
    C281     C        0.30573    0.42350    0.86790    1.000
    H189     H        0.31030    0.36160    0.86480    1.000
    C282     C        0.27685    0.46380    0.83700    1.000
    H190     H        0.26170    0.43000    0.81320    1.000
    C283     C        0.27004    0.55340    0.84067    1.000
    C284     C        0.29303    0.60040    0.87575    1.000
    H191     H        0.28960    0.66270    0.87890    1.000
    C285     C        0.32090    0.55460    0.90583    1.000
    H192     H        0.33610    0.58650    0.93040    1.000
    C286     C        0.19090    0.59060    0.74610    1.000
    N94      N        0.18150    0.67580    0.74894    1.000
    C287     C        0.20439    0.72090    0.78222    1.000
    N95      N        0.23314    0.68560    0.81343    1.000
    C288     C        0.23901    0.59900    0.80760    1.000
    N96      N        0.21953    0.54817    0.77390    1.000
    I91      I        0.88974    0.24390    0.41150    1.000
    I92      I        0.85021    0.07920    0.52080    1.000
    Zn39     Zn       0.17400    0.13520    0.77740    1.000
    I93      I        0.13320    0.16270    0.69780    1.000
    I94      I        0.23690    0.22000    0.80590    1.000
    Zn40     Zn       0.18680    0.13660    0.79390    1.000
    I95      I        0.14720    0.17810    0.71490    1.000
    I96      I        0.24980    0.21410    0.82790    1.000
