data_functionalizedCrystal
_audit_creation_method	'EQeq! by Chris Wilmer'
_symmetry_space_group_name_H-M	'P1'
_symmetry_Int_Tables_number	1
_symmetry_cell_setting	triclinic
loop_
_symmetry_equiv_pos_as_xyz
  x,y,z
_cell_length_a	9.2137
_cell_length_b	15.2014
_cell_length_c	12.0457
_cell_angle_alpha	90
_cell_angle_beta	101.893
_cell_angle_gamma	90
loop_
_atom_site_label
_atom_site_type_symbol
_atom_site_fract_x
_atom_site_fract_y
_atom_site_fract_z
_atom_site_charge
Mof_P 	P 	0.8945	0.1073	0.8908	0.625
Mof_P 	P 	0.4488	0.003	0.8167	0.631
Mof_O 	O 	0.5195	0.0829	0.7747	-0.352
Mof_O 	O 	0.8243	0.1005	0.7643	-0.355
Mof_O 	O 	0.6001	0.2432	0.6906	-0.28
Mof_O 	O 	0.6675	0.9926	0.5978	-0.281
Mof_O 	O 	0.7383	0.1693	0.5436	-0.28
Mof_O 	O 	0.4441	0.1046	0.5347	-0.271
Mof_O 	O 	0.8153	0.0521	0.9634	-0.365
Mof_O 	O 	0.3183	0.0318	0.867	-0.342
Mof_O 	O 	0.5578	0.9468	0.8981	-0.378
Mof_O 	O 	0.054	0.0849	0.8996	-0.34
Mof_O 	O 	0.7936	0.3031	0.4834	-0.277
Mof_O 	O 	0.6571	0.3786	0.6337	-0.276
Mof_O 	O 	0.8828	0.2041	0.9319	-0.426
Mof_H 	H 	0.9197	0.2375	0.892	0.284
Mof_O 	O 	0.383	0.946	0.71	-0.445
Mof_H 	H 	0.3406	0.903	0.7295	0.303
Mof_C 	C 	0.5648	0.9676	0.5183	0.255
Mof_C 	C 	0.7386	0.252	0.5448	0.242
Mof_C 	C 	0.6578	0.2957	0.6311	0.245
Mof_Fe	Fe	0.63476	0.11255	0.66452	1.018
Mof_Fe	Fe	0.7522	0.93807	0.99795	1.06
Mof_P 	P 	0.6055	0.6073	0.6092	0.631
Mof_P 	P 	0.0512	0.503	0.6833	0.631
Mof_O 	O 	0.9805	0.5829	0.7253	-0.354
Mof_O 	O 	0.6757	0.6005	0.7357	-0.354
Mof_O 	O 	0.8999	0.7432	0.8094	-0.281
Mof_O 	O 	0.8325	0.4926	0.9022	-0.279
Mof_O 	O 	0.7617	0.6693	0.9564	-0.279
Mof_O 	O 	0.0559	0.6046	0.9653	-0.263
Mof_O 	O 	0.6847	0.5521	0.5366	-0.368
Mof_O 	O 	0.1817	0.5318	0.633	-0.347
Mof_O 	O 	0.9422	0.4468	0.6019	-0.378
Mof_O 	O 	0.446	0.5849	0.6004	-0.351
Mof_O 	O 	0.7064	0.8031	0.0166	-0.267
Mof_O 	O 	0.8429	0.8786	0.8663	-0.278
Mof_O 	O 	0.6172	0.7041	0.5681	-0.426
Mof_H 	H 	0.5803	0.7375	0.608	0.285
Mof_O 	O 	0.117	0.446	0.79	-0.44
Mof_H 	H 	0.1594	0.403	0.7705	0.303
Mof_C 	C 	0.9352	0.4676	0.9817	0.248
Mof_C 	C 	0.7614	0.752	0.9552	0.233
Mof_C 	C 	0.8422	0.7957	0.8689	0.247
Mof_Fe	Fe	0.86524	0.61255	0.83548	1.014
Mof_Fe	Fe	0.7478	0.43807	0.50205	1.076
Mof_P 	P 	0.1055	0.8927	0.1092	0.626
Mof_P 	P 	0.5512	0.997	0.1833	0.632
Mof_O 	O 	0.4805	0.9171	0.2253	-0.351
Mof_O 	O 	0.1757	0.8995	0.2357	-0.354
Mof_O 	O 	0.3999	0.7568	0.3094	-0.28
Mof_O 	O 	0.3325	0.0074	0.4022	-0.281
Mof_O 	O 	0.2617	0.8307	0.4564	-0.28
Mof_O 	O 	0.5559	0.8954	0.4653	-0.271
Mof_O 	O 	0.1847	0.9479	0.0366	-0.365
Mof_O 	O 	0.6817	0.9682	0.133	-0.342
Mof_O 	O 	0.4422	0.0532	0.1019	-0.378
Mof_O 	O 	0.946	0.9151	0.1004	-0.34
Mof_O 	O 	0.2064	0.6969	0.5166	-0.277
Mof_O 	O 	0.3429	0.6214	0.3663	-0.276
Mof_O 	O 	0.1172	0.7959	0.0681	-0.426
Mof_H 	H 	0.0803	0.7625	0.108	0.284
Mof_O 	O 	0.617	0.054	0.29	-0.445
Mof_H 	H 	0.6594	0.097	0.2705	0.303
Mof_C 	C 	0.4352	0.0324	0.4817	0.255
Mof_C 	C 	0.2614	0.748	0.4552	0.242
Mof_C 	C 	0.3422	0.7043	0.3689	0.245
Mof_Fe	Fe	0.36524	0.88745	0.33548	1.018
Mof_Fe	Fe	0.2478	0.06193	0.00205	1.06
Mof_P 	P 	0.3945	0.3927	0.3908	0.631
Mof_P 	P 	0.9488	0.497	0.3167	0.631
Mof_O 	O 	0.0195	0.4171	0.2747	-0.354
Mof_O 	O 	0.3243	0.3995	0.2643	-0.354
Mof_O 	O 	0.1001	0.2568	0.1906	-0.281
Mof_O 	O 	0.1675	0.5074	0.0978	-0.279
Mof_O 	O 	0.2383	0.3307	0.0436	-0.279
Mof_O 	O 	0.9441	0.3954	0.0347	-0.263
Mof_O 	O 	0.3153	0.4479	0.4634	-0.368
Mof_O 	O 	0.8183	0.4682	0.367	-0.347
Mof_O 	O 	0.0578	0.5532	0.3981	-0.378
Mof_O 	O 	0.554	0.4151	0.3996	-0.351
Mof_O 	O 	0.2936	0.1969	0.9834	-0.267
Mof_O 	O 	0.1571	0.1214	0.1337	-0.278
Mof_O 	O 	0.3828	0.2959	0.4319	-0.426
Mof_H 	H 	0.4197	0.2625	0.392	0.285
Mof_O 	O 	0.883	0.554	0.21	-0.44
Mof_H 	H 	0.8406	0.597	0.2295	0.303
Mof_C 	C 	0.0648	0.5324	0.0183	0.248
Mof_C 	C 	0.2386	0.248	0.0448	0.233
Mof_C 	C 	0.1578	0.2043	0.1311	0.247
Mof_Fe	Fe	0.13476	0.38745	0.16452	1.014
Mof_Fe	Fe	0.2522	0.56193	0.49795	1.076
_end
