# CIF file generated by openbabel 3.1.0, see https://openbabel.org
data_I
_chemical_name_common 'KORMOV_clean'
_cell_length_a 6.121
_cell_length_b 10.781
_cell_length_c 13.987
_cell_angle_alpha 98.901
_cell_angle_beta 96.715
_cell_angle_gamma 103.861
_space_group_name_H-M_alt 'P 1'
_space_group_name_Hall 'P 1'
loop_
    _symmetry_equiv_pos_as_xyz
    x,y,z
loop_
    _atom_site_label
    _atom_site_type_symbol
    _atom_site_fract_x
    _atom_site_fract_y
    _atom_site_fract_z
    _atom_site_occupancy
    Co1      Co       0.64868    0.27667    0.44309    1.000
    Co2      Co       0.40069    0.47772    0.38638    1.000
    Co3      Co       0.59931    0.52228    0.61362    1.000
    Co4      Co       0.35132    0.72333    0.55691    1.000
    H1       H        0.24900    0.08320    0.28350    1.000
    H2       H        0.19400    0.47300    0.53000    1.000
    H3       H        0.34630    0.30500    0.06450    1.000
    H4       H        0.65370    0.69500    0.93550    1.000
    H5       H        0.87270    0.18670    0.17120    1.000
    H6       H        0.91050    0.10240    0.01540    1.000
    H7       H        0.82690    0.73010    0.26100    1.000
    H8       H        0.47390    0.93320    0.19880    1.000
    H9       H        0.75100    0.91680    0.71650    1.000
    H10      H        0.62760    0.79030    0.09140    1.000
    H11      H        0.12730    0.81330    0.82880    1.000
    H12      H        0.68900    0.99350    0.85030    1.000
    H13      H        0.74910    0.03250    0.44740    1.000
    H14      H        0.37240    0.20970    0.90860    1.000
    H15      H        0.08950    0.89760    0.98460    1.000
    H16      H        0.80600    0.52700    0.47000    1.000
    H17      H        0.52610    0.06680    0.80120    1.000
    H18      H        0.17310    0.26990    0.73900    1.000
    H19      H        0.25090    0.96750    0.55260    1.000
    H20      H        0.31100    0.00650    0.14970    1.000
    C1       C        0.12430    0.02920    0.30170    1.000
    C2       C        0.77150    0.19290    0.11830    1.000
    C3       C        0.82710    0.99890    0.40090    1.000
    C4       C        0.09380    0.22210    0.41550    1.000
    C5       C        0.42140    0.69350    0.76300    1.000
    C6       C        0.12710    0.18180    0.71110    1.000
    C7       C        0.17290    0.00110    0.59910    1.000
    C8       C        0.20770    0.85890    0.97510    1.000
    C9       C        0.57860    0.30650    0.23700    1.000
    C10      C        0.45860    0.26150    0.05530    1.000
    C11      C        0.79230    0.14110    0.02490    1.000
    C12      C        0.00930    0.07920    0.37200    1.000
    C13      C        0.66460    0.07840    0.84690    1.000
    C14      C        0.22850    0.80710    0.88170    1.000
    C15      C        0.41850    0.22580    0.60390    1.000
    C16      C        0.64350    0.14530    0.94600    1.000
    C17      C        0.54140    0.73850    0.94470    1.000
    C18      C        0.90620    0.77790    0.58450    1.000
    C19      C        0.87570    0.97080    0.69830    1.000
    C20      C        0.35650    0.85470    0.05400    1.000
    C21      C        0.47610    0.20580    0.96150    1.000
    C22      C        0.99070    0.92080    0.62800    1.000
    C23      C        0.39740    0.74630    0.86590    1.000
    C24      C        0.23790    0.13260    0.64020    1.000
    C25      C        0.58150    0.77420    0.39610    1.000
    C26      C        0.60260    0.25370    0.13410    1.000
    C27      C        0.94730    0.10050    0.74090    1.000
    C28      C        0.05270    0.89950    0.25910    1.000
    C29      C        0.87290    0.81820    0.28890    1.000
    C30      C        0.33540    0.92160    0.15310    1.000
    C31      C        0.52390    0.79420    0.03850    1.000
    C32      C        0.76210    0.86740    0.35980    1.000
    O1       O        0.45430    0.34300    0.63960    1.000
    O2       O        0.65650    0.24950    0.30110    1.000
    O3       O        0.51230    0.60280    0.74710    1.000
    O4       O        0.68830    0.46550    0.47830    1.000
    O5       O        0.51690    0.17850    0.53855    1.000
    O6       O        0.48310    0.82150    0.46145    1.000
    O7       O        0.14670    0.84240    0.18510    1.000
    O8       O        0.31170    0.53450    0.52170    1.000
    O9       O        0.02000    0.72330    0.53084    1.000
    O10      O        0.98000    0.27670    0.46916    1.000
    O11      O        0.54570    0.65700    0.36040    1.000
    O12      O        0.34350    0.75050    0.69890    1.000
    O13      O        0.71760    0.71840    0.60347    1.000
    O14      O        0.28240    0.28160    0.39653    1.000
    O15      O        0.85330    0.15760    0.81490    1.000
    O16      O        0.48770    0.39720    0.25290    1.000
