# CIF file generated by openbabel 3.1.0, see https://openbabel.org
data_I
_chemical_name_common 'image0'
_cell_length_a 9.2006
_cell_length_b 13.4378
_cell_length_c 14.5636
_cell_angle_alpha 90
_cell_angle_beta 90.356
_cell_angle_gamma 90
_space_group_name_H-M_alt 'P 1'
_space_group_name_Hall 'P 1'
loop_
    _symmetry_equiv_pos_as_xyz
    x,y,z
loop_
    _atom_site_label
    _atom_site_type_symbol
    _atom_site_fract_x
    _atom_site_fract_y
    _atom_site_fract_z
    _atom_site_occupancy
    Dy1      Dy       0.25110    0.49698    0.59214    1.000
    C1       C        0.00470    0.38890    0.82730    1.000
    C2       C        0.02960    0.29440    0.86430    1.000
    H1       H        0.09560    0.25020    0.83540    1.000
    C3       C        0.95710    0.26520    0.94390    1.000
    C4       C        0.86500    0.33280    0.98740    1.000
    H2       H        0.81470    0.31290    0.04110    1.000
    C5       C        0.84540    0.42880    0.95360    1.000
    C6       C        0.91220    0.45410    0.87170    1.000
    H3       H        0.89410    0.51770    0.84540    1.000
    C7       C        0.76060    0.50300    0.00940    1.000
    H4       H        0.69970    0.46580    0.05350    1.000
    H5       H        0.83050    0.54320    0.04570    1.000
    C8       C        0.66400    0.57300    0.95690    1.000
    C9       C        0.58980    0.54350    0.87860    1.000
    H6       H        0.60700    0.47910    0.85410    1.000
    C10      C        0.49080    0.60590    0.83510    1.000
    C11      C        0.46350    0.70010    0.87140    1.000
    H7       H        0.39160    0.74160    0.84430    1.000
    C12      C        0.54210    0.73300    0.94750    1.000
    C13      C        0.64260    0.66870    0.98950    1.000
    H8       H        0.69700    0.69120    0.04110    1.000
    C14      C        0.08380    0.42530    0.74330    1.000
    C15      C        0.97660    0.16280    0.98430    1.000
    C16      C        0.41150    0.56740    0.75150    1.000
    C17      C        0.52370    0.83660    0.98620    1.000
    O1       O        0.02680    0.49260    0.69511    1.000
    O2       O        0.20670    0.38850    0.72479    1.000
    O3       O        0.06830    0.10680    0.94991    1.000
    O4       O        0.89850    0.14030    0.05270    1.000
    O5       O        0.47030    0.49760    0.70525    1.000
    O6       O        0.29120    0.60430    0.72891    1.000
    O7       O        0.41470    0.88490    0.96179    1.000
    O8       O        0.61970    0.86730    0.04034    1.000
    Dy2      Dy       0.24890    0.99698    0.90786    1.000
    C18      C        0.49530    0.88890    0.67270    1.000
    C19      C        0.47040    0.79440    0.63570    1.000
    H9       H        0.40440    0.75020    0.66460    1.000
    C20      C        0.54290    0.76520    0.55610    1.000
    C21      C        0.63500    0.83280    0.51260    1.000
    H10      H        0.68530    0.81290    0.45890    1.000
    C22      C        0.65460    0.92880    0.54640    1.000
    C23      C        0.58780    0.95410    0.62830    1.000
    H11      H        0.60590    0.01770    0.65460    1.000
    C24      C        0.73940    0.00300    0.49060    1.000
    H12      H        0.80030    0.96580    0.44650    1.000
    H13      H        0.66950    0.04320    0.45430    1.000
    C25      C        0.83600    0.07300    0.54310    1.000
    C26      C        0.91020    0.04350    0.62140    1.000
    H14      H        0.89300    0.97910    0.64590    1.000
    C27      C        0.00920    0.10590    0.66490    1.000
    C28      C        0.03650    0.20010    0.62860    1.000
    H15      H        0.10840    0.24160    0.65570    1.000
    C29      C        0.95790    0.23300    0.55250    1.000
    C30      C        0.85740    0.16870    0.51050    1.000
    H16      H        0.80300    0.19120    0.45890    1.000
    C31      C        0.41620    0.92530    0.75670    1.000
    C32      C        0.52340    0.66280    0.51570    1.000
    C33      C        0.08850    0.06740    0.74850    1.000
    C34      C        0.97630    0.33660    0.51380    1.000
    O9       O        0.47320    0.99260    0.80489    1.000
    O10      O        0.29330    0.88850    0.77521    1.000
    O11      O        0.43170    0.60680    0.55009    1.000
    O12      O        0.60150    0.64030    0.44730    1.000
    O13      O        0.02970    0.99760    0.79475    1.000
    O14      O        0.20880    0.10430    0.77109    1.000
    O15      O        0.08530    0.38490    0.53821    1.000
    O16      O        0.88030    0.36730    0.45966    1.000
    Dy3      Dy       0.74890    0.50302    0.40786    1.000
    C35      C        0.99530    0.61110    0.17270    1.000
    C36      C        0.97040    0.70560    0.13570    1.000
    H17      H        0.90440    0.74980    0.16460    1.000
    C37      C        0.04290    0.73480    0.05610    1.000
    C38      C        0.13500    0.66720    0.01260    1.000
    H18      H        0.18530    0.68710    0.95890    1.000
    C39      C        0.15460    0.57120    0.04640    1.000
    C40      C        0.08780    0.54590    0.12830    1.000
    H19      H        0.10590    0.48230    0.15460    1.000
    C41      C        0.23940    0.49700    0.99060    1.000
    H20      H        0.30030    0.53420    0.94650    1.000
    H21      H        0.16950    0.45680    0.95430    1.000
    C42      C        0.33600    0.42700    0.04310    1.000
    C43      C        0.41020    0.45650    0.12140    1.000
    H22      H        0.39300    0.52090    0.14590    1.000
    C44      C        0.50920    0.39410    0.16490    1.000
    C45      C        0.53650    0.29990    0.12860    1.000
    H23      H        0.60840    0.25840    0.15570    1.000
    C46      C        0.45790    0.26700    0.05250    1.000
    C47      C        0.35740    0.33130    0.01050    1.000
    H24      H        0.30300    0.30880    0.95890    1.000
    C48      C        0.91620    0.57470    0.25670    1.000
    C49      C        0.02340    0.83720    0.01570    1.000
    C50      C        0.58850    0.43260    0.24850    1.000
    C51      C        0.47630    0.16340    0.01380    1.000
    O17      O        0.97320    0.50740    0.30489    1.000
    O18      O        0.79330    0.61150    0.27521    1.000
    O19      O        0.93170    0.89320    0.05009    1.000
    O20      O        0.10150    0.85970    0.94730    1.000
    O21      O        0.52970    0.50240    0.29475    1.000
    O22      O        0.70880    0.39570    0.27109    1.000
    O23      O        0.58530    0.11510    0.03821    1.000
    O24      O        0.38030    0.13270    0.95966    1.000
    Dy4      Dy       0.75110    0.00302    0.09214    1.000
    C52      C        0.50470    0.11110    0.32730    1.000
    C53      C        0.52960    0.20560    0.36430    1.000
    H25      H        0.59560    0.24980    0.33540    1.000
    C54      C        0.45710    0.23480    0.44390    1.000
    C55      C        0.36500    0.16720    0.48740    1.000
    H26      H        0.31470    0.18710    0.54110    1.000
    C56      C        0.34540    0.07120    0.45360    1.000
    C57      C        0.41220    0.04590    0.37170    1.000
    H27      H        0.39410    0.98230    0.34540    1.000
    C58      C        0.26060    0.99700    0.50940    1.000
    H28      H        0.19970    0.03420    0.55350    1.000
    H29      H        0.33050    0.95680    0.54570    1.000
    C59      C        0.16400    0.92700    0.45690    1.000
    C60      C        0.08980    0.95650    0.37860    1.000
    H30      H        0.10700    0.02090    0.35410    1.000
    C61      C        0.99080    0.89410    0.33510    1.000
    C62      C        0.96350    0.79990    0.37140    1.000
    H31      H        0.89160    0.75840    0.34430    1.000
    C63      C        0.04210    0.76700    0.44750    1.000
    C64      C        0.14260    0.83130    0.48950    1.000
    H32      H        0.19700    0.80880    0.54110    1.000
    C65      C        0.58380    0.07470    0.24330    1.000
    C66      C        0.47660    0.33720    0.48430    1.000
    C67      C        0.91150    0.93260    0.25150    1.000
    C68      C        0.02370    0.66340    0.48620    1.000
    O25      O        0.52680    0.00740    0.19511    1.000
    O26      O        0.70670    0.11150    0.22479    1.000
    O27      O        0.56830    0.39320    0.44991    1.000
    O28      O        0.39850    0.35970    0.55270    1.000
    O29      O        0.97030    0.00240    0.20525    1.000
    O30      O        0.79120    0.89570    0.22891    1.000
    O31      O        0.91470    0.61510    0.46179    1.000
    O32      O        0.11970    0.63270    0.54034    1.000
