data_functionalizedCrystal
_audit_creation_method	'EQeq! by Chris Wilmer'
_symmetry_space_group_name_H-M	'P1'
_symmetry_Int_Tables_number	1
_symmetry_cell_setting	triclinic
loop_
_symmetry_equiv_pos_as_xyz
  x,y,z
_cell_length_a	15.522
_cell_length_b	15.522
_cell_length_c	13.712
_cell_angle_alpha	90
_cell_angle_beta	90
_cell_angle_gamma	120
loop_
_atom_site_label
_atom_site_type_symbol
_atom_site_fract_x
_atom_site_fract_y
_atom_site_fract_z
_atom_site_charge
Mof_O 	O 	0.4725	0.2397	0.5226	-0.251
Mof_O 	O 	0.5863	0.3843	0.4071	-0.467
Mof_O 	O 	0.4598	0.3997	0.3486	-0.407
Mof_C 	C 	0.4976	0.362	0.4031	0.42
Mof_C 	C 	0.4232	0.2783	0.467	-0.196
Mof_H 	H 	0.3907	0.3029	0.51	0.098
Mof_H 	H 	0.3727	0.2261	0.4267	0.096
Mof_C 	C 	0.4102	0.1416	0.5514	-0.194
Mof_H 	H 	0.3842	0.0992	0.4944	0.1
Mof_H 	H 	0.3546	0.1366	0.5883	0.094
Mof_O 	O 	0.5608	0.1653	0.6229	-0.477
Mof_C 	C 	0.4688	0.1082	0.6139	0.418
Mof_O 	O 	0.5813	0.6047	0.3501	-0.417
Mof_O 	O 	0.7603	0.2328	0.5226	-0.252
Mof_O 	O 	0.6157	0.202	0.4071	-0.468
Mof_O 	O 	0.6003	0.0601	0.3486	-0.408
Mof_C 	C 	0.638	0.1356	0.4031	0.419
Mof_C 	C 	0.7217	0.1449	0.467	-0.197
Mof_H 	H 	0.6971	0.0878	0.51	0.096
Mof_H 	H 	0.7739	0.1466	0.4267	0.095
Mof_C 	C 	0.8584	0.2686	0.5514	-0.195
Mof_H 	H 	0.9008	0.285	0.4944	0.099
Mof_H 	H 	0.8634	0.218	0.5883	0.093
Mof_O 	O 	0.8347	0.3955	0.6229	-0.478
Mof_C 	C 	0.8918	0.3606	0.6139	0.417
Mof_O 	O 	0.3953	0.9766	0.3501	-0.417
Mof_O 	O 	0.7672	0.5275	0.5226	-0.252
Mof_O 	O 	0.798	0.4137	0.4071	-0.468
Mof_O 	O 	0.9399	0.5402	0.3486	-0.408
Mof_C 	C 	0.8644	0.5024	0.4031	0.419
Mof_C 	C 	0.8551	0.5768	0.467	-0.197
Mof_H 	H 	0.9122	0.6093	0.51	0.097
Mof_H 	H 	0.8534	0.6273	0.4267	0.095
Mof_C 	C 	0.7314	0.5898	0.5514	-0.195
Mof_H 	H 	0.715	0.6158	0.4944	0.099
Mof_H 	H 	0.782	0.6454	0.5883	0.093
Mof_O 	O 	0.6045	0.4392	0.6229	-0.478
Mof_C 	C 	0.6394	0.5312	0.6139	0.417
Mof_O 	O 	0.0234	0.4187	0.3501	-0.417
Mof_O 	O 	0.4725	0.2397	0.9774	-0.252
Mof_O 	O 	0.5863	0.3843	0.0929	-0.468
Mof_O 	O 	0.4598	0.3997	0.1514	-0.408
Mof_C 	C 	0.4976	0.362	0.0969	0.419
Mof_C 	C 	0.4232	0.2783	0.033	-0.197
Mof_H 	H 	0.3907	0.3029	0.99	0.097
Mof_H 	H 	0.3727	0.2261	0.0733	0.095
Mof_C 	C 	0.4102	0.1416	0.9486	-0.195
Mof_H 	H 	0.3842	0.0992	0.0056	0.099
Mof_H 	H 	0.3546	0.1366	0.9117	0.093
Mof_O 	O 	0.5608	0.1653	0.8771	-0.478
Mof_C 	C 	0.4688	0.1082	0.8861	0.417
Mof_O 	O 	0.5813	0.6047	0.1499	-0.417
Mof_O 	O 	0.7603	0.2328	0.9774	-0.252
Mof_O 	O 	0.6157	0.202	0.0929	-0.468
Mof_O 	O 	0.6003	0.0601	0.1514	-0.408
Mof_C 	C 	0.638	0.1356	0.0969	0.419
Mof_C 	C 	0.7217	0.1449	0.033	-0.197
Mof_H 	H 	0.6971	0.0878	0.99	0.097
Mof_H 	H 	0.7739	0.1466	0.0733	0.095
Mof_C 	C 	0.8584	0.2686	0.9486	-0.195
Mof_H 	H 	0.9008	0.285	0.0056	0.099
Mof_H 	H 	0.8634	0.218	0.9117	0.093
Mof_O 	O 	0.8347	0.3955	0.8771	-0.478
Mof_C 	C 	0.8918	0.3606	0.8861	0.417
Mof_O 	O 	0.3953	0.9766	0.1499	-0.417
Mof_O 	O 	0.7672	0.5275	0.9774	-0.252
Mof_O 	O 	0.798	0.4137	0.0929	-0.468
Mof_O 	O 	0.9399	0.5402	0.1514	-0.408
Mof_C 	C 	0.8644	0.5024	0.0969	0.419
Mof_C 	C 	0.8551	0.5768	0.033	-0.197
Mof_H 	H 	0.9122	0.6093	0.99	0.097
Mof_H 	H 	0.8534	0.6273	0.0733	0.096
Mof_C 	C 	0.7314	0.5898	0.9486	-0.195
Mof_H 	H 	0.715	0.6158	0.0056	0.099
Mof_H 	H 	0.782	0.6454	0.9117	0.093
Mof_O 	O 	0.6045	0.4392	0.8771	-0.478
Mof_C 	C 	0.6394	0.5312	0.8861	0.417
Mof_O 	O 	0.0234	0.4187	0.1499	-0.417
Mof_O 	O 	0.2397	0.4725	0.4774	-0.252
Mof_O 	O 	0.3843	0.5863	0.5929	-0.468
Mof_O 	O 	0.3997	0.4598	0.6514	-0.408
Mof_C 	C 	0.362	0.4976	0.5969	0.419
Mof_C 	C 	0.2783	0.4232	0.533	-0.197
Mof_H 	H 	0.3029	0.3907	0.49	0.097
Mof_H 	H 	0.2261	0.3727	0.5733	0.095
Mof_C 	C 	0.1416	0.4102	0.4486	-0.195
Mof_H 	H 	0.0992	0.3842	0.5056	0.099
Mof_H 	H 	0.1366	0.3546	0.4117	0.093
Mof_O 	O 	0.1653	0.5608	0.3771	-0.478
Mof_C 	C 	0.1082	0.4688	0.3861	0.417
Mof_O 	O 	0.6047	0.5813	0.6499	-0.417
Mof_O 	O 	0.2328	0.7603	0.4774	-0.252
Mof_O 	O 	0.202	0.6157	0.5929	-0.468
Mof_O 	O 	0.0601	0.6003	0.6514	-0.408
Mof_C 	C 	0.1356	0.638	0.5969	0.419
Mof_C 	C 	0.1449	0.7217	0.533	-0.197
Mof_H 	H 	0.0878	0.6971	0.49	0.096
Mof_H 	H 	0.1466	0.7739	0.5733	0.095
Mof_C 	C 	0.2686	0.8584	0.4486	-0.195
Mof_H 	H 	0.285	0.9008	0.5056	0.099
Mof_H 	H 	0.218	0.8634	0.4117	0.093
Mof_O 	O 	0.3955	0.8347	0.3771	-0.478
Mof_C 	C 	0.3606	0.8918	0.3861	0.417
Mof_O 	O 	0.9766	0.3953	0.6499	-0.417
Mof_O 	O 	0.5275	0.7672	0.4774	-0.252
Mof_O 	O 	0.4137	0.798	0.5929	-0.468
Mof_O 	O 	0.5402	0.9399	0.6514	-0.408
Mof_C 	C 	0.5024	0.8644	0.5969	0.419
Mof_C 	C 	0.5768	0.8551	0.533	-0.197
Mof_H 	H 	0.6093	0.9122	0.49	0.097
Mof_H 	H 	0.6273	0.8534	0.5733	0.095
Mof_C 	C 	0.5898	0.7314	0.4486	-0.195
Mof_H 	H 	0.6158	0.715	0.5056	0.099
Mof_H 	H 	0.6454	0.782	0.4117	0.093
Mof_O 	O 	0.4392	0.6045	0.3771	-0.478
Mof_C 	C 	0.5312	0.6394	0.3861	0.417
Mof_O 	O 	0.4187	0.0234	0.6499	-0.417
Mof_O 	O 	0.2397	0.4725	0.0226	-0.252
Mof_O 	O 	0.3843	0.5863	0.9071	-0.468
Mof_O 	O 	0.3997	0.4598	0.8486	-0.408
Mof_C 	C 	0.362	0.4976	0.9031	0.419
Mof_C 	C 	0.2783	0.4232	0.967	-0.197
Mof_H 	H 	0.3029	0.3907	0.01	0.097
Mof_H 	H 	0.2261	0.3727	0.9267	0.095
Mof_C 	C 	0.1416	0.4102	0.0514	-0.195
Mof_H 	H 	0.0992	0.3842	0.9944	0.099
Mof_H 	H 	0.1366	0.3546	0.0883	0.093
Mof_O 	O 	0.1653	0.5608	0.1229	-0.478
Mof_C 	C 	0.1082	0.4688	0.1139	0.417
Mof_O 	O 	0.6047	0.5813	0.8501	-0.417
Mof_O 	O 	0.2328	0.7603	0.0226	-0.252
Mof_O 	O 	0.202	0.6157	0.9071	-0.468
Mof_O 	O 	0.0601	0.6003	0.8486	-0.408
Mof_C 	C 	0.1356	0.638	0.9031	0.419
Mof_C 	C 	0.1449	0.7217	0.967	-0.197
Mof_H 	H 	0.0878	0.6971	0.01	0.097
Mof_H 	H 	0.1466	0.7739	0.9267	0.095
Mof_C 	C 	0.2686	0.8584	0.0514	-0.195
Mof_H 	H 	0.285	0.9008	0.9944	0.099
Mof_H 	H 	0.218	0.8634	0.0883	0.093
Mof_O 	O 	0.3955	0.8347	0.1229	-0.478
Mof_C 	C 	0.3606	0.8918	0.1139	0.417
Mof_O 	O 	0.9766	0.3953	0.8501	-0.417
Mof_O 	O 	0.5275	0.7672	0.0226	-0.252
Mof_O 	O 	0.4137	0.798	0.9071	-0.468
Mof_O 	O 	0.5402	0.9399	0.8486	-0.408
Mof_C 	C 	0.5024	0.8644	0.9031	0.419
Mof_C 	C 	0.5768	0.8551	0.967	-0.197
Mof_H 	H 	0.6093	0.9122	0.01	0.097
Mof_H 	H 	0.6273	0.8534	0.9267	0.096
Mof_C 	C 	0.5898	0.7314	0.0514	-0.195
Mof_H 	H 	0.6158	0.715	0.9944	0.099
Mof_H 	H 	0.6454	0.782	0.0883	0.093
Mof_O 	O 	0.4392	0.6045	0.1229	-0.478
Mof_C 	C 	0.5312	0.6394	0.1139	0.417
Mof_O 	O 	0.4187	0.0234	0.8501	-0.417
Mof_La	La	0.66667	0.33333	0.53937	2.311
Mof_La	La	0.66667	0.33333	0.96063	2.312
Mof_La	La	0.33333	0.66667	0.46063	2.311
Mof_La	La	0.33333	0.66667	0.03937	2.312
Mof_Cu	Cu	0.52863	0.502	0.25	0.948
Mof_Cu	Cu	0.498	0.02663	0.25	0.948
Mof_Cu	Cu	0.97337	0.47137	0.25	0.948
Mof_Cu	Cu	0.502	0.52863	0.75	0.948
Mof_Cu	Cu	0.02663	0.498	0.75	0.948
Mof_Cu	Cu	0.47137	0.97337	0.75	0.948
Mof_O 	O 	0.674	0.329	0.75	-0.101
Mof_O 	O 	0.671	0.345	0.75	-0.101
Mof_O 	O 	0.655	0.326	0.75	-0.101
Mof_O 	O 	0.329	0.674	0.25	-0.101
Mof_O 	O 	0.345	0.671	0.25	-0.101
Mof_O 	O 	0.326	0.655	0.25	-0.101
_end
