data_functionalizedCrystal
_audit_creation_method	'EQeq! by Chris Wilmer'
_symmetry_space_group_name_H-M	'P1'
_symmetry_Int_Tables_number	1
_symmetry_cell_setting	triclinic
loop_
_symmetry_equiv_pos_as_xyz
  x,y,z
_cell_length_a	22.6129
_cell_length_b	22.6129
_cell_length_c	27.6947
_cell_angle_alpha	114.095
_cell_angle_beta	114.095
_cell_angle_gamma	90
loop_
_atom_site_label
_atom_site_type_symbol
_atom_site_fract_x
_atom_site_fract_y
_atom_site_fract_z
_atom_site_charge
Mof_Co	Co	0.75	0.69207	0.5	1.113
Mof_Co	Co	0.25	0.80793	0.5	1.113
Mof_Co	Co	0.69207	0.25	-0	1.109
Mof_Co	Co	0.80793	0.75	-0	1.109
Mof_Co	Co	0.25	0.30793	0.5	1.113
Mof_Co	Co	0.75	0.19207	0.5	1.114
Mof_Co	Co	0.30793	0.75	-0	1.11
Mof_Co	Co	0.19207	0.25	-0	1.11
Mof_H 	H 	0.0831	0.8197	0.8694	-0.003
Mof_H 	H 	0.046	0.9943	0.8718	0.005
Mof_H 	H 	0.8915	0.8396	0.6822	0.089
Mof_H 	H 	0.9051	0.7754	0.6928	0.091
Mof_H 	H 	0.0634	0.0281	0.9606	0.281
Mof_H 	H 	0.1415	0.0344	0.983	0.291
Mof_H 	H 	0.1084	0.0247	0.0212	0.259
Mof_H 	H 	0.1397	0.8651	0.9538	0.275
Mof_H 	H 	0.1573	0.9245	0.0174	0.243
Mof_H 	H 	0.1902	0.9316	0.9782	0.267
Mof_H 	H 	0.0336	0.8627	0.9412	0.226
Mof_H 	H 	0.9983	0.9247	0.9448	0.21
Mof_H 	H 	0.0564	0.9268	0.0034	0.195
Mof_H 	H 	0.6767	0.2553	0.42	-0.02
Mof_H 	H 	0.6734	0.3566	0.4178	0.057
Mof_H 	H 	0.6508	0.4634	0.4542	0.05
Mof_H 	H 	0.6535	0.5663	0.456	-0.019
Mof_H 	H 	0.2863	0.0497	0.8694	-0.005
Mof_H 	H 	0.3258	0.8775	0.8718	0.003
Mof_H 	H 	0.2907	0.8426	0.6822	0.089
Mof_H 	H 	0.2877	0.9174	0.6928	0.091
Mof_H 	H 	0.3972	0.9325	0.9606	0.284
Mof_H 	H 	0.3415	0.9486	0.983	0.294
Mof_H 	H 	0.4128	0.9965	0.0212	0.26
Mof_H 	H 	0.3141	0.0887	0.9538	0.278
Mof_H 	H 	0.3601	0.0929	0.0174	0.248
Mof_H 	H 	0.288	0.0466	0.9782	0.271
Mof_H 	H 	0.4076	0.0785	0.9412	0.229
Mof_H 	H 	0.4465	0.0201	0.9448	0.215
Mof_H 	H 	0.447	0.0766	0.0034	0.2
Mof_H 	H 	0.2433	0.1647	0.42	-0.02
Mof_H 	H 	0.2444	0.0612	0.4178	0.057
Mof_H 	H 	0.3034	0.9908	0.4542	0.05
Mof_H 	H 	0.3025	0.8897	0.456	-0.019
Mof_H 	H 	0.8197	0.2863	0.3694	-0.013
Mof_H 	H 	0.9943	0.3258	0.3718	-0.003
Mof_H 	H 	0.8396	0.2907	0.1822	0.088
Mof_H 	H 	0.7754	0.2877	0.1928	0.09
Mof_H 	H 	0.0281	0.3972	0.4606	0.315
Mof_H 	H 	0.0344	0.3415	0.483	0.323
Mof_H 	H 	0.0247	0.4128	0.5212	0.303
Mof_H 	H 	0.8651	0.3141	0.4538	0.304
Mof_H 	H 	0.9245	0.3601	0.5174	0.284
Mof_H 	H 	0.9316	0.288	0.4782	0.295
Mof_H 	H 	0.8627	0.4076	0.4412	0.251
Mof_H 	H 	0.9247	0.4465	0.4448	0.238
Mof_H 	H 	0.9268	0.447	0.5034	0.233
Mof_H 	H 	0.2553	0.2433	0.92	-0.021
Mof_H 	H 	0.3566	0.2444	0.9178	0.054
Mof_H 	H 	0.4634	0.3034	0.9542	0.046
Mof_H 	H 	0.5663	0.3025	0.956	-0.019
Mof_H 	H 	0.0497	0.0831	0.3694	-0.011
Mof_H 	H 	0.8775	0.046	0.3718	-0.002
Mof_H 	H 	0.8426	0.8915	0.1822	0.088
Mof_H 	H 	0.9174	0.9051	0.1928	0.09
Mof_H 	H 	0.9325	0.0634	0.4606	0.313
Mof_H 	H 	0.9486	0.1415	0.483	0.32
Mof_H 	H 	0.9965	0.1084	0.5212	0.301
Mof_H 	H 	0.0887	0.1397	0.4538	0.302
Mof_H 	H 	0.0929	0.1573	0.5174	0.282
Mof_H 	H 	0.0466	0.1902	0.4782	0.293
Mof_H 	H 	0.0785	0.0336	0.4412	0.249
Mof_H 	H 	0.0201	0.9983	0.4448	0.235
Mof_H 	H 	0.0766	0.0564	0.5034	0.231
Mof_H 	H 	0.1647	0.6767	0.92	-0.021
Mof_H 	H 	0.0612	0.6734	0.9178	0.054
Mof_H 	H 	0.9908	0.6508	0.9542	0.046
Mof_H 	H 	0.8897	0.6535	0.956	-0.019
Mof_H 	H 	0.2137	0.6803	0.1306	-0.022
Mof_H 	H 	0.1742	0.5057	0.1282	-0.012
Mof_H 	H 	0.2093	0.6604	0.3178	0.088
Mof_H 	H 	0.2123	0.7246	0.3072	0.09
Mof_H 	H 	0.1028	0.4719	0.0394	0.349
Mof_H 	H 	0.1585	0.4656	0.017	0.354
Mof_H 	H 	0.0872	0.4753	0.9788	0.347
Mof_H 	H 	0.1859	0.6349	0.0462	0.333
Mof_H 	H 	0.1399	0.5755	0.9826	0.324
Mof_H 	H 	0.212	0.5684	0.0218	0.322
Mof_H 	H 	0.0924	0.6373	0.0588	0.276
Mof_H 	H 	0.0535	0.5753	0.0552	0.264
Mof_H 	H 	0.053	0.5732	0.9966	0.269
Mof_H 	H 	0.2567	0.2447	0.58	-0.02
Mof_H 	H 	0.2556	0.1434	0.5822	0.057
Mof_H 	H 	0.1966	0.0366	0.5458	0.05
Mof_H 	H 	0.1975	0.9337	0.544	-0.019
Mof_H 	H 	0.4169	0.4503	0.1306	-0.021
Mof_H 	H 	0.454	0.6225	0.1282	-0.012
Mof_H 	H 	0.6085	0.6574	0.3178	0.088
Mof_H 	H 	0.5949	0.5826	0.3072	0.09
Mof_H 	H 	0.4366	0.5675	0.0394	0.348
Mof_H 	H 	0.3585	0.5514	0.017	0.354
Mof_H 	H 	0.3916	0.5035	0.9788	0.347
Mof_H 	H 	0.3603	0.4113	0.0462	0.333
Mof_H 	H 	0.3427	0.4071	0.9826	0.323
Mof_H 	H 	0.3098	0.4534	0.0218	0.321
Mof_H 	H 	0.4664	0.4215	0.0588	0.276
Mof_H 	H 	0.5017	0.4799	0.0552	0.264
Mof_H 	H 	0.4436	0.4234	0.9966	0.268
Mof_H 	H 	0.8233	0.3353	0.58	-0.02
Mof_H 	H 	0.8266	0.4388	0.5822	0.057
Mof_H 	H 	0.8492	0.5092	0.5458	0.05
Mof_H 	H 	0.8465	0.6103	0.544	-0.019
Mof_H 	H 	0.4503	0.2137	0.6306	-0.012
Mof_H 	H 	0.6225	0.1742	0.6282	-0.003
Mof_H 	H 	0.6574	0.2093	0.8178	0.089
Mof_H 	H 	0.5826	0.2123	0.8072	0.091
Mof_H 	H 	0.5675	0.1028	0.5394	0.315
Mof_H 	H 	0.5514	0.1585	0.517	0.323
Mof_H 	H 	0.5035	0.0872	0.4788	0.303
Mof_H 	H 	0.4113	0.1859	0.5462	0.304
Mof_H 	H 	0.4071	0.1399	0.4826	0.283
Mof_H 	H 	0.4534	0.212	0.5218	0.295
Mof_H 	H 	0.4215	0.0924	0.5588	0.251
Mof_H 	H 	0.4799	0.0535	0.5552	0.238
Mof_H 	H 	0.4234	0.053	0.4966	0.233
Mof_H 	H 	0.3353	0.2567	0.08	-0.019
Mof_H 	H 	0.4388	0.2556	0.0822	0.056
Mof_H 	H 	0.5092	0.1966	0.0458	0.048
Mof_H 	H 	0.6103	0.1975	0.044	-0.019
Mof_H 	H 	0.6803	0.4169	0.6306	-0.012
Mof_H 	H 	0.5057	0.454	0.6282	-0.003
Mof_H 	H 	0.6604	0.6085	0.8178	0.089
Mof_H 	H 	0.7246	0.5949	0.8072	0.09
Mof_H 	H 	0.4719	0.4366	0.5394	0.314
Mof_H 	H 	0.4656	0.3585	0.517	0.322
Mof_H 	H 	0.4753	0.3916	0.4788	0.302
Mof_H 	H 	0.6349	0.3603	0.5462	0.304
Mof_H 	H 	0.5755	0.3427	0.4826	0.283
Mof_H 	H 	0.5684	0.3098	0.5218	0.295
Mof_H 	H 	0.6373	0.4664	0.5588	0.251
Mof_H 	H 	0.5753	0.5017	0.5552	0.238
Mof_H 	H 	0.5732	0.4436	0.4966	0.232
Mof_H 	H 	0.2447	0.8233	0.08	-0.019
Mof_H 	H 	0.1434	0.8266	0.0822	0.056
Mof_H 	H 	0.0366	0.8492	0.0458	0.048
Mof_H 	H 	0.9337	0.8465	0.044	-0.02
Mof_H 	H 	0.9169	0.1803	0.1306	-0.021
Mof_H 	H 	0.954	0.0057	0.1282	-0.01
Mof_H 	H 	0.1085	0.1604	0.3178	0.088
Mof_H 	H 	0.0949	0.2246	0.3072	0.09
Mof_H 	H 	0.9366	0.9719	0.0394	0.348
Mof_H 	H 	0.8585	0.9656	0.017	0.353
Mof_H 	H 	0.8916	0.9753	0.9788	0.346
Mof_H 	H 	0.8603	0.1349	0.0462	0.332
Mof_H 	H 	0.8427	0.0755	0.9826	0.321
Mof_H 	H 	0.8098	0.0684	0.0218	0.321
Mof_H 	H 	0.9664	0.1373	0.0588	0.274
Mof_H 	H 	0.0017	0.0753	0.0552	0.261
Mof_H 	H 	0.9436	0.0732	0.9966	0.265
Mof_H 	H 	0.3233	0.7447	0.58	-0.02
Mof_H 	H 	0.3266	0.6434	0.5822	0.057
Mof_H 	H 	0.3492	0.5366	0.5458	0.05
Mof_H 	H 	0.3465	0.4337	0.544	-0.019
Mof_H 	H 	0.7137	0.9503	0.1306	-0.017
Mof_H 	H 	0.6742	0.1225	0.1282	-0.009
Mof_H 	H 	0.7093	0.1574	0.3178	0.088
Mof_H 	H 	0.7123	0.0826	0.3072	0.091
Mof_H 	H 	0.6028	0.0675	0.0394	0.342
Mof_H 	H 	0.6585	0.0514	0.017	0.348
Mof_H 	H 	0.5872	0.0035	0.9788	0.341
Mof_H 	H 	0.6859	0.9113	0.0462	0.329
Mof_H 	H 	0.6399	0.9071	0.9826	0.319
Mof_H 	H 	0.712	0.9534	0.0218	0.317
Mof_H 	H 	0.5924	0.9215	0.0588	0.272
Mof_H 	H 	0.5535	0.9799	0.0552	0.26
Mof_H 	H 	0.553	0.9234	0.9966	0.265
Mof_H 	H 	0.7567	0.8353	0.58	-0.02
Mof_H 	H 	0.7556	0.9388	0.5822	0.057
Mof_H 	H 	0.6966	0.0092	0.5458	0.05
Mof_H 	H 	0.6975	0.1103	0.544	-0.019
Mof_H 	H 	0.1803	0.7137	0.6306	-0.012
Mof_H 	H 	0.0057	0.6742	0.6282	-0.003
Mof_H 	H 	0.1604	0.7093	0.8178	0.089
Mof_H 	H 	0.2246	0.7123	0.8072	0.09
Mof_H 	H 	0.9719	0.6028	0.5394	0.314
Mof_H 	H 	0.9656	0.6585	0.517	0.322
Mof_H 	H 	0.9753	0.5872	0.4788	0.302
Mof_H 	H 	0.1349	0.6859	0.5462	0.304
Mof_H 	H 	0.0755	0.6399	0.4826	0.283
Mof_H 	H 	0.0684	0.712	0.5218	0.294
Mof_H 	H 	0.1373	0.5924	0.5588	0.251
Mof_H 	H 	0.0753	0.5535	0.5552	0.238
Mof_H 	H 	0.0732	0.553	0.4966	0.232
Mof_H 	H 	0.7447	0.7567	0.08	-0.019
Mof_H 	H 	0.6434	0.7556	0.0822	0.056
Mof_H 	H 	0.5366	0.6966	0.0458	0.048
Mof_H 	H 	0.4337	0.6975	0.044	-0.019
Mof_H 	H 	0.9503	0.9169	0.6306	-0.012
Mof_H 	H 	0.1225	0.954	0.6282	-0.003
Mof_H 	H 	0.1574	0.1085	0.8178	0.089
Mof_H 	H 	0.0826	0.0949	0.8072	0.091
Mof_H 	H 	0.0675	0.9366	0.5394	0.314
Mof_H 	H 	0.0514	0.8585	0.517	0.322
Mof_H 	H 	0.0035	0.8916	0.4788	0.302
Mof_H 	H 	0.9113	0.8603	0.5462	0.304
Mof_H 	H 	0.9071	0.8427	0.4826	0.283
Mof_H 	H 	0.9534	0.8098	0.5218	0.295
Mof_H 	H 	0.9215	0.9664	0.5588	0.252
Mof_H 	H 	0.9799	0.0017	0.5552	0.241
Mof_H 	H 	0.9234	0.9436	0.4966	0.234
Mof_H 	H 	0.8353	0.3233	0.08	-0.019
Mof_H 	H 	0.9388	0.3266	0.0822	0.056
Mof_H 	H 	0.0092	0.3492	0.0458	0.049
Mof_H 	H 	0.1103	0.3465	0.044	-0.02
Mof_H 	H 	0.7863	0.3197	0.8694	-0.004
Mof_H 	H 	0.8258	0.4943	0.8718	0.004
Mof_H 	H 	0.7907	0.3396	0.6822	0.089
Mof_H 	H 	0.7877	0.2754	0.6928	0.091
Mof_H 	H 	0.8972	0.5281	0.9606	0.283
Mof_H 	H 	0.8415	0.5344	0.983	0.294
Mof_H 	H 	0.9128	0.5247	0.0212	0.261
Mof_H 	H 	0.8141	0.3651	0.9538	0.278
Mof_H 	H 	0.8601	0.4245	0.0174	0.247
Mof_H 	H 	0.788	0.4316	0.9782	0.27
Mof_H 	H 	0.9076	0.3627	0.9412	0.229
Mof_H 	H 	0.9465	0.4247	0.9448	0.214
Mof_H 	H 	0.947	0.4268	0.0034	0.2
Mof_H 	H 	0.7433	0.7553	0.42	-0.02
Mof_H 	H 	0.7444	0.8566	0.4178	0.057
Mof_H 	H 	0.8034	0.9634	0.4542	0.05
Mof_H 	H 	0.8025	0.0663	0.456	-0.02
Mof_H 	H 	0.5831	0.5497	0.8694	-0.003
Mof_H 	H 	0.546	0.3775	0.8718	0.005
Mof_H 	H 	0.3915	0.3426	0.6822	0.089
Mof_H 	H 	0.4051	0.4174	0.6928	0.091
Mof_H 	H 	0.5634	0.4325	0.9606	0.282
Mof_H 	H 	0.6415	0.4486	0.983	0.292
Mof_H 	H 	0.6084	0.4965	0.0212	0.259
Mof_H 	H 	0.6397	0.5887	0.9538	0.276
Mof_H 	H 	0.6573	0.5929	0.0174	0.245
Mof_H 	H 	0.6902	0.5466	0.9782	0.269
Mof_H 	H 	0.5336	0.5785	0.9412	0.228
Mof_H 	H 	0.4983	0.5201	0.9448	0.213
Mof_H 	H 	0.5564	0.5766	0.0034	0.198
Mof_H 	H 	0.1767	0.6647	0.42	-0.02
Mof_H 	H 	0.1734	0.5612	0.4178	0.057
Mof_H 	H 	0.1508	0.4908	0.4542	0.05
Mof_H 	H 	0.1535	0.3897	0.456	-0.019
Mof_H 	H 	0.5497	0.7863	0.3694	-0.013
Mof_H 	H 	0.3775	0.8258	0.3718	-0.004
Mof_H 	H 	0.3426	0.7907	0.1822	0.088
Mof_H 	H 	0.4174	0.7877	0.1928	0.09
Mof_H 	H 	0.4325	0.8972	0.4606	0.314
Mof_H 	H 	0.4486	0.8415	0.483	0.322
Mof_H 	H 	0.4965	0.9128	0.5212	0.302
Mof_H 	H 	0.5887	0.8141	0.4538	0.304
Mof_H 	H 	0.5929	0.8601	0.5174	0.283
Mof_H 	H 	0.5466	0.788	0.4782	0.294
Mof_H 	H 	0.5785	0.9076	0.4412	0.25
Mof_H 	H 	0.5201	0.9465	0.4448	0.237
Mof_H 	H 	0.5766	0.947	0.5034	0.232
Mof_H 	H 	0.6647	0.7433	0.92	-0.021
Mof_H 	H 	0.5612	0.7444	0.9178	0.054
Mof_H 	H 	0.4908	0.8034	0.9542	0.046
Mof_H 	H 	0.3897	0.8025	0.956	-0.019
Mof_H 	H 	0.3197	0.5831	0.3694	-0.013
Mof_H 	H 	0.4943	0.546	0.3718	-0.004
Mof_H 	H 	0.3396	0.3915	0.1822	0.088
Mof_H 	H 	0.2754	0.4051	0.1928	0.09
Mof_H 	H 	0.5281	0.5634	0.4606	0.315
Mof_H 	H 	0.5344	0.6415	0.483	0.322
Mof_H 	H 	0.5247	0.6084	0.5212	0.302
Mof_H 	H 	0.3651	0.6397	0.4538	0.304
Mof_H 	H 	0.4245	0.6573	0.5174	0.283
Mof_H 	H 	0.4316	0.6902	0.4782	0.295
Mof_H 	H 	0.3627	0.5336	0.4412	0.251
Mof_H 	H 	0.4247	0.4983	0.4448	0.238
Mof_H 	H 	0.4268	0.5564	0.5034	0.232
Mof_H 	H 	0.7553	0.1767	0.92	-0.021
Mof_H 	H 	0.8566	0.1734	0.9178	0.054
Mof_H 	H 	0.9634	0.1508	0.9542	0.047
Mof_H 	H 	0.0663	0.1535	0.956	-0.02
Mof_C 	C 	0.0112	0.85267	0.75718	0.126
Mof_C 	C 	0.03755	0.81554	0.78776	-0.058
Mof_C 	C 	0.06462	0.84531	0.84908	0.068
Mof_C 	C 	0.06549	0.91112	0.88136	-0.224
Mof_C 	C 	0.04282	0.94826	0.85046	0.064
Mof_C 	C 	0.08015	0.72645	0.71096	-0.066
Mof_C 	C 	0.91256	0.80072	0.6732	-0.19
Mof_C 	C 	0.88074	0.75806	0.60754	0.386
Mof_C 	C 	0.09307	0.9421	0.94886	0.603
Mof_C 	C 	0.1023	0.013	0.981	-0.926
Mof_C 	C 	0.15014	0.91334	0.97708	-0.842
Mof_C 	C 	0.04024	0.91114	0.96068	-0.708
Mof_C 	C 	0.70726	0.29342	0.45354	0.055
Mof_C 	C 	0.70516	0.35358	0.45172	-0.137
Mof_C 	C 	0.69195	0.49305	0.47326	-0.132
Mof_C 	C 	0.69402	0.55438	0.47436	0.06
Mof_C 	C 	0.24598	0.90451	0.75718	0.128
Mof_C 	C 	0.25021	0.97222	0.78776	-0.063
Mof_C 	C 	0.28446	0.00377	0.84908	0.075
Mof_C 	C 	0.31587	0.97024	0.88136	-0.231
Mof_C 	C 	0.30764	0.9022	0.85046	0.069
Mof_C 	C 	0.13081	0.98451	0.71096	-0.067
Mof_C 	C 	0.26064	0.87248	0.6732	-0.19
Mof_C 	C 	0.2268	0.84948	0.60754	0.386
Mof_C 	C 	0.35579	0.00676	0.94886	0.614
Mof_C 	C 	0.3787	0.968	0.981	-0.936
Mof_C 	C 	0.32694	0.06374	0.97708	-0.855
Mof_C 	C 	0.42044	0.04954	0.96068	-0.721
Mof_C 	C 	0.24628	0.16012	0.45354	0.055
Mof_C 	C 	0.24656	0.09814	0.45172	-0.136
Mof_C 	C 	0.28131	0.98021	0.47326	-0.134
Mof_C 	C 	0.28034	0.91998	0.47436	0.06
Mof_C 	C 	0.85267	0.24598	0.25718	0.133
Mof_C 	C 	0.81554	0.25021	0.28776	-0.068
Mof_C 	C 	0.84531	0.28446	0.34908	0.09
Mof_C 	C 	0.91112	0.31587	0.38136	-0.26
Mof_C 	C 	0.94826	0.30764	0.35046	0.085
Mof_C 	C 	0.72645	0.13081	0.21096	-0.071
Mof_C 	C 	0.80072	0.26064	0.1732	-0.19
Mof_C 	C 	0.75806	0.2268	0.10754	0.386
Mof_C 	C 	0.9421	0.35579	0.44886	0.688
Mof_C 	C 	0.013	0.3787	0.481	-1.052
Mof_C 	C 	0.91334	0.32694	0.47708	-0.955
Mof_C 	C 	0.91114	0.42044	0.46068	-0.809
Mof_C 	C 	0.29342	0.24628	0.95354	0.064
Mof_C 	C 	0.35358	0.24656	0.95172	-0.122
Mof_C 	C 	0.49305	0.28131	0.97326	-0.116
Mof_C 	C 	0.55438	0.28034	0.97436	0.069
Mof_C 	C 	0.90451	0.0112	0.25718	0.132
Mof_C 	C 	0.97222	0.03755	0.28776	-0.064
Mof_C 	C 	0.00377	0.06462	0.34908	0.084
Mof_C 	C 	0.97024	0.06549	0.38136	-0.254
Mof_C 	C 	0.9022	0.04282	0.35046	0.081
Mof_C 	C 	0.98451	0.08015	0.21096	-0.074
Mof_C 	C 	0.87248	0.91256	0.1732	-0.189
Mof_C 	C 	0.84948	0.88074	0.10754	0.386
Mof_C 	C 	0.00676	0.09307	0.44886	0.679
Mof_C 	C 	0.968	0.1023	0.481	-1.043
Mof_C 	C 	0.06374	0.15014	0.47708	-0.948
Mof_C 	C 	0.04954	0.04024	0.46068	-0.801
Mof_C 	C 	0.16012	0.70726	0.95354	0.064
Mof_C 	C 	0.09814	0.70516	0.95172	-0.121
Mof_C 	C 	0.98021	0.69195	0.97326	-0.116
Mof_C 	C 	0.91998	0.69402	0.97436	0.069
Mof_C 	C 	0.25402	0.64733	0.24282	0.139
Mof_C 	C 	0.24979	0.68446	0.21224	-0.077
Mof_C 	C 	0.21554	0.65469	0.15092	0.11
Mof_C 	C 	0.18413	0.58888	0.11864	-0.295
Mof_C 	C 	0.19236	0.55174	0.14954	0.105
Mof_C 	C 	0.36919	0.77355	0.28904	-0.068
Mof_C 	C 	0.23936	0.69928	0.3268	-0.188
Mof_C 	C 	0.2732	0.74194	0.39246	0.385
Mof_C 	C 	0.14421	0.5579	0.05114	0.77
Mof_C 	C 	0.1213	0.487	0.019	-1.176
Mof_C 	C 	0.17306	0.58666	0.02292	-1.065
Mof_C 	C 	0.07956	0.58886	0.03932	-0.906
Mof_C 	C 	0.25372	0.20658	0.54646	0.055
Mof_C 	C 	0.25344	0.14642	0.54828	-0.136
Mof_C 	C 	0.21869	0.00695	0.52674	-0.131
Mof_C 	C 	0.21966	0.94562	0.52564	0.058
Mof_C 	C 	0.4888	0.59549	0.24282	0.138
Mof_C 	C 	0.46245	0.52778	0.21224	-0.077
Mof_C 	C 	0.43538	0.49623	0.15092	0.109
Mof_C 	C 	0.43451	0.52976	0.11864	-0.295
Mof_C 	C 	0.45718	0.5978	0.14954	0.104
Mof_C 	C 	0.41985	0.51549	0.28904	-0.068
Mof_C 	C 	0.58744	0.62752	0.3268	-0.188
Mof_C 	C 	0.61926	0.65052	0.39246	0.385
Mof_C 	C 	0.40693	0.49324	0.05114	0.768
Mof_C 	C 	0.3977	0.532	0.019	-1.174
Mof_C 	C 	0.34986	0.43626	0.02292	-1.063
Mof_C 	C 	0.45976	0.45046	0.03932	-0.904
Mof_C 	C 	0.79274	0.33988	0.54646	0.055
Mof_C 	C 	0.79484	0.40186	0.54828	-0.137
Mof_C 	C 	0.80805	0.51979	0.52674	-0.132
Mof_C 	C 	0.80598	0.58002	0.52564	0.06
Mof_C 	C 	0.59549	0.25402	0.74282	0.132
Mof_C 	C 	0.52778	0.24979	0.71224	-0.067
Mof_C 	C 	0.49623	0.21554	0.65092	0.089
Mof_C 	C 	0.52976	0.18413	0.61864	-0.26
Mof_C 	C 	0.5978	0.19236	0.64954	0.085
Mof_C 	C 	0.51549	0.36919	0.78904	-0.059
Mof_C 	C 	0.62752	0.23936	0.8268	-0.188
Mof_C 	C 	0.65052	0.2732	0.89246	0.384
Mof_C 	C 	0.49324	0.14421	0.55114	0.687
Mof_C 	C 	0.532	0.1213	0.519	-1.051
Mof_C 	C 	0.43626	0.17306	0.52292	-0.954
Mof_C 	C 	0.45046	0.07956	0.53932	-0.809
Mof_C 	C 	0.33988	0.25372	0.04646	0.05
Mof_C 	C 	0.40186	0.25344	0.04828	-0.133
Mof_C 	C 	0.51979	0.21869	0.02674	-0.129
Mof_C 	C 	0.58002	0.21966	0.02564	0.055
Mof_C 	C 	0.64733	0.4888	0.74282	0.132
Mof_C 	C 	0.68446	0.46245	0.71224	-0.067
Mof_C 	C 	0.65469	0.43538	0.65092	0.089
Mof_C 	C 	0.58888	0.43451	0.61864	-0.259
Mof_C 	C 	0.55174	0.45718	0.64954	0.084
Mof_C 	C 	0.77355	0.41985	0.78904	-0.059
Mof_C 	C 	0.69928	0.58744	0.8268	-0.188
Mof_C 	C 	0.74194	0.61926	0.89246	0.384
Mof_C 	C 	0.5579	0.40693	0.55114	0.686
Mof_C 	C 	0.487	0.3977	0.519	-1.05
Mof_C 	C 	0.58666	0.34986	0.52292	-0.953
Mof_C 	C 	0.58886	0.45976	0.53932	-0.808
Mof_C 	C 	0.20658	0.79274	0.04646	0.05
Mof_C 	C 	0.14642	0.79484	0.04828	-0.133
Mof_C 	C 	0.00695	0.80805	0.02674	-0.13
Mof_C 	C 	0.94562	0.80598	0.02564	0.056
Mof_C 	C 	0.9888	0.14733	0.24282	0.139
Mof_C 	C 	0.96245	0.18446	0.21224	-0.076
Mof_C 	C 	0.93538	0.15469	0.15092	0.109
Mof_C 	C 	0.93451	0.08888	0.11864	-0.293
Mof_C 	C 	0.95718	0.05174	0.14954	0.104
Mof_C 	C 	0.91985	0.27355	0.28904	-0.068
Mof_C 	C 	0.08744	0.19928	0.3268	-0.188
Mof_C 	C 	0.11926	0.24194	0.39246	0.385
Mof_C 	C 	0.90693	0.0579	0.05114	0.767
Mof_C 	C 	0.8977	0.987	0.019	-1.174
Mof_C 	C 	0.84986	0.08666	0.02292	-1.058
Mof_C 	C 	0.95976	0.08886	0.03932	-0.895
Mof_C 	C 	0.29274	0.70658	0.54646	0.055
Mof_C 	C 	0.29484	0.64642	0.54828	-0.137
Mof_C 	C 	0.30805	0.50695	0.52674	-0.132
Mof_C 	C 	0.30598	0.44562	0.52564	0.06
Mof_C 	C 	0.75402	0.09549	0.24282	0.134
Mof_C 	C 	0.74979	0.02778	0.21224	-0.068
Mof_C 	C 	0.71554	0.99623	0.15092	0.096
Mof_C 	C 	0.68413	0.02976	0.11864	-0.281
Mof_C 	C 	0.69236	0.0978	0.14954	0.097
Mof_C 	C 	0.86919	0.01549	0.28904	-0.064
Mof_C 	C 	0.73936	0.12752	0.3268	-0.189
Mof_C 	C 	0.7732	0.15052	0.39246	0.386
Mof_C 	C 	0.64421	0.99324	0.05114	0.751
Mof_C 	C 	0.6213	0.032	0.019	-1.152
Mof_C 	C 	0.67306	0.93626	0.02292	-1.048
Mof_C 	C 	0.57956	0.95046	0.03932	-0.893
Mof_C 	C 	0.75372	0.83988	0.54646	0.055
Mof_C 	C 	0.75344	0.90186	0.54828	-0.137
Mof_C 	C 	0.71869	0.01979	0.52674	-0.13
Mof_C 	C 	0.71966	0.08002	0.52564	0.06
Mof_C 	C 	0.14733	0.75402	0.74282	0.132
Mof_C 	C 	0.18446	0.74979	0.71224	-0.067
Mof_C 	C 	0.15469	0.71554	0.65092	0.089
Mof_C 	C 	0.08888	0.68413	0.61864	-0.259
Mof_C 	C 	0.05174	0.69236	0.64954	0.084
Mof_C 	C 	0.27355	0.86919	0.78904	-0.06
Mof_C 	C 	0.19928	0.73936	0.8268	-0.188
Mof_C 	C 	0.24194	0.7732	0.89246	0.384
Mof_C 	C 	0.0579	0.64421	0.55114	0.686
Mof_C 	C 	0.987	0.6213	0.519	-1.049
Mof_C 	C 	0.08666	0.67306	0.52292	-0.953
Mof_C 	C 	0.08886	0.57956	0.53932	-0.807
Mof_C 	C 	0.70658	0.75372	0.04646	0.05
Mof_C 	C 	0.64642	0.75344	0.04828	-0.133
Mof_C 	C 	0.50695	0.71869	0.02674	-0.129
Mof_C 	C 	0.44562	0.71966	0.02564	0.055
Mof_C 	C 	0.09549	0.9888	0.74282	0.131
Mof_C 	C 	0.02778	0.96245	0.71224	-0.066
Mof_C 	C 	0.99623	0.93538	0.65092	0.087
Mof_C 	C 	0.02976	0.93451	0.61864	-0.259
Mof_C 	C 	0.0978	0.95718	0.64954	0.084
Mof_C 	C 	0.01549	0.91985	0.78904	-0.058
Mof_C 	C 	0.12752	0.08744	0.8268	-0.189
Mof_C 	C 	0.15052	0.11926	0.89246	0.384
Mof_C 	C 	0.99324	0.90693	0.55114	0.687
Mof_C 	C 	0.032	0.8977	0.519	-1.05
Mof_C 	C 	0.93626	0.84986	0.52292	-0.954
Mof_C 	C 	0.95046	0.95976	0.53932	-0.814
Mof_C 	C 	0.83988	0.29274	0.04646	0.05
Mof_C 	C 	0.90186	0.29484	0.04828	-0.133
Mof_C 	C 	0.01979	0.30805	0.02674	-0.132
Mof_C 	C 	0.08002	0.30598	0.02564	0.056
Mof_C 	C 	0.74598	0.35267	0.75718	0.126
Mof_C 	C 	0.75021	0.31554	0.78776	-0.059
Mof_C 	C 	0.78446	0.34531	0.84908	0.071
Mof_C 	C 	0.81587	0.41112	0.88136	-0.227
Mof_C 	C 	0.80764	0.44826	0.85046	0.066
Mof_C 	C 	0.63081	0.22645	0.71096	-0.067
Mof_C 	C 	0.76064	0.30072	0.6732	-0.19
Mof_C 	C 	0.7268	0.25806	0.60754	0.386
Mof_C 	C 	0.85579	0.4421	0.94886	0.611
Mof_C 	C 	0.8787	0.513	0.981	-0.936
Mof_C 	C 	0.82694	0.41334	0.97708	-0.853
Mof_C 	C 	0.92044	0.41114	0.96068	-0.72
Mof_C 	C 	0.74628	0.79342	0.45354	0.055
Mof_C 	C 	0.74656	0.85358	0.45172	-0.137
Mof_C 	C 	0.78131	0.99305	0.47326	-0.135
Mof_C 	C 	0.78034	0.05438	0.47436	0.063
Mof_C 	C 	0.5112	0.40451	0.75718	0.126
Mof_C 	C 	0.53755	0.47222	0.78776	-0.059
Mof_C 	C 	0.56462	0.50377	0.84908	0.07
Mof_C 	C 	0.56549	0.47024	0.88136	-0.226
Mof_C 	C 	0.54282	0.4022	0.85046	0.065
Mof_C 	C 	0.58015	0.48451	0.71096	-0.067
Mof_C 	C 	0.41256	0.37248	0.6732	-0.19
Mof_C 	C 	0.38074	0.34948	0.60754	0.386
Mof_C 	C 	0.59307	0.50676	0.94886	0.607
Mof_C 	C 	0.6023	0.468	0.981	-0.93
Mof_C 	C 	0.65014	0.56374	0.97708	-0.848
Mof_C 	C 	0.54024	0.54954	0.96068	-0.714
Mof_C 	C 	0.20726	0.66012	0.45354	0.055
Mof_C 	C 	0.20516	0.59814	0.45172	-0.137
Mof_C 	C 	0.19195	0.48021	0.47326	-0.132
Mof_C 	C 	0.19402	0.41998	0.47436	0.06
Mof_C 	C 	0.40451	0.74598	0.25718	0.132
Mof_C 	C 	0.47222	0.75021	0.28776	-0.068
Mof_C 	C 	0.50377	0.78446	0.34908	0.089
Mof_C 	C 	0.47024	0.81587	0.38136	-0.26
Mof_C 	C 	0.4022	0.80764	0.35046	0.085
Mof_C 	C 	0.48451	0.63081	0.21096	-0.076
Mof_C 	C 	0.37248	0.76064	0.1732	-0.19
Mof_C 	C 	0.34948	0.7268	0.10754	0.386
Mof_C 	C 	0.50676	0.85579	0.44886	0.685
Mof_C 	C 	0.468	0.8787	0.481	-1.049
Mof_C 	C 	0.56374	0.82694	0.47708	-0.953
Mof_C 	C 	0.54954	0.92044	0.46068	-0.806
Mof_C 	C 	0.66012	0.74628	0.95354	0.064
Mof_C 	C 	0.59814	0.74656	0.95172	-0.121
Mof_C 	C 	0.48021	0.78131	0.97326	-0.115
Mof_C 	C 	0.41998	0.78034	0.97436	0.069
Mof_C 	C 	0.35267	0.5112	0.25718	0.133
Mof_C 	C 	0.31554	0.53755	0.28776	-0.068
Mof_C 	C 	0.34531	0.56462	0.34908	0.09
Mof_C 	C 	0.41112	0.56549	0.38136	-0.26
Mof_C 	C 	0.44826	0.54282	0.35046	0.085
Mof_C 	C 	0.22645	0.58015	0.21096	-0.076
Mof_C 	C 	0.30072	0.41256	0.1732	-0.19
Mof_C 	C 	0.25806	0.38074	0.10754	0.386
Mof_C 	C 	0.4421	0.59307	0.44886	0.687
Mof_C 	C 	0.513	0.6023	0.481	-1.05
Mof_C 	C 	0.41334	0.65014	0.47708	-0.954
Mof_C 	C 	0.41114	0.54024	0.46068	-0.808
Mof_C 	C 	0.79342	0.20726	0.95354	0.063
Mof_C 	C 	0.85358	0.20516	0.95172	-0.122
Mof_C 	C 	0.99305	0.19195	0.97326	-0.119
Mof_C 	C 	0.05438	0.19402	0.97436	0.071
Mof_C 	C 	0.75	0.40938	0.5	0.035
Mof_C 	C 	0.75	0.47505	0.5	0.041
Mof_C 	C 	0.25	0.09062	0.5	0.035
Mof_C 	C 	0.25	0.02495	0.5	0.042
Mof_C 	C 	0.40938	0.25	-0	0.021
Mof_C 	C 	0.47505	0.25	-0	0.026
Mof_C 	C 	0.09062	0.75	-0	0.02
Mof_C 	C 	0.02495	0.75	-0	0.026
Mof_C 	C 	0.25	0.59062	0.5	0.035
Mof_C 	C 	0.25	0.52495	0.5	0.04
Mof_C 	C 	0.75	0.90938	0.5	0.035
Mof_C 	C 	0.75	0.97505	0.5	0.039
Mof_C 	C 	0.59062	0.75	-0	0.021
Mof_C 	C 	0.52495	0.75	-0	0.025
Mof_C 	C 	0.90938	0.25	-0	0.021
Mof_C 	C 	0.97505	0.25	-0	0.03
Mof_S 	S 	0.03128	0.72924	0.7482	0.005
Mof_S 	S 	0.21692	0.01896	0.7482	0.007
Mof_S 	S 	0.72924	0.21692	0.2482	0.007
Mof_S 	S 	0.01896	0.03128	0.2482	0.006
Mof_S 	S 	0.28308	0.77076	0.2518	0.007
Mof_S 	S 	0.46872	0.48104	0.2518	0.008
Mof_S 	S 	0.48104	0.28308	0.7518	0.004
Mof_S 	S 	0.77076	0.46872	0.7518	0.004
Mof_S 	S 	0.96872	0.27076	0.2518	0.008
Mof_S 	S 	0.78308	0.98104	0.2518	0.002
Mof_S 	S 	0.27076	0.78308	0.7518	0.005
Mof_S 	S 	0.98104	0.96872	0.7518	0.002
Mof_S 	S 	0.71692	0.22924	0.7482	0.005
Mof_S 	S 	0.53128	0.51896	0.7482	0.005
Mof_S 	S 	0.51896	0.71692	0.2482	0.008
Mof_S 	S 	0.22924	0.53128	0.2482	0.008
Mof_N 	N 	0.75	0.2863	0.5	-0.249
Mof_N 	N 	0.75	0.59805	0.5	-0.249
Mof_N 	N 	0.25	0.2137	0.5	-0.249
Mof_N 	N 	0.25	0.90195	0.5	-0.249
Mof_N 	N 	0.2863	0.25	-0	-0.257
Mof_N 	N 	0.59805	0.25	-0	-0.256
Mof_N 	N 	0.2137	0.75	-0	-0.257
Mof_N 	N 	0.90195	0.75	-0	-0.256
Mof_N 	N 	0.25	0.7137	0.5	-0.249
Mof_N 	N 	0.25	0.40195	0.5	-0.249
Mof_N 	N 	0.75	0.7863	0.5	-0.249
Mof_N 	N 	0.75	0.09805	0.5	-0.249
Mof_N 	N 	0.7137	0.75	-0	-0.257
Mof_N 	N 	0.40195	0.75	-0	-0.256
Mof_N 	N 	0.7863	0.25	-0	-0.256
Mof_N 	N 	0.09805	0.25	-0	-0.257
Mof_O 	O 	0.98193	0.82282	0.69646	-0.152
Mof_O 	O 	0.81949	0.73582	0.58672	-0.467
Mof_O 	O 	0.91335	0.74792	0.57998	-0.333
Mof_O 	O 	0.21453	0.87364	0.69646	-0.152
Mof_O 	O 	0.26723	0.8509	0.58672	-0.467
Mof_O 	O 	0.16663	0.83206	0.57998	-0.333
Mof_O 	O 	0.82282	0.21453	0.19646	-0.153
Mof_O 	O 	0.73582	0.26723	0.08672	-0.468
Mof_O 	O 	0.74792	0.16663	0.07998	-0.337
Mof_O 	O 	0.87364	0.98193	0.19646	-0.155
Mof_O 	O 	0.8509	0.81949	0.08672	-0.468
Mof_O 	O 	0.83206	0.91335	0.07998	-0.337
Mof_O 	O 	0.28547	0.67718	0.30354	-0.154
Mof_O 	O 	0.23277	0.76418	0.41328	-0.467
Mof_O 	O 	0.33337	0.75208	0.42002	-0.333
Mof_O 	O 	0.51807	0.62636	0.30354	-0.154
Mof_O 	O 	0.68051	0.6491	0.41328	-0.467
Mof_O 	O 	0.58665	0.66794	0.42002	-0.333
Mof_O 	O 	0.62636	0.28547	0.80354	-0.153
Mof_O 	O 	0.6491	0.23277	0.91328	-0.461
Mof_O 	O 	0.66794	0.33337	0.92002	-0.327
Mof_O 	O 	0.67718	0.51807	0.80354	-0.153
Mof_O 	O 	0.76418	0.68051	0.91328	-0.461
Mof_O 	O 	0.75208	0.58665	0.92002	-0.327
Mof_O 	O 	0.01807	0.17718	0.30354	-0.155
Mof_O 	O 	0.18051	0.26418	0.41328	-0.467
Mof_O 	O 	0.08665	0.25208	0.42002	-0.333
Mof_O 	O 	0.78547	0.12636	0.30354	-0.153
Mof_O 	O 	0.73277	0.1491	0.41328	-0.467
Mof_O 	O 	0.83337	0.16794	0.42002	-0.333
Mof_O 	O 	0.17718	0.78547	0.80354	-0.153
Mof_O 	O 	0.26418	0.73277	0.91328	-0.461
Mof_O 	O 	0.25208	0.83337	0.92002	-0.327
Mof_O 	O 	0.12636	0.01807	0.80354	-0.152
Mof_O 	O 	0.1491	0.18051	0.91328	-0.461
Mof_O 	O 	0.16794	0.08665	0.92002	-0.327
Mof_O 	O 	0.71453	0.32282	0.69646	-0.151
Mof_O 	O 	0.76723	0.23582	0.58672	-0.467
Mof_O 	O 	0.66663	0.24792	0.57998	-0.333
Mof_O 	O 	0.48193	0.37364	0.69646	-0.151
Mof_O 	O 	0.31949	0.3509	0.58672	-0.467
Mof_O 	O 	0.41335	0.33206	0.57998	-0.333
Mof_O 	O 	0.37364	0.71453	0.19646	-0.153
Mof_O 	O 	0.3509	0.76723	0.08672	-0.469
Mof_O 	O 	0.33206	0.66663	0.07998	-0.337
Mof_O 	O 	0.32282	0.48193	0.19646	-0.153
Mof_O 	O 	0.23582	0.31949	0.08672	-0.468
Mof_O 	O 	0.24792	0.41335	0.07998	-0.337
_end
