data_functionalizedCrystal
_audit_creation_method	'EQeq! by Chris Wilmer'
_symmetry_space_group_name_H-M	'P1'
_symmetry_Int_Tables_number	1
_symmetry_cell_setting	triclinic
loop_
_symmetry_equiv_pos_as_xyz
  x,y,z
_cell_length_a	10.342
_cell_length_b	15.079
_cell_length_c	25.117
_cell_angle_alpha	90
_cell_angle_beta	90
_cell_angle_gamma	90
loop_
_atom_site_label
_atom_site_type_symbol
_atom_site_fract_x
_atom_site_fract_y
_atom_site_fract_z
_atom_site_charge
Mof_Cd	Cd	0.91212	0.49974	0.53666	0.465
Mof_Cd	Cd	0.67163	0.50591	0.45596	0.463
Mof_O 	O 	0.133	0.0972	0.4822	-0.289
Mof_O 	O 	0.281	0.088	0.4172	-0.281
Mof_O 	O 	0.773	0.4014	0.408	-0.282
Mof_C 	C 	0.178	0.117	0.4371	0.299
Mof_O 	O 	0.917	0.394	0.4741	-0.295
Mof_N 	N 	0.287	0.507	0.3858	-0.098
Mof_N 	N 	0.938	0.2616	0.2391	-0.09
Mof_C 	C 	0.025	0.195	0.1002	-0.029
Mof_C 	C 	0.86	0.306	0.0993	-0.025
Mof_C 	C 	0.871	0.37	0.4296	0.297
Mof_C 	C 	0.946	0.3	0.4012	-0.044
Mof_N 	N 	0.48	0.5265	0.4193	-0.142
Mof_C 	C 	0.102	0.181	0.4048	-0.04
Mof_C 	C 	0.021	0.234	0.3209	0.105
Mof_C 	C 	0.858	0.307	0.1533	-0.102
Mof_H 	H 	0.7989	0.3427	0.1711	0.084
Mof_N 	N 	0.028	0.2248	0.2634	-0.088
Mof_C 	C 	0.946	0.255	0.1827	0.104
Mof_C 	C 	0.032	0.2	0.1552	-0.095
Mof_H 	H 	0.0934	0.1666	0.1737	0.084
Mof_C 	C 	0.163	0.467	0.3706	-0.139
Mof_H 	H 	0.0931	0.5005	0.3863	0.085
Mof_H 	H 	0.159	0.4068	0.3845	0.079
Mof_C 	C 	0.943	0.248	0.0725	-0.049
Mof_H 	H 	0.9418	0.2459	0.0355	0.057
Mof_C 	C 	0.94	0.294	0.3458	-0.096
Mof_H 	H 	0.8836	0.3287	0.3262	0.087
Mof_C 	C 	0.146	0.464	0.31	0.077
Mof_C 	C 	0.032	0.489	0.2873	-0.077
Mof_H 	H 	0.9651	0.5094	0.3086	0.067
Mof_C 	C 	0.247	0.433	0.2776	-0.071
Mof_H 	H 	0.3236	0.414	0.2931	0.068
Mof_C 	C 	0.103	0.179	0.3487	-0.094
Mof_H 	H 	0.1589	0.1415	0.3305	0.081
Mof_C 	C 	0.384	0.469	0.4134	0.065
Mof_C 	C 	0.115	0.459	0.1993	0.07
Mof_C 	C 	0.023	0.243	0.4302	-0.035
Mof_H 	H 	0.022	0.2458	0.4671	0.053
Mof_C 	C 	0.325	0.593	0.3726	-0.018
Mof_H 	H 	0.2775	0.6351	0.3535	0.051
Mof_C 	C 	0.443	0.603	0.3937	0.014
Mof_H 	H 	0.4935	0.6539	0.3913	0.037
Mof_C 	C 	0.016	0.485	0.2323	-0.063
Mof_H 	H 	0.9363	0.4993	0.2176	0.058
Mof_C 	C 	0.102	0.461	0.1402	-0.137
Mof_H 	H 	0.0928	0.4004	0.1273	0.08
Mof_H 	H 	0.0246	0.4932	0.1307	0.082
Mof_C 	C 	0.383	0.374	0.4322	0.09
Mof_H 	H 	0.3497	0.3364	0.4039	0.008
Mof_H 	H 	0.4703	0.3553	0.44	0.013
Mof_C 	C 	0.232	0.429	0.2226	-0.06
Mof_H 	H 	0.2986	0.4074	0.2013	0.064
Mof_C 	C 	0.301	0.362	0.4806	-0.625
Mof_H 	H 	0.3265	0.4046	0.5072	0.225
Mof_H 	H 	0.3119	0.3034	0.4943	0.229
Mof_H 	H 	0.2118	0.3716	0.4715	0.224
Mof_O 	O 	0.054	0.0974	0.0287	-0.297
Mof_C 	C 	0.105	0.126	0.0702	0.301
Mof_O 	O 	0.211	0.1048	0.0902	-0.285
Mof_C 	C 	0.777	0.369	0.0674	0.277
Mof_O 	O 	0.828	0.3967	0.0246	-0.289
Mof_O 	O 	0.667	0.3868	0.0869	-0.271
Mof_N 	N 	0.214	0.502	0.1142	-0.102
Mof_C 	C 	0.308	0.463	0.086	0.078
Mof_C 	C 	0.221	0.355	0.0192	-0.568
Mof_H 	H 	0.1345	0.3734	0.0274	0.208
Mof_H 	H 	0.2211	0.2935	0.0093	0.209
Mof_H 	H 	0.2539	0.3899	0.9902	0.21
Mof_C 	C 	0.307	0.368	0.0679	0.04
Mof_H 	H 	0.2756	0.3308	0.0966	0.024
Mof_H 	H 	0.3942	0.3498	0.0594	0.029
Mof_C 	C 	0.245	0.59	0.1209	-0.014
Mof_H 	H 	0.1977	0.6332	0.1391	0.049
Mof_N 	N 	0.399	0.5228	0.0738	-0.144
Mof_C 	C 	0.36	0.602	0.0954	0.008
Mof_H 	H 	0.4047	0.6552	0.093	0.036
Mof_Cd	Cd	0.58788	0.50026	0.03666	0.465
Mof_Cd	Cd	0.82837	0.49409	0.95596	0.463
Mof_O 	O 	0.367	0.9028	0.9822	-0.29
Mof_O 	O 	0.219	0.912	0.9172	-0.282
Mof_O 	O 	0.727	0.5986	0.908	-0.282
Mof_C 	C 	0.322	0.883	0.9371	0.299
Mof_O 	O 	0.583	0.606	0.9741	-0.295
Mof_N 	N 	0.213	0.493	0.8858	-0.098
Mof_N 	N 	0.562	0.7384	0.7391	-0.09
Mof_C 	C 	0.475	0.805	0.6002	-0.03
Mof_C 	C 	0.64	0.694	0.5993	-0.025
Mof_C 	C 	0.629	0.63	0.9296	0.297
Mof_C 	C 	0.554	0.7	0.9012	-0.044
Mof_N 	N 	0.02	0.4735	0.9193	-0.142
Mof_C 	C 	0.398	0.819	0.9048	-0.04
Mof_C 	C 	0.479	0.766	0.8209	0.104
Mof_C 	C 	0.642	0.693	0.6533	-0.102
Mof_H 	H 	0.7011	0.6573	0.6711	0.084
Mof_N 	N 	0.472	0.7752	0.7634	-0.089
Mof_C 	C 	0.554	0.745	0.6827	0.105
Mof_C 	C 	0.468	0.8	0.6552	-0.096
Mof_H 	H 	0.4066	0.8334	0.6737	0.084
Mof_C 	C 	0.337	0.533	0.8706	-0.139
Mof_H 	H 	0.4069	0.4995	0.8863	0.085
Mof_H 	H 	0.341	0.5932	0.8845	0.079
Mof_C 	C 	0.557	0.752	0.5725	-0.047
Mof_H 	H 	0.5582	0.7541	0.5355	0.057
Mof_C 	C 	0.56	0.706	0.8458	-0.095
Mof_H 	H 	0.6164	0.6713	0.8262	0.087
Mof_C 	C 	0.354	0.536	0.81	0.077
Mof_C 	C 	0.468	0.511	0.7873	-0.077
Mof_H 	H 	0.5349	0.4906	0.8086	0.067
Mof_C 	C 	0.253	0.567	0.7776	-0.071
Mof_H 	H 	0.1764	0.586	0.7931	0.068
Mof_C 	C 	0.397	0.821	0.8487	-0.094
Mof_H 	H 	0.3411	0.8585	0.8305	0.08
Mof_C 	C 	0.116	0.531	0.9134	0.064
Mof_C 	C 	0.385	0.541	0.6993	0.07
Mof_C 	C 	0.477	0.757	0.9302	-0.035
Mof_H 	H 	0.478	0.7542	0.9671	0.053
Mof_C 	C 	0.175	0.407	0.8726	-0.018
Mof_H 	H 	0.2225	0.3649	0.8535	0.051
Mof_C 	C 	0.057	0.397	0.8937	0.014
Mof_H 	H 	0.0065	0.3461	0.8913	0.037
Mof_C 	C 	0.484	0.515	0.7323	-0.063
Mof_H 	H 	0.5637	0.5007	0.7176	0.059
Mof_C 	C 	0.398	0.539	0.6402	-0.137
Mof_H 	H 	0.4072	0.5996	0.6273	0.08
Mof_H 	H 	0.4754	0.5068	0.6307	0.082
Mof_C 	C 	0.117	0.626	0.9322	0.091
Mof_H 	H 	0.1503	0.6636	0.9039	0.008
Mof_H 	H 	0.0297	0.6447	0.94	0.013
Mof_C 	C 	0.268	0.571	0.7226	-0.06
Mof_H 	H 	0.2014	0.5926	0.7013	0.064
Mof_C 	C 	0.199	0.638	0.9806	-0.625
Mof_H 	H 	0.1735	0.5954	0.0072	0.226
Mof_H 	H 	0.1881	0.6966	0.9943	0.229
Mof_H 	H 	0.2882	0.6284	0.9715	0.224
Mof_O 	O 	0.446	0.9026	0.5287	-0.298
Mof_C 	C 	0.395	0.874	0.5702	0.301
Mof_O 	O 	0.289	0.8952	0.5902	-0.285
Mof_C 	C 	0.723	0.631	0.5674	0.277
Mof_O 	O 	0.672	0.6033	0.5246	-0.289
Mof_O 	O 	0.833	0.6132	0.5869	-0.271
Mof_N 	N 	0.286	0.498	0.6142	-0.102
Mof_C 	C 	0.192	0.537	0.586	0.079
Mof_C 	C 	0.279	0.645	0.5192	-0.565
Mof_H 	H 	0.3655	0.6266	0.5274	0.207
Mof_H 	H 	0.2789	0.7065	0.5093	0.209
Mof_H 	H 	0.2461	0.6101	0.4902	0.209
Mof_C 	C 	0.193	0.632	0.5679	0.038
Mof_H 	H 	0.2244	0.6692	0.5966	0.025
Mof_H 	H 	0.1058	0.6502	0.5594	0.029
Mof_C 	C 	0.255	0.41	0.6209	-0.014
Mof_H 	H 	0.3023	0.3668	0.6391	0.049
Mof_N 	N 	0.101	0.4772	0.5738	-0.144
Mof_C 	C 	0.14	0.398	0.5954	0.008
Mof_H 	H 	0.0953	0.3448	0.593	0.036
Mof_Cd	Cd	0.08788	0.99974	0.96334	0.463
Mof_Cd	Cd	0.32837	0.00591	0.04404	0.463
Mof_O 	O 	0.867	0.5972	0.0178	-0.29
Mof_O 	O 	0.719	0.588	0.0828	-0.281
Mof_O 	O 	0.227	0.9014	0.092	-0.282
Mof_C 	C 	0.822	0.617	0.0629	0.299
Mof_O 	O 	0.083	0.894	0.0259	-0.294
Mof_N 	N 	0.713	0.007	0.1142	-0.1
Mof_N 	N 	0.062	0.7616	0.2609	-0.09
Mof_C 	C 	0.975	0.695	0.3998	-0.029
Mof_C 	C 	0.14	0.806	0.4007	-0.025
Mof_C 	C 	0.129	0.87	0.0704	0.297
Mof_C 	C 	0.054	0.8	0.0988	-0.044
Mof_N 	N 	0.52	0.0265	0.0807	-0.143
Mof_C 	C 	0.898	0.681	0.0952	-0.04
Mof_C 	C 	0.979	0.734	0.1791	0.105
Mof_C 	C 	0.142	0.807	0.3467	-0.102
Mof_H 	H 	0.2011	0.8427	0.3289	0.084
Mof_N 	N 	0.972	0.7248	0.2366	-0.089
Mof_C 	C 	0.054	0.755	0.3173	0.104
Mof_C 	C 	0.968	0.7	0.3448	-0.096
Mof_H 	H 	0.9066	0.6666	0.3263	0.084
Mof_C 	C 	0.837	0.967	0.1294	-0.134
Mof_H 	H 	0.9069	0.0005	0.1137	0.082
Mof_H 	H 	0.841	0.9068	0.1155	0.077
Mof_C 	C 	0.057	0.748	0.4275	-0.048
Mof_H 	H 	0.0582	0.7459	0.4645	0.058
Mof_C 	C 	0.06	0.794	0.1542	-0.096
Mof_H 	H 	0.1164	0.8287	0.1738	0.087
Mof_C 	C 	0.854	0.964	0.19	0.076
Mof_C 	C 	0.968	0.989	0.2127	-0.077
Mof_H 	H 	0.0349	0.0094	0.1914	0.067
Mof_C 	C 	0.753	0.933	0.2224	-0.07
Mof_H 	H 	0.6764	0.914	0.2069	0.068
Mof_C 	C 	0.897	0.679	0.1513	-0.094
Mof_H 	H 	0.8411	0.6415	0.1695	0.081
Mof_C 	C 	0.616	0.969	0.0866	0.068
Mof_C 	C 	0.885	0.959	0.3007	0.069
Mof_C 	C 	0.977	0.743	0.0698	-0.035
Mof_H 	H 	0.978	0.7458	0.0329	0.053
Mof_C 	C 	0.675	0.093	0.1274	-0.018
Mof_H 	H 	0.7225	0.1351	0.1465	0.051
Mof_C 	C 	0.557	0.103	0.1063	0.013
Mof_H 	H 	0.5065	0.1539	0.1087	0.037
Mof_C 	C 	0.984	0.985	0.2677	-0.061
Mof_H 	H 	0.0637	0.9993	0.2824	0.057
Mof_C 	C 	0.898	0.961	0.3598	-0.135
Mof_H 	H 	0.9072	0.9004	0.3727	0.08
Mof_H 	H 	0.9754	0.9932	0.3693	0.082
Mof_C 	C 	0.617	0.874	0.0678	0.085
Mof_H 	H 	0.6503	0.8364	0.0961	0.01
Mof_H 	H 	0.5297	0.8553	0.06	0.015
Mof_C 	C 	0.768	0.929	0.2774	-0.06
Mof_H 	H 	0.7014	0.9074	0.2987	0.064
Mof_C 	C 	0.699	0.862	0.0194	-0.617
Mof_H 	H 	0.6735	0.9046	0.9928	0.223
Mof_H 	H 	0.6881	0.8034	0.0057	0.226
Mof_H 	H 	0.7882	0.8716	0.0285	0.222
Mof_O 	O 	0.946	0.5974	0.4713	-0.298
Mof_C 	C 	0.895	0.626	0.4298	0.301
Mof_O 	O 	0.789	0.6048	0.4098	-0.285
Mof_C 	C 	0.223	0.869	0.4326	0.277
Mof_O 	O 	0.172	0.8967	0.4754	-0.289
Mof_O 	O 	0.333	0.8868	0.4131	-0.271
Mof_N 	N 	0.786	0.002	0.3858	-0.103
Mof_C 	C 	0.692	0.963	0.414	0.08
Mof_C 	C 	0.779	0.855	0.4808	-0.565
Mof_H 	H 	0.8655	0.8734	0.4726	0.207
Mof_H 	H 	0.7789	0.7935	0.4907	0.209
Mof_H 	H 	0.7461	0.8899	0.5098	0.209
Mof_C 	C 	0.693	0.868	0.4321	0.038
Mof_H 	H 	0.7244	0.8308	0.4034	0.025
Mof_H 	H 	0.6058	0.8498	0.4406	0.03
Mof_C 	C 	0.755	0.09	0.3791	-0.014
Mof_H 	H 	0.8023	0.1332	0.3609	0.049
Mof_N 	N 	0.601	0.0228	0.4262	-0.145
Mof_C 	C 	0.64	0.102	0.4046	0.008
Mof_H 	H 	0.5953	0.1552	0.407	0.036
Mof_Cd	Cd	0.41212	0.00026	0.46334	0.466
Mof_Cd	Cd	0.17163	0.99409	0.54404	0.462
Mof_O 	O 	0.633	0.4028	0.5178	-0.29
Mof_O 	O 	0.781	0.412	0.5828	-0.281
Mof_O 	O 	0.273	0.0986	0.592	-0.281
Mof_C 	C 	0.678	0.383	0.5629	0.299
Mof_O 	O 	0.417	0.106	0.5259	-0.295
Mof_N 	N 	0.787	0.993	0.6142	-0.097
Mof_N 	N 	0.438	0.2384	0.7609	-0.09
Mof_C 	C 	0.525	0.305	0.8998	-0.03
Mof_C 	C 	0.36	0.194	0.9007	-0.025
Mof_C 	C 	0.371	0.13	0.5704	0.297
Mof_C 	C 	0.446	0.2	0.5988	-0.044
Mof_N 	N 	0.98	0.9735	0.5807	-0.142
Mof_C 	C 	0.602	0.319	0.5952	-0.04
Mof_C 	C 	0.521	0.266	0.6791	0.104
Mof_C 	C 	0.358	0.193	0.8467	-0.102
Mof_H 	H 	0.2989	0.1573	0.8289	0.084
Mof_N 	N 	0.528	0.2752	0.7366	-0.089
Mof_C 	C 	0.446	0.245	0.8173	0.105
Mof_C 	C 	0.532	0.3	0.8448	-0.096
Mof_H 	H 	0.5934	0.3334	0.8263	0.084
Mof_C 	C 	0.663	0.033	0.6294	-0.139
Mof_H 	H 	0.5931	0.9995	0.6137	0.085
Mof_H 	H 	0.659	0.0932	0.6155	0.079
Mof_C 	C 	0.443	0.252	0.9275	-0.047
Mof_H 	H 	0.4418	0.2541	0.9645	0.058
Mof_C 	C 	0.44	0.206	0.6542	-0.095
Mof_H 	H 	0.3836	0.1713	0.6738	0.087
Mof_C 	C 	0.646	0.036	0.69	0.076
Mof_C 	C 	0.532	0.011	0.7127	-0.075
Mof_H 	H 	0.4651	0.9906	0.6914	0.066
Mof_C 	C 	0.747	0.067	0.7224	-0.07
Mof_H 	H 	0.8236	0.086	0.7069	0.067
Mof_C 	C 	0.603	0.321	0.6513	-0.094
Mof_H 	H 	0.6589	0.3585	0.6695	0.08
Mof_C 	C 	0.884	0.031	0.5866	0.063
Mof_C 	C 	0.615	0.041	0.8007	0.071
Mof_C 	C 	0.523	0.257	0.5698	-0.036
Mof_H 	H 	0.522	0.2542	0.5329	0.053
Mof_C 	C 	0.825	0.907	0.6274	-0.018
Mof_H 	H 	0.7775	0.8649	0.6465	0.051
Mof_C 	C 	0.943	0.897	0.6063	0.014
Mof_H 	H 	0.9935	0.8461	0.6087	0.037
Mof_C 	C 	0.516	0.015	0.7677	-0.064
Mof_H 	H 	0.4363	0.0007	0.7824	0.06
Mof_C 	C 	0.602	0.039	0.8598	-0.137
Mof_H 	H 	0.5928	0.0996	0.8727	0.08
Mof_H 	H 	0.5246	0.0068	0.8693	0.082
Mof_C 	C 	0.883	0.126	0.5678	0.092
Mof_H 	H 	0.8497	0.1636	0.5961	0.008
Mof_H 	H 	0.9703	0.1447	0.56	0.013
Mof_C 	C 	0.732	0.071	0.7774	-0.061
Mof_H 	H 	0.7986	0.0926	0.7987	0.064
Mof_C 	C 	0.801	0.138	0.5194	-0.626
Mof_H 	H 	0.8265	0.0954	0.4928	0.226
Mof_H 	H 	0.8119	0.1966	0.5057	0.229
Mof_H 	H 	0.7118	0.1284	0.5285	0.224
Mof_O 	O 	0.554	0.4026	0.9713	-0.298
Mof_C 	C 	0.605	0.374	0.9298	0.301
Mof_O 	O 	0.711	0.3952	0.9098	-0.285
Mof_C 	C 	0.277	0.131	0.9326	0.277
Mof_O 	O 	0.328	0.1033	0.9754	-0.288
Mof_O 	O 	0.167	0.1132	0.9131	-0.27
Mof_N 	N 	0.714	0.998	0.8858	-0.102
Mof_C 	C 	0.808	0.037	0.914	0.08
Mof_C 	C 	0.721	0.145	0.9808	-0.558
Mof_H 	H 	0.6345	0.1266	0.9726	0.205
Mof_H 	H 	0.7211	0.2065	0.9907	0.207
Mof_H 	H 	0.7539	0.1101	0.0098	0.206
Mof_C 	C 	0.807	0.132	0.9321	0.034
Mof_H 	H 	0.7756	0.1692	0.9034	0.026
Mof_H 	H 	0.8942	0.1502	0.9406	0.031
Mof_C 	C 	0.745	0.91	0.8791	-0.014
Mof_H 	H 	0.6977	0.8668	0.8609	0.049
Mof_N 	N 	0.899	0.9772	0.9262	-0.145
Mof_C 	C 	0.86	0.898	0.9046	0.008
Mof_H 	H 	0.9047	0.8448	0.907	0.036
_end
