# CIF file generated by openbabel 3.1.0, see https://openbabel.org
data_I
_chemical_name_common 'PIZPOD_clean_h'
_cell_length_a 8.426
_cell_length_b 9.629
_cell_length_c 17.159
_cell_angle_alpha 90
_cell_angle_beta 90
_cell_angle_gamma 112.14
_space_group_name_H-M_alt 'P 1'
_space_group_name_Hall 'P 1'
loop_
    _symmetry_equiv_pos_as_xyz
    x,y,z
loop_
    _atom_site_label
    _atom_site_type_symbol
    _atom_site_fract_x
    _atom_site_fract_y
    _atom_site_fract_z
    _atom_site_occupancy
    Lu1      Lu       0.84420    0.02560    0.25710    1.000
    Lu2      Lu       0.15580    0.47440    0.75710    1.000
    Lu3      Lu       0.15580    0.97440    0.74290    1.000
    Lu4      Lu       0.84420    0.52560    0.24290    1.000
    C1       C        0.90670    0.02580    0.09840    1.000
    C2       C        0.94660    0.03420    0.01440    1.000
    C3       C        0.56340    0.19640    0.28890    1.000
    C4       C        0.37790    0.10310    0.30060    1.000
    C5       C        0.31200    0.95790    0.28270    1.000
    C6       C        0.12780    0.36430    0.21420    1.000
    C7       C        0.09330    0.47420    0.59840    1.000
    C8       C        0.05340    0.46580    0.51440    1.000
    C9       C        0.43660    0.30360    0.78890    1.000
    C10      C        0.62210    0.39690    0.80060    1.000
    C11      C        0.68800    0.54210    0.78270    1.000
    C12      C        0.87220    0.13570    0.71420    1.000
    C13      C        0.09330    0.97420    0.90160    1.000
    C14      C        0.05340    0.96580    0.98560    1.000
    C15      C        0.43660    0.80360    0.71110    1.000
    C16      C        0.62210    0.89690    0.69940    1.000
    C17      C        0.68800    0.04210    0.71730    1.000
    C18      C        0.87220    0.63570    0.78580    1.000
    C19      C        0.90670    0.52580    0.40160    1.000
    C20      C        0.94660    0.53420    0.48560    1.000
    C21      C        0.56340    0.69640    0.21110    1.000
    C22      C        0.37790    0.60310    0.19940    1.000
    C23      C        0.31200    0.45790    0.21730    1.000
    C24      C        0.12780    0.86430    0.28580    1.000
    O1       O        0.96570    0.95420    0.14530    1.000
    O2       O        0.81350    0.09280    0.12330    1.000
    O3       O        0.66250    0.13490    0.26960    1.000
    O4       O        0.60690    0.33550    0.29630    1.000
    O5       O        0.02240    0.42390    0.19470    1.000
    O6       O        0.08540    0.23010    0.23120    1.000
    O7       O        0.03430    0.54580    0.64530    1.000
    O8       O        0.18650    0.40720    0.62330    1.000
    O9       O        0.33750    0.36510    0.76960    1.000
    O10      O        0.39310    0.16450    0.79630    1.000
    O11      O        0.97760    0.07610    0.69470    1.000
    O12      O        0.91460    0.26990    0.73120    1.000
    O13      O        0.03430    0.04580    0.85470    1.000
    O14      O        0.18650    0.90720    0.87670    1.000
    O15      O        0.33750    0.86510    0.73040    1.000
    O16      O        0.39310    0.66450    0.70370    1.000
    O17      O        0.97760    0.57610    0.80530    1.000
    O18      O        0.91460    0.76990    0.76880    1.000
    O19      O        0.96570    0.45420    0.35470    1.000
    O20      O        0.81350    0.59280    0.37670    1.000
    O21      O        0.66250    0.63490    0.23040    1.000
    O22      O        0.60690    0.83550    0.20370    1.000
    O23      O        0.02240    0.92390    0.30530    1.000
    O24      O        0.08540    0.73010    0.26880    1.000
    H1       H        0.88996    0.09657    0.97339    1.000
    H2       H        0.28842    0.15596    0.32551    1.000
    H3       H        0.39979    0.89860    0.26354    1.000
    H4       H        0.11004    0.40343    0.47339    1.000
    H5       H        0.71158    0.34404    0.82551    1.000
    H6       H        0.60021    0.60140    0.76354    1.000
    H7       H        0.11004    0.90343    0.02661    1.000
    H8       H        0.71158    0.84404    0.67449    1.000
    H9       H        0.59217    0.09344    0.73594    1.000
    H10      H        0.89029    0.59643    0.52686    1.000
    H11      H        0.28842    0.65596    0.17449    1.000
    H12      H        0.39979    0.39860    0.23646    1.000
