data_functionalizedCrystal
_audit_creation_method	'EQeq! by Chris Wilmer'
_symmetry_space_group_name_H-M	'P1'
_symmetry_Int_Tables_number	1
_symmetry_cell_setting	triclinic
loop_
_symmetry_equiv_pos_as_xyz
  x,y,z
_cell_length_a	13.5137
_cell_length_b	9.0119
_cell_length_c	9.6357
_cell_angle_alpha	90
_cell_angle_beta	134.507
_cell_angle_gamma	90
loop_
_atom_site_label
_atom_site_type_symbol
_atom_site_fract_x
_atom_site_fract_y
_atom_site_fract_z
_atom_site_charge
Mof_P 	P 	0.33315	0.60284	0.22063	0.628
Mof_O 	O 	0.3251	0.5695	0.0574	-0.372
Mof_O 	O 	0.4656	0.6862	0.3896	-0.366
Mof_O 	O 	0.2076	0.6934	0.1443	-0.338
Mof_O 	O 	0.3204	0.4532	0.2806	-0.347
Mof_Be	Be	0.3692	0.6478	0.9578	0.794
Mof_P 	P 	0.83315	0.10284	0.22063	0.63
Mof_O 	O 	0.8251	0.0695	0.0574	-0.37
Mof_O 	O 	0.9656	0.1862	0.3896	-0.366
Mof_O 	O 	0.7076	0.1934	0.1443	-0.338
Mof_O 	O 	0.8204	0.9532	0.2806	-0.347
Mof_Be	Be	0.8692	0.1478	0.9578	0.792
Mof_P 	P 	0.66685	0.60284	0.27937	0.629
Mof_O 	O 	0.6749	0.5695	0.4426	-0.371
Mof_O 	O 	0.5344	0.6862	0.1104	-0.366
Mof_O 	O 	0.7924	0.6934	0.3557	-0.338
Mof_O 	O 	0.6796	0.4532	0.2194	-0.347
Mof_Be	Be	0.6308	0.6478	0.5422	0.793
Mof_P 	P 	0.16685	0.10284	0.27937	0.629
Mof_O 	O 	0.1749	0.0695	0.4426	-0.372
Mof_O 	O 	0.0344	0.1862	0.1104	-0.366
Mof_O 	O 	0.2924	0.1934	0.3557	-0.338
Mof_O 	O 	0.1796	0.9532	0.2194	-0.347
Mof_Be	Be	0.1308	0.1478	0.5422	0.793
Mof_P 	P 	0.66685	0.39716	0.77937	0.629
Mof_O 	O 	0.6749	0.4305	0.9426	-0.371
Mof_O 	O 	0.5344	0.3138	0.6104	-0.366
Mof_O 	O 	0.7924	0.3066	0.8557	-0.338
Mof_O 	O 	0.6796	0.5468	0.7194	-0.347
Mof_Be	Be	0.6308	0.3522	0.0422	0.794
Mof_P 	P 	0.16685	0.89716	0.77937	0.63
Mof_O 	O 	0.1749	0.9305	0.9426	-0.37
Mof_O 	O 	0.0344	0.8138	0.6104	-0.366
Mof_O 	O 	0.2924	0.8066	0.8557	-0.338
Mof_O 	O 	0.1796	0.0468	0.7194	-0.347
Mof_Be	Be	0.1308	0.8522	0.0422	0.792
Mof_P 	P 	0.33315	0.39716	0.72063	0.629
Mof_O 	O 	0.3251	0.4305	0.5574	-0.371
Mof_O 	O 	0.4656	0.3138	0.8896	-0.366
Mof_O 	O 	0.2076	0.3066	0.6443	-0.338
Mof_O 	O 	0.3204	0.5468	0.7806	-0.347
Mof_Be	Be	0.3692	0.3522	0.4578	0.793
Mof_P 	P 	0.83315	0.89716	0.72063	0.629
Mof_O 	O 	0.8251	0.9305	0.5574	-0.372
Mof_O 	O 	0.9656	0.8138	0.8896	-0.366
Mof_O 	O 	0.7076	0.8066	0.6443	-0.338
Mof_O 	O 	0.8204	0.0468	0.7806	-0.347
Mof_Be	Be	0.8692	0.8522	0.4578	0.793
_end
