# CIF file generated by openbabel 3.1.0, see https://openbabel.org
data_I
_chemical_name_common 'image0'
_cell_length_a 18.4059
_cell_length_b 18.7645
_cell_length_c 34.5211
_cell_angle_alpha 90
_cell_angle_beta 90
_cell_angle_gamma 90
_space_group_name_H-M_alt 'P 1'
_space_group_name_Hall 'P 1'
loop_
    _symmetry_equiv_pos_as_xyz
    x,y,z
loop_
    _atom_site_label
    _atom_site_type_symbol
    _atom_site_fract_x
    _atom_site_fract_y
    _atom_site_fract_z
    _atom_site_occupancy
    Cu1      Cu       0.88221    0.27105    0.96863    1.000
    Cu2      Cu       0.61843    0.22853    0.53168    1.000
    Cu3      Cu       0.54518    0.28958    0.47455    1.000
    Cu4      Cu       0.95555    0.21061    0.02575    1.000
    O1       O        0.85710    0.18850    0.04790    1.000
    O2       O        0.55800    0.87700    0.49350    1.000
    O3       O        0.37420    0.82670    0.94536    1.000
    O4       O        0.13570    0.18960    0.55020    1.000
    O5       O        0.45220    0.19490    0.95070    1.000
    O6       O        0.20450    0.24570    0.50195    1.000
    O7       O        0.44690    0.87230    0.99283    1.000
    O8       O        0.55160    0.19680    0.44766    1.000
    O9       O        0.47770    0.21390    0.05517    1.000
    O10      O        0.46310    0.25700    0.50574    1.000
    O11      O        0.40130    0.14070    0.00095    1.000
    O12      O        0.80530    0.25080    0.00361    1.000
    O13      O        0.62030    0.82380    0.44690    1.000
    O14      O        0.60310    0.14290    0.50090    1.000
    O15      O        0.52450    0.21860    0.55738    1.000
    O16      O        0.53970    0.25880    0.00455    1.000
    C1       C        0.46770    0.22590    0.53770    1.000
    C2       C        0.71300    0.06550    0.15790    1.000
    H1       H        0.74090    0.04650    0.13790    1.000
    C3       C        0.61980    0.11280    0.21540    1.000
    C4       C        0.73570    0.20000    0.05420    1.000
    C5       C        0.41170    0.07450    0.94430    1.000
    C6       C        0.42500    0.13100    0.74970    1.000
    C7       C        0.39550    0.17820    0.59520    1.000
    H2       H        0.43870    0.17390    0.60900    1.000
    C8       C        0.39560    0.21240    0.55590    1.000
    C9       C        0.67120    0.22150    0.03760    1.000
    H3       H        0.67070    0.24390    0.01360    1.000
    C10      C        0.67140    0.15930    0.11180    1.000
    C11      C        0.58940    0.94900    0.44200    1.000
    C12      C        0.66900    0.05790    0.22420    1.000
    C13      C        0.60690    0.01850    0.38390    1.000
    C14      C        0.67000    0.12780    0.15000    1.000
    C15      C        0.41260    0.87490    0.96150    1.000
    C16      C        0.57940    0.06950    0.31610    1.000
    H4       H        0.54140    0.09700    0.32570    1.000
    C17      C        0.71510    0.03070    0.19540    1.000
    H5       H        0.74560    0.99220    0.20010    1.000
    C18      C        0.41010    0.00910    0.96310    1.000
    H6       H        0.41450    0.00750    0.98990    1.000
    C19      C        0.39720    0.07860    0.77890    1.000
    C20      C        0.33890    0.03370    0.76320    1.000
    C21      C        0.61340    0.01790    0.33880    1.000
    C22      C        0.80620    0.21490    0.03510    1.000
    C23      C        0.26770    0.20150    0.55560    1.000
    C24      C        0.57590    0.00890    0.46240    1.000
    H7       H        0.56540    0.00600    0.48870    1.000
    C25      C        0.33640    0.05440    0.72050    1.000
    C26      C        0.33420    0.15410    0.61030    1.000
    C27      C        0.60400    0.07770    0.27980    1.000
    C28      C        0.69150    0.98240    0.28420    1.000
    H8       H        0.72650    0.95320    0.27310    1.000
    C29      C        0.40200    0.94510    0.94220    1.000
    C30      C        0.37900    0.14430    0.67930    1.000
    H9       H        0.40820    0.18380    0.67440    1.000
    C31      C        0.62140    0.14800    0.17800    1.000
    H10      H        0.58890    0.18480    0.17290    1.000
    C32      C        0.39720    0.01140    0.88180    1.000
    C33      C        0.60420    0.95180    0.40150    1.000
    H11      H        0.61180    0.91030    0.38720    1.000
    C34      C        0.59620    0.07880    0.40380    1.000
    H12      H        0.60080    0.12260    0.39140    1.000
    C35      C        0.33360    0.22420    0.53830    1.000
    H13      H        0.33290    0.24750    0.51450    1.000
    C36      C        0.26570    0.16920    0.59070    1.000
    H14      H        0.22160    0.15700    0.60200    1.000
    C37      C        0.19560    0.21180    0.53270    1.000
    C38      C        0.28720    0.03070    0.69180    1.000
    H15      H        0.25580    0.99320    0.69720    1.000
    C39      C        0.33350    0.11590    0.64930    1.000
    C40      C        0.57960    0.21020    0.26330    1.000
    H16      H        0.55790    0.24090    0.24390    1.000
    H17      H        0.55130    0.21570    0.28690    1.000
    C41      C        0.41550    0.20990    0.76150    1.000
    H18      H        0.44660    0.21820    0.78370    1.000
    H19      H        0.43460    0.23860    0.74040    1.000
    C42      C        0.42500    0.14110    0.96650    1.000
    C43      C        0.60260    0.20810    0.05890    1.000
    C44      C        0.60460    0.17870    0.09250    1.000
    H20      H        0.56090    0.16940    0.10500    1.000
    C45      C        0.67370    0.97950    0.32430    1.000
    H21      H        0.70180    0.95210    0.34110    1.000
    C46      C        0.41160    0.07770    0.90430    1.000
    H22      H        0.42030    0.12050    0.89160    1.000
    C47      C        0.64980    0.03560    0.26160    1.000
    C48      C        0.28530    0.06180    0.65690    1.000
    H23      H        0.25210    0.04710    0.63820    1.000
    C49      C        0.32710    0.97220    0.82260    1.000
    H24      H        0.30740    0.93410    0.83630    1.000
    C50      C        0.39010    0.94920    0.90290    1.000
    H25      H        0.37650    0.90790    0.88980    1.000
    C51      C        0.41030    0.07170    0.81900    1.000
    H26      H        0.44290    0.10300    0.83060    1.000
    C52      C        0.57090    0.13220    0.24940    1.000
    C53      C        0.37720    0.02110    0.84160    1.000
    C54      C        0.57800    0.14370    0.46610    1.000
    C55      C        0.49010    0.12300    0.24140    1.000
    H27      H        0.46250    0.13840    0.26380    1.000
    H28      H        0.47630    0.15280    0.21960    1.000
    C56      C        0.50580    0.11610    0.74220    1.000
    H29      H        0.53100    0.12700    0.76620    1.000
    H30      H        0.52160    0.15120    0.72340    1.000
    C57      C        0.37960    0.11500    0.71330    1.000
    C58      C        0.53560    0.23270    0.03880    1.000
    C59      C        0.57750    0.07600    0.44410    1.000
    C60      C        0.30930    0.98250    0.78480    1.000
    H31      H        0.27500    0.95260    0.77360    1.000
    C61      C        0.47160    0.04590    0.23230    1.000
    H32      H        0.51410    0.01910    0.24140    1.000
    C62      C        0.53570    0.04420    0.72830    1.000
    H33      H        0.50400    0.00300    0.73290    1.000
    C63      C        0.59280    0.87750    0.46260    1.000
    C64      C        0.61340    0.03760    0.74480    1.000
    H34      H        0.63680    0.08390    0.74530    1.000
    H35      H        0.64230    0.00590    0.72880    1.000
    C65      C        0.56240    0.05290    0.68680    1.000
    H36      H        0.58140    0.00830    0.67770    1.000
    H37      H        0.52280    0.06760    0.67060    1.000
    H38      H        0.60000    0.08840    0.68610    1.000
    C66      C        0.40890    0.01270    0.25360    1.000
    H39      H        0.41250    0.02360    0.28070    1.000
    H40      H        0.36410    0.03140    0.24360    1.000
    H41      H        0.40990    0.96200    0.25010    1.000
    C67      C        0.46900    0.03070    0.18950    1.000
    H42      H        0.51600    0.00900    0.18470    1.000
    H43      H        0.43450    0.99170    0.18790    1.000
    C68      C        0.30160    0.20220    0.80420    1.000
    H44      H        0.25430    0.22500    0.80390    1.000
    H45      H        0.32560    0.22060    0.82710    1.000
    C69      C        0.30820    0.24040    0.73100    1.000
    C70      C        0.65610    0.23810    0.27150    1.000
    H46      H        0.68870    0.21770    0.25200    1.000
    C71      C        0.68850    0.22220    0.31130    1.000
    H47      H        0.69580    0.17130    0.31420    1.000
    H48      H        0.73530    0.24550    0.31380    1.000
    C72      C        0.65760    0.32020    0.26680    1.000
    H49      H        0.63770    0.33280    0.24200    1.000
    H50      H        0.62930    0.34180    0.28690    1.000
    H51      H        0.70690    0.33680    0.26840    1.000
    C73      C        0.63840    0.24850    0.34190    1.000
    H52      H        0.65870    0.23850    0.36690    1.000
    H53      H        0.63170    0.29890    0.33910    1.000
    H54      H        0.59230    0.22490    0.33950    1.000
    C74      C        0.60670    0.00730    0.78650    1.000
    H55      H        0.65420    0.00250    0.79770    1.000
    H56      H        0.57810    0.03920    0.80210    1.000
    H57      H        0.58350    0.96140    0.78560    1.000
    C75      C        0.45520    0.07040    0.15280    1.000
    H58      H        0.45920    0.03840    0.13120    1.000
    H59      H        0.40720    0.09040    0.15350    1.000
    H60      H        0.49020    0.10800    0.15020    1.000
    C76      C        0.28340    0.12460    0.81570    1.000
    H61      H        0.25620    0.12450    0.83940    1.000
    H62      H        0.25520    0.10280    0.79550    1.000
    H63      H        0.32770    0.09830    0.81920    1.000
    C77      C        0.34170    0.23920    0.77130    1.000
    H64      H        0.34870    0.28890    0.77920    1.000
    C78      C        0.73380    0.16540    0.09200    1.000
    H65      H        0.77650    0.14740    0.10260    1.000
    Cu5      Cu       0.61779    0.72895    0.46863    1.000
    Cu6      Cu       0.88157    0.77147    0.03168    1.000
    Cu7      Cu       0.95482    0.71042    0.97455    1.000
    Cu8      Cu       0.54445    0.78939    0.52575    1.000
    O17      O        0.64290    0.81150    0.54790    1.000
    O18      O        0.94200    0.12300    0.99350    1.000
    O19      O        0.12580    0.17330    0.44536    1.000
    O20      O        0.36430    0.81040    0.05020    1.000
    O21      O        0.04780    0.80510    0.45070    1.000
    O22      O        0.29550    0.75430    0.00195    1.000
    O23      O        0.05310    0.12770    0.49283    1.000
    O24      O        0.94840    0.80320    0.94766    1.000
    O25      O        0.02230    0.78610    0.55517    1.000
    O26      O        0.03690    0.74300    0.00574    1.000
    O27      O        0.09870    0.85930    0.50095    1.000
    O28      O        0.69470    0.74920    0.50361    1.000
    O29      O        0.87970    0.17620    0.94690    1.000
    O30      O        0.89690    0.85710    0.00090    1.000
    O31      O        0.97550    0.78140    0.05738    1.000
    O32      O        0.96030    0.74120    0.50455    1.000
    C79      C        0.03230    0.77410    0.03770    1.000
    C80      C        0.78700    0.93450    0.65790    1.000
    H66      H        0.75910    0.95350    0.63790    1.000
    C81      C        0.88020    0.88720    0.71540    1.000
    C82      C        0.76430    0.80000    0.55420    1.000
    C83      C        0.08830    0.92550    0.44430    1.000
    C84      C        0.07500    0.86900    0.24970    1.000
    C85      C        0.10450    0.82180    0.09520    1.000
    H67      H        0.06130    0.82610    0.10900    1.000
    C86      C        0.10440    0.78760    0.05590    1.000
    C87      C        0.82880    0.77850    0.53760    1.000
    H68      H        0.82930    0.75610    0.51360    1.000
    C88      C        0.82860    0.84070    0.61180    1.000
    C89      C        0.91060    0.05100    0.94200    1.000
    C90      C        0.83100    0.94210    0.72420    1.000
    C91      C        0.89310    0.98150    0.88390    1.000
    C92      C        0.83000    0.87220    0.65000    1.000
    C93      C        0.08740    0.12510    0.46150    1.000
    C94      C        0.92060    0.93050    0.81610    1.000
    H69      H        0.95860    0.90300    0.82570    1.000
    C95      C        0.78490    0.96930    0.69540    1.000
    H70      H        0.75440    0.00780    0.70010    1.000
    C96      C        0.08990    0.99090    0.46310    1.000
    H71      H        0.08550    0.99250    0.48990    1.000
    C97      C        0.10280    0.92140    0.27890    1.000
    C98      C        0.16110    0.96630    0.26320    1.000
    C99      C        0.88660    0.98210    0.83880    1.000
    C100     C        0.69380    0.78510    0.53510    1.000
    C101     C        0.23230    0.79850    0.05560    1.000
    C102     C        0.92410    0.99110    0.96240    1.000
    H72      H        0.93460    0.99400    0.98870    1.000
    C103     C        0.16360    0.94560    0.22050    1.000
    C104     C        0.16580    0.84590    0.11030    1.000
    C105     C        0.89600    0.92230    0.77980    1.000
    C106     C        0.80850    0.01760    0.78420    1.000
    H73      H        0.77350    0.04680    0.77310    1.000
    C107     C        0.09800    0.05490    0.44220    1.000
    C108     C        0.12100    0.85570    0.17930    1.000
    H74      H        0.09180    0.81620    0.17440    1.000
    C109     C        0.87860    0.85200    0.67800    1.000
    H75      H        0.91110    0.81520    0.67290    1.000
    C110     C        0.10280    0.98860    0.38180    1.000
    C111     C        0.89580    0.04820    0.90150    1.000
    H76      H        0.88820    0.08970    0.88720    1.000
    C112     C        0.90380    0.92120    0.90380    1.000
    H77      H        0.89920    0.87740    0.89140    1.000
    C113     C        0.16640    0.77580    0.03830    1.000
    H78      H        0.16710    0.75250    0.01450    1.000
    C114     C        0.23430    0.83080    0.09070    1.000
    H79      H        0.27840    0.84300    0.10200    1.000
    C115     C        0.30440    0.78820    0.03270    1.000
    C116     C        0.21280    0.96930    0.19180    1.000
    H80      H        0.24420    0.00680    0.19720    1.000
    C117     C        0.16650    0.88410    0.14930    1.000
    C118     C        0.92040    0.78980    0.76330    1.000
    H81      H        0.94210    0.75910    0.74390    1.000
    H82      H        0.94870    0.78430    0.78690    1.000
    C119     C        0.08450    0.79010    0.26150    1.000
    H83      H        0.05340    0.78180    0.28370    1.000
    H84      H        0.06540    0.76140    0.24040    1.000
    C120     C        0.07500    0.85890    0.46650    1.000
    C121     C        0.89740    0.79190    0.55890    1.000
    C122     C        0.89540    0.82130    0.59250    1.000
    H85      H        0.93910    0.83060    0.60500    1.000
    C123     C        0.82630    0.02050    0.82430    1.000
    H86      H        0.79820    0.04790    0.84110    1.000
    C124     C        0.08840    0.92230    0.40430    1.000
    H87      H        0.07970    0.87950    0.39160    1.000
    C125     C        0.85020    0.96440    0.76160    1.000
    C126     C        0.21470    0.93820    0.15690    1.000
    H88      H        0.24790    0.95290    0.13820    1.000
    C127     C        0.17290    0.02780    0.32260    1.000
    H89      H        0.19260    0.06590    0.33630    1.000
    C128     C        0.10990    0.05080    0.40290    1.000
    H90      H        0.12350    0.09210    0.38980    1.000
    C129     C        0.08970    0.92830    0.31900    1.000
    H91      H        0.05710    0.89700    0.33060    1.000
    C130     C        0.92910    0.86780    0.74940    1.000
    C131     C        0.12280    0.97890    0.34160    1.000
    C132     C        0.92200    0.85630    0.96610    1.000
    C133     C        0.00990    0.87700    0.74140    1.000
    H92      H        0.03750    0.86160    0.76380    1.000
    H93      H        0.02370    0.84720    0.71960    1.000
    C134     C        0.99420    0.88390    0.24220    1.000
    H94      H        0.96900    0.87300    0.26620    1.000
    H95      H        0.97840    0.84880    0.22340    1.000
    C135     C        0.12040    0.88500    0.21330    1.000
    C136     C        0.96440    0.76730    0.53880    1.000
    C137     C        0.92250    0.92400    0.94410    1.000
    C138     C        0.19070    0.01750    0.28480    1.000
    H96      H        0.22500    0.04740    0.27360    1.000
    C139     C        0.02840    0.95410    0.73230    1.000
    H97      H        0.98590    0.98090    0.74140    1.000
    C140     C        0.96430    0.95580    0.22830    1.000
    H98      H        0.99600    0.99700    0.23290    1.000
    C141     C        0.90720    0.12250    0.96260    1.000
    C142     C        0.88660    0.96240    0.24480    1.000
    H99      H        0.86320    0.91610    0.24530    1.000
    H100     H        0.85770    0.99410    0.22880    1.000
    C143     C        0.93760    0.94710    0.18680    1.000
    H101     H        0.91860    0.99170    0.17770    1.000
    H102     H        0.97720    0.93240    0.17060    1.000
    H103     H        0.90000    0.91160    0.18610    1.000
    C144     C        0.09110    0.98730    0.75360    1.000
    H104     H        0.08750    0.97640    0.78070    1.000
    H105     H        0.13590    0.96860    0.74360    1.000
    H106     H        0.09010    0.03800    0.75010    1.000
    C145     C        0.03100    0.96930    0.68950    1.000
    H107     H        0.98400    0.99100    0.68470    1.000
    H108     H        0.06550    0.00830    0.68790    1.000
    C146     C        0.19840    0.79780    0.30420    1.000
    H109     H        0.24570    0.77500    0.30390    1.000
    H110     H        0.17440    0.77940    0.32710    1.000
    C147     C        0.19180    0.75960    0.23100    1.000
    C148     C        0.84390    0.76190    0.77150    1.000
    H111     H        0.81130    0.78230    0.75200    1.000
    C149     C        0.81150    0.77780    0.81130    1.000
    H112     H        0.80420    0.82870    0.81420    1.000
    H113     H        0.76470    0.75450    0.81380    1.000
    C150     C        0.84240    0.67980    0.76680    1.000
    H114     H        0.86230    0.66720    0.74200    1.000
    H115     H        0.87070    0.65820    0.78690    1.000
    H116     H        0.79310    0.66320    0.76840    1.000
    C151     C        0.86160    0.75150    0.84190    1.000
    H117     H        0.84130    0.76150    0.86690    1.000
    H118     H        0.86830    0.70110    0.83910    1.000
    H119     H        0.90770    0.77510    0.83950    1.000
    C152     C        0.89330    0.99270    0.28650    1.000
    H120     H        0.84580    0.99750    0.29770    1.000
    H121     H        0.92190    0.96080    0.30210    1.000
    H122     H        0.91650    0.03860    0.28560    1.000
    C153     C        0.04480    0.92960    0.65280    1.000
    H123     H        0.04080    0.96160    0.63120    1.000
    H124     H        0.09280    0.90960    0.65350    1.000
    H125     H        0.00980    0.89200    0.65020    1.000
    C154     C        0.21660    0.87540    0.31570    1.000
    H126     H        0.24380    0.87550    0.33940    1.000
    H127     H        0.24480    0.89720    0.29550    1.000
    H128     H        0.17230    0.90170    0.31920    1.000
    C155     C        0.15830    0.76080    0.27130    1.000
    H129     H        0.15130    0.71110    0.27920    1.000
    C156     C        0.76620    0.83460    0.59200    1.000
    H130     H        0.72350    0.85260    0.60260    1.000
    Cu9      Cu       0.11779    0.77105    0.53137    1.000
    Cu10     Cu       0.38157    0.72853    0.96832    1.000
    Cu11     Cu       0.45482    0.78958    0.02545    1.000
    Cu12     Cu       0.04445    0.71061    0.47425    1.000
    O33      O        0.14290    0.68850    0.45210    1.000
    O34      O        0.44200    0.37700    0.00650    1.000
    O35      O        0.62580    0.32670    0.55464    1.000
    O36      O        0.86430    0.68960    0.94980    1.000
    O37      O        0.54780    0.69490    0.54930    1.000
    O38      O        0.79550    0.74570    0.99805    1.000
    O39      O        0.55310    0.37230    0.50717    1.000
    O40      O        0.44840    0.69680    0.05234    1.000
    O41      O        0.52230    0.71390    0.44483    1.000
    O42      O        0.53690    0.75700    0.99426    1.000
    O43      O        0.59870    0.64070    0.49905    1.000
    O44      O        0.19470    0.75080    0.49639    1.000
    O45      O        0.37970    0.32380    0.05310    1.000
    O46      O        0.39690    0.64290    0.99910    1.000
    O47      O        0.47550    0.71860    0.94262    1.000
    O48      O        0.46030    0.75880    0.49545    1.000
    C157     C        0.53230    0.72590    0.96230    1.000
    C158     C        0.28700    0.56550    0.34210    1.000
    H131     H        0.25910    0.54650    0.36210    1.000
    C159     C        0.38020    0.61280    0.28460    1.000
    C160     C        0.26430    0.70000    0.44580    1.000
    C161     C        0.58830    0.57450    0.55570    1.000
    C162     C        0.57500    0.63100    0.75030    1.000
    C163     C        0.60450    0.67820    0.90480    1.000
    H132     H        0.56130    0.67390    0.89100    1.000
    C164     C        0.60440    0.71240    0.94410    1.000
    C165     C        0.32880    0.72150    0.46240    1.000
    H133     H        0.32930    0.74390    0.48640    1.000
    C166     C        0.32860    0.65930    0.38820    1.000
    C167     C        0.41060    0.44900    0.05800    1.000
    C168     C        0.33100    0.55790    0.27580    1.000
    C169     C        0.39310    0.51850    0.11610    1.000
    C170     C        0.33000    0.62780    0.35000    1.000
    C171     C        0.58740    0.37490    0.53850    1.000
    C172     C        0.42060    0.56950    0.18390    1.000
    H134     H        0.45860    0.59700    0.17430    1.000
    C173     C        0.28490    0.53070    0.30460    1.000
    H135     H        0.25440    0.49220    0.29990    1.000
    C174     C        0.58990    0.50910    0.53690    1.000
    H136     H        0.58550    0.50750    0.51010    1.000
    C175     C        0.60280    0.57860    0.72110    1.000
    C176     C        0.66110    0.53370    0.73680    1.000
    C177     C        0.38660    0.51790    0.16120    1.000
    C178     C        0.19380    0.71490    0.46490    1.000
    C179     C        0.73230    0.70150    0.94440    1.000
    C180     C        0.42410    0.50890    0.03760    1.000
    H137     H        0.43460    0.50600    0.01130    1.000
    C181     C        0.66360    0.55440    0.77950    1.000
    C182     C        0.66580    0.65410    0.88970    1.000
    C183     C        0.39600    0.57770    0.22020    1.000
    C184     C        0.30850    0.48240    0.21580    1.000
    H138     H        0.27350    0.45320    0.22690    1.000
    C185     C        0.59800    0.44510    0.55780    1.000
    C186     C        0.62100    0.64430    0.82070    1.000
    H139     H        0.59180    0.68380    0.82560    1.000
    C187     C        0.37860    0.64800    0.32200    1.000
    H140     H        0.41110    0.68480    0.32710    1.000
    C188     C        0.60280    0.51140    0.61820    1.000
    C189     C        0.39580    0.45180    0.09850    1.000
    H141     H        0.38820    0.41030    0.11280    1.000
    C190     C        0.40380    0.57880    0.09620    1.000
    H142     H        0.39920    0.62260    0.10860    1.000
    C191     C        0.66640    0.72420    0.96170    1.000
    H143     H        0.66710    0.74750    0.98550    1.000
    C192     C        0.73430    0.66920    0.90930    1.000
    H144     H        0.77840    0.65700    0.89800    1.000
    C193     C        0.80440    0.71180    0.96730    1.000
    C194     C        0.71280    0.53070    0.80820    1.000
    H145     H        0.74420    0.49320    0.80280    1.000
    C195     C        0.66650    0.61590    0.85070    1.000
    C196     C        0.42040    0.71020    0.23670    1.000
    H146     H        0.44210    0.74090    0.25610    1.000
    H147     H        0.44870    0.71570    0.21310    1.000
    C197     C        0.58450    0.70990    0.73850    1.000
    H148     H        0.55340    0.71820    0.71630    1.000
    H149     H        0.56540    0.73860    0.75960    1.000
    C198     C        0.57500    0.64110    0.53350    1.000
    C199     C        0.39740    0.70810    0.44110    1.000
    C200     C        0.39540    0.67870    0.40750    1.000
    H150     H        0.43910    0.66940    0.39500    1.000
    C201     C        0.32630    0.47950    0.17570    1.000
    H151     H        0.29820    0.45210    0.15890    1.000
    C202     C        0.58840    0.57770    0.59570    1.000
    H152     H        0.57970    0.62050    0.60840    1.000
    C203     C        0.35020    0.53560    0.23840    1.000
    C204     C        0.71470    0.56180    0.84310    1.000
    H153     H        0.74790    0.54710    0.86180    1.000
    C205     C        0.67290    0.47220    0.67740    1.000
    H154     H        0.69260    0.43410    0.66370    1.000
    C206     C        0.60990    0.44920    0.59710    1.000
    H155     H        0.62350    0.40790    0.61020    1.000
    C207     C        0.58970    0.57170    0.68100    1.000
    H156     H        0.55710    0.60300    0.66940    1.000
    C208     C        0.42910    0.63220    0.25060    1.000
    C209     C        0.62280    0.52110    0.65840    1.000
    C210     C        0.42200    0.64370    0.03390    1.000
    C211     C        0.50990    0.62300    0.25860    1.000
    H157     H        0.53750    0.63840    0.23620    1.000
    H158     H        0.52370    0.65280    0.28040    1.000
    C212     C        0.49420    0.61610    0.75780    1.000
    H159     H        0.46900    0.62700    0.73380    1.000
    H160     H        0.47840    0.65120    0.77660    1.000
    C213     C        0.62040    0.61500    0.78670    1.000
    C214     C        0.46440    0.73270    0.46120    1.000
    C215     C        0.42250    0.57600    0.05590    1.000
    C216     C        0.69070    0.48250    0.71520    1.000
    H161     H        0.72500    0.45260    0.72640    1.000
    C217     C        0.52840    0.54590    0.26770    1.000
    H162     H        0.48590    0.51910    0.25860    1.000
    C218     C        0.46430    0.54420    0.77170    1.000
    H163     H        0.49600    0.50300    0.76710    1.000
    C219     C        0.40720    0.37750    0.03740    1.000
    C220     C        0.38660    0.53760    0.75520    1.000
    H164     H        0.36320    0.58390    0.75470    1.000
    H165     H        0.35770    0.50590    0.77120    1.000
    C221     C        0.43760    0.55290    0.81320    1.000
    H166     H        0.41860    0.50830    0.82230    1.000
    H167     H        0.47720    0.56760    0.82940    1.000
    H168     H        0.40000    0.58840    0.81390    1.000
    C222     C        0.59110    0.51270    0.24640    1.000
    H169     H        0.58750    0.52360    0.21930    1.000
    H170     H        0.63590    0.53140    0.25640    1.000
    H171     H        0.59010    0.46200    0.24990    1.000
    C223     C        0.53100    0.53070    0.31050    1.000
    H172     H        0.48400    0.50900    0.31530    1.000
    H173     H        0.56550    0.49170    0.31210    1.000
    C224     C        0.69840    0.70220    0.69580    1.000
    H174     H        0.74570    0.72500    0.69610    1.000
    H175     H        0.67440    0.72060    0.67290    1.000
    C225     C        0.69180    0.74040    0.76900    1.000
    C226     C        0.34390    0.73810    0.22850    1.000
    H176     H        0.31130    0.71770    0.24800    1.000
    C227     C        0.31150    0.72220    0.18870    1.000
    H177     H        0.30420    0.67130    0.18580    1.000
    H178     H        0.26470    0.74550    0.18620    1.000
    C228     C        0.34240    0.82020    0.23320    1.000
    H179     H        0.36230    0.83280    0.25800    1.000
    H180     H        0.37070    0.84180    0.21310    1.000
    H181     H        0.29310    0.83680    0.23160    1.000
    C229     C        0.36160    0.74850    0.15810    1.000
    H182     H        0.34130    0.73850    0.13310    1.000
    H183     H        0.36830    0.79890    0.16090    1.000
    H184     H        0.40770    0.72490    0.16050    1.000
    C230     C        0.39330    0.50730    0.71350    1.000
    H185     H        0.34580    0.50250    0.70230    1.000
    H186     H        0.42190    0.53920    0.69790    1.000
    H187     H        0.41650    0.46140    0.71440    1.000
    C231     C        0.54480    0.57040    0.34720    1.000
    H188     H        0.54080    0.53840    0.36880    1.000
    H189     H        0.59280    0.59040    0.34650    1.000
    H190     H        0.50980    0.60800    0.34980    1.000
    C232     C        0.71660    0.62460    0.68430    1.000
    H191     H        0.74380    0.62450    0.66060    1.000
    H192     H        0.74480    0.60280    0.70450    1.000
    H193     H        0.67230    0.59830    0.68080    1.000
    C233     C        0.65830    0.73920    0.72870    1.000
    H194     H        0.65130    0.78890    0.72080    1.000
    C234     C        0.26620    0.66540    0.40800    1.000
    H195     H        0.22350    0.64740    0.39740    1.000
    Cu13     Cu       0.38221    0.22895    0.03137    1.000
    Cu14     Cu       0.11843    0.27147    0.46832    1.000
    Cu15     Cu       0.04518    0.21042    0.52545    1.000
    Cu16     Cu       0.45555    0.28939    0.97425    1.000
    O49      O        0.35710    0.31150    0.95210    1.000
    O50      O        0.05800    0.62300    0.50650    1.000
    O51      O        0.87420    0.67330    0.05464    1.000
    O52      O        0.63570    0.31040    0.44980    1.000
    O53      O        0.95220    0.30510    0.04930    1.000
    O54      O        0.70450    0.25430    0.49805    1.000
    O55      O        0.94690    0.62770    0.00717    1.000
    O56      O        0.05160    0.30320    0.55234    1.000
    O57      O        0.97770    0.28610    0.94483    1.000
    O58      O        0.96310    0.24300    0.49426    1.000
    O59      O        0.90130    0.35930    0.99905    1.000
    O60      O        0.30530    0.24920    0.99639    1.000
    O61      O        0.12030    0.67620    0.55310    1.000
    O62      O        0.10310    0.35710    0.49910    1.000
    O63      O        0.02450    0.28140    0.44262    1.000
    O64      O        0.03970    0.24120    0.99545    1.000
    C235     C        0.96770    0.27410    0.46230    1.000
    C236     C        0.21300    0.43450    0.84210    1.000
    H196     H        0.24090    0.45350    0.86210    1.000
    C237     C        0.11980    0.38720    0.78460    1.000
    C238     C        0.23570    0.30000    0.94580    1.000
    C239     C        0.91170    0.42550    0.05570    1.000
    C240     C        0.92500    0.36900    0.25030    1.000
    C241     C        0.89550    0.32180    0.40480    1.000
    H197     H        0.93870    0.32610    0.39100    1.000
    C242     C        0.89560    0.28760    0.44410    1.000
    C243     C        0.17120    0.27850    0.96240    1.000
    H198     H        0.17070    0.25610    0.98640    1.000
    C244     C        0.17140    0.34070    0.88820    1.000
    C245     C        0.08940    0.55100    0.55800    1.000
    C246     C        0.16900    0.44210    0.77580    1.000
    C247     C        0.10690    0.48150    0.61610    1.000
    C248     C        0.17000    0.37220    0.85000    1.000
    C249     C        0.91260    0.62510    0.03850    1.000
    C250     C        0.07940    0.43050    0.68390    1.000
    H199     H        0.04140    0.40300    0.67430    1.000
    C251     C        0.21510    0.46930    0.80460    1.000
    H200     H        0.24560    0.50780    0.79990    1.000
    C252     C        0.91010    0.49090    0.03690    1.000
    H201     H        0.91450    0.49250    0.01010    1.000
    C253     C        0.89720    0.42140    0.22110    1.000
    C254     C        0.83890    0.46630    0.23680    1.000
    C255     C        0.11340    0.48210    0.66120    1.000
    C256     C        0.30620    0.28510    0.96490    1.000
    C257     C        0.76770    0.29850    0.44440    1.000
    C258     C        0.07590    0.49110    0.53760    1.000
    H202     H        0.06540    0.49400    0.51130    1.000
    C259     C        0.83640    0.44560    0.27950    1.000
    C260     C        0.83420    0.34590    0.38970    1.000
    C261     C        0.10400    0.42230    0.72020    1.000
    C262     C        0.19150    0.51760    0.71580    1.000
    H203     H        0.22650    0.54680    0.72690    1.000
    C263     C        0.90200    0.55490    0.05780    1.000
    C264     C        0.87900    0.35570    0.32070    1.000
    H204     H        0.90820    0.31620    0.32560    1.000
    C265     C        0.12140    0.35200    0.82200    1.000
    H205     H        0.08890    0.31520    0.82710    1.000
    C266     C        0.89720    0.48860    0.11820    1.000
    C267     C        0.10420    0.54820    0.59850    1.000
    H206     H        0.11180    0.58970    0.61280    1.000
    C268     C        0.09620    0.42120    0.59620    1.000
    H207     H        0.10080    0.37740    0.60860    1.000
    C269     C        0.83360    0.27580    0.46170    1.000
    H208     H        0.83290    0.25250    0.48550    1.000
    C270     C        0.76570    0.33080    0.40930    1.000
    H209     H        0.72160    0.34300    0.39800    1.000
    C271     C        0.69560    0.28820    0.46730    1.000
    C272     C        0.78720    0.46930    0.30820    1.000
    H210     H        0.75580    0.50680    0.30280    1.000
    C273     C        0.83350    0.38410    0.35070    1.000
    C274     C        0.07960    0.28980    0.73670    1.000
    H211     H        0.05790    0.25910    0.75610    1.000
    H212     H        0.05130    0.28430    0.71310    1.000
    C275     C        0.91550    0.29010    0.23850    1.000
    H213     H        0.94660    0.28180    0.21630    1.000
    H214     H        0.93460    0.26140    0.25960    1.000
    C276     C        0.92500    0.35890    0.03350    1.000
    C277     C        0.10260    0.29190    0.94110    1.000
    C278     C        0.10460    0.32130    0.90750    1.000
    H215     H        0.06090    0.33060    0.89500    1.000
    C279     C        0.17370    0.52050    0.67570    1.000
    H216     H        0.20180    0.54790    0.65890    1.000
    C280     C        0.91160    0.42230    0.09570    1.000
    H217     H        0.92030    0.37950    0.10840    1.000
    C281     C        0.14980    0.46440    0.73840    1.000
    C282     C        0.78530    0.43820    0.34310    1.000
    H218     H        0.75210    0.45290    0.36180    1.000
    C283     C        0.82710    0.52780    0.17740    1.000
    H219     H        0.80740    0.56590    0.16370    1.000
    C284     C        0.89010    0.55080    0.09710    1.000
    H220     H        0.87650    0.59210    0.11020    1.000
    C285     C        0.91030    0.42830    0.18100    1.000
    H221     H        0.94290    0.39700    0.16940    1.000
    C286     C        0.07090    0.36780    0.75060    1.000
    C287     C        0.87720    0.47890    0.15840    1.000
    C288     C        0.07800    0.35630    0.53390    1.000
    C289     C        0.99010    0.37700    0.75860    1.000
    H222     H        0.96250    0.36160    0.73620    1.000
    H223     H        0.97630    0.34720    0.78040    1.000
    C290     C        0.00580    0.38390    0.25780    1.000
    H224     H        0.03100    0.37300    0.23380    1.000
    H225     H        0.02160    0.34880    0.27660    1.000
    C291     C        0.87960    0.38500    0.28670    1.000
    C292     C        0.03560    0.26730    0.96120    1.000
    C293     C        0.07750    0.42400    0.55590    1.000
    C294     C        0.80930    0.51750    0.21520    1.000
    H226     H        0.77500    0.54740    0.22640    1.000
    C295     C        0.97160    0.45410    0.76770    1.000
    H227     H        0.01410    0.48090    0.75860    1.000
    C296     C        0.03570    0.45580    0.27170    1.000
    H228     H        0.00400    0.49700    0.26710    1.000
    C297     C        0.09280    0.62250    0.53740    1.000
    C298     C        0.11340    0.46240    0.25520    1.000
    H229     H        0.13680    0.41610    0.25470    1.000
    H230     H        0.14230    0.49410    0.27120    1.000
    C299     C        0.06240    0.44710    0.31320    1.000
    H231     H        0.08140    0.49170    0.32230    1.000
    H232     H        0.02280    0.43240    0.32940    1.000
    H233     H        0.10000    0.41160    0.31390    1.000
    C300     C        0.90890    0.48730    0.74640    1.000
    H234     H        0.91250    0.47640    0.71930    1.000
    H235     H        0.86410    0.46860    0.75640    1.000
    H236     H        0.90990    0.53800    0.74990    1.000
    C301     C        0.96900    0.46930    0.81050    1.000
    H237     H        0.01600    0.49100    0.81530    1.000
    H238     H        0.93450    0.50830    0.81210    1.000
    C302     C        0.80160    0.29780    0.19580    1.000
    H239     H        0.75430    0.27500    0.19610    1.000
    H240     H        0.82560    0.27940    0.17290    1.000
    C303     C        0.80820    0.25960    0.26900    1.000
    C304     C        0.15610    0.26190    0.72850    1.000
    H241     H        0.18870    0.28230    0.74800    1.000
    C305     C        0.18850    0.27780    0.68870    1.000
    H242     H        0.19580    0.32870    0.68580    1.000
    H243     H        0.23530    0.25450    0.68620    1.000
    C306     C        0.15760    0.17980    0.73320    1.000
    H244     H        0.13770    0.16720    0.75800    1.000
    H245     H        0.12930    0.15820    0.71310    1.000
    H246     H        0.20690    0.16320    0.73160    1.000
    C307     C        0.13840    0.25150    0.65810    1.000
    H247     H        0.15870    0.26150    0.63310    1.000
    H248     H        0.13170    0.20110    0.66090    1.000
    H249     H        0.09230    0.27510    0.66050    1.000
    C308     C        0.10670    0.49270    0.21350    1.000
    H250     H        0.15420    0.49750    0.20230    1.000
    H251     H        0.07810    0.46080    0.19790    1.000
    H252     H        0.08350    0.53860    0.21440    1.000
    C309     C        0.95520    0.42960    0.84720    1.000
    H253     H        0.95920    0.46160    0.86880    1.000
    H254     H        0.90720    0.40960    0.84650    1.000
    H255     H        0.99020    0.39200    0.84980    1.000
    C310     C        0.78340    0.37540    0.18430    1.000
    H256     H        0.75620    0.37550    0.16060    1.000
    H257     H        0.75520    0.39720    0.20450    1.000
    H258     H        0.82770    0.40170    0.18080    1.000
    C311     C        0.84170    0.26080    0.22870    1.000
    H259     H        0.84870    0.21110    0.22080    1.000
    C312     C        0.23380    0.33460    0.90800    1.000
    H260     H        0.27650    0.35260    0.89740    1.000
