# CIF file generated by openbabel 3.1.0, see https://openbabel.org
data_I
_chemical_name_common 'ELILIV_clean'
_cell_length_a 9.356
_cell_length_b 9.796
_cell_length_c 11.415
_cell_angle_alpha 94.799
_cell_angle_beta 99.614
_cell_angle_gamma 111.738
_space_group_name_H-M_alt 'P 1'
_space_group_name_Hall 'P 1'
loop_
    _symmetry_equiv_pos_as_xyz
    x,y,z
loop_
    _atom_site_label
    _atom_site_type_symbol
    _atom_site_fract_x
    _atom_site_fract_y
    _atom_site_fract_z
    _atom_site_occupancy
    Tm1      Tm       0.72515    0.45516    0.01024    1.000
    Tm2      Tm       0.27485    0.54484    0.98976    1.000
    H1       H        0.06490    0.60500    0.42070    1.000
    H2       H        0.14820    0.72250    0.61880    1.000
    H3       H        0.82000    0.89600    0.56580    1.000
    H4       H        0.72860    0.77110    0.37450    1.000
    H5       H        0.80070    0.70500    0.77490    1.000
    H6       H        0.67600    0.99440    0.96100    1.000
    H7       H        0.07520    0.14250    0.83580    1.000
    H8       H        0.93510    0.39500    0.57930    1.000
    H9       H        0.85180    0.27750    0.38120    1.000
    H10      H        0.18000    0.10400    0.43420    1.000
    H11      H        0.27140    0.22890    0.62550    1.000
    H12      H        0.19930    0.29500    0.22510    1.000
    H13      H        0.32400    0.00560    0.03900    1.000
    H14      H        0.92480    0.85750    0.16420    1.000
    C1       C        0.82650    0.58920    0.25180    1.000
    C2       C        0.88390    0.67130    0.37370    1.000
    C3       C        0.01330    0.66090    0.45010    1.000
    C4       C        0.06500    0.73290    0.56860    1.000
    C5       C        0.99240    0.81920    0.61070    1.000
    C6       C        0.86690    0.83530    0.53680    1.000
    C7       C        0.81400    0.76170    0.42250    1.000
    C8       C        0.94900    0.91930    0.79280    1.000
    C9       C        0.82000    0.80180    0.80780    1.000
    C10      C        0.71820    0.83070    0.87360    1.000
    C11      C        0.74740    0.97540    0.92140    1.000
    C12      C        0.88130    0.09120    0.91100    1.000
    C13      C        0.98510    0.06480    0.84470    1.000
    C14      C        0.58160    0.70480    0.89800    1.000
    C15      C        0.91730    0.24690    0.96730    1.000
    C16      C        0.17350    0.41080    0.74820    1.000
    C17      C        0.11610    0.32870    0.62630    1.000
    C18      C        0.98670    0.33910    0.54990    1.000
    C19      C        0.93500    0.26710    0.43140    1.000
    C20      C        0.00760    0.18080    0.38930    1.000
    C21      C        0.13310    0.16470    0.46320    1.000
    C22      C        0.18600    0.23830    0.57750    1.000
    C23      C        0.05100    0.08070    0.20720    1.000
    C24      C        0.18000    0.19820    0.19220    1.000
    C25      C        0.28180    0.16930    0.12640    1.000
    C26      C        0.25260    0.02460    0.07860    1.000
    C27      C        0.11870    0.90880    0.08900    1.000
    C28      C        0.01490    0.93520    0.15530    1.000
    C29      C        0.41840    0.29520    0.10200    1.000
    C30      C        0.08270    0.75310    0.03270    1.000
    O1       O        0.87930    0.49620    0.21520    1.000
    O2       O        0.72100    0.61290    0.18000    1.000
    O3       O        0.60170    0.58970    0.92160    1.000
    O4       O        0.45320    0.72000    0.89660    1.000
    O5       O        0.80730    0.26790    0.00610    1.000
    O6       O        0.04950    0.34580    0.97140    1.000
    O7       O        0.05430    0.89420    0.72850    1.000
    O8       O        0.12070    0.50380    0.78480    1.000
    O9       O        0.27900    0.38710    0.82000    1.000
    O10      O        0.39830    0.41030    0.07840    1.000
    O11      O        0.54680    0.28000    0.10340    1.000
    O12      O        0.19270    0.73210    0.99390    1.000
    O13      O        0.95050    0.65420    0.02860    1.000
    O14      O        0.94570    0.10580    0.27150    1.000
