data_functionalizedCrystal
_audit_creation_method	'EQeq! by Chris Wilmer'
_symmetry_space_group_name_H-M	'P1'
_symmetry_Int_Tables_number	1
_symmetry_cell_setting	triclinic
loop_
_symmetry_equiv_pos_as_xyz
  x,y,z
_cell_length_a	16.7727
_cell_length_b	16.7727
_cell_length_c	16.7727
_cell_angle_alpha	90
_cell_angle_beta	90
_cell_angle_gamma	90
loop_
_atom_site_label
_atom_site_type_symbol
_atom_site_fract_x
_atom_site_fract_y
_atom_site_fract_z
_atom_site_charge
Mof_O 	O 	0.1945	0.4831	0.0922	-0.767
Mof_O 	O 	0.6945	0.9831	0.5922	-0.47
Mof_O 	O 	0.8055	0.5169	0.0922	-0.752
Mof_O 	O 	0.3055	0.0169	0.5922	-0.853
Mof_O 	O 	0.8055	0.4831	0.9078	-0.495
Mof_O 	O 	0.3055	0.9831	0.4078	-0.487
Mof_O 	O 	0.1945	0.5169	0.9078	-0.512
Mof_O 	O 	0.6945	0.0169	0.4078	-0.868
Mof_O 	O 	0.0922	0.1945	0.4831	-0.766
Mof_O 	O 	0.5922	0.6945	0.9831	-0.469
Mof_O 	O 	0.0922	0.8055	0.5169	-0.751
Mof_O 	O 	0.5922	0.3055	0.0169	-0.853
Mof_O 	O 	0.9078	0.8055	0.4831	-0.495
Mof_O 	O 	0.4078	0.3055	0.9831	-0.487
Mof_O 	O 	0.9078	0.1945	0.5169	-0.512
Mof_O 	O 	0.4078	0.6945	0.0169	-0.868
Mof_O 	O 	0.4831	0.0922	0.1945	-0.766
Mof_O 	O 	0.9831	0.5922	0.6945	-0.469
Mof_O 	O 	0.5169	0.0922	0.8055	-0.751
Mof_O 	O 	0.0169	0.5922	0.3055	-0.853
Mof_O 	O 	0.4831	0.9078	0.8055	-0.495
Mof_O 	O 	0.9831	0.4078	0.3055	-0.487
Mof_O 	O 	0.5169	0.9078	0.1945	-0.512
Mof_O 	O 	0.0169	0.4078	0.6945	-0.868
Mof_O 	O 	0.4831	0.1945	0.0922	-0.766
Mof_O 	O 	0.9831	0.6945	0.5922	-0.469
Mof_O 	O 	0.5169	0.8055	0.0922	-0.751
Mof_O 	O 	0.0169	0.3055	0.5922	-0.853
Mof_O 	O 	0.4831	0.8055	0.9078	-0.495
Mof_O 	O 	0.9831	0.3055	0.4078	-0.487
Mof_O 	O 	0.5169	0.1945	0.9078	-0.512
Mof_O 	O 	0.0169	0.6945	0.4078	-0.868
Mof_O 	O 	0.1945	0.0922	0.4831	-0.766
Mof_O 	O 	0.6945	0.5922	0.9831	-0.469
Mof_O 	O 	0.8055	0.0922	0.5169	-0.751
Mof_O 	O 	0.3055	0.5922	0.0169	-0.853
Mof_O 	O 	0.8055	0.9078	0.4831	-0.495
Mof_O 	O 	0.3055	0.4078	0.9831	-0.487
Mof_O 	O 	0.1945	0.9078	0.5169	-0.512
Mof_O 	O 	0.6945	0.4078	0.0169	-0.868
Mof_O 	O 	0.0922	0.4831	0.1945	-0.766
Mof_O 	O 	0.5922	0.9831	0.6945	-0.469
Mof_O 	O 	0.0922	0.5169	0.8055	-0.751
Mof_O 	O 	0.5922	0.0169	0.3055	-0.853
Mof_O 	O 	0.9078	0.4831	0.8055	-0.495
Mof_O 	O 	0.4078	0.9831	0.3055	-0.487
Mof_O 	O 	0.9078	0.5169	0.1945	-0.512
Mof_O 	O 	0.4078	0.0169	0.6945	-0.868
Mof_Al	Al	-0	0.5	-0	0.43
Mof_Al	Al	0.5	0	0.5	2.827
Mof_Al	Al	1.8747e-33	0	0.5	0.43
Mof_Al	Al	0.5	0.5	-0	2.827
Mof_Al	Al	0.5	0	-0	0.43
Mof_Al	Al	1.8747e-33	0.5	0.5	2.827
Mof_Al	Al	0.25	0.5	-0	2.013
Mof_Al	Al	0.75	0.5	-0	2.131
Mof_Al	Al	1.8747e-33	0.25	0.5	2.013
Mof_Al	Al	7.22455e-33	0.75	0.5	2.131
Mof_Al	Al	0.5	0	0.25	2.013
Mof_Al	Al	0.5	0	0.75	2.131
Mof_Al	Al	0.5	0.25	-0	2.013
Mof_Al	Al	0.5	0.75	-0	2.131
Mof_Al	Al	0.25	0	0.5	2.013
Mof_Al	Al	0.75	0	0.5	2.131
Mof_Al	Al	9.3735e-34	0.5	0.25	2.013
Mof_Al	Al	8.1619e-33	0.5	0.75	2.131
Mof_P 	P 	0.12254	0.43536	0.12254	0.67
Mof_O 	O 	0.144	0.3513	0.144	-0.432
Mof_O 	O 	0.0581	0.4359	0.0581	-0.691
Mof_P 	P 	0.62254	0.93536	0.62254	0.785
Mof_O 	O 	0.644	0.8513	0.644	-0.185
Mof_O 	O 	0.5581	0.9359	0.5581	-0.765
Mof_P 	P 	0.87746	0.56464	0.12254	0.672
Mof_O 	O 	0.856	0.6487	0.144	-0.21
Mof_O 	O 	0.9419	0.5641	0.0581	-0.33
Mof_P 	P 	0.37746	0.06464	0.62254	0.796
Mof_O 	O 	0.356	0.1487	0.644	-0.295
Mof_O 	O 	0.4419	0.0641	0.5581	-1.06
Mof_P 	P 	0.87746	0.43536	0.87746	0.676
Mof_O 	O 	0.856	0.3513	0.856	-0.1
Mof_O 	O 	0.9419	0.4359	0.9419	-0.014
Mof_P 	P 	0.37746	0.93536	0.37746	0.772
Mof_O 	O 	0.356	0.8513	0.356	-0.243
Mof_O 	O 	0.4419	0.9359	0.4419	-0.761
Mof_P 	P 	0.12254	0.56464	0.87746	0.672
Mof_O 	O 	0.144	0.6487	0.856	-0.21
Mof_O 	O 	0.0581	0.5641	0.9419	-0.33
Mof_P 	P 	0.62254	0.06464	0.37746	0.796
Mof_O 	O 	0.644	0.1487	0.356	-0.295
Mof_O 	O 	0.5581	0.0641	0.4419	-1.06
Mof_P 	P 	0.12254	0.12254	0.43536	0.67
Mof_O 	O 	0.144	0.144	0.3513	-0.432
Mof_O 	O 	0.0581	0.0581	0.4359	-0.691
Mof_P 	P 	0.62254	0.62254	0.93536	0.785
Mof_O 	O 	0.644	0.644	0.8513	-0.185
Mof_O 	O 	0.5581	0.5581	0.9359	-0.765
Mof_P 	P 	0.12254	0.87746	0.56464	0.672
Mof_O 	O 	0.144	0.856	0.6487	-0.21
Mof_O 	O 	0.0581	0.9419	0.5641	-0.33
Mof_P 	P 	0.62254	0.37746	0.06464	0.796
Mof_O 	O 	0.644	0.356	0.1487	-0.295
Mof_O 	O 	0.5581	0.4419	0.0641	-1.06
Mof_P 	P 	0.87746	0.87746	0.43536	0.676
Mof_O 	O 	0.856	0.856	0.3513	-0.1
Mof_O 	O 	0.9419	0.9419	0.4359	-0.014
Mof_P 	P 	0.37746	0.37746	0.93536	0.772
Mof_O 	O 	0.356	0.356	0.8513	-0.243
Mof_O 	O 	0.4419	0.4419	0.9359	-0.761
Mof_P 	P 	0.87746	0.12254	0.56464	0.672
Mof_O 	O 	0.856	0.144	0.6487	-0.21
Mof_O 	O 	0.9419	0.0581	0.5641	-0.33
Mof_P 	P 	0.37746	0.62254	0.06464	0.796
Mof_O 	O 	0.356	0.644	0.1487	-0.295
Mof_O 	O 	0.4419	0.5581	0.0641	-1.06
Mof_P 	P 	0.43536	0.12254	0.12254	0.67
Mof_O 	O 	0.3513	0.144	0.144	-0.432
Mof_O 	O 	0.4359	0.0581	0.0581	-0.691
Mof_P 	P 	0.93536	0.62254	0.62254	0.785
Mof_O 	O 	0.8513	0.644	0.644	-0.185
Mof_O 	O 	0.9359	0.5581	0.5581	-0.765
Mof_P 	P 	0.56464	0.12254	0.87746	0.672
Mof_O 	O 	0.6487	0.144	0.856	-0.21
Mof_O 	O 	0.5641	0.0581	0.9419	-0.33
Mof_P 	P 	0.06464	0.62254	0.37746	0.796
Mof_O 	O 	0.1487	0.644	0.356	-0.295
Mof_O 	O 	0.0641	0.5581	0.4419	-1.06
Mof_P 	P 	0.43536	0.87746	0.87746	0.676
Mof_O 	O 	0.3513	0.856	0.856	-0.1
Mof_O 	O 	0.4359	0.9419	0.9419	-0.014
Mof_P 	P 	0.93536	0.37746	0.37746	0.772
Mof_O 	O 	0.8513	0.356	0.356	-0.243
Mof_O 	O 	0.9359	0.4419	0.4419	-0.761
Mof_P 	P 	0.56464	0.87746	0.12254	0.672
Mof_O 	O 	0.6487	0.856	0.144	-0.21
Mof_O 	O 	0.5641	0.9419	0.0581	-0.33
Mof_P 	P 	0.06464	0.37746	0.62254	0.796
Mof_O 	O 	0.1487	0.356	0.644	-0.295
Mof_O 	O 	0.0641	0.4419	0.5581	-1.06
_end
