data_functionalizedCrystal
_audit_creation_method	'EQeq! by Chris Wilmer'
_symmetry_space_group_name_H-M	'P1'
_symmetry_Int_Tables_number	1
_symmetry_cell_setting	triclinic
loop_
_symmetry_equiv_pos_as_xyz
  x,y,z
_cell_length_a	11.1148
_cell_length_b	15.6485
_cell_length_c	18.8376
_cell_angle_alpha	90
_cell_angle_beta	92.647
_cell_angle_gamma	90
loop_
_atom_site_label
_atom_site_type_symbol
_atom_site_fract_x
_atom_site_fract_y
_atom_site_fract_z
_atom_site_charge
Mof_U 	U 	0.74068	0.2644	0.23751	0.006
Mof_U 	U 	0.48825	0.21445	0.08908	0.016
Mof_U 	U 	0.17037	0.22407	0.94513	0.039
Mof_U 	U 	0.98968	0.30583	0.38733	0.014
Mof_U 	U 	0.81212	0.23033	0.03102	0.038
Mof_U 	U 	0.13787	0.51651	0.17973	0.001
Mof_Co	Co	0.8612	0.005	0.0605	1.153
Mof_P 	P 	0.0142	0.2964	0.18831	0.456
Mof_P 	P 	0.4633	0.2351	0.28432	0.451
Mof_O 	O 	0.0862	0.3743	0.1728	-0.174
Mof_O 	O 	0.9041	0.2846	0.138	-0.151
Mof_O 	O 	0.9582	0.2948	0.2616	-0.158
Mof_O 	O 	0.2902	0.2437	0.1293	-0.212
Mof_O 	O 	0.1504	0.1723	0.0669	-0.212
Mof_O 	O 	0.385	0.1579	0.291	-0.179
Mof_O 	O 	0.5734	0.2369	0.336	-0.149
Mof_O 	O 	0.52	0.2457	0.2116	-0.156
Mof_O 	O 	0.3311	0.3411	0.416	-0.213
Mof_O 	O 	0.1866	0.291	0.3435	-0.223
Mof_O 	O 	0.1133	0.117	0.9314	-0.26
Mof_O 	O 	0.8713	0.1281	0.058	-0.268
Mof_O 	O 	0.792	0.2959	0.352	-0.05
Mof_O 	O 	0.6866	0.2262	0.1239	-0.045
Mof_O 	O 	0.3666	0.1767	0.9876	-0.06
Mof_O 	O 	0.614	0.1736	0.9924	-0.058
Mof_O 	O 	0.9894	0.2782	0.9852	-0.025
Mof_O 	O 	0.905	0.9946	0.9517	-0.196
Mof_O 	O 	0.045	0.0085	0.092	-0.172
Mof_C 	C 	0.1111	0.203	0.1868	-0.417
Mof_H 	H 	0.1625	0.2007	0.2311	0.202
Mof_H 	H 	0.0612	0.1506	0.1841	0.189
Mof_C 	C 	0.1907	0.2071	0.1224	0.414
Mof_C 	C 	0.371	0.3304	0.2944	-0.422
Mof_H 	H 	0.424	0.3806	0.303	0.19
Mof_H 	H 	0.3223	0.3406	0.2499	0.2
Mof_C 	C 	0.2878	0.3212	0.3557	0.422
Mof_U 	U 	0.75932	0.7644	0.26249	0.008
Mof_U 	U 	0.01175	0.71445	0.41092	0.017
Mof_U 	U 	0.32963	0.72407	0.55487	0.039
Mof_U 	U 	0.51032	0.80583	0.11267	0.017
Mof_U 	U 	0.68788	0.73033	0.46898	0.041
Mof_U 	U 	0.36213	0.01651	0.32027	0.003
Mof_Co	Co	0.6388	0.505	0.4395	1.156
Mof_P 	P 	0.4858	0.7964	0.31169	0.453
Mof_P 	P 	0.0367	0.7351	0.21568	0.448
Mof_O 	O 	0.4138	0.8743	0.3272	-0.174
Mof_O 	O 	0.5959	0.7846	0.362	-0.149
Mof_O 	O 	0.5418	0.7948	0.2384	-0.156
Mof_O 	O 	0.2098	0.7437	0.3707	-0.212
Mof_O 	O 	0.3496	0.6723	0.4331	-0.212
Mof_O 	O 	0.115	0.6579	0.209	-0.179
Mof_O 	O 	0.9266	0.7369	0.164	-0.147
Mof_O 	O 	0.98	0.7457	0.2884	-0.153
Mof_O 	O 	0.1689	0.8411	0.084	-0.213
Mof_O 	O 	0.3134	0.791	0.1565	-0.223
Mof_O 	O 	0.3867	0.617	0.5686	-0.263
Mof_O 	O 	0.6287	0.6281	0.442	-0.265
Mof_O 	O 	0.708	0.7959	0.148	-0.049
Mof_O 	O 	0.8134	0.7262	0.3761	-0.044
Mof_O 	O 	0.1334	0.6767	0.5124	-0.061
Mof_O 	O 	0.886	0.6736	0.5076	-0.058
Mof_O 	O 	0.5106	0.7782	0.5148	-0.025
Mof_O 	O 	0.595	0.4946	0.5483	-0.196
Mof_O 	O 	0.455	0.5085	0.408	-0.173
Mof_C 	C 	0.3889	0.703	0.3132	-0.416
Mof_H 	H 	0.3375	0.7007	0.2689	0.201
Mof_H 	H 	0.4388	0.6506	0.3159	0.188
Mof_C 	C 	0.3093	0.7071	0.3776	0.414
Mof_C 	C 	0.129	0.8304	0.2056	-0.422
Mof_H 	H 	0.076	0.8806	0.197	0.189
Mof_H 	H 	0.1777	0.8406	0.2501	0.2
Mof_C 	C 	0.2122	0.8212	0.1443	0.422
Mof_U 	U 	0.25932	0.7356	0.76249	0.007
Mof_U 	U 	0.51175	0.78555	0.91092	0.017
Mof_U 	U 	0.82963	0.77593	0.05487	0.04
Mof_U 	U 	0.01032	0.69417	0.61267	0.015
Mof_U 	U 	0.18788	0.76967	0.96898	0.039
Mof_U 	U 	0.86213	0.48349	0.82027	0.002
Mof_Co	Co	0.1388	0.995	0.9395	1.153
Mof_P 	P 	0.9858	0.7036	0.81169	0.456
Mof_P 	P 	0.5367	0.7649	0.71568	0.451
Mof_O 	O 	0.9138	0.6257	0.8272	-0.174
Mof_O 	O 	0.0959	0.7154	0.862	-0.151
Mof_O 	O 	0.0418	0.7052	0.7384	-0.158
Mof_O 	O 	0.7098	0.7563	0.8707	-0.212
Mof_O 	O 	0.8496	0.8277	0.9331	-0.212
Mof_O 	O 	0.615	0.8421	0.709	-0.179
Mof_O 	O 	0.4266	0.7631	0.664	-0.149
Mof_O 	O 	0.48	0.7543	0.7884	-0.156
Mof_O 	O 	0.6689	0.6589	0.584	-0.213
Mof_O 	O 	0.8134	0.709	0.6565	-0.223
Mof_O 	O 	0.8867	0.883	0.0686	-0.26
Mof_O 	O 	0.1287	0.8719	0.942	-0.268
Mof_O 	O 	0.208	0.7041	0.648	-0.05
Mof_O 	O 	0.3134	0.7738	0.8761	-0.045
Mof_O 	O 	0.6334	0.8233	0.0124	-0.06
Mof_O 	O 	0.386	0.8264	0.0076	-0.058
Mof_O 	O 	0.0106	0.7218	0.0148	-0.025
Mof_O 	O 	0.095	0.0054	0.0483	-0.196
Mof_O 	O 	0.955	0.9915	0.908	-0.172
Mof_C 	C 	0.8889	0.797	0.8132	-0.417
Mof_H 	H 	0.8375	0.7993	0.7689	0.202
Mof_H 	H 	0.9388	0.8494	0.8159	0.189
Mof_C 	C 	0.8093	0.7929	0.8776	0.414
Mof_C 	C 	0.629	0.6696	0.7056	-0.422
Mof_H 	H 	0.576	0.6194	0.697	0.19
Mof_H 	H 	0.6777	0.6594	0.7501	0.2
Mof_C 	C 	0.7122	0.6788	0.6443	0.422
Mof_U 	U 	0.24068	0.2356	0.73751	0.008
Mof_U 	U 	0.98825	0.28555	0.58908	0.017
Mof_U 	U 	0.67037	0.27593	0.44513	0.039
Mof_U 	U 	0.48968	0.19417	0.88733	0.017
Mof_U 	U 	0.31212	0.26967	0.53102	0.041
Mof_U 	U 	0.63787	0.98349	0.67973	0.003
Mof_Co	Co	0.3612	0.495	0.5605	1.156
Mof_P 	P 	0.5142	0.2036	0.68831	0.453
Mof_P 	P 	0.9633	0.2649	0.78432	0.448
Mof_O 	O 	0.5862	0.1257	0.6728	-0.174
Mof_O 	O 	0.4041	0.2154	0.638	-0.149
Mof_O 	O 	0.4582	0.2052	0.7616	-0.156
Mof_O 	O 	0.7902	0.2563	0.6293	-0.212
Mof_O 	O 	0.6504	0.3277	0.5669	-0.212
Mof_O 	O 	0.885	0.3421	0.791	-0.179
Mof_O 	O 	0.0734	0.2631	0.836	-0.147
Mof_O 	O 	0.02	0.2543	0.7116	-0.153
Mof_O 	O 	0.8311	0.1589	0.916	-0.213
Mof_O 	O 	0.6866	0.209	0.8435	-0.223
Mof_O 	O 	0.6133	0.383	0.4314	-0.263
Mof_O 	O 	0.3713	0.3719	0.558	-0.265
Mof_O 	O 	0.292	0.2041	0.852	-0.049
Mof_O 	O 	0.1866	0.2738	0.6239	-0.044
Mof_O 	O 	0.8666	0.3233	0.4876	-0.061
Mof_O 	O 	0.114	0.3264	0.4924	-0.058
Mof_O 	O 	0.4894	0.2218	0.4852	-0.025
Mof_O 	O 	0.405	0.5054	0.4517	-0.196
Mof_O 	O 	0.545	0.4915	0.592	-0.173
Mof_C 	C 	0.6111	0.297	0.6868	-0.416
Mof_H 	H 	0.6625	0.2993	0.7311	0.201
Mof_H 	H 	0.5612	0.3494	0.6841	0.188
Mof_C 	C 	0.6907	0.2929	0.6224	0.414
Mof_C 	C 	0.871	0.1696	0.7944	-0.422
Mof_H 	H 	0.924	0.1194	0.803	0.189
Mof_H 	H 	0.8223	0.1594	0.7499	0.2
Mof_C 	C 	0.7878	0.1788	0.8557	0.422
_end
