data_functionalizedCrystal
_audit_creation_method	'EQeq! by Chris Wilmer'
_symmetry_space_group_name_H-M	'P1'
_symmetry_Int_Tables_number	1
_symmetry_cell_setting	triclinic
loop_
_symmetry_equiv_pos_as_xyz
  x,y,z
_cell_length_a	8.497
_cell_length_b	9.167
_cell_length_c	12.57
_cell_angle_alpha	90
_cell_angle_beta	90
_cell_angle_gamma	90
loop_
_atom_site_label
_atom_site_type_symbol
_atom_site_fract_x
_atom_site_fract_y
_atom_site_fract_z
_atom_site_charge
Mof_C 	C 	0.5185	0.4453	0.979	-0.074
Mof_C 	C 	0.9815	0.5547	0.479	-0.074
Mof_C 	C 	0.4815	0.9453	0.021	-0.074
Mof_C 	C 	0.0185	0.0547	0.521	-0.074
Mof_C 	C 	0.4815	0.5547	0.021	-0.074
Mof_C 	C 	0.0185	0.4453	0.521	-0.074
Mof_C 	C 	0.5185	0.0547	0.979	-0.074
Mof_C 	C 	0.9815	0.9453	0.479	-0.074
Mof_Cd	Cd	0.5936	0.25	0.8956	0.285
Mof_C 	C 	0.3866	0.25	0.7785	-0.056
Mof_C 	C 	0.7864	0.25	0.782	-0.081
Mof_Cd	Cd	0.9064	0.75	0.3956	0.285
Mof_C 	C 	0.1134	0.75	0.2785	-0.056
Mof_C 	C 	0.7136	0.75	0.282	-0.081
Mof_Cd	Cd	0.4064	0.75	0.1044	0.285
Mof_C 	C 	0.6134	0.75	0.2215	-0.056
Mof_C 	C 	0.2136	0.75	0.218	-0.081
Mof_Cd	Cd	0.0936	0.25	0.6044	0.285
Mof_C 	C 	0.8866	0.25	0.7215	-0.056
Mof_C 	C 	0.2864	0.25	0.718	-0.081
_end
