# CIF file generated by openbabel 3.1.0, see https://openbabel.org
data_I
_chemical_name_common 'VASKOR_clean'
_cell_length_a 7.3013
_cell_length_b 9.1802
_cell_length_c 19.344
_cell_angle_alpha 90
_cell_angle_beta 90
_cell_angle_gamma 90
_space_group_name_H-M_alt 'P 1'
_space_group_name_Hall 'P 1'
loop_
    _symmetry_equiv_pos_as_xyz
    x,y,z
loop_
    _atom_site_label
    _atom_site_type_symbol
    _atom_site_fract_x
    _atom_site_fract_y
    _atom_site_fract_z
    _atom_site_occupancy
    Sc1      Sc       0.64610    0.50440    0.49950    1.000
    Sc2      Sc       0.14610    0.49560    0.50050    1.000
    Sc3      Sc       0.64610    0.99560    0.99950    1.000
    Sc4      Sc       0.14610    0.00440    0.00050    1.000
    H1       H        0.12790    0.23900    0.68790    1.000
    H2       H        0.13190    0.16970    0.80280    1.000
    H3       H        0.66460    0.27530    0.82100    1.000
    H4       H        0.66320    0.35900    0.70500    1.000
    H5       H        0.34600    0.66200    0.53100    1.000
    H6       H        0.62790    0.76100    0.31210    1.000
    H7       H        0.63190    0.83030    0.19720    1.000
    H8       H        0.16460    0.72470    0.17900    1.000
    H9       H        0.16320    0.64100    0.29500    1.000
    H10      H        0.84600    0.33800    0.46900    1.000
    H11      H        0.12790    0.26100    0.18790    1.000
    H12      H        0.13190    0.33030    0.30280    1.000
    H13      H        0.66460    0.22470    0.32100    1.000
    H14      H        0.66320    0.14100    0.20500    1.000
    H15      H        0.34600    0.83800    0.03100    1.000
    H16      H        0.62790    0.73900    0.81210    1.000
    H17      H        0.63190    0.66970    0.69720    1.000
    H18      H        0.16460    0.77530    0.67900    1.000
    H19      H        0.16320    0.85900    0.79500    1.000
    H20      H        0.84600    0.16200    0.96900    1.000
    C1       C        0.40140    0.36010    0.61230    1.000
    C2       C        0.39590    0.30950    0.68720    1.000
    C3       C        0.23550    0.24970    0.71500    1.000
    C4       C        0.24040    0.20760    0.78240    1.000
    C5       C        0.40240    0.21810    0.82410    1.000
    C6       C        0.55480    0.27070    0.79480    1.000
    C7       C        0.55520    0.31980    0.72510    1.000
    C8       C        0.40410    0.17050    0.89690    1.000
    C9       C        0.90140    0.63990    0.38770    1.000
    C10      C        0.89590    0.69050    0.31280    1.000
    C11      C        0.73550    0.75030    0.28500    1.000
    C12      C        0.74040    0.79240    0.21760    1.000
    C13      C        0.90240    0.78190    0.17590    1.000
    C14      C        0.05480    0.72930    0.20520    1.000
    C15      C        0.05520    0.68020    0.27490    1.000
    C16      C        0.90410    0.82950    0.10310    1.000
    C17      C        0.40140    0.13990    0.11230    1.000
    C18      C        0.39590    0.19050    0.18720    1.000
    C19      C        0.23550    0.25030    0.21500    1.000
    C20      C        0.24040    0.29240    0.28240    1.000
    C21      C        0.40240    0.28190    0.32410    1.000
    C22      C        0.55480    0.22930    0.29480    1.000
    C23      C        0.55520    0.18020    0.22510    1.000
    C24      C        0.40410    0.32950    0.39690    1.000
    C25      C        0.90140    0.86010    0.88770    1.000
    C26      C        0.89590    0.80950    0.81280    1.000
    C27      C        0.73550    0.74970    0.78500    1.000
    C28      C        0.74040    0.70760    0.71760    1.000
    C29      C        0.90240    0.71810    0.67590    1.000
    C30      C        0.05480    0.77070    0.70520    1.000
    C31      C        0.05520    0.81980    0.77490    1.000
    C32      C        0.90410    0.67050    0.60310    1.000
    O1       O        0.55140    0.38700    0.58550    1.000
    O2       O        0.24700    0.37230    0.58250    1.000
    O3       O        0.24680    0.15490    0.92660    1.000
    O4       O        0.55030    0.15030    0.92600    1.000
    O5       O        0.39010    0.60670    0.49160    1.000
    O6       O        0.05140    0.61300    0.41450    1.000
    O7       O        0.74700    0.62770    0.41750    1.000
    O8       O        0.74680    0.84510    0.07340    1.000
    O9       O        0.05030    0.84970    0.07400    1.000
    O10      O        0.89010    0.39330    0.50840    1.000
    O11      O        0.55140    0.11300    0.08550    1.000
    O12      O        0.24700    0.12770    0.08250    1.000
    O13      O        0.24680    0.34510    0.42660    1.000
    O14      O        0.55030    0.34970    0.42600    1.000
    O15      O        0.39010    0.89330    0.99160    1.000
    O16      O        0.05140    0.88700    0.91450    1.000
    O17      O        0.74700    0.87230    0.91750    1.000
    O18      O        0.74680    0.65490    0.57340    1.000
    O19      O        0.05030    0.65030    0.57400    1.000
    O20      O        0.89010    0.10670    0.00840    1.000
