data_functionalizedCrystal
_audit_creation_method	'EQeq! by Chris Wilmer'
_symmetry_space_group_name_H-M	'P1'
_symmetry_Int_Tables_number	1
_symmetry_cell_setting	triclinic
loop_
_symmetry_equiv_pos_as_xyz
  x,y,z
_cell_length_a	12.7732
_cell_length_b	12.7732
_cell_length_c	11.645
_cell_angle_alpha	90
_cell_angle_beta	90
_cell_angle_gamma	90
loop_
_atom_site_label
_atom_site_type_symbol
_atom_site_fract_x
_atom_site_fract_y
_atom_site_fract_z
_atom_site_charge
Mof_O 	O 	0.38658	0.5488	0.36202	-0.275
Mof_O 	O 	0.488	0.6884	0.3755	-0.253
Mof_C 	C 	0.4211	0.6338	0.3259	0.29
Mof_C 	C 	0.3758	0.6746	0.2133	-0.01
Mof_C 	C 	0.2837	0.6343	0.1693	-0.074
Mof_H 	H 	0.2501	0.5789	0.2058	0.065
Mof_C 	C 	0.2422	0.6774	0.0707	0.043
Mof_H 	H 	0.1797	0.6515	0.0413	0.015
Mof_N 	N 	0.29119	0.7566	0.01659	-0.121
Mof_C 	C 	0.3828	0.7936	0.0554	0.047
Mof_H 	H 	0.4174	0.846	0.015	0.018
Mof_C 	C 	0.426	0.7541	0.1551	-0.076
Mof_H 	H 	0.4887	0.7811	0.1829	0.069
Mof_C 	C 	0.2469	0.8014	0.90887	-0.052
Mof_H 	H 	0.2619	0.8758	0.9055	0.076
Mof_H 	H 	0.1715	0.7925	0.9086	0.077
Mof_C 	C 	0.2935	0.7476	0.8049	-0.11
Mof_H 	H 	0.2786	0.6732	0.8083	0.075
Mof_H 	H 	0.3689	0.7567	0.805	0.074
Mof_O 	O 	0.61342	0.4512	0.36202	-0.275
Mof_O 	O 	0.512	0.3116	0.3755	-0.257
Mof_C 	C 	0.5789	0.3662	0.3259	0.289
Mof_C 	C 	0.6242	0.3254	0.2133	-0.012
Mof_C 	C 	0.7163	0.3657	0.1693	-0.074
Mof_H 	H 	0.7499	0.4211	0.2058	0.067
Mof_C 	C 	0.7578	0.3226	0.0707	0.042
Mof_H 	H 	0.8203	0.3485	0.0413	0.022
Mof_N 	N 	0.70881	0.2434	0.01659	-0.121
Mof_C 	C 	0.6172	0.2064	0.0554	0.046
Mof_H 	H 	0.5826	0.154	0.015	0.01
Mof_C 	C 	0.574	0.2459	0.1551	-0.077
Mof_H 	H 	0.5113	0.2189	0.1829	0.064
Mof_C 	C 	0.7531	0.1986	0.90887	-0.052
Mof_H 	H 	0.7381	0.1242	0.9055	0.068
Mof_H 	H 	0.8285	0.2075	0.9086	0.084
Mof_C 	C 	0.7065	0.2524	0.8049	-0.109
Mof_H 	H 	0.7214	0.3268	0.8083	0.077
Mof_H 	H 	0.6311	0.2433	0.805	0.071
Mof_O 	O 	0.5488	0.61342	0.63798	-0.274
Mof_O 	O 	0.6884	0.512	0.6245	-0.255
Mof_C 	C 	0.6338	0.5789	0.6741	0.291
Mof_C 	C 	0.6746	0.6242	0.7867	-0.014
Mof_C 	C 	0.6343	0.7163	0.8307	-0.066
Mof_H 	H 	0.5789	0.7499	0.7942	0.067
Mof_C 	C 	0.6774	0.7578	0.9293	0.04
Mof_H 	H 	0.6515	0.8203	0.9587	0.036
Mof_N 	N 	0.7566	0.70881	0.98341	-0.097
Mof_C 	C 	0.7936	0.6172	0.9446	0.045
Mof_H 	H 	0.846	0.5826	0.985	0.032
Mof_C 	C 	0.7541	0.574	0.8449	-0.068
Mof_H 	H 	0.7811	0.5113	0.8171	0.069
Mof_C 	C 	0.8014	0.7531	0.09113	-0.11
Mof_H 	H 	0.8758	0.7381	0.0945	0.085
Mof_H 	H 	0.7925	0.8285	0.0914	0.095
Mof_C 	C 	0.7476	0.7065	0.1951	-0.066
Mof_H 	H 	0.6732	0.7214	0.1917	0.059
Mof_H 	H 	0.7567	0.6311	0.195	0.055
Mof_O 	O 	0.4512	0.38658	0.63798	-0.275
Mof_O 	O 	0.3116	0.488	0.6245	-0.257
Mof_C 	C 	0.3662	0.4211	0.6741	0.291
Mof_C 	C 	0.3254	0.3758	0.7867	-0.013
Mof_C 	C 	0.3657	0.2837	0.8307	-0.068
Mof_H 	H 	0.4211	0.2501	0.7942	0.065
Mof_C 	C 	0.3226	0.2422	0.9293	0.043
Mof_H 	H 	0.3485	0.1797	0.9587	0.029
Mof_N 	N 	0.2434	0.29119	0.98341	-0.101
Mof_C 	C 	0.2064	0.3828	0.9446	0.047
Mof_H 	H 	0.154	0.4174	0.985	0.025
Mof_C 	C 	0.2459	0.426	0.8449	-0.07
Mof_H 	H 	0.2189	0.4887	0.8171	0.066
Mof_C 	C 	0.1986	0.2469	0.09113	-0.087
Mof_H 	H 	0.1242	0.2619	0.0945	0.066
Mof_H 	H 	0.2075	0.1715	0.0914	0.074
Mof_C 	C 	0.2524	0.2935	0.1951	-0.098
Mof_H 	H 	0.3268	0.2786	0.1917	0.066
Mof_H 	H 	0.2433	0.3689	0.195	0.062
Mof_O 	O 	0.88658	0.9512	0.86202	-0.242
Mof_O 	O 	0.988	0.8116	0.8755	-0.231
Mof_C 	C 	0.9211	0.8662	0.8259	0.284
Mof_C 	C 	0.8758	0.8254	0.7133	-0
Mof_C 	C 	0.7837	0.8657	0.6693	-0.076
Mof_H 	H 	0.7501	0.9211	0.7058	0.074
Mof_C 	C 	0.7422	0.8226	0.5707	0.049
Mof_H 	H 	0.6797	0.8485	0.5413	0.027
Mof_N 	N 	0.79119	0.7434	0.51659	-0.113
Mof_C 	C 	0.8828	0.7064	0.5554	0.054
Mof_H 	H 	0.9174	0.654	0.515	0.024
Mof_C 	C 	0.926	0.7459	0.6551	-0.077
Mof_H 	H 	0.9887	0.7189	0.6829	0.077
Mof_C 	C 	0.7469	0.6986	0.40887	-0.059
Mof_H 	H 	0.7619	0.6242	0.4055	0.069
Mof_H 	H 	0.6715	0.7075	0.4086	0.077
Mof_C 	C 	0.7935	0.7524	0.3049	-0.123
Mof_H 	H 	0.7786	0.8268	0.3083	0.084
Mof_H 	H 	0.8689	0.7433	0.305	0.08
Mof_O 	O 	0.11342	0.0488	0.86202	-0.278
Mof_O 	O 	0.012	0.1884	0.8755	-0.259
Mof_C 	C 	0.0789	0.1338	0.8259	0.29
Mof_C 	C 	0.1242	0.1746	0.7133	-0.02
Mof_C 	C 	0.2163	0.1343	0.6693	-0.07
Mof_H 	H 	0.2499	0.0789	0.7058	0.059
Mof_C 	C 	0.2578	0.1774	0.5707	0.037
Mof_H 	H 	0.3203	0.1515	0.5413	0.023
Mof_N 	N 	0.20881	0.2566	0.51659	-0.11
Mof_C 	C 	0.1172	0.2936	0.5554	0.041
Mof_H 	H 	0.0826	0.346	0.515	0.017
Mof_C 	C 	0.074	0.2541	0.6551	-0.072
Mof_H 	H 	0.0113	0.2811	0.6829	0.059
Mof_C 	C 	0.2531	0.3014	0.40887	-0.08
Mof_H 	H 	0.2381	0.3758	0.4055	0.073
Mof_H 	H 	0.3285	0.2925	0.4086	0.081
Mof_C 	C 	0.2065	0.2476	0.3049	-0.09
Mof_H 	H 	0.2214	0.1732	0.3083	0.06
Mof_H 	H 	0.1311	0.2567	0.305	0.057
Mof_O 	O 	0.0488	0.88658	0.13798	-0.276
Mof_O 	O 	0.1884	0.988	0.1245	-0.247
Mof_C 	C 	0.1338	0.9211	0.1741	0.29
Mof_C 	C 	0.1746	0.8758	0.2867	-0.013
Mof_C 	C 	0.1343	0.7837	0.3307	-0.07
Mof_H 	H 	0.0789	0.7501	0.2942	0.059
Mof_C 	C 	0.1774	0.7422	0.4293	0.04
Mof_H 	H 	0.1515	0.6797	0.4587	0.022
Mof_N 	N 	0.2566	0.79119	0.48341	-0.109
Mof_C 	C 	0.2936	0.8828	0.4446	0.047
Mof_H 	H 	0.346	0.9174	0.485	0.026
Mof_C 	C 	0.2541	0.926	0.3449	-0.071
Mof_H 	H 	0.2811	0.9887	0.3171	0.074
Mof_C 	C 	0.3014	0.7469	0.59113	-0.078
Mof_H 	H 	0.3758	0.7619	0.5945	0.075
Mof_H 	H 	0.2925	0.6715	0.5914	0.081
Mof_C 	C 	0.2476	0.7935	0.6951	-0.089
Mof_H 	H 	0.1732	0.7786	0.6917	0.064
Mof_H 	H 	0.2567	0.8689	0.695	0.068
Mof_O 	O 	0.9512	0.11342	0.13798	-0.264
Mof_O 	O 	0.8116	0.012	0.1245	-0.266
Mof_C 	C 	0.8662	0.0789	0.1741	0.29
Mof_C 	C 	0.8254	0.1242	0.2867	-0.014
Mof_C 	C 	0.8657	0.2163	0.3307	-0.07
Mof_H 	H 	0.9211	0.2499	0.2942	0.07
Mof_C 	C 	0.8226	0.2578	0.4293	0.043
Mof_H 	H 	0.8485	0.3203	0.4587	0.029
Mof_N 	N 	0.7434	0.20881	0.48341	-0.11
Mof_C 	C 	0.7064	0.1172	0.4446	0.044
Mof_H 	H 	0.654	0.0826	0.485	0.017
Mof_C 	C 	0.7459	0.074	0.3449	-0.072
Mof_H 	H 	0.7189	0.0113	0.3171	0.059
Mof_C 	C 	0.6986	0.2531	0.59113	-0.077
Mof_H 	H 	0.6242	0.2381	0.5945	0.072
Mof_H 	H 	0.7075	0.3285	0.5914	0.083
Mof_C 	C 	0.7524	0.2065	0.6951	-0.09
Mof_H 	H 	0.8268	0.2214	0.6917	0.071
Mof_H 	H 	0.7433	0.1311	0.695	0.061
Mof_Cd	Cd	0.5	0.5	0.5	0.487
Mof_Cd	Cd	-0	0	-0	0.418
_end
