# CIF file generated by openbabel 3.1.0, see https://openbabel.org
data_I
_chemical_name_common 'image0'
_cell_length_a 16.611
_cell_length_b 16.723
_cell_length_c 19.288
_cell_angle_alpha 78.537
_cell_angle_beta 65.243
_cell_angle_gamma 62.351
_space_group_name_H-M_alt 'P 1'
_space_group_name_Hall 'P 1'
loop_
    _symmetry_equiv_pos_as_xyz
    x,y,z
loop_
    _atom_site_label
    _atom_site_type_symbol
    _atom_site_fract_x
    _atom_site_fract_y
    _atom_site_fract_z
    _atom_site_occupancy
    Cd1      Cd       0.12298    0.71219    0.44014    1.000
    Cd2      Cd       0.20507    0.84098    0.25575    1.000
    Cd3      Cd       0.28922    0.95560    0.06328    1.000
    O1       O        0.14110    0.81980    0.48860    1.000
    O2       O        0.22480    0.78190    0.37000    1.000
    O3       O        0.04310    0.88860    0.32010    1.000
    O4       O        0.02820    0.76200    0.37170    1.000
    O5       O        0.36660    0.79490    0.19900    1.000
    O6       O        0.39710    0.90220    0.11860    1.000
    O7       O        0.18160    0.89210    0.14250    1.000
    O8       O        0.26170    0.85180    0.02220    1.000
    O9       O        0.21730    0.08570    0.13250    1.000
    O10      O        0.18310    0.09430    0.03180    1.000
    N1       N        0.97990    0.74920    0.54560    1.000
    N2       N        0.72570    0.81680    0.74430    1.000
    N3       N        0.65480    0.88710    0.73940    1.000
    N4       N        0.41420    0.94360    0.94660    1.000
    C1       C        0.95670    0.68760    0.59160    1.000
    H1       H        0.99840    0.62610    0.57760    1.000
    C2       C        0.87510    0.70620    0.65950    1.000
    H2       H        0.86280    0.65980    0.69320    1.000
    C3       C        0.81160    0.79900    0.67490    1.000
    C4       C        0.83510    0.86130    0.62550    1.000
    H3       H        0.79190    0.92360    0.63450    1.000
    C5       C        0.91870    0.83620    0.56420    1.000
    H4       H        0.93550    0.88170    0.53230    1.000
    C6       C        0.57410    0.90590    0.81190    1.000
    C7       C        0.58560    0.89960    0.87780    1.000
    H5       H        0.64830    0.88410    0.87790    1.000
    C8       C        0.50460    0.91600    0.94620    1.000
    H6       H        0.51320    0.90760    0.99320    1.000
    C9       C        0.40470    0.95560    0.88030    1.000
    H7       H        0.34070    0.97750    0.88030    1.000
    C10      C        0.48190    0.93820    0.81150    1.000
    H8       H        0.47190    0.94810    0.76490    1.000
    C11      C        0.20880    0.81990    0.42720    1.000
    C12      C        0.26940    0.86610    0.42160    1.000
    C13      C        0.24010    0.92610    0.47690    1.000
    H9       H        0.18050    0.93730    0.51980    1.000
    C14      C        0.29580    0.97020    0.47130    1.000
    H10      H        0.27390    0.01200    0.50930    1.000
    C15      C        0.38250    0.95280    0.41030    1.000
    C16      C        0.41420    0.89210    0.35510    1.000
    H11      H        0.47570    0.87840    0.31380    1.000
    C17      C        0.35560    0.85100    0.36020    1.000
    H12      H        0.37560    0.81200    0.32070    1.000
    C18      C        0.43870    0.00450    0.40270    1.000
    C19      C        0.39260    0.09610    0.40920    1.000
    H13      H        0.32460    0.12620    0.41850    1.000
    C20      C        0.44210    0.14670    0.40270    1.000
    C21      C        0.54020    0.10300    0.38920    1.000
    H14      H        0.57370    0.13690    0.38750    1.000
    C22      C        0.59280    0.00900    0.37790    1.000
    C23      C        0.54010    0.96150    0.38530    1.000
    H15      H        0.57350    0.89790    0.37850    1.000
    C24      C        0.38700    0.24820    0.40860    1.000
    C25      C        0.40020    0.29600    0.45080    1.000
    H16      H        0.44560    0.26460    0.47530    1.000
    C26      C        0.34890    0.38750    0.45750    1.000
    H17      H        0.35780    0.41970    0.48710    1.000
    C27      C        0.28290    0.43340    0.42030    1.000
    C28      C        0.27050    0.38890    0.37580    1.000
    H18      H        0.22550    0.42010    0.35090    1.000
    C29      C        0.32630    0.29660    0.36870    1.000
    H19      H        0.32280    0.26520    0.33490    1.000
    C30      C        0.22930    0.53470    0.42450    1.000
    O11      O        0.14300    0.56940    0.43050    1.000
    O12      O        0.24550    0.57620    0.46030    1.000
    C31      C        0.69700    0.96400    0.36570    1.000
    C32      C        0.75780    0.00940    0.32870    1.000
    H20      H        0.73230    0.06790    0.30770    1.000
    C33      C        0.85300    0.96940    0.32310    1.000
    H21      H        0.89300    0.00100    0.29950    1.000
    C34      C        0.89150    0.88370    0.35130    1.000
    C35      C        0.83410    0.83800    0.38610    1.000
    H22      H        0.86020    0.77920    0.40640    1.000
    C36      C        0.73960    0.87730    0.39120    1.000
    H23      H        0.70140    0.84390    0.41310    1.000
    C37      C        0.99720    0.84050    0.34680    1.000
    C38      C        0.42020    0.83300    0.15670    1.000
    C39      C        0.55820    0.70820    0.19150    1.000
    H24      H        0.51630    0.67930    0.21940    1.000
    C40      C        0.65390    0.66690    0.18640    1.000
    H25      H        0.67690    0.61060    0.21120    1.000
    C41      C        0.71570    0.70620    0.14600    1.000
    C42      C        0.68200    0.79020    0.11250    1.000
    H26      H        0.72390    0.81970    0.08710    1.000
    C43      C        0.58530    0.83060    0.11700    1.000
    H27      H        0.56240    0.88700    0.09210    1.000
    C44      C        0.52160    0.79030    0.15710    1.000
    C45      C        0.82190    0.65710    0.13440    1.000
    C46      C        0.87390    0.70270    0.13350    1.000
    H28      H        0.84140    0.76600    0.14220    1.000
    C47      C        0.97200    0.65690    0.12030    1.000
    C48      C        0.01960    0.56490    0.11220    1.000
    H29      H        0.08780    0.53490    0.10240    1.000
    C49      C        0.96910    0.51410    0.11820    1.000
    C50      C        0.86910    0.56280    0.12820    1.000
    H30      H        0.83320    0.53100    0.13080    1.000
    C51      C        0.01820    0.41640    0.11210    1.000
    C52      C        0.08270    0.36780    0.14640    1.000
    H31      H        0.09570    0.39760    0.17480    1.000
    C53      C        0.12950    0.27590    0.14040    1.000
    H32      H        0.17240    0.24270    0.16690    1.000
    C54      C        0.11630    0.22930    0.09660    1.000
    C55      C        0.05110    0.27950    0.06060    1.000
    H33      H        0.04210    0.25060    0.02850    1.000
    C56      C        0.99950    0.37090    0.07130    1.000
    H34      H        0.95020    0.40400    0.05060    1.000
    C57      C        0.17600    0.13140    0.08690    1.000
    C58      C        0.03160    0.70720    0.11340    1.000
    C59      C        0.99410    0.77770    0.16320    1.000
    H35      H        0.93060    0.79530    0.20230    1.000
    C60      C        0.04970    0.82040    0.15470    1.000
    H36      H        0.02480    0.86680    0.18960    1.000
    C61      C        0.14180    0.79920    0.09700    1.000
    C62      C        0.17660    0.73190    0.04530    1.000
    H37      H        0.23770    0.71830    0.00370    1.000
    C63      C        0.12250    0.68460    0.05430    1.000
    H38      H        0.14770    0.63720    0.02030    1.000
    C64      C        0.20040    0.84820    0.08600    1.000
    C65      C        0.42540    0.30510    0.35520    1.000
    H39      H        0.48400    0.28000    0.31180    1.000
    C66      C        0.37820    0.39600    0.36610    1.000
    H40      H        0.40980    0.43350    0.33710    1.000
    C67      C        0.23290    0.38220    0.45130    1.000
    H41      H        0.16370    0.40880    0.47720    1.000
    C68      C        0.28590    0.29010    0.44420    1.000
    H42      H        0.25140    0.25330    0.46480    1.000
    O13      O        0.23730    0.58420    0.36770    1.000
    O14      O        0.18870    0.57130    0.48760    1.000
    Cd4      Cd       0.87702    0.28781    0.55986    1.000
    Cd5      Cd       0.79493    0.15902    0.74425    1.000
    Cd6      Cd       0.71078    0.04440    0.93672    1.000
    O15      O        0.85890    0.18020    0.51140    1.000
    O16      O        0.77520    0.21810    0.63000    1.000
    O17      O        0.95690    0.11140    0.67990    1.000
    O18      O        0.97180    0.23800    0.62830    1.000
    O19      O        0.63340    0.20510    0.80100    1.000
    O20      O        0.60290    0.09780    0.88140    1.000
    O21      O        0.81840    0.10790    0.85750    1.000
    O22      O        0.73830    0.14820    0.97780    1.000
    O23      O        0.78270    0.91430    0.86750    1.000
    O24      O        0.81690    0.90570    0.96820    1.000
    N5       N        0.02010    0.25080    0.45440    1.000
    N6       N        0.27430    0.18320    0.25570    1.000
    N7       N        0.34520    0.11290    0.26060    1.000
    N8       N        0.58580    0.05640    0.05340    1.000
    C69      C        0.04330    0.31240    0.40840    1.000
    H43      H        0.00160    0.37390    0.42240    1.000
    C70      C        0.12490    0.29380    0.34050    1.000
    H44      H        0.13720    0.34020    0.30680    1.000
    C71      C        0.18840    0.20100    0.32510    1.000
    C72      C        0.16490    0.13870    0.37450    1.000
    H45      H        0.20810    0.07640    0.36550    1.000
    C73      C        0.08130    0.16380    0.43580    1.000
    H46      H        0.06450    0.11830    0.46770    1.000
    C74      C        0.42590    0.09410    0.18810    1.000
    C75      C        0.41440    0.10040    0.12220    1.000
    H47      H        0.35170    0.11590    0.12210    1.000
    C76      C        0.49540    0.08400    0.05380    1.000
    H48      H        0.48680    0.09240    0.00680    1.000
    C77      C        0.59530    0.04440    0.11970    1.000
    H49      H        0.65930    0.02250    0.11970    1.000
    C78      C        0.51810    0.06180    0.18850    1.000
    H50      H        0.52810    0.05190    0.23510    1.000
    C79      C        0.79120    0.18010    0.57280    1.000
    C80      C        0.73060    0.13390    0.57840    1.000
    C81      C        0.75990    0.07390    0.52310    1.000
    H51      H        0.81950    0.06270    0.48020    1.000
    C82      C        0.70420    0.02980    0.52870    1.000
    H52      H        0.72610    0.98800    0.49070    1.000
    C83      C        0.61750    0.04720    0.58970    1.000
    C84      C        0.58580    0.10790    0.64490    1.000
    H53      H        0.52430    0.12160    0.68620    1.000
    C85      C        0.64440    0.14900    0.63980    1.000
    H54      H        0.62440    0.18800    0.67930    1.000
    C86      C        0.56130    0.99550    0.59730    1.000
    C87      C        0.60740    0.90390    0.59080    1.000
    H55      H        0.67540    0.87380    0.58150    1.000
    C88      C        0.55790    0.85330    0.59730    1.000
    C89      C        0.45980    0.89700    0.61080    1.000
    H56      H        0.42630    0.86310    0.61250    1.000
    C90      C        0.40720    0.99100    0.62210    1.000
    C91      C        0.45990    0.03850    0.61470    1.000
    H57      H        0.42650    0.10210    0.62150    1.000
    C92      C        0.61300    0.75180    0.59140    1.000
    C93      C        0.59980    0.70400    0.54920    1.000
    H58      H        0.55440    0.73540    0.52470    1.000
    C94      C        0.65110    0.61250    0.54250    1.000
    H59      H        0.64220    0.58030    0.51290    1.000
    C95      C        0.71710    0.56660    0.57970    1.000
    C96      C        0.72950    0.61110    0.62420    1.000
    H60      H        0.77450    0.57990    0.64910    1.000
    C97      C        0.67370    0.70340    0.63130    1.000
    H61      H        0.67720    0.73480    0.66510    1.000
    C98      C        0.77070    0.46530    0.57550    1.000
    O25      O        0.85700    0.43060    0.56950    1.000
    O26      O        0.75450    0.42380    0.53970    1.000
    C99      C        0.30300    0.03600    0.63430    1.000
    C100     C        0.24220    0.99060    0.67130    1.000
    H62      H        0.26770    0.93210    0.69230    1.000
    C101     C        0.14700    0.03060    0.67690    1.000
    H63      H        0.10700    0.99900    0.70050    1.000
    C102     C        0.10850    0.11630    0.64870    1.000
    C103     C        0.16590    0.16200    0.61390    1.000
    H64      H        0.13980    0.22080    0.59360    1.000
    C104     C        0.26040    0.12270    0.60880    1.000
    H65      H        0.29860    0.15610    0.58690    1.000
    C105     C        0.00280    0.15950    0.65320    1.000
    C106     C        0.57980    0.16700    0.84330    1.000
    C107     C        0.44180    0.29180    0.80850    1.000
    H66      H        0.48370    0.32070    0.78060    1.000
    C108     C        0.34610    0.33310    0.81360    1.000
    H67      H        0.32310    0.38940    0.78880    1.000
    C109     C        0.28430    0.29380    0.85400    1.000
    C110     C        0.31800    0.20980    0.88750    1.000
    H68      H        0.27610    0.18030    0.91290    1.000
    C111     C        0.41470    0.16940    0.88300    1.000
    H69      H        0.43760    0.11300    0.90790    1.000
    C112     C        0.47840    0.20970    0.84290    1.000
    C113     C        0.17810    0.34290    0.86560    1.000
    C114     C        0.12610    0.29730    0.86650    1.000
    H70      H        0.15860    0.23400    0.85780    1.000
    C115     C        0.02800    0.34310    0.87970    1.000
    C116     C        0.98040    0.43510    0.88780    1.000
    H71      H        0.91220    0.46510    0.89760    1.000
    C117     C        0.03090    0.48590    0.88180    1.000
    C118     C        0.13090    0.43720    0.87180    1.000
    H72      H        0.16680    0.46900    0.86920    1.000
    C119     C        0.98180    0.58360    0.88790    1.000
    C120     C        0.91730    0.63220    0.85360    1.000
    H73      H        0.90430    0.60240    0.82520    1.000
    C121     C        0.87050    0.72410    0.85960    1.000
    H74      H        0.82760    0.75730    0.83310    1.000
    C122     C        0.88370    0.77070    0.90340    1.000
    C123     C        0.94890    0.72050    0.93940    1.000
    H75      H        0.95790    0.74940    0.97150    1.000
    C124     C        0.00050    0.62910    0.92870    1.000
    H76      H        0.04980    0.59600    0.94940    1.000
    C125     C        0.82400    0.86860    0.91310    1.000
    C126     C        0.96840    0.29280    0.88660    1.000
    C127     C        0.00590    0.22230    0.83680    1.000
    H77      H        0.06940    0.20470    0.79770    1.000
    C128     C        0.95030    0.17960    0.84530    1.000
    H78      H        0.97520    0.13320    0.81040    1.000
    C129     C        0.85820    0.20080    0.90300    1.000
    C130     C        0.82340    0.26810    0.95470    1.000
    H79      H        0.76230    0.28170    0.99630    1.000
    C131     C        0.87750    0.31540    0.94570    1.000
    H80      H        0.85230    0.36280    0.97970    1.000
    C132     C        0.79960    0.15180    0.91400    1.000
    C133     C        0.57460    0.69490    0.64480    1.000
    H81      H        0.51600    0.72000    0.68820    1.000
    C134     C        0.62180    0.60400    0.63390    1.000
    H82      H        0.59020    0.56650    0.66290    1.000
    C135     C        0.76710    0.61780    0.54870    1.000
    H83      H        0.83630    0.59120    0.52280    1.000
    C136     C        0.71410    0.70990    0.55580    1.000
    H84      H        0.74860    0.74670    0.53520    1.000
    O27      O        0.76270    0.41580    0.63230    1.000
    O28      O        0.81130    0.42870    0.51240    1.000
