data_functionalizedCrystal
_audit_creation_method	'EQeq! by Chris Wilmer'
_symmetry_space_group_name_H-M	'P1'
_symmetry_Int_Tables_number	1
_symmetry_cell_setting	triclinic
loop_
_symmetry_equiv_pos_as_xyz
  x,y,z
_cell_length_a	28.778
_cell_length_b	28.778
_cell_length_c	28.778
_cell_angle_alpha	90
_cell_angle_beta	90
_cell_angle_gamma	90
loop_
_atom_site_label
_atom_site_type_symbol
_atom_site_fract_x
_atom_site_fract_y
_atom_site_fract_z
_atom_site_charge
Mof_O 	O 	0.30026	0.50741	0.12343	-0.53
Mof_C 	C 	0.29665	0.4625	0.12748	0.721
Mof_O 	O 	0.25648	0.44325	0.12559	-0.555
Mof_O 	O 	0.33391	0.43927	0.13185	-1.055
Mof_O 	O 	0.30026	0.00741	0.62343	-0.573
Mof_C 	C 	0.29665	0.9625	0.62748	0.78
Mof_O 	O 	0.25648	0.94325	0.62559	-0.556
Mof_O 	O 	0.33391	0.93927	0.63185	-1.061
Mof_O 	O 	0.80026	0.50741	0.62343	-0.527
Mof_C 	C 	0.79665	0.4625	0.62748	0.725
Mof_O 	O 	0.75648	0.44325	0.62559	-0.553
Mof_O 	O 	0.83391	0.43927	0.63185	-1.061
Mof_O 	O 	0.80026	0.00741	0.12343	-0.577
Mof_C 	C 	0.79665	0.9625	0.12748	0.78
Mof_O 	O 	0.75648	0.94325	0.12559	-0.559
Mof_O 	O 	0.83391	0.93927	0.13185	-1.063
Mof_O 	O 	0.94974	0.24259	0.62343	-0.516
Mof_C 	C 	0.95335	0.2875	0.62748	0.722
Mof_O 	O 	0.99352	0.30675	0.62559	-0.525
Mof_O 	O 	0.91609	0.31073	0.63185	-1.055
Mof_O 	O 	0.94974	0.74259	0.12343	-0.52
Mof_C 	C 	0.95335	0.7875	0.12748	0.722
Mof_O 	O 	0.99352	0.80675	0.12559	-0.528
Mof_O 	O 	0.91609	0.81073	0.13185	-1.057
Mof_O 	O 	0.44974	0.24259	0.12343	-0.53
Mof_C 	C 	0.45335	0.2875	0.12748	0.721
Mof_O 	O 	0.49352	0.30675	0.12559	-0.555
Mof_O 	O 	0.41609	0.31073	0.13185	-1.055
Mof_O 	O 	0.44974	0.74259	0.62343	-0.526
Mof_C 	C 	0.45335	0.7875	0.62748	0.725
Mof_O 	O 	0.49352	0.80675	0.62559	-0.554
Mof_O 	O 	0.41609	0.81073	0.63185	-1.061
Mof_O 	O 	0.44974	0.00741	0.12657	-0.576
Mof_C 	C 	0.45335	0.9625	0.12252	0.778
Mof_O 	O 	0.49352	0.94325	0.12441	-0.558
Mof_O 	O 	0.41609	0.93927	0.11815	-1.06
Mof_O 	O 	0.44974	0.50741	0.62657	-0.526
Mof_C 	C 	0.45335	0.4625	0.62252	0.723
Mof_O 	O 	0.49352	0.44325	0.62441	-0.553
Mof_O 	O 	0.41609	0.43927	0.61815	-1.058
Mof_O 	O 	0.94974	0.00741	0.62657	-0.563
Mof_C 	C 	0.95335	0.9625	0.62252	0.778
Mof_O 	O 	0.99352	0.94325	0.62441	-0.529
Mof_O 	O 	0.91609	0.93927	0.61815	-1.061
Mof_O 	O 	0.94974	0.50741	0.12657	-0.52
Mof_C 	C 	0.95335	0.4625	0.12252	0.719
Mof_O 	O 	0.99352	0.44325	0.12441	-0.527
Mof_O 	O 	0.91609	0.43927	0.11815	-1.056
Mof_O 	O 	0.80026	0.74259	0.62657	-0.528
Mof_C 	C 	0.79665	0.7875	0.62252	0.726
Mof_O 	O 	0.75648	0.80675	0.62441	-0.555
Mof_O 	O 	0.83391	0.81073	0.61815	-1.066
Mof_O 	O 	0.80026	0.24259	0.12657	-0.531
Mof_C 	C 	0.79665	0.2875	0.12252	0.722
Mof_O 	O 	0.75648	0.30675	0.12441	-0.557
Mof_O 	O 	0.83391	0.31073	0.11815	-1.061
Mof_O 	O 	0.30026	0.74259	0.12657	-0.531
Mof_C 	C 	0.29665	0.7875	0.12252	0.722
Mof_O 	O 	0.25648	0.80675	0.12441	-0.557
Mof_O 	O 	0.33391	0.81073	0.11815	-1.061
Mof_O 	O 	0.30026	0.24259	0.62657	-0.528
Mof_C 	C 	0.29665	0.2875	0.62252	0.723
Mof_O 	O 	0.25648	0.30675	0.62441	-0.554
Mof_O 	O 	0.33391	0.31073	0.61815	-1.058
Mof_O 	O 	0.12343	0.30026	0.50741	-0.531
Mof_C 	C 	0.12748	0.29665	0.4625	0.72
Mof_O 	O 	0.12559	0.25648	0.44325	-0.556
Mof_O 	O 	0.13185	0.33391	0.43927	-1.056
Mof_O 	O 	0.12343	0.80026	0.00741	-0.578
Mof_C 	C 	0.12748	0.79665	0.9625	0.779
Mof_O 	O 	0.12559	0.75648	0.94325	-0.56
Mof_O 	O 	0.13185	0.83391	0.93927	-1.064
Mof_O 	O 	0.62343	0.30026	0.00741	-0.574
Mof_C 	C 	0.62748	0.29665	0.9625	0.779
Mof_O 	O 	0.62559	0.25648	0.94325	-0.557
Mof_O 	O 	0.63185	0.33391	0.93927	-1.062
Mof_O 	O 	0.62343	0.80026	0.50741	-0.528
Mof_C 	C 	0.62748	0.79665	0.4625	0.724
Mof_O 	O 	0.62559	0.75648	0.44325	-0.554
Mof_O 	O 	0.63185	0.83391	0.43927	-1.062
Mof_O 	O 	0.62343	0.94974	0.24259	-0.517
Mof_C 	C 	0.62748	0.95335	0.2875	0.721
Mof_O 	O 	0.62559	0.99352	0.30675	-0.526
Mof_O 	O 	0.63185	0.91609	0.31073	-1.056
Mof_O 	O 	0.62343	0.44974	0.74259	-0.527
Mof_C 	C 	0.62748	0.45335	0.7875	0.724
Mof_O 	O 	0.62559	0.49352	0.80675	-0.555
Mof_O 	O 	0.63185	0.41609	0.81073	-1.062
Mof_O 	O 	0.12343	0.94974	0.74259	-0.521
Mof_C 	C 	0.12748	0.95335	0.7875	0.721
Mof_O 	O 	0.12559	0.99352	0.80675	-0.529
Mof_O 	O 	0.13185	0.91609	0.81073	-1.058
Mof_O 	O 	0.12343	0.44974	0.24259	-0.531
Mof_C 	C 	0.12748	0.45335	0.2875	0.72
Mof_O 	O 	0.12559	0.49352	0.30675	-0.556
Mof_O 	O 	0.13185	0.41609	0.31073	-1.056
Mof_O 	O 	0.12657	0.44974	0.00741	-0.577
Mof_C 	C 	0.12252	0.45335	0.9625	0.777
Mof_O 	O 	0.12441	0.49352	0.94325	-0.559
Mof_O 	O 	0.11815	0.41609	0.93927	-1.061
Mof_O 	O 	0.12657	0.94974	0.50741	-0.52
Mof_C 	C 	0.12252	0.95335	0.4625	0.719
Mof_O 	O 	0.12441	0.99352	0.44325	-0.527
Mof_O 	O 	0.11815	0.91609	0.43927	-1.056
Mof_O 	O 	0.62657	0.44974	0.50741	-0.527
Mof_C 	C 	0.62252	0.45335	0.4625	0.722
Mof_O 	O 	0.62441	0.49352	0.44325	-0.554
Mof_O 	O 	0.61815	0.41609	0.43927	-1.058
Mof_O 	O 	0.62657	0.94974	0.00741	-0.563
Mof_C 	C 	0.62252	0.95335	0.9625	0.778
Mof_O 	O 	0.62441	0.99352	0.94325	-0.529
Mof_O 	O 	0.61815	0.91609	0.93927	-1.061
Mof_O 	O 	0.62657	0.80026	0.74259	-0.528
Mof_C 	C 	0.62252	0.79665	0.7875	0.726
Mof_O 	O 	0.62441	0.75648	0.80675	-0.555
Mof_O 	O 	0.61815	0.83391	0.81073	-1.066
Mof_O 	O 	0.62657	0.30026	0.24259	-0.528
Mof_C 	C 	0.62252	0.29665	0.2875	0.723
Mof_O 	O 	0.62441	0.25648	0.30675	-0.554
Mof_O 	O 	0.61815	0.33391	0.31073	-1.058
Mof_O 	O 	0.12657	0.80026	0.24259	-0.531
Mof_C 	C 	0.12252	0.79665	0.2875	0.722
Mof_O 	O 	0.12441	0.75648	0.30675	-0.557
Mof_O 	O 	0.11815	0.83391	0.31073	-1.061
Mof_O 	O 	0.12657	0.30026	0.74259	-0.531
Mof_C 	C 	0.12252	0.29665	0.7875	0.722
Mof_O 	O 	0.12441	0.25648	0.80675	-0.557
Mof_O 	O 	0.11815	0.33391	0.81073	-1.061
Mof_O 	O 	0.50741	0.12343	0.30026	-0.531
Mof_C 	C 	0.4625	0.12748	0.29665	0.72
Mof_O 	O 	0.44325	0.12559	0.25648	-0.556
Mof_O 	O 	0.43927	0.13185	0.33391	-1.056
Mof_O 	O 	0.50741	0.62343	0.80026	-0.528
Mof_C 	C 	0.4625	0.62748	0.79665	0.724
Mof_O 	O 	0.44325	0.62559	0.75648	-0.554
Mof_O 	O 	0.43927	0.63185	0.83391	-1.062
Mof_O 	O 	0.00741	0.12343	0.80026	-0.578
Mof_C 	C 	0.9625	0.12748	0.79665	0.779
Mof_O 	O 	0.94325	0.12559	0.75648	-0.56
Mof_O 	O 	0.93927	0.13185	0.83391	-1.064
Mof_O 	O 	0.00741	0.62343	0.30026	-0.574
Mof_C 	C 	0.9625	0.62748	0.29665	0.779
Mof_O 	O 	0.94325	0.62559	0.25648	-0.557
Mof_O 	O 	0.93927	0.63185	0.33391	-1.062
Mof_O 	O 	0.24259	0.62343	0.94974	-0.517
Mof_C 	C 	0.2875	0.62748	0.95335	0.721
Mof_O 	O 	0.30675	0.62559	0.99352	-0.526
Mof_O 	O 	0.31073	0.63185	0.91609	-1.056
Mof_O 	O 	0.24259	0.12343	0.44974	-0.531
Mof_C 	C 	0.2875	0.12748	0.45335	0.72
Mof_O 	O 	0.30675	0.12559	0.49352	-0.556
Mof_O 	O 	0.31073	0.13185	0.41609	-1.056
Mof_O 	O 	0.74259	0.62343	0.44974	-0.527
Mof_C 	C 	0.7875	0.62748	0.45335	0.724
Mof_O 	O 	0.80675	0.62559	0.49352	-0.555
Mof_O 	O 	0.81073	0.63185	0.41609	-1.062
Mof_O 	O 	0.74259	0.12343	0.94974	-0.521
Mof_C 	C 	0.7875	0.12748	0.95335	0.721
Mof_O 	O 	0.80675	0.12559	0.99352	-0.529
Mof_O 	O 	0.81073	0.13185	0.91609	-1.058
Mof_O 	O 	0.00741	0.12657	0.44974	-0.577
Mof_C 	C 	0.9625	0.12252	0.45335	0.777
Mof_O 	O 	0.94325	0.12441	0.49352	-0.559
Mof_O 	O 	0.93927	0.11815	0.41609	-1.061
Mof_O 	O 	0.00741	0.62657	0.94974	-0.563
Mof_C 	C 	0.9625	0.62252	0.95335	0.778
Mof_O 	O 	0.94325	0.62441	0.99352	-0.529
Mof_O 	O 	0.93927	0.61815	0.91609	-1.061
Mof_O 	O 	0.50741	0.12657	0.94974	-0.52
Mof_C 	C 	0.4625	0.12252	0.95335	0.719
Mof_O 	O 	0.44325	0.12441	0.99352	-0.527
Mof_O 	O 	0.43927	0.11815	0.91609	-1.056
Mof_O 	O 	0.50741	0.62657	0.44974	-0.527
Mof_C 	C 	0.4625	0.62252	0.45335	0.722
Mof_O 	O 	0.44325	0.62441	0.49352	-0.554
Mof_O 	O 	0.43927	0.61815	0.41609	-1.058
Mof_O 	O 	0.74259	0.62657	0.80026	-0.528
Mof_C 	C 	0.7875	0.62252	0.79665	0.726
Mof_O 	O 	0.80675	0.62441	0.75648	-0.555
Mof_O 	O 	0.81073	0.61815	0.83391	-1.066
Mof_O 	O 	0.74259	0.12657	0.30026	-0.531
Mof_C 	C 	0.7875	0.12252	0.29665	0.722
Mof_O 	O 	0.80675	0.12441	0.25648	-0.557
Mof_O 	O 	0.81073	0.11815	0.33391	-1.061
Mof_O 	O 	0.24259	0.62657	0.30026	-0.528
Mof_C 	C 	0.2875	0.62252	0.29665	0.723
Mof_O 	O 	0.30675	0.62441	0.25648	-0.554
Mof_O 	O 	0.31073	0.61815	0.33391	-1.058
Mof_O 	O 	0.24259	0.12657	0.80026	-0.531
Mof_C 	C 	0.2875	0.12252	0.79665	0.722
Mof_O 	O 	0.30675	0.12441	0.75648	-0.557
Mof_O 	O 	0.31073	0.11815	0.83391	-1.061
Mof_O 	O 	0.25741	0.55026	0.87657	-0.523
Mof_C 	C 	0.2125	0.54665	0.87252	0.722
Mof_O 	O 	0.19325	0.50648	0.87441	-0.55
Mof_O 	O 	0.18927	0.58391	0.86815	-1.056
Mof_O 	O 	0.25741	0.05026	0.37657	-0.537
Mof_C 	C 	0.2125	0.04665	0.37252	0.721
Mof_O 	O 	0.19325	0.00648	0.37441	-0.575
Mof_O 	O 	0.18927	0.08391	0.36815	-1.054
Mof_O 	O 	0.75741	0.55026	0.37657	-0.526
Mof_C 	C 	0.7125	0.54665	0.37252	0.722
Mof_O 	O 	0.69325	0.50648	0.37441	-0.553
Mof_O 	O 	0.68927	0.58391	0.36815	-1.058
Mof_O 	O 	0.75741	0.05026	0.87657	-0.533
Mof_C 	C 	0.7125	0.04665	0.87252	0.724
Mof_O 	O 	0.69325	0.00648	0.87441	-0.573
Mof_O 	O 	0.68927	0.08391	0.86815	-1.06
Mof_O 	O 	0.99259	0.19974	0.37657	-0.474
Mof_C 	C 	0.0375	0.20335	0.37252	0.663
Mof_O 	O 	0.05675	0.24352	0.37441	-0.55
Mof_O 	O 	0.06073	0.16609	0.36815	-1.045
Mof_O 	O 	0.99259	0.69974	0.87657	-0.471
Mof_C 	C 	0.0375	0.70335	0.87252	0.667
Mof_O 	O 	0.05675	0.74352	0.87441	-0.548
Mof_O 	O 	0.06073	0.66609	0.86815	-1.05
Mof_O 	O 	0.49259	0.19974	0.87657	-0.522
Mof_C 	C 	0.5375	0.20335	0.87252	0.722
Mof_O 	O 	0.55675	0.24352	0.87441	-0.551
Mof_O 	O 	0.56073	0.16609	0.86815	-1.056
Mof_O 	O 	0.49259	0.69974	0.37657	-0.526
Mof_C 	C 	0.5375	0.70335	0.37252	0.722
Mof_O 	O 	0.55675	0.74352	0.37441	-0.553
Mof_O 	O 	0.56073	0.66609	0.36815	-1.058
Mof_O 	O 	0.75741	0.69974	0.87343	-0.523
Mof_C 	C 	0.7125	0.70335	0.87748	0.724
Mof_O 	O 	0.69325	0.74352	0.87559	-0.551
Mof_O 	O 	0.68927	0.66609	0.88185	-1.058
Mof_O 	O 	0.75741	0.19974	0.37343	-0.525
Mof_C 	C 	0.7125	0.20335	0.37748	0.72
Mof_O 	O 	0.69325	0.24352	0.37559	-0.553
Mof_O 	O 	0.68927	0.16609	0.38185	-1.054
Mof_O 	O 	0.25741	0.69974	0.37343	-0.526
Mof_C 	C 	0.2125	0.70335	0.37748	0.72
Mof_O 	O 	0.19325	0.74352	0.37559	-0.552
Mof_O 	O 	0.18927	0.66609	0.38185	-1.054
Mof_O 	O 	0.25741	0.19974	0.87343	-0.522
Mof_C 	C 	0.2125	0.20335	0.87748	0.721
Mof_O 	O 	0.19325	0.24352	0.87559	-0.55
Mof_O 	O 	0.18927	0.16609	0.88185	-1.051
Mof_O 	O 	0.49259	0.05026	0.37343	-0.537
Mof_C 	C 	0.5375	0.04665	0.37748	0.722
Mof_O 	O 	0.55675	0.00648	0.37559	-0.576
Mof_O 	O 	0.56073	0.08391	0.38185	-1.058
Mof_O 	O 	0.49259	0.55026	0.87343	-0.524
Mof_C 	C 	0.5375	0.54665	0.87748	0.724
Mof_O 	O 	0.55675	0.50648	0.87559	-0.552
Mof_O 	O 	0.56073	0.58391	0.88185	-1.058
Mof_O 	O 	0.99259	0.05026	0.87343	-0.483
Mof_C 	C 	0.0375	0.04665	0.87748	0.668
Mof_O 	O 	0.05675	0.00648	0.87559	-0.571
Mof_O 	O 	0.06073	0.08391	0.88185	-1.049
Mof_O 	O 	0.99259	0.55026	0.37343	-0.475
Mof_C 	C 	0.0375	0.54665	0.37748	0.665
Mof_O 	O 	0.05675	0.50648	0.37559	-0.551
Mof_O 	O 	0.06073	0.58391	0.38185	-1.048
Mof_O 	O 	0.05026	0.37343	0.49259	-0.537
Mof_C 	C 	0.04665	0.37748	0.5375	0.722
Mof_O 	O 	0.00648	0.37559	0.55675	-0.576
Mof_O 	O 	0.08391	0.38185	0.56073	-1.058
Mof_O 	O 	0.05026	0.87343	0.99259	-0.483
Mof_C 	C 	0.04665	0.87748	0.0375	0.668
Mof_O 	O 	0.00648	0.87559	0.05675	-0.571
Mof_O 	O 	0.08391	0.88185	0.06073	-1.049
Mof_O 	O 	0.55026	0.37343	0.99259	-0.475
Mof_C 	C 	0.54665	0.37748	0.0375	0.665
Mof_O 	O 	0.50648	0.37559	0.05675	-0.551
Mof_O 	O 	0.58391	0.38185	0.06073	-1.048
Mof_O 	O 	0.55026	0.87343	0.49259	-0.524
Mof_C 	C 	0.54665	0.87748	0.5375	0.724
Mof_O 	O 	0.50648	0.87559	0.55675	-0.552
Mof_O 	O 	0.58391	0.88185	0.56073	-1.058
Mof_O 	O 	0.69974	0.87343	0.75741	-0.523
Mof_C 	C 	0.70335	0.87748	0.7125	0.724
Mof_O 	O 	0.74352	0.87559	0.69325	-0.551
Mof_O 	O 	0.66609	0.88185	0.68927	-1.058
Mof_O 	O 	0.69974	0.37343	0.25741	-0.526
Mof_C 	C 	0.70335	0.37748	0.2125	0.72
Mof_O 	O 	0.74352	0.37559	0.19325	-0.552
Mof_O 	O 	0.66609	0.38185	0.18927	-1.054
Mof_O 	O 	0.19974	0.87343	0.25741	-0.522
Mof_C 	C 	0.20335	0.87748	0.2125	0.721
Mof_O 	O 	0.24352	0.87559	0.19325	-0.55
Mof_O 	O 	0.16609	0.88185	0.18927	-1.051
Mof_O 	O 	0.19974	0.37343	0.75741	-0.525
Mof_C 	C 	0.20335	0.37748	0.7125	0.72
Mof_O 	O 	0.24352	0.37559	0.69325	-0.553
Mof_O 	O 	0.16609	0.38185	0.68927	-1.054
Mof_O 	O 	0.19974	0.37657	0.99259	-0.474
Mof_C 	C 	0.20335	0.37252	0.0375	0.663
Mof_O 	O 	0.24352	0.37441	0.05675	-0.55
Mof_O 	O 	0.16609	0.36815	0.06073	-1.045
Mof_O 	O 	0.19974	0.87657	0.49259	-0.522
Mof_C 	C 	0.20335	0.87252	0.5375	0.722
Mof_O 	O 	0.24352	0.87441	0.55675	-0.551
Mof_O 	O 	0.16609	0.86815	0.56073	-1.056
Mof_O 	O 	0.69974	0.37657	0.49259	-0.526
Mof_C 	C 	0.70335	0.37252	0.5375	0.722
Mof_O 	O 	0.74352	0.37441	0.55675	-0.553
Mof_O 	O 	0.66609	0.36815	0.56073	-1.058
Mof_O 	O 	0.69974	0.87657	0.99259	-0.471
Mof_C 	C 	0.70335	0.87252	0.0375	0.667
Mof_O 	O 	0.74352	0.87441	0.05675	-0.548
Mof_O 	O 	0.66609	0.86815	0.06073	-1.05
Mof_O 	O 	0.55026	0.87657	0.25741	-0.523
Mof_C 	C 	0.54665	0.87252	0.2125	0.722
Mof_O 	O 	0.50648	0.87441	0.19325	-0.55
Mof_O 	O 	0.58391	0.86815	0.18927	-1.056
Mof_O 	O 	0.55026	0.37657	0.75741	-0.526
Mof_C 	C 	0.54665	0.37252	0.7125	0.722
Mof_O 	O 	0.50648	0.37441	0.69325	-0.553
Mof_O 	O 	0.58391	0.36815	0.68927	-1.058
Mof_O 	O 	0.05026	0.87657	0.75741	-0.533
Mof_C 	C 	0.04665	0.87252	0.7125	0.724
Mof_O 	O 	0.00648	0.87441	0.69325	-0.573
Mof_O 	O 	0.08391	0.86815	0.68927	-1.06
Mof_O 	O 	0.05026	0.37657	0.25741	-0.537
Mof_C 	C 	0.04665	0.37252	0.2125	0.721
Mof_O 	O 	0.00648	0.37441	0.19325	-0.575
Mof_O 	O 	0.08391	0.36815	0.18927	-1.054
Mof_O 	O 	0.87343	0.75741	0.69974	-0.523
Mof_C 	C 	0.87748	0.7125	0.70335	0.724
Mof_O 	O 	0.87559	0.69325	0.74352	-0.551
Mof_O 	O 	0.88185	0.68927	0.66609	-1.058
Mof_O 	O 	0.87343	0.25741	0.19974	-0.522
Mof_C 	C 	0.87748	0.2125	0.20335	0.721
Mof_O 	O 	0.87559	0.19325	0.24352	-0.55
Mof_O 	O 	0.88185	0.18927	0.16609	-1.051
Mof_O 	O 	0.37343	0.75741	0.19974	-0.525
Mof_C 	C 	0.37748	0.7125	0.20335	0.72
Mof_O 	O 	0.37559	0.69325	0.24352	-0.553
Mof_O 	O 	0.38185	0.68927	0.16609	-1.054
Mof_O 	O 	0.37343	0.25741	0.69974	-0.526
Mof_C 	C 	0.37748	0.2125	0.70335	0.72
Mof_O 	O 	0.37559	0.19325	0.74352	-0.552
Mof_O 	O 	0.38185	0.18927	0.66609	-1.054
Mof_O 	O 	0.37343	0.49259	0.05026	-0.537
Mof_C 	C 	0.37748	0.5375	0.04665	0.722
Mof_O 	O 	0.37559	0.55675	0.00648	-0.576
Mof_O 	O 	0.38185	0.56073	0.08391	-1.058
Mof_O 	O 	0.37343	0.99259	0.55026	-0.475
Mof_C 	C 	0.37748	0.0375	0.54665	0.665
Mof_O 	O 	0.37559	0.05675	0.50648	-0.551
Mof_O 	O 	0.38185	0.06073	0.58391	-1.048
Mof_O 	O 	0.87343	0.49259	0.55026	-0.524
Mof_C 	C 	0.87748	0.5375	0.54665	0.724
Mof_O 	O 	0.87559	0.55675	0.50648	-0.552
Mof_O 	O 	0.88185	0.56073	0.58391	-1.058
Mof_O 	O 	0.87343	0.99259	0.05026	-0.483
Mof_C 	C 	0.87748	0.0375	0.04665	0.668
Mof_O 	O 	0.87559	0.05675	0.00648	-0.571
Mof_O 	O 	0.88185	0.06073	0.08391	-1.049
Mof_O 	O 	0.87657	0.25741	0.55026	-0.523
Mof_C 	C 	0.87252	0.2125	0.54665	0.722
Mof_O 	O 	0.87441	0.19325	0.50648	-0.55
Mof_O 	O 	0.86815	0.18927	0.58391	-1.056
Mof_O 	O 	0.87657	0.75741	0.05026	-0.533
Mof_C 	C 	0.87252	0.7125	0.04665	0.724
Mof_O 	O 	0.87441	0.69325	0.00648	-0.573
Mof_O 	O 	0.86815	0.68927	0.08391	-1.06
Mof_O 	O 	0.37657	0.25741	0.05026	-0.537
Mof_C 	C 	0.37252	0.2125	0.04665	0.721
Mof_O 	O 	0.37441	0.19325	0.00648	-0.575
Mof_O 	O 	0.36815	0.18927	0.08391	-1.054
Mof_O 	O 	0.37657	0.75741	0.55026	-0.526
Mof_C 	C 	0.37252	0.7125	0.54665	0.722
Mof_O 	O 	0.37441	0.69325	0.50648	-0.553
Mof_O 	O 	0.36815	0.68927	0.58391	-1.058
Mof_O 	O 	0.37657	0.99259	0.19974	-0.474
Mof_C 	C 	0.37252	0.0375	0.20335	0.663
Mof_O 	O 	0.37441	0.05675	0.24352	-0.55
Mof_O 	O 	0.36815	0.06073	0.16609	-1.045
Mof_O 	O 	0.37657	0.49259	0.69974	-0.526
Mof_C 	C 	0.37252	0.5375	0.70335	0.722
Mof_O 	O 	0.37441	0.55675	0.74352	-0.553
Mof_O 	O 	0.36815	0.56073	0.66609	-1.058
Mof_O 	O 	0.87657	0.99259	0.69974	-0.471
Mof_C 	C 	0.87252	0.0375	0.70335	0.667
Mof_O 	O 	0.87441	0.05675	0.74352	-0.548
Mof_O 	O 	0.86815	0.06073	0.66609	-1.05
Mof_O 	O 	0.87657	0.49259	0.19974	-0.522
Mof_C 	C 	0.87252	0.5375	0.20335	0.722
Mof_O 	O 	0.87441	0.55675	0.24352	-0.551
Mof_O 	O 	0.86815	0.56073	0.16609	-1.056
Mof_O 	O 	0.69974	0.49259	0.87657	-0.523
Mof_C 	C 	0.70335	0.5375	0.87252	0.724
Mof_O 	O 	0.74352	0.55675	0.87441	-0.551
Mof_O 	O 	0.66609	0.56073	0.86815	-1.06
Mof_O 	O 	0.69974	0.99259	0.37657	-0.474
Mof_C 	C 	0.70335	0.0375	0.37252	0.665
Mof_O 	O 	0.74352	0.05675	0.37441	-0.55
Mof_O 	O 	0.66609	0.06073	0.36815	-1.048
Mof_O 	O 	0.19974	0.49259	0.37657	-0.526
Mof_C 	C 	0.20335	0.5375	0.37252	0.72
Mof_O 	O 	0.24352	0.55675	0.37441	-0.553
Mof_O 	O 	0.16609	0.56073	0.36815	-1.054
Mof_O 	O 	0.19974	0.99259	0.87657	-0.471
Mof_C 	C 	0.20335	0.0375	0.87252	0.666
Mof_O 	O 	0.24352	0.05675	0.87441	-0.548
Mof_O 	O 	0.16609	0.06073	0.86815	-1.047
Mof_O 	O 	0.05026	0.75741	0.37657	-0.537
Mof_C 	C 	0.04665	0.7125	0.37252	0.722
Mof_O 	O 	0.00648	0.69325	0.37441	-0.576
Mof_O 	O 	0.08391	0.68927	0.36815	-1.058
Mof_O 	O 	0.05026	0.25741	0.87657	-0.533
Mof_C 	C 	0.04665	0.2125	0.87252	0.723
Mof_O 	O 	0.00648	0.19325	0.87441	-0.572
Mof_O 	O 	0.08391	0.18927	0.86815	-1.056
Mof_O 	O 	0.55026	0.75741	0.87657	-0.523
Mof_C 	C 	0.54665	0.7125	0.87252	0.724
Mof_O 	O 	0.50648	0.69325	0.87441	-0.551
Mof_O 	O 	0.58391	0.68927	0.86815	-1.06
Mof_O 	O 	0.55026	0.25741	0.37657	-0.526
Mof_C 	C 	0.54665	0.2125	0.37252	0.72
Mof_O 	O 	0.50648	0.19325	0.37441	-0.553
Mof_O 	O 	0.58391	0.18927	0.36815	-1.054
Mof_O 	O 	0.55026	0.99259	0.87343	-0.472
Mof_C 	C 	0.54665	0.0375	0.87748	0.668
Mof_O 	O 	0.50648	0.05675	0.87559	-0.549
Mof_O 	O 	0.58391	0.06073	0.88185	-1.049
Mof_O 	O 	0.55026	0.49259	0.37343	-0.527
Mof_C 	C 	0.54665	0.5375	0.37748	0.722
Mof_O 	O 	0.50648	0.55675	0.37559	-0.554
Mof_O 	O 	0.58391	0.56073	0.38185	-1.058
Mof_O 	O 	0.05026	0.99259	0.37343	-0.486
Mof_C 	C 	0.04665	0.0375	0.37748	0.666
Mof_O 	O 	0.00648	0.05675	0.37559	-0.573
Mof_O 	O 	0.08391	0.06073	0.38185	-1.048
Mof_O 	O 	0.05026	0.49259	0.87343	-0.534
Mof_C 	C 	0.04665	0.5375	0.87748	0.725
Mof_O 	O 	0.00648	0.55675	0.87559	-0.574
Mof_O 	O 	0.08391	0.56073	0.88185	-1.058
Mof_O 	O 	0.19974	0.25741	0.37343	-0.525
Mof_C 	C 	0.20335	0.2125	0.37748	0.719
Mof_O 	O 	0.24352	0.19325	0.37559	-0.552
Mof_O 	O 	0.16609	0.18927	0.38185	-1.051
Mof_O 	O 	0.19974	0.75741	0.87343	-0.522
Mof_C 	C 	0.20335	0.7125	0.87748	0.723
Mof_O 	O 	0.24352	0.69325	0.87559	-0.551
Mof_O 	O 	0.16609	0.68927	0.88185	-1.055
Mof_O 	O 	0.69974	0.25741	0.87343	-0.523
Mof_C 	C 	0.70335	0.2125	0.87748	0.723
Mof_O 	O 	0.74352	0.19325	0.87559	-0.55
Mof_O 	O 	0.66609	0.18927	0.88185	-1.055
Mof_O 	O 	0.69974	0.75741	0.37343	-0.526
Mof_C 	C 	0.70335	0.7125	0.37748	0.722
Mof_O 	O 	0.74352	0.69325	0.37559	-0.553
Mof_O 	O 	0.66609	0.68927	0.38185	-1.058
Mof_O 	O 	0.87657	0.69974	0.49259	-0.523
Mof_C 	C 	0.87252	0.70335	0.5375	0.724
Mof_O 	O 	0.87441	0.74352	0.55675	-0.551
Mof_O 	O 	0.86815	0.66609	0.56073	-1.06
Mof_O 	O 	0.87657	0.19974	0.99259	-0.471
Mof_C 	C 	0.87252	0.20335	0.0375	0.666
Mof_O 	O 	0.87441	0.24352	0.05675	-0.548
Mof_O 	O 	0.86815	0.16609	0.06073	-1.047
Mof_O 	O 	0.37657	0.69974	0.99259	-0.474
Mof_C 	C 	0.37252	0.70335	0.0375	0.665
Mof_O 	O 	0.37441	0.74352	0.05675	-0.55
Mof_O 	O 	0.36815	0.66609	0.06073	-1.048
Mof_O 	O 	0.37657	0.19974	0.49259	-0.526
Mof_C 	C 	0.37252	0.20335	0.5375	0.72
Mof_O 	O 	0.37441	0.24352	0.55675	-0.553
Mof_O 	O 	0.36815	0.16609	0.56073	-1.054
Mof_O 	O 	0.37657	0.05026	0.75741	-0.537
Mof_C 	C 	0.37252	0.04665	0.7125	0.722
Mof_O 	O 	0.37441	0.00648	0.69325	-0.576
Mof_O 	O 	0.36815	0.08391	0.68927	-1.058
Mof_O 	O 	0.37657	0.55026	0.25741	-0.526
Mof_C 	C 	0.37252	0.54665	0.2125	0.72
Mof_O 	O 	0.37441	0.50648	0.19325	-0.553
Mof_O 	O 	0.36815	0.58391	0.18927	-1.054
Mof_O 	O 	0.87657	0.05026	0.25741	-0.533
Mof_C 	C 	0.87252	0.04665	0.2125	0.723
Mof_O 	O 	0.87441	0.00648	0.19325	-0.572
Mof_O 	O 	0.86815	0.08391	0.18927	-1.056
Mof_O 	O 	0.87657	0.55026	0.75741	-0.523
Mof_C 	C 	0.87252	0.54665	0.7125	0.724
Mof_O 	O 	0.87441	0.50648	0.69325	-0.551
Mof_O 	O 	0.86815	0.58391	0.68927	-1.06
Mof_O 	O 	0.87343	0.55026	0.99259	-0.472
Mof_C 	C 	0.87748	0.54665	0.0375	0.668
Mof_O 	O 	0.87559	0.50648	0.05675	-0.549
Mof_O 	O 	0.88185	0.58391	0.06073	-1.049
Mof_O 	O 	0.87343	0.05026	0.49259	-0.534
Mof_C 	C 	0.87748	0.04665	0.5375	0.725
Mof_O 	O 	0.87559	0.00648	0.55675	-0.574
Mof_O 	O 	0.88185	0.08391	0.56073	-1.058
Mof_O 	O 	0.37343	0.55026	0.49259	-0.527
Mof_C 	C 	0.37748	0.54665	0.5375	0.722
Mof_O 	O 	0.37559	0.50648	0.55675	-0.554
Mof_O 	O 	0.38185	0.58391	0.56073	-1.058
Mof_O 	O 	0.37343	0.05026	0.99259	-0.486
Mof_C 	C 	0.37748	0.04665	0.0375	0.666
Mof_O 	O 	0.37559	0.00648	0.05675	-0.573
Mof_O 	O 	0.38185	0.08391	0.06073	-1.048
Mof_O 	O 	0.37343	0.19974	0.25741	-0.525
Mof_C 	C 	0.37748	0.20335	0.2125	0.719
Mof_O 	O 	0.37559	0.24352	0.19325	-0.552
Mof_O 	O 	0.38185	0.16609	0.18927	-1.051
Mof_O 	O 	0.37343	0.69974	0.75741	-0.526
Mof_C 	C 	0.37748	0.70335	0.7125	0.722
Mof_O 	O 	0.37559	0.74352	0.69325	-0.553
Mof_O 	O 	0.38185	0.66609	0.68927	-1.058
Mof_O 	O 	0.87343	0.19974	0.75741	-0.522
Mof_C 	C 	0.87748	0.20335	0.7125	0.723
Mof_O 	O 	0.87559	0.24352	0.69325	-0.551
Mof_O 	O 	0.88185	0.16609	0.68927	-1.055
Mof_O 	O 	0.87343	0.69974	0.25741	-0.523
Mof_C 	C 	0.87748	0.70335	0.2125	0.723
Mof_O 	O 	0.87559	0.74352	0.19325	-0.55
Mof_O 	O 	0.88185	0.66609	0.18927	-1.055
Mof_O 	O 	0.49259	0.87657	0.69974	-0.523
Mof_C 	C 	0.5375	0.87252	0.70335	0.724
Mof_O 	O 	0.55675	0.87441	0.74352	-0.551
Mof_O 	O 	0.56073	0.86815	0.66609	-1.06
Mof_O 	O 	0.49259	0.37657	0.19974	-0.526
Mof_C 	C 	0.5375	0.37252	0.20335	0.72
Mof_O 	O 	0.55675	0.37441	0.24352	-0.553
Mof_O 	O 	0.56073	0.36815	0.16609	-1.054
Mof_O 	O 	0.99259	0.87657	0.19974	-0.471
Mof_C 	C 	0.0375	0.87252	0.20335	0.666
Mof_O 	O 	0.05675	0.87441	0.24352	-0.548
Mof_O 	O 	0.06073	0.86815	0.16609	-1.047
Mof_O 	O 	0.99259	0.37657	0.69974	-0.474
Mof_C 	C 	0.0375	0.37252	0.70335	0.665
Mof_O 	O 	0.05675	0.37441	0.74352	-0.55
Mof_O 	O 	0.06073	0.36815	0.66609	-1.048
Mof_O 	O 	0.75741	0.37657	0.05026	-0.537
Mof_C 	C 	0.7125	0.37252	0.04665	0.722
Mof_O 	O 	0.69325	0.37441	0.00648	-0.576
Mof_O 	O 	0.68927	0.36815	0.08391	-1.058
Mof_O 	O 	0.75741	0.87657	0.55026	-0.523
Mof_C 	C 	0.7125	0.87252	0.54665	0.724
Mof_O 	O 	0.69325	0.87441	0.50648	-0.551
Mof_O 	O 	0.68927	0.86815	0.58391	-1.06
Mof_O 	O 	0.25741	0.37657	0.55026	-0.526
Mof_C 	C 	0.2125	0.37252	0.54665	0.72
Mof_O 	O 	0.19325	0.37441	0.50648	-0.553
Mof_O 	O 	0.18927	0.36815	0.58391	-1.054
Mof_O 	O 	0.25741	0.87657	0.05026	-0.533
Mof_C 	C 	0.2125	0.87252	0.04665	0.723
Mof_O 	O 	0.19325	0.87441	0.00648	-0.572
Mof_O 	O 	0.18927	0.86815	0.08391	-1.056
Mof_O 	O 	0.99259	0.87343	0.55026	-0.472
Mof_C 	C 	0.0375	0.87748	0.54665	0.668
Mof_O 	O 	0.05675	0.87559	0.50648	-0.549
Mof_O 	O 	0.06073	0.88185	0.58391	-1.049
Mof_O 	O 	0.99259	0.37343	0.05026	-0.486
Mof_C 	C 	0.0375	0.37748	0.04665	0.666
Mof_O 	O 	0.05675	0.37559	0.00648	-0.573
Mof_O 	O 	0.06073	0.38185	0.08391	-1.048
Mof_O 	O 	0.49259	0.87343	0.05026	-0.534
Mof_C 	C 	0.5375	0.87748	0.04665	0.725
Mof_O 	O 	0.55675	0.87559	0.00648	-0.574
Mof_O 	O 	0.56073	0.88185	0.08391	-1.058
Mof_O 	O 	0.49259	0.37343	0.55026	-0.527
Mof_C 	C 	0.5375	0.37748	0.54665	0.722
Mof_O 	O 	0.55675	0.37559	0.50648	-0.554
Mof_O 	O 	0.56073	0.38185	0.58391	-1.058
Mof_O 	O 	0.25741	0.37343	0.19974	-0.525
Mof_C 	C 	0.2125	0.37748	0.20335	0.719
Mof_O 	O 	0.19325	0.37559	0.24352	-0.552
Mof_O 	O 	0.18927	0.38185	0.16609	-1.051
Mof_O 	O 	0.25741	0.87343	0.69974	-0.523
Mof_C 	C 	0.2125	0.87748	0.70335	0.723
Mof_O 	O 	0.19325	0.87559	0.74352	-0.55
Mof_O 	O 	0.18927	0.88185	0.66609	-1.055
Mof_O 	O 	0.75741	0.37343	0.69974	-0.526
Mof_C 	C 	0.7125	0.37748	0.70335	0.722
Mof_O 	O 	0.69325	0.37559	0.74352	-0.553
Mof_O 	O 	0.68927	0.38185	0.66609	-1.058
Mof_O 	O 	0.75741	0.87343	0.19974	-0.522
Mof_C 	C 	0.7125	0.87748	0.20335	0.723
Mof_O 	O 	0.69325	0.87559	0.24352	-0.551
Mof_O 	O 	0.68927	0.88185	0.16609	-1.055
Mof_O 	O 	0.74259	0.44974	0.12343	-0.531
Mof_C 	C 	0.7875	0.45335	0.12748	0.722
Mof_O 	O 	0.80675	0.49352	0.12559	-0.557
Mof_O 	O 	0.81073	0.41609	0.13185	-1.06
Mof_O 	O 	0.74259	0.94974	0.62343	-0.517
Mof_C 	C 	0.7875	0.95335	0.62748	0.723
Mof_O 	O 	0.80675	0.99352	0.62559	-0.526
Mof_O 	O 	0.81073	0.91609	0.63185	-1.06
Mof_O 	O 	0.24259	0.44974	0.62343	-0.527
Mof_C 	C 	0.2875	0.45335	0.62748	0.722
Mof_O 	O 	0.30675	0.49352	0.62559	-0.554
Mof_O 	O 	0.31073	0.41609	0.63185	-1.058
Mof_O 	O 	0.24259	0.94974	0.12343	-0.52
Mof_C 	C 	0.2875	0.95335	0.12748	0.719
Mof_O 	O 	0.30675	0.99352	0.12559	-0.528
Mof_O 	O 	0.31073	0.91609	0.13185	-1.054
Mof_O 	O 	0.00741	0.80026	0.62343	-0.575
Mof_C 	C 	0.9625	0.79665	0.62748	0.781
Mof_O 	O 	0.94325	0.75648	0.62559	-0.557
Mof_O 	O 	0.93927	0.83391	0.63185	-1.066
Mof_O 	O 	0.00741	0.30026	0.12343	-0.577
Mof_C 	C 	0.9625	0.29665	0.12748	0.777
Mof_O 	O 	0.94325	0.25648	0.12559	-0.56
Mof_O 	O 	0.93927	0.33391	0.13185	-1.06
Mof_O 	O 	0.50741	0.80026	0.12343	-0.531
Mof_C 	C 	0.4625	0.79665	0.12748	0.722
Mof_O 	O 	0.44325	0.75648	0.12559	-0.557
Mof_O 	O 	0.43927	0.83391	0.13185	-1.06
Mof_O 	O 	0.50741	0.30026	0.62343	-0.527
Mof_C 	C 	0.4625	0.29665	0.62748	0.722
Mof_O 	O 	0.44325	0.25648	0.62559	-0.554
Mof_O 	O 	0.43927	0.33391	0.63185	-1.058
Mof_O 	O 	0.24259	0.30026	0.12657	-0.531
Mof_C 	C 	0.2875	0.29665	0.12252	0.72
Mof_O 	O 	0.30675	0.25648	0.12441	-0.556
Mof_O 	O 	0.31073	0.33391	0.11815	-1.057
Mof_O 	O 	0.24259	0.80026	0.62657	-0.528
Mof_C 	C 	0.2875	0.79665	0.62252	0.724
Mof_O 	O 	0.30675	0.75648	0.62441	-0.555
Mof_O 	O 	0.31073	0.83391	0.61815	-1.062
Mof_O 	O 	0.74259	0.30026	0.62657	-0.528
Mof_C 	C 	0.7875	0.29665	0.62252	0.724
Mof_O 	O 	0.80675	0.25648	0.62441	-0.555
Mof_O 	O 	0.81073	0.33391	0.61815	-1.062
Mof_O 	O 	0.74259	0.80026	0.12657	-0.532
Mof_C 	C 	0.7875	0.79665	0.12252	0.724
Mof_O 	O 	0.80675	0.75648	0.12441	-0.557
Mof_O 	O 	0.81073	0.83391	0.11815	-1.065
Mof_O 	O 	0.50741	0.94974	0.62657	-0.516
Mof_C 	C 	0.4625	0.95335	0.62252	0.721
Mof_O 	O 	0.44325	0.99352	0.62441	-0.525
Mof_O 	O 	0.43927	0.91609	0.61815	-1.056
Mof_O 	O 	0.50741	0.44974	0.12657	-0.53
Mof_C 	C 	0.4625	0.45335	0.12252	0.72
Mof_O 	O 	0.44325	0.49352	0.12441	-0.556
Mof_O 	O 	0.43927	0.41609	0.11815	-1.057
Mof_O 	O 	0.00741	0.94974	0.12657	-0.566
Mof_C 	C 	0.9625	0.95335	0.12252	0.775
Mof_O 	O 	0.94325	0.99352	0.12441	-0.531
Mof_O 	O 	0.93927	0.91609	0.11815	-1.06
Mof_O 	O 	0.00741	0.44974	0.62657	-0.574
Mof_C 	C 	0.9625	0.45335	0.62252	0.779
Mof_O 	O 	0.94325	0.49352	0.62441	-0.557
Mof_O 	O 	0.93927	0.41609	0.61815	-1.062
Mof_O 	O 	0.94974	0.62657	0.50741	-0.516
Mof_C 	C 	0.95335	0.62252	0.4625	0.721
Mof_O 	O 	0.99352	0.62441	0.44325	-0.525
Mof_O 	O 	0.91609	0.61815	0.43927	-1.056
Mof_O 	O 	0.94974	0.12657	0.00741	-0.566
Mof_C 	C 	0.95335	0.12252	0.9625	0.775
Mof_O 	O 	0.99352	0.12441	0.94325	-0.531
Mof_O 	O 	0.91609	0.11815	0.93927	-1.06
Mof_O 	O 	0.44974	0.62657	0.00741	-0.574
Mof_C 	C 	0.45335	0.62252	0.9625	0.779
Mof_O 	O 	0.49352	0.62441	0.94325	-0.557
Mof_O 	O 	0.41609	0.61815	0.93927	-1.062
Mof_O 	O 	0.44974	0.12657	0.50741	-0.53
Mof_C 	C 	0.45335	0.12252	0.4625	0.72
Mof_O 	O 	0.49352	0.12441	0.44325	-0.556
Mof_O 	O 	0.41609	0.11815	0.43927	-1.057
Mof_O 	O 	0.30026	0.12657	0.24259	-0.531
Mof_C 	C 	0.29665	0.12252	0.2875	0.72
Mof_O 	O 	0.25648	0.12441	0.30675	-0.556
Mof_O 	O 	0.33391	0.11815	0.31073	-1.057
Mof_O 	O 	0.30026	0.62657	0.74259	-0.528
Mof_C 	C 	0.29665	0.62252	0.7875	0.724
Mof_O 	O 	0.25648	0.62441	0.80675	-0.555
Mof_O 	O 	0.33391	0.61815	0.81073	-1.062
Mof_O 	O 	0.80026	0.12657	0.74259	-0.532
Mof_C 	C 	0.79665	0.12252	0.7875	0.724
Mof_O 	O 	0.75648	0.12441	0.80675	-0.557
Mof_O 	O 	0.83391	0.11815	0.81073	-1.065
Mof_O 	O 	0.80026	0.62657	0.24259	-0.528
Mof_C 	C 	0.79665	0.62252	0.2875	0.724
Mof_O 	O 	0.75648	0.62441	0.30675	-0.555
Mof_O 	O 	0.83391	0.61815	0.31073	-1.062
Mof_O 	O 	0.80026	0.62343	0.00741	-0.575
Mof_C 	C 	0.79665	0.62748	0.9625	0.781
Mof_O 	O 	0.75648	0.62559	0.94325	-0.557
Mof_O 	O 	0.83391	0.63185	0.93927	-1.066
Mof_O 	O 	0.80026	0.12343	0.50741	-0.531
Mof_C 	C 	0.79665	0.12748	0.4625	0.722
Mof_O 	O 	0.75648	0.12559	0.44325	-0.557
Mof_O 	O 	0.83391	0.13185	0.43927	-1.06
Mof_O 	O 	0.30026	0.62343	0.50741	-0.527
Mof_C 	C 	0.29665	0.62748	0.4625	0.722
Mof_O 	O 	0.25648	0.62559	0.44325	-0.554
Mof_O 	O 	0.33391	0.63185	0.43927	-1.058
Mof_O 	O 	0.30026	0.12343	0.00741	-0.577
Mof_C 	C 	0.29665	0.12748	0.9625	0.777
Mof_O 	O 	0.25648	0.12559	0.94325	-0.56
Mof_O 	O 	0.33391	0.13185	0.93927	-1.06
Mof_O 	O 	0.44974	0.12343	0.74259	-0.531
Mof_C 	C 	0.45335	0.12748	0.7875	0.722
Mof_O 	O 	0.49352	0.12559	0.80675	-0.557
Mof_O 	O 	0.41609	0.13185	0.81073	-1.06
Mof_O 	O 	0.44974	0.62343	0.24259	-0.527
Mof_C 	C 	0.45335	0.62748	0.2875	0.722
Mof_O 	O 	0.49352	0.62559	0.30675	-0.554
Mof_O 	O 	0.41609	0.63185	0.31073	-1.058
Mof_O 	O 	0.94974	0.12343	0.24259	-0.52
Mof_C 	C 	0.95335	0.12748	0.2875	0.719
Mof_O 	O 	0.99352	0.12559	0.30675	-0.528
Mof_O 	O 	0.91609	0.13185	0.31073	-1.054
Mof_O 	O 	0.94974	0.62343	0.74259	-0.517
Mof_C 	C 	0.95335	0.62748	0.7875	0.723
Mof_O 	O 	0.99352	0.62559	0.80675	-0.526
Mof_O 	O 	0.91609	0.63185	0.81073	-1.06
Mof_O 	O 	0.12657	0.24259	0.30026	-0.531
Mof_C 	C 	0.12252	0.2875	0.29665	0.72
Mof_O 	O 	0.12441	0.30675	0.25648	-0.556
Mof_O 	O 	0.11815	0.31073	0.33391	-1.057
Mof_O 	O 	0.12657	0.74259	0.80026	-0.532
Mof_C 	C 	0.12252	0.7875	0.79665	0.724
Mof_O 	O 	0.12441	0.80675	0.75648	-0.557
Mof_O 	O 	0.11815	0.81073	0.83391	-1.065
Mof_O 	O 	0.62657	0.24259	0.80026	-0.528
Mof_C 	C 	0.62252	0.2875	0.79665	0.724
Mof_O 	O 	0.62441	0.30675	0.75648	-0.555
Mof_O 	O 	0.61815	0.31073	0.83391	-1.062
Mof_O 	O 	0.62657	0.74259	0.30026	-0.528
Mof_C 	C 	0.62252	0.7875	0.29665	0.724
Mof_O 	O 	0.62441	0.80675	0.25648	-0.555
Mof_O 	O 	0.61815	0.81073	0.33391	-1.062
Mof_O 	O 	0.62657	0.50741	0.94974	-0.516
Mof_C 	C 	0.62252	0.4625	0.95335	0.721
Mof_O 	O 	0.62441	0.44325	0.99352	-0.525
Mof_O 	O 	0.61815	0.43927	0.91609	-1.056
Mof_O 	O 	0.62657	0.00741	0.44974	-0.574
Mof_C 	C 	0.62252	0.9625	0.45335	0.779
Mof_O 	O 	0.62441	0.94325	0.49352	-0.557
Mof_O 	O 	0.61815	0.93927	0.41609	-1.062
Mof_O 	O 	0.12657	0.50741	0.44974	-0.53
Mof_C 	C 	0.12252	0.4625	0.45335	0.72
Mof_O 	O 	0.12441	0.44325	0.49352	-0.556
Mof_O 	O 	0.11815	0.43927	0.41609	-1.057
Mof_O 	O 	0.12657	0.00741	0.94974	-0.566
Mof_C 	C 	0.12252	0.9625	0.95335	0.775
Mof_O 	O 	0.12441	0.94325	0.99352	-0.531
Mof_O 	O 	0.11815	0.93927	0.91609	-1.06
Mof_O 	O 	0.12343	0.74259	0.44974	-0.531
Mof_C 	C 	0.12748	0.7875	0.45335	0.722
Mof_O 	O 	0.12559	0.80675	0.49352	-0.557
Mof_O 	O 	0.13185	0.81073	0.41609	-1.06
Mof_O 	O 	0.12343	0.24259	0.94974	-0.52
Mof_C 	C 	0.12748	0.2875	0.95335	0.719
Mof_O 	O 	0.12559	0.30675	0.99352	-0.528
Mof_O 	O 	0.13185	0.31073	0.91609	-1.054
Mof_O 	O 	0.62343	0.74259	0.94974	-0.517
Mof_C 	C 	0.62748	0.7875	0.95335	0.723
Mof_O 	O 	0.62559	0.80675	0.99352	-0.526
Mof_O 	O 	0.63185	0.81073	0.91609	-1.06
Mof_O 	O 	0.62343	0.24259	0.44974	-0.527
Mof_C 	C 	0.62748	0.2875	0.45335	0.722
Mof_O 	O 	0.62559	0.30675	0.49352	-0.554
Mof_O 	O 	0.63185	0.31073	0.41609	-1.058
Mof_O 	O 	0.62343	0.00741	0.80026	-0.575
Mof_C 	C 	0.62748	0.9625	0.79665	0.781
Mof_O 	O 	0.62559	0.94325	0.75648	-0.557
Mof_O 	O 	0.63185	0.93927	0.83391	-1.066
Mof_O 	O 	0.62343	0.50741	0.30026	-0.527
Mof_C 	C 	0.62748	0.4625	0.29665	0.722
Mof_O 	O 	0.62559	0.44325	0.25648	-0.554
Mof_O 	O 	0.63185	0.43927	0.33391	-1.058
Mof_O 	O 	0.12343	0.00741	0.30026	-0.577
Mof_C 	C 	0.12748	0.9625	0.29665	0.777
Mof_O 	O 	0.12559	0.94325	0.25648	-0.56
Mof_O 	O 	0.13185	0.93927	0.33391	-1.06
Mof_O 	O 	0.12343	0.50741	0.80026	-0.531
Mof_C 	C 	0.12748	0.4625	0.79665	0.722
Mof_O 	O 	0.12559	0.44325	0.75648	-0.557
Mof_O 	O 	0.13185	0.43927	0.83391	-1.06
Mof_Ni	Ni	0.37308	0.5	0.12308	1.092
Mof_Ni	Ni	0.37308	0	0.62308	1.072
Mof_Ni	Ni	0.87308	0.5	0.62308	1.093
Mof_Ni	Ni	0.87308	1.05918e-33	0.12308	1.072
Mof_Ni	Ni	0.87692	0.25	0.62308	1.092
Mof_Ni	Ni	0.87692	0.75	0.12308	1.092
Mof_Ni	Ni	0.37692	0.25	0.12308	1.092
Mof_Ni	Ni	0.37692	0.75	0.62308	1.092
Mof_Ni	Ni	0.37692	0	0.12692	1.071
Mof_Ni	Ni	0.37692	0.5	0.62692	1.092
Mof_Ni	Ni	0.87692	-8.47342e-33	0.62692	1.072
Mof_Ni	Ni	0.87692	0.5	0.12692	1.092
Mof_Ni	Ni	0.87308	0.75	0.62692	1.092
Mof_Ni	Ni	0.87308	0.25	0.12692	1.092
Mof_Ni	Ni	0.37308	0.75	0.12692	1.092
Mof_Ni	Ni	0.37308	0.25	0.62692	1.092
Mof_Ni	Ni	0.12308	0.37308	0.5	1.092
Mof_Ni	Ni	0.12308	0.87308	-0	1.072
Mof_Ni	Ni	0.62308	0.37308	-0	1.072
Mof_Ni	Ni	0.62308	0.87308	0.5	1.093
Mof_Ni	Ni	0.62308	0.87692	0.25	1.092
Mof_Ni	Ni	0.62308	0.37692	0.75	1.092
Mof_Ni	Ni	0.12308	0.87692	0.75	1.092
Mof_Ni	Ni	0.12308	0.37692	0.25	1.092
Mof_Ni	Ni	0.12692	0.37692	-0	1.071
Mof_Ni	Ni	0.12692	0.87692	0.5	1.092
Mof_Ni	Ni	0.62692	0.37692	0.5	1.092
Mof_Ni	Ni	0.62692	0.87692	-0	1.072
Mof_Ni	Ni	0.62692	0.87308	0.75	1.092
Mof_Ni	Ni	0.62692	0.37308	0.25	1.092
Mof_Ni	Ni	0.12692	0.87308	0.25	1.092
Mof_Ni	Ni	0.12692	0.37308	0.75	1.092
Mof_Ni	Ni	0.5	0.12308	0.37308	1.092
Mof_Ni	Ni	0.5	0.62308	0.87308	1.093
Mof_Ni	Ni	3.27353e-33	0.12308	0.87308	1.072
Mof_Ni	Ni	5.63553e-33	0.62308	0.37308	1.072
Mof_Ni	Ni	0.25	0.62308	0.87692	1.092
Mof_Ni	Ni	0.25	0.12308	0.37692	1.092
Mof_Ni	Ni	0.75	0.62308	0.37692	1.092
Mof_Ni	Ni	0.75	0.12308	0.87692	1.092
Mof_Ni	Ni	5.64993e-33	0.12692	0.37692	1.071
Mof_Ni	Ni	2.02348e-32	0.62692	0.87692	1.072
Mof_Ni	Ni	0.5	0.12692	0.87692	1.092
Mof_Ni	Ni	0.5	0.62692	0.37692	1.092
Mof_Ni	Ni	0.75	0.62692	0.87308	1.092
Mof_Ni	Ni	0.75	0.12692	0.37308	1.092
Mof_Ni	Ni	0.25	0.62692	0.37308	1.092
Mof_Ni	Ni	0.25	0.12692	0.87308	1.092
Mof_Ni	Ni	0.62692	0.5	0.87692	1.092
Mof_Ni	Ni	0.62692	0	0.37692	1.072
Mof_Ni	Ni	0.12692	0.5	0.37692	1.092
Mof_Ni	Ni	0.12692	8.47342e-33	0.87692	1.071
Mof_Ni	Ni	0.12308	0.75	0.37692	1.092
Mof_Ni	Ni	0.12308	0.25	0.87692	1.092
Mof_Ni	Ni	0.62308	0.75	0.87692	1.092
Mof_Ni	Ni	0.62308	0.25	0.37692	1.092
Mof_Ni	Ni	0.62308	0	0.87308	1.072
Mof_Ni	Ni	0.62308	0.5	0.37308	1.092
Mof_Ni	Ni	0.12308	0	0.37308	1.072
Mof_Ni	Ni	0.12308	0.5	0.87308	1.093
Mof_Ni	Ni	0.12692	0.25	0.37308	1.092
Mof_Ni	Ni	0.12692	0.75	0.87308	1.092
Mof_Ni	Ni	0.62692	0.25	0.87308	1.093
Mof_Ni	Ni	0.62692	0.75	0.37308	1.092
Mof_Ni	Ni	0.87692	0.62692	0.5	1.092
Mof_Ni	Ni	0.87692	0.12692	-0	1.071
Mof_Ni	Ni	0.37692	0.62692	-0	1.072
Mof_Ni	Ni	0.37692	0.12692	0.5	1.092
Mof_Ni	Ni	0.37692	0.12308	0.75	1.092
Mof_Ni	Ni	0.37692	0.62308	0.25	1.092
Mof_Ni	Ni	0.87692	0.12308	0.25	1.092
Mof_Ni	Ni	0.87692	0.62308	0.75	1.092
Mof_Ni	Ni	0.87308	0.62308	-0	1.072
Mof_Ni	Ni	0.87308	0.12308	0.5	1.093
Mof_Ni	Ni	0.37308	0.62308	0.5	1.092
Mof_Ni	Ni	0.37308	0.12308	-0	1.072
Mof_Ni	Ni	0.37308	0.12692	0.25	1.092
Mof_Ni	Ni	0.37308	0.62692	0.75	1.092
Mof_Ni	Ni	0.87308	0.12692	0.75	1.092
Mof_Ni	Ni	0.87308	0.62692	0.25	1.093
Mof_Ni	Ni	0.5	0.87692	0.62692	1.092
Mof_Ni	Ni	0.5	0.37692	0.12692	1.092
Mof_Ni	Ni	6.83094e-33	0.87692	0.12692	1.071
Mof_Ni	Ni	2.35057e-33	0.37692	0.62692	1.072
Mof_Ni	Ni	0.75	0.37692	0.12308	1.092
Mof_Ni	Ni	0.75	0.87692	0.62308	1.092
Mof_Ni	Ni	0.25	0.37692	0.62308	1.092
Mof_Ni	Ni	0.25	0.87692	0.12308	1.092
Mof_Ni	Ni	2.33618e-33	0.87308	0.62308	1.072
Mof_Ni	Ni	1.52065e-33	0.37308	0.12308	1.072
Mof_Ni	Ni	0.5	0.87308	0.12308	1.093
Mof_Ni	Ni	0.5	0.37308	0.62308	1.092
Mof_Ni	Ni	0.25	0.37308	0.12692	1.092
Mof_Ni	Ni	0.25	0.87308	0.62692	1.093
Mof_Ni	Ni	0.75	0.37308	0.62692	1.092
Mof_Ni	Ni	0.75	0.87308	0.12692	1.092
Mof_Na	Na	0.375	0.375	0.125	3.461
Mof_Na	Na	0.875	0.375	0.625	3.51
Mof_Na	Na	0.875	0.875	0.125	3.515
Mof_Na	Na	0.375	0.875	0.125	3.489
Mof_Na	Na	0.375	0.375	0.625	3.482
Mof_Na	Na	0.875	0.875	0.625	3.536
Mof_Na	Na	0.125	0.375	0.375	3.461
Mof_Na	Na	0.125	0.875	0.875	3.515
Mof_Na	Na	0.625	0.875	0.375	3.51
Mof_Na	Na	0.125	0.375	0.875	3.489
Mof_Na	Na	0.625	0.875	0.875	3.536
Mof_Na	Na	0.625	0.375	0.375	3.482
Mof_Na	Na	0.375	0.125	0.375	3.461
Mof_Na	Na	0.375	0.625	0.875	3.51
Mof_Na	Na	0.875	0.125	0.375	3.489
Mof_Na	Na	0.875	0.625	0.875	3.536
Mof_Na	Na	0.125	0.625	0.875	3.475
Mof_Na	Na	0.125	0.125	0.375	3.43
Mof_Na	Na	0.625	0.125	0.875	3.475
Mof_Na	Na	0.625	0.625	0.875	3.499
Mof_Na	Na	0.625	0.125	0.375	3.454
Mof_Na	Na	0.125	0.375	0.625	3.454
Mof_Na	Na	0.125	0.875	0.125	3.45
Mof_Na	Na	0.625	0.875	0.625	3.499
Mof_Na	Na	0.125	0.375	0.125	3.43
Mof_Na	Na	0.125	0.875	0.625	3.475
Mof_Na	Na	0.625	0.875	0.125	3.475
Mof_Na	Na	0.625	0.375	0.625	3.479
Mof_Na	Na	0.875	0.625	0.625	3.499
Mof_Na	Na	0.875	0.125	0.125	3.45
Mof_Na	Na	0.375	0.625	0.125	3.454
Mof_Na	Na	0.875	0.125	0.625	3.475
Mof_Na	Na	0.375	0.125	0.125	3.43
Mof_Na	Na	0.375	0.625	0.625	3.479
Mof_Na	Na	0.875	0.625	0.125	3.475
Mof_Na	Na	0.125	0.625	0.375	3.454
Mof_Na	Na	0.125	0.125	0.875	3.45
Mof_Na	Na	0.625	0.625	0.375	3.479
Mof_Na	Na	0.375	0.125	0.625	3.454
Mof_Na	Na	0.625	0.375	0.125	3.454
Mof_Na	Na	0.875	0.375	0.125	3.489
Mof_Na	Na	0.375	0.875	0.625	3.51
Mof_Na	Na	0.875	0.625	0.375	3.51
Mof_Na	Na	0.875	0.125	0.875	3.515
Mof_Na	Na	0.375	0.125	0.875	3.489
Mof_Na	Na	0.375	0.625	0.375	3.482
Mof_Na	Na	0.625	0.375	0.875	3.51
Mof_Na	Na	0.125	0.875	0.375	3.489
_end
