# CIF file generated by openbabel 3.1.0, see https://openbabel.org
data_I
_chemical_name_common 'image0'
_cell_length_a 6.0394
_cell_length_b 26.524
_cell_length_c 23.431
_cell_angle_alpha 90
_cell_angle_beta 93.71
_cell_angle_gamma 90
_space_group_name_H-M_alt 'P 1'
_space_group_name_Hall 'P 1'
loop_
    _symmetry_equiv_pos_as_xyz
    x,y,z
loop_
    _atom_site_label
    _atom_site_type_symbol
    _atom_site_fract_x
    _atom_site_fract_y
    _atom_site_fract_z
    _atom_site_occupancy
    La1      La       0.75400    0.80541    0.94478    1.000
    La2      La       0.74680    0.77503    0.55484    1.000
    P1       P        0.88550    0.89890    0.62440    1.000
    P2       P        0.26080    0.86030    0.02230    1.000
    P3       P        0.78500    0.76698    0.10700    1.000
    P4       P        0.23150    0.17240    0.98190    1.000
    P5       P        0.71570    0.73626    0.39320    1.000
    P6       P        0.60420    0.93250    0.88430    1.000
    O1       O        0.76000    0.85110    0.61810    1.000
    O2       O        0.91800    0.93390    0.57480    1.000
    O3       O        0.77400    0.92790    0.67390    1.000
    O4       O        0.03600    0.86330    0.98430    1.000
    O5       O        0.27100    0.81880    0.06760    1.000
    O6       O        0.47300    0.86200    0.98790    1.000
    O7       O        0.57600    0.74060    0.12580    1.000
    O8       O        0.99400    0.74280    0.13280    1.000
    O9       O        0.78300    0.77430    0.04390    1.000
    O10      O        0.45900    0.16940    0.01680    1.000
    O11      O        0.03700    0.17170    0.01910    1.000
    O12      O        0.22000    0.21140    0.93600    1.000
    O13      O        0.91900    0.70880    0.37300    1.000
    O14      O        0.49600    0.71150    0.36860    1.000
    O15      O        0.71200    0.73740    0.46010    1.000
    O16      O        0.70000    0.96740    0.84140    1.000
    O17      O        0.57700    0.96000    0.93790    1.000
    O18      O        0.72300    0.88400    0.88770    1.000
    C1       C        0.17000    0.88570    0.65170    1.000
    H1       H        0.22970    0.91550    0.67120    1.000
    H2       H        0.25930    0.87920    0.61950    1.000
    C2       C        0.42800    0.83840    0.72090    1.000
    H3       H        0.45600    0.80590    0.73880    1.000
    H4       H        0.53290    0.84270    0.69150    1.000
    C3       C        0.46400    0.87980    0.76540    1.000
    H5       H        0.44590    0.91240    0.74690    1.000
    H6       H        0.61400    0.87780    0.78260    1.000
    C4       C        0.07200    0.87570    0.78520    1.000
    H7       H        0.97000    0.87010    0.81490    1.000
    H8       H        0.03860    0.90850    0.76830    1.000
    C5       C        0.03700    0.83510    0.73950    1.000
    H9       H        0.88640    0.83720    0.72270    1.000
    H10      H        0.05570    0.80220    0.75730    1.000
    C6       C        0.27400    0.92080    0.06250    1.000
    H11      H        0.14200    0.92410    0.08390    1.000
    H12      H        0.40190    0.92050    0.08970    1.000
    C7       C        0.38600    0.01100    0.05390    1.000
    H13      H        0.53270    0.00280    0.07090    1.000
    H14      H        0.29340    0.02030    0.08440    1.000
    C8       C        0.40400    0.05570    0.01250    1.000
    H15      H        0.46790    0.08460    0.03290    1.000
    H16      H        0.50060    0.04680    0.98250    1.000
    C9       C        0.07900    0.02210    0.95500    1.000
    H17      H        0.93100    0.02990    0.93880    1.000
    H18      H        0.16980    0.01310    0.92390    1.000
    C10      C        0.06700    0.97820    0.99540    1.000
    H19      H        0.96750    0.98640    0.02490    1.000
    H20      H        0.00720    0.94910    0.97460    1.000
    C11      C        0.77100    0.83200    0.13080    1.000
    H21      H        0.89880    0.84970    0.11780    1.000
    H22      H        0.64010    0.84720    0.11150    1.000
    C12      C        0.56300    0.82150    0.21460    1.000
    H23      H        0.55750    0.78550    0.20720    1.000
    H24      H        0.43600    0.83670    0.19370    1.000
    C13      C        0.54300    0.83100    0.28260    1.000
    H25      H        0.54670    0.86670    0.29160    1.000
    H26      H        0.40840    0.81640    0.29570    1.000
    C14      C        0.94100    0.82970    0.29290    1.000
    H27      H        0.06750    0.81210    0.31120    1.000
    H28      H        0.94510    0.86450    0.30550    1.000
    C15      C        0.94700    0.82680    0.22760    1.000
    H29      H        0.07090    0.84700    0.21680    1.000
    H30      H        0.97900    0.79210    0.21790    1.000
    C16      C        0.18900    0.11150    0.94380    1.000
    H31      H        0.05240    0.11270    0.91980    1.000
    H32      H        0.31060    0.10560    0.91950    1.000
    C17      C        0.71800    0.80060    0.37040    1.000
    H33      H        0.84230    0.81780    0.39020    1.000
    H34      H        0.58300    0.81690    0.38100    1.000
    C18      C        0.31100    0.91840    0.85410    1.000
    H35      H        0.21950    0.90960    0.88520    1.000
    H36      H        0.24840    0.94840    0.83580    1.000
    N1       N        0.19400    0.83990    0.69380    1.000
    H37      H        0.17660    0.81160    0.67190    1.000
    N2       N        0.30400    0.87550    0.81090    1.000
    H38      H        0.32890    0.84590    0.82990    1.000
    N3       N        0.28900    0.96510    0.02280    1.000
    H39      H        0.37950    0.95650    0.99490    1.000
    N4       N        0.17800    0.06890    0.98660    1.000
    H40      H        0.08960    0.07810    0.01480    1.000
    N5       N        0.76200    0.84160    0.19340    1.000
    H41      H        0.75230    0.87560    0.19730    1.000
    N6       N        0.73600    0.80590    0.30730    1.000
    H42      H        0.73530    0.77420    0.29240    1.000
    La3      La       0.25400    0.30541    0.94478    1.000
    La4      La       0.24680    0.27503    0.55484    1.000
    P7       P        0.38550    0.39890    0.62440    1.000
    P8       P        0.76080    0.36030    0.02230    1.000
    P9       P        0.28500    0.26698    0.10700    1.000
    P10      P        0.73150    0.67240    0.98190    1.000
    P11      P        0.21570    0.23626    0.39320    1.000
    P12      P        0.10420    0.43250    0.88430    1.000
    O19      O        0.26000    0.35110    0.61810    1.000
    O20      O        0.41800    0.43390    0.57480    1.000
    O21      O        0.27400    0.42790    0.67390    1.000
    O22      O        0.53600    0.36330    0.98430    1.000
    O23      O        0.77100    0.31880    0.06760    1.000
    O24      O        0.97300    0.36200    0.98790    1.000
    O25      O        0.07600    0.24060    0.12580    1.000
    O26      O        0.49400    0.24280    0.13280    1.000
    O27      O        0.28300    0.27430    0.04390    1.000
    O28      O        0.95900    0.66940    0.01680    1.000
    O29      O        0.53700    0.67170    0.01910    1.000
    O30      O        0.72000    0.71140    0.93600    1.000
    O31      O        0.41900    0.20880    0.37300    1.000
    O32      O        0.99600    0.21150    0.36860    1.000
    O33      O        0.21200    0.23740    0.46010    1.000
    O34      O        0.20000    0.46740    0.84140    1.000
    O35      O        0.07700    0.46000    0.93790    1.000
    O36      O        0.22300    0.38400    0.88770    1.000
    C19      C        0.67000    0.38570    0.65170    1.000
    H43      H        0.72970    0.41550    0.67120    1.000
    H44      H        0.75930    0.37920    0.61950    1.000
    C20      C        0.92800    0.33840    0.72090    1.000
    H45      H        0.95600    0.30590    0.73880    1.000
    H46      H        0.03290    0.34270    0.69150    1.000
    C21      C        0.96400    0.37980    0.76540    1.000
    H47      H        0.94590    0.41240    0.74690    1.000
    H48      H        0.11400    0.37780    0.78260    1.000
    C22      C        0.57200    0.37570    0.78520    1.000
    H49      H        0.47000    0.37010    0.81490    1.000
    H50      H        0.53860    0.40850    0.76830    1.000
    C23      C        0.53700    0.33510    0.73950    1.000
    H51      H        0.38640    0.33720    0.72270    1.000
    H52      H        0.55570    0.30220    0.75730    1.000
    C24      C        0.77400    0.42080    0.06250    1.000
    H53      H        0.64200    0.42410    0.08390    1.000
    H54      H        0.90190    0.42050    0.08970    1.000
    C25      C        0.88600    0.51100    0.05390    1.000
    H55      H        0.03270    0.50280    0.07090    1.000
    H56      H        0.79340    0.52030    0.08440    1.000
    C26      C        0.90400    0.55570    0.01250    1.000
    H57      H        0.96790    0.58460    0.03290    1.000
    H58      H        0.00060    0.54680    0.98250    1.000
    C27      C        0.57900    0.52210    0.95500    1.000
    H59      H        0.43100    0.52990    0.93880    1.000
    H60      H        0.66980    0.51310    0.92390    1.000
    C28      C        0.56700    0.47820    0.99540    1.000
    H61      H        0.46750    0.48640    0.02490    1.000
    H62      H        0.50720    0.44910    0.97460    1.000
    C29      C        0.27100    0.33200    0.13080    1.000
    H63      H        0.39880    0.34970    0.11780    1.000
    H64      H        0.14010    0.34720    0.11150    1.000
    C30      C        0.06300    0.32150    0.21460    1.000
    H65      H        0.05750    0.28550    0.20720    1.000
    H66      H        0.93600    0.33670    0.19370    1.000
    C31      C        0.04300    0.33100    0.28260    1.000
    H67      H        0.04670    0.36670    0.29160    1.000
    H68      H        0.90840    0.31640    0.29570    1.000
    C32      C        0.44100    0.32970    0.29290    1.000
    H69      H        0.56750    0.31210    0.31120    1.000
    H70      H        0.44510    0.36450    0.30550    1.000
    C33      C        0.44700    0.32680    0.22760    1.000
    H71      H        0.57090    0.34700    0.21680    1.000
    H72      H        0.47900    0.29210    0.21790    1.000
    C34      C        0.68900    0.61150    0.94380    1.000
    H73      H        0.55240    0.61270    0.91980    1.000
    H74      H        0.81060    0.60560    0.91950    1.000
    C35      C        0.21800    0.30060    0.37040    1.000
    H75      H        0.34230    0.31780    0.39020    1.000
    H76      H        0.08300    0.31690    0.38100    1.000
    C36      C        0.81100    0.41840    0.85410    1.000
    H77      H        0.71950    0.40960    0.88520    1.000
    H78      H        0.74840    0.44840    0.83580    1.000
    N7       N        0.69400    0.33990    0.69380    1.000
    H79      H        0.67660    0.31160    0.67190    1.000
    N8       N        0.80400    0.37550    0.81090    1.000
    H80      H        0.82890    0.34590    0.82990    1.000
    N9       N        0.78900    0.46510    0.02280    1.000
    H81      H        0.87950    0.45650    0.99490    1.000
    N10      N        0.67800    0.56890    0.98660    1.000
    H82      H        0.58960    0.57810    0.01480    1.000
    N11      N        0.26200    0.34160    0.19340    1.000
    H83      H        0.25230    0.37560    0.19730    1.000
    N12      N        0.23600    0.30590    0.30730    1.000
    H84      H        0.23530    0.27420    0.29240    1.000
    La5      La       0.75400    0.19459    0.44478    1.000
    La6      La       0.74680    0.22497    0.05484    1.000
    P13      P        0.88550    0.10110    0.12440    1.000
    P14      P        0.26080    0.13970    0.52230    1.000
    P15      P        0.78500    0.23302    0.60700    1.000
    P16      P        0.23150    0.82760    0.48190    1.000
    P17      P        0.71570    0.26374    0.89320    1.000
    P18      P        0.60420    0.06750    0.38430    1.000
    O37      O        0.76000    0.14890    0.11810    1.000
    O38      O        0.91800    0.06610    0.07480    1.000
    O39      O        0.77400    0.07210    0.17390    1.000
    O40      O        0.03600    0.13670    0.48430    1.000
    O41      O        0.27100    0.18120    0.56760    1.000
    O42      O        0.47300    0.13800    0.48790    1.000
    O43      O        0.57600    0.25940    0.62580    1.000
    O44      O        0.99400    0.25720    0.63280    1.000
    O45      O        0.78300    0.22570    0.54390    1.000
    O46      O        0.45900    0.83060    0.51680    1.000
    O47      O        0.03700    0.82830    0.51910    1.000
    O48      O        0.22000    0.78860    0.43600    1.000
    O49      O        0.91900    0.29120    0.87300    1.000
    O50      O        0.49600    0.28850    0.86860    1.000
    O51      O        0.71200    0.26260    0.96010    1.000
    O52      O        0.70000    0.03260    0.34140    1.000
    O53      O        0.57700    0.04000    0.43790    1.000
    O54      O        0.72300    0.11600    0.38770    1.000
    C37      C        0.17000    0.11430    0.15170    1.000
    H85      H        0.22970    0.08450    0.17120    1.000
    H86      H        0.25930    0.12080    0.11950    1.000
    C38      C        0.42800    0.16160    0.22090    1.000
    H87      H        0.45600    0.19410    0.23880    1.000
    H88      H        0.53290    0.15730    0.19150    1.000
    C39      C        0.46400    0.12020    0.26540    1.000
    H89      H        0.44590    0.08760    0.24690    1.000
    H90      H        0.61400    0.12220    0.28260    1.000
    C40      C        0.07200    0.12430    0.28520    1.000
    H91      H        0.97000    0.12990    0.31490    1.000
    H92      H        0.03860    0.09150    0.26830    1.000
    C41      C        0.03700    0.16490    0.23950    1.000
    H93      H        0.88640    0.16280    0.22270    1.000
    H94      H        0.05570    0.19780    0.25730    1.000
    C42      C        0.27400    0.07920    0.56250    1.000
    H95      H        0.14200    0.07590    0.58390    1.000
    H96      H        0.40190    0.07950    0.58970    1.000
    C43      C        0.38600    0.98900    0.55390    1.000
    H97      H        0.53270    0.99720    0.57090    1.000
    H98      H        0.29340    0.97970    0.58440    1.000
    C44      C        0.40400    0.94430    0.51250    1.000
    H99      H        0.46790    0.91540    0.53290    1.000
    H100     H        0.50060    0.95320    0.48250    1.000
    C45      C        0.07900    0.97790    0.45500    1.000
    H101     H        0.93100    0.97010    0.43880    1.000
    H102     H        0.16980    0.98690    0.42390    1.000
    C46      C        0.06700    0.02180    0.49540    1.000
    H103     H        0.96750    0.01360    0.52490    1.000
    H104     H        0.00720    0.05090    0.47460    1.000
    C47      C        0.77100    0.16800    0.63080    1.000
    H105     H        0.89880    0.15030    0.61780    1.000
    H106     H        0.64010    0.15280    0.61150    1.000
    C48      C        0.56300    0.17850    0.71460    1.000
    H107     H        0.55750    0.21450    0.70720    1.000
    H108     H        0.43600    0.16330    0.69370    1.000
    C49      C        0.54300    0.16900    0.78260    1.000
    H109     H        0.54670    0.13330    0.79160    1.000
    H110     H        0.40840    0.18360    0.79570    1.000
    C50      C        0.94100    0.17030    0.79290    1.000
    H111     H        0.06750    0.18790    0.81120    1.000
    H112     H        0.94510    0.13550    0.80550    1.000
    C51      C        0.94700    0.17320    0.72760    1.000
    H113     H        0.07090    0.15300    0.71680    1.000
    H114     H        0.97900    0.20790    0.71790    1.000
    C52      C        0.18900    0.88850    0.44380    1.000
    H115     H        0.05240    0.88730    0.41980    1.000
    H116     H        0.31060    0.89440    0.41950    1.000
    C53      C        0.71800    0.19940    0.87040    1.000
    H117     H        0.84230    0.18220    0.89020    1.000
    H118     H        0.58300    0.18310    0.88100    1.000
    C54      C        0.31100    0.08160    0.35410    1.000
    H119     H        0.21950    0.09040    0.38520    1.000
    H120     H        0.24840    0.05160    0.33580    1.000
    N13      N        0.19400    0.16010    0.19380    1.000
    H121     H        0.17660    0.18840    0.17190    1.000
    N14      N        0.30400    0.12450    0.31090    1.000
    H122     H        0.32890    0.15410    0.32990    1.000
    N15      N        0.28900    0.03490    0.52280    1.000
    H123     H        0.37950    0.04350    0.49490    1.000
    N16      N        0.17800    0.93110    0.48660    1.000
    H124     H        0.08960    0.92190    0.51480    1.000
    N17      N        0.76200    0.15840    0.69340    1.000
    H125     H        0.75230    0.12440    0.69730    1.000
    N18      N        0.73600    0.19410    0.80730    1.000
    H126     H        0.73530    0.22580    0.79240    1.000
    La7      La       0.25400    0.69459    0.44478    1.000
    La8      La       0.24680    0.72497    0.05484    1.000
    P19      P        0.38550    0.60110    0.12440    1.000
    P20      P        0.76080    0.63970    0.52230    1.000
    P21      P        0.28500    0.73302    0.60700    1.000
    P22      P        0.73150    0.32760    0.48190    1.000
    P23      P        0.21570    0.76374    0.89320    1.000
    P24      P        0.10420    0.56750    0.38430    1.000
    O55      O        0.26000    0.64890    0.11810    1.000
    O56      O        0.41800    0.56610    0.07480    1.000
    O57      O        0.27400    0.57210    0.17390    1.000
    O58      O        0.53600    0.63670    0.48430    1.000
    O59      O        0.77100    0.68120    0.56760    1.000
    O60      O        0.97300    0.63800    0.48790    1.000
    O61      O        0.07600    0.75940    0.62580    1.000
    O62      O        0.49400    0.75720    0.63280    1.000
    O63      O        0.28300    0.72570    0.54390    1.000
    O64      O        0.95900    0.33060    0.51680    1.000
    O65      O        0.53700    0.32830    0.51910    1.000
    O66      O        0.72000    0.28860    0.43600    1.000
    O67      O        0.41900    0.79120    0.87300    1.000
    O68      O        0.99600    0.78850    0.86860    1.000
    O69      O        0.21200    0.76260    0.96010    1.000
    O70      O        0.20000    0.53260    0.34140    1.000
    O71      O        0.07700    0.54000    0.43790    1.000
    O72      O        0.22300    0.61600    0.38770    1.000
    C55      C        0.67000    0.61430    0.15170    1.000
    H127     H        0.72970    0.58450    0.17120    1.000
    H128     H        0.75930    0.62080    0.11950    1.000
    C56      C        0.92800    0.66160    0.22090    1.000
    H129     H        0.95600    0.69410    0.23880    1.000
    H130     H        0.03290    0.65730    0.19150    1.000
    C57      C        0.96400    0.62020    0.26540    1.000
    H131     H        0.94590    0.58760    0.24690    1.000
    H132     H        0.11400    0.62220    0.28260    1.000
    C58      C        0.57200    0.62430    0.28520    1.000
    H133     H        0.47000    0.62990    0.31490    1.000
    H134     H        0.53860    0.59150    0.26830    1.000
    C59      C        0.53700    0.66490    0.23950    1.000
    H135     H        0.38640    0.66280    0.22270    1.000
    H136     H        0.55570    0.69780    0.25730    1.000
    C60      C        0.77400    0.57920    0.56250    1.000
    H137     H        0.64200    0.57590    0.58390    1.000
    H138     H        0.90190    0.57950    0.58970    1.000
    C61      C        0.88600    0.48900    0.55390    1.000
    H139     H        0.03270    0.49720    0.57090    1.000
    H140     H        0.79340    0.47970    0.58440    1.000
    C62      C        0.90400    0.44430    0.51250    1.000
    H141     H        0.96790    0.41540    0.53290    1.000
    H142     H        0.00060    0.45320    0.48250    1.000
    C63      C        0.57900    0.47790    0.45500    1.000
    H143     H        0.43100    0.47010    0.43880    1.000
    H144     H        0.66980    0.48690    0.42390    1.000
    C64      C        0.56700    0.52180    0.49540    1.000
    H145     H        0.46750    0.51360    0.52490    1.000
    H146     H        0.50720    0.55090    0.47460    1.000
    C65      C        0.27100    0.66800    0.63080    1.000
    H147     H        0.39880    0.65030    0.61780    1.000
    H148     H        0.14010    0.65280    0.61150    1.000
    C66      C        0.06300    0.67850    0.71460    1.000
    H149     H        0.05750    0.71450    0.70720    1.000
    H150     H        0.93600    0.66330    0.69370    1.000
    C67      C        0.04300    0.66900    0.78260    1.000
    H151     H        0.04670    0.63330    0.79160    1.000
    H152     H        0.90840    0.68360    0.79570    1.000
    C68      C        0.44100    0.67030    0.79290    1.000
    H153     H        0.56750    0.68790    0.81120    1.000
    H154     H        0.44510    0.63550    0.80550    1.000
    C69      C        0.44700    0.67320    0.72760    1.000
    H155     H        0.57090    0.65300    0.71680    1.000
    H156     H        0.47900    0.70790    0.71790    1.000
    C70      C        0.68900    0.38850    0.44380    1.000
    H157     H        0.55240    0.38730    0.41980    1.000
    H158     H        0.81060    0.39440    0.41950    1.000
    C71      C        0.21800    0.69940    0.87040    1.000
    H159     H        0.34230    0.68220    0.89020    1.000
    H160     H        0.08300    0.68310    0.88100    1.000
    C72      C        0.81100    0.58160    0.35410    1.000
    H161     H        0.71950    0.59040    0.38520    1.000
    H162     H        0.74840    0.55160    0.33580    1.000
    N19      N        0.69400    0.66010    0.19380    1.000
    H163     H        0.67660    0.68840    0.17190    1.000
    N20      N        0.80400    0.62450    0.31090    1.000
    H164     H        0.82890    0.65410    0.32990    1.000
    N21      N        0.78900    0.53490    0.52280    1.000
    H165     H        0.87950    0.54350    0.49490    1.000
    N22      N        0.67800    0.43110    0.48660    1.000
    H166     H        0.58960    0.42190    0.51480    1.000
    N23      N        0.26200    0.65840    0.69340    1.000
    H167     H        0.25230    0.62440    0.69730    1.000
    N24      N        0.23600    0.69410    0.80730    1.000
    H168     H        0.23530    0.72580    0.79240    1.000
