# CIF file generated by openbabel 3.1.0, see https://openbabel.org
data_I
_chemical_name_common 'image0'
_cell_length_a 28.123
_cell_length_b 28.123
_cell_length_c 14.436
_cell_angle_alpha 90
_cell_angle_beta 90
_cell_angle_gamma 120
_space_group_name_H-M_alt 'P 1'
_space_group_name_Hall 'P 1'
loop_
    _symmetry_equiv_pos_as_xyz
    x,y,z
loop_
    _atom_site_label
    _atom_site_type_symbol
    _atom_site_fract_x
    _atom_site_fract_y
    _atom_site_fract_z
    _atom_site_occupancy
    Ag1      Ag       0.79960    0.07384    0.39670    1.000
    N1       N        0.74320    0.88080    0.54840    1.000
    C1       C        0.75790    0.89160    0.45860    1.000
    H1       H        0.75700    0.86370    0.42020    1.000
    N2       N        0.75120    0.01400    0.28080    1.000
    C2       C        0.74510    0.92000    0.59620    1.000
    H2       H        0.73660    0.91350    0.66030    1.000
    N3       N        0.67690    0.93490    0.15790    1.000
    N4       N        0.77570    0.98400    0.47240    1.000
    C3       C        0.67720    0.98210    0.16830    1.000
    H3       H        0.65220    0.98850    0.13380    1.000
    C4       C        0.74900    0.96630    0.26530    1.000
    C5       C        0.71480    0.92700    0.20520    1.000
    H4       H        0.71690    0.89470    0.19600    1.000
    C6       C        0.77520    0.94610    0.41990    1.000
    C7       C        0.79240    0.95790    0.32410    1.000
    H5       H        0.79560    0.92710    0.29770    1.000
    H6       H        0.82890    0.99150    0.32060    1.000
    C8       C        0.75860    0.97100    0.56170    1.000
    H7       H        0.75590    0.99700    0.60020    1.000
    C9       C        0.71240    0.02080    0.22680    1.000
    H8       H        0.71150    0.05400    0.23250    1.000
    Ag2      Ag       0.46627    0.40717    0.73003    1.000
    N5       N        0.40987    0.21413    0.88173    1.000
    C10      C        0.42457    0.22493    0.79193    1.000
    H9       H        0.42367    0.19703    0.75353    1.000
    N6       N        0.41787    0.34733    0.61413    1.000
    C11      C        0.41177    0.25333    0.92953    1.000
    H10      H        0.40327    0.24683    0.99363    1.000
    N7       N        0.34357    0.26823    0.49123    1.000
    N8       N        0.44237    0.31733    0.80573    1.000
    C12      C        0.34387    0.31543    0.50163    1.000
    H11      H        0.31887    0.32183    0.46713    1.000
    C13      C        0.41567    0.29963    0.59863    1.000
    C14      C        0.38147    0.26033    0.53853    1.000
    H12      H        0.38357    0.22803    0.52933    1.000
    C15      C        0.44187    0.27943    0.75323    1.000
    C16      C        0.45907    0.29123    0.65743    1.000
    H13      H        0.46227    0.26043    0.63103    1.000
    H14      H        0.49557    0.32483    0.65393    1.000
    C17      C        0.42527    0.30433    0.89503    1.000
    H15      H        0.42257    0.33033    0.93353    1.000
    C18      C        0.37907    0.35413    0.56013    1.000
    H16      H        0.37817    0.38733    0.56583    1.000
    Ag3      Ag       0.13293    0.74051    0.06337    1.000
    N9       N        0.07653    0.54747    0.21507    1.000
    C19      C        0.09123    0.55827    0.12527    1.000
    H17      H        0.09033    0.53037    0.08687    1.000
    N10      N        0.08453    0.68067    0.94747    1.000
    C20      C        0.07843    0.58667    0.26287    1.000
    H18      H        0.06993    0.58017    0.32697    1.000
    N11      N        0.01023    0.60157    0.82457    1.000
    N12      N        0.10903    0.65067    0.13907    1.000
    C21      C        0.01053    0.64877    0.83497    1.000
    H19      H        0.98553    0.65517    0.80047    1.000
    C22      C        0.08233    0.63297    0.93197    1.000
    C23      C        0.04813    0.59367    0.87187    1.000
    H20      H        0.05023    0.56137    0.86267    1.000
    C24      C        0.10853    0.61277    0.08657    1.000
    C25      C        0.12573    0.62457    0.99077    1.000
    H21      H        0.12893    0.59377    0.96437    1.000
    H22      H        0.16223    0.65817    0.98727    1.000
    C26      C        0.09193    0.63767    0.22837    1.000
    H23      H        0.08923    0.66367    0.26687    1.000
    C27      C        0.04573    0.68747    0.89347    1.000
    H24      H        0.04483    0.72067    0.89917    1.000
    Ag4      Ag       0.92616    0.72576    0.39670    1.000
    N13      N        0.11920    0.86240    0.54840    1.000
    C28      C        0.10840    0.86630    0.45860    1.000
    H25      H        0.13630    0.89330    0.42020    1.000
    N14      N        0.98600    0.73720    0.28080    1.000
    C29      C        0.08000    0.82510    0.59620    1.000
    H26      H        0.08650    0.82310    0.66030    1.000
    N15      N        0.06510    0.74200    0.15790    1.000
    N16      N        0.01600    0.79170    0.47240    1.000
    C30      C        0.01790    0.69510    0.16830    1.000
    H27      H        0.01150    0.66370    0.13380    1.000
    C31      C        0.03370    0.78270    0.26530    1.000
    C32      C        0.07300    0.78780    0.20520    1.000
    H28      H        0.10530    0.82220    0.19600    1.000
    C33      C        0.05390    0.82910    0.41990    1.000
    C34      C        0.04210    0.83450    0.32410    1.000
    H29      H        0.07290    0.86850    0.29770    1.000
    H30      H        0.00850    0.83740    0.32060    1.000
    C35      C        0.02900    0.78760    0.56170    1.000
    H31      H        0.00300    0.75890    0.60020    1.000
    C36      C        0.97920    0.69160    0.22680    1.000
    H32      H        0.94600    0.65750    0.23250    1.000
    Ag5      Ag       0.59283    0.05909    0.73003    1.000
    N17      N        0.78587    0.19573    0.88173    1.000
    C37      C        0.77507    0.19963    0.79193    1.000
    H33      H        0.80297    0.22663    0.75353    1.000
    N18      N        0.65267    0.07053    0.61413    1.000
    C38      C        0.74667    0.15843    0.92953    1.000
    H34      H        0.75317    0.15643    0.99363    1.000
    N19      N        0.73177    0.07533    0.49123    1.000
    N20      N        0.68267    0.12503    0.80573    1.000
    C39      C        0.68457    0.02843    0.50163    1.000
    H35      H        0.67817    0.99703    0.46713    1.000
    C40      C        0.70037    0.11603    0.59863    1.000
    C41      C        0.73967    0.12113    0.53853    1.000
    H36      H        0.77197    0.15553    0.52933    1.000
    C42      C        0.72057    0.16243    0.75323    1.000
    C43      C        0.70877    0.16783    0.65743    1.000
    H37      H        0.73957    0.20183    0.63103    1.000
    H38      H        0.67517    0.17073    0.65393    1.000
    C44      C        0.69567    0.12093    0.89503    1.000
    H39      H        0.66967    0.09223    0.93353    1.000
    C45      C        0.64587    0.02493    0.56013    1.000
    H40      H        0.61267    0.99083    0.56583    1.000
    Ag6      Ag       0.25949    0.39243    0.06337    1.000
    N21      N        0.45253    0.52907    0.21507    1.000
    C46      C        0.44173    0.53297    0.12527    1.000
    H41      H        0.46963    0.55997    0.08687    1.000
    N22      N        0.31933    0.40387    0.94747    1.000
    C47      C        0.41333    0.49177    0.26287    1.000
    H42      H        0.41983    0.48977    0.32697    1.000
    N23      N        0.39843    0.40867    0.82457    1.000
    N24      N        0.34933    0.45837    0.13907    1.000
    C48      C        0.35123    0.36177    0.83497    1.000
    H43      H        0.34483    0.33037    0.80047    1.000
    C49      C        0.36703    0.44937    0.93197    1.000
    C50      C        0.40633    0.45447    0.87187    1.000
    H44      H        0.43863    0.48887    0.86267    1.000
    C51      C        0.38723    0.49577    0.08657    1.000
    C52      C        0.37543    0.50117    0.99077    1.000
    H45      H        0.40623    0.53517    0.96437    1.000
    H46      H        0.34183    0.50407    0.98727    1.000
    C53      C        0.36233    0.45427    0.22837    1.000
    H47      H        0.33633    0.42557    0.26687    1.000
    C54      C        0.31253    0.35827    0.89347    1.000
    H48      H        0.27933    0.32417    0.89917    1.000
    Ag7      Ag       0.27424    0.20040    0.39670    1.000
    N25      N        0.13760    0.25680    0.54840    1.000
    C55      C        0.13370    0.24210    0.45860    1.000
    H49      H        0.10670    0.24300    0.42020    1.000
    N26      N        0.26280    0.24880    0.28080    1.000
    C56      C        0.17490    0.25490    0.59620    1.000
    H50      H        0.17690    0.26340    0.66030    1.000
    N27      N        0.25800    0.32310    0.15790    1.000
    N28      N        0.20830    0.22430    0.47240    1.000
    C57      C        0.30490    0.32280    0.16830    1.000
    H51      H        0.33630    0.34780    0.13380    1.000
    C58      C        0.21730    0.25100    0.26530    1.000
    C59      C        0.21220    0.28520    0.20520    1.000
    H52      H        0.17780    0.28310    0.19600    1.000
    C60      C        0.17090    0.22480    0.41990    1.000
    C61      C        0.16550    0.20760    0.32410    1.000
    H53      H        0.13150    0.20440    0.29770    1.000
    H54      H        0.16260    0.17110    0.32060    1.000
    C62      C        0.21240    0.24140    0.56170    1.000
    H55      H        0.24110    0.24410    0.60020    1.000
    C63      C        0.30840    0.28760    0.22680    1.000
    H56      H        0.34250    0.28850    0.23250    1.000
    Ag8      Ag       0.94091    0.53373    0.73003    1.000
    N29      N        0.80427    0.59013    0.88173    1.000
    C64      C        0.80037    0.57543    0.79193    1.000
    H57      H        0.77337    0.57633    0.75353    1.000
    N30      N        0.92947    0.58213    0.61413    1.000
    C65      C        0.84157    0.58823    0.92953    1.000
    H58      H        0.84357    0.59673    0.99363    1.000
    N31      N        0.92467    0.65643    0.49123    1.000
    N32      N        0.87497    0.55763    0.80573    1.000
    C66      C        0.97157    0.65613    0.50163    1.000
    H59      H        0.00297    0.68113    0.46713    1.000
    C67      C        0.88397    0.58433    0.59863    1.000
    C68      C        0.87887    0.61853    0.53853    1.000
    H60      H        0.84447    0.61643    0.52933    1.000
    C69      C        0.83757    0.55813    0.75323    1.000
    C70      C        0.83217    0.54093    0.65743    1.000
    H61      H        0.79817    0.53773    0.63103    1.000
    H62      H        0.82927    0.50443    0.65393    1.000
    C71      C        0.87907    0.57473    0.89503    1.000
    H63      H        0.90777    0.57743    0.93353    1.000
    C72      C        0.97507    0.62093    0.56013    1.000
    H64      H        0.00917    0.62183    0.56583    1.000
    Ag9      Ag       0.60757    0.86707    0.06337    1.000
    N33      N        0.47093    0.92347    0.21507    1.000
    C73      C        0.46703    0.90877    0.12527    1.000
    H65      H        0.44003    0.90967    0.08687    1.000
    N34      N        0.59613    0.91547    0.94747    1.000
    C74      C        0.50823    0.92157    0.26287    1.000
    H66      H        0.51023    0.93007    0.32697    1.000
    N35      N        0.59133    0.98977    0.82457    1.000
    N36      N        0.54163    0.89097    0.13907    1.000
    C75      C        0.63823    0.98947    0.83497    1.000
    H67      H        0.66963    0.01447    0.80047    1.000
    C76      C        0.55063    0.91767    0.93197    1.000
    C77      C        0.54553    0.95187    0.87187    1.000
    H68      H        0.51113    0.94977    0.86267    1.000
    C78      C        0.50423    0.89147    0.08657    1.000
    C79      C        0.49883    0.87427    0.99077    1.000
    H69      H        0.46483    0.87107    0.96437    1.000
    H70      H        0.49593    0.83777    0.98727    1.000
    C80      C        0.54573    0.90807    0.22837    1.000
    H71      H        0.57443    0.91077    0.26687    1.000
    C81      C        0.64173    0.95427    0.89347    1.000
    H72      H        0.67583    0.95517    0.89917    1.000
    Ag10     Ag       0.20040    0.92616    0.60330    1.000
    N37      N        0.25680    0.11920    0.45160    1.000
    C82      C        0.24210    0.10840    0.54140    1.000
    H73      H        0.24300    0.13630    0.57980    1.000
    N38      N        0.24880    0.98600    0.71920    1.000
    C83      C        0.25490    0.08000    0.40380    1.000
    H74      H        0.26340    0.08650    0.33970    1.000
    N39      N        0.32310    0.06510    0.84210    1.000
    N40      N        0.22430    0.01600    0.52760    1.000
    C84      C        0.32280    0.01790    0.83170    1.000
    H75      H        0.34780    0.01150    0.86620    1.000
    C85      C        0.25100    0.03370    0.73470    1.000
    C86      C        0.28520    0.07300    0.79480    1.000
    H76      H        0.28310    0.10530    0.80400    1.000
    C87      C        0.22480    0.05390    0.58010    1.000
    C88      C        0.20760    0.04210    0.67590    1.000
    H77      H        0.20440    0.07290    0.70230    1.000
    H78      H        0.17110    0.00850    0.67940    1.000
    C89      C        0.24140    0.02900    0.43830    1.000
    H79      H        0.24410    0.00300    0.39980    1.000
    C90      C        0.28760    0.97920    0.77320    1.000
    H80      H        0.28850    0.94600    0.76750    1.000
    Ag11     Ag       0.86707    0.25949    0.93663    1.000
    N41      N        0.92347    0.45253    0.78493    1.000
    C91      C        0.90877    0.44173    0.87473    1.000
    H81      H        0.90967    0.46963    0.91313    1.000
    N42      N        0.91547    0.31933    0.05253    1.000
    C92      C        0.92157    0.41333    0.73713    1.000
    H82      H        0.93007    0.41983    0.67303    1.000
    N43      N        0.98977    0.39843    0.17543    1.000
    N44      N        0.89097    0.34933    0.86093    1.000
    C93      C        0.98947    0.35123    0.16503    1.000
    H83      H        0.01447    0.34483    0.19953    1.000
    C94      C        0.91767    0.36703    0.06803    1.000
    C95      C        0.95187    0.40633    0.12813    1.000
    H84      H        0.94977    0.43863    0.13733    1.000
    C96      C        0.89147    0.38723    0.91343    1.000
    C97      C        0.87427    0.37543    0.00923    1.000
    H85      H        0.87107    0.40623    0.03563    1.000
    H86      H        0.83777    0.34183    0.01273    1.000
    C98      C        0.90807    0.36233    0.77163    1.000
    H87      H        0.91077    0.33633    0.73313    1.000
    C99      C        0.95427    0.31253    0.10653    1.000
    H88      H        0.95517    0.27933    0.10083    1.000
    Ag12     Ag       0.53373    0.59283    0.26997    1.000
    N45      N        0.59013    0.78587    0.11827    1.000
    C100     C        0.57543    0.77507    0.20807    1.000
    H89      H        0.57633    0.80297    0.24647    1.000
    N46      N        0.58213    0.65267    0.38587    1.000
    C101     C        0.58823    0.74667    0.07047    1.000
    H90      H        0.59673    0.75317    0.00637    1.000
    N47      N        0.65643    0.73177    0.50877    1.000
    N48      N        0.55763    0.68267    0.19427    1.000
    C102     C        0.65613    0.68457    0.49837    1.000
    H91      H        0.68113    0.67817    0.53287    1.000
    C103     C        0.58433    0.70037    0.40137    1.000
    C104     C        0.61853    0.73967    0.46147    1.000
    H92      H        0.61643    0.77197    0.47067    1.000
    C105     C        0.55813    0.72057    0.24677    1.000
    C106     C        0.54093    0.70877    0.34257    1.000
    H93      H        0.53773    0.73957    0.36897    1.000
    H94      H        0.50443    0.67517    0.34607    1.000
    C107     C        0.57473    0.69567    0.10497    1.000
    H95      H        0.57743    0.66967    0.06647    1.000
    C108     C        0.62093    0.64587    0.43987    1.000
    H96      H        0.62183    0.61267    0.43417    1.000
    Ag13     Ag       0.07384    0.27424    0.60330    1.000
    N49      N        0.88080    0.13760    0.45160    1.000
    C109     C        0.89160    0.13370    0.54140    1.000
    H97      H        0.86370    0.10670    0.57980    1.000
    N50      N        0.01400    0.26280    0.71920    1.000
    C110     C        0.92000    0.17490    0.40380    1.000
    H98      H        0.91350    0.17690    0.33970    1.000
    N51      N        0.93490    0.25800    0.84210    1.000
    N52      N        0.98400    0.20830    0.52760    1.000
    C111     C        0.98210    0.30490    0.83170    1.000
    H99      H        0.98850    0.33630    0.86620    1.000
    C112     C        0.96630    0.21730    0.73470    1.000
    C113     C        0.92700    0.21220    0.79480    1.000
    H100     H        0.89470    0.17780    0.80400    1.000
    C114     C        0.94610    0.17090    0.58010    1.000
    C115     C        0.95790    0.16550    0.67590    1.000
    H101     H        0.92710    0.13150    0.70230    1.000
    H102     H        0.99150    0.16260    0.67940    1.000
    C116     C        0.97100    0.21240    0.43830    1.000
    H103     H        0.99700    0.24110    0.39980    1.000
    C117     C        0.02080    0.30840    0.77320    1.000
    H104     H        0.05400    0.34250    0.76750    1.000
    Ag14     Ag       0.74051    0.60757    0.93663    1.000
    N53      N        0.54747    0.47093    0.78493    1.000
    C118     C        0.55827    0.46703    0.87473    1.000
    H105     H        0.53037    0.44003    0.91313    1.000
    N54      N        0.68067    0.59613    0.05253    1.000
    C119     C        0.58667    0.50823    0.73713    1.000
    H106     H        0.58017    0.51023    0.67303    1.000
    N55      N        0.60157    0.59133    0.17543    1.000
    N56      N        0.65067    0.54163    0.86093    1.000
    C120     C        0.64877    0.63823    0.16503    1.000
    H107     H        0.65517    0.66963    0.19953    1.000
    C121     C        0.63297    0.55063    0.06803    1.000
    C122     C        0.59367    0.54553    0.12813    1.000
    H108     H        0.56137    0.51113    0.13733    1.000
    C123     C        0.61277    0.50423    0.91343    1.000
    C124     C        0.62457    0.49883    0.00923    1.000
    H109     H        0.59377    0.46483    0.03563    1.000
    H110     H        0.65817    0.49593    0.01273    1.000
    C125     C        0.63767    0.54573    0.77163    1.000
    H111     H        0.66367    0.57443    0.73313    1.000
    C126     C        0.68747    0.64173    0.10653    1.000
    H112     H        0.72067    0.67583    0.10083    1.000
    Ag15     Ag       0.40717    0.94091    0.26997    1.000
    N57      N        0.21413    0.80427    0.11827    1.000
    C127     C        0.22493    0.80037    0.20807    1.000
    H113     H        0.19703    0.77337    0.24647    1.000
    N58      N        0.34733    0.92947    0.38587    1.000
    C128     C        0.25333    0.84157    0.07047    1.000
    H114     H        0.24683    0.84357    0.00637    1.000
    N59      N        0.26823    0.92467    0.50877    1.000
    N60      N        0.31733    0.87497    0.19427    1.000
    C129     C        0.31543    0.97157    0.49837    1.000
    H115     H        0.32183    0.00297    0.53287    1.000
    C130     C        0.29963    0.88397    0.40137    1.000
    C131     C        0.26033    0.87887    0.46147    1.000
    H116     H        0.22803    0.84447    0.47067    1.000
    C132     C        0.27943    0.83757    0.24677    1.000
    C133     C        0.29123    0.83217    0.34257    1.000
    H117     H        0.26043    0.79817    0.36897    1.000
    H118     H        0.32483    0.82927    0.34607    1.000
    C134     C        0.30433    0.87907    0.10497    1.000
    H119     H        0.33033    0.90777    0.06647    1.000
    C135     C        0.35413    0.97507    0.43987    1.000
    H120     H        0.38733    0.00917    0.43417    1.000
    Ag16     Ag       0.72576    0.79960    0.60330    1.000
    N61      N        0.86240    0.74320    0.45160    1.000
    C136     C        0.86630    0.75790    0.54140    1.000
    H121     H        0.89330    0.75700    0.57980    1.000
    N62      N        0.73720    0.75120    0.71920    1.000
    C137     C        0.82510    0.74510    0.40380    1.000
    H122     H        0.82310    0.73660    0.33970    1.000
    N63      N        0.74200    0.67690    0.84210    1.000
    N64      N        0.79170    0.77570    0.52760    1.000
    C138     C        0.69510    0.67720    0.83170    1.000
    H123     H        0.66370    0.65220    0.86620    1.000
    C139     C        0.78270    0.74900    0.73470    1.000
    C140     C        0.78780    0.71480    0.79480    1.000
    H124     H        0.82220    0.71690    0.80400    1.000
    C141     C        0.82910    0.77520    0.58010    1.000
    C142     C        0.83450    0.79240    0.67590    1.000
    H125     H        0.86850    0.79560    0.70230    1.000
    H126     H        0.83740    0.82890    0.67940    1.000
    C143     C        0.78760    0.75860    0.43830    1.000
    H127     H        0.75890    0.75590    0.39980    1.000
    C144     C        0.69160    0.71240    0.77320    1.000
    H128     H        0.65750    0.71150    0.76750    1.000
    Ag17     Ag       0.39243    0.13293    0.93663    1.000
    N65      N        0.52907    0.07653    0.78493    1.000
    C145     C        0.53297    0.09123    0.87473    1.000
    H129     H        0.55997    0.09033    0.91313    1.000
    N66      N        0.40387    0.08453    0.05253    1.000
    C146     C        0.49177    0.07843    0.73713    1.000
    H130     H        0.48977    0.06993    0.67303    1.000
    N67      N        0.40867    0.01023    0.17543    1.000
    N68      N        0.45837    0.10903    0.86093    1.000
    C147     C        0.36177    0.01053    0.16503    1.000
    H131     H        0.33037    0.98553    0.19953    1.000
    C148     C        0.44937    0.08233    0.06803    1.000
    C149     C        0.45447    0.04813    0.12813    1.000
    H132     H        0.48887    0.05023    0.13733    1.000
    C150     C        0.49577    0.10853    0.91343    1.000
    C151     C        0.50117    0.12573    0.00923    1.000
    H133     H        0.53517    0.12893    0.03563    1.000
    H134     H        0.50407    0.16223    0.01273    1.000
    C152     C        0.45427    0.09193    0.77163    1.000
    H135     H        0.42557    0.08923    0.73313    1.000
    C153     C        0.35827    0.04573    0.10653    1.000
    H136     H        0.32417    0.04483    0.10083    1.000
    Ag18     Ag       0.05909    0.46627    0.26997    1.000
    N69      N        0.19573    0.40987    0.11827    1.000
    C154     C        0.19963    0.42457    0.20807    1.000
    H137     H        0.22663    0.42367    0.24647    1.000
    N70      N        0.07053    0.41787    0.38587    1.000
    C155     C        0.15843    0.41177    0.07047    1.000
    H138     H        0.15643    0.40327    0.00637    1.000
    N71      N        0.07533    0.34357    0.50877    1.000
    N72      N        0.12503    0.44237    0.19427    1.000
    C156     C        0.02843    0.34387    0.49837    1.000
    H139     H        0.99703    0.31887    0.53287    1.000
    C157     C        0.11603    0.41567    0.40137    1.000
    C158     C        0.12113    0.38147    0.46147    1.000
    H140     H        0.15553    0.38357    0.47067    1.000
    C159     C        0.16243    0.44187    0.24677    1.000
    C160     C        0.16783    0.45907    0.34257    1.000
    H141     H        0.20183    0.46227    0.36897    1.000
    H142     H        0.17073    0.49557    0.34607    1.000
    C161     C        0.12093    0.42527    0.10497    1.000
    H143     H        0.09223    0.42257    0.06647    1.000
    C162     C        0.02493    0.37907    0.43987    1.000
    H144     H        0.99083    0.37817    0.43417    1.000
