data_functionalizedCrystal
_audit_creation_method	'EQeq! by Chris Wilmer'
_symmetry_space_group_name_H-M	'P1'
_symmetry_Int_Tables_number	1
_symmetry_cell_setting	triclinic
loop_
_symmetry_equiv_pos_as_xyz
  x,y,z
_cell_length_a	10.0523
_cell_length_b	14.3295
_cell_length_c	14.3295
_cell_angle_alpha	120
_cell_angle_beta	90
_cell_angle_gamma	90
loop_
_atom_site_label
_atom_site_type_symbol
_atom_site_fract_x
_atom_site_fract_y
_atom_site_fract_z
_atom_site_charge
Mof_Mn	Mn	0.60428	0.3396	0.87483	0.904
Mof_Mn	Mn	0.27095	0.53523	0.6604	0.909
Mof_Mn	Mn	0.93761	0.12517	0.46477	0.877
Mof_Mn	Mn	0.10428	0.6604	0.12517	0.92
Mof_Mn	Mn	0.77095	0.46477	0.3396	0.903
Mof_Mn	Mn	0.43761	0.87483	0.53523	0.906
Mof_C 	C 	0.8018	0.2203	0.6813	0.323
Mof_C 	C 	0.7147	0.1285	0.6094	-0.039
Mof_C 	C 	0.6041	0.0793	0.6234	-0.036
Mof_C 	C 	0.5142	0.0973	0.7142	0.337
Mof_C 	C 	0.46847	0.461	0.7797	0.323
Mof_C 	C 	0.38137	0.4809	0.8715	-0.037
Mof_C 	C 	0.27077	0.5441	0.9207	-0.033
Mof_C 	C 	0.18087	0.6169	0.9027	0.339
Mof_C 	C 	0.13513	0.3187	0.539	0.314
Mof_C 	C 	0.04803	0.3906	0.5191	0.003
Mof_C 	C 	0.93743	0.3766	0.4559	-0.07
Mof_C 	C 	0.84753	0.2858	0.3831	0.346
Mof_C 	C 	0.3018	0.7797	0.3187	0.322
Mof_C 	C 	0.2147	0.8715	0.3906	-0.033
Mof_C 	C 	0.1041	0.9207	0.3766	-0.041
Mof_C 	C 	0.0142	0.9027	0.2858	0.369
Mof_C 	C 	0.96847	0.539	0.2203	0.291
Mof_C 	C 	0.88137	0.5191	0.1285	-0.032
Mof_C 	C 	0.77077	0.4559	0.0793	-0.038
Mof_C 	C 	0.68087	0.3831	0.0973	0.338
Mof_C 	C 	0.63513	0.6813	0.461	0.323
Mof_C 	C 	0.54803	0.6094	0.4809	-0.038
Mof_C 	C 	0.43743	0.6234	0.5441	-0.035
Mof_C 	C 	0.34753	0.7142	0.6169	0.338
Mof_N 	N 	0.75	0.0703	0.505	-0.135
Mof_N 	N 	0.6662	0.9882	0.4563	-0.061
Mof_N 	N 	0.5778	0.9917	0.5263	-0.129
Mof_N 	N 	0.41667	0.4347	0.9297	-0.135
Mof_N 	N 	0.33287	0.4681	0.0118	-0.059
Mof_N 	N 	0.24447	0.5346	0.0083	-0.128
Mof_N 	N 	0.08333	0.495	0.5653	-0.128
Mof_N 	N 	0.99953	0.5437	0.5319	-0.076
Mof_N 	N 	0.91113	0.4737	0.4654	-0.127
Mof_N 	N 	0.25	0.9297	0.495	-0.136
Mof_N 	N 	0.1662	0.0118	0.5437	-0.056
Mof_N 	N 	0.0778	0.0083	0.4737	-0.117
Mof_N 	N 	0.91667	0.5653	0.0703	-0.144
Mof_N 	N 	0.83287	0.5319	0.9882	-0.064
Mof_N 	N 	0.74447	0.4654	0.9917	-0.13
Mof_N 	N 	0.58333	0.505	0.4347	-0.135
Mof_N 	N 	0.49953	0.4563	0.4681	-0.06
Mof_N 	N 	0.41113	0.5263	0.5346	-0.129
Mof_O 	O 	0.8969	0.2399	0.6362	-0.372
Mof_O 	O 	0.7816	0.2716	0.7815	-0.353
Mof_O 	O 	0.5089	0.1875	0.7975	-0.358
Mof_O 	O 	0.4432	0.0185	0.697	-0.328
Mof_O 	O 	0.56357	0.3963	0.7601	-0.365
Mof_O 	O 	0.44827	0.5099	0.7284	-0.35
Mof_O 	O 	0.17557	0.61	0.8125	-0.352
Mof_O 	O 	0.10987	0.6785	0.9815	-0.322
Mof_O 	O 	0.23023	0.3638	0.6037	-0.36
Mof_O 	O 	0.11493	0.2185	0.4901	-0.331
Mof_O 	O 	0.84223	0.2025	0.39	-0.363
Mof_O 	O 	0.77653	0.303	0.3215	-0.333
Mof_O 	O 	0.3969	0.7601	0.3638	-0.365
Mof_O 	O 	0.2816	0.7284	0.2185	-0.35
Mof_O 	O 	0.0089	0.8125	0.2025	-0.358
Mof_O 	O 	0.9432	0.9815	0.303	-0.352
Mof_O 	O 	0.06357	0.6037	0.2399	-0.34
Mof_O 	O 	0.94827	0.4901	0.2716	-0.349
Mof_O 	O 	0.67557	0.39	0.1875	-0.359
Mof_O 	O 	0.60987	0.3215	0.0185	-0.329
Mof_O 	O 	0.73023	0.6362	0.3963	-0.366
Mof_O 	O 	0.61493	0.7815	0.5099	-0.35
Mof_O 	O 	0.34223	0.7975	0.61	-0.357
Mof_O 	O 	0.27653	0.697	0.6785	-0.326
Mof_H 	H 	0.139	0.7581	0.5065	0.165
Mof_H 	H 	0.0696	0.6689	0.5052	0.193
Mof_H 	H 	0.0825	0.6832	0.4123	0.177
Mof_H 	H 	0.9959	0.7624	0.4948	0.16
Mof_N 	N 	0.0647	0.7178	0.4834	-0.46
Mof_H 	H 	0.80567	0.7484	0.2419	0.16
Mof_H 	H 	0.73627	0.8363	0.3311	0.186
Mof_H 	H 	0.74917	0.7291	0.3168	0.173
Mof_H 	H 	0.66257	0.7324	0.2376	0.182
Mof_N 	N 	0.73137	0.7656	0.2822	-0.477
Mof_H 	H 	0.47233	0.4935	0.2516	0.167
Mof_H 	H 	0.40293	0.4948	0.1637	0.19
Mof_H 	H 	0.41583	0.5877	0.2709	0.176
Mof_H 	H 	0.32923	0.5052	0.2676	0.186
Mof_N 	N 	0.39803	0.5166	0.2344	-0.482
Mof_H 	H 	0.639	0.2419	0.4935	0.167
Mof_H 	H 	0.5696	0.3311	0.4948	0.189
Mof_H 	H 	0.5825	0.3168	0.5877	0.175
Mof_H 	H 	0.4959	0.2376	0.5052	0.184
Mof_N 	N 	0.5647	0.2822	0.5166	-0.481
Mof_H 	H 	0.30567	0.2516	0.7581	0.168
Mof_H 	H 	0.23627	0.1637	0.6689	0.193
Mof_H 	H 	0.24917	0.2709	0.6832	0.178
Mof_H 	H 	0.16257	0.2676	0.7624	0.192
Mof_N 	N 	0.23137	0.2344	0.7178	-0.485
Mof_H 	H 	0.97233	0.5065	0.7484	0.153
Mof_H 	H 	0.90293	0.5052	0.8363	0.181
Mof_H 	H 	0.91583	0.4123	0.7291	0.168
Mof_H 	H 	0.82923	0.4948	0.7324	0.178
Mof_N 	N 	0.89803	0.4834	0.7656	-0.472
_end
