data_functionalizedCrystal
_audit_creation_method	'EQeq! by Chris Wilmer'
_symmetry_space_group_name_H-M	'P1'
_symmetry_Int_Tables_number	1
_symmetry_cell_setting	triclinic
loop_
_symmetry_equiv_pos_as_xyz
  x,y,z
_cell_length_a	12.815
_cell_length_b	15.979
_cell_length_c	6.7705
_cell_angle_alpha	90
_cell_angle_beta	90
_cell_angle_gamma	90
loop_
_atom_site_label
_atom_site_type_symbol
_atom_site_fract_x
_atom_site_fract_y
_atom_site_fract_z
_atom_site_charge
Mof_N 	N 	0.5	0.2905	0.958	-0.183
Mof_C 	C 	0.5	0.36	0.8517	-0.003
Mof_C 	C 	0.5	0.219	0.8522	0
Mof_N 	N 	-1.17583e-32	0.7905	0.958	-0.184
Mof_C 	C 	-7.41685e-33	0.86	0.8517	-0.015
Mof_C 	C 	-7.41586e-33	0.719	0.8522	-0.013
Mof_N 	N 	0.5	0.2905	0.542	-0.184
Mof_C 	C 	0.5	0.36	0.6483	-0.004
Mof_C 	C 	0.5	0.219	0.6478	-0.001
Mof_N 	N 	3.34965e-33	0.7905	0.542	-0.185
Mof_C 	C 	-3.26777e-33	0.86	0.6483	-0.015
Mof_C 	C 	-3.26876e-33	0.719	0.6478	-0.013
Mof_Fe	Fe	0.5	0.2892	0.25	0.727
Mof_Fe	Fe	-1.78077e-33	0.7892	0.25	0.687
Mof_Ag	Ag	0.2526	0.03819	0.25	0.394
Mof_N 	N 	0.3955	0.2043	0.25	-0.182
Mof_N 	N 	0.109	0.877	0.25	-0.168
Mof_C 	C 	0.336	0.15	0.25	-0.095
Mof_C 	C 	0.162	0.934	0.25	-0.124
Mof_Ag	Ag	0.7526	0.53819	0.25	0.412
Mof_N 	N 	0.8955	0.7043	0.25	-0.16
Mof_N 	N 	0.609	0.377	0.25	-0.168
Mof_C 	C 	0.836	0.65	0.25	-0.089
Mof_C 	C 	0.662	0.434	0.25	-0.122
Mof_Ag	Ag	0.7474	0.03819	0.25	0.411
Mof_N 	N 	0.6045	0.2043	0.25	-0.181
Mof_N 	N 	0.891	0.877	0.25	-0.149
Mof_C 	C 	0.664	0.15	0.25	-0.094
Mof_C 	C 	0.838	0.934	0.25	-0.114
Mof_Ag	Ag	0.2474	0.53819	0.25	0.388
Mof_N 	N 	0.1045	0.7043	0.25	-0.18
Mof_N 	N 	0.391	0.377	0.25	-0.17
Mof_C 	C 	0.164	0.65	0.25	-0.1
Mof_C 	C 	0.338	0.434	0.25	-0.121
Mof_N 	N 	0.5	0.7095	0.458	-0.184
Mof_C 	C 	0.5	0.64	0.3517	-0.004
Mof_C 	C 	0.5	0.781	0.3522	-0.001
Mof_N 	N 	-1.36874e-33	0.2095	0.458	-0.185
Mof_C 	C 	-6.1313e-33	0.14	0.3517	-0.015
Mof_C 	C 	-1.57832e-33	0.281	0.3522	-0.013
Mof_N 	N 	0.5	0.7095	0.042	-0.184
Mof_C 	C 	0.5	0.64	0.1483	-0.004
Mof_C 	C 	0.5	0.781	0.1478	-0.001
Mof_N 	N 	-2.01301e-34	0.2095	0.042	-0.185
Mof_C 	C 	-2.55123e-33	0.14	0.1483	-0.015
Mof_C 	C 	-1.41422e-33	0.281	0.1478	-0.013
Mof_Fe	Fe	0.5	0.7108	0.75	0.727
Mof_Fe	Fe	-7.6183e-33	0.2108	0.75	0.687
Mof_Ag	Ag	0.7474	0.96181	0.75	0.411
Mof_N 	N 	0.6045	0.7957	0.75	-0.181
Mof_N 	N 	0.891	0.123	0.75	-0.149
Mof_C 	C 	0.664	0.85	0.75	-0.094
Mof_C 	C 	0.838	0.066	0.75	-0.114
Mof_Ag	Ag	0.2474	0.46181	0.75	0.388
Mof_N 	N 	0.1045	0.2957	0.75	-0.18
Mof_N 	N 	0.391	0.623	0.75	-0.17
Mof_C 	C 	0.164	0.35	0.75	-0.1
Mof_C 	C 	0.338	0.566	0.75	-0.121
Mof_Ag	Ag	0.2526	0.96181	0.75	0.394
Mof_N 	N 	0.3955	0.7957	0.75	-0.182
Mof_N 	N 	0.109	0.123	0.75	-0.168
Mof_C 	C 	0.336	0.85	0.75	-0.095
Mof_C 	C 	0.162	0.066	0.75	-0.124
Mof_Ag	Ag	0.7526	0.46181	0.75	0.412
Mof_N 	N 	0.8955	0.2957	0.75	-0.16
Mof_N 	N 	0.609	0.623	0.75	-0.168
Mof_C 	C 	0.836	0.35	0.75	-0.089
Mof_C 	C 	0.662	0.566	0.75	-0.122
_end
