# CIF file generated by openbabel 3.1.0, see https://openbabel.org
data_I
_chemical_name_common 'XEXLOD_clean'
_cell_length_a 5.5797
_cell_length_b 16.7931
_cell_length_c 25.9231
_cell_angle_alpha 90
_cell_angle_beta 90
_cell_angle_gamma 98.575
_space_group_name_H-M_alt 'P 1'
_space_group_name_Hall 'P 1'
loop_
    _symmetry_equiv_pos_as_xyz
    x,y,z
loop_
    _atom_site_label
    _atom_site_type_symbol
    _atom_site_fract_x
    _atom_site_fract_y
    _atom_site_fract_z
    _atom_site_occupancy
    Zn1      Zn       0.11923    0.57962    0.52087    1.000
    Zn2      Zn       0.88077    0.92038    0.02087    1.000
    Zn3      Zn       0.88077    0.42038    0.47913    1.000
    Zn4      Zn       0.11923    0.07962    0.97913    1.000
    H1       H        0.44790    0.87190    0.08840    1.000
    H2       H        0.38210    0.79820    0.16470    1.000
    H3       H        0.95650    0.68690    0.12860    1.000
    H4       H        0.01000    0.76490    0.05430    1.000
    H5       H        0.11690    0.53120    0.24970    1.000
    H6       H        0.05860    0.47920    0.33380    1.000
    H7       H        0.06340    0.70110    0.40450    1.000
    H8       H        0.10520    0.75440    0.32140    1.000
    H9       H        0.55210    0.62810    0.58840    1.000
    H10      H        0.61790    0.70180    0.66470    1.000
    H11      H        0.04350    0.81310    0.62860    1.000
    H12      H        0.99000    0.73510    0.55430    1.000
    H13      H        0.88310    0.96880    0.74970    1.000
    H14      H        0.94140    0.02080    0.83380    1.000
    H15      H        0.93660    0.79890    0.90450    1.000
    H16      H        0.89480    0.74560    0.82140    1.000
    H17      H        0.55210    0.12810    0.91160    1.000
    H18      H        0.61790    0.20180    0.83530    1.000
    H19      H        0.04350    0.31310    0.87140    1.000
    H20      H        0.99000    0.23510    0.94570    1.000
    H21      H        0.88310    0.46880    0.75030    1.000
    H22      H        0.94140    0.52080    0.66620    1.000
    H23      H        0.93660    0.29890    0.59550    1.000
    H24      H        0.89480    0.24560    0.67860    1.000
    H25      H        0.44790    0.37190    0.41160    1.000
    H26      H        0.38210    0.29820    0.33530    1.000
    H27      H        0.95650    0.18690    0.37140    1.000
    H28      H        0.01000    0.26490    0.44570    1.000
    H29      H        0.11690    0.03120    0.25030    1.000
    H30      H        0.05860    0.97920    0.16620    1.000
    H31      H        0.06340    0.20110    0.09550    1.000
    H32      H        0.10520    0.25440    0.17860    1.000
    C1       C        0.55470    0.83510    0.09746    1.000
    C2       C        0.51440    0.79170    0.14281    1.000
    C3       C        0.67230    0.73890    0.15528    1.000
    C4       C        0.85440    0.72610    0.12160    1.000
    C5       C        0.88320    0.77220    0.07747    1.000
    C6       C        0.44610    0.64260    0.21341    1.000
    C7       C        0.42450    0.60690    0.26594    1.000
    C8       C        0.59760    0.63220    0.30421    1.000
    C9       C        0.80220    0.68920    0.29248    1.000
    C10      C        0.83640    0.72410    0.23998    1.000
    C11      C        0.22850    0.54990    0.27632    1.000
    C12      C        0.19380    0.51920    0.32672    1.000
    C13      C        0.35180    0.54590    0.36575    1.000
    C14      C        0.56560    0.60064    0.35535    1.000
    C15      C        0.75010    0.62680    0.39232    1.000
    C16      C        0.94430    0.68320    0.37921    1.000
    C17      C        0.97040    0.71490    0.32956    1.000
    C18      C        0.26390    0.52390    0.41971    1.000
    C19      C        0.77390    0.58600    0.44373    1.000
    C20      C        0.44530    0.66490    0.59746    1.000
    C21      C        0.48560    0.70830    0.64281    1.000
    C22      C        0.32770    0.76110    0.65528    1.000
    C23      C        0.14560    0.77390    0.62160    1.000
    C24      C        0.11680    0.72780    0.57747    1.000
    C25      C        0.55390    0.85740    0.71341    1.000
    C26      C        0.57550    0.89310    0.76594    1.000
    C27      C        0.40240    0.86780    0.80421    1.000
    C28      C        0.19780    0.81080    0.79248    1.000
    C29      C        0.16360    0.77590    0.73998    1.000
    C30      C        0.77150    0.95010    0.77632    1.000
    C31      C        0.80620    0.98080    0.82672    1.000
    C32      C        0.64820    0.95410    0.86575    1.000
    C33      C        0.43440    0.89936    0.85535    1.000
    C34      C        0.24990    0.87320    0.89232    1.000
    C35      C        0.05570    0.81680    0.87921    1.000
    C36      C        0.02960    0.78510    0.82956    1.000
    C37      C        0.73610    0.97610    0.91971    1.000
    C38      C        0.22610    0.91400    0.94373    1.000
    C39      C        0.44530    0.16490    0.90254    1.000
    C40      C        0.48560    0.20830    0.85719    1.000
    C41      C        0.32770    0.26110    0.84472    1.000
    C42      C        0.14560    0.27390    0.87840    1.000
    C43      C        0.11680    0.22780    0.92253    1.000
    C44      C        0.55390    0.35740    0.78659    1.000
    C45      C        0.57550    0.39310    0.73406    1.000
    C46      C        0.40240    0.36780    0.69579    1.000
    C47      C        0.19780    0.31080    0.70752    1.000
    C48      C        0.16360    0.27590    0.76002    1.000
    C49      C        0.77150    0.45010    0.72368    1.000
    C50      C        0.80620    0.48080    0.67328    1.000
    C51      C        0.64820    0.45410    0.63425    1.000
    C52      C        0.43440    0.39936    0.64465    1.000
    C53      C        0.24990    0.37320    0.60768    1.000
    C54      C        0.05570    0.31680    0.62079    1.000
    C55      C        0.02960    0.28510    0.67044    1.000
    C56      C        0.73610    0.47610    0.58029    1.000
    C57      C        0.22610    0.41400    0.55627    1.000
    C58      C        0.55470    0.33510    0.40254    1.000
    C59      C        0.51440    0.29170    0.35719    1.000
    C60      C        0.67230    0.23890    0.34472    1.000
    C61      C        0.85440    0.22610    0.37840    1.000
    C62      C        0.88320    0.27220    0.42253    1.000
    C63      C        0.44610    0.14260    0.28659    1.000
    C64      C        0.42450    0.10690    0.23406    1.000
    C65      C        0.59760    0.13220    0.19579    1.000
    C66      C        0.80220    0.18920    0.20752    1.000
    C67      C        0.83640    0.22410    0.26002    1.000
    C68      C        0.22850    0.04990    0.22368    1.000
    C69      C        0.19380    0.01920    0.17328    1.000
    C70      C        0.35180    0.04590    0.13425    1.000
    C71      C        0.56560    0.10064    0.14465    1.000
    C72      C        0.75010    0.12680    0.10768    1.000
    C73      C        0.94430    0.18320    0.12079    1.000
    C74      C        0.97040    0.21490    0.17044    1.000
    C75      C        0.26390    0.02390    0.08029    1.000
    C76      C        0.77390    0.08600    0.05627    1.000
    N1       N        0.73950    0.82687    0.06585    1.000
    N2       N        0.65210    0.69965    0.20458    1.000
    N3       N        0.26050    0.67313    0.56585    1.000
    N4       N        0.34790    0.80035    0.70458    1.000
    N5       N        0.26050    0.17313    0.93415    1.000
    N6       N        0.34790    0.30035    0.79542    1.000
    N7       N        0.73950    0.32687    0.43415    1.000
    N8       N        0.65210    0.19965    0.29542    1.000
    O1       O        0.28910    0.57993    0.45242    1.000
    O2       O        0.15480    0.45465    0.42625    1.000
    O3       O        0.72790    0.51054    0.44401    1.000
    O4       O        0.86240    0.63006    0.48011    1.000
    O5       O        0.29900    0.62587    0.17956    1.000
    O6       O        0.01080    0.77335    0.22833    1.000
    O7       O        0.71090    0.92007    0.95242    1.000
    O8       O        0.84520    0.04535    0.92625    1.000
    O9       O        0.27210    0.98946    0.94401    1.000
    O10      O        0.13760    0.86994    0.98011    1.000
    O11      O        0.70100    0.87413    0.67956    1.000
    O12      O        0.98920    0.72665    0.72833    1.000
    O13      O        0.71090    0.42007    0.54758    1.000
    O14      O        0.84520    0.54535    0.57375    1.000
    O15      O        0.27210    0.48946    0.55599    1.000
    O16      O        0.13760    0.36994    0.51989    1.000
    O17      O        0.70100    0.37413    0.82044    1.000
    O18      O        0.98920    0.22665    0.77167    1.000
    O19      O        0.28910    0.07993    0.04758    1.000
    O20      O        0.15480    0.95465    0.07375    1.000
    O21      O        0.72790    0.01054    0.05599    1.000
    O22      O        0.86240    0.13006    0.01989    1.000
    O23      O        0.29900    0.12587    0.32044    1.000
    O24      O        0.01080    0.27335    0.27167    1.000
