# CIF file generated by openbabel 3.1.0, see https://openbabel.org
data_I
_chemical_name_common 'image0'
_cell_length_a 11.46
_cell_length_b 19.968
_cell_length_c 14.949
_cell_angle_alpha 90
_cell_angle_beta 99.628
_cell_angle_gamma 90
_space_group_name_H-M_alt 'P 1'
_space_group_name_Hall 'P 1'
loop_
    _symmetry_equiv_pos_as_xyz
    x,y,z
loop_
    _atom_site_label
    _atom_site_type_symbol
    _atom_site_fract_x
    _atom_site_fract_y
    _atom_site_fract_z
    _atom_site_occupancy
    U1       U        0.73295    0.53271    0.85591    1.000
    U2       U        0.24552    0.61347    0.58710    1.000
    C1       C        0.67190    0.56320    0.66780    1.000
    C2       C        0.84490    0.50970    0.49070    1.000
    C3       C        0.07190    0.73360    0.46970    1.000
    C4       C        0.88650    0.93110    0.56050    1.000
    C5       C        0.43080    0.90710    0.46570    1.000
    C6       C        0.42080    0.75230    0.62570    1.000
    C7       C        0.65470    0.57250    0.56660    1.000
    H1       H        0.64820    0.52890    0.53750    1.000
    H2       H        0.58120    0.59640    0.54680    1.000
    C8       C        0.86310    0.57370    0.54280    1.000
    H3       H        0.89560    0.56420    0.60570    1.000
    H4       H        0.91920    0.60160    0.51800    1.000
    C9       C        0.05560    0.77360    0.55310    1.000
    H5       H        0.05940    0.74300    0.60380    1.000
    H6       H        0.12140    0.80450    0.56720    1.000
    C10      C        0.94220    0.87920    0.50820    1.000
    H7       H        0.89880    0.87790    0.44670    1.000
    H8       H        0.02250    0.89320    0.50500    1.000
    C11      C        0.53070    0.87640    0.52860    1.000
    H9       H        0.60420    0.89660    0.51820    1.000
    H10      H        0.52140    0.88620    0.59060    1.000
    C12      C        0.43460    0.76500    0.52820    1.000
    H11      H        0.43840    0.72220    0.49810    1.000
    H12      H        0.36480    0.78830    0.49780    1.000
    C13      C        0.75050    0.67790    0.53980    1.000
    C14      C        0.84290    0.77630    0.53900    1.000
    C15      C        0.64560    0.77340    0.52920    1.000
    N1       N        0.85330    0.70910    0.54310    1.000
    N2       N        0.74190    0.81150    0.53000    1.000
    N3       N        0.64410    0.70660    0.53650    1.000
    N4       N        0.75110    0.60930    0.53810    1.000
    N5       N        0.94620    0.81150    0.54540    1.000
    N6       N        0.53810    0.80380    0.51760    1.000
    O1       O        0.60400    0.52415    0.70230    1.000
    O2       O        0.75540    0.59300    0.71770    1.000
    O3       O        0.88570    0.45555    0.52640    1.000
    O4       O        0.78470    0.50920    0.41260    1.000
    O5       O        0.14920    0.68658    0.48360    1.000
    O6       O        0.01730    0.74810    0.39600    1.000
    H13      H        0.97750    0.71590    0.37490    1.000
    O7       O        0.81620    0.97210    0.51540    1.000
    O8       O        0.91140    0.93766    0.64450    1.000
    O9       O        0.37320    0.95290    0.49560    1.000
    O10      O        0.40260    0.88880    0.38420    1.000
    O11      O        0.48150    0.78180    0.68680    1.000
    H14      H        0.45020    0.78030    0.73230    1.000
    O12      O        0.33800    0.71030    0.63680    1.000
    U3       U        0.76705    0.03271    0.64409    1.000
    U4       U        0.25448    0.11347    0.91291    1.000
    C16      C        0.82810    0.06320    0.83220    1.000
    C17      C        0.65510    0.00970    0.00930    1.000
    C18      C        0.42810    0.23360    0.03030    1.000
    C19      C        0.61350    0.43110    0.93950    1.000
    C20      C        0.06920    0.40710    0.03430    1.000
    C21      C        0.07920    0.25230    0.87430    1.000
    C22      C        0.84530    0.07250    0.93340    1.000
    H15      H        0.85180    0.02890    0.96250    1.000
    H16      H        0.91880    0.09640    0.95320    1.000
    C23      C        0.63690    0.07370    0.95720    1.000
    H17      H        0.60440    0.06420    0.89430    1.000
    H18      H        0.58080    0.10160    0.98200    1.000
    C24      C        0.44440    0.27360    0.94690    1.000
    H19      H        0.44060    0.24300    0.89620    1.000
    H20      H        0.37860    0.30450    0.93280    1.000
    C25      C        0.55780    0.37920    0.99180    1.000
    H21      H        0.60120    0.37790    0.05330    1.000
    H22      H        0.47750    0.39320    0.99500    1.000
    C26      C        0.96930    0.37640    0.97140    1.000
    H23      H        0.89580    0.39660    0.98180    1.000
    H24      H        0.97860    0.38620    0.90940    1.000
    C27      C        0.06540    0.26500    0.97180    1.000
    H25      H        0.06160    0.22220    0.00190    1.000
    H26      H        0.13520    0.28830    0.00220    1.000
    C28      C        0.74950    0.17790    0.96020    1.000
    C29      C        0.65710    0.27630    0.96100    1.000
    C30      C        0.85440    0.27340    0.97080    1.000
    N7       N        0.64670    0.20910    0.95690    1.000
    N8       N        0.75810    0.31150    0.97000    1.000
    N9       N        0.85590    0.20660    0.96350    1.000
    N10      N        0.74890    0.10930    0.96190    1.000
    N11      N        0.55380    0.31150    0.95460    1.000
    N12      N        0.96190    0.30380    0.98240    1.000
    O13      O        0.89600    0.02415    0.79770    1.000
    O14      O        0.74460    0.09300    0.78230    1.000
    O15      O        0.61430    0.95555    0.97360    1.000
    O16      O        0.71530    0.00920    0.08740    1.000
    O17      O        0.35080    0.18658    0.01640    1.000
    O18      O        0.48270    0.24810    0.10400    1.000
    H27      H        0.52250    0.21590    0.12510    1.000
    O19      O        0.68380    0.47210    0.98460    1.000
    O20      O        0.58860    0.43766    0.85550    1.000
    O21      O        0.12680    0.45290    0.00440    1.000
    O22      O        0.09740    0.38880    0.11580    1.000
    O23      O        0.01850    0.28180    0.81320    1.000
    H28      H        0.04980    0.28030    0.76770    1.000
    O24      O        0.16200    0.21030    0.86320    1.000
    U5       U        0.26705    0.46729    0.14409    1.000
    U6       U        0.75448    0.38653    0.41290    1.000
    C31      C        0.32810    0.43680    0.33220    1.000
    C32      C        0.15510    0.49030    0.50930    1.000
    C33      C        0.92810    0.26640    0.53030    1.000
    C34      C        0.11350    0.06890    0.43950    1.000
    C35      C        0.56920    0.09290    0.53430    1.000
    C36      C        0.57920    0.24770    0.37430    1.000
    C37      C        0.34530    0.42750    0.43340    1.000
    H29      H        0.35180    0.47110    0.46250    1.000
    H30      H        0.41880    0.40360    0.45320    1.000
    C38      C        0.13690    0.42630    0.45720    1.000
    H31      H        0.10440    0.43580    0.39430    1.000
    H32      H        0.08080    0.39840    0.48200    1.000
    C39      C        0.94440    0.22640    0.44690    1.000
    H33      H        0.94060    0.25700    0.39620    1.000
    H34      H        0.87860    0.19550    0.43280    1.000
    C40      C        0.05780    0.12080    0.49180    1.000
    H35      H        0.10120    0.12210    0.55330    1.000
    H36      H        0.97750    0.10680    0.49500    1.000
    C41      C        0.46930    0.12360    0.47140    1.000
    H37      H        0.39580    0.10340    0.48180    1.000
    H38      H        0.47860    0.11380    0.40940    1.000
    C42      C        0.56540    0.23500    0.47180    1.000
    H39      H        0.56160    0.27780    0.50190    1.000
    H40      H        0.63520    0.21170    0.50220    1.000
    C43      C        0.24950    0.32210    0.46020    1.000
    C44      C        0.15710    0.22370    0.46100    1.000
    C45      C        0.35440    0.22660    0.47080    1.000
    N13      N        0.14670    0.29090    0.45690    1.000
    N14      N        0.25810    0.18850    0.47000    1.000
    N15      N        0.35590    0.29340    0.46350    1.000
    N16      N        0.24890    0.39070    0.46190    1.000
    N17      N        0.05380    0.18850    0.45460    1.000
    N18      N        0.46190    0.19620    0.48240    1.000
    O25      O        0.39600    0.47585    0.29770    1.000
    O26      O        0.24460    0.40700    0.28230    1.000
    O27      O        0.11430    0.54445    0.47360    1.000
    O28      O        0.21530    0.49080    0.58740    1.000
    O29      O        0.85080    0.31342    0.51640    1.000
    O30      O        0.98270    0.25190    0.60400    1.000
    H41      H        0.02250    0.28410    0.62510    1.000
    O31      O        0.18380    0.02790    0.48460    1.000
    O32      O        0.08860    0.06234    0.35550    1.000
    O33      O        0.62680    0.04710    0.50440    1.000
    O34      O        0.59740    0.11120    0.61580    1.000
    O35      O        0.51850    0.21820    0.31320    1.000
    H42      H        0.54980    0.21970    0.26770    1.000
    O36      O        0.66200    0.28970    0.36320    1.000
    U7       U        0.23295    0.96729    0.35591    1.000
    U8       U        0.74552    0.88653    0.08710    1.000
    C46      C        0.17190    0.93680    0.16780    1.000
    C47      C        0.34490    0.99030    0.99070    1.000
    C48      C        0.57190    0.76640    0.96970    1.000
    C49      C        0.38650    0.56890    0.06050    1.000
    C50      C        0.93080    0.59290    0.96570    1.000
    C51      C        0.92080    0.74770    0.12570    1.000
    C52      C        0.15470    0.92750    0.06660    1.000
    H43      H        0.14820    0.97110    0.03750    1.000
    H44      H        0.08120    0.90360    0.04680    1.000
    C53      C        0.36310    0.92630    0.04280    1.000
    H45      H        0.39560    0.93580    0.10570    1.000
    H46      H        0.41920    0.89840    0.01800    1.000
    C54      C        0.55560    0.72640    0.05310    1.000
    H47      H        0.55940    0.75700    0.10380    1.000
    H48      H        0.62140    0.69550    0.06720    1.000
    C55      C        0.44220    0.62080    0.00820    1.000
    H49      H        0.39880    0.62210    0.94670    1.000
    H50      H        0.52250    0.60680    0.00500    1.000
    C56      C        0.03070    0.62360    0.02860    1.000
    H51      H        0.10420    0.60340    0.01820    1.000
    H52      H        0.02140    0.61380    0.09060    1.000
    C57      C        0.93460    0.73500    0.02820    1.000
    H53      H        0.93840    0.77780    0.99810    1.000
    H54      H        0.86480    0.71170    0.99780    1.000
    C58      C        0.25050    0.82210    0.03980    1.000
    C59      C        0.34290    0.72370    0.03900    1.000
    C60      C        0.14560    0.72660    0.02920    1.000
    N19      N        0.35330    0.79090    0.04310    1.000
    N20      N        0.24190    0.68850    0.03000    1.000
    N21      N        0.14410    0.79340    0.03650    1.000
    N22      N        0.25110    0.89070    0.03810    1.000
    N23      N        0.44620    0.68850    0.04540    1.000
    N24      N        0.03810    0.69620    0.01760    1.000
    O37      O        0.10400    0.97585    0.20230    1.000
    O38      O        0.25540    0.90700    0.21770    1.000
    O39      O        0.38570    0.04445    0.02640    1.000
    O40      O        0.28470    0.99080    0.91260    1.000
    O41      O        0.64920    0.81342    0.98360    1.000
    O42      O        0.51730    0.75190    0.89600    1.000
    H55      H        0.47750    0.78410    0.87490    1.000
    O43      O        0.31620    0.52790    0.01540    1.000
    O44      O        0.41140    0.56234    0.14450    1.000
    O45      O        0.87320    0.54710    0.99560    1.000
    O46      O        0.90260    0.61120    0.88420    1.000
    O47      O        0.98150    0.71820    0.18680    1.000
    H56      H        0.95020    0.71970    0.23230    1.000
    O48      O        0.83800    0.78970    0.13680    1.000
