data_functionalizedCrystal
_audit_creation_method	'EQeq! by Chris Wilmer'
_symmetry_space_group_name_H-M	'P1'
_symmetry_Int_Tables_number	1
_symmetry_cell_setting	triclinic
loop_
_symmetry_equiv_pos_as_xyz
  x,y,z
_cell_length_a	15.2159
_cell_length_b	9.0611
_cell_length_c	7.7533
_cell_angle_alpha	90
_cell_angle_beta	90
_cell_angle_gamma	90
loop_
_atom_site_label
_atom_site_type_symbol
_atom_site_fract_x
_atom_site_fract_y
_atom_site_fract_z
_atom_site_charge
Mof_C 	C 	0.54317	0.53995	0.48051	-0.017
Mof_C 	C 	0.61804	0.47073	0.41723	-0.003
Mof_H 	H 	0.61453	0.37281	0.37398	0.019
Mof_C 	C 	0.69805	0.54477	0.41723	-0.144
Mof_H 	H 	0.74922	0.49746	0.37398	0.07
Mof_C 	C 	0.70318	0.68804	0.48051	0.138
Mof_C 	C 	0.62831	0.75726	0.5438	-0.148
Mof_H 	H 	0.63182	0.85518	0.58705	0.067
Mof_C 	C 	0.5483	0.68322	0.5438	-0.004
Mof_H 	H 	0.49713	0.73053	0.58705	0.028
Mof_C 	C 	0.78915	0.7676	0.48051	-0.261
Mof_C 	C 	0.81961	0.85756	0.60757	0.374
Mof_C 	C 	0.77286	0.89422	0.77201	-1.064
Mof_H 	H 	0.81474	0.91471	0.85967	0.361
Mof_H 	H 	0.73665	0.97835	0.75477	0.355
Mof_H 	H 	0.73748	0.8129	0.80606	0.349
Mof_N 	N 	0.9	0.90836	0.55904	-0.164
Mof_N 	N 	0.91922	0.84981	0.40199	-0.125
Mof_C 	C 	0.85071	0.76282	0.35346	0.172
Mof_C 	C 	0.8442	0.67686	0.18902	-0.251
Mof_H 	H 	0.78131	0.61704	0.18569	0.079
Mof_H 	H 	0.84774	0.75285	0.0786	0.068
Mof_H 	H 	0.89875	0.59744	0.18179	0.086
Mof_C 	C 	0.45683	0.46005	0.48051	-0.007
Mof_C 	C 	0.38196	0.52927	0.41723	-0.015
Mof_H 	H 	0.38547	0.62719	0.37398	0.025
Mof_C 	C 	0.30195	0.45523	0.41723	-0.13
Mof_H 	H 	0.25078	0.50254	0.37398	0.062
Mof_C 	C 	0.29682	0.31196	0.48051	0.117
Mof_C 	C 	0.37169	0.24274	0.5438	-0.137
Mof_H 	H 	0.36818	0.14482	0.58705	0.05
Mof_C 	C 	0.4517	0.31678	0.5438	-0.017
Mof_H 	H 	0.50287	0.26947	0.58705	0.024
Mof_C 	C 	0.21085	0.2324	0.48051	-0.241
Mof_C 	C 	0.18039	0.14244	0.60757	0.319
Mof_C 	C 	0.22714	0.10578	0.77201	-0.953
Mof_H 	H 	0.18526	0.08529	0.85967	0.303
Mof_H 	H 	0.26335	0.02165	0.75477	0.296
Mof_H 	H 	0.26252	0.1871	0.80606	0.309
Mof_N 	N 	0.1	0.09164	0.55904	-0.19
Mof_N 	N 	0.08078	0.15019	0.40199	-0.154
Mof_C 	C 	0.14929	0.23718	0.35346	0.144
Mof_C 	C 	0.1558	0.32314	0.18902	-0.24
Mof_H 	H 	0.21869	0.38296	0.18569	0.073
Mof_H 	H 	0.15226	0.24715	0.0786	0.05
Mof_H 	H 	0.10125	0.40256	0.18179	0.064
Mof_C 	C 	0.54317	0.46005	0.98051	-0.003
Mof_C 	C 	0.61804	0.52927	0.91723	-0.012
Mof_H 	H 	0.61453	0.62719	0.87398	0.025
Mof_C 	C 	0.69805	0.45523	0.91723	-0.133
Mof_H 	H 	0.74922	0.50254	0.87398	0.067
Mof_C 	C 	0.70318	0.31196	0.98051	0.126
Mof_C 	C 	0.62831	0.24274	0.0438	-0.145
Mof_H 	H 	0.63182	0.14482	0.08705	0.051
Mof_C 	C 	0.5483	0.31678	0.0438	-0.021
Mof_H 	H 	0.49713	0.26947	0.08705	0.023
Mof_C 	C 	0.78915	0.2324	0.98051	-0.237
Mof_C 	C 	0.81961	0.14244	0.10757	0.316
Mof_C 	C 	0.77286	0.10578	0.27201	-0.945
Mof_H 	H 	0.81474	0.08529	0.35967	0.304
Mof_H 	H 	0.73665	0.02165	0.25477	0.293
Mof_H 	H 	0.73748	0.1871	0.30606	0.306
Mof_N 	N 	0.9	0.09164	0.05904	-0.177
Mof_N 	N 	0.91922	0.15019	0.90199	-0.132
Mof_C 	C 	0.85071	0.23718	0.85346	0.154
Mof_C 	C 	0.8442	0.32314	0.68902	-0.246
Mof_H 	H 	0.78131	0.38296	0.68569	0.078
Mof_H 	H 	0.84774	0.24715	0.5786	0.062
Mof_H 	H 	0.89875	0.40256	0.68179	0.086
Mof_C 	C 	0.45683	0.53995	0.98051	-0.008
Mof_C 	C 	0.38196	0.47073	0.91723	-0.006
Mof_H 	H 	0.38547	0.37281	0.87398	0.021
Mof_C 	C 	0.30195	0.54477	0.91723	-0.139
Mof_H 	H 	0.25078	0.49746	0.87398	0.067
Mof_C 	C 	0.29682	0.68804	0.98051	0.138
Mof_C 	C 	0.37169	0.75726	0.0438	-0.15
Mof_H 	H 	0.36818	0.85518	0.08705	0.067
Mof_C 	C 	0.4517	0.68322	0.0438	-0.013
Mof_H 	H 	0.50287	0.73053	0.08705	0.029
Mof_C 	C 	0.21085	0.7676	0.98051	-0.248
Mof_C 	C 	0.18039	0.85756	0.10757	0.353
Mof_C 	C 	0.22714	0.89422	0.27201	-1.037
Mof_H 	H 	0.18526	0.91471	0.35967	0.347
Mof_H 	H 	0.26335	0.97835	0.25477	0.346
Mof_H 	H 	0.26252	0.8129	0.30606	0.338
Mof_N 	N 	0.1	0.90836	0.05904	-0.179
Mof_N 	N 	0.08078	0.84981	0.90199	-0.139
Mof_C 	C 	0.14929	0.76282	0.85346	0.16
Mof_C 	C 	0.1558	0.67686	0.68902	-0.245
Mof_H 	H 	0.21869	0.61704	0.68569	0.078
Mof_H 	H 	0.15226	0.75285	0.5786	0.062
Mof_H 	H 	0.10125	0.59744	0.68179	0.068
Mof_Cd	Cd	1.95356e-33	1.47593e-33	0.25	0.255
Mof_Cd	Cd	4.38474e-33	5.90371e-33	0.75	0.258
_end
