# CIF file generated by openbabel 3.1.0, see https://openbabel.org
data_I
_chemical_name_common 'image0'
_cell_length_a 19.707
_cell_length_b 18.1754
_cell_length_c 12.6085
_cell_angle_alpha 90
_cell_angle_beta 90
_cell_angle_gamma 90
_space_group_name_H-M_alt 'P 1'
_space_group_name_Hall 'P 1'
loop_
    _symmetry_equiv_pos_as_xyz
    x,y,z
loop_
    _atom_site_label
    _atom_site_type_symbol
    _atom_site_fract_x
    _atom_site_fract_y
    _atom_site_fract_z
    _atom_site_occupancy
    Cd1      Cd       0.15888    0.16339    0.21163    1.000
    O1       O        0.13360    0.14660    0.93150    1.000
    O2       O        0.10580    0.21430    0.07180    1.000
    C1       C        0.09770    0.19290    0.97860    1.000
    C2       C        0.03950    0.22460    0.91560    1.000
    C3       C        0.01470    0.19230    0.82640    1.000
    H1       H        0.03320    0.14720    0.80200    1.000
    C4       C        0.96280    0.22550    0.77210    1.000
    H2       H        0.94550    0.20180    0.71050    1.000
    N1       N        0.93480    0.29080    0.80220    1.000
    C5       C        0.96030    0.32400    0.88950    1.000
    H3       H        0.94240    0.37020    0.91080    1.000
    C6       C        0.01190    0.29200    0.94880    1.000
    H4       H        0.02830    0.31550    0.01110    1.000
    C7       C        0.19350    0.14320    0.70230    1.000
    H5       H        0.15190    0.14770    0.73980    1.000
    C8       C        0.19100    0.13070    0.59290    1.000
    H6       H        0.14840    0.12340    0.55900    1.000
    O3       O        0.19360    0.11620    0.37150    1.000
    C9       C        0.30560    0.98560    0.88360    1.000
    H7       H        0.34730    0.00960    0.89850    1.000
    C10      C        0.30840    0.91550    0.84120    1.000
    H8       H        0.35070    0.89210    0.82880    1.000
    O4       O        0.30440    0.77840    0.74900    1.000
    Cd2      Cd       0.15888    0.66339    0.71163    1.000
    O5       O        0.13360    0.64660    0.43150    1.000
    O6       O        0.10580    0.71430    0.57180    1.000
    C11      C        0.09770    0.69290    0.47860    1.000
    C12      C        0.03950    0.72460    0.41560    1.000
    C13      C        0.01470    0.69230    0.32640    1.000
    H9       H        0.03320    0.64720    0.30200    1.000
    C14      C        0.96280    0.72550    0.27210    1.000
    H10      H        0.94550    0.70180    0.21050    1.000
    N2       N        0.93480    0.79080    0.30220    1.000
    C15      C        0.96030    0.82400    0.38950    1.000
    H11      H        0.94240    0.87020    0.41080    1.000
    C16      C        0.01190    0.79200    0.44880    1.000
    H12      H        0.02830    0.81550    0.51110    1.000
    C17      C        0.19350    0.64320    0.20230    1.000
    H13      H        0.15190    0.64770    0.23980    1.000
    C18      C        0.19100    0.63070    0.09290    1.000
    H14      H        0.14840    0.62340    0.05900    1.000
    O7       O        0.19360    0.61620    0.87150    1.000
    C19      C        0.30560    0.48560    0.38360    1.000
    H15      H        0.34730    0.50960    0.39850    1.000
    C20      C        0.30840    0.41550    0.34120    1.000
    H16      H        0.35070    0.39210    0.32880    1.000
    O8       O        0.30440    0.27840    0.24900    1.000
    Cd3      Cd       0.84112    0.83661    0.21163    1.000
    O9       O        0.86640    0.85340    0.93150    1.000
    O10      O        0.89420    0.78570    0.07180    1.000
    C21      C        0.90230    0.80710    0.97860    1.000
    C22      C        0.96050    0.77540    0.91560    1.000
    C23      C        0.98530    0.80770    0.82640    1.000
    H17      H        0.96680    0.85280    0.80200    1.000
    C24      C        0.03720    0.77450    0.77210    1.000
    H18      H        0.05450    0.79820    0.71050    1.000
    N3       N        0.06520    0.70920    0.80220    1.000
    C25      C        0.03970    0.67600    0.88950    1.000
    H19      H        0.05760    0.62980    0.91080    1.000
    C26      C        0.98810    0.70800    0.94880    1.000
    H20      H        0.97170    0.68450    0.01110    1.000
    C27      C        0.80650    0.85680    0.70230    1.000
    H21      H        0.84810    0.85230    0.73980    1.000
    C28      C        0.80900    0.86930    0.59290    1.000
    H22      H        0.85160    0.87660    0.55900    1.000
    O11      O        0.80640    0.88380    0.37150    1.000
    C29      C        0.69440    0.01440    0.88360    1.000
    H23      H        0.65270    0.99040    0.89850    1.000
    C30      C        0.69160    0.08450    0.84120    1.000
    H24      H        0.64930    0.10790    0.82880    1.000
    O12      O        0.69560    0.22160    0.74900    1.000
    Cd4      Cd       0.84112    0.33661    0.71163    1.000
    O13      O        0.86640    0.35340    0.43150    1.000
    O14      O        0.89420    0.28570    0.57180    1.000
    C31      C        0.90230    0.30710    0.47860    1.000
    C32      C        0.96050    0.27540    0.41560    1.000
    C33      C        0.98530    0.30770    0.32640    1.000
    H25      H        0.96680    0.35280    0.30200    1.000
    C34      C        0.03720    0.27450    0.27210    1.000
    H26      H        0.05450    0.29820    0.21050    1.000
    N4       N        0.06520    0.20920    0.30220    1.000
    C35      C        0.03970    0.17600    0.38950    1.000
    H27      H        0.05760    0.12980    0.41080    1.000
    C36      C        0.98810    0.20800    0.44880    1.000
    H28      H        0.97170    0.18450    0.51110    1.000
    C37      C        0.80650    0.35680    0.20230    1.000
    H29      H        0.84810    0.35230    0.23980    1.000
    C38      C        0.80900    0.36930    0.09290    1.000
    H30      H        0.85160    0.37660    0.05900    1.000
    O15      O        0.80640    0.38380    0.87150    1.000
    C39      C        0.69440    0.51440    0.38360    1.000
    H31      H        0.65270    0.49040    0.39850    1.000
    C40      C        0.69160    0.58450    0.34120    1.000
    H32      H        0.64930    0.60790    0.32880    1.000
    O16      O        0.69560    0.72160    0.24900    1.000
    Cd5      Cd       0.65888    0.83661    0.21163    1.000
    O17      O        0.63360    0.85340    0.93150    1.000
    O18      O        0.60580    0.78570    0.07180    1.000
    C41      C        0.59770    0.80710    0.97860    1.000
    C42      C        0.53950    0.77540    0.91560    1.000
    C43      C        0.51470    0.80770    0.82640    1.000
    H33      H        0.53320    0.85280    0.80200    1.000
    C44      C        0.46280    0.77450    0.77210    1.000
    H34      H        0.44550    0.79820    0.71050    1.000
    N5       N        0.43480    0.70920    0.80220    1.000
    C45      C        0.46030    0.67600    0.88950    1.000
    H35      H        0.44240    0.62980    0.91080    1.000
    C46      C        0.51190    0.70800    0.94880    1.000
    H36      H        0.52830    0.68450    0.01110    1.000
    C47      C        0.69350    0.85680    0.70230    1.000
    H37      H        0.65190    0.85230    0.73980    1.000
    C48      C        0.69100    0.86930    0.59290    1.000
    H38      H        0.64840    0.87660    0.55900    1.000
    O19      O        0.69360    0.88380    0.37150    1.000
    C49      C        0.80560    0.01440    0.88360    1.000
    H39      H        0.84730    0.99040    0.89850    1.000
    C50      C        0.80840    0.08450    0.84120    1.000
    H40      H        0.85070    0.10790    0.82880    1.000
    O20      O        0.80440    0.22160    0.74900    1.000
    Cd6      Cd       0.65888    0.33661    0.71163    1.000
    O21      O        0.63360    0.35340    0.43150    1.000
    O22      O        0.60580    0.28570    0.57180    1.000
    C51      C        0.59770    0.30710    0.47860    1.000
    C52      C        0.53950    0.27540    0.41560    1.000
    C53      C        0.51470    0.30770    0.32640    1.000
    H41      H        0.53320    0.35280    0.30200    1.000
    C54      C        0.46280    0.27450    0.27210    1.000
    H42      H        0.44550    0.29820    0.21050    1.000
    N6       N        0.43480    0.20920    0.30220    1.000
    C55      C        0.46030    0.17600    0.38950    1.000
    H43      H        0.44240    0.12980    0.41080    1.000
    C56      C        0.51190    0.20800    0.44880    1.000
    H44      H        0.52830    0.18450    0.51110    1.000
    C57      C        0.69350    0.35680    0.20230    1.000
    H45      H        0.65190    0.35230    0.23980    1.000
    C58      C        0.69100    0.36930    0.09290    1.000
    H46      H        0.64840    0.37660    0.05900    1.000
    O23      O        0.69360    0.38380    0.87150    1.000
    C59      C        0.80560    0.51440    0.38360    1.000
    H47      H        0.84730    0.49040    0.39850    1.000
    C60      C        0.80840    0.58450    0.34120    1.000
    H48      H        0.85070    0.60790    0.32880    1.000
    O24      O        0.80440    0.72160    0.24900    1.000
    Cd7      Cd       0.34112    0.16339    0.21163    1.000
    O25      O        0.36640    0.14660    0.93150    1.000
    O26      O        0.39420    0.21430    0.07180    1.000
    C61      C        0.40230    0.19290    0.97860    1.000
    C62      C        0.46050    0.22460    0.91560    1.000
    C63      C        0.48530    0.19230    0.82640    1.000
    H49      H        0.46680    0.14720    0.80200    1.000
    C64      C        0.53720    0.22550    0.77210    1.000
    H50      H        0.55450    0.20180    0.71050    1.000
    N7       N        0.56520    0.29080    0.80220    1.000
    C65      C        0.53970    0.32400    0.88950    1.000
    H51      H        0.55760    0.37020    0.91080    1.000
    C66      C        0.48810    0.29200    0.94880    1.000
    H52      H        0.47170    0.31550    0.01110    1.000
    C67      C        0.30650    0.14320    0.70230    1.000
    H53      H        0.34810    0.14770    0.73980    1.000
    C68      C        0.30900    0.13070    0.59290    1.000
    H54      H        0.35160    0.12340    0.55900    1.000
    O27      O        0.30640    0.11620    0.37150    1.000
    C69      C        0.19440    0.98560    0.88360    1.000
    H55      H        0.15270    0.00960    0.89850    1.000
    C70      C        0.19160    0.91550    0.84120    1.000
    H56      H        0.14930    0.89210    0.82880    1.000
    O28      O        0.19560    0.77840    0.74900    1.000
    Cd8      Cd       0.34112    0.66339    0.71163    1.000
    O29      O        0.36640    0.64660    0.43150    1.000
    O30      O        0.39420    0.71430    0.57180    1.000
    C71      C        0.40230    0.69290    0.47860    1.000
    C72      C        0.46050    0.72460    0.41560    1.000
    C73      C        0.48530    0.69230    0.32640    1.000
    H57      H        0.46680    0.64720    0.30200    1.000
    C74      C        0.53720    0.72550    0.27210    1.000
    H58      H        0.55450    0.70180    0.21050    1.000
    N8       N        0.56520    0.79080    0.30220    1.000
    C75      C        0.53970    0.82400    0.38950    1.000
    H59      H        0.55760    0.87020    0.41080    1.000
    C76      C        0.48810    0.79200    0.44880    1.000
    H60      H        0.47170    0.81550    0.51110    1.000
    C77      C        0.30650    0.64320    0.20230    1.000
    H61      H        0.34810    0.64770    0.23980    1.000
    C78      C        0.30900    0.63070    0.09290    1.000
    H62      H        0.35160    0.62340    0.05900    1.000
    O31      O        0.30640    0.61620    0.87150    1.000
    C79      C        0.19440    0.48560    0.38360    1.000
    H63      H        0.15270    0.50960    0.39850    1.000
    C80      C        0.19160    0.41550    0.34120    1.000
    H64      H        0.14930    0.39210    0.32880    1.000
    O32      O        0.19560    0.27840    0.24900    1.000
    Cd9      Cd       0.25000    0.14500    0.94683    1.000
    N9       N        0.25000    0.14900    0.75550    1.000
    C81      C        0.25000    0.12890    0.53390    1.000
    C82      C        0.25000    0.12150    0.41520    1.000
    N10      N        0.25000    0.02050    0.90430    1.000
    C83      C        0.25000    0.88110    0.81790    1.000
    C84      C        0.25000    0.80590    0.76660    1.000
    O33      O        0.25000    0.12340    0.12250    1.000
    H65      H        0.25000    0.06870    0.13040    1.000
    Cd10     Cd       0.25000    0.64500    0.44683    1.000
    N11      N        0.25000    0.64900    0.25550    1.000
    C85      C        0.25000    0.62890    0.03390    1.000
    C86      C        0.25000    0.62150    0.91520    1.000
    N12      N        0.25000    0.52050    0.40430    1.000
    C87      C        0.25000    0.38110    0.31790    1.000
    C88      C        0.25000    0.30590    0.26660    1.000
    O34      O        0.25000    0.62340    0.62250    1.000
    H66      H        0.25000    0.56870    0.63040    1.000
    Cd11     Cd       0.75000    0.85500    0.94683    1.000
    N13      N        0.75000    0.85100    0.75550    1.000
    C89      C        0.75000    0.87110    0.53390    1.000
    C90      C        0.75000    0.87850    0.41520    1.000
    N14      N        0.75000    0.97950    0.90430    1.000
    C91      C        0.75000    0.11890    0.81790    1.000
    C92      C        0.75000    0.19410    0.76660    1.000
    O35      O        0.75000    0.87660    0.12250    1.000
    H67      H        0.75000    0.93130    0.13040    1.000
    Cd12     Cd       0.75000    0.35500    0.44683    1.000
    N15      N        0.75000    0.35100    0.25550    1.000
    C93      C        0.75000    0.37110    0.03390    1.000
    C94      C        0.75000    0.37850    0.91520    1.000
    N16      N        0.75000    0.47950    0.40430    1.000
    C95      C        0.75000    0.61890    0.31790    1.000
    C96      C        0.75000    0.69410    0.26660    1.000
    O36      O        0.75000    0.37660    0.62250    1.000
    H68      H        0.75000    0.43130    0.63040    1.000
