# CIF file generated by openbabel 3.1.0, see https://openbabel.org
data_I
_chemical_name_common 'image0'
_cell_length_a 17.277
_cell_length_b 6.62
_cell_length_c 23.104
_cell_angle_alpha 90
_cell_angle_beta 94.21
_cell_angle_gamma 90
_space_group_name_H-M_alt 'P 1'
_space_group_name_Hall 'P 1'
loop_
    _symmetry_equiv_pos_as_xyz
    x,y,z
loop_
    _atom_site_label
    _atom_site_type_symbol
    _atom_site_fract_x
    _atom_site_fract_y
    _atom_site_fract_z
    _atom_site_occupancy
    Zr1      Zr       0.35887    0.99997    0.29932    1.000
    Zr2      Zr       0.21853    0.49538    0.42472    1.000
    P1       P        0.30704    0.50018    0.29229    1.000
    P2       P        0.26872    0.99796    0.43049    1.000
    P3       P        0.44381    0.07222    0.16533    1.000
    F1       F        0.32875    0.48960    0.45610    1.000
    O1       O        0.36136    0.68410    0.29249    1.000
    O2       O        0.25290    0.49650    0.23671    1.000
    O3       O        0.25790    0.51060    0.34453    1.000
    O4       O        0.35799    0.31050    0.29605    1.000
    O5       O        0.31560    0.00950    0.48985    1.000
    O6       O        0.21793    0.80870    0.42802    1.000
    O7       O        0.32510    0.99090    0.38226    1.000
    O8       O        0.40850    0.00310    0.21997    1.000
    O9       O        0.21598    0.18240    0.42248    1.000
    O10      O        0.39670    0.00620    0.11025    1.000
    O11      O        0.52660    0.99630    0.16372    1.000
    O12      O        0.44360    0.30880    0.16198    1.000
    H1       H        0.46380    0.35260    0.19440    1.000
    Zr3      Zr       0.85887    0.49997    0.29932    1.000
    Zr4      Zr       0.71853    0.99538    0.42472    1.000
    P4       P        0.80704    0.00018    0.29229    1.000
    P5       P        0.76872    0.49796    0.43049    1.000
    P6       P        0.94381    0.57222    0.16533    1.000
    F2       F        0.82875    0.98960    0.45610    1.000
    O13      O        0.86136    0.18410    0.29249    1.000
    O14      O        0.75290    0.99650    0.23671    1.000
    O15      O        0.75790    0.01060    0.34453    1.000
    O16      O        0.85799    0.81050    0.29605    1.000
    O17      O        0.81560    0.50950    0.48985    1.000
    O18      O        0.71793    0.30870    0.42802    1.000
    O19      O        0.82510    0.49090    0.38226    1.000
    O20      O        0.90850    0.50310    0.21997    1.000
    O21      O        0.71598    0.68240    0.42248    1.000
    O22      O        0.89670    0.50620    0.11025    1.000
    O23      O        0.02660    0.49630    0.16372    1.000
    O24      O        0.94360    0.80880    0.16198    1.000
    H2       H        0.96380    0.85260    0.19440    1.000
    Zr5      Zr       0.64113    0.99997    0.20068    1.000
    Zr6      Zr       0.78147    0.49538    0.07528    1.000
    P7       P        0.69296    0.50018    0.20771    1.000
    P8       P        0.73128    0.99796    0.06951    1.000
    P9       P        0.55619    0.07222    0.33467    1.000
    F3       F        0.67125    0.48960    0.04390    1.000
    O25      O        0.63864    0.68410    0.20751    1.000
    O26      O        0.74710    0.49650    0.26329    1.000
    O27      O        0.74210    0.51060    0.15547    1.000
    O28      O        0.64201    0.31050    0.20395    1.000
    O29      O        0.68440    0.00950    0.01015    1.000
    O30      O        0.78207    0.80870    0.07198    1.000
    O31      O        0.67490    0.99090    0.11774    1.000
    O32      O        0.59150    0.00310    0.28003    1.000
    O33      O        0.78402    0.18240    0.07752    1.000
    O34      O        0.60330    0.00620    0.38975    1.000
    O35      O        0.47340    0.99630    0.33628    1.000
    O36      O        0.55640    0.30880    0.33802    1.000
    H3       H        0.53620    0.35260    0.30560    1.000
    Zr7      Zr       0.14113    0.49997    0.20068    1.000
    Zr8      Zr       0.28147    0.99538    0.07528    1.000
    P10      P        0.19296    0.00018    0.20771    1.000
    P11      P        0.23128    0.49796    0.06951    1.000
    P12      P        0.05619    0.57222    0.33467    1.000
    F4       F        0.17125    0.98960    0.04390    1.000
    O37      O        0.13864    0.18410    0.20751    1.000
    O38      O        0.24710    0.99650    0.26329    1.000
    O39      O        0.24210    0.01060    0.15547    1.000
    O40      O        0.14201    0.81050    0.20395    1.000
    O41      O        0.18440    0.50950    0.01015    1.000
    O42      O        0.28207    0.30870    0.07198    1.000
    O43      O        0.17490    0.49090    0.11774    1.000
    O44      O        0.09150    0.50310    0.28003    1.000
    O45      O        0.28402    0.68240    0.07752    1.000
    O46      O        0.10330    0.50620    0.38975    1.000
    O47      O        0.97340    0.49630    0.33628    1.000
    O48      O        0.05640    0.80880    0.33802    1.000
    H4       H        0.03620    0.85260    0.30560    1.000
    Zr9      Zr       0.64113    0.00003    0.70068    1.000
    Zr10     Zr       0.78147    0.50462    0.57528    1.000
    P13      P        0.69296    0.49982    0.70771    1.000
    P14      P        0.73128    0.00204    0.56951    1.000
    P15      P        0.55619    0.92778    0.83467    1.000
    F5       F        0.67125    0.51040    0.54390    1.000
    O49      O        0.63864    0.31590    0.70751    1.000
    O50      O        0.74710    0.50350    0.76329    1.000
    O51      O        0.74210    0.48940    0.65547    1.000
    O52      O        0.64201    0.68950    0.70395    1.000
    O53      O        0.68440    0.99050    0.51015    1.000
    O54      O        0.78207    0.19130    0.57198    1.000
    O55      O        0.67490    0.00910    0.61774    1.000
    O56      O        0.59150    0.99690    0.78003    1.000
    O57      O        0.78402    0.81760    0.57752    1.000
    O58      O        0.60330    0.99380    0.88975    1.000
    O59      O        0.47340    0.00370    0.83628    1.000
    O60      O        0.55640    0.69120    0.83802    1.000
    H5       H        0.53620    0.64740    0.80560    1.000
    Zr11     Zr       0.14113    0.50003    0.70068    1.000
    Zr12     Zr       0.28147    0.00462    0.57528    1.000
    P16      P        0.19296    0.99982    0.70771    1.000
    P17      P        0.23128    0.50204    0.56951    1.000
    P18      P        0.05619    0.42778    0.83467    1.000
    F6       F        0.17125    0.01040    0.54390    1.000
    O61      O        0.13864    0.81590    0.70751    1.000
    O62      O        0.24710    0.00350    0.76329    1.000
    O63      O        0.24210    0.98940    0.65547    1.000
    O64      O        0.14201    0.18950    0.70395    1.000
    O65      O        0.18440    0.49050    0.51015    1.000
    O66      O        0.28207    0.69130    0.57198    1.000
    O67      O        0.17490    0.50910    0.61774    1.000
    O68      O        0.09150    0.49690    0.78003    1.000
    O69      O        0.28402    0.31760    0.57752    1.000
    O70      O        0.10330    0.49380    0.88975    1.000
    O71      O        0.97340    0.50370    0.83628    1.000
    O72      O        0.05640    0.19120    0.83802    1.000
    H6       H        0.03620    0.14740    0.80560    1.000
    Zr13     Zr       0.35887    0.00003    0.79932    1.000
    Zr14     Zr       0.21853    0.50462    0.92472    1.000
    P19      P        0.30704    0.49982    0.79229    1.000
    P20      P        0.26872    0.00204    0.93049    1.000
    P21      P        0.44381    0.92778    0.66533    1.000
    F7       F        0.32875    0.51040    0.95610    1.000
    O73      O        0.36136    0.31590    0.79249    1.000
    O74      O        0.25290    0.50350    0.73671    1.000
    O75      O        0.25790    0.48940    0.84453    1.000
    O76      O        0.35799    0.68950    0.79605    1.000
    O77      O        0.31560    0.99050    0.98985    1.000
    O78      O        0.21793    0.19130    0.92802    1.000
    O79      O        0.32510    0.00910    0.88226    1.000
    O80      O        0.40850    0.99690    0.71997    1.000
    O81      O        0.21598    0.81760    0.92248    1.000
    O82      O        0.39670    0.99380    0.61025    1.000
    O83      O        0.52660    0.00370    0.66372    1.000
    O84      O        0.44360    0.69120    0.66198    1.000
    H7       H        0.46380    0.64740    0.69440    1.000
    Zr15     Zr       0.85887    0.50003    0.79932    1.000
    Zr16     Zr       0.71853    0.00462    0.92472    1.000
    P22      P        0.80704    0.99982    0.79229    1.000
    P23      P        0.76872    0.50204    0.93049    1.000
    P24      P        0.94381    0.42778    0.66533    1.000
    F8       F        0.82875    0.01040    0.95610    1.000
    O85      O        0.86136    0.81590    0.79249    1.000
    O86      O        0.75290    0.00350    0.73671    1.000
    O87      O        0.75790    0.98940    0.84453    1.000
    O88      O        0.85799    0.18950    0.79605    1.000
    O89      O        0.81560    0.49050    0.98985    1.000
    O90      O        0.71793    0.69130    0.92802    1.000
    O91      O        0.82510    0.50910    0.88226    1.000
    O92      O        0.90850    0.49690    0.71997    1.000
    O93      O        0.71598    0.31760    0.92248    1.000
    O94      O        0.89670    0.49380    0.61025    1.000
    O95      O        0.02660    0.50370    0.66372    1.000
    O96      O        0.94360    0.19120    0.66198    1.000
    H8       H        0.96380    0.14740    0.69440    1.000
