data_functionalizedCrystal
_audit_creation_method	'EQeq! by Chris Wilmer'
_symmetry_space_group_name_H-M	'P1'
_symmetry_Int_Tables_number	1
_symmetry_cell_setting	triclinic
loop_
_symmetry_equiv_pos_as_xyz
  x,y,z
_cell_length_a	15.265
_cell_length_b	16.886
_cell_length_c	12.48
_cell_angle_alpha	90
_cell_angle_beta	90
_cell_angle_gamma	90
loop_
_atom_site_label
_atom_site_type_symbol
_atom_site_fract_x
_atom_site_fract_y
_atom_site_fract_z
_atom_site_charge
Mof_O 	O 	0.08434	0.14692	0.15395	-0.615
Mof_O 	O 	0.09501	0.08589	0.00407	-0.638
Mof_C 	C 	0.1176	0.13657	0.0663	0.592
Mof_C 	C 	0.1889	0.1927	0.0307	-0.334
Mof_C 	C 	0.2264	0.1891	0.9309	0.295
Mof_C 	C 	0.2111	0.2567	0.0976	0.055
Mof_H 	H 	0.1825	0.2624	0.163	0.016
Mof_N 	N 	0.2116	0.1201	0.8658	-0.341
Mof_H 	H 	0.2421	0.1128	0.8087	0.132
Mof_H 	H 	0.1723	0.0862	0.8839	0.192
Mof_H 	H 	0.9502	0.8602	0.2386	0.255
Mof_O 	O 	0.58434	0.64692	0.15395	-0.56
Mof_O 	O 	0.59501	0.58589	0.00407	-0.579
Mof_C 	C 	0.6176	0.63657	0.0663	0.587
Mof_C 	C 	0.6889	0.6927	0.0307	-0.301
Mof_C 	C 	0.7264	0.6891	0.9309	0.3
Mof_C 	C 	0.7111	0.7567	0.0976	0.05
Mof_H 	H 	0.6825	0.7624	0.163	0.034
Mof_N 	N 	0.7116	0.6201	0.8658	-0.343
Mof_H 	H 	0.7421	0.6128	0.8087	0.153
Mof_H 	H 	0.6723	0.5862	0.8839	0.213
Mof_H 	H 	0.4502	0.3602	0.2386	0.183
Mof_O 	O 	0.91566	0.85308	0.65395	-0.48
Mof_O 	O 	0.90499	0.91411	0.50407	-0.445
Mof_C 	C 	0.8824	0.86343	0.5663	0.524
Mof_C 	C 	0.8111	0.8073	0.5307	-0.136
Mof_C 	C 	0.7736	0.8109	0.4309	0.157
Mof_C 	C 	0.7889	0.7433	0.5976	-0.061
Mof_H 	H 	0.8175	0.7376	0.663	0.076
Mof_N 	N 	0.7884	0.8799	0.3658	-0.321
Mof_H 	H 	0.7579	0.8872	0.3087	0.153
Mof_H 	H 	0.8277	0.9138	0.3839	0.209
Mof_H 	H 	0.0498	0.1398	0.7386	0.225
Mof_O 	O 	0.41566	0.35308	0.65395	-0.551
Mof_O 	O 	0.40499	0.41411	0.50407	-0.529
Mof_C 	C 	0.3824	0.36343	0.5663	0.533
Mof_C 	C 	0.3111	0.3073	0.5307	-0.161
Mof_C 	C 	0.2736	0.3109	0.4309	0.139
Mof_C 	C 	0.2889	0.2433	0.5976	-0.065
Mof_H 	H 	0.3175	0.2376	0.663	0.061
Mof_N 	N 	0.2884	0.3799	0.3658	-0.313
Mof_H 	H 	0.2579	0.3872	0.3087	0.129
Mof_H 	H 	0.3277	0.4138	0.3839	0.177
Mof_H 	H 	0.5498	0.6398	0.7386	0.191
Mof_O 	O 	0.91566	0.14692	0.34605	-0.522
Mof_O 	O 	0.90499	0.08589	0.49593	-0.515
Mof_C 	C 	0.8824	0.13657	0.4337	0.524
Mof_C 	C 	0.8111	0.1927	0.4693	-0.15
Mof_C 	C 	0.7736	0.1891	0.5691	0.142
Mof_C 	C 	0.7889	0.2567	0.4024	-0.068
Mof_H 	H 	0.8175	0.2624	0.337	0.077
Mof_N 	N 	0.7884	0.1201	0.6342	-0.31
Mof_H 	H 	0.7579	0.1128	0.6913	0.123
Mof_H 	H 	0.8277	0.0862	0.6161	0.173
Mof_H 	H 	0.0498	0.8602	0.2614	0.205
Mof_O 	O 	0.41566	0.64692	0.34605	-0.544
Mof_O 	O 	0.40499	0.58589	0.49593	-0.526
Mof_C 	C 	0.3824	0.63657	0.4337	0.533
Mof_C 	C 	0.3111	0.6927	0.4693	-0.155
Mof_C 	C 	0.2736	0.6891	0.5691	0.145
Mof_C 	C 	0.2889	0.7567	0.4024	-0.066
Mof_H 	H 	0.3175	0.7624	0.337	0.073
Mof_N 	N 	0.2884	0.6201	0.6342	-0.312
Mof_H 	H 	0.2579	0.6128	0.6913	0.13
Mof_H 	H 	0.3277	0.5862	0.6161	0.179
Mof_H 	H 	0.5498	0.3602	0.2614	0.17
Mof_O 	O 	0.08434	0.85308	0.84605	-0.527
Mof_O 	O 	0.09501	0.91411	0.99593	-0.445
Mof_C 	C 	0.1176	0.86343	0.9337	0.482
Mof_C 	C 	0.1889	0.8073	0.9693	-0.001
Mof_C 	C 	0.2264	0.8109	0.0691	0.002
Mof_C 	C 	0.2111	0.7433	0.9024	-0.175
Mof_H 	H 	0.1825	0.7376	0.837	0.103
Mof_N 	N 	0.2116	0.8799	0.1342	-0.29
Mof_H 	H 	0.2421	0.8872	0.1913	0.139
Mof_H 	H 	0.1723	0.9138	0.1161	0.171
Mof_H 	H 	0.9502	0.1398	0.7614	0.253
Mof_O 	O 	0.58434	0.35308	0.84605	-0.529
Mof_O 	O 	0.59501	0.41411	0.99593	-0.469
Mof_C 	C 	0.6176	0.36343	0.9337	0.484
Mof_C 	C 	0.6889	0.3073	0.9693	-0.004
Mof_C 	C 	0.7264	0.3109	0.0691	0.002
Mof_C 	C 	0.7111	0.2433	0.9024	-0.173
Mof_H 	H 	0.6825	0.2376	0.837	0.105
Mof_N 	N 	0.7116	0.3799	0.1342	-0.285
Mof_H 	H 	0.7421	0.3872	0.1913	0.13
Mof_H 	H 	0.6723	0.4138	0.1161	0.154
Mof_H 	H 	0.4502	0.6398	0.7614	0.179
Mof_O 	O 	0.91566	0.85308	0.84605	-0.463
Mof_O 	O 	0.90499	0.91411	0.99593	-0.394
Mof_C 	C 	0.8824	0.86343	0.9337	0.474
Mof_C 	C 	0.8111	0.8073	0.9693	0.009
Mof_C 	C 	0.7736	0.8109	0.0691	0.016
Mof_C 	C 	0.7889	0.7433	0.9024	-0.171
Mof_H 	H 	0.8175	0.7376	0.837	0.116
Mof_N 	N 	0.7884	0.8799	0.1342	-0.292
Mof_H 	H 	0.7579	0.8872	0.1913	0.142
Mof_H 	H 	0.8277	0.9138	0.1161	0.182
Mof_H 	H 	0.0498	0.1398	0.7614	0.212
Mof_O 	O 	0.41566	0.35308	0.84605	-0.531
Mof_O 	O 	0.40499	0.41411	0.99593	-0.469
Mof_C 	C 	0.3824	0.36343	0.9337	0.478
Mof_C 	C 	0.3111	0.3073	0.9693	0.002
Mof_C 	C 	0.2736	0.3109	0.0691	-0.018
Mof_C 	C 	0.2889	0.2433	0.9024	-0.186
Mof_H 	H 	0.3175	0.2376	0.837	0.106
Mof_N 	N 	0.2884	0.3799	0.1342	-0.281
Mof_H 	H 	0.2579	0.3872	0.1913	0.117
Mof_H 	H 	0.3277	0.4138	0.1161	0.147
Mof_H 	H 	0.5498	0.6398	0.7614	0.179
Mof_O 	O 	0.08434	0.14692	0.34605	-0.597
Mof_O 	O 	0.09501	0.08589	0.49593	-0.581
Mof_C 	C 	0.1176	0.13657	0.4337	0.536
Mof_C 	C 	0.1889	0.1927	0.4693	-0.172
Mof_C 	C 	0.2264	0.1891	0.5691	0.136
Mof_C 	C 	0.2111	0.2567	0.4024	-0.066
Mof_H 	H 	0.1825	0.2624	0.337	0.061
Mof_N 	N 	0.2116	0.1201	0.6342	-0.309
Mof_H 	H 	0.2421	0.1128	0.6913	0.119
Mof_H 	H 	0.1723	0.0862	0.6161	0.161
Mof_H 	H 	0.9502	0.8602	0.2614	0.243
Mof_O 	O 	0.58434	0.64692	0.34605	-0.542
Mof_O 	O 	0.59501	0.58589	0.49593	-0.524
Mof_C 	C 	0.6176	0.63657	0.4337	0.537
Mof_C 	C 	0.6889	0.6927	0.4693	-0.152
Mof_C 	C 	0.7264	0.6891	0.5691	0.157
Mof_C 	C 	0.7111	0.7567	0.4024	-0.059
Mof_H 	H 	0.6825	0.7624	0.337	0.074
Mof_N 	N 	0.7116	0.6201	0.6342	-0.314
Mof_H 	H 	0.7421	0.6128	0.6913	0.142
Mof_H 	H 	0.6723	0.5862	0.6161	0.185
Mof_H 	H 	0.4502	0.3602	0.2614	0.17
Mof_O 	O 	0.08434	0.85308	0.65395	-0.546
Mof_O 	O 	0.09501	0.91411	0.50407	-0.501
Mof_C 	C 	0.1176	0.86343	0.5663	0.534
Mof_C 	C 	0.1889	0.8073	0.5307	-0.156
Mof_C 	C 	0.2264	0.8109	0.4309	0.152
Mof_C 	C 	0.2111	0.7433	0.5976	-0.06
Mof_H 	H 	0.1825	0.7376	0.663	0.061
Mof_N 	N 	0.2116	0.8799	0.3658	-0.32
Mof_H 	H 	0.2421	0.8872	0.3087	0.151
Mof_H 	H 	0.1723	0.9138	0.3839	0.2
Mof_H 	H 	0.9502	0.1398	0.7386	0.265
Mof_O 	O 	0.58434	0.35308	0.65395	-0.548
Mof_O 	O 	0.59501	0.41411	0.50407	-0.527
Mof_C 	C 	0.6176	0.36343	0.5663	0.537
Mof_C 	C 	0.6889	0.3073	0.5307	-0.159
Mof_C 	C 	0.7264	0.3109	0.4309	0.152
Mof_C 	C 	0.7111	0.2433	0.5976	-0.058
Mof_H 	H 	0.6825	0.2376	0.663	0.063
Mof_N 	N 	0.7116	0.3799	0.3658	-0.315
Mof_H 	H 	0.7421	0.3872	0.3087	0.141
Mof_H 	H 	0.6723	0.4138	0.3839	0.183
Mof_H 	H 	0.4502	0.6398	0.7386	0.192
Mof_O 	O 	0.91566	0.14692	0.15395	-0.54
Mof_O 	O 	0.90499	0.08589	0.00407	-0.569
Mof_C 	C 	0.8824	0.13657	0.0663	0.576
Mof_C 	C 	0.8111	0.1927	0.0307	-0.305
Mof_C 	C 	0.7736	0.1891	0.9309	0.291
Mof_C 	C 	0.7889	0.2567	0.0976	0.047
Mof_H 	H 	0.8175	0.2624	0.163	0.035
Mof_N 	N 	0.7884	0.1201	0.8658	-0.34
Mof_H 	H 	0.7579	0.1128	0.8087	0.135
Mof_H 	H 	0.8277	0.0862	0.8839	0.202
Mof_H 	H 	0.0498	0.8602	0.2386	0.217
Mof_O 	O 	0.41566	0.64692	0.15395	-0.562
Mof_O 	O 	0.40499	0.58589	0.00407	-0.582
Mof_C 	C 	0.3824	0.63657	0.0663	0.586
Mof_C 	C 	0.3111	0.6927	0.0307	-0.31
Mof_C 	C 	0.2736	0.6891	0.9309	0.295
Mof_C 	C 	0.2889	0.7567	0.0976	0.049
Mof_H 	H 	0.3175	0.7624	0.163	0.031
Mof_N 	N 	0.2884	0.6201	0.8658	-0.342
Mof_H 	H 	0.2579	0.6128	0.8087	0.141
Mof_H 	H 	0.3277	0.5862	0.8839	0.208
Mof_H 	H 	0.5498	0.3602	0.2386	0.183
Mof_Mg	Mg	-1.19545e-33	0.10898	0.25	1.479
Mof_O 	O 	1.64606e-32	0.8764	0.25	-0.951
Mof_N 	N 	1.64606e-32	0.9573	0.25	0.156
Mof_Mg	Mg	0.5	0.60898	0.25	1.493
Mof_O 	O 	0.5	0.3764	0.25	-0.739
Mof_N 	N 	0.5	0.4573	0.25	0.145
Mof_Mg	Mg	1.79933e-32	0.89102	0.75	1.492
Mof_O 	O 	1.01462e-32	0.1236	0.75	-0.965
Mof_N 	N 	1.01462e-32	0.0427	0.75	0.169
Mof_Mg	Mg	0.5	0.39102	0.75	1.492
Mof_O 	O 	0.5	0.6236	0.75	-0.735
Mof_N 	N 	0.5	0.5427	0.75	0.147
Mof_Mg	Mg	-0	0	-0	1.459
Mof_Mg	Mg	0.5	0.5	-0	1.478
Mof_Mg	Mg	1.53267e-33	0	0.5	1.465
Mof_Mg	Mg	0.5	0.5	0.5	1.484
Mof_O 	O 	-2.44518e-33	0.99925	0.1623	-0.468
Mof_O 	O 	0.5	0.49925	0.1623	-0.494
Mof_O 	O 	2.03018e-33	0.00075	0.6623	-0.591
Mof_O 	O 	0.5	0.50075	0.6623	-0.48
Mof_O 	O 	2.99696e-33	0.99925	0.3377	-0.455
Mof_O 	O 	0.5	0.49925	0.3377	-0.481
Mof_O 	O 	-5.27931e-33	0.00075	0.8377	-0.573
Mof_O 	O 	0.5	0.50075	0.8377	-0.464
_end
