# CIF file generated by openbabel 3.1.0, see https://openbabel.org
data_I
_chemical_name_common 'image0'
_cell_length_a 6.6456
_cell_length_b 8.0898
_cell_length_c 20.1549
_cell_angle_alpha 90
_cell_angle_beta 90
_cell_angle_gamma 90
_space_group_name_H-M_alt 'P 1'
_space_group_name_Hall 'P 1'
loop_
    _symmetry_equiv_pos_as_xyz
    x,y,z
loop_
    _atom_site_label
    _atom_site_type_symbol
    _atom_site_fract_x
    _atom_site_fract_y
    _atom_site_fract_z
    _atom_site_occupancy
    Er1      Er       0.49295    0.44471    0.61954    1.000
    O1       O        0.50910    0.58610    0.71860    1.000
    O2       O        0.49990    0.72130    0.81347    1.000
    O3       O        0.31580    0.23260    0.56310    1.000
    O4       O        0.16680    0.09800    0.48000    1.000
    O5       O        0.16000    0.45770    0.65960    1.000
    O6       O        0.82750    0.43440    0.65530    1.000
    O7       O        0.59580    0.72210    0.59100    1.000
    O8       O        0.32420    0.62690    0.54310    1.000
    C1       C        0.42100    0.66600    0.76130    1.000
    H1       H        0.28500    0.68740    0.75460    1.000
    C2       C        0.25290    0.22510    0.50580    1.000
    H2       H        0.26860    0.31810    0.47920    1.000
    C3       C        0.99650    0.46880    0.63080    1.000
    H3       H        0.99860    0.50590    0.58710    1.000
    C4       C        0.44640    0.73730    0.55280    1.000
    H4       H        0.42830    0.83750    0.53100    1.000
    Er2      Er       0.00705    0.55529    0.11954    1.000
    O9       O        0.99090    0.41390    0.21860    1.000
    O10      O        0.00010    0.27870    0.31347    1.000
    O11      O        0.18420    0.76740    0.06310    1.000
    O12      O        0.33320    0.90200    0.98000    1.000
    O13      O        0.34000    0.54230    0.15960    1.000
    O14      O        0.67250    0.56560    0.15530    1.000
    O15      O        0.90420    0.27790    0.09100    1.000
    O16      O        0.17580    0.37310    0.04310    1.000
    C5       C        0.07900    0.33400    0.26130    1.000
    H5       H        0.21500    0.31260    0.25460    1.000
    C6       C        0.24710    0.77490    0.00580    1.000
    H6       H        0.23140    0.68190    0.97920    1.000
    C7       C        0.50350    0.53120    0.13080    1.000
    H7       H        0.50140    0.49410    0.08710    1.000
    C8       C        0.05360    0.26270    0.05280    1.000
    H8       H        0.07170    0.16250    0.03100    1.000
    Er3      Er       0.50705    0.94471    0.88046    1.000
    O17      O        0.49090    0.08610    0.78140    1.000
    O18      O        0.50010    0.22130    0.68653    1.000
    O19      O        0.68420    0.73260    0.93690    1.000
    O20      O        0.83320    0.59800    0.02000    1.000
    O21      O        0.84000    0.95770    0.84040    1.000
    O22      O        0.17250    0.93440    0.84470    1.000
    O23      O        0.40420    0.22210    0.90900    1.000
    O24      O        0.67580    0.12690    0.95690    1.000
    C9       C        0.57900    0.16600    0.73870    1.000
    H9       H        0.71500    0.18740    0.74540    1.000
    C10      C        0.74710    0.72510    0.99420    1.000
    H10      H        0.73140    0.81810    0.02080    1.000
    C11      C        0.00350    0.96880    0.86920    1.000
    H11      H        0.00140    0.00590    0.91290    1.000
    C12      C        0.55360    0.23730    0.94720    1.000
    H12      H        0.57170    0.33750    0.96900    1.000
    Er4      Er       0.99295    0.05529    0.38046    1.000
    O25      O        0.00910    0.91390    0.28140    1.000
    O26      O        0.99990    0.77870    0.18653    1.000
    O27      O        0.81580    0.26740    0.43690    1.000
    O28      O        0.66680    0.40200    0.52000    1.000
    O29      O        0.66000    0.04230    0.34040    1.000
    O30      O        0.32750    0.06560    0.34470    1.000
    O31      O        0.09580    0.77790    0.40900    1.000
    O32      O        0.82420    0.87310    0.45690    1.000
    C13      C        0.92100    0.83400    0.23870    1.000
    H13      H        0.78500    0.81260    0.24540    1.000
    C14      C        0.75290    0.27490    0.49420    1.000
    H14      H        0.76860    0.18190    0.52080    1.000
    C15      C        0.49650    0.03120    0.36920    1.000
    H15      H        0.49860    0.99410    0.41290    1.000
    C16      C        0.94640    0.76270    0.44720    1.000
    H16      H        0.92830    0.66250    0.46900    1.000
