# CIF file generated by openbabel 3.1.0, see https://openbabel.org
data_I
_chemical_name_common 'image0'
_cell_length_a 13.8
_cell_length_b 13.8
_cell_length_c 14.825
_cell_angle_alpha 90
_cell_angle_beta 90
_cell_angle_gamma 120
_space_group_name_H-M_alt 'P 1'
_space_group_name_Hall 'P 1'
loop_
    _symmetry_equiv_pos_as_xyz
    x,y,z
loop_
    _atom_site_label
    _atom_site_type_symbol
    _atom_site_fract_x
    _atom_site_fract_y
    _atom_site_fract_z
    _atom_site_occupancy
    Al1      Al       0.99590    0.22500    0.10240    1.000
    P1       P        0.99500    0.22300    0.88900    1.000
    O1       O        0.99470    0.25360    0.98710    1.000
    O2       O        0.88380    0.12300    0.86300    1.000
    O3       O        0.08620    0.19400    0.87170    1.000
    O4       O        0.01270    0.32010    0.82970    1.000
    Al2      Al       0.66257    0.55833    0.43573    1.000
    P2       P        0.66167    0.55633    0.22233    1.000
    O5       O        0.66137    0.58693    0.32043    1.000
    O6       O        0.55047    0.45633    0.19633    1.000
    O7       O        0.75287    0.52733    0.20503    1.000
    O8       O        0.67937    0.65343    0.16303    1.000
    Al3      Al       0.32923    0.89167    0.76907    1.000
    P3       P        0.32833    0.88967    0.55567    1.000
    O9       O        0.32803    0.92027    0.65377    1.000
    O10      O        0.21713    0.78967    0.52967    1.000
    O11      O        0.41953    0.86067    0.53837    1.000
    O12      O        0.34603    0.98677    0.49637    1.000
    Al4      Al       0.77500    0.77090    0.10240    1.000
    P4       P        0.77700    0.77200    0.88900    1.000
    O13      O        0.74640    0.74110    0.98710    1.000
    O14      O        0.87700    0.76080    0.86300    1.000
    O15      O        0.80600    0.89220    0.87170    1.000
    O16      O        0.67990    0.69260    0.82970    1.000
    Al5      Al       0.44167    0.10423    0.43573    1.000
    P5       P        0.44367    0.10533    0.22233    1.000
    O17      O        0.41307    0.07443    0.32043    1.000
    O18      O        0.54367    0.09413    0.19633    1.000
    O19      O        0.47267    0.22553    0.20503    1.000
    O20      O        0.34657    0.02593    0.16303    1.000
    Al6      Al       0.10833    0.43757    0.76907    1.000
    P6       P        0.11033    0.43867    0.55567    1.000
    O21      O        0.07973    0.40777    0.65377    1.000
    O22      O        0.21033    0.42747    0.52967    1.000
    O23      O        0.13933    0.55887    0.53837    1.000
    O24      O        0.01323    0.35927    0.49637    1.000
    Al7      Al       0.22910    0.00410    0.10240    1.000
    P7       P        0.22800    0.00500    0.88900    1.000
    O25      O        0.25890    0.00530    0.98710    1.000
    O26      O        0.23920    0.11620    0.86300    1.000
    O27      O        0.10780    0.91380    0.87170    1.000
    O28      O        0.30740    0.98730    0.82970    1.000
    Al8      Al       0.89577    0.33743    0.43573    1.000
    P8       P        0.89467    0.33833    0.22233    1.000
    O29      O        0.92557    0.33863    0.32043    1.000
    O30      O        0.90587    0.44953    0.19633    1.000
    O31      O        0.77447    0.24713    0.20503    1.000
    O32      O        0.97407    0.32063    0.16303    1.000
    Al9      Al       0.56243    0.67077    0.76907    1.000
    P9       P        0.56133    0.67167    0.55567    1.000
    O33      O        0.59223    0.67197    0.65377    1.000
    O34      O        0.57253    0.78287    0.52967    1.000
    O35      O        0.44113    0.58047    0.53837    1.000
    O36      O        0.64073    0.65397    0.49637    1.000
    Al10     Al       0.00410    0.77500    0.89760    1.000
    P10      P        0.00500    0.77700    0.11100    1.000
    O37      O        0.00530    0.74640    0.01290    1.000
    O38      O        0.11620    0.87700    0.13700    1.000
    O39      O        0.91380    0.80600    0.12830    1.000
    O40      O        0.98730    0.67990    0.17030    1.000
    Al11     Al       0.67077    0.10833    0.23093    1.000
    P11      P        0.67167    0.11033    0.44433    1.000
    O41      O        0.67197    0.07973    0.34623    1.000
    O42      O        0.78287    0.21033    0.47033    1.000
    O43      O        0.58047    0.13933    0.46163    1.000
    O44      O        0.65397    0.01323    0.50363    1.000
    Al12     Al       0.33743    0.44167    0.56427    1.000
    P12      P        0.33833    0.44367    0.77767    1.000
    O45      O        0.33863    0.41307    0.67957    1.000
    O46      O        0.44953    0.54367    0.80367    1.000
    O47      O        0.24713    0.47267    0.79497    1.000
    O48      O        0.32063    0.34657    0.83697    1.000
    Al13     Al       0.22500    0.22910    0.89760    1.000
    P13      P        0.22300    0.22800    0.11100    1.000
    O49      O        0.25360    0.25890    0.01290    1.000
    O50      O        0.12300    0.23920    0.13700    1.000
    O51      O        0.19400    0.10780    0.12830    1.000
    O52      O        0.32010    0.30740    0.17030    1.000
    Al14     Al       0.89167    0.56243    0.23093    1.000
    P14      P        0.88967    0.56133    0.44433    1.000
    O53      O        0.92027    0.59223    0.34623    1.000
    O54      O        0.78967    0.57253    0.47033    1.000
    O55      O        0.86067    0.44113    0.46163    1.000
    O56      O        0.98677    0.64073    0.50363    1.000
    Al15     Al       0.55833    0.89577    0.56427    1.000
    P15      P        0.55633    0.89467    0.77767    1.000
    O57      O        0.58693    0.92557    0.67957    1.000
    O58      O        0.45633    0.90587    0.80367    1.000
    O59      O        0.52733    0.77447    0.79497    1.000
    O60      O        0.65343    0.97407    0.83697    1.000
    Al16     Al       0.77090    0.99590    0.89760    1.000
    P16      P        0.77200    0.99500    0.11100    1.000
    O61      O        0.74110    0.99470    0.01290    1.000
    O62      O        0.76080    0.88380    0.13700    1.000
    O63      O        0.89220    0.08620    0.12830    1.000
    O64      O        0.69260    0.01270    0.17030    1.000
    Al17     Al       0.43757    0.32923    0.23093    1.000
    P17      P        0.43867    0.32833    0.44433    1.000
    O65      O        0.40777    0.32803    0.34623    1.000
    O66      O        0.42747    0.21713    0.47033    1.000
    O67      O        0.55887    0.41953    0.46163    1.000
    O68      O        0.35927    0.34603    0.50363    1.000
    Al18     Al       0.10423    0.66257    0.56427    1.000
    P18      P        0.10533    0.66167    0.77767    1.000
    O69      O        0.07443    0.66137    0.67957    1.000
    O70      O        0.09413    0.55047    0.80367    1.000
    O71      O        0.22553    0.75287    0.79497    1.000
    O72      O        0.02593    0.67937    0.83697    1.000
