# CIF file generated by openbabel 3.1.0, see https://openbabel.org
data_I
_chemical_name_common 'IVEHEW_clean5b'
_cell_length_a 11.0837
_cell_length_b 11.1496
_cell_length_c 16.937
_cell_angle_alpha 90
_cell_angle_beta 97.534
_cell_angle_gamma 90
_space_group_name_H-M_alt 'P 1'
_space_group_name_Hall 'P 1'
loop_
    _symmetry_equiv_pos_as_xyz
    x,y,z
loop_
    _atom_site_label
    _atom_site_type_symbol
    _atom_site_fract_x
    _atom_site_fract_y
    _atom_site_fract_z
    _atom_site_occupancy
    Cu1      Cu       0.50000    0.54209    0.25000    1.000
    Cu2      Cu       0.50000    0.45791    0.75000    1.000
    H1       H        0.27710    0.45100    0.15510    1.000
    H2       H        0.06660    0.43420    0.15510    1.000
    H3       H        0.11490    0.62230    0.36150    1.000
    H4       H        0.32690    0.63840    0.35400    1.000
    H5       H        0.36080    0.74150    0.16820    1.000
    H6       H        0.35500    0.94930    0.16400    1.000
    H7       H        0.57640    0.13700    0.14930    1.000
    H8       H        0.58120    0.33970    0.15300    1.000
    H9       H        0.72290    0.45100    0.34490    1.000
    H10      H        0.93340    0.43420    0.34490    1.000
    H11      H        0.88510    0.62230    0.13850    1.000
    H12      H        0.67310    0.63840    0.14600    1.000
    H13      H        0.63920    0.74150    0.33180    1.000
    H14      H        0.64500    0.94930    0.33600    1.000
    H15      H        0.42360    0.13700    0.35070    1.000
    H16      H        0.41880    0.33970    0.34700    1.000
    H17      H        0.72290    0.54900    0.84490    1.000
    H18      H        0.93340    0.56580    0.84490    1.000
    H19      H        0.88510    0.37770    0.63850    1.000
    H20      H        0.67310    0.36160    0.64600    1.000
    H21      H        0.39650    0.25630    0.83680    1.000
    H22      H        0.39130    0.04420    0.83840    1.000
    H23      H        0.42360    0.86300    0.85070    1.000
    H24      H        0.41880    0.66030    0.84700    1.000
    H25      H        0.27710    0.54900    0.65510    1.000
    H26      H        0.06660    0.56580    0.65510    1.000
    H27      H        0.11490    0.37770    0.86150    1.000
    H28      H        0.32690    0.36160    0.85400    1.000
    H29      H        0.60350    0.25630    0.66320    1.000
    H30      H        0.60870    0.04420    0.66160    1.000
    H31      H        0.57640    0.86300    0.64930    1.000
    H32      H        0.58120    0.66030    0.65300    1.000
    C1       C        0.24050    0.48920    0.19620    1.000
    C2       C        0.11750    0.47890    0.19390    1.000
    C3       C        0.07800    0.53950    0.25300    1.000
    C4       C        0.14960    0.59220    0.31710    1.000
    C5       C        0.27310    0.59930    0.31380    1.000
    C6       C        0.41840    0.78770    0.20190    1.000
    C7       C        0.41450    0.90810    0.19940    1.000
    C8       C        0.54510    0.17630    0.19200    1.000
    C9       C        0.54700    0.29560    0.19260    1.000
    C10      C        0.75950    0.48920    0.30380    1.000
    C11      C        0.88250    0.47890    0.30610    1.000
    C12      C        0.92200    0.53950    0.24700    1.000
    C13      C        0.85040    0.59220    0.18290    1.000
    C14      C        0.72690    0.59930    0.18620    1.000
    C15      C        0.58160    0.78770    0.29810    1.000
    C16      C        0.58550    0.90810    0.30060    1.000
    C17      C        0.45490    0.17630    0.30800    1.000
    C18      C        0.45300    0.29560    0.30740    1.000
    C19      C        0.75950    0.51080    0.80380    1.000
    C20      C        0.88250    0.52110    0.80610    1.000
    C21      C        0.92200    0.46050    0.74700    1.000
    C22      C        0.85040    0.40780    0.68290    1.000
    C23      C        0.72690    0.40070    0.68620    1.000
    C24      C        0.43810    0.21050    0.80160    1.000
    C25      C        0.43510    0.08740    0.80310    1.000
    C26      C        0.45490    0.82370    0.80800    1.000
    C27      C        0.45300    0.70440    0.80740    1.000
    C28      C        0.24050    0.51080    0.69620    1.000
    C29      C        0.11750    0.52110    0.69390    1.000
    C30      C        0.07800    0.46050    0.75300    1.000
    C31      C        0.14960    0.40780    0.81710    1.000
    C32      C        0.27310    0.40070    0.81380    1.000
    C33      C        0.56190    0.21050    0.69840    1.000
    C34      C        0.56490    0.08740    0.69690    1.000
    C35      C        0.54510    0.82370    0.69200    1.000
    C36      C        0.54700    0.70440    0.69260    1.000
    C37      C        0.50000    0.96910    0.25000    1.000
    C38      C        0.50000    0.10330    0.25000    1.000
    C39      C        0.50000    0.03090    0.75000    1.000
    C40      C        0.50000    0.89670    0.75000    1.000
    S1       S        0.45510    0.55230    0.03020    1.000
    S2       S        0.54490    0.55230    0.46980    1.000
    S3       S        0.54490    0.44770    0.96980    1.000
    S4       S        0.45510    0.44770    0.53020    1.000
    N1       N        0.31250    0.54800    0.25090    1.000
    N2       N        0.68750    0.54800    0.24910    1.000
    N3       N        0.68750    0.45200    0.74910    1.000
    N4       N        0.31250    0.45200    0.75090    1.000
    N5       N        0.50000    0.73630    0.25000    1.000
    N6       N        0.50000    0.35000    0.25000    1.000
    N7       N        0.50000    0.26370    0.75000    1.000
    N8       N        0.50000    0.65000    0.75000    1.000
    O1       O        0.46790    0.54660    0.10840    1.000
    O2       O        0.33500    0.58220    0.98470    1.000
    O3       O        0.51010    0.66990    0.01030    1.000
    O4       O        0.53210    0.54660    0.39160    1.000
    O5       O        0.66500    0.58220    0.51530    1.000
    O6       O        0.48990    0.66990    0.48970    1.000
    O7       O        0.53210    0.45340    0.89160    1.000
    O8       O        0.66500    0.41780    0.01530    1.000
    O9       O        0.48990    0.33010    0.98970    1.000
    O10      O        0.46790    0.45340    0.60840    1.000
    O11      O        0.33500    0.41780    0.48470    1.000
    O12      O        0.51010    0.33010    0.51030    1.000
