# CIF file generated by openbabel 3.1.0, see https://openbabel.org
data_I
_chemical_name_common 'image0'
_cell_length_a 16.2798
_cell_length_b 13.9248
_cell_length_c 18.0439
_cell_angle_alpha 90
_cell_angle_beta 106.082
_cell_angle_gamma 90
_space_group_name_H-M_alt 'P 1'
_space_group_name_Hall 'P 1'
loop_
    _symmetry_equiv_pos_as_xyz
    x,y,z
loop_
    _atom_site_label
    _atom_site_type_symbol
    _atom_site_fract_x
    _atom_site_fract_y
    _atom_site_fract_z
    _atom_site_occupancy
    Cd1      Cd       0.18856    0.29811    0.15835    1.000
    N1       N        0.23377    0.36799    0.27650    1.000
    C1       C        0.24464    0.40816    0.33350    1.000
    Ag1      Ag       0.25097    0.49162    0.42973    1.000
    C2       C        0.24325    0.57060    0.52439    1.000
    N2       N        0.23361    0.61587    0.57412    1.000
    N3       N        0.11421    0.16754    0.09809    1.000
    C3       C        0.07535    0.10636    0.06337    1.000
    Ag2      Ag       0.92795    0.52520    0.17695    1.000
    C4       C        0.01142    0.42440    0.15564    1.000
    N4       N        0.06325    0.37263    0.14924    1.000
    C5       C        0.84994    0.63636    0.19195    1.000
    N5       N        0.80265    0.69592    0.19322    1.000
    Cd2      Cd       0.68856    0.79811    0.15835    1.000
    N6       N        0.73377    0.86799    0.27650    1.000
    C6       C        0.74464    0.90816    0.33350    1.000
    Ag3      Ag       0.75097    0.99162    0.42973    1.000
    C7       C        0.74325    0.07060    0.52439    1.000
    N7       N        0.73361    0.11587    0.57412    1.000
    N8       N        0.61421    0.66754    0.09809    1.000
    C8       C        0.57535    0.60636    0.06337    1.000
    Ag4      Ag       0.42795    0.02520    0.17695    1.000
    C9       C        0.51142    0.92440    0.15564    1.000
    N9       N        0.56325    0.87263    0.14924    1.000
    C10      C        0.34994    0.13636    0.19195    1.000
    N10      N        0.30265    0.19592    0.19322    1.000
    Cd3      Cd       0.81144    0.29811    0.34165    1.000
    N11      N        0.76623    0.36799    0.22350    1.000
    C11      C        0.75536    0.40816    0.16650    1.000
    Ag5      Ag       0.74903    0.49162    0.07027    1.000
    C12      C        0.75675    0.57060    0.97561    1.000
    N12      N        0.76639    0.61587    0.92588    1.000
    N13      N        0.88579    0.16754    0.40191    1.000
    C13      C        0.92465    0.10636    0.43663    1.000
    Ag6      Ag       0.07205    0.52520    0.32305    1.000
    C14      C        0.98858    0.42440    0.34436    1.000
    N14      N        0.93675    0.37263    0.35076    1.000
    C15      C        0.15006    0.63636    0.30805    1.000
    N15      N        0.19735    0.69592    0.30678    1.000
    Cd4      Cd       0.31144    0.79811    0.34165    1.000
    N16      N        0.26623    0.86799    0.22350    1.000
    C16      C        0.25536    0.90816    0.16650    1.000
    Ag7      Ag       0.24903    0.99162    0.07027    1.000
    C17      C        0.25675    0.07060    0.97561    1.000
    N17      N        0.26639    0.11587    0.92588    1.000
    N18      N        0.38579    0.66754    0.40191    1.000
    C18      C        0.42465    0.60636    0.43663    1.000
    Ag8      Ag       0.57205    0.02520    0.32305    1.000
    C19      C        0.48858    0.92440    0.34436    1.000
    N19      N        0.43675    0.87263    0.35076    1.000
    C20      C        0.65006    0.13636    0.30805    1.000
    N20      N        0.69735    0.19592    0.30678    1.000
    Cd5      Cd       0.81144    0.70189    0.84165    1.000
    N21      N        0.76623    0.63201    0.72350    1.000
    C21      C        0.75536    0.59184    0.66650    1.000
    Ag9      Ag       0.74903    0.50838    0.57027    1.000
    C22      C        0.75675    0.42940    0.47561    1.000
    N22      N        0.76639    0.38413    0.42588    1.000
    N23      N        0.88579    0.83246    0.90191    1.000
    C23      C        0.92465    0.89364    0.93663    1.000
    Ag10     Ag       0.07205    0.47480    0.82305    1.000
    C24      C        0.98858    0.57560    0.84436    1.000
    N24      N        0.93675    0.62737    0.85076    1.000
    C25      C        0.15006    0.36364    0.80805    1.000
    N25      N        0.19735    0.30408    0.80678    1.000
    Cd6      Cd       0.31144    0.20189    0.84165    1.000
    N26      N        0.26623    0.13201    0.72350    1.000
    C26      C        0.25536    0.09184    0.66650    1.000
    Ag11     Ag       0.24903    0.00838    0.57027    1.000
    C27      C        0.25675    0.92940    0.47561    1.000
    N27      N        0.26639    0.88413    0.42588    1.000
    N28      N        0.38579    0.33246    0.90191    1.000
    C28      C        0.42465    0.39364    0.93663    1.000
    Ag12     Ag       0.57205    0.97480    0.82305    1.000
    C29      C        0.48858    0.07560    0.84436    1.000
    N29      N        0.43675    0.12737    0.85076    1.000
    C30      C        0.65006    0.86364    0.80805    1.000
    N30      N        0.69735    0.80408    0.80678    1.000
    Cd7      Cd       0.18856    0.70189    0.65835    1.000
    N31      N        0.23377    0.63201    0.77650    1.000
    C31      C        0.24464    0.59184    0.83350    1.000
    Ag13     Ag       0.25097    0.50838    0.92973    1.000
    C32      C        0.24325    0.42940    0.02439    1.000
    N32      N        0.23361    0.38413    0.07412    1.000
    N33      N        0.11421    0.83246    0.59809    1.000
    C33      C        0.07535    0.89364    0.56337    1.000
    Ag14     Ag       0.92795    0.47480    0.67695    1.000
    C34      C        0.01142    0.57560    0.65564    1.000
    N34      N        0.06325    0.62737    0.64924    1.000
    C35      C        0.84994    0.36364    0.69195    1.000
    N35      N        0.80265    0.30408    0.69322    1.000
    Cd8      Cd       0.68856    0.20189    0.65835    1.000
    N36      N        0.73377    0.13201    0.77650    1.000
    C36      C        0.74464    0.09184    0.83350    1.000
    Ag15     Ag       0.75097    0.00838    0.92973    1.000
    C37      C        0.74325    0.92940    0.02439    1.000
    N37      N        0.73361    0.88413    0.07412    1.000
    N38      N        0.61421    0.33246    0.59809    1.000
    C38      C        0.57535    0.39364    0.56337    1.000
    Ag16     Ag       0.42795    0.97480    0.67695    1.000
    C39      C        0.51142    0.07560    0.65564    1.000
    N39      N        0.56325    0.12737    0.64924    1.000
    C40      C        0.34994    0.86364    0.69195    1.000
    N40      N        0.30265    0.80408    0.69322    1.000
    Ag17     Ag       0.00000    0.00000    0.00000    1.000
    Ag18     Ag       0.50000    0.50000    0.00000    1.000
    Ag19     Ag       0.00000    0.00000    0.50000    1.000
    Ag20     Ag       0.50000    0.50000    0.50000    1.000
