# CIF file generated by openbabel 3.1.0, see https://openbabel.org
data_I
_chemical_name_common 'image0'
_cell_length_a 10.4647
_cell_length_b 15.5722
_cell_length_c 13.8784
_cell_angle_alpha 90
_cell_angle_beta 96.829
_cell_angle_gamma 90
_space_group_name_H-M_alt 'P 1'
_space_group_name_Hall 'P 1'
loop_
    _symmetry_equiv_pos_as_xyz
    x,y,z
loop_
    _atom_site_label
    _atom_site_type_symbol
    _atom_site_fract_x
    _atom_site_fract_y
    _atom_site_fract_z
    _atom_site_occupancy
    Zn1      Zn       0.53322    0.41442    0.39012    1.000
    P1       P        0.42947    0.60693    0.38229    1.000
    P2       P        0.70809    0.33438    0.22905    1.000
    O1       O        0.67248    0.38906    0.31244    1.000
    O2       O        0.85133    0.34008    0.22143    1.000
    O3       O        0.62769    0.35564    0.13426    1.000
    O4       O        0.52828    0.53811    0.37297    1.000
    O5       O        0.37780    0.60644    0.48026    1.000
    O6       O        0.47924    0.69553    0.36169    1.000
    H1       H        0.32390    0.59590    0.31400    1.000
    H2       H        0.68440    0.25580    0.24810    1.000
    Zn2      Zn       0.03322    0.91442    0.39012    1.000
    P3       P        0.92947    0.10693    0.38229    1.000
    P4       P        0.20809    0.83438    0.22905    1.000
    O7       O        0.17248    0.88906    0.31244    1.000
    O8       O        0.35133    0.84008    0.22143    1.000
    O9       O        0.12769    0.85564    0.13426    1.000
    O10      O        0.02828    0.03811    0.37297    1.000
    O11      O        0.87780    0.10644    0.48026    1.000
    O12      O        0.97924    0.19553    0.36169    1.000
    H3       H        0.82390    0.09590    0.31400    1.000
    H4       H        0.18440    0.75580    0.24810    1.000
    Zn3      Zn       0.46678    0.41442    0.10988    1.000
    P5       P        0.57053    0.60693    0.11771    1.000
    P6       P        0.29191    0.33438    0.27095    1.000
    O13      O        0.32752    0.38906    0.18756    1.000
    O14      O        0.14867    0.34008    0.27857    1.000
    O15      O        0.37231    0.35564    0.36574    1.000
    O16      O        0.47172    0.53811    0.12703    1.000
    O17      O        0.62220    0.60644    0.01974    1.000
    O18      O        0.52076    0.69553    0.13831    1.000
    H5       H        0.67610    0.59590    0.18600    1.000
    H6       H        0.31560    0.25580    0.25190    1.000
    Zn4      Zn       0.96678    0.91442    0.10988    1.000
    P7       P        0.07053    0.10693    0.11771    1.000
    P8       P        0.79191    0.83438    0.27095    1.000
    O19      O        0.82752    0.88906    0.18756    1.000
    O20      O        0.64867    0.84008    0.27857    1.000
    O21      O        0.87231    0.85564    0.36574    1.000
    O22      O        0.97172    0.03811    0.12703    1.000
    O23      O        0.12220    0.10644    0.01974    1.000
    O24      O        0.02076    0.19553    0.13831    1.000
    H7       H        0.17610    0.09590    0.18600    1.000
    H8       H        0.81560    0.75580    0.25190    1.000
    Zn5      Zn       0.46678    0.58558    0.60988    1.000
    P9       P        0.57053    0.39307    0.61771    1.000
    P10      P        0.29191    0.66562    0.77095    1.000
    O25      O        0.32752    0.61094    0.68756    1.000
    O26      O        0.14867    0.65992    0.77857    1.000
    O27      O        0.37231    0.64436    0.86574    1.000
    O28      O        0.47172    0.46189    0.62703    1.000
    O29      O        0.62220    0.39356    0.51974    1.000
    O30      O        0.52076    0.30447    0.63831    1.000
    H9       H        0.67610    0.40410    0.68600    1.000
    H10      H        0.31560    0.74420    0.75190    1.000
    Zn6      Zn       0.96678    0.08558    0.60988    1.000
    P11      P        0.07053    0.89307    0.61771    1.000
    P12      P        0.79191    0.16562    0.77095    1.000
    O31      O        0.82752    0.11094    0.68756    1.000
    O32      O        0.64867    0.15992    0.77857    1.000
    O33      O        0.87231    0.14436    0.86574    1.000
    O34      O        0.97172    0.96189    0.62703    1.000
    O35      O        0.12220    0.89356    0.51974    1.000
    O36      O        0.02076    0.80447    0.63831    1.000
    H11      H        0.17610    0.90410    0.68600    1.000
    H12      H        0.81560    0.24420    0.75190    1.000
    Zn7      Zn       0.53322    0.58558    0.89012    1.000
    P13      P        0.42947    0.39307    0.88229    1.000
    P14      P        0.70809    0.66562    0.72905    1.000
    O37      O        0.67248    0.61094    0.81244    1.000
    O38      O        0.85133    0.65992    0.72143    1.000
    O39      O        0.62769    0.64436    0.63426    1.000
    O40      O        0.52828    0.46189    0.87297    1.000
    O41      O        0.37780    0.39356    0.98026    1.000
    O42      O        0.47924    0.30447    0.86169    1.000
    H13      H        0.32390    0.40410    0.81400    1.000
    H14      H        0.68440    0.74420    0.74810    1.000
    Zn8      Zn       0.03322    0.08558    0.89012    1.000
    P15      P        0.92947    0.89307    0.88229    1.000
    P16      P        0.20809    0.16562    0.72905    1.000
    O43      O        0.17248    0.11094    0.81244    1.000
    O44      O        0.35133    0.15992    0.72143    1.000
    O45      O        0.12769    0.14436    0.63426    1.000
    O46      O        0.02828    0.96189    0.87297    1.000
    O47      O        0.87780    0.89356    0.98026    1.000
    O48      O        0.97924    0.80447    0.86169    1.000
    H15      H        0.82390    0.90410    0.81400    1.000
    H16      H        0.18440    0.24420    0.74810    1.000
    Zn9      Zn       0.00000    0.26617    0.25000    1.000
    Zn10     Zn       0.50000    0.76617    0.25000    1.000
    Zn11     Zn       0.00000    0.73383    0.75000    1.000
    Zn12     Zn       0.50000    0.23383    0.75000    1.000
