data_functionalizedCrystal
_audit_creation_method	'EQeq! by Chris Wilmer'
_symmetry_space_group_name_H-M	'P1'
_symmetry_Int_Tables_number	1
_symmetry_cell_setting	triclinic
loop_
_symmetry_equiv_pos_as_xyz
  x,y,z
_cell_length_a	13.2928
_cell_length_b	6.57
_cell_length_c	13.6461
_cell_angle_alpha	90
_cell_angle_beta	119.069
_cell_angle_gamma	90
loop_
_atom_site_label
_atom_site_type_symbol
_atom_site_fract_x
_atom_site_fract_y
_atom_site_fract_z
_atom_site_charge
Mof_Fe	Fe	0.24739	0.24548	0.4957	1.31
Mof_Fe	Fe	0.49483	0.59155	0.99451	0.869
Mof_Zn	Zn	0.95027	0.40171	0.99672	1.244
Mof_F 	F 	0.1076	0.1489	0.4862	-0.431
Mof_F 	F 	0.1868	0.5178	0.4646	-0.455
Mof_F 	F 	0.3077	0.977	0.5233	-0.456
Mof_F 	F 	0.3867	0.3447	0.5033	-0.428
Mof_F 	F 	0.9701	0.156	0.9229	-0.703
Mof_F 	F 	0.4758	0.3436	0.0714	-0.632
Mof_N 	N 	0.1755	0.1872	0.3188	-0.144
Mof_N 	N 	0.1246	0.342	0.2431	-0.016
Mof_N 	N 	0.0771	0.2639	0.1439	-0.158
Mof_N 	N 	0.0919	0.0554	0.1493	-0.244
Mof_N 	N 	0.1892	0.8269	0.3013	-0.379
Mof_H 	H 	0.174	0.7243	0.2572	0.237
Mof_H 	H 	0.228	0.81	0.3728	0.29
Mof_C 	C 	0.1525	0.0138	0.2586	0.284
Mof_N 	N 	0.8031	0.3564	0.0013	-0.247
Mof_N 	N 	0.7378	0.5155	0.9996	-0.032
Mof_N 	N 	0.649	0.4449	0.005	-0.101
Mof_N 	N 	0.6519	0.2397	0.0091	-0.212
Mof_N 	N 	0.7843	0.9912	0.0124	-0.323
Mof_H 	H 	0.7452	0.8926	0.0187	0.184
Mof_H 	H 	0.8466	0.9663	0.0101	0.138
Mof_C 	C 	0.747	0.1893	0.0061	0.222
Mof_N 	N 	0.3152	0.3043	0.6682	-0.149
Mof_N 	N 	0.3547	0.1525	0.7447	-0.024
Mof_N 	N 	0.4033	0.233	0.8441	-0.139
Mof_N 	N 	0.3991	0.4374	0.8388	-0.176
Mof_N 	N 	0.3183	0.6698	0.6835	-0.385
Mof_H 	H 	0.3381	0.7745	0.7267	0.24
Mof_H 	H 	0.2825	0.6853	0.6119	0.296
Mof_C 	C 	0.3435	0.4802	0.7283	0.301
Mof_Zn	Zn	0.50517	0.09155	0.00549	1.228
Mof_Fe	Fe	0.75261	0.74548	0.5043	1.328
Mof_Zn	Zn	0.04973	0.90171	0.00328	1.239
Mof_F 	F 	0.8924	0.6489	0.5138	-0.428
Mof_F 	F 	0.8132	0.0178	0.5354	-0.468
Mof_F 	F 	0.6923	0.477	0.4767	-0.468
Mof_F 	F 	0.6133	0.8447	0.4967	-0.422
Mof_F 	F 	0.0299	0.656	0.0771	-0.705
Mof_F 	F 	0.5242	0.8436	0.9286	-0.608
Mof_N 	N 	0.8245	0.6872	0.6812	-0.143
Mof_N 	N 	0.8754	0.842	0.7569	-0.011
Mof_N 	N 	0.9229	0.7639	0.8561	-0.15
Mof_N 	N 	0.9081	0.5554	0.8507	-0.239
Mof_N 	N 	0.8108	0.3269	0.6987	-0.387
Mof_H 	H 	0.826	0.2243	0.7428	0.236
Mof_H 	H 	0.772	0.31	0.6272	0.288
Mof_C 	C 	0.8475	0.5138	0.7414	0.3
Mof_N 	N 	0.1969	0.8564	0.9987	-0.222
Mof_N 	N 	0.2622	0.0155	0.0004	-0.08
Mof_N 	N 	0.351	0.9449	0.995	-0.112
Mof_N 	N 	0.3481	0.7397	0.9909	-0.163
Mof_N 	N 	0.2157	0.4912	0.9876	-0.334
Mof_H 	H 	0.2548	0.3926	0.9813	0.196
Mof_H 	H 	0.1534	0.4663	0.9899	0.146
Mof_C 	C 	0.253	0.6893	0.9939	0.252
Mof_N 	N 	0.6848	0.8043	0.3318	-0.149
Mof_N 	N 	0.6453	0.6525	0.2553	-0.018
Mof_N 	N 	0.5967	0.733	0.1559	-0.101
Mof_N 	N 	0.6009	0.9374	0.1612	-0.223
Mof_N 	N 	0.6817	0.1698	0.3165	-0.392
Mof_H 	H 	0.6619	0.2745	0.2733	0.23
Mof_H 	H 	0.7175	0.1853	0.3881	0.292
Mof_C 	C 	0.6565	0.9802	0.2717	0.307
_end
