data_functionalizedCrystal
_audit_creation_method	'EQeq! by Chris Wilmer'
_symmetry_space_group_name_H-M	'P1'
_symmetry_Int_Tables_number	1
_symmetry_cell_setting	triclinic
loop_
_symmetry_equiv_pos_as_xyz
  x,y,z
_cell_length_a	9.1075
_cell_length_b	12.506
_cell_length_c	12.506
_cell_angle_alpha	113.532
_cell_angle_beta	101.397
_cell_angle_gamma	78.6031
loop_
_atom_site_label
_atom_site_type_symbol
_atom_site_fract_x
_atom_site_fract_y
_atom_site_fract_z
_atom_site_charge
Mof_Cu	Cu	0.68399	0.77371	0.17371	0.915
Mof_Cu	Cu	0.82927	0.76034	0.37128	0.914
Mof_Cu	Cu	0.31601	0.17371	0.77371	0.914
Mof_Cu	Cu	0.17073	0.37128	0.76034	0.913
Mof_H 	H 	0.4408	0.9401	0.0851	0.009
Mof_H 	H 	0.2649	0.9428	0.9284	0.075
Mof_H 	H 	0.3995	0.6017	0.7655	0.081
Mof_H 	H 	0.5804	0.61	0.9244	0.007
Mof_H 	H 	0.9444	0.933	0.6148	0.017
Mof_H 	H 	0.1226	0.9446	0.7758	0.082
Mof_H 	H 	0.2348	0.593	0.6286	0.074
Mof_H 	H 	0.0532	0.5931	0.4707	0.012
Mof_H 	H 	0.4812	0.5379	0.3285	0.056
Mof_H 	H 	0.3008	0.602	0.1414	0.036
Mof_H 	H 	0.2691	0.5012	0.179	0.016
Mof_H 	H 	0.5094	0.3937	0.1245	0.143
Mof_H 	H 	0.5312	0.4922	0.0798	0.153
Mof_H 	H 	0.3747	0.7222	0.4578	0.133
Mof_H 	H 	0.2705	0.7465	0.3487	0.141
Mof_H 	H 	0.2442	0.6424	0.3836	0.135
Mof_H 	H 	0.1669	0.8587	0.2025	0.07
Mof_H 	H 	0.2391	0.0342	0.353	0.003
Mof_H 	H 	0.2041	0.945	0.4044	0.026
Mof_H 	H 	0.9615	0.0597	0.4411	0.148
Mof_H 	H 	0.0061	0.1516	0.3974	0.139
Mof_H 	H 	0.125	0.0285	0.1603	0.085
Mof_H 	H 	0.0057	0.94	0.081	0.099
Mof_H 	H 	0.9561	0.0541	0.1911	0.089
Mof_H 	H 	0.5592	0.0851	0.9401	0.009
Mof_H 	H 	0.7351	0.9284	0.9428	0.075
Mof_H 	H 	0.6005	0.7655	0.6017	0.081
Mof_H 	H 	0.4196	0.9244	0.61	0.007
Mof_H 	H 	0.0556	0.6148	0.933	0.017
Mof_H 	H 	0.8774	0.7758	0.9446	0.082
Mof_H 	H 	0.7652	0.6286	0.593	0.074
Mof_H 	H 	0.9468	0.4707	0.5931	0.012
Mof_H 	H 	0.5188	0.3285	0.5379	0.056
Mof_H 	H 	0.6992	0.1414	0.602	0.036
Mof_H 	H 	0.7309	0.179	0.5012	0.016
Mof_H 	H 	0.4906	0.1245	0.3937	0.143
Mof_H 	H 	0.4688	0.0798	0.4922	0.153
Mof_H 	H 	0.6253	0.4578	0.7222	0.133
Mof_H 	H 	0.7295	0.3487	0.7465	0.141
Mof_H 	H 	0.7558	0.3836	0.6424	0.135
Mof_H 	H 	0.8331	0.2025	0.8587	0.07
Mof_H 	H 	0.7609	0.353	0.0342	0.003
Mof_H 	H 	0.7959	0.4044	0.945	0.026
Mof_H 	H 	0.0385	0.4411	0.0597	0.148
Mof_H 	H 	0.9939	0.3974	0.1516	0.139
Mof_H 	H 	0.875	0.1603	0.0285	0.085
Mof_H 	H 	0.9943	0.081	0.94	0.099
Mof_H 	H 	0.0439	0.1911	0.0541	0.089
Mof_C 	C 	0.4346	0.8693	0.0177	0.081
Mof_C 	C 	0.3276	0.8714	0.925	-0.133
Mof_C 	C 	0.3107	0.7725	0.8285	0.069
Mof_C 	C 	0.4069	0.6742	0.8306	-0.137
Mof_C 	C 	0.5142	0.6795	0.9263	0.092
Mof_C 	C 	0.0034	0.8623	0.6179	0.08
Mof_C 	C 	0.1094	0.8701	0.7151	-0.125
Mof_C 	C 	0.1965	0.7694	0.7238	0.049
Mof_C 	C 	0.1752	0.6645	0.6289	-0.119
Mof_C 	C 	0.0664	0.6654	0.5348	0.061
Mof_C 	C 	0.5544	0.6691	0.2971	0.329
Mof_C 	C 	0.4321	0.6002	0.2968	-0.075
Mof_C 	C 	0.3496	0.5409	0.1735	0.043
Mof_C 	C 	0.4551	0.4514	0.0896	-0.376
Mof_C 	C 	0.3732	0.387	0.9712	0.428
Mof_C 	C 	0.3203	0.6855	0.3791	-0.345
Mof_C 	C 	0.9592	0.8641	0.2453	0.345
Mof_C 	C 	0.0863	0.9232	0.2388	-0.119
Mof_C 	C 	0.1574	0.9977	0.3617	0.073
Mof_C 	C 	0.0472	0.09509	0.43671	-0.365
Mof_C 	C 	0.1191	0.1619	0.5615	0.426
Mof_C 	C 	0.0392	0.99246	0.16114	-0.236
Mof_C 	C 	0.5654	0.0177	0.8693	0.081
Mof_C 	C 	0.6724	0.925	0.8714	-0.133
Mof_C 	C 	0.6893	0.8285	0.7725	0.069
Mof_C 	C 	0.5931	0.8306	0.6742	-0.137
Mof_C 	C 	0.4858	0.9263	0.6795	0.092
Mof_C 	C 	0.9966	0.6179	0.8623	0.08
Mof_C 	C 	0.8906	0.7151	0.8701	-0.125
Mof_C 	C 	0.8035	0.7238	0.7694	0.049
Mof_C 	C 	0.8248	0.6289	0.6645	-0.119
Mof_C 	C 	0.9336	0.5348	0.6654	0.061
Mof_C 	C 	0.4456	0.2971	0.6691	0.329
Mof_C 	C 	0.5679	0.2968	0.6002	-0.075
Mof_C 	C 	0.6504	0.1735	0.5409	0.043
Mof_C 	C 	0.5449	0.0896	0.4514	-0.376
Mof_C 	C 	0.6268	0.9712	0.387	0.428
Mof_C 	C 	0.6797	0.3791	0.6855	-0.345
Mof_C 	C 	0.0408	0.2453	0.8641	0.345
Mof_C 	C 	0.9137	0.2388	0.9232	-0.119
Mof_C 	C 	0.8426	0.3617	0.9977	0.073
Mof_C 	C 	0.9528	0.43671	0.09509	-0.365
Mof_C 	C 	0.8809	0.5615	0.1619	0.426
Mof_C 	C 	0.9608	0.16114	0.99246	-0.236
Mof_N 	N 	0.5297	0.7764	0.0202	-0.199
Mof_N 	N 	0.9784	0.7633	0.5291	-0.191
Mof_N 	N 	0.4703	0.0202	0.7764	-0.199
Mof_N 	N 	0.0216	0.5291	0.7633	-0.191
Mof_O 	O 	0.5341	0.71101	0.21899	-0.404
Mof_O 	O 	0.6682	0.67654	0.37526	-0.394
Mof_O 	O 	0.3938	0.27454	0.93406	-0.421
Mof_O 	O 	0.2913	0.44406	0.91374	-0.424
Mof_O 	O 	0.8564	0.83776	0.15824	-0.4
Mof_O 	O 	0.9682	0.84083	0.33537	-0.411
Mof_O 	O 	0.215	0.10269	0.61091	-0.426
Mof_O 	O 	0.076	0.26961	0.60559	-0.433
Mof_O 	O 	0.4659	0.21899	0.71101	-0.404
Mof_O 	O 	0.3318	0.37526	0.67654	-0.394
Mof_O 	O 	0.6062	0.93406	0.27454	-0.421
Mof_O 	O 	0.7087	0.91374	0.44406	-0.424
Mof_O 	O 	0.1436	0.15824	0.83776	-0.4
Mof_O 	O 	0.0318	0.33537	0.84083	-0.411
Mof_O 	O 	0.785	0.61091	0.10269	-0.426
Mof_O 	O 	0.924	0.60559	0.26961	-0.433
_end
