# CIF file generated by openbabel 3.1.0, see https://openbabel.org
data_I
_chemical_name_common 'image0'
_cell_length_a 17.227
_cell_length_b 24.0435
_cell_length_c 28.8385
_cell_angle_alpha 90
_cell_angle_beta 90
_cell_angle_gamma 90
_space_group_name_H-M_alt 'P 1'
_space_group_name_Hall 'P 1'
loop_
    _symmetry_equiv_pos_as_xyz
    x,y,z
loop_
    _atom_site_label
    _atom_site_type_symbol
    _atom_site_fract_x
    _atom_site_fract_y
    _atom_site_fract_z
    _atom_site_occupancy
    Cd1      Cd       0.90833    0.39461    0.70964    1.000
    Cd2      Cd       0.59221    0.33387    0.21069    1.000
    O1       O        0.60120    0.88950    0.19340    1.000
    N1       N        0.92540    0.29960    0.70960    1.000
    N2       N        0.59510    0.42990    0.21520    1.000
    V1       V        0.67067    0.83941    0.22595    1.000
    N3       N        0.91470    0.49060    0.70490    1.000
    N4       N        0.58190    0.23900    0.21200    1.000
    O2       O        0.66820    0.33160    0.27580    1.000
    O3       O        0.89630    0.38840    0.63030    1.000
    O4       O        0.60040    0.33600    0.13200    1.000
    C1       C        0.61500    0.33370    0.30700    1.000
    O5       O        0.54450    0.33830    0.29640    1.000
    O6       O        0.95610    0.39860    0.79850    1.000
    C2       C        0.88590    0.39270    0.80640    1.000
    O7       O        0.83630    0.39390    0.77570    1.000
    O8       O        0.61820    0.77960    0.19340    1.000
    O9       O        0.78510    0.37690    0.66600    1.000
    C3       C        0.82490    0.37590    0.63050    1.000
    C4       C        0.60320    0.54700    0.21270    1.000
    C5       C        0.64120    0.33430    0.35580    1.000
    O10      O        0.91600    0.83730    0.67400    1.000
    C6       C        0.85840    0.38190    0.85510    1.000
    C7       C        0.88090    0.36980    0.93730    1.000
    H1       H        0.91530    0.36940    0.96220    1.000
    C8       C        0.62190    0.20740    0.24280    1.000
    H2       H        0.65060    0.22540    0.26560    1.000
    C9       C        0.61580    0.34560    0.43790    1.000
    H3       H        0.58100    0.35170    0.46200    1.000
    O11      O        0.71560    0.32410    0.16290    1.000
    C10      C        0.78060    0.37180    0.86280    1.000
    H4       H        0.74630    0.37110    0.83790    1.000
    C11      C        0.62240    0.15090    0.24230    1.000
    H5       H        0.65040    0.13140    0.26460    1.000
    C12      C        0.67310    0.33080    0.12910    1.000
    N5       N        0.84460    0.94950    0.76220    1.000
    C13      C        0.61670    0.72460    0.19770    1.000
    N6       N        0.65650    0.88930    0.28350    1.000
    C14      C        0.87390    0.52320    0.73410    1.000
    H6       H        0.84210    0.50660    0.75620    1.000
    C15      C        0.58080    0.12170    0.20810    1.000
    C16      C        0.54060    0.46110    0.19360    1.000
    H7       H        0.49960    0.44280    0.17920    1.000
    C17      C        0.69570    0.36970    0.00310    1.000
    H8       H        0.66670    0.38820    0.98060    1.000
    C18      C        0.91700    0.60440    0.69480    1.000
    C19      C        0.87780    0.57800    0.73230    1.000
    H9       H        0.85500    0.59930    0.75550    1.000
    C20      C        0.57780    0.63540    0.17070    1.000
    H10      H        0.55380    0.61330    0.14850    1.000
    C21      C        0.93480    0.69270    0.64690    1.000
    H11      H        0.94930    0.67020    0.62210    1.000
    C22      C        0.74440    0.32860    0.41070    1.000
    H12      H        0.79690    0.32320    0.41650    1.000
    C23      C        0.93000    0.18290    0.70070    1.000
    C24      C        0.71840    0.32640    0.36640    1.000
    H13      H        0.75350    0.31950    0.34260    1.000
    C25      C        0.69400    0.33860    0.44810    1.000
    C26      C        0.58440    0.05990    0.20550    1.000
    C27      C        0.91110    0.00670    0.67980    1.000
    C28      C        0.95370    0.51220    0.67160    1.000
    H14      H        0.97970    0.48930    0.65080    1.000
    N7       N        0.68830    0.78270    0.27740    1.000
    C29      C        0.65130    0.45720    0.23610    1.000
    H15      H        0.68800    0.43680    0.25250    1.000
    C30      C        0.60370    0.02790    0.24390    1.000
    H16      H        0.61180    0.04530    0.27230    1.000
    C31      C        0.54240    0.51790    0.19190    1.000
    H17      H        0.50300    0.53720    0.17670    1.000
    C32      C        0.77170    0.35080    0.99180    1.000
    C33      C        0.80680    0.35930    0.49990    1.000
    H18      H        0.83860    0.35960    0.47380    1.000
    C34      C        0.83850    0.36760    0.54360    1.000
    H19      H        0.89160    0.37340    0.54690    1.000
    C35      C        0.79090    0.36720    0.58250    1.000
    C36      C        0.71150    0.35850    0.57767    1.000
    H20      H        0.67970    0.35820    0.60370    1.000
    C37      C        0.67980    0.35020    0.53390    1.000
    H21      H        0.62670    0.34440    0.53060    1.000
    C38      C        0.72740    0.35060    0.49498    1.000
    C39      C        0.66400    0.36140    0.04610    1.000
    H22      H        0.61320    0.37230    0.05210    1.000
    C40      C        0.75310    0.36260    0.90740    1.000
    H23      H        0.70010    0.35770    0.91200    1.000
    C41      C        0.64940    0.69820    0.23770    1.000
    C42      C        0.59640    0.94260    0.19690    1.000
    C43      C        0.58030    0.69170    0.16300    1.000
    C44      C        0.89390    0.70060    0.72750    1.000
    H24      H        0.88010    0.68530    0.75590    1.000
    C45      C        0.60880    0.60930    0.20950    1.000
    C46      C        0.54030    0.21100    0.18090    1.000
    H25      H        0.50990    0.23140    0.16050    1.000
    C47      C        0.64470    0.64070    0.24160    1.000
    H26      H        0.66710    0.62340    0.26720    1.000
    C48      C        0.71320    0.89840    0.36470    1.000
    H27      H        0.76260    0.91170    0.35300    1.000
    H28      H        0.68090    0.93030    0.37190    1.000
    C49      C        0.90150    0.08880    0.72940    1.000
    H29      H        0.89080    0.10470    0.75810    1.000
    C50      C        0.57090    0.03330    0.16350    1.000
    H30      H        0.55600    0.05450    0.13800    1.000
    C51      C        0.67350    0.86240    0.32790    1.000
    H31      H        0.62450    0.84870    0.34090    1.000
    C52      C        0.65910    0.51460    0.23510    1.000
    H32      H        0.70150    0.53140    0.24920    1.000
    C53      C        0.57900    0.97560    0.15800    1.000
    C54      C        0.53900    0.15350    0.17670    1.000
    H33      H        0.51050    0.13660    0.15320    1.000
    C55      C        0.74300    0.77720    0.36020    1.000
    H34      H        0.69580    0.75980    0.37140    1.000
    H35      H        0.77980    0.74810    0.35240    1.000
    C56      C        0.89130    0.03150    0.72440    1.000
    C57      C        0.77680    0.81430    0.39760    1.000
    H36      H        0.82770    0.82700    0.38790    1.000
    H37      H        0.78310    0.79290    0.42580    1.000
    C58      C        0.80230    0.36050    0.94510    1.000
    C59      C        0.96540    0.21920    0.66740    1.000
    H38      H        0.99100    0.20440    0.64180    1.000
    C60      C        0.96160    0.27500    0.67320    1.000
    H39      H        0.98510    0.29760    0.65110    1.000
    C61      C        0.72540    0.81180    0.31730    1.000
    H40      H        0.77510    0.82640    0.30620    1.000
    C62      C        0.89610    0.26640    0.74190    1.000
    H41      H        0.87280    0.28240    0.76780    1.000
    C63      C        0.94030    0.09720    0.65090    1.000
    H42      H        0.95670    0.11940    0.62630    1.000
    N8       N        0.86190    0.84010    0.76530    1.000
    C64      C        0.72580    0.86430    0.40750    1.000
    H43      H        0.67610    0.85180    0.41940    1.000
    H44      H        0.75010    0.88720    0.43110    1.000
    C65      C        0.92640    0.12270    0.69460    1.000
    C66      C        0.78870    0.95460    0.84390    1.000
    H45      H        0.75700    0.98680    0.83660    1.000
    H46      H        0.83810    0.96770    0.85580    1.000
    C67      C        0.64790    0.91840    0.09690    1.000
    H47      H        0.69020    0.94410    0.09940    1.000
    H48      H        0.64530    0.90430    0.06580    1.000
    H49      H        0.65570    0.88810    0.11800    1.000
    C68      C        0.57090    0.94840    0.10880    1.000
    C69      C        0.91560    0.66530    0.69040    1.000
    C70      C        0.74820    0.91980    0.88110    1.000
    H50      H        0.69490    0.91320    0.87160    1.000
    H51      H        0.74710    0.94070    0.90980    1.000
    C71      C        0.89310    0.75810    0.72150    1.000
    C72      C        0.89870    0.21060    0.73890    1.000
    H52      H        0.87870    0.18960    0.76330    1.000
    C73      C        0.93040    0.04170    0.64350    1.000
    C74      C        0.63140    0.94040    0.28110    1.000
    H53      H        0.62660    0.95970    0.30890    1.000
    C75      C        0.91540    0.78330    0.67850    1.000
    C76      C        0.84460    0.86690    0.81110    1.000
    H54      H        0.89460    0.87640    0.82520    1.000
    C77      C        0.61120    0.96900    0.24070    1.000
    C78      C        0.68440    0.72970    0.27450    1.000
    H55      H        0.70650    0.70950    0.29860    1.000
    C79      C        0.80190    0.92210    0.80160    1.000
    H56      H        0.75050    0.91220    0.78970    1.000
    C80      C        0.78830    0.86350    0.88960    1.000
    H57      H        0.83810    0.86990    0.90440    1.000
    H58      H        0.75680    0.84150    0.91060    1.000
    C81      C        0.50350    0.90620    0.11010    1.000
    H59      H        0.51260    0.87970    0.13440    1.000
    H60      H        0.50050    0.88710    0.08090    1.000
    H61      H        0.45560    0.92540    0.11580    1.000
    C82      C        0.80050    0.83220    0.84640    1.000
    H62      H        0.75060    0.82160    0.83350    1.000
    H63      H        0.82940    0.79850    0.85300    1.000
    C83      C        0.95770    0.56960    0.66640    1.000
    H64      H        0.98870    0.58450    0.64310    1.000
    O12      O        0.90720    0.95280    0.67350    1.000
    C84      C        0.59880    0.75670    0.09370    1.000
    H65      H        0.61460    0.78660    0.11360    1.000
    H66      H        0.57320    0.77150    0.06690    1.000
    H67      H        0.64360    0.73590    0.08420    1.000
    C85      C        0.95660    0.06360    0.55790    1.000
    H68      H        0.91430    0.08960    0.55820    1.000
    H69      H        0.00390    0.08260    0.56570    1.000
    H70      H        0.96130    0.04740    0.52760    1.000
    C86      C        0.78280    0.31780    0.07090    1.000
    H71      H        0.81150    0.29930    0.09340    1.000
    C87      C        0.90870    0.37990    0.89270    1.000
    H72      H        0.96160    0.38530    0.88800    1.000
    C88      C        0.54240    0.71800    0.12030    1.000
    C89      C        0.51050    0.67580    0.08770    1.000
    H73      H        0.54630    0.64540    0.08500    1.000
    H74      H        0.50280    0.69240    0.05780    1.000
    H75      H        0.46180    0.66230    0.09930    1.000
    C90      C        0.94130    0.01760    0.59360    1.000
    C91      C        0.81530    0.32640    0.02690    1.000
    H76      H        0.86630    0.31580    0.02120    1.000
    C92      C        0.55470    0.99180    0.07160    1.000
    H77      H        0.50460    0.00810    0.07680    1.000
    H78      H        0.55570    0.97440    0.04160    1.000
    H79      H        0.59380    0.02030    0.07290    1.000
    C93      C        0.86030    0.00020    0.76100    1.000
    H80      H        0.84990    0.01980    0.78810    1.000
    C94      C        0.93320    0.74870    0.63950    1.000
    C95      C        0.47310    0.75520    0.13660    1.000
    H81      H        0.42800    0.73240    0.14130    1.000
    H82      H        0.46230    0.78280    0.11350    1.000
    H83      H        0.48660    0.77320    0.16520    1.000
    C96      C        0.58780    0.34360    0.39200    1.000
    H84      H        0.53530    0.34840    0.38570    1.000
    C97      C        0.70840    0.33640    0.08120    1.000
    C98      C        0.86480    0.98770    0.57830    1.000
    H85      H        0.86230    0.95160    0.59240    1.000
    H86      H        0.86420    0.98390    0.54520    1.000
    H87      H        0.82080    0.00940    0.58800    1.000
    C99      C        0.95070    0.77440    0.59130    1.000
    C100     C        0.87890    0.80640    0.57650    1.000
    H88      H        0.83950    0.78080    0.56660    1.000
    H89      H        0.89180    0.83090    0.55140    1.000
    H90      H        0.85990    0.82780    0.60220    1.000
    C101     C        0.02040    0.81390    0.59400    1.000
    H91      H        0.00250    0.85110    0.59980    1.000
    H92      H        0.04830    0.81300    0.56520    1.000
    H93      H        0.05420    0.80240    0.61870    1.000
    C102     C        0.01020    0.97630    0.59260    1.000
    H94      H        0.05740    0.99570    0.59980    1.000
    H95      H        0.01420    0.96000    0.56230    1.000
    H96      H        0.00180    0.94750    0.61510    1.000
    C103     C        0.86990    0.78940    0.76280    1.000
    H97      H        0.86030    0.76910    0.78960    1.000
    C104     C        0.96710    0.72970    0.55790    1.000
    H98      H        0.01260    0.70970    0.56750    1.000
    H99      H        0.92370    0.70470    0.55660    1.000
    H100     H        0.97570    0.74550    0.52780    1.000
    V2       V        0.85870    0.89282    0.70730    1.000
    V3       V        0.59860    0.82970    0.23650    1.000
    V4       V        0.91310    0.89670    0.72250    1.000
    Cd3      Cd       0.09167    0.39461    0.79036    1.000
    Cd4      Cd       0.40779    0.33387    0.28931    1.000
    O13      O        0.39880    0.88950    0.30660    1.000
    N9       N        0.07460    0.29960    0.79040    1.000
    N10      N        0.40490    0.42990    0.28480    1.000
    V5       V        0.32933    0.83941    0.27405    1.000
    N11      N        0.08530    0.49060    0.79510    1.000
    N12      N        0.41810    0.23900    0.28800    1.000
    O14      O        0.33180    0.33160    0.22420    1.000
    O15      O        0.10370    0.38840    0.86970    1.000
    O16      O        0.39960    0.33600    0.36800    1.000
    C105     C        0.38500    0.33370    0.19300    1.000
    O17      O        0.45550    0.33830    0.20360    1.000
    O18      O        0.04390    0.39860    0.70150    1.000
    C106     C        0.11410    0.39270    0.69360    1.000
    O19      O        0.16370    0.39390    0.72430    1.000
    O20      O        0.38180    0.77960    0.30660    1.000
    O21      O        0.21490    0.37690    0.83400    1.000
    C107     C        0.17510    0.37590    0.86950    1.000
    C108     C        0.39680    0.54700    0.28730    1.000
    C109     C        0.35880    0.33430    0.14420    1.000
    O22      O        0.08400    0.83730    0.82600    1.000
    C110     C        0.14160    0.38190    0.64490    1.000
    C111     C        0.11910    0.36980    0.56270    1.000
    H101     H        0.08470    0.36940    0.53780    1.000
    C112     C        0.37810    0.20740    0.25720    1.000
    H102     H        0.34940    0.22540    0.23440    1.000
    C113     C        0.38420    0.34560    0.06210    1.000
    H103     H        0.41900    0.35170    0.03800    1.000
    O23      O        0.28440    0.32410    0.33710    1.000
    C114     C        0.21940    0.37180    0.63720    1.000
    H104     H        0.25370    0.37110    0.66210    1.000
    C115     C        0.37760    0.15090    0.25770    1.000
    H105     H        0.34960    0.13140    0.23540    1.000
    C116     C        0.32690    0.33080    0.37090    1.000
    N13      N        0.15540    0.94950    0.73780    1.000
    C117     C        0.38330    0.72460    0.30230    1.000
    N14      N        0.34350    0.88930    0.21650    1.000
    C118     C        0.12610    0.52320    0.76590    1.000
    H106     H        0.15790    0.50660    0.74380    1.000
    C119     C        0.41920    0.12170    0.29190    1.000
    C120     C        0.45940    0.46110    0.30640    1.000
    H107     H        0.50040    0.44280    0.32080    1.000
    C121     C        0.30430    0.36970    0.49690    1.000
    H108     H        0.33330    0.38820    0.51940    1.000
    C122     C        0.08300    0.60440    0.80520    1.000
    C123     C        0.12220    0.57800    0.76770    1.000
    H109     H        0.14500    0.59930    0.74450    1.000
    C124     C        0.42220    0.63540    0.32930    1.000
    H110     H        0.44620    0.61330    0.35150    1.000
    C125     C        0.06520    0.69270    0.85310    1.000
    H111     H        0.05070    0.67020    0.87790    1.000
    C126     C        0.25560    0.32860    0.08930    1.000
    H112     H        0.20310    0.32320    0.08350    1.000
    C127     C        0.07000    0.18290    0.79930    1.000
    C128     C        0.28160    0.32640    0.13360    1.000
    H113     H        0.24650    0.31950    0.15740    1.000
    C129     C        0.30600    0.33860    0.05190    1.000
    C130     C        0.41560    0.05990    0.29450    1.000
    C131     C        0.08890    0.00670    0.82020    1.000
    C132     C        0.04630    0.51220    0.82840    1.000
    H114     H        0.02030    0.48930    0.84920    1.000
    N15      N        0.31170    0.78270    0.22260    1.000
    C133     C        0.34870    0.45720    0.26390    1.000
    H115     H        0.31200    0.43680    0.24750    1.000
    C134     C        0.39630    0.02790    0.25610    1.000
    H116     H        0.38820    0.04530    0.22770    1.000
    C135     C        0.45760    0.51790    0.30810    1.000
    H117     H        0.49700    0.53720    0.32330    1.000
    C136     C        0.22830    0.35080    0.50820    1.000
    C137     C        0.19320    0.35930    0.00010    1.000
    H118     H        0.16140    0.35960    0.02620    1.000
    C138     C        0.16150    0.36760    0.95640    1.000
    H119     H        0.10840    0.37340    0.95310    1.000
    C139     C        0.20910    0.36720    0.91750    1.000
    C140     C        0.28850    0.35850    0.92233    1.000
    H120     H        0.32030    0.35820    0.89630    1.000
    C141     C        0.32020    0.35020    0.96610    1.000
    H121     H        0.37330    0.34440    0.96940    1.000
    C142     C        0.27260    0.35060    0.00502    1.000
    C143     C        0.33600    0.36140    0.45390    1.000
    H122     H        0.38680    0.37230    0.44790    1.000
    C144     C        0.24690    0.36260    0.59260    1.000
    H123     H        0.29990    0.35770    0.58800    1.000
    C145     C        0.35060    0.69820    0.26230    1.000
    C146     C        0.40360    0.94260    0.30310    1.000
    C147     C        0.41970    0.69170    0.33700    1.000
    C148     C        0.10610    0.70060    0.77250    1.000
    H124     H        0.11990    0.68530    0.74410    1.000
    C149     C        0.39120    0.60930    0.29050    1.000
    C150     C        0.45970    0.21100    0.31910    1.000
    H125     H        0.49010    0.23140    0.33950    1.000
    C151     C        0.35530    0.64070    0.25840    1.000
    H126     H        0.33290    0.62340    0.23280    1.000
    C152     C        0.28680    0.89840    0.13530    1.000
    H127     H        0.23740    0.91170    0.14700    1.000
    H128     H        0.31910    0.93030    0.12810    1.000
    C153     C        0.09850    0.08880    0.77060    1.000
    H129     H        0.10920    0.10470    0.74190    1.000
    C154     C        0.42910    0.03330    0.33650    1.000
    H130     H        0.44400    0.05450    0.36200    1.000
    C155     C        0.32650    0.86240    0.17210    1.000
    H131     H        0.37550    0.84870    0.15910    1.000
    C156     C        0.34090    0.51460    0.26490    1.000
    H132     H        0.29850    0.53140    0.25080    1.000
    C157     C        0.42100    0.97560    0.34200    1.000
    C158     C        0.46100    0.15350    0.32330    1.000
    H133     H        0.48950    0.13660    0.34680    1.000
    C159     C        0.25700    0.77720    0.13980    1.000
    H134     H        0.30420    0.75980    0.12860    1.000
    H135     H        0.22020    0.74810    0.14760    1.000
    C160     C        0.10870    0.03150    0.77560    1.000
    C161     C        0.22320    0.81430    0.10240    1.000
    H136     H        0.17230    0.82700    0.11210    1.000
    H137     H        0.21690    0.79290    0.07420    1.000
    C162     C        0.19770    0.36050    0.55490    1.000
    C163     C        0.03460    0.21920    0.83260    1.000
    H138     H        0.00900    0.20440    0.85820    1.000
    C164     C        0.03840    0.27500    0.82680    1.000
    H139     H        0.01490    0.29760    0.84890    1.000
    C165     C        0.27460    0.81180    0.18270    1.000
    H140     H        0.22490    0.82640    0.19380    1.000
    C166     C        0.10390    0.26640    0.75810    1.000
    H141     H        0.12720    0.28240    0.73220    1.000
    C167     C        0.05970    0.09720    0.84910    1.000
    H142     H        0.04330    0.11940    0.87370    1.000
    N16      N        0.13810    0.84010    0.73470    1.000
    C168     C        0.27420    0.86430    0.09250    1.000
    H143     H        0.32390    0.85180    0.08060    1.000
    H144     H        0.24990    0.88720    0.06890    1.000
    C169     C        0.07360    0.12270    0.80540    1.000
    C170     C        0.21130    0.95460    0.65610    1.000
    H145     H        0.24300    0.98680    0.66340    1.000
    H146     H        0.16190    0.96770    0.64420    1.000
    C171     C        0.35210    0.91840    0.40310    1.000
    H147     H        0.30980    0.94410    0.40060    1.000
    H148     H        0.35470    0.90430    0.43420    1.000
    H149     H        0.34430    0.88810    0.38200    1.000
    C172     C        0.42910    0.94840    0.39120    1.000
    C173     C        0.08440    0.66530    0.80960    1.000
    C174     C        0.25180    0.91980    0.61890    1.000
    H150     H        0.30510    0.91320    0.62840    1.000
    H151     H        0.25290    0.94070    0.59020    1.000
    C175     C        0.10690    0.75810    0.77850    1.000
    C176     C        0.10130    0.21060    0.76110    1.000
    H152     H        0.12130    0.18960    0.73670    1.000
    C177     C        0.06960    0.04170    0.85650    1.000
    C178     C        0.36860    0.94040    0.21890    1.000
    H153     H        0.37340    0.95970    0.19110    1.000
    C179     C        0.08460    0.78330    0.82150    1.000
    C180     C        0.15540    0.86690    0.68890    1.000
    H154     H        0.10540    0.87640    0.67480    1.000
    C181     C        0.38880    0.96900    0.25930    1.000
    C182     C        0.31560    0.72970    0.22550    1.000
    H155     H        0.29350    0.70950    0.20140    1.000
    C183     C        0.19810    0.92210    0.69840    1.000
    H156     H        0.24950    0.91220    0.71030    1.000
    C184     C        0.21170    0.86350    0.61040    1.000
    H157     H        0.16190    0.86990    0.59560    1.000
    H158     H        0.24320    0.84150    0.58940    1.000
    C185     C        0.49650    0.90620    0.38990    1.000
    H159     H        0.48740    0.87970    0.36560    1.000
    H160     H        0.49950    0.88710    0.41910    1.000
    H161     H        0.54440    0.92540    0.38420    1.000
    C186     C        0.19950    0.83220    0.65360    1.000
    H162     H        0.24940    0.82160    0.66650    1.000
    H163     H        0.17060    0.79850    0.64700    1.000
    C187     C        0.04230    0.56960    0.83360    1.000
    H164     H        0.01130    0.58450    0.85690    1.000
    O24      O        0.09280    0.95280    0.82650    1.000
    C188     C        0.40120    0.75670    0.40630    1.000
    H165     H        0.38540    0.78660    0.38640    1.000
    H166     H        0.42680    0.77150    0.43310    1.000
    H167     H        0.35640    0.73590    0.41580    1.000
    C189     C        0.04340    0.06360    0.94210    1.000
    H168     H        0.08570    0.08960    0.94180    1.000
    H169     H        0.99610    0.08260    0.93430    1.000
    H170     H        0.03870    0.04740    0.97240    1.000
    C190     C        0.21720    0.31780    0.42910    1.000
    H171     H        0.18850    0.29930    0.40660    1.000
    C191     C        0.09130    0.37990    0.60730    1.000
    H172     H        0.03840    0.38530    0.61200    1.000
    C192     C        0.45760    0.71800    0.37970    1.000
    C193     C        0.48950    0.67580    0.41230    1.000
    H173     H        0.45370    0.64540    0.41500    1.000
    H174     H        0.49720    0.69240    0.44220    1.000
    H175     H        0.53820    0.66230    0.40070    1.000
    C194     C        0.05870    0.01760    0.90640    1.000
    C195     C        0.18470    0.32640    0.47310    1.000
    H176     H        0.13370    0.31580    0.47880    1.000
    C196     C        0.44530    0.99180    0.42840    1.000
    H177     H        0.49540    0.00810    0.42320    1.000
    H178     H        0.44430    0.97440    0.45840    1.000
    H179     H        0.40620    0.02030    0.42710    1.000
    C197     C        0.13970    0.00020    0.73900    1.000
    H180     H        0.15010    0.01980    0.71190    1.000
    C198     C        0.06680    0.74870    0.86050    1.000
    C199     C        0.52690    0.75520    0.36340    1.000
    H181     H        0.57200    0.73240    0.35870    1.000
    H182     H        0.53770    0.78280    0.38650    1.000
    H183     H        0.51340    0.77320    0.33480    1.000
    C200     C        0.41220    0.34360    0.10800    1.000
    H184     H        0.46470    0.34840    0.11430    1.000
    C201     C        0.29160    0.33640    0.41880    1.000
    C202     C        0.13520    0.98770    0.92170    1.000
    H185     H        0.13770    0.95160    0.90760    1.000
    H186     H        0.13580    0.98390    0.95480    1.000
    H187     H        0.17920    0.00940    0.91200    1.000
    C203     C        0.04930    0.77440    0.90870    1.000
    C204     C        0.12110    0.80640    0.92350    1.000
    H188     H        0.16050    0.78080    0.93340    1.000
    H189     H        0.10820    0.83090    0.94860    1.000
    H190     H        0.14010    0.82780    0.89780    1.000
    C205     C        0.97960    0.81390    0.90600    1.000
    H191     H        0.99750    0.85110    0.90020    1.000
    H192     H        0.95170    0.81300    0.93480    1.000
    H193     H        0.94580    0.80240    0.88130    1.000
    C206     C        0.98980    0.97630    0.90740    1.000
    H194     H        0.94260    0.99570    0.90020    1.000
    H195     H        0.98580    0.96000    0.93770    1.000
    H196     H        0.99820    0.94750    0.88490    1.000
    C207     C        0.13010    0.78940    0.73720    1.000
    H197     H        0.13970    0.76910    0.71040    1.000
    C208     C        0.03290    0.72970    0.94210    1.000
    H198     H        0.98740    0.70970    0.93250    1.000
    H199     H        0.07630    0.70470    0.94340    1.000
    H200     H        0.02430    0.74550    0.97220    1.000
    V6       V        0.14130    0.89282    0.79270    1.000
    V7       V        0.40140    0.82970    0.26350    1.000
    V8       V        0.08690    0.89670    0.77750    1.000
    O25      O        0.00000    0.90320    0.75000    1.000
    O26      O        0.50000    0.81780    0.25000    1.000
    Cd5      Cd       0.09167    0.60539    0.20964    1.000
    Cd6      Cd       0.40779    0.66613    0.71069    1.000
    O27      O        0.39880    0.11050    0.69340    1.000
    N17      N        0.07460    0.70040    0.20960    1.000
    N18      N        0.40490    0.57010    0.71520    1.000
    V9       V        0.32933    0.16059    0.72595    1.000
    N19      N        0.08530    0.50940    0.20490    1.000
    N20      N        0.41810    0.76100    0.71200    1.000
    O28      O        0.33180    0.66840    0.77580    1.000
    O29      O        0.10370    0.61160    0.13030    1.000
    O30      O        0.39960    0.66400    0.63200    1.000
    C209     C        0.38500    0.66630    0.80700    1.000
    O31      O        0.45550    0.66170    0.79640    1.000
    O32      O        0.04390    0.60140    0.29850    1.000
    C210     C        0.11410    0.60730    0.30640    1.000
    O33      O        0.16370    0.60610    0.27570    1.000
    O34      O        0.38180    0.22040    0.69340    1.000
    O35      O        0.21490    0.62310    0.16600    1.000
    C211     C        0.17510    0.62410    0.13050    1.000
    C212     C        0.39680    0.45300    0.71270    1.000
    C213     C        0.35880    0.66570    0.85580    1.000
    O36      O        0.08400    0.16270    0.17400    1.000
    C214     C        0.14160    0.61810    0.35510    1.000
    C215     C        0.11910    0.63020    0.43730    1.000
    H201     H        0.08470    0.63060    0.46220    1.000
    C216     C        0.37810    0.79260    0.74280    1.000
    H202     H        0.34940    0.77460    0.76560    1.000
    C217     C        0.38420    0.65440    0.93790    1.000
    H203     H        0.41900    0.64830    0.96200    1.000
    O37      O        0.28440    0.67590    0.66290    1.000
    C218     C        0.21940    0.62820    0.36280    1.000
    H204     H        0.25370    0.62890    0.33790    1.000
    C219     C        0.37760    0.84910    0.74230    1.000
    H205     H        0.34960    0.86860    0.76460    1.000
    C220     C        0.32690    0.66920    0.62910    1.000
    N21      N        0.15540    0.05050    0.26220    1.000
    C221     C        0.38330    0.27540    0.69770    1.000
    N22      N        0.34350    0.11070    0.78350    1.000
    C222     C        0.12610    0.47680    0.23410    1.000
    H206     H        0.15790    0.49340    0.25620    1.000
    C223     C        0.41920    0.87830    0.70810    1.000
    C224     C        0.45940    0.53890    0.69360    1.000
    H207     H        0.50040    0.55720    0.67920    1.000
    C225     C        0.30430    0.63030    0.50310    1.000
    H208     H        0.33330    0.61180    0.48060    1.000
    C226     C        0.08300    0.39560    0.19480    1.000
    C227     C        0.12220    0.42200    0.23230    1.000
    H209     H        0.14500    0.40070    0.25550    1.000
    C228     C        0.42220    0.36460    0.67070    1.000
    H210     H        0.44620    0.38670    0.64850    1.000
    C229     C        0.06520    0.30730    0.14690    1.000
    H211     H        0.05070    0.32980    0.12210    1.000
    C230     C        0.25560    0.67140    0.91070    1.000
    H212     H        0.20310    0.67680    0.91650    1.000
    C231     C        0.07000    0.81710    0.20070    1.000
    C232     C        0.28160    0.67360    0.86640    1.000
    H213     H        0.24650    0.68050    0.84260    1.000
    C233     C        0.30600    0.66140    0.94810    1.000
    C234     C        0.41560    0.94010    0.70550    1.000
    C235     C        0.08890    0.99330    0.17980    1.000
    C236     C        0.04630    0.48780    0.17160    1.000
    H214     H        0.02030    0.51070    0.15080    1.000
    N23      N        0.31170    0.21730    0.77740    1.000
    C237     C        0.34870    0.54280    0.73610    1.000
    H215     H        0.31200    0.56320    0.75250    1.000
    C238     C        0.39630    0.97210    0.74390    1.000
    H216     H        0.38820    0.95470    0.77230    1.000
    C239     C        0.45760    0.48210    0.69190    1.000
    H217     H        0.49700    0.46280    0.67670    1.000
    C240     C        0.22830    0.64920    0.49180    1.000
    C241     C        0.19320    0.64070    0.99990    1.000
    H218     H        0.16140    0.64040    0.97380    1.000
    C242     C        0.16150    0.63240    0.04360    1.000
    H219     H        0.10840    0.62660    0.04690    1.000
    C243     C        0.20910    0.63280    0.08250    1.000
    C244     C        0.28850    0.64150    0.07767    1.000
    H220     H        0.32030    0.64180    0.10370    1.000
    C245     C        0.32020    0.64980    0.03390    1.000
    H221     H        0.37330    0.65560    0.03060    1.000
    C246     C        0.27260    0.64940    0.99498    1.000
    C247     C        0.33600    0.63860    0.54610    1.000
    H222     H        0.38680    0.62770    0.55210    1.000
    C248     C        0.24690    0.63740    0.40740    1.000
    H223     H        0.29990    0.64230    0.41200    1.000
    C249     C        0.35060    0.30180    0.73770    1.000
    C250     C        0.40360    0.05740    0.69690    1.000
    C251     C        0.41970    0.30830    0.66300    1.000
    C252     C        0.10610    0.29940    0.22750    1.000
    H224     H        0.11990    0.31470    0.25590    1.000
    C253     C        0.39120    0.39070    0.70950    1.000
    C254     C        0.45970    0.78900    0.68090    1.000
    H225     H        0.49010    0.76860    0.66050    1.000
    C255     C        0.35530    0.35930    0.74160    1.000
    H226     H        0.33290    0.37660    0.76720    1.000
    C256     C        0.28680    0.10160    0.86470    1.000
    H227     H        0.23740    0.08830    0.85300    1.000
    H228     H        0.31910    0.06970    0.87190    1.000
    C257     C        0.09850    0.91120    0.22940    1.000
    H229     H        0.10920    0.89530    0.25810    1.000
    C258     C        0.42910    0.96670    0.66350    1.000
    H230     H        0.44400    0.94550    0.63800    1.000
    C259     C        0.32650    0.13760    0.82790    1.000
    H231     H        0.37550    0.15130    0.84090    1.000
    C260     C        0.34090    0.48540    0.73510    1.000
    H232     H        0.29850    0.46860    0.74920    1.000
    C261     C        0.42100    0.02440    0.65800    1.000
    C262     C        0.46100    0.84650    0.67670    1.000
    H233     H        0.48950    0.86340    0.65320    1.000
    C263     C        0.25700    0.22280    0.86020    1.000
    H234     H        0.30420    0.24020    0.87140    1.000
    H235     H        0.22020    0.25190    0.85240    1.000
    C264     C        0.10870    0.96850    0.22440    1.000
    C265     C        0.22320    0.18570    0.89760    1.000
    H236     H        0.17230    0.17300    0.88790    1.000
    H237     H        0.21690    0.20710    0.92580    1.000
    C266     C        0.19770    0.63950    0.44510    1.000
    C267     C        0.03460    0.78080    0.16740    1.000
    H238     H        0.00900    0.79560    0.14180    1.000
    C268     C        0.03840    0.72500    0.17320    1.000
    H239     H        0.01490    0.70240    0.15110    1.000
    C269     C        0.27460    0.18820    0.81730    1.000
    H240     H        0.22490    0.17360    0.80620    1.000
    C270     C        0.10390    0.73360    0.24190    1.000
    H241     H        0.12720    0.71760    0.26780    1.000
    C271     C        0.05970    0.90280    0.15090    1.000
    H242     H        0.04330    0.88060    0.12630    1.000
    N24      N        0.13810    0.15990    0.26530    1.000
    C272     C        0.27420    0.13570    0.90750    1.000
    H243     H        0.32390    0.14820    0.91940    1.000
    H244     H        0.24990    0.11280    0.93110    1.000
    C273     C        0.07360    0.87730    0.19460    1.000
    C274     C        0.21130    0.04540    0.34390    1.000
    H245     H        0.24300    0.01320    0.33660    1.000
    H246     H        0.16190    0.03230    0.35580    1.000
    C275     C        0.35210    0.08160    0.59690    1.000
    H247     H        0.30980    0.05590    0.59940    1.000
    H248     H        0.35470    0.09570    0.56580    1.000
    H249     H        0.34430    0.11190    0.61800    1.000
    C276     C        0.42910    0.05160    0.60880    1.000
    C277     C        0.08440    0.33470    0.19040    1.000
    C278     C        0.25180    0.08020    0.38110    1.000
    H250     H        0.30510    0.08680    0.37160    1.000
    H251     H        0.25290    0.05930    0.40980    1.000
    C279     C        0.10690    0.24190    0.22150    1.000
    C280     C        0.10130    0.78940    0.23890    1.000
    H252     H        0.12130    0.81040    0.26330    1.000
    C281     C        0.06960    0.95830    0.14350    1.000
    C282     C        0.36860    0.05960    0.78110    1.000
    H253     H        0.37340    0.04030    0.80890    1.000
    C283     C        0.08460    0.21670    0.17850    1.000
    C284     C        0.15540    0.13310    0.31110    1.000
    H254     H        0.10540    0.12360    0.32520    1.000
    C285     C        0.38880    0.03100    0.74070    1.000
    C286     C        0.31560    0.27030    0.77450    1.000
    H255     H        0.29350    0.29050    0.79860    1.000
    C287     C        0.19810    0.07790    0.30160    1.000
    H256     H        0.24950    0.08780    0.28970    1.000
    C288     C        0.21170    0.13650    0.38960    1.000
    H257     H        0.16190    0.13010    0.40440    1.000
    H258     H        0.24320    0.15850    0.41060    1.000
    C289     C        0.49650    0.09380    0.61010    1.000
    H259     H        0.48740    0.12030    0.63440    1.000
    H260     H        0.49950    0.11290    0.58090    1.000
    H261     H        0.54440    0.07460    0.61580    1.000
    C290     C        0.19950    0.16780    0.34640    1.000
    H262     H        0.24940    0.17840    0.33350    1.000
    H263     H        0.17060    0.20150    0.35300    1.000
    C291     C        0.04230    0.43040    0.16640    1.000
    H264     H        0.01130    0.41550    0.14310    1.000
    O38      O        0.09280    0.04720    0.17350    1.000
    C292     C        0.40120    0.24330    0.59370    1.000
    H265     H        0.38540    0.21340    0.61360    1.000
    H266     H        0.42680    0.22850    0.56690    1.000
    H267     H        0.35640    0.26410    0.58420    1.000
    C293     C        0.04340    0.93640    0.05790    1.000
    H268     H        0.08570    0.91040    0.05820    1.000
    H269     H        0.99610    0.91740    0.06570    1.000
    H270     H        0.03870    0.95260    0.02760    1.000
    C294     C        0.21720    0.68220    0.57090    1.000
    H271     H        0.18850    0.70070    0.59340    1.000
    C295     C        0.09130    0.62010    0.39270    1.000
    H272     H        0.03840    0.61470    0.38800    1.000
    C296     C        0.45760    0.28200    0.62030    1.000
    C297     C        0.48950    0.32420    0.58770    1.000
    H273     H        0.45370    0.35460    0.58500    1.000
    H274     H        0.49720    0.30760    0.55780    1.000
    H275     H        0.53820    0.33770    0.59930    1.000
    C298     C        0.05870    0.98240    0.09360    1.000
    C299     C        0.18470    0.67360    0.52690    1.000
    H276     H        0.13370    0.68420    0.52120    1.000
    C300     C        0.44530    0.00820    0.57160    1.000
    H277     H        0.49540    0.99190    0.57680    1.000
    H278     H        0.44430    0.02560    0.54160    1.000
    H279     H        0.40620    0.97970    0.57290    1.000
    C301     C        0.13970    0.99980    0.26100    1.000
    H280     H        0.15010    0.98020    0.28810    1.000
    C302     C        0.06680    0.25130    0.13950    1.000
    C303     C        0.52690    0.24480    0.63660    1.000
    H281     H        0.57200    0.26760    0.64130    1.000
    H282     H        0.53770    0.21720    0.61350    1.000
    H283     H        0.51340    0.22680    0.66520    1.000
    C304     C        0.41220    0.65640    0.89200    1.000
    H284     H        0.46470    0.65160    0.88570    1.000
    C305     C        0.29160    0.66360    0.58120    1.000
    C306     C        0.13520    0.01230    0.07830    1.000
    H285     H        0.13770    0.04840    0.09240    1.000
    H286     H        0.13580    0.01610    0.04520    1.000
    H287     H        0.17920    0.99060    0.08800    1.000
    C307     C        0.04930    0.22560    0.09130    1.000
    C308     C        0.12110    0.19360    0.07650    1.000
    H288     H        0.16050    0.21920    0.06660    1.000
    H289     H        0.10820    0.16910    0.05140    1.000
    H290     H        0.14010    0.17220    0.10220    1.000
    C309     C        0.97960    0.18610    0.09400    1.000
    H291     H        0.99750    0.14890    0.09980    1.000
    H292     H        0.95170    0.18700    0.06520    1.000
    H293     H        0.94580    0.19760    0.11870    1.000
    C310     C        0.98980    0.02370    0.09260    1.000
    H294     H        0.94260    0.00430    0.09980    1.000
    H295     H        0.98580    0.04000    0.06230    1.000
    H296     H        0.99820    0.05250    0.11510    1.000
    C311     C        0.13010    0.21060    0.26280    1.000
    H297     H        0.13970    0.23090    0.28960    1.000
    C312     C        0.03290    0.27030    0.05790    1.000
    H298     H        0.98740    0.29030    0.06750    1.000
    H299     H        0.07630    0.29530    0.05660    1.000
    H300     H        0.02430    0.25450    0.02780    1.000
    V10      V        0.14130    0.10718    0.20730    1.000
    V11      V        0.40140    0.17030    0.73650    1.000
    V12      V        0.08690    0.10330    0.22250    1.000
    Cd7      Cd       0.90833    0.60539    0.29036    1.000
    Cd8      Cd       0.59221    0.66613    0.78931    1.000
    O39      O        0.60120    0.11050    0.80660    1.000
    N25      N        0.92540    0.70040    0.29040    1.000
    N26      N        0.59510    0.57010    0.78480    1.000
    V13      V        0.67067    0.16059    0.77405    1.000
    N27      N        0.91470    0.50940    0.29510    1.000
    N28      N        0.58190    0.76100    0.78800    1.000
    O40      O        0.66820    0.66840    0.72420    1.000
    O41      O        0.89630    0.61160    0.36970    1.000
    O42      O        0.60040    0.66400    0.86800    1.000
    C313     C        0.61500    0.66630    0.69300    1.000
    O43      O        0.54450    0.66170    0.70360    1.000
    O44      O        0.95610    0.60140    0.20150    1.000
    C314     C        0.88590    0.60730    0.19360    1.000
    O45      O        0.83630    0.60610    0.22430    1.000
    O46      O        0.61820    0.22040    0.80660    1.000
    O47      O        0.78510    0.62310    0.33400    1.000
    C315     C        0.82490    0.62410    0.36950    1.000
    C316     C        0.60320    0.45300    0.78730    1.000
    C317     C        0.64120    0.66570    0.64420    1.000
    O48      O        0.91600    0.16270    0.32600    1.000
    C318     C        0.85840    0.61810    0.14490    1.000
    C319     C        0.88090    0.63020    0.06270    1.000
    H301     H        0.91530    0.63060    0.03780    1.000
    C320     C        0.62190    0.79260    0.75720    1.000
    H302     H        0.65060    0.77460    0.73440    1.000
    C321     C        0.61580    0.65440    0.56210    1.000
    H303     H        0.58100    0.64830    0.53800    1.000
    O49      O        0.71560    0.67590    0.83710    1.000
    C322     C        0.78060    0.62820    0.13720    1.000
    H304     H        0.74630    0.62890    0.16210    1.000
    C323     C        0.62240    0.84910    0.75770    1.000
    H305     H        0.65040    0.86860    0.73540    1.000
    C324     C        0.67310    0.66920    0.87090    1.000
    N29      N        0.84460    0.05050    0.23780    1.000
    C325     C        0.61670    0.27540    0.80230    1.000
    N30      N        0.65650    0.11070    0.71650    1.000
    C326     C        0.87390    0.47680    0.26590    1.000
    H306     H        0.84210    0.49340    0.24380    1.000
    C327     C        0.58080    0.87830    0.79190    1.000
    C328     C        0.54060    0.53890    0.80640    1.000
    H307     H        0.49960    0.55720    0.82080    1.000
    C329     C        0.69570    0.63030    0.99690    1.000
    H308     H        0.66670    0.61180    0.01940    1.000
    C330     C        0.91700    0.39560    0.30520    1.000
    C331     C        0.87780    0.42200    0.26770    1.000
    H309     H        0.85500    0.40070    0.24450    1.000
    C332     C        0.57780    0.36460    0.82930    1.000
    H310     H        0.55380    0.38670    0.85150    1.000
    C333     C        0.93480    0.30730    0.35310    1.000
    H311     H        0.94930    0.32980    0.37790    1.000
    C334     C        0.74440    0.67140    0.58930    1.000
    H312     H        0.79690    0.67680    0.58350    1.000
    C335     C        0.93000    0.81710    0.29930    1.000
    C336     C        0.71840    0.67360    0.63360    1.000
    H313     H        0.75350    0.68050    0.65740    1.000
    C337     C        0.69400    0.66140    0.55190    1.000
    C338     C        0.58440    0.94010    0.79450    1.000
    C339     C        0.91110    0.99330    0.32020    1.000
    C340     C        0.95370    0.48780    0.32840    1.000
    H314     H        0.97970    0.51070    0.34920    1.000
    N31      N        0.68830    0.21730    0.72260    1.000
    C341     C        0.65130    0.54280    0.76390    1.000
    H315     H        0.68800    0.56320    0.74750    1.000
    C342     C        0.60370    0.97210    0.75610    1.000
    H316     H        0.61180    0.95470    0.72770    1.000
    C343     C        0.54240    0.48210    0.80810    1.000
    H317     H        0.50300    0.46280    0.82330    1.000
    C344     C        0.77170    0.64920    0.00820    1.000
    C345     C        0.80680    0.64070    0.50010    1.000
    H318     H        0.83860    0.64040    0.52620    1.000
    C346     C        0.83850    0.63240    0.45640    1.000
    H319     H        0.89160    0.62660    0.45310    1.000
    C347     C        0.79090    0.63280    0.41750    1.000
    C348     C        0.71150    0.64150    0.42233    1.000
    H320     H        0.67970    0.64180    0.39630    1.000
    C349     C        0.67980    0.64980    0.46610    1.000
    H321     H        0.62670    0.65560    0.46940    1.000
    C350     C        0.72740    0.64940    0.50502    1.000
    C351     C        0.66400    0.63860    0.95390    1.000
    H322     H        0.61320    0.62770    0.94790    1.000
    C352     C        0.75310    0.63740    0.09260    1.000
    H323     H        0.70010    0.64230    0.08800    1.000
    C353     C        0.64940    0.30180    0.76230    1.000
    C354     C        0.59640    0.05740    0.80310    1.000
    C355     C        0.58030    0.30830    0.83700    1.000
    C356     C        0.89390    0.29940    0.27250    1.000
    H324     H        0.88010    0.31470    0.24410    1.000
    C357     C        0.60880    0.39070    0.79050    1.000
    C358     C        0.54030    0.78900    0.81910    1.000
    H325     H        0.50990    0.76860    0.83950    1.000
    C359     C        0.64470    0.35930    0.75840    1.000
    H326     H        0.66710    0.37660    0.73280    1.000
    C360     C        0.71320    0.10160    0.63530    1.000
    H327     H        0.76260    0.08830    0.64700    1.000
    H328     H        0.68090    0.06970    0.62810    1.000
    C361     C        0.90150    0.91120    0.27060    1.000
    H329     H        0.89080    0.89530    0.24190    1.000
    C362     C        0.57090    0.96670    0.83650    1.000
    H330     H        0.55600    0.94550    0.86200    1.000
    C363     C        0.67350    0.13760    0.67210    1.000
    H331     H        0.62450    0.15130    0.65910    1.000
    C364     C        0.65910    0.48540    0.76490    1.000
    H332     H        0.70150    0.46860    0.75080    1.000
    C365     C        0.57900    0.02440    0.84200    1.000
    C366     C        0.53900    0.84650    0.82330    1.000
    H333     H        0.51050    0.86340    0.84680    1.000
    C367     C        0.74300    0.22280    0.63980    1.000
    H334     H        0.69580    0.24020    0.62860    1.000
    H335     H        0.77980    0.25190    0.64760    1.000
    C368     C        0.89130    0.96850    0.27560    1.000
    C369     C        0.77680    0.18570    0.60240    1.000
    H336     H        0.82770    0.17300    0.61210    1.000
    H337     H        0.78310    0.20710    0.57420    1.000
    C370     C        0.80230    0.63950    0.05490    1.000
    C371     C        0.96540    0.78080    0.33260    1.000
    H338     H        0.99100    0.79560    0.35820    1.000
    C372     C        0.96160    0.72500    0.32680    1.000
    H339     H        0.98510    0.70240    0.34890    1.000
    C373     C        0.72540    0.18820    0.68270    1.000
    H340     H        0.77510    0.17360    0.69380    1.000
    C374     C        0.89610    0.73360    0.25810    1.000
    H341     H        0.87280    0.71760    0.23220    1.000
    C375     C        0.94030    0.90280    0.34910    1.000
    H342     H        0.95670    0.88060    0.37370    1.000
    N32      N        0.86190    0.15990    0.23470    1.000
    C376     C        0.72580    0.13570    0.59250    1.000
    H343     H        0.67610    0.14820    0.58060    1.000
    H344     H        0.75010    0.11280    0.56890    1.000
    C377     C        0.92640    0.87730    0.30540    1.000
    C378     C        0.78870    0.04540    0.15610    1.000
    H345     H        0.75700    0.01320    0.16340    1.000
    H346     H        0.83810    0.03230    0.14420    1.000
    C379     C        0.64790    0.08160    0.90310    1.000
    H347     H        0.69020    0.05590    0.90060    1.000
    H348     H        0.64530    0.09570    0.93420    1.000
    H349     H        0.65570    0.11190    0.88200    1.000
    C380     C        0.57090    0.05160    0.89120    1.000
    C381     C        0.91560    0.33470    0.30960    1.000
    C382     C        0.74820    0.08020    0.11890    1.000
    H350     H        0.69490    0.08680    0.12840    1.000
    H351     H        0.74710    0.05930    0.09020    1.000
    C383     C        0.89310    0.24190    0.27850    1.000
    C384     C        0.89870    0.78940    0.26110    1.000
    H352     H        0.87870    0.81040    0.23670    1.000
    C385     C        0.93040    0.95830    0.35650    1.000
    C386     C        0.63140    0.05960    0.71890    1.000
    H353     H        0.62660    0.04030    0.69110    1.000
    C387     C        0.91540    0.21670    0.32150    1.000
    C388     C        0.84460    0.13310    0.18890    1.000
    H354     H        0.89460    0.12360    0.17480    1.000
    C389     C        0.61120    0.03100    0.75930    1.000
    C390     C        0.68440    0.27030    0.72550    1.000
    H355     H        0.70650    0.29050    0.70140    1.000
    C391     C        0.80190    0.07790    0.19840    1.000
    H356     H        0.75050    0.08780    0.21030    1.000
    C392     C        0.78830    0.13650    0.11040    1.000
    H357     H        0.83810    0.13010    0.09560    1.000
    H358     H        0.75680    0.15850    0.08940    1.000
    C393     C        0.50350    0.09380    0.88990    1.000
    H359     H        0.51260    0.12030    0.86560    1.000
    H360     H        0.50050    0.11290    0.91910    1.000
    H361     H        0.45560    0.07460    0.88420    1.000
    C394     C        0.80050    0.16780    0.15360    1.000
    H362     H        0.75060    0.17840    0.16650    1.000
    H363     H        0.82940    0.20150    0.14700    1.000
    C395     C        0.95770    0.43040    0.33360    1.000
    H364     H        0.98870    0.41550    0.35690    1.000
    O50      O        0.90720    0.04720    0.32650    1.000
    C396     C        0.59880    0.24330    0.90630    1.000
    H365     H        0.61460    0.21340    0.88640    1.000
    H366     H        0.57320    0.22850    0.93310    1.000
    H367     H        0.64360    0.26410    0.91580    1.000
    C397     C        0.95660    0.93640    0.44210    1.000
    H368     H        0.91430    0.91040    0.44180    1.000
    H369     H        0.00390    0.91740    0.43430    1.000
    H370     H        0.96130    0.95260    0.47240    1.000
    C398     C        0.78280    0.68220    0.92910    1.000
    H371     H        0.81150    0.70070    0.90660    1.000
    C399     C        0.90870    0.62010    0.10730    1.000
    H372     H        0.96160    0.61470    0.11200    1.000
    C400     C        0.54240    0.28200    0.87970    1.000
    C401     C        0.51050    0.32420    0.91230    1.000
    H373     H        0.54630    0.35460    0.91500    1.000
    H374     H        0.50280    0.30760    0.94220    1.000
    H375     H        0.46180    0.33770    0.90070    1.000
    C402     C        0.94130    0.98240    0.40640    1.000
    C403     C        0.81530    0.67360    0.97310    1.000
    H376     H        0.86630    0.68420    0.97880    1.000
    C404     C        0.55470    0.00820    0.92840    1.000
    H377     H        0.50460    0.99190    0.92320    1.000
    H378     H        0.55570    0.02560    0.95840    1.000
    H379     H        0.59380    0.97970    0.92710    1.000
    C405     C        0.86030    0.99980    0.23900    1.000
    H380     H        0.84990    0.98020    0.21190    1.000
    C406     C        0.93320    0.25130    0.36050    1.000
    C407     C        0.47310    0.24480    0.86340    1.000
    H381     H        0.42800    0.26760    0.85870    1.000
    H382     H        0.46230    0.21720    0.88650    1.000
    H383     H        0.48660    0.22680    0.83480    1.000
    C408     C        0.58780    0.65640    0.60800    1.000
    H384     H        0.53530    0.65160    0.61430    1.000
    C409     C        0.70840    0.66360    0.91880    1.000
    C410     C        0.86480    0.01230    0.42170    1.000
    H385     H        0.86230    0.04840    0.40760    1.000
    H386     H        0.86420    0.01610    0.45480    1.000
    H387     H        0.82080    0.99060    0.41200    1.000
    C411     C        0.95070    0.22560    0.40870    1.000
    C412     C        0.87890    0.19360    0.42350    1.000
    H388     H        0.83950    0.21920    0.43340    1.000
    H389     H        0.89180    0.16910    0.44860    1.000
    H390     H        0.85990    0.17220    0.39780    1.000
    C413     C        0.02040    0.18610    0.40600    1.000
    H391     H        0.00250    0.14890    0.40020    1.000
    H392     H        0.04830    0.18700    0.43480    1.000
    H393     H        0.05420    0.19760    0.38130    1.000
    C414     C        0.01020    0.02370    0.40740    1.000
    H394     H        0.05740    0.00430    0.40020    1.000
    H395     H        0.01420    0.04000    0.43770    1.000
    H396     H        0.00180    0.05250    0.38490    1.000
    C415     C        0.86990    0.21060    0.23720    1.000
    H397     H        0.86030    0.23090    0.21040    1.000
    C416     C        0.96710    0.27030    0.44210    1.000
    H398     H        0.01260    0.29030    0.43250    1.000
    H399     H        0.92370    0.29530    0.44340    1.000
    H400     H        0.97570    0.25450    0.47220    1.000
    V14      V        0.85870    0.10718    0.29270    1.000
    V15      V        0.59860    0.17030    0.76350    1.000
    V16      V        0.91310    0.10330    0.27750    1.000
    O51      O        0.00000    0.09680    0.25000    1.000
    O52      O        0.50000    0.18220    0.75000    1.000
