data_functionalizedCrystal
_audit_creation_method	'EQeq! by Chris Wilmer'
_symmetry_space_group_name_H-M	'P1'
_symmetry_Int_Tables_number	1
_symmetry_cell_setting	triclinic
loop_
_symmetry_equiv_pos_as_xyz
  x,y,z
_cell_length_a	16.5611
_cell_length_b	16.5611
_cell_length_c	22.312
_cell_angle_alpha	90
_cell_angle_beta	90
_cell_angle_gamma	90
loop_
_atom_site_label
_atom_site_type_symbol
_atom_site_fract_x
_atom_site_fract_y
_atom_site_fract_z
_atom_site_charge
Mof_N 	N 	0.1026	0.8416	0.9278	-0.059
Mof_N 	N 	0.1108	0.7952	0.8824	-0.084
Mof_C 	C 	0.1843	0.7196	0.7755	-0.051
Mof_H 	H 	0.1388	0.6965	0.7928	0.062
Mof_N 	N 	0.6026	0.3416	0.4278	-0.072
Mof_N 	N 	0.6108	0.2952	0.3824	-0.088
Mof_C 	C 	0.6843	0.2196	0.2755	-0.051
Mof_H 	H 	0.6388	0.1965	0.2928	0.059
Mof_N 	N 	0.8974	0.1584	0.9278	-0.055
Mof_N 	N 	0.8892	0.2048	0.8824	-0.08
Mof_C 	C 	0.8157	0.2804	0.7755	-0.052
Mof_H 	H 	0.8612	0.3035	0.7928	0.068
Mof_N 	N 	0.3974	0.6584	0.4278	-0.071
Mof_N 	N 	0.3892	0.7048	0.3824	-0.086
Mof_C 	C 	0.3157	0.7804	0.2755	-0.05
Mof_H 	H 	0.3612	0.8035	0.2928	0.062
Mof_N 	N 	0.1584	0.1026	0.9278	-0.062
Mof_N 	N 	0.2048	0.1108	0.8824	-0.086
Mof_C 	C 	0.2804	0.1843	0.7755	-0.05
Mof_H 	H 	0.3035	0.1388	0.7928	0.06
Mof_N 	N 	0.6584	0.6026	0.4278	-0.071
Mof_N 	N 	0.7048	0.6108	0.3824	-0.086
Mof_C 	C 	0.7804	0.6843	0.2755	-0.046
Mof_H 	H 	0.8035	0.6388	0.2928	0.062
Mof_N 	N 	0.8416	0.8974	0.9278	-0.053
Mof_N 	N 	0.7952	0.8892	0.8824	-0.078
Mof_C 	C 	0.7196	0.8157	0.7755	-0.054
Mof_H 	H 	0.6965	0.8612	0.7928	0.069
Mof_N 	N 	0.3416	0.3974	0.4278	-0.072
Mof_N 	N 	0.2952	0.3892	0.3824	-0.088
Mof_C 	C 	0.2196	0.3157	0.2755	-0.056
Mof_H 	H 	0.1965	0.3612	0.2928	0.059
Mof_N 	N 	0.8974	0.8416	0.0722	-0.066
Mof_N 	N 	0.8892	0.7952	0.1176	-0.084
Mof_C 	C 	0.8157	0.7196	0.2245	-0.051
Mof_H 	H 	0.8612	0.6965	0.2072	0.064
Mof_N 	N 	0.3974	0.3416	0.5722	-0.072
Mof_N 	N 	0.3892	0.2952	0.6176	-0.088
Mof_C 	C 	0.3157	0.2196	0.7245	-0.049
Mof_H 	H 	0.3612	0.1965	0.7072	0.059
Mof_N 	N 	0.1026	0.1584	0.0722	-0.076
Mof_N 	N 	0.1108	0.2048	0.1176	-0.092
Mof_C 	C 	0.1843	0.2804	0.2245	-0.046
Mof_H 	H 	0.1388	0.3035	0.2072	0.054
Mof_N 	N 	0.6026	0.6584	0.5722	-0.071
Mof_N 	N 	0.6108	0.7048	0.6176	-0.085
Mof_C 	C 	0.6843	0.7804	0.7245	-0.04
Mof_H 	H 	0.6388	0.8035	0.7072	0.062
Mof_N 	N 	0.8416	0.1026	0.0722	-0.074
Mof_N 	N 	0.7952	0.1108	0.1176	-0.091
Mof_C 	C 	0.7196	0.1843	0.2245	-0.049
Mof_H 	H 	0.6965	0.1388	0.2072	0.056
Mof_N 	N 	0.3416	0.6026	0.5722	-0.072
Mof_N 	N 	0.2952	0.6108	0.6176	-0.087
Mof_C 	C 	0.2196	0.6843	0.7245	-0.045
Mof_H 	H 	0.1965	0.6388	0.7072	0.058
Mof_N 	N 	0.1584	0.8974	0.0722	-0.068
Mof_N 	N 	0.2048	0.8892	0.1176	-0.085
Mof_C 	C 	0.2804	0.8157	0.2245	-0.048
Mof_H 	H 	0.3035	0.8612	0.2072	0.062
Mof_N 	N 	0.6584	0.3974	0.5722	-0.071
Mof_N 	N 	0.7048	0.3892	0.6176	-0.086
Mof_C 	C 	0.7804	0.3157	0.7245	-0.044
Mof_H 	H 	0.8035	0.3612	0.7072	0.062
Mof_N 	N 	0.8974	0.1584	0.0722	-0.068
Mof_N 	N 	0.8892	0.2048	0.1176	-0.085
Mof_C 	C 	0.8157	0.2804	0.2245	-0.048
Mof_H 	H 	0.8612	0.3035	0.2072	0.062
Mof_N 	N 	0.3974	0.6584	0.5722	-0.071
Mof_N 	N 	0.3892	0.7048	0.6176	-0.086
Mof_C 	C 	0.3157	0.7804	0.7245	-0.044
Mof_H 	H 	0.3612	0.8035	0.7072	0.062
Mof_N 	N 	0.1026	0.8416	0.0722	-0.074
Mof_N 	N 	0.1108	0.7952	0.1176	-0.091
Mof_C 	C 	0.1843	0.7196	0.2245	-0.049
Mof_H 	H 	0.1388	0.6965	0.2072	0.056
Mof_N 	N 	0.6026	0.3416	0.5722	-0.072
Mof_N 	N 	0.6108	0.2952	0.6176	-0.087
Mof_C 	C 	0.6843	0.2196	0.7245	-0.045
Mof_H 	H 	0.6388	0.1965	0.7072	0.058
Mof_N 	N 	0.8416	0.8974	0.0722	-0.066
Mof_N 	N 	0.7952	0.8892	0.1176	-0.084
Mof_C 	C 	0.7196	0.8157	0.2245	-0.051
Mof_H 	H 	0.6965	0.8612	0.2072	0.064
Mof_N 	N 	0.3416	0.3974	0.5722	-0.072
Mof_N 	N 	0.2952	0.3892	0.6176	-0.088
Mof_C 	C 	0.2196	0.3157	0.7245	-0.049
Mof_H 	H 	0.1965	0.3612	0.7072	0.059
Mof_N 	N 	0.1584	0.1026	0.0722	-0.076
Mof_N 	N 	0.2048	0.1108	0.1176	-0.092
Mof_C 	C 	0.2804	0.1843	0.2245	-0.046
Mof_H 	H 	0.3035	0.1388	0.2072	0.054
Mof_N 	N 	0.6584	0.6026	0.5722	-0.071
Mof_N 	N 	0.7048	0.6108	0.6176	-0.085
Mof_C 	C 	0.7804	0.6843	0.7245	-0.04
Mof_H 	H 	0.8035	0.6388	0.7072	0.062
Mof_N 	N 	0.1026	0.1584	0.9278	-0.062
Mof_N 	N 	0.1108	0.2048	0.8824	-0.086
Mof_C 	C 	0.1843	0.2804	0.7755	-0.05
Mof_H 	H 	0.1388	0.3035	0.7928	0.06
Mof_N 	N 	0.6026	0.6584	0.4278	-0.071
Mof_N 	N 	0.6108	0.7048	0.3824	-0.086
Mof_C 	C 	0.6843	0.7804	0.2755	-0.046
Mof_H 	H 	0.6388	0.8035	0.2928	0.062
Mof_N 	N 	0.8974	0.8416	0.9278	-0.053
Mof_N 	N 	0.8892	0.7952	0.8824	-0.078
Mof_C 	C 	0.8157	0.7196	0.7755	-0.054
Mof_H 	H 	0.8612	0.6965	0.7928	0.069
Mof_N 	N 	0.3974	0.3416	0.4278	-0.072
Mof_N 	N 	0.3892	0.2952	0.3824	-0.088
Mof_C 	C 	0.3157	0.2196	0.2755	-0.056
Mof_H 	H 	0.3612	0.1965	0.2928	0.059
Mof_N 	N 	0.1584	0.8974	0.9278	-0.055
Mof_N 	N 	0.2048	0.8892	0.8824	-0.08
Mof_C 	C 	0.2804	0.8157	0.7755	-0.052
Mof_H 	H 	0.3035	0.8612	0.7928	0.068
Mof_N 	N 	0.6584	0.3974	0.4278	-0.071
Mof_N 	N 	0.7048	0.3892	0.3824	-0.086
Mof_C 	C 	0.7804	0.3157	0.2755	-0.05
Mof_H 	H 	0.8035	0.3612	0.2928	0.062
Mof_N 	N 	0.8416	0.1026	0.9278	-0.06
Mof_N 	N 	0.7952	0.1108	0.8824	-0.085
Mof_C 	C 	0.7196	0.1843	0.7755	-0.052
Mof_H 	H 	0.6965	0.1388	0.7928	0.062
Mof_N 	N 	0.3416	0.6026	0.4278	-0.072
Mof_N 	N 	0.2952	0.6108	0.3824	-0.088
Mof_C 	C 	0.2196	0.6843	0.2755	-0.051
Mof_H 	H 	0.1965	0.6388	0.2928	0.059
Mof_Cd	Cd	8.25018e-33	0.8289	-0	0.309
Mof_Cd	Cd	0.5	0.3289	0.5	0.347
Mof_Cd	Cd	2.06255e-33	0.1711	-0	0.3
Mof_Cd	Cd	0.5	0.6711	0.5	0.351
Mof_Cd	Cd	0.1711	0	-0	0.3
Mof_Cd	Cd	0.6711	0.5	0.5	0.351
Mof_Cd	Cd	0.8289	0	-0	0.309
Mof_Cd	Cd	0.3289	0.5	0.5	0.347
Mof_C 	C 	0.2156	0.7844	0.7982	0.02
Mof_C 	C 	0.1779	0.8221	0.854	0.107
Mof_C 	C 	0.7156	0.2844	0.2982	0.015
Mof_C 	C 	0.6779	0.3221	0.354	0.104
Mof_C 	C 	0.7844	0.2156	0.7982	0.02
Mof_C 	C 	0.8221	0.1779	0.854	0.107
Mof_C 	C 	0.2844	0.7156	0.2982	0.015
Mof_C 	C 	0.3221	0.6779	0.354	0.104
Mof_C 	C 	0.2156	0.2156	0.7982	0.014
Mof_C 	C 	0.1779	0.1779	0.854	0.105
Mof_C 	C 	0.7156	0.7156	0.2982	0.013
Mof_C 	C 	0.6779	0.6779	0.354	0.107
Mof_C 	C 	0.7844	0.7844	0.7982	0.025
Mof_C 	C 	0.8221	0.8221	0.854	0.109
Mof_C 	C 	0.2844	0.2844	0.2982	0.016
Mof_C 	C 	0.3221	0.3221	0.354	0.101
Mof_C 	C 	0.7844	0.7844	0.2018	0.018
Mof_C 	C 	0.8221	0.8221	0.146	0.106
Mof_C 	C 	0.2844	0.2844	0.7018	0.013
Mof_C 	C 	0.3221	0.3221	0.646	0.104
Mof_C 	C 	0.2156	0.2156	0.2018	0.006
Mof_C 	C 	0.1779	0.1779	0.146	0.101
Mof_C 	C 	0.7156	0.7156	0.7018	0.01
Mof_C 	C 	0.6779	0.6779	0.646	0.109
Mof_C 	C 	0.7844	0.2156	0.2018	0.012
Mof_C 	C 	0.8221	0.1779	0.146	0.103
Mof_C 	C 	0.2844	0.7156	0.7018	0.012
Mof_C 	C 	0.3221	0.6779	0.646	0.106
Mof_C 	C 	0.2156	0.7844	0.2018	0.012
Mof_C 	C 	0.1779	0.8221	0.146	0.103
Mof_C 	C 	0.7156	0.2844	0.7018	0.012
Mof_C 	C 	0.6779	0.3221	0.646	0.106
_end
