# CIF file generated by openbabel 3.1.0, see https://openbabel.org
data_I
_chemical_name_common 'image0'
_cell_length_a 13.6093
_cell_length_b 13.6093
_cell_length_c 8.1609
_cell_angle_alpha 90
_cell_angle_beta 90
_cell_angle_gamma 120
_space_group_name_H-M_alt 'P 1'
_space_group_name_Hall 'P 1'
loop_
    _symmetry_equiv_pos_as_xyz
    x,y,z
loop_
    _atom_site_label
    _atom_site_type_symbol
    _atom_site_fract_x
    _atom_site_fract_y
    _atom_site_fract_z
    _atom_site_occupancy
    Mn1      Mn       0.29578    0.33471    0.54340    1.000
    O1       O        0.22790    0.18060    0.40480    1.000
    C1       C        0.52970    0.32070    0.55520    1.000
    C2       C        0.35440    0.55580    0.77630    1.000
    O2       O        0.24470    0.05850    0.24670    1.000
    C3       C        0.26660    0.15870    0.28000    1.000
    N1       N        0.34590    0.21010    0.00360    1.000
    H1       H        0.41040    0.25770    0.95030    1.000
    H2       H        0.28660    0.20160    0.94370    1.000
    C4       C        0.34470    0.25540    0.16580    1.000
    H3       H        0.42160    0.28720    0.21010    1.000
    N2       N        0.36360    0.42590    0.30660    1.000
    H4       H        0.34700    0.48200    0.29900    1.000
    H5       H        0.43970    0.45810    0.30710    1.000
    C5       C        0.31860    0.35280    0.16120    1.000
    H6       H        0.35180    0.39790    0.06330    1.000
    H7       H        0.23710    0.32160    0.15580    1.000
    N3       N        0.44870    0.31890    0.60370    1.000
    N4       N        0.36650    0.49570    0.69160    1.000
    Mn2      Mn       0.66529    0.96107    0.54340    1.000
    O3       O        0.81940    0.04730    0.40480    1.000
    C6       C        0.67930    0.20900    0.55520    1.000
    C7       C        0.44420    0.79860    0.77630    1.000
    O4       O        0.94150    0.18620    0.24670    1.000
    C8       C        0.84130    0.10790    0.28000    1.000
    N5       N        0.78990    0.13580    0.00360    1.000
    H8       H        0.74230    0.15270    0.95030    1.000
    H9       H        0.79840    0.08500    0.94370    1.000
    C9       C        0.74460    0.08930    0.16580    1.000
    H10      H        0.71280    0.13440    0.21010    1.000
    N6       N        0.57410    0.93770    0.30660    1.000
    H11      H        0.51800    0.86500    0.29900    1.000
    H12      H        0.54190    0.98160    0.30710    1.000
    C10      C        0.64720    0.96580    0.16120    1.000
    H13      H        0.60210    0.95390    0.06330    1.000
    H14      H        0.67840    0.91550    0.15580    1.000
    N7       N        0.68110    0.12980    0.60370    1.000
    N8       N        0.50430    0.87080    0.69160    1.000
    Mn3      Mn       0.03893    0.70422    0.54340    1.000
    O5       O        0.95270    0.77210    0.40480    1.000
    C11      C        0.79100    0.47030    0.55520    1.000
    C12      C        0.20140    0.64560    0.77630    1.000
    O6       O        0.81380    0.75530    0.24670    1.000
    C13      C        0.89210    0.73340    0.28000    1.000
    N9       N        0.86420    0.65410    0.00360    1.000
    H15      H        0.84730    0.58960    0.95030    1.000
    H16      H        0.91500    0.71340    0.94370    1.000
    C14      C        0.91070    0.65530    0.16580    1.000
    H17      H        0.86560    0.57840    0.21010    1.000
    N10      N        0.06230    0.63640    0.30660    1.000
    H18      H        0.13500    0.65300    0.29900    1.000
    H19      H        0.01840    0.56030    0.30710    1.000
    C15      C        0.03420    0.68140    0.16120    1.000
    H20      H        0.04610    0.64820    0.06330    1.000
    H21      H        0.08450    0.76290    0.15580    1.000
    N11      N        0.87020    0.55130    0.60370    1.000
    N12      N        0.12920    0.63350    0.69160    1.000
    Mn4      Mn       0.70422    0.66529    0.04340    1.000
    O7       O        0.77210    0.81940    0.90480    1.000
    C16      C        0.47030    0.67930    0.05520    1.000
    C17      C        0.64560    0.44420    0.27630    1.000
    O8       O        0.75530    0.94150    0.74670    1.000
    C18      C        0.73340    0.84130    0.78000    1.000
    N13      N        0.65410    0.78990    0.50360    1.000
    H22      H        0.58960    0.74230    0.45030    1.000
    H23      H        0.71340    0.79840    0.44370    1.000
    C19      C        0.65530    0.74460    0.66580    1.000
    H24      H        0.57840    0.71280    0.71010    1.000
    N14      N        0.63640    0.57410    0.80660    1.000
    H25      H        0.65300    0.51800    0.79900    1.000
    H26      H        0.56030    0.54190    0.80710    1.000
    C20      C        0.68140    0.64720    0.66120    1.000
    H27      H        0.64820    0.60210    0.56330    1.000
    H28      H        0.76290    0.67840    0.65580    1.000
    N15      N        0.55130    0.68110    0.10370    1.000
    N16      N        0.63350    0.50430    0.19160    1.000
    Mn5      Mn       0.33471    0.03893    0.04340    1.000
    O9       O        0.18060    0.95270    0.90480    1.000
    C21      C        0.32070    0.79100    0.05520    1.000
    C22      C        0.55580    0.20140    0.27630    1.000
    O10      O        0.05850    0.81380    0.74670    1.000
    C23      C        0.15870    0.89210    0.78000    1.000
    N17      N        0.21010    0.86420    0.50360    1.000
    H29      H        0.25770    0.84730    0.45030    1.000
    H30      H        0.20160    0.91500    0.44370    1.000
    C24      C        0.25540    0.91070    0.66580    1.000
    H31      H        0.28720    0.86560    0.71010    1.000
    N18      N        0.42590    0.06230    0.80660    1.000
    H32      H        0.48200    0.13500    0.79900    1.000
    H33      H        0.45810    0.01840    0.80710    1.000
    C25      C        0.35280    0.03420    0.66120    1.000
    H34      H        0.39790    0.04610    0.56330    1.000
    H35      H        0.32160    0.08450    0.65580    1.000
    N19      N        0.31890    0.87020    0.10370    1.000
    N20      N        0.49570    0.12920    0.19160    1.000
    Mn6      Mn       0.96107    0.29578    0.04340    1.000
    O11      O        0.04730    0.22790    0.90480    1.000
    C26      C        0.20900    0.52970    0.05520    1.000
    C27      C        0.79860    0.35440    0.27630    1.000
    O12      O        0.18620    0.24470    0.74670    1.000
    C28      C        0.10790    0.26660    0.78000    1.000
    N21      N        0.13580    0.34590    0.50360    1.000
    H36      H        0.15270    0.41040    0.45030    1.000
    H37      H        0.08500    0.28660    0.44370    1.000
    C29      C        0.08930    0.34470    0.66580    1.000
    H38      H        0.13440    0.42160    0.71010    1.000
    N22      N        0.93770    0.36360    0.80660    1.000
    H39      H        0.86500    0.34700    0.79900    1.000
    H40      H        0.98160    0.43970    0.80710    1.000
    C30      C        0.96580    0.31860    0.66120    1.000
    H41      H        0.95390    0.35180    0.56330    1.000
    H42      H        0.91550    0.23710    0.65580    1.000
    N23      N        0.12980    0.44870    0.10370    1.000
    N24      N        0.87080    0.36650    0.19160    1.000
    Cr1      Cr       0.33333    0.66667    0.92566    1.000
    Cr2      Cr       0.66667    0.33333    0.42566    1.000
