# CIF file generated by openbabel 3.1.0, see https://openbabel.org
data_I
_chemical_name_common 'OKIYIR03_charged'
_cell_length_a 15.8562
_cell_length_b 15.8562
_cell_length_c 21.765
_cell_angle_alpha 90
_cell_angle_beta 90
_cell_angle_gamma 90
_space_group_name_H-M_alt 'P 1'
_space_group_name_Hall 'P 1'
loop_
    _symmetry_equiv_pos_as_xyz
    x,y,z
loop_
    _atom_site_label
    _atom_site_type_symbol
    _atom_site_fract_x
    _atom_site_fract_y
    _atom_site_fract_z
    _atom_site_occupancy
    Cd1      Cd       0.05979    0.94021    0.25000    1.000
    Cd2      Cd       0.94021    0.05979    0.75000    1.000
    Cd3      Cd       0.55979    0.55979    0.50000    1.000
    Cd4      Cd       0.44021    0.44021    0.00000    1.000
    H1       H        0.74310    0.49520    0.57080    1.000
    H2       H        0.85320    0.40340    0.55930    1.000
    H3       H        0.76390    0.34560    0.39340    1.000
    H4       H        0.65760    0.44010    0.40880    1.000
    H5       H        0.96730    0.33710    0.53380    1.000
    H6       H        0.06650    0.23390    0.52400    1.000
    H7       H        0.04570    0.12040    0.45910    1.000
    H8       H        0.82610    0.22390    0.40500    1.000
    H9       H        0.80110    0.00250    0.20880    1.000
    H10      H        0.70530    0.90970    0.16430    1.000
    H11      H        0.65630    0.79450    0.21900    1.000
    H12      H        0.80430    0.85940    0.36040    1.000
    H13      H        0.58730    0.71490    0.28470    1.000
    H14      H        0.53650    0.61390    0.35020    1.000
    H15      H        0.73180    0.64010    0.45750    1.000
    H16      H        0.78960    0.73650    0.39370    1.000
    H17      H        0.74170    0.02690    0.38610    1.000
    H18      H        0.74300    0.10620    0.35260    1.000
    H19      H        0.25690    0.50480    0.07080    1.000
    H20      H        0.14680    0.59660    0.05930    1.000
    H21      H        0.23610    0.65440    0.89340    1.000
    H22      H        0.34240    0.55990    0.90880    1.000
    H23      H        0.03270    0.66290    0.03380    1.000
    H24      H        0.93350    0.76610    0.02400    1.000
    H25      H        0.95430    0.87960    0.95910    1.000
    H26      H        0.17390    0.77610    0.90500    1.000
    H27      H        0.19890    0.99750    0.70880    1.000
    H28      H        0.29470    0.09030    0.66430    1.000
    H29      H        0.34370    0.20550    0.71900    1.000
    H30      H        0.19570    0.14060    0.86040    1.000
    H31      H        0.41270    0.28510    0.78470    1.000
    H32      H        0.46350    0.38610    0.85020    1.000
    H33      H        0.26820    0.35990    0.95750    1.000
    H34      H        0.21040    0.26350    0.89370    1.000
    H35      H        0.25830    0.97310    0.88610    1.000
    H36      H        0.25700    0.89380    0.85260    1.000
    H37      H        0.00480    0.24310    0.82080    1.000
    H38      H        0.09660    0.35320    0.80930    1.000
    H39      H        0.15440    0.26390    0.64340    1.000
    H40      H        0.05990    0.15760    0.65880    1.000
    H41      H        0.16290    0.46730    0.78380    1.000
    H42      H        0.26610    0.56650    0.77400    1.000
    H43      H        0.37960    0.54570    0.70910    1.000
    H44      H        0.27610    0.32610    0.65500    1.000
    H45      H        0.49750    0.30110    0.45880    1.000
    H46      H        0.59030    0.20530    0.41430    1.000
    H47      H        0.70550    0.15630    0.46900    1.000
    H48      H        0.64060    0.30430    0.61040    1.000
    H49      H        0.78510    0.08730    0.53470    1.000
    H50      H        0.88610    0.03650    0.60020    1.000
    H51      H        0.85990    0.23180    0.70750    1.000
    H52      H        0.76350    0.28960    0.64370    1.000
    H53      H        0.47310    0.24170    0.63610    1.000
    H54      H        0.39380    0.24300    0.60260    1.000
    H55      H        0.99520    0.75690    0.32080    1.000
    H56      H        0.90340    0.64680    0.30930    1.000
    H57      H        0.84560    0.73610    0.14340    1.000
    H58      H        0.94010    0.84240    0.15880    1.000
    H59      H        0.83710    0.53270    0.28380    1.000
    H60      H        0.73390    0.43350    0.27400    1.000
    H61      H        0.62040    0.45430    0.20910    1.000
    H62      H        0.72390    0.67390    0.15500    1.000
    H63      H        0.50250    0.69890    0.95880    1.000
    H64      H        0.40970    0.79470    0.91430    1.000
    H65      H        0.29450    0.84370    0.96900    1.000
    H66      H        0.35940    0.69570    0.11040    1.000
    H67      H        0.21490    0.91270    0.03470    1.000
    H68      H        0.11390    0.96350    0.10020    1.000
    H69      H        0.14010    0.76820    0.20750    1.000
    H70      H        0.23650    0.71040    0.14370    1.000
    H71      H        0.52690    0.75830    0.13610    1.000
    H72      H        0.60620    0.75700    0.10260    1.000
    H73      H        0.75690    0.99520    0.67920    1.000
    H74      H        0.64680    0.90340    0.69070    1.000
    H75      H        0.73610    0.84560    0.85660    1.000
    H76      H        0.84240    0.94010    0.84120    1.000
    H77      H        0.53270    0.83710    0.71620    1.000
    H78      H        0.43350    0.73390    0.72600    1.000
    H79      H        0.45430    0.62040    0.79090    1.000
    H80      H        0.67390    0.72390    0.84500    1.000
    H81      H        0.69890    0.50250    0.04120    1.000
    H82      H        0.79470    0.40970    0.08570    1.000
    H83      H        0.84370    0.29450    0.03100    1.000
    H84      H        0.69570    0.35940    0.88960    1.000
    H85      H        0.91270    0.21490    0.96530    1.000
    H86      H        0.96350    0.11390    0.89980    1.000
    H87      H        0.76820    0.14010    0.79250    1.000
    H88      H        0.71040    0.23650    0.85630    1.000
    H89      H        0.75830    0.52690    0.86390    1.000
    H90      H        0.75700    0.60620    0.89740    1.000
    H91      H        0.24310    0.00480    0.17920    1.000
    H92      H        0.35320    0.09660    0.19070    1.000
    H93      H        0.26390    0.15440    0.35660    1.000
    H94      H        0.15760    0.05990    0.34120    1.000
    H95      H        0.46730    0.16290    0.21620    1.000
    H96      H        0.56650    0.26610    0.22600    1.000
    H97      H        0.54570    0.37960    0.29090    1.000
    H98      H        0.32610    0.27610    0.34500    1.000
    H99      H        0.30110    0.49750    0.54120    1.000
    H100     H        0.20530    0.59030    0.58570    1.000
    H101     H        0.15630    0.70550    0.53100    1.000
    H102     H        0.30430    0.64060    0.38960    1.000
    H103     H        0.08730    0.78510    0.46530    1.000
    H104     H        0.03650    0.88610    0.39980    1.000
    H105     H        0.23180    0.85990    0.29250    1.000
    H106     H        0.28960    0.76350    0.35630    1.000
    H107     H        0.24170    0.47310    0.36390    1.000
    H108     H        0.24300    0.39380    0.39740    1.000
    H109     H        0.49520    0.74310    0.42920    1.000
    H110     H        0.40340    0.85320    0.44070    1.000
    H111     H        0.34560    0.76390    0.60660    1.000
    H112     H        0.44010    0.65760    0.59120    1.000
    H113     H        0.33710    0.96730    0.46620    1.000
    H114     H        0.23390    0.06650    0.47600    1.000
    H115     H        0.12040    0.04570    0.54090    1.000
    H116     H        0.22390    0.82610    0.59500    1.000
    H117     H        0.00250    0.80110    0.79120    1.000
    H118     H        0.90970    0.70530    0.83570    1.000
    H119     H        0.79450    0.65630    0.78100    1.000
    H120     H        0.85940    0.80430    0.63960    1.000
    H121     H        0.71490    0.58730    0.71530    1.000
    H122     H        0.61390    0.53650    0.64980    1.000
    H123     H        0.64010    0.73180    0.54250    1.000
    H124     H        0.73650    0.78960    0.60630    1.000
    H125     H        0.02690    0.74170    0.61390    1.000
    H126     H        0.10620    0.74300    0.64740    1.000
    H127     H        0.50480    0.25690    0.92920    1.000
    H128     H        0.59660    0.14680    0.94070    1.000
    H129     H        0.65440    0.23610    0.10660    1.000
    H130     H        0.55990    0.34240    0.09120    1.000
    H131     H        0.66290    0.03270    0.96620    1.000
    H132     H        0.76610    0.93350    0.97600    1.000
    H133     H        0.87960    0.95430    0.04090    1.000
    H134     H        0.77610    0.17390    0.09500    1.000
    H135     H        0.99750    0.19890    0.29120    1.000
    H136     H        0.09030    0.29470    0.33570    1.000
    H137     H        0.20550    0.34370    0.28100    1.000
    H138     H        0.14060    0.19570    0.13960    1.000
    H139     H        0.28510    0.41270    0.21530    1.000
    H140     H        0.38610    0.46350    0.14980    1.000
    H141     H        0.35990    0.26820    0.04250    1.000
    H142     H        0.26350    0.21040    0.10630    1.000
    H143     H        0.97310    0.25830    0.11390    1.000
    H144     H        0.89380    0.25700    0.14740    1.000
    C1       C        0.74700    0.46430    0.53460    1.000
    C2       C        0.81320    0.40810    0.52820    1.000
    C3       C        0.82050    0.35910    0.47610    1.000
    C4       C        0.76070    0.37440    0.43060    1.000
    C5       C        0.69680    0.43190    0.44000    1.000
    C6       C        0.88540    0.29260    0.47000    1.000
    C7       C        0.95870    0.29340    0.50590    1.000
    C8       C        0.01760    0.23100    0.50060    1.000
    C9       C        0.00600    0.16350    0.46130    1.000
    C10      C        0.93310    0.16130    0.42460    1.000
    C11      C        0.87420    0.22560    0.42940    1.000
    C12      C        0.92500    0.09140    0.38110    1.000
    C13      C        0.87430    0.99540    0.31950    1.000
    C14      C        0.81250    0.93870    0.28910    1.000
    C15      C        0.78260    0.95520    0.23030    1.000
    C16      C        0.72460    0.90010    0.20400    1.000
    C17      C        0.69540    0.83080    0.23690    1.000
    C18      C        0.72410    0.81540    0.29610    1.000
    C19      C        0.78370    0.86980    0.32110    1.000
    C20      C        0.69320    0.74270    0.33340    1.000
    C21      C        0.61710    0.70150    0.32020    1.000
    C22      C        0.58660    0.64120    0.36010    1.000
    C23      C        0.70170    0.65610    0.42270    1.000
    C24      C        0.73650    0.71490    0.38490    1.000
    C25      C        0.25300    0.53570    0.03460    1.000
    C26      C        0.18680    0.59190    0.02820    1.000
    C27      C        0.17950    0.64090    0.97610    1.000
    C28      C        0.23930    0.62560    0.93060    1.000
    C29      C        0.30320    0.56810    0.94000    1.000
    C30      C        0.11460    0.70740    0.97000    1.000
    C31      C        0.04130    0.70660    0.00590    1.000
    C32      C        0.98240    0.76900    0.00060    1.000
    C33      C        0.99400    0.83650    0.96130    1.000
    C34      C        0.06690    0.83870    0.92460    1.000
    C35      C        0.12580    0.77440    0.92940    1.000
    C36      C        0.07500    0.90860    0.88110    1.000
    C37      C        0.12570    0.00460    0.81950    1.000
    C38      C        0.18750    0.06130    0.78910    1.000
    C39      C        0.21740    0.04480    0.73030    1.000
    C40      C        0.27540    0.09990    0.70400    1.000
    C41      C        0.30460    0.16920    0.73690    1.000
    C42      C        0.27590    0.18460    0.79610    1.000
    C43      C        0.21630    0.13020    0.82110    1.000
    C44      C        0.30680    0.25730    0.83340    1.000
    C45      C        0.38290    0.29850    0.82020    1.000
    C46      C        0.41340    0.35880    0.86010    1.000
    C47      C        0.29830    0.34390    0.92270    1.000
    C48      C        0.26350    0.28510    0.88490    1.000
    C49      C        0.03570    0.24700    0.78460    1.000
    C50      C        0.09190    0.31320    0.77820    1.000
    C51      C        0.14090    0.32050    0.72610    1.000
    C52      C        0.12560    0.26070    0.68060    1.000
    C53      C        0.06810    0.19680    0.69000    1.000
    C54      C        0.20740    0.38540    0.72000    1.000
    C55      C        0.20660    0.45870    0.75590    1.000
    C56      C        0.26900    0.51760    0.75060    1.000
    C57      C        0.33650    0.50600    0.71130    1.000
    C58      C        0.33870    0.43310    0.67460    1.000
    C59      C        0.27440    0.37420    0.67940    1.000
    C60      C        0.40860    0.42500    0.63110    1.000
    C61      C        0.50460    0.37430    0.56950    1.000
    C62      C        0.56130    0.31250    0.53910    1.000
    C63      C        0.54480    0.28260    0.48030    1.000
    C64      C        0.59990    0.22460    0.45400    1.000
    C65      C        0.66920    0.19540    0.48690    1.000
    C66      C        0.68460    0.22410    0.54610    1.000
    C67      C        0.63020    0.28370    0.57110    1.000
    C68      C        0.75730    0.19320    0.58340    1.000
    C69      C        0.79850    0.11710    0.57020    1.000
    C70      C        0.85880    0.08660    0.61010    1.000
    C71      C        0.84390    0.20170    0.67270    1.000
    C72      C        0.78510    0.23650    0.63490    1.000
    C73      C        0.96430    0.75300    0.28460    1.000
    C74      C        0.90810    0.68680    0.27820    1.000
    C75      C        0.85910    0.67950    0.22610    1.000
    C76      C        0.87440    0.73930    0.18060    1.000
    C77      C        0.93190    0.80320    0.19000    1.000
    C78      C        0.79260    0.61460    0.22000    1.000
    C79      C        0.79340    0.54130    0.25590    1.000
    C80      C        0.73100    0.48240    0.25060    1.000
    C81      C        0.66350    0.49400    0.21130    1.000
    C82      C        0.66130    0.56690    0.17460    1.000
    C83      C        0.72560    0.62580    0.17940    1.000
    C84      C        0.59140    0.57500    0.13110    1.000
    C85      C        0.49540    0.62570    0.06950    1.000
    C86      C        0.43870    0.68750    0.03910    1.000
    C87      C        0.45520    0.71740    0.98030    1.000
    C88      C        0.40010    0.77540    0.95400    1.000
    C89      C        0.33080    0.80460    0.98690    1.000
    C90      C        0.31540    0.77590    0.04610    1.000
    C91      C        0.36980    0.71630    0.07110    1.000
    C92      C        0.24270    0.80680    0.08340    1.000
    C93      C        0.20150    0.88290    0.07020    1.000
    C94      C        0.14120    0.91340    0.11010    1.000
    C95      C        0.15610    0.79830    0.17270    1.000
    C96      C        0.21490    0.76350    0.13490    1.000
    C97      C        0.75300    0.96430    0.71540    1.000
    C98      C        0.68680    0.90810    0.72180    1.000
    C99      C        0.67950    0.85910    0.77390    1.000
    C100     C        0.73930    0.87440    0.81940    1.000
    C101     C        0.80320    0.93190    0.81000    1.000
    C102     C        0.61460    0.79260    0.78000    1.000
    C103     C        0.54130    0.79340    0.74410    1.000
    C104     C        0.48240    0.73100    0.74940    1.000
    C105     C        0.49400    0.66350    0.78870    1.000
    C106     C        0.56690    0.66130    0.82540    1.000
    C107     C        0.62580    0.72560    0.82060    1.000
    C108     C        0.57500    0.59140    0.86890    1.000
    C109     C        0.62570    0.49540    0.93050    1.000
    C110     C        0.68750    0.43870    0.96090    1.000
    C111     C        0.71740    0.45520    0.01970    1.000
    C112     C        0.77540    0.40010    0.04600    1.000
    C113     C        0.80460    0.33080    0.01310    1.000
    C114     C        0.77590    0.31540    0.95390    1.000
    C115     C        0.71630    0.36980    0.92890    1.000
    C116     C        0.80680    0.24270    0.91660    1.000
    C117     C        0.88290    0.20150    0.92980    1.000
    C118     C        0.91340    0.14120    0.88990    1.000
    C119     C        0.79830    0.15610    0.82730    1.000
    C120     C        0.76350    0.21490    0.86510    1.000
    C121     C        0.24700    0.03570    0.21540    1.000
    C122     C        0.31320    0.09190    0.22180    1.000
    C123     C        0.32050    0.14090    0.27390    1.000
    C124     C        0.26070    0.12560    0.31940    1.000
    C125     C        0.19680    0.06810    0.31000    1.000
    C126     C        0.38540    0.20740    0.28000    1.000
    C127     C        0.45870    0.20660    0.24410    1.000
    C128     C        0.51760    0.26900    0.24940    1.000
    C129     C        0.50600    0.33650    0.28870    1.000
    C130     C        0.43310    0.33870    0.32540    1.000
    C131     C        0.37420    0.27440    0.32060    1.000
    C132     C        0.42500    0.40860    0.36890    1.000
    C133     C        0.37430    0.50460    0.43050    1.000
    C134     C        0.31250    0.56130    0.46090    1.000
    C135     C        0.28260    0.54480    0.51970    1.000
    C136     C        0.22460    0.59990    0.54600    1.000
    C137     C        0.19540    0.66920    0.51310    1.000
    C138     C        0.22410    0.68460    0.45390    1.000
    C139     C        0.28370    0.63020    0.42890    1.000
    C140     C        0.19320    0.75730    0.41660    1.000
    C141     C        0.11710    0.79850    0.42980    1.000
    C142     C        0.08660    0.85880    0.38990    1.000
    C143     C        0.20170    0.84390    0.32730    1.000
    C144     C        0.23650    0.78510    0.36510    1.000
    C145     C        0.46430    0.74700    0.46540    1.000
    C146     C        0.40810    0.81320    0.47180    1.000
    C147     C        0.35910    0.82050    0.52390    1.000
    C148     C        0.37440    0.76070    0.56940    1.000
    C149     C        0.43190    0.69680    0.56000    1.000
    C150     C        0.29260    0.88540    0.53000    1.000
    C151     C        0.29340    0.95870    0.49410    1.000
    C152     C        0.23100    0.01760    0.49940    1.000
    C153     C        0.16350    0.00600    0.53870    1.000
    C154     C        0.16130    0.93310    0.57540    1.000
    C155     C        0.22560    0.87420    0.57060    1.000
    C156     C        0.09140    0.92500    0.61890    1.000
    C157     C        0.99540    0.87430    0.68050    1.000
    C158     C        0.93870    0.81250    0.71090    1.000
    C159     C        0.95520    0.78260    0.76970    1.000
    C160     C        0.90010    0.72460    0.79600    1.000
    C161     C        0.83080    0.69540    0.76310    1.000
    C162     C        0.81540    0.72410    0.70390    1.000
    C163     C        0.86980    0.78370    0.67890    1.000
    C164     C        0.74270    0.69320    0.66660    1.000
    C165     C        0.70150    0.61710    0.67980    1.000
    C166     C        0.64120    0.58660    0.63990    1.000
    C167     C        0.65610    0.70170    0.57730    1.000
    C168     C        0.71490    0.73650    0.61510    1.000
    C169     C        0.53570    0.25300    0.96540    1.000
    C170     C        0.59190    0.18680    0.97180    1.000
    C171     C        0.64090    0.17950    0.02390    1.000
    C172     C        0.62560    0.23930    0.06940    1.000
    C173     C        0.56810    0.30320    0.06000    1.000
    C174     C        0.70740    0.11460    0.03000    1.000
    C175     C        0.70660    0.04130    0.99410    1.000
    C176     C        0.76900    0.98240    0.99940    1.000
    C177     C        0.83650    0.99400    0.03870    1.000
    C178     C        0.83870    0.06690    0.07540    1.000
    C179     C        0.77440    0.12580    0.07060    1.000
    C180     C        0.90860    0.07500    0.11890    1.000
    C181     C        0.00460    0.12570    0.18050    1.000
    C182     C        0.06130    0.18750    0.21090    1.000
    C183     C        0.04480    0.21740    0.26970    1.000
    C184     C        0.09990    0.27540    0.29600    1.000
    C185     C        0.16920    0.30460    0.26310    1.000
    C186     C        0.18460    0.27590    0.20390    1.000
    C187     C        0.13020    0.21630    0.17890    1.000
    C188     C        0.25730    0.30680    0.16660    1.000
    C189     C        0.29850    0.38290    0.17980    1.000
    C190     C        0.35880    0.41340    0.13990    1.000
    C191     C        0.34390    0.29830    0.07730    1.000
    C192     C        0.28510    0.26350    0.11510    1.000
    N1       N        0.68850    0.47630    0.49160    1.000
    N2       N        0.98890    0.05380    0.35486    1.000
    N3       N        0.95600    0.99300    0.31629    1.000
    N4       N        0.85140    0.05630    0.35978    1.000
    N5       N        0.76960    0.07490    0.38050    1.000
    N6       N        0.62630    0.61980    0.41274    1.000
    N7       N        0.31150    0.52370    0.99160    1.000
    N8       N        0.01110    0.94620    0.85486    1.000
    N9       N        0.04400    0.00700    0.81629    1.000
    N10      N        0.14860    0.94370    0.85978    1.000
    N11      N        0.23040    0.92510    0.88050    1.000
    N12      N        0.37370    0.38020    0.91274    1.000
    N13      N        0.02370    0.18850    0.74160    1.000
    N14      N        0.44620    0.48890    0.60486    1.000
    N15      N        0.50700    0.45600    0.56629    1.000
    N16      N        0.44370    0.35140    0.60978    1.000
    N17      N        0.42510    0.26960    0.63050    1.000
    N18      N        0.88020    0.12630    0.66274    1.000
    N19      N        0.97630    0.81150    0.24160    1.000
    N20      N        0.55380    0.51110    0.10486    1.000
    N21      N        0.49300    0.54400    0.06629    1.000
    N22      N        0.55630    0.64860    0.10978    1.000
    N23      N        0.57490    0.73040    0.13050    1.000
    N24      N        0.11980    0.87370    0.16274    1.000
    N25      N        0.81150    0.97630    0.75840    1.000
    N26      N        0.51110    0.55380    0.89514    1.000
    N27      N        0.54400    0.49300    0.93371    1.000
    N28      N        0.64860    0.55630    0.89022    1.000
    N29      N        0.73040    0.57490    0.86950    1.000
    N30      N        0.87370    0.11980    0.83726    1.000
    N31      N        0.18850    0.02370    0.25840    1.000
    N32      N        0.48890    0.44620    0.39514    1.000
    N33      N        0.45600    0.50700    0.43371    1.000
    N34      N        0.35140    0.44370    0.39022    1.000
    N35      N        0.26960    0.42510    0.36950    1.000
    N36      N        0.12630    0.88020    0.33726    1.000
    N37      N        0.47630    0.68850    0.50840    1.000
    N38      N        0.05380    0.98890    0.64514    1.000
    N39      N        0.99300    0.95600    0.68371    1.000
    N40      N        0.05630    0.85140    0.64022    1.000
    N41      N        0.07490    0.76960    0.61950    1.000
    N42      N        0.61980    0.62630    0.58726    1.000
    N43      N        0.52370    0.31150    0.00840    1.000
    N44      N        0.94620    0.01110    0.14514    1.000
    N45      N        0.00700    0.04400    0.18371    1.000
    N46      N        0.94370    0.14860    0.14022    1.000
    N47      N        0.92510    0.23040    0.11950    1.000
    N48      N        0.38020    0.37370    0.08726    1.000
    Cl1      Cl       0.62615    0.37385    0.75000    1.000
    O1       O        0.63160    0.44270    0.78800    1.000
    O2       O        0.67090    0.40590    0.69890    1.000
    O3       O        0.55730    0.36840    0.71200    1.000
    O4       O        0.59410    0.32910    0.80110    1.000
    Cl2      Cl       0.37385    0.62615    0.25000    1.000
    O5       O        0.36840    0.55730    0.28800    1.000
    O6       O        0.32910    0.59410    0.19890    1.000
    O7       O        0.44270    0.63160    0.21200    1.000
    O8       O        0.40590    0.67090    0.30110    1.000
    Cl3      Cl       0.12615    0.12615    0.00000    1.000
    O9       O        0.05730    0.13160    0.03800    1.000
    O10      O        0.09410    0.17090    0.94890    1.000
    O11      O        0.13160    0.05730    0.96200    1.000
    O12      O        0.17090    0.09410    0.05110    1.000
    Cl4      Cl       0.87385    0.87385    0.50000    1.000
    O13      O        0.94270    0.86840    0.53800    1.000
    O14      O        0.90590    0.82910    0.44890    1.000
    O15      O        0.86840    0.94270    0.46200    1.000
    O16      O        0.82910    0.90590    0.55110    1.000
    Cl5      Cl       0.73056    0.73056    0.00000    1.000
    O17      O        0.76300    0.76710    0.05310    1.000
    O18      O        0.78280    0.64550    0.99780    1.000
    O19      O        0.76710    0.76300    0.94690    1.000
    O20      O        0.64550    0.78280    0.00220    1.000
    Cl6      Cl       0.26944    0.26944    0.50000    1.000
    O21      O        0.23700    0.23290    0.55310    1.000
    O22      O        0.21720    0.35450    0.49780    1.000
    O23      O        0.23290    0.23700    0.44690    1.000
    O24      O        0.35450    0.21720    0.50220    1.000
    Cl7      Cl       0.76944    0.23056    0.25000    1.000
    O25      O        0.73290    0.26300    0.30310    1.000
    O26      O        0.85450    0.28280    0.24780    1.000
    O27      O        0.73700    0.26710    0.19690    1.000
    O28      O        0.71720    0.14550    0.25220    1.000
    Cl8      Cl       0.23056    0.76944    0.75000    1.000
    O29      O        0.26710    0.73700    0.80310    1.000
    O30      O        0.14550    0.71720    0.74780    1.000
    O31      O        0.26300    0.73290    0.69690    1.000
    O32      O        0.28280    0.85450    0.75220    1.000
