data_functionalizedCrystal
_audit_creation_method	'EQeq! by Chris Wilmer'
_symmetry_space_group_name_H-M	'P1'
_symmetry_Int_Tables_number	1
_symmetry_cell_setting	triclinic
loop_
_symmetry_equiv_pos_as_xyz
  x,y,z
_cell_length_a	10.4483
_cell_length_b	15.0282
_cell_length_c	16.775
_cell_angle_alpha	65.385
_cell_angle_beta	83.952
_cell_angle_gamma	73.595
loop_
_atom_site_label
_atom_site_type_symbol
_atom_site_fract_x
_atom_site_fract_y
_atom_site_fract_z
_atom_site_charge
Mof_Pr	Pr	0.29361	0.2549	0.21178	1.994
Mof_Pr	Pr	0.2219	0.50878	0.62872	1.725
Mof_Pr	Pr	0.70639	0.7451	0.78822	1.994
Mof_Pr	Pr	0.7781	0.49122	0.37128	1.725
Mof_H 	H 	0.6884	0.9449	0.8516	0.241
Mof_H 	H 	0.9721	0.9279	0.9011	0.22
Mof_H 	H 	0.8345	0.9512	0.7024	0.22
Mof_H 	H 	0.3306	0.1665	0.8905	0.04
Mof_H 	H 	0.6487	0.1858	0.9961	0.043
Mof_H 	H 	0.8655	0.0703	0.0044	0.069
Mof_H 	H 	0.8808	0.977	0.978	0.07
Mof_H 	H 	0.8602	0.2421	0.8804	0.045
Mof_H 	H 	0.0682	0.2451	0.6619	0.046
Mof_H 	H 	0.1395	0.9787	0.7181	0.129
Mof_H 	H 	0.1985	0.0739	0.6621	0.092
Mof_H 	H 	0.1244	0.176	0.5129	0.061
Mof_H 	H 	0.8082	0.1426	0.4165	0.055
Mof_H 	H 	0.7519	0.9378	0.5989	0.073
Mof_H 	H 	0.6928	0.0189	0.504	0.089
Mof_H 	H 	0.5346	0.1824	0.4903	0.04
Mof_H 	H 	0.3242	0.197	0.7036	0.027
Mof_H 	H 	0.3499	0.0367	0.8382	0.067
Mof_H 	H 	0.4865	0.9493	0.8543	0.073
Mof_H 	H 	0.3116	0.0551	0.1484	0.242
Mof_H 	H 	0.0279	0.0721	0.0989	0.221
Mof_H 	H 	0.1655	0.0488	0.2976	0.221
Mof_H 	H 	0.6694	0.8335	0.1095	0.041
Mof_H 	H 	0.3513	0.8142	0.0039	0.044
Mof_H 	H 	0.1345	0.9297	0.9956	0.07
Mof_H 	H 	0.1192	0.023	0.022	0.071
Mof_H 	H 	0.1398	0.7579	0.1196	0.046
Mof_H 	H 	0.9318	0.7549	0.3381	0.046
Mof_H 	H 	0.8605	0.0213	0.2819	0.129
Mof_H 	H 	0.8015	0.9261	0.3379	0.092
Mof_H 	H 	0.8756	0.824	0.4871	0.061
Mof_H 	H 	0.1918	0.8574	0.5835	0.055
Mof_H 	H 	0.2481	0.0622	0.4011	0.073
Mof_H 	H 	0.3072	0.9811	0.496	0.089
Mof_H 	H 	0.4654	0.8176	0.5097	0.04
Mof_H 	H 	0.6758	0.803	0.2964	0.027
Mof_H 	H 	0.6501	0.9633	0.1618	0.067
Mof_H 	H 	0.5135	0.0507	0.1457	0.073
Mof_C 	C 	0.5053	0.0693	0.87887	-0.04
Mof_C 	C 	0.4236	0.1446	0.90316	-0.012
Mof_C 	C 	0.4777	0.1881	0.94595	-0.102
Mof_C 	C 	0.6134	0.1565	0.96593	-0.019
Mof_C 	C 	0.6973	0.0822	0.94186	-0.015
Mof_C 	C 	0.6422	0.03881	0.89839	0.155
Mof_C 	C 	0.8467	0.0515	0.95774	-0.125
Mof_C 	C 	0.9183	0.1032	0.87465	-0.022
Mof_C 	C 	0.9071	0.2068	0.84607	-0.019
Mof_C 	C 	0.9642	0.2584	0.76779	-0.092
Mof_C 	C 	0.0314	0.2086	0.71592	-0.033
Mof_C 	C 	0.0451	0.1053	0.74282	0.013
Mof_C 	C 	0.9897	0.0532	0.82344	0.136
Mof_C 	C 	0.1152	0.0531	0.68375	-0.159
Mof_C 	C 	0.028	0.0793	0.60644	0.011
Mof_C 	C 	0.0518	0.1464	0.52258	-0.033
Mof_C 	C 	0.968	0.1699	0.45284	-0.121
Mof_C 	C 	0.863	0.1262	0.46506	-0.026
Mof_C 	C 	0.8373	0.0587	0.54785	-0.024
Mof_C 	C 	0.9201	0.0369	0.61792	0.132
Mof_C 	C 	0.7217	0.0112	0.56137	-0.122
Mof_C 	C 	0.6049	0.06027	0.60388	-0.027
Mof_C 	C 	0.5212	0.1536	0.55173	-0.005
Mof_C 	C 	0.4181	0.205	0.58914	-0.122
Mof_C 	C 	0.3952	0.1619	0.6786	-0.003
Mof_C 	C 	0.4754	0.0672	0.73215	-0.037
Mof_C 	C 	0.583	0.01617	0.69518	0.173
Mof_C 	C 	0.4476	0.0237	0.82956	-0.109
Mof_C 	C 	0.4947	0.9307	0.12113	-0.04
Mof_C 	C 	0.5764	0.8554	0.09684	-0.012
Mof_C 	C 	0.5223	0.8119	0.05405	-0.102
Mof_C 	C 	0.3866	0.8435	0.03407	-0.019
Mof_C 	C 	0.3027	0.9178	0.05814	-0.015
Mof_C 	C 	0.3578	0.96119	0.10161	0.155
Mof_C 	C 	0.1533	0.9485	0.04226	-0.125
Mof_C 	C 	0.0817	0.8968	0.12535	-0.022
Mof_C 	C 	0.0929	0.7932	0.15393	-0.019
Mof_C 	C 	0.0358	0.7416	0.23221	-0.092
Mof_C 	C 	0.9686	0.7914	0.28408	-0.033
Mof_C 	C 	0.9549	0.8947	0.25718	0.013
Mof_C 	C 	0.0103	0.9468	0.17656	0.136
Mof_C 	C 	0.8848	0.9469	0.31625	-0.159
Mof_C 	C 	0.972	0.9207	0.39356	0.011
Mof_C 	C 	0.9482	0.8536	0.47742	-0.033
Mof_C 	C 	0.032	0.8301	0.54716	-0.121
Mof_C 	C 	0.137	0.8738	0.53494	-0.026
Mof_C 	C 	0.1627	0.9413	0.45215	-0.024
Mof_C 	C 	0.0799	0.9631	0.38208	0.132
Mof_C 	C 	0.2783	0.9888	0.43863	-0.122
Mof_C 	C 	0.3951	0.93973	0.39612	-0.027
Mof_C 	C 	0.4788	0.8464	0.44827	-0.005
Mof_C 	C 	0.5819	0.795	0.41086	-0.122
Mof_C 	C 	0.6048	0.8381	0.3214	-0.003
Mof_C 	C 	0.5246	0.9328	0.26785	-0.037
Mof_C 	C 	0.417	0.98383	0.30482	0.173
Mof_C 	C 	0.5524	0.9763	0.17044	-0.109
Mof_S 	S 	0.37707	0.28281	0.97777	0.545
Mof_S 	S 	0.94729	0.38971	0.73051	0.556
Mof_S 	S 	0.99253	0.25936	0.34809	0.617
Mof_S 	S 	0.32042	0.32549	0.5207	0.558
Mof_S 	S 	0.62293	0.71719	0.02223	0.545
Mof_S 	S 	0.05271	0.61029	0.26949	0.556
Mof_S 	S 	0.00747	0.74064	0.65191	0.617
Mof_S 	S 	0.67958	0.67451	0.4793	0.558
Mof_N 	N 	0.5537	0.14981	0.30678	0.064
Mof_N 	N 	0.4463	0.85019	0.69322	0.064
Mof_O 	O 	0.3555	0.23589	0.07267	-0.502
Mof_O 	O 	0.4495	0.35995	0.95653	-0.328
Mof_O 	O 	0.2508	0.32207	0.92913	-0.318
Mof_O 	O 	0.7294	0.96609	0.87746	-0.381
Mof_O 	O 	0.0832	0.40129	0.72505	-0.473
Mof_O 	O 	0.8813	0.43812	0.64514	-0.328
Mof_O 	O 	0.8685	0.42104	0.79602	-0.325
Mof_O 	O 	0.00868	0.95002	0.85234	-0.346
Mof_O 	O 	0.13585	0.23085	0.33069	-0.527
Mof_O 	O 	0.9101	0.25576	0.28562	-0.346
Mof_O 	O 	0.9568	0.35851	0.35312	-0.536
Mof_O 	O 	0.9007	0.97285	0.70155	-0.347
Mof_O 	O 	0.413	0.3813	0.46521	-0.374
Mof_O 	O 	0.2282	0.31206	0.4699	-0.291
Mof_O 	O 	0.2484	0.37166	0.57998	-0.499
Mof_O 	O 	0.66794	0.92814	0.74664	-0.424
Mof_O 	O 	0.448	0.15411	0.34944	-0.298
Mof_O 	O 	0.5416	0.18594	0.22249	-0.33
Mof_O 	O 	0.6634	0.1143	0.34151	-0.143
Mof_O 	O 	0.6445	0.76411	0.92733	-0.502
Mof_O 	O 	0.5505	0.64005	0.04347	-0.328
Mof_O 	O 	0.7492	0.67793	0.07087	-0.318
Mof_O 	O 	0.2706	0.03391	0.12254	-0.381
Mof_O 	O 	0.9168	0.59871	0.27495	-0.473
Mof_O 	O 	0.1187	0.56188	0.35486	-0.328
Mof_O 	O 	0.1315	0.57896	0.20398	-0.325
Mof_O 	O 	0.99132	0.04998	0.14766	-0.346
Mof_O 	O 	0.86415	0.76915	0.66931	-0.527
Mof_O 	O 	0.0899	0.74424	0.71438	-0.346
Mof_O 	O 	0.0432	0.64149	0.64688	-0.536
Mof_O 	O 	0.0993	0.02715	0.29845	-0.347
Mof_O 	O 	0.587	0.6187	0.53479	-0.374
Mof_O 	O 	0.7718	0.68794	0.5301	-0.291
Mof_O 	O 	0.7516	0.62834	0.42002	-0.499
Mof_O 	O 	0.33206	0.07186	0.25336	-0.424
Mof_O 	O 	0.552	0.84589	0.65056	-0.298
Mof_O 	O 	0.4584	0.81406	0.77751	-0.33
Mof_O 	O 	0.3366	0.8857	0.65849	-0.143
_end
