# CIF file generated by openbabel 3.1.0, see https://openbabel.org
data_I
_chemical_name_common 'image0'
_cell_length_a 15.173
_cell_length_b 15.173
_cell_length_c 19.089
_cell_angle_alpha 90
_cell_angle_beta 90
_cell_angle_gamma 90
_space_group_name_H-M_alt 'P 1'
_space_group_name_Hall 'P 1'
loop_
    _symmetry_equiv_pos_as_xyz
    x,y,z
loop_
    _atom_site_label
    _atom_site_type_symbol
    _atom_site_fract_x
    _atom_site_fract_y
    _atom_site_fract_z
    _atom_site_occupancy
    Co1      Co       0.20110    0.11874    0.59851    1.000
    Co2      Co       0.02112    0.19148    0.32800    1.000
    N1       N        0.17760    0.12400    0.49670    1.000
    N2       N        0.11150    0.15420    0.39570    1.000
    N3       N        0.07360    0.28710    0.73460    1.000
    N4       N        0.13960    0.21700    0.64710    1.000
    N5       N        0.06850    0.90460    0.67960    1.000
    N6       N        0.15930    0.00990    0.64580    1.000
    N7       N        0.32920    0.13380    0.61260    1.000
    N8       N        0.45160    0.20720    0.63840    1.000
    C1       C        0.10680    0.15480    0.46340    1.000
    H1       H        0.05740    0.17530    0.48720    1.000
    C2       C        0.23180    0.10420    0.44390    1.000
    H2       H        0.28860    0.08200    0.44890    1.000
    C3       C        0.19200    0.12110    0.38240    1.000
    H3       H        0.21600    0.11150    0.33830    1.000
    C4       C        0.11010    0.21370    0.71150    1.000
    H4       H        0.11450    0.16330    0.73890    1.000
    C5       C        0.06090    0.33580    0.67120    1.000
    H5       H        0.03070    0.38900    0.66720    1.000
    C6       C        0.09920    0.29290    0.61900    1.000
    H6       H        0.09940    0.30980    0.57220    1.000
    C7       C        0.08920    0.96220    0.63190    1.000
    H7       H        0.05670    0.96900    0.59100    1.000
    C8       C        0.13150    0.91510    0.72850    1.000
    H8       H        0.13590    0.88330    0.77000    1.000
    C9       C        0.18630    0.97840    0.70790    1.000
    H9       H        0.23550    0.99770    0.73260    1.000
    C10      C        0.36490    0.20850    0.63270    1.000
    H10      H        0.33160    0.25860    0.64220    1.000
    C11      C        0.47300    0.12250    0.61980    1.000
    H11      H        0.52970    0.09920    0.61870    1.000
    C12      C        0.39890    0.07880    0.60340    1.000
    H12      H        0.39580    0.02070    0.58830    1.000
    C13      C        0.09760    0.15190    0.18920    1.000
    H13      H        0.08890    0.09140    0.19310    1.000
    C14      C        0.13710    0.19470    0.13620    1.000
    H14      H        0.16010    0.16710    0.09670    1.000
    Co3      Co       0.29890    0.88126    0.09851    1.000
    Co4      Co       0.47888    0.80852    0.82800    1.000
    N9       N        0.32240    0.87600    0.99670    1.000
    N10      N        0.38850    0.84580    0.89570    1.000
    N11      N        0.42640    0.71290    0.23460    1.000
    N12      N        0.36040    0.78300    0.14710    1.000
    N13      N        0.43150    0.09540    0.17960    1.000
    N14      N        0.34070    0.99010    0.14580    1.000
    N15      N        0.17080    0.86620    0.11260    1.000
    N16      N        0.04840    0.79280    0.13840    1.000
    C15      C        0.39320    0.84520    0.96340    1.000
    H15      H        0.44260    0.82470    0.98720    1.000
    C16      C        0.26820    0.89580    0.94390    1.000
    H16      H        0.21140    0.91800    0.94890    1.000
    C17      C        0.30800    0.87890    0.88240    1.000
    H17      H        0.28400    0.88850    0.83830    1.000
    C18      C        0.38990    0.78630    0.21150    1.000
    H18      H        0.38550    0.83670    0.23890    1.000
    C19      C        0.43910    0.66420    0.17120    1.000
    H19      H        0.46930    0.61100    0.16720    1.000
    C20      C        0.40080    0.70710    0.11900    1.000
    H20      H        0.40060    0.69020    0.07220    1.000
    C21      C        0.41080    0.03780    0.13190    1.000
    H21      H        0.44330    0.03100    0.09100    1.000
    C22      C        0.36850    0.08490    0.22850    1.000
    H22      H        0.36410    0.11670    0.27000    1.000
    C23      C        0.31370    0.02160    0.20790    1.000
    H23      H        0.26450    0.00230    0.23260    1.000
    C24      C        0.13510    0.79150    0.13270    1.000
    H24      H        0.16840    0.74140    0.14220    1.000
    C25      C        0.02700    0.87750    0.11980    1.000
    H25      H        0.97030    0.90080    0.11870    1.000
    C26      C        0.10110    0.92120    0.10340    1.000
    H26      H        0.10420    0.97930    0.08830    1.000
    C27      C        0.40240    0.84810    0.68920    1.000
    H27      H        0.41110    0.90860    0.69310    1.000
    C28      C        0.36290    0.80530    0.63620    1.000
    H28      H        0.33990    0.83290    0.59670    1.000
    Co5      Co       0.79890    0.61874    0.90149    1.000
    Co6      Co       0.97888    0.69148    0.17200    1.000
    N17      N        0.82240    0.62400    0.00330    1.000
    N18      N        0.88850    0.65420    0.10430    1.000
    N19      N        0.92640    0.78710    0.76540    1.000
    N20      N        0.86040    0.71700    0.85290    1.000
    N21      N        0.93150    0.40460    0.82040    1.000
    N22      N        0.84070    0.50990    0.85420    1.000
    N23      N        0.67080    0.63380    0.88740    1.000
    N24      N        0.54840    0.70720    0.86160    1.000
    C29      C        0.89320    0.65480    0.03660    1.000
    H29      H        0.94260    0.67530    0.01280    1.000
    C30      C        0.76820    0.60420    0.05610    1.000
    H30      H        0.71140    0.58200    0.05110    1.000
    C31      C        0.80800    0.62110    0.11760    1.000
    H31      H        0.78400    0.61150    0.16170    1.000
    C32      C        0.88990    0.71370    0.78850    1.000
    H32      H        0.88550    0.66330    0.76110    1.000
    C33      C        0.93910    0.83580    0.82880    1.000
    H33      H        0.96930    0.88900    0.83280    1.000
    C34      C        0.90080    0.79290    0.88100    1.000
    H34      H        0.90060    0.80980    0.92780    1.000
    C35      C        0.91080    0.46220    0.86810    1.000
    H35      H        0.94330    0.46900    0.90900    1.000
    C36      C        0.86850    0.41510    0.77150    1.000
    H36      H        0.86410    0.38330    0.73000    1.000
    C37      C        0.81370    0.47840    0.79210    1.000
    H37      H        0.76450    0.49770    0.76740    1.000
    C38      C        0.63510    0.70850    0.86730    1.000
    H38      H        0.66840    0.75860    0.85780    1.000
    C39      C        0.52700    0.62250    0.88020    1.000
    H39      H        0.47030    0.59920    0.88130    1.000
    C40      C        0.60110    0.57880    0.89660    1.000
    H40      H        0.60420    0.52070    0.91170    1.000
    C41      C        0.90240    0.65190    0.31080    1.000
    H41      H        0.91110    0.59140    0.30690    1.000
    C42      C        0.86290    0.69470    0.36380    1.000
    H42      H        0.83990    0.66710    0.40330    1.000
    Co7      Co       0.70110    0.38126    0.40149    1.000
    Co8      Co       0.52112    0.30852    0.67200    1.000
    N25      N        0.67760    0.37600    0.50330    1.000
    N26      N        0.61150    0.34580    0.60430    1.000
    N27      N        0.57360    0.21290    0.26540    1.000
    N28      N        0.63960    0.28300    0.35290    1.000
    N29      N        0.56850    0.59540    0.32040    1.000
    N30      N        0.65930    0.49010    0.35420    1.000
    N31      N        0.82920    0.36620    0.38740    1.000
    N32      N        0.95160    0.29280    0.36160    1.000
    C43      C        0.60680    0.34520    0.53660    1.000
    H43      H        0.55740    0.32470    0.51280    1.000
    C44      C        0.73180    0.39580    0.55610    1.000
    H44      H        0.78860    0.41800    0.55110    1.000
    C45      C        0.69200    0.37890    0.61760    1.000
    H45      H        0.71600    0.38850    0.66170    1.000
    C46      C        0.61010    0.28630    0.28850    1.000
    H46      H        0.61450    0.33670    0.26110    1.000
    C47      C        0.56090    0.16420    0.32880    1.000
    H47      H        0.53070    0.11100    0.33280    1.000
    C48      C        0.59920    0.20710    0.38100    1.000
    H48      H        0.59940    0.19020    0.42780    1.000
    C49      C        0.58920    0.53780    0.36810    1.000
    H49      H        0.55670    0.53100    0.40900    1.000
    C50      C        0.63150    0.58490    0.27150    1.000
    H50      H        0.63590    0.61670    0.23000    1.000
    C51      C        0.68630    0.52160    0.29210    1.000
    H51      H        0.73550    0.50230    0.26740    1.000
    C52      C        0.86490    0.29150    0.36730    1.000
    H52      H        0.83160    0.24140    0.35780    1.000
    C53      C        0.97300    0.37750    0.38020    1.000
    H53      H        0.02970    0.40080    0.38130    1.000
    C54      C        0.89890    0.42120    0.39660    1.000
    H54      H        0.89580    0.47930    0.41170    1.000
    C55      C        0.59760    0.34810    0.81080    1.000
    H55      H        0.58890    0.40860    0.80690    1.000
    C56      C        0.63710    0.30530    0.86380    1.000
    H56      H        0.66010    0.33290    0.90330    1.000
    Co9      Co       0.79890    0.88126    0.40149    1.000
    Co10     Co       0.97888    0.80852    0.67200    1.000
    N33      N        0.82240    0.87600    0.50330    1.000
    N34      N        0.88850    0.84580    0.60430    1.000
    N35      N        0.92640    0.71290    0.26540    1.000
    N36      N        0.86040    0.78300    0.35290    1.000
    N37      N        0.93150    0.09540    0.32040    1.000
    N38      N        0.84070    0.99010    0.35420    1.000
    N39      N        0.67080    0.86620    0.38740    1.000
    N40      N        0.54840    0.79280    0.36160    1.000
    C57      C        0.89320    0.84520    0.53660    1.000
    H57      H        0.94260    0.82470    0.51280    1.000
    C58      C        0.76820    0.89580    0.55610    1.000
    H58      H        0.71140    0.91800    0.55110    1.000
    C59      C        0.80800    0.87890    0.61760    1.000
    H59      H        0.78400    0.88850    0.66170    1.000
    C60      C        0.88990    0.78630    0.28850    1.000
    H60      H        0.88550    0.83670    0.26110    1.000
    C61      C        0.93910    0.66420    0.32880    1.000
    H61      H        0.96930    0.61100    0.33280    1.000
    C62      C        0.90080    0.70710    0.38100    1.000
    H62      H        0.90060    0.69020    0.42780    1.000
    C63      C        0.91080    0.03780    0.36810    1.000
    H63      H        0.94330    0.03100    0.40900    1.000
    C64      C        0.86850    0.08490    0.27150    1.000
    H64      H        0.86410    0.11670    0.23000    1.000
    C65      C        0.81370    0.02160    0.29210    1.000
    H65      H        0.76450    0.00230    0.26740    1.000
    C66      C        0.63510    0.79150    0.36730    1.000
    H66      H        0.66840    0.74140    0.35780    1.000
    C67      C        0.52700    0.87750    0.38020    1.000
    H67      H        0.47030    0.90080    0.38130    1.000
    C68      C        0.60110    0.92120    0.39660    1.000
    H68      H        0.60420    0.97930    0.41170    1.000
    C69      C        0.90240    0.84810    0.81080    1.000
    H69      H        0.91110    0.90860    0.80690    1.000
    C70      C        0.86290    0.80530    0.86380    1.000
    H70      H        0.83990    0.83290    0.90330    1.000
    Co11     Co       0.70110    0.11874    0.90149    1.000
    Co12     Co       0.52112    0.19148    0.17200    1.000
    N41      N        0.67760    0.12400    0.00330    1.000
    N42      N        0.61150    0.15420    0.10430    1.000
    N43      N        0.57360    0.28710    0.76540    1.000
    N44      N        0.63960    0.21700    0.85290    1.000
    N45      N        0.56850    0.90460    0.82040    1.000
    N46      N        0.65930    0.00990    0.85420    1.000
    N47      N        0.82920    0.13380    0.88740    1.000
    N48      N        0.95160    0.20720    0.86160    1.000
    C71      C        0.60680    0.15480    0.03660    1.000
    H71      H        0.55740    0.17530    0.01280    1.000
    C72      C        0.73180    0.10420    0.05610    1.000
    H72      H        0.78860    0.08200    0.05110    1.000
    C73      C        0.69200    0.12110    0.11760    1.000
    H73      H        0.71600    0.11150    0.16170    1.000
    C74      C        0.61010    0.21370    0.78850    1.000
    H74      H        0.61450    0.16330    0.76110    1.000
    C75      C        0.56090    0.33580    0.82880    1.000
    H75      H        0.53070    0.38900    0.83280    1.000
    C76      C        0.59920    0.29290    0.88100    1.000
    H76      H        0.59940    0.30980    0.92780    1.000
    C77      C        0.58920    0.96220    0.86810    1.000
    H77      H        0.55670    0.96900    0.90900    1.000
    C78      C        0.63150    0.91510    0.77150    1.000
    H78      H        0.63590    0.88330    0.73000    1.000
    C79      C        0.68630    0.97840    0.79210    1.000
    H79      H        0.73550    0.99770    0.76740    1.000
    C80      C        0.86490    0.20850    0.86730    1.000
    H80      H        0.83160    0.25860    0.85780    1.000
    C81      C        0.97300    0.12250    0.88020    1.000
    H81      H        0.02970    0.09920    0.88130    1.000
    C82      C        0.89890    0.07880    0.89660    1.000
    H82      H        0.89580    0.02070    0.91170    1.000
    C83      C        0.59760    0.15190    0.31080    1.000
    H83      H        0.58890    0.09140    0.30690    1.000
    C84      C        0.63710    0.19470    0.36380    1.000
    H84      H        0.66010    0.16710    0.40330    1.000
    Co13     Co       0.20110    0.38126    0.09851    1.000
    Co14     Co       0.02112    0.30852    0.82800    1.000
    N49      N        0.17760    0.37600    0.99670    1.000
    N50      N        0.11150    0.34580    0.89570    1.000
    N51      N        0.07360    0.21290    0.23460    1.000
    N52      N        0.13960    0.28300    0.14710    1.000
    N53      N        0.06850    0.59540    0.17960    1.000
    N54      N        0.15930    0.49010    0.14580    1.000
    N55      N        0.32920    0.36620    0.11260    1.000
    N56      N        0.45160    0.29280    0.13840    1.000
    C85      C        0.10680    0.34520    0.96340    1.000
    H85      H        0.05740    0.32470    0.98720    1.000
    C86      C        0.23180    0.39580    0.94390    1.000
    H86      H        0.28860    0.41800    0.94890    1.000
    C87      C        0.19200    0.37890    0.88240    1.000
    H87      H        0.21600    0.38850    0.83830    1.000
    C88      C        0.11010    0.28630    0.21150    1.000
    H88      H        0.11450    0.33670    0.23890    1.000
    C89      C        0.06090    0.16420    0.17120    1.000
    H89      H        0.03070    0.11100    0.16720    1.000
    C90      C        0.09920    0.20710    0.11900    1.000
    H90      H        0.09940    0.19020    0.07220    1.000
    C91      C        0.08920    0.53780    0.13190    1.000
    H91      H        0.05670    0.53100    0.09100    1.000
    C92      C        0.13150    0.58490    0.22850    1.000
    H92      H        0.13590    0.61670    0.27000    1.000
    C93      C        0.18630    0.52160    0.20790    1.000
    H93      H        0.23550    0.50230    0.23260    1.000
    C94      C        0.36490    0.29150    0.13270    1.000
    H94      H        0.33160    0.24140    0.14220    1.000
    C95      C        0.47300    0.37750    0.11980    1.000
    H95      H        0.52970    0.40080    0.11870    1.000
    C96      C        0.39890    0.42120    0.10340    1.000
    H96      H        0.39580    0.47930    0.08830    1.000
    C97      C        0.09760    0.34810    0.68920    1.000
    H97      H        0.08890    0.40860    0.69310    1.000
    C98      C        0.13710    0.30530    0.63620    1.000
    H98      H        0.16010    0.33290    0.59670    1.000
    Co15     Co       0.29890    0.61874    0.59851    1.000
    Co16     Co       0.47888    0.69148    0.32800    1.000
    N57      N        0.32240    0.62400    0.49670    1.000
    N58      N        0.38850    0.65420    0.39570    1.000
    N59      N        0.42640    0.78710    0.73460    1.000
    N60      N        0.36040    0.71700    0.64710    1.000
    N61      N        0.43150    0.40460    0.67960    1.000
    N62      N        0.34070    0.50990    0.64580    1.000
    N63      N        0.17080    0.63380    0.61260    1.000
    N64      N        0.04840    0.70720    0.63840    1.000
    C99      C        0.39320    0.65480    0.46340    1.000
    H99      H        0.44260    0.67530    0.48720    1.000
    C100     C        0.26820    0.60420    0.44390    1.000
    H100     H        0.21140    0.58200    0.44890    1.000
    C101     C        0.30800    0.62110    0.38240    1.000
    H101     H        0.28400    0.61150    0.33830    1.000
    C102     C        0.38990    0.71370    0.71150    1.000
    H102     H        0.38550    0.66330    0.73890    1.000
    C103     C        0.43910    0.83580    0.67120    1.000
    H103     H        0.46930    0.88900    0.66720    1.000
    C104     C        0.40080    0.79290    0.61900    1.000
    H104     H        0.40060    0.80980    0.57220    1.000
    C105     C        0.41080    0.46220    0.63190    1.000
    H105     H        0.44330    0.46900    0.59100    1.000
    C106     C        0.36850    0.41510    0.72850    1.000
    H106     H        0.36410    0.38330    0.77000    1.000
    C107     C        0.31370    0.47840    0.70790    1.000
    H107     H        0.26450    0.49770    0.73260    1.000
    C108     C        0.13510    0.70850    0.63270    1.000
    H108     H        0.16840    0.75860    0.64220    1.000
    C109     C        0.02700    0.62250    0.61980    1.000
    H109     H        0.97030    0.59920    0.61870    1.000
    C110     C        0.10110    0.57880    0.60340    1.000
    H110     H        0.10420    0.52070    0.58830    1.000
    C111     C        0.40240    0.65190    0.18920    1.000
    H111     H        0.41110    0.59140    0.19310    1.000
    C112     C        0.36290    0.69470    0.13620    1.000
    H112     H        0.33990    0.66710    0.09670    1.000
