data_functionalizedCrystal
_audit_creation_method	'EQeq! by Chris Wilmer'
_symmetry_space_group_name_H-M	'P1'
_symmetry_Int_Tables_number	1
_symmetry_cell_setting	triclinic
loop_
_symmetry_equiv_pos_as_xyz
  x,y,z
_cell_length_a	51.55
_cell_length_b	51.55
_cell_length_c	51.55
_cell_angle_alpha	90
_cell_angle_beta	90
_cell_angle_gamma	90
loop_
_atom_site_label
_atom_site_type_symbol
_atom_site_fract_x
_atom_site_fract_y
_atom_site_fract_z
_atom_site_charge
Mof_O 	O 	0.26428	0.52996	0.18384	-0.527
Mof_O 	O 	0.2976	0.5284	0.2099	-0.656
Mof_C 	C 	0.28725	0.53626	0.19247	0.583
Mof_C 	C 	0.29329	0.56396	0.18343	-0.195
Mof_C 	C 	0.31533	0.57155	0.18921	0.084
Mof_H 	H 	0.3278	0.5598	0.1961	-0.027
Mof_C 	C 	0.32251	0.60095	0.18508	-0.128
Mof_C 	C 	0.34996	0.61239	0.19486	0.426
Mof_C 	C 	0.3503	0.63205	0.17179	-0.194
Mof_C 	C 	0.33157	0.63296	0.15143	0.096
Mof_C 	C 	0.31481	0.60943	0.16146	0.012
Mof_C 	C 	0.28944	0.60104	0.14396	-0.114
Mof_H 	H 	0.2821	0.6095	0.1293	0.035
Mof_C 	C 	0.34134	0.62268	0.21811	-0.871
Mof_H 	H 	0.3417	0.6092	0.2315	0.269
Mof_H 	H 	0.3236	0.6291	0.216	0.277
Mof_H 	H 	0.3527	0.6371	0.2233	0.264
Mof_C 	C 	0.37215	0.59136	0.18938	-0.682
Mof_H 	H 	0.3735	0.5883	0.1707	0.208
Mof_H 	H 	0.3678	0.5751	0.1982	0.197
Mof_H 	H 	0.3888	0.5978	0.1959	0.205
Mof_C 	C 	0.27992	0.57387	0.15879	0.014
Mof_H 	H 	0.2658	0.5643	0.1518	0.005
Mof_O 	O 	0.26428	0.02996	0.68384	-0.527
Mof_O 	O 	0.2976	0.0284	0.7099	-0.655
Mof_C 	C 	0.28725	0.03626	0.69247	0.583
Mof_C 	C 	0.29329	0.06396	0.68343	-0.195
Mof_C 	C 	0.31533	0.07155	0.68921	0.084
Mof_H 	H 	0.3278	0.0598	0.6961	-0.027
Mof_C 	C 	0.32251	0.10095	0.68508	-0.128
Mof_C 	C 	0.34996	0.11239	0.69486	0.425
Mof_C 	C 	0.3503	0.13205	0.67179	-0.194
Mof_C 	C 	0.33157	0.13296	0.65143	0.096
Mof_C 	C 	0.31481	0.10943	0.66146	0.012
Mof_C 	C 	0.28944	0.10104	0.64396	-0.114
Mof_H 	H 	0.2821	0.1095	0.6293	0.035
Mof_C 	C 	0.34134	0.12268	0.71811	-0.871
Mof_H 	H 	0.3417	0.1092	0.7315	0.269
Mof_H 	H 	0.3236	0.1291	0.716	0.277
Mof_H 	H 	0.3527	0.1371	0.7233	0.264
Mof_C 	C 	0.37215	0.09136	0.68938	-0.682
Mof_H 	H 	0.3735	0.0883	0.6707	0.208
Mof_H 	H 	0.3678	0.0751	0.6982	0.197
Mof_H 	H 	0.3888	0.0978	0.6959	0.205
Mof_C 	C 	0.27992	0.07387	0.65879	0.013
Mof_H 	H 	0.2658	0.0643	0.6518	0.005
Mof_O 	O 	0.76428	0.52996	0.68384	-0.527
Mof_O 	O 	0.7976	0.5284	0.7099	-0.656
Mof_C 	C 	0.78725	0.53626	0.69247	0.583
Mof_C 	C 	0.79329	0.56396	0.68343	-0.195
Mof_C 	C 	0.81533	0.57155	0.68921	0.084
Mof_H 	H 	0.8278	0.5598	0.6961	-0.028
Mof_C 	C 	0.82251	0.60095	0.68508	-0.129
Mof_C 	C 	0.84996	0.61239	0.69486	0.425
Mof_C 	C 	0.8503	0.63205	0.67179	-0.195
Mof_C 	C 	0.83157	0.63296	0.65143	0.095
Mof_C 	C 	0.81481	0.60943	0.66146	0.011
Mof_C 	C 	0.78944	0.60104	0.64396	-0.115
Mof_H 	H 	0.7821	0.6095	0.6293	0.034
Mof_C 	C 	0.84134	0.62268	0.71811	-0.872
Mof_H 	H 	0.8417	0.6092	0.7315	0.268
Mof_H 	H 	0.8236	0.6291	0.716	0.276
Mof_H 	H 	0.8527	0.6371	0.7233	0.263
Mof_C 	C 	0.87215	0.59136	0.68938	-0.683
Mof_H 	H 	0.8735	0.5883	0.6707	0.207
Mof_H 	H 	0.8678	0.5751	0.6982	0.196
Mof_H 	H 	0.8888	0.5978	0.6959	0.204
Mof_C 	C 	0.77992	0.57387	0.65879	0.013
Mof_H 	H 	0.7658	0.5643	0.6518	0.004
Mof_O 	O 	0.76428	0.02996	0.18384	-0.528
Mof_O 	O 	0.7976	0.0284	0.2099	-0.656
Mof_C 	C 	0.78725	0.03626	0.19247	0.582
Mof_C 	C 	0.79329	0.06396	0.18343	-0.196
Mof_C 	C 	0.81533	0.07155	0.18921	0.083
Mof_H 	H 	0.8278	0.0598	0.1961	-0.028
Mof_C 	C 	0.82251	0.10095	0.18508	-0.129
Mof_C 	C 	0.84996	0.11239	0.19486	0.425
Mof_C 	C 	0.8503	0.13205	0.17179	-0.195
Mof_C 	C 	0.83157	0.13296	0.15143	0.095
Mof_C 	C 	0.81481	0.10943	0.16146	0.011
Mof_C 	C 	0.78944	0.10104	0.14396	-0.115
Mof_H 	H 	0.7821	0.1095	0.1293	0.034
Mof_C 	C 	0.84134	0.12268	0.21811	-0.872
Mof_H 	H 	0.8417	0.1092	0.2315	0.268
Mof_H 	H 	0.8236	0.1291	0.216	0.276
Mof_H 	H 	0.8527	0.1371	0.2233	0.263
Mof_C 	C 	0.87215	0.09136	0.18938	-0.683
Mof_H 	H 	0.8735	0.0883	0.1707	0.207
Mof_H 	H 	0.8678	0.0751	0.1982	0.196
Mof_H 	H 	0.8888	0.0978	0.1959	0.204
Mof_C 	C 	0.77992	0.07387	0.15879	0.012
Mof_H 	H 	0.7658	0.0643	0.1518	0.004
Mof_O 	O 	0.73572	0.47004	0.18384	-0.528
Mof_O 	O 	0.7024	0.4716	0.2099	-0.657
Mof_C 	C 	0.71275	0.46374	0.19247	0.582
Mof_C 	C 	0.70671	0.43604	0.18343	-0.196
Mof_C 	C 	0.68467	0.42845	0.18921	0.083
Mof_H 	H 	0.6722	0.4402	0.1961	-0.028
Mof_C 	C 	0.67749	0.39905	0.18508	-0.129
Mof_C 	C 	0.65004	0.38761	0.19486	0.425
Mof_C 	C 	0.6497	0.36795	0.17179	-0.195
Mof_C 	C 	0.66843	0.36704	0.15143	0.095
Mof_C 	C 	0.68519	0.39057	0.16146	0.011
Mof_C 	C 	0.71056	0.39896	0.14396	-0.115
Mof_H 	H 	0.7179	0.3905	0.1293	0.034
Mof_C 	C 	0.65866	0.37732	0.21811	-0.872
Mof_H 	H 	0.6583	0.3908	0.2315	0.268
Mof_H 	H 	0.6764	0.3709	0.216	0.276
Mof_H 	H 	0.6473	0.3629	0.2233	0.263
Mof_C 	C 	0.62785	0.40864	0.18938	-0.683
Mof_H 	H 	0.6265	0.4117	0.1707	0.207
Mof_H 	H 	0.6322	0.4249	0.1982	0.196
Mof_H 	H 	0.6112	0.4022	0.1959	0.204
Mof_C 	C 	0.72008	0.42613	0.15879	0.013
Mof_H 	H 	0.7342	0.4357	0.1518	0.004
Mof_O 	O 	0.73572	0.97004	0.68384	-0.527
Mof_O 	O 	0.7024	0.9716	0.7099	-0.655
Mof_C 	C 	0.71275	0.96374	0.69247	0.582
Mof_C 	C 	0.70671	0.93604	0.68343	-0.196
Mof_C 	C 	0.68467	0.92845	0.68921	0.083
Mof_H 	H 	0.6722	0.9402	0.6961	-0.028
Mof_C 	C 	0.67749	0.89905	0.68508	-0.129
Mof_C 	C 	0.65004	0.88761	0.69486	0.425
Mof_C 	C 	0.6497	0.86795	0.67179	-0.195
Mof_C 	C 	0.66843	0.86704	0.65143	0.095
Mof_C 	C 	0.68519	0.89057	0.66146	0.011
Mof_C 	C 	0.71056	0.89896	0.64396	-0.115
Mof_H 	H 	0.7179	0.8905	0.6293	0.034
Mof_C 	C 	0.65866	0.87732	0.71811	-0.872
Mof_H 	H 	0.6583	0.8908	0.7315	0.268
Mof_H 	H 	0.6764	0.8709	0.716	0.276
Mof_H 	H 	0.6473	0.8629	0.7233	0.263
Mof_C 	C 	0.62785	0.90864	0.68938	-0.683
Mof_H 	H 	0.6265	0.9117	0.6707	0.207
Mof_H 	H 	0.6322	0.9249	0.6982	0.196
Mof_H 	H 	0.6112	0.9022	0.6959	0.204
Mof_C 	C 	0.72008	0.92613	0.65879	0.012
Mof_H 	H 	0.7342	0.9357	0.6518	0.004
Mof_O 	O 	0.23572	0.47004	0.68384	-0.528
Mof_O 	O 	0.2024	0.4716	0.7099	-0.657
Mof_C 	C 	0.21275	0.46374	0.69247	0.582
Mof_C 	C 	0.20671	0.43604	0.68343	-0.196
Mof_C 	C 	0.18467	0.42845	0.68921	0.083
Mof_H 	H 	0.1722	0.4402	0.6961	-0.028
Mof_C 	C 	0.17749	0.39905	0.68508	-0.129
Mof_C 	C 	0.15004	0.38761	0.69486	0.425
Mof_C 	C 	0.1497	0.36795	0.67179	-0.195
Mof_C 	C 	0.16843	0.36704	0.65143	0.095
Mof_C 	C 	0.18519	0.39057	0.66146	0.011
Mof_C 	C 	0.21056	0.39896	0.64396	-0.115
Mof_H 	H 	0.2179	0.3905	0.6293	0.034
Mof_C 	C 	0.15866	0.37732	0.71811	-0.872
Mof_H 	H 	0.1583	0.3908	0.7315	0.268
Mof_H 	H 	0.1764	0.3709	0.716	0.276
Mof_H 	H 	0.1473	0.3629	0.7233	0.263
Mof_C 	C 	0.12785	0.40864	0.68938	-0.683
Mof_H 	H 	0.1265	0.4117	0.6707	0.207
Mof_H 	H 	0.1322	0.4249	0.6982	0.196
Mof_H 	H 	0.1112	0.4022	0.6959	0.204
Mof_C 	C 	0.22008	0.42613	0.65879	0.013
Mof_H 	H 	0.2342	0.4357	0.6518	0.004
Mof_O 	O 	0.23572	0.97004	0.18384	-0.527
Mof_O 	O 	0.2024	0.9716	0.2099	-0.655
Mof_C 	C 	0.21275	0.96374	0.19247	0.582
Mof_C 	C 	0.20671	0.93604	0.18343	-0.196
Mof_C 	C 	0.18467	0.92845	0.18921	0.083
Mof_H 	H 	0.1722	0.9402	0.1961	-0.028
Mof_C 	C 	0.17749	0.89905	0.18508	-0.129
Mof_C 	C 	0.15004	0.88761	0.19486	0.425
Mof_C 	C 	0.1497	0.86795	0.17179	-0.195
Mof_C 	C 	0.16843	0.86704	0.15143	0.095
Mof_C 	C 	0.18519	0.89057	0.16146	0.011
Mof_C 	C 	0.21056	0.89896	0.14396	-0.115
Mof_H 	H 	0.2179	0.8905	0.1293	0.034
Mof_C 	C 	0.15866	0.87732	0.21811	-0.872
Mof_H 	H 	0.1583	0.8908	0.2315	0.268
Mof_H 	H 	0.1764	0.8709	0.216	0.276
Mof_H 	H 	0.1473	0.8629	0.2233	0.263
Mof_C 	C 	0.12785	0.90864	0.18938	-0.683
Mof_H 	H 	0.1265	0.9117	0.1707	0.207
Mof_H 	H 	0.1322	0.9249	0.1982	0.196
Mof_H 	H 	0.1112	0.9022	0.1959	0.204
Mof_C 	C 	0.22008	0.92613	0.15879	0.012
Mof_H 	H 	0.2342	0.9357	0.1518	0.004
Mof_O 	O 	0.73572	0.52996	0.81616	-0.528
Mof_O 	O 	0.7024	0.5284	0.7901	-0.657
Mof_C 	C 	0.71275	0.53626	0.80753	0.582
Mof_C 	C 	0.70671	0.56396	0.81657	-0.196
Mof_C 	C 	0.68467	0.57155	0.81079	0.083
Mof_H 	H 	0.6722	0.5598	0.8039	-0.028
Mof_C 	C 	0.67749	0.60095	0.81492	-0.129
Mof_C 	C 	0.65004	0.61239	0.80514	0.425
Mof_C 	C 	0.6497	0.63205	0.82821	-0.195
Mof_C 	C 	0.66843	0.63296	0.84857	0.095
Mof_C 	C 	0.68519	0.60943	0.83854	0.011
Mof_C 	C 	0.71056	0.60104	0.85604	-0.115
Mof_H 	H 	0.7179	0.6095	0.8707	0.034
Mof_C 	C 	0.65866	0.62268	0.78189	-0.872
Mof_H 	H 	0.6583	0.6092	0.7685	0.268
Mof_H 	H 	0.6764	0.6291	0.784	0.276
Mof_H 	H 	0.6473	0.6371	0.7767	0.263
Mof_C 	C 	0.62785	0.59136	0.81062	-0.683
Mof_H 	H 	0.6265	0.5883	0.8293	0.207
Mof_H 	H 	0.6322	0.5751	0.8018	0.196
Mof_H 	H 	0.6112	0.5978	0.8041	0.204
Mof_C 	C 	0.72008	0.57387	0.84121	0.013
Mof_H 	H 	0.7342	0.5643	0.8482	0.004
Mof_O 	O 	0.73572	0.02996	0.31616	-0.528
Mof_O 	O 	0.7024	0.0284	0.2901	-0.656
Mof_C 	C 	0.71275	0.03626	0.30753	0.582
Mof_C 	C 	0.70671	0.06396	0.31657	-0.196
Mof_C 	C 	0.68467	0.07155	0.31079	0.083
Mof_H 	H 	0.6722	0.0598	0.3039	-0.028
Mof_C 	C 	0.67749	0.10095	0.31492	-0.129
Mof_C 	C 	0.65004	0.11239	0.30514	0.425
Mof_C 	C 	0.6497	0.13205	0.32821	-0.195
Mof_C 	C 	0.66843	0.13296	0.34857	0.095
Mof_C 	C 	0.68519	0.10943	0.33854	0.011
Mof_C 	C 	0.71056	0.10104	0.35604	-0.115
Mof_H 	H 	0.7179	0.1095	0.3707	0.034
Mof_C 	C 	0.65866	0.12268	0.28189	-0.872
Mof_H 	H 	0.6583	0.1092	0.2685	0.268
Mof_H 	H 	0.6764	0.1291	0.284	0.276
Mof_H 	H 	0.6473	0.1371	0.2767	0.263
Mof_C 	C 	0.62785	0.09136	0.31062	-0.683
Mof_H 	H 	0.6265	0.0883	0.3293	0.207
Mof_H 	H 	0.6322	0.0751	0.3018	0.196
Mof_H 	H 	0.6112	0.0978	0.3041	0.204
Mof_C 	C 	0.72008	0.07387	0.34121	0.012
Mof_H 	H 	0.7342	0.0643	0.3482	0.004
Mof_O 	O 	0.23572	0.52996	0.31616	-0.528
Mof_O 	O 	0.2024	0.5284	0.2901	-0.657
Mof_C 	C 	0.21275	0.53626	0.30753	0.582
Mof_C 	C 	0.20671	0.56396	0.31657	-0.196
Mof_C 	C 	0.18467	0.57155	0.31079	0.083
Mof_H 	H 	0.1722	0.5598	0.3039	-0.028
Mof_C 	C 	0.17749	0.60095	0.31492	-0.129
Mof_C 	C 	0.15004	0.61239	0.30514	0.425
Mof_C 	C 	0.1497	0.63205	0.32821	-0.195
Mof_C 	C 	0.16843	0.63296	0.34857	0.095
Mof_C 	C 	0.18519	0.60943	0.33854	0.011
Mof_C 	C 	0.21056	0.60104	0.35604	-0.115
Mof_H 	H 	0.2179	0.6095	0.3707	0.034
Mof_C 	C 	0.15866	0.62268	0.28189	-0.872
Mof_H 	H 	0.1583	0.6092	0.2685	0.268
Mof_H 	H 	0.1764	0.6291	0.284	0.276
Mof_H 	H 	0.1473	0.6371	0.2767	0.263
Mof_C 	C 	0.12785	0.59136	0.31062	-0.683
Mof_H 	H 	0.1265	0.5883	0.3293	0.207
Mof_H 	H 	0.1322	0.5751	0.3018	0.196
Mof_H 	H 	0.1112	0.5978	0.3041	0.204
Mof_C 	C 	0.22008	0.57387	0.34121	0.013
Mof_H 	H 	0.2342	0.5643	0.3482	0.004
Mof_O 	O 	0.23572	0.02996	0.81616	-0.528
Mof_O 	O 	0.2024	0.0284	0.7901	-0.656
Mof_C 	C 	0.21275	0.03626	0.80753	0.582
Mof_C 	C 	0.20671	0.06396	0.81657	-0.196
Mof_C 	C 	0.18467	0.07155	0.81079	0.083
Mof_H 	H 	0.1722	0.0598	0.8039	-0.028
Mof_C 	C 	0.17749	0.10095	0.81492	-0.129
Mof_C 	C 	0.15004	0.11239	0.80514	0.424
Mof_C 	C 	0.1497	0.13205	0.82821	-0.195
Mof_C 	C 	0.16843	0.13296	0.84857	0.095
Mof_C 	C 	0.18519	0.10943	0.83854	0.011
Mof_C 	C 	0.21056	0.10104	0.85604	-0.115
Mof_H 	H 	0.2179	0.1095	0.8707	0.034
Mof_C 	C 	0.15866	0.12268	0.78189	-0.872
Mof_H 	H 	0.1583	0.1092	0.7685	0.268
Mof_H 	H 	0.1764	0.1291	0.784	0.276
Mof_H 	H 	0.1473	0.1371	0.7767	0.263
Mof_C 	C 	0.12785	0.09136	0.81062	-0.683
Mof_H 	H 	0.1265	0.0883	0.8293	0.207
Mof_H 	H 	0.1322	0.0751	0.8018	0.196
Mof_H 	H 	0.1112	0.0978	0.8041	0.204
Mof_C 	C 	0.22008	0.07387	0.84121	0.012
Mof_H 	H 	0.2342	0.0643	0.8482	0.004
Mof_O 	O 	0.26428	0.47004	0.81616	-0.528
Mof_O 	O 	0.2976	0.4716	0.7901	-0.657
Mof_C 	C 	0.28725	0.46374	0.80753	0.582
Mof_C 	C 	0.29329	0.43604	0.81657	-0.196
Mof_C 	C 	0.31533	0.42845	0.81079	0.083
Mof_H 	H 	0.3278	0.4402	0.8039	-0.028
Mof_C 	C 	0.32251	0.39905	0.81492	-0.129
Mof_C 	C 	0.34996	0.38761	0.80514	0.425
Mof_C 	C 	0.3503	0.36795	0.82821	-0.195
Mof_C 	C 	0.33157	0.36704	0.84857	0.095
Mof_C 	C 	0.31481	0.39057	0.83854	0.011
Mof_C 	C 	0.28944	0.39896	0.85604	-0.115
Mof_H 	H 	0.2821	0.3905	0.8707	0.034
Mof_C 	C 	0.34134	0.37732	0.78189	-0.872
Mof_H 	H 	0.3417	0.3908	0.7685	0.268
Mof_H 	H 	0.3236	0.3709	0.784	0.276
Mof_H 	H 	0.3527	0.3629	0.7767	0.263
Mof_C 	C 	0.37215	0.40864	0.81062	-0.683
Mof_H 	H 	0.3735	0.4117	0.8293	0.207
Mof_H 	H 	0.3678	0.4249	0.8018	0.196
Mof_H 	H 	0.3888	0.4022	0.8041	0.204
Mof_C 	C 	0.27992	0.42613	0.84121	0.013
Mof_H 	H 	0.2658	0.4357	0.8482	0.004
Mof_O 	O 	0.26428	0.97004	0.31616	-0.527
Mof_O 	O 	0.2976	0.9716	0.2901	-0.655
Mof_C 	C 	0.28725	0.96374	0.30753	0.582
Mof_C 	C 	0.29329	0.93604	0.31657	-0.196
Mof_C 	C 	0.31533	0.92845	0.31079	0.083
Mof_H 	H 	0.3278	0.9402	0.3039	-0.028
Mof_C 	C 	0.32251	0.89905	0.31492	-0.129
Mof_C 	C 	0.34996	0.88761	0.30514	0.425
Mof_C 	C 	0.3503	0.86795	0.32821	-0.195
Mof_C 	C 	0.33157	0.86704	0.34857	0.095
Mof_C 	C 	0.31481	0.89057	0.33854	0.011
Mof_C 	C 	0.28944	0.89896	0.35604	-0.115
Mof_H 	H 	0.2821	0.8905	0.3707	0.034
Mof_C 	C 	0.34134	0.87732	0.28189	-0.872
Mof_H 	H 	0.3417	0.8908	0.2685	0.268
Mof_H 	H 	0.3236	0.8709	0.284	0.276
Mof_H 	H 	0.3527	0.8629	0.2767	0.263
Mof_C 	C 	0.37215	0.90864	0.31062	-0.683
Mof_H 	H 	0.3735	0.9117	0.3293	0.207
Mof_H 	H 	0.3678	0.9249	0.3018	0.196
Mof_H 	H 	0.3888	0.9022	0.3041	0.204
Mof_C 	C 	0.27992	0.92613	0.34121	0.012
Mof_H 	H 	0.2658	0.9357	0.3482	0.004
Mof_O 	O 	0.76428	0.47004	0.31616	-0.528
Mof_O 	O 	0.7976	0.4716	0.2901	-0.657
Mof_C 	C 	0.78725	0.46374	0.30753	0.582
Mof_C 	C 	0.79329	0.43604	0.31657	-0.196
Mof_C 	C 	0.81533	0.42845	0.31079	0.083
Mof_H 	H 	0.8278	0.4402	0.3039	-0.028
Mof_C 	C 	0.82251	0.39905	0.31492	-0.129
Mof_C 	C 	0.84996	0.38761	0.30514	0.425
Mof_C 	C 	0.8503	0.36795	0.32821	-0.195
Mof_C 	C 	0.83157	0.36704	0.34857	0.095
Mof_C 	C 	0.81481	0.39057	0.33854	0.011
Mof_C 	C 	0.78944	0.39896	0.35604	-0.115
Mof_H 	H 	0.7821	0.3905	0.3707	0.034
Mof_C 	C 	0.84134	0.37732	0.28189	-0.872
Mof_H 	H 	0.8417	0.3908	0.2685	0.268
Mof_H 	H 	0.8236	0.3709	0.284	0.276
Mof_H 	H 	0.8527	0.3629	0.2767	0.263
Mof_C 	C 	0.87215	0.40864	0.31062	-0.683
Mof_H 	H 	0.8735	0.4117	0.3293	0.207
Mof_H 	H 	0.8678	0.4249	0.3018	0.196
Mof_H 	H 	0.8888	0.4022	0.3041	0.204
Mof_C 	C 	0.77992	0.42613	0.34121	0.013
Mof_H 	H 	0.7658	0.4357	0.3482	0.004
Mof_O 	O 	0.76428	0.97004	0.81616	-0.527
Mof_O 	O 	0.7976	0.9716	0.7901	-0.655
Mof_C 	C 	0.78725	0.96374	0.80753	0.582
Mof_C 	C 	0.79329	0.93604	0.81657	-0.196
Mof_C 	C 	0.81533	0.92845	0.81079	0.083
Mof_H 	H 	0.8278	0.9402	0.8039	-0.028
Mof_C 	C 	0.82251	0.89905	0.81492	-0.129
Mof_C 	C 	0.84996	0.88761	0.80514	0.425
Mof_C 	C 	0.8503	0.86795	0.82821	-0.195
Mof_C 	C 	0.83157	0.86704	0.84857	0.096
Mof_C 	C 	0.81481	0.89057	0.83854	0.011
Mof_C 	C 	0.78944	0.89896	0.85604	-0.115
Mof_H 	H 	0.7821	0.8905	0.8707	0.034
Mof_C 	C 	0.84134	0.87732	0.78189	-0.872
Mof_H 	H 	0.8417	0.8908	0.7685	0.268
Mof_H 	H 	0.8236	0.8709	0.784	0.276
Mof_H 	H 	0.8527	0.8629	0.7767	0.263
Mof_C 	C 	0.87215	0.90864	0.81062	-0.684
Mof_H 	H 	0.8735	0.9117	0.8293	0.208
Mof_H 	H 	0.8678	0.9249	0.8018	0.196
Mof_H 	H 	0.8888	0.9022	0.8041	0.205
Mof_C 	C 	0.77992	0.92613	0.84121	0.012
Mof_H 	H 	0.7658	0.9357	0.8482	0.004
Mof_O 	O 	0.18384	0.26428	0.52996	-0.528
Mof_O 	O 	0.2099	0.2976	0.5284	-0.657
Mof_C 	C 	0.19247	0.28725	0.53626	0.582
Mof_C 	C 	0.18343	0.29329	0.56396	-0.196
Mof_C 	C 	0.18921	0.31533	0.57155	0.083
Mof_H 	H 	0.1961	0.3278	0.5598	-0.028
Mof_C 	C 	0.18508	0.32251	0.60095	-0.129
Mof_C 	C 	0.19486	0.34996	0.61239	0.425
Mof_C 	C 	0.17179	0.3503	0.63205	-0.195
Mof_C 	C 	0.15143	0.33157	0.63296	0.095
Mof_C 	C 	0.16146	0.31481	0.60943	0.011
Mof_C 	C 	0.14396	0.28944	0.60104	-0.115
Mof_H 	H 	0.1293	0.2821	0.6095	0.034
Mof_C 	C 	0.21811	0.34134	0.62268	-0.872
Mof_H 	H 	0.2315	0.3417	0.6092	0.268
Mof_H 	H 	0.216	0.3236	0.6291	0.276
Mof_H 	H 	0.2233	0.3527	0.6371	0.263
Mof_C 	C 	0.18938	0.37215	0.59136	-0.683
Mof_H 	H 	0.1707	0.3735	0.5883	0.207
Mof_H 	H 	0.1982	0.3678	0.5751	0.196
Mof_H 	H 	0.1959	0.3888	0.5978	0.204
Mof_C 	C 	0.15879	0.27992	0.57387	0.013
Mof_H 	H 	0.1518	0.2658	0.5643	0.004
Mof_O 	O 	0.18384	0.76428	0.02996	-0.528
Mof_O 	O 	0.2099	0.7976	0.0284	-0.656
Mof_C 	C 	0.19247	0.78725	0.03626	0.582
Mof_C 	C 	0.18343	0.79329	0.06396	-0.196
Mof_C 	C 	0.18921	0.81533	0.07155	0.083
Mof_H 	H 	0.1961	0.8278	0.0598	-0.028
Mof_C 	C 	0.18508	0.82251	0.10095	-0.129
Mof_C 	C 	0.19486	0.84996	0.11239	0.425
Mof_C 	C 	0.17179	0.8503	0.13205	-0.195
Mof_C 	C 	0.15143	0.83157	0.13296	0.095
Mof_C 	C 	0.16146	0.81481	0.10943	0.011
Mof_C 	C 	0.14396	0.78944	0.10104	-0.115
Mof_H 	H 	0.1293	0.7821	0.1095	0.034
Mof_C 	C 	0.21811	0.84134	0.12268	-0.872
Mof_H 	H 	0.2315	0.8417	0.1092	0.268
Mof_H 	H 	0.216	0.8236	0.1291	0.276
Mof_H 	H 	0.2233	0.8527	0.1371	0.263
Mof_C 	C 	0.18938	0.87215	0.09136	-0.683
Mof_H 	H 	0.1707	0.8735	0.0883	0.207
Mof_H 	H 	0.1982	0.8678	0.0751	0.196
Mof_H 	H 	0.1959	0.8888	0.0978	0.204
Mof_C 	C 	0.15879	0.77992	0.07387	0.012
Mof_H 	H 	0.1518	0.7658	0.0643	0.004
Mof_O 	O 	0.68384	0.26428	0.02996	-0.528
Mof_O 	O 	0.7099	0.2976	0.0284	-0.656
Mof_C 	C 	0.69247	0.28725	0.03626	0.582
Mof_C 	C 	0.68343	0.29329	0.06396	-0.196
Mof_C 	C 	0.68921	0.31533	0.07155	0.083
Mof_H 	H 	0.6961	0.3278	0.0598	-0.028
Mof_C 	C 	0.68508	0.32251	0.10095	-0.129
Mof_C 	C 	0.69486	0.34996	0.11239	0.424
Mof_C 	C 	0.67179	0.3503	0.13205	-0.195
Mof_C 	C 	0.65143	0.33157	0.13296	0.095
Mof_C 	C 	0.66146	0.31481	0.10943	0.011
Mof_C 	C 	0.64396	0.28944	0.10104	-0.115
Mof_H 	H 	0.6293	0.2821	0.1095	0.034
Mof_C 	C 	0.71811	0.34134	0.12268	-0.872
Mof_H 	H 	0.7315	0.3417	0.1092	0.268
Mof_H 	H 	0.716	0.3236	0.1291	0.276
Mof_H 	H 	0.7233	0.3527	0.1371	0.263
Mof_C 	C 	0.68938	0.37215	0.09136	-0.683
Mof_H 	H 	0.6707	0.3735	0.0883	0.207
Mof_H 	H 	0.6982	0.3678	0.0751	0.196
Mof_H 	H 	0.6959	0.3888	0.0978	0.204
Mof_C 	C 	0.65879	0.27992	0.07387	0.012
Mof_H 	H 	0.6518	0.2658	0.0643	0.004
Mof_O 	O 	0.68384	0.76428	0.52996	-0.528
Mof_O 	O 	0.7099	0.7976	0.5284	-0.657
Mof_C 	C 	0.69247	0.78725	0.53626	0.582
Mof_C 	C 	0.68343	0.79329	0.56396	-0.196
Mof_C 	C 	0.68921	0.81533	0.57155	0.083
Mof_H 	H 	0.6961	0.8278	0.5598	-0.028
Mof_C 	C 	0.68508	0.82251	0.60095	-0.129
Mof_C 	C 	0.69486	0.84996	0.61239	0.425
Mof_C 	C 	0.67179	0.8503	0.63205	-0.195
Mof_C 	C 	0.65143	0.83157	0.63296	0.095
Mof_C 	C 	0.66146	0.81481	0.60943	0.011
Mof_C 	C 	0.64396	0.78944	0.60104	-0.115
Mof_H 	H 	0.6293	0.7821	0.6095	0.034
Mof_C 	C 	0.71811	0.84134	0.62268	-0.872
Mof_H 	H 	0.7315	0.8417	0.6092	0.268
Mof_H 	H 	0.716	0.8236	0.6291	0.276
Mof_H 	H 	0.7233	0.8527	0.6371	0.263
Mof_C 	C 	0.68938	0.87215	0.59136	-0.683
Mof_H 	H 	0.6707	0.8735	0.5883	0.207
Mof_H 	H 	0.6982	0.8678	0.5751	0.196
Mof_H 	H 	0.6959	0.8888	0.5978	0.204
Mof_C 	C 	0.65879	0.77992	0.57387	0.013
Mof_H 	H 	0.6518	0.7658	0.5643	0.004
Mof_O 	O 	0.18384	0.73572	0.47004	-0.528
Mof_O 	O 	0.2099	0.7024	0.4716	-0.657
Mof_C 	C 	0.19247	0.71275	0.46374	0.582
Mof_C 	C 	0.18343	0.70671	0.43604	-0.196
Mof_C 	C 	0.18921	0.68467	0.42845	0.083
Mof_H 	H 	0.1961	0.6722	0.4402	-0.028
Mof_C 	C 	0.18508	0.67749	0.39905	-0.129
Mof_C 	C 	0.19486	0.65004	0.38761	0.425
Mof_C 	C 	0.17179	0.6497	0.36795	-0.195
Mof_C 	C 	0.15143	0.66843	0.36704	0.095
Mof_C 	C 	0.16146	0.68519	0.39057	0.011
Mof_C 	C 	0.14396	0.71056	0.39896	-0.115
Mof_H 	H 	0.1293	0.7179	0.3905	0.034
Mof_C 	C 	0.21811	0.65866	0.37732	-0.872
Mof_H 	H 	0.2315	0.6583	0.3908	0.268
Mof_H 	H 	0.216	0.6764	0.3709	0.276
Mof_H 	H 	0.2233	0.6473	0.3629	0.263
Mof_C 	C 	0.18938	0.62785	0.40864	-0.683
Mof_H 	H 	0.1707	0.6265	0.4117	0.207
Mof_H 	H 	0.1982	0.6322	0.4249	0.196
Mof_H 	H 	0.1959	0.6112	0.4022	0.204
Mof_C 	C 	0.15879	0.72008	0.42613	0.013
Mof_H 	H 	0.1518	0.7342	0.4357	0.004
Mof_O 	O 	0.18384	0.23572	0.97004	-0.527
Mof_O 	O 	0.2099	0.2024	0.9716	-0.655
Mof_C 	C 	0.19247	0.21275	0.96374	0.582
Mof_C 	C 	0.18343	0.20671	0.93604	-0.196
Mof_C 	C 	0.18921	0.18467	0.92845	0.083
Mof_H 	H 	0.1961	0.1722	0.9402	-0.028
Mof_C 	C 	0.18508	0.17749	0.89905	-0.129
Mof_C 	C 	0.19486	0.15004	0.88761	0.425
Mof_C 	C 	0.17179	0.1497	0.86795	-0.195
Mof_C 	C 	0.15143	0.16843	0.86704	0.095
Mof_C 	C 	0.16146	0.18519	0.89057	0.011
Mof_C 	C 	0.14396	0.21056	0.89896	-0.115
Mof_H 	H 	0.1293	0.2179	0.8905	0.034
Mof_C 	C 	0.21811	0.15866	0.87732	-0.872
Mof_H 	H 	0.2315	0.1583	0.8908	0.268
Mof_H 	H 	0.216	0.1764	0.8709	0.276
Mof_H 	H 	0.2233	0.1473	0.8629	0.263
Mof_C 	C 	0.18938	0.12785	0.90864	-0.683
Mof_H 	H 	0.1707	0.1265	0.9117	0.207
Mof_H 	H 	0.1982	0.1322	0.9249	0.196
Mof_H 	H 	0.1959	0.1112	0.9022	0.204
Mof_C 	C 	0.15879	0.22008	0.92613	0.012
Mof_H 	H 	0.1518	0.2342	0.9357	0.004
Mof_O 	O 	0.68384	0.73572	0.97004	-0.527
Mof_O 	O 	0.7099	0.7024	0.9716	-0.655
Mof_C 	C 	0.69247	0.71275	0.96374	0.582
Mof_C 	C 	0.68343	0.70671	0.93604	-0.196
Mof_C 	C 	0.68921	0.68467	0.92845	0.083
Mof_H 	H 	0.6961	0.6722	0.9402	-0.028
Mof_C 	C 	0.68508	0.67749	0.89905	-0.129
Mof_C 	C 	0.69486	0.65004	0.88761	0.425
Mof_C 	C 	0.67179	0.6497	0.86795	-0.195
Mof_C 	C 	0.65143	0.66843	0.86704	0.095
Mof_C 	C 	0.66146	0.68519	0.89057	0.011
Mof_C 	C 	0.64396	0.71056	0.89896	-0.115
Mof_H 	H 	0.6293	0.7179	0.8905	0.034
Mof_C 	C 	0.71811	0.65866	0.87732	-0.872
Mof_H 	H 	0.7315	0.6583	0.8908	0.268
Mof_H 	H 	0.716	0.6764	0.8709	0.276
Mof_H 	H 	0.7233	0.6473	0.8629	0.263
Mof_C 	C 	0.68938	0.62785	0.90864	-0.683
Mof_H 	H 	0.6707	0.6265	0.9117	0.207
Mof_H 	H 	0.6982	0.6322	0.9249	0.196
Mof_H 	H 	0.6959	0.6112	0.9022	0.204
Mof_C 	C 	0.65879	0.72008	0.92613	0.012
Mof_H 	H 	0.6518	0.7342	0.9357	0.004
Mof_O 	O 	0.68384	0.23572	0.47004	-0.528
Mof_O 	O 	0.7099	0.2024	0.4716	-0.657
Mof_C 	C 	0.69247	0.21275	0.46374	0.582
Mof_C 	C 	0.68343	0.20671	0.43604	-0.196
Mof_C 	C 	0.68921	0.18467	0.42845	0.083
Mof_H 	H 	0.6961	0.1722	0.4402	-0.028
Mof_C 	C 	0.68508	0.17749	0.39905	-0.129
Mof_C 	C 	0.69486	0.15004	0.38761	0.425
Mof_C 	C 	0.67179	0.1497	0.36795	-0.195
Mof_C 	C 	0.65143	0.16843	0.36704	0.095
Mof_C 	C 	0.66146	0.18519	0.39057	0.011
Mof_C 	C 	0.64396	0.21056	0.39896	-0.115
Mof_H 	H 	0.6293	0.2179	0.3905	0.034
Mof_C 	C 	0.71811	0.15866	0.37732	-0.872
Mof_H 	H 	0.7315	0.1583	0.3908	0.268
Mof_H 	H 	0.716	0.1764	0.3709	0.276
Mof_H 	H 	0.7233	0.1473	0.3629	0.263
Mof_C 	C 	0.68938	0.12785	0.40864	-0.683
Mof_H 	H 	0.6707	0.1265	0.4117	0.207
Mof_H 	H 	0.6982	0.1322	0.4249	0.196
Mof_H 	H 	0.6959	0.1112	0.4022	0.204
Mof_C 	C 	0.65879	0.22008	0.42613	0.013
Mof_H 	H 	0.6518	0.2342	0.4357	0.004
Mof_O 	O 	0.81616	0.73572	0.52996	-0.528
Mof_O 	O 	0.7901	0.7024	0.5284	-0.657
Mof_C 	C 	0.80753	0.71275	0.53626	0.582
Mof_C 	C 	0.81657	0.70671	0.56396	-0.196
Mof_C 	C 	0.81079	0.68467	0.57155	0.083
Mof_H 	H 	0.8039	0.6722	0.5598	-0.028
Mof_C 	C 	0.81492	0.67749	0.60095	-0.129
Mof_C 	C 	0.80514	0.65004	0.61239	0.425
Mof_C 	C 	0.82821	0.6497	0.63205	-0.195
Mof_C 	C 	0.84857	0.66843	0.63296	0.095
Mof_C 	C 	0.83854	0.68519	0.60943	0.011
Mof_C 	C 	0.85604	0.71056	0.60104	-0.115
Mof_H 	H 	0.8707	0.7179	0.6095	0.034
Mof_C 	C 	0.78189	0.65866	0.62268	-0.872
Mof_H 	H 	0.7685	0.6583	0.6092	0.268
Mof_H 	H 	0.784	0.6764	0.6291	0.276
Mof_H 	H 	0.7767	0.6473	0.6371	0.263
Mof_C 	C 	0.81062	0.62785	0.59136	-0.683
Mof_H 	H 	0.8293	0.6265	0.5883	0.207
Mof_H 	H 	0.8018	0.6322	0.5751	0.196
Mof_H 	H 	0.8041	0.6112	0.5978	0.204
Mof_C 	C 	0.84121	0.72008	0.57387	0.013
Mof_H 	H 	0.8482	0.7342	0.5643	0.004
Mof_O 	O 	0.81616	0.23572	0.02996	-0.528
Mof_O 	O 	0.7901	0.2024	0.0284	-0.656
Mof_C 	C 	0.80753	0.21275	0.03626	0.582
Mof_C 	C 	0.81657	0.20671	0.06396	-0.196
Mof_C 	C 	0.81079	0.18467	0.07155	0.083
Mof_H 	H 	0.8039	0.1722	0.0598	-0.028
Mof_C 	C 	0.81492	0.17749	0.10095	-0.129
Mof_C 	C 	0.80514	0.15004	0.11239	0.424
Mof_C 	C 	0.82821	0.1497	0.13205	-0.195
Mof_C 	C 	0.84857	0.16843	0.13296	0.095
Mof_C 	C 	0.83854	0.18519	0.10943	0.011
Mof_C 	C 	0.85604	0.21056	0.10104	-0.115
Mof_H 	H 	0.8707	0.2179	0.1095	0.034
Mof_C 	C 	0.78189	0.15866	0.12268	-0.872
Mof_H 	H 	0.7685	0.1583	0.1092	0.268
Mof_H 	H 	0.784	0.1764	0.1291	0.276
Mof_H 	H 	0.7767	0.1473	0.1371	0.263
Mof_C 	C 	0.81062	0.12785	0.09136	-0.683
Mof_H 	H 	0.8293	0.1265	0.0883	0.207
Mof_H 	H 	0.8018	0.1322	0.0751	0.196
Mof_H 	H 	0.8041	0.1112	0.0978	0.204
Mof_C 	C 	0.84121	0.22008	0.07387	0.012
Mof_H 	H 	0.8482	0.2342	0.0643	0.004
Mof_O 	O 	0.31616	0.73572	0.02996	-0.528
Mof_O 	O 	0.2901	0.7024	0.0284	-0.656
Mof_C 	C 	0.30753	0.71275	0.03626	0.582
Mof_C 	C 	0.31657	0.70671	0.06396	-0.196
Mof_C 	C 	0.31079	0.68467	0.07155	0.083
Mof_H 	H 	0.3039	0.6722	0.0598	-0.028
Mof_C 	C 	0.31492	0.67749	0.10095	-0.129
Mof_C 	C 	0.30514	0.65004	0.11239	0.425
Mof_C 	C 	0.32821	0.6497	0.13205	-0.195
Mof_C 	C 	0.34857	0.66843	0.13296	0.095
Mof_C 	C 	0.33854	0.68519	0.10943	0.011
Mof_C 	C 	0.35604	0.71056	0.10104	-0.115
Mof_H 	H 	0.3707	0.7179	0.1095	0.034
Mof_C 	C 	0.28189	0.65866	0.12268	-0.872
Mof_H 	H 	0.2685	0.6583	0.1092	0.268
Mof_H 	H 	0.284	0.6764	0.1291	0.276
Mof_H 	H 	0.2767	0.6473	0.1371	0.263
Mof_C 	C 	0.31062	0.62785	0.09136	-0.683
Mof_H 	H 	0.3293	0.6265	0.0883	0.207
Mof_H 	H 	0.3018	0.6322	0.0751	0.196
Mof_H 	H 	0.3041	0.6112	0.0978	0.204
Mof_C 	C 	0.34121	0.72008	0.07387	0.012
Mof_H 	H 	0.3482	0.7342	0.0643	0.004
Mof_O 	O 	0.31616	0.23572	0.52996	-0.528
Mof_O 	O 	0.2901	0.2024	0.5284	-0.657
Mof_C 	C 	0.30753	0.21275	0.53626	0.582
Mof_C 	C 	0.31657	0.20671	0.56396	-0.196
Mof_C 	C 	0.31079	0.18467	0.57155	0.083
Mof_H 	H 	0.3039	0.1722	0.5598	-0.028
Mof_C 	C 	0.31492	0.17749	0.60095	-0.129
Mof_C 	C 	0.30514	0.15004	0.61239	0.425
Mof_C 	C 	0.32821	0.1497	0.63205	-0.195
Mof_C 	C 	0.34857	0.16843	0.63296	0.095
Mof_C 	C 	0.33854	0.18519	0.60943	0.011
Mof_C 	C 	0.35604	0.21056	0.60104	-0.115
Mof_H 	H 	0.3707	0.2179	0.6095	0.034
Mof_C 	C 	0.28189	0.15866	0.62268	-0.872
Mof_H 	H 	0.2685	0.1583	0.6092	0.268
Mof_H 	H 	0.284	0.1764	0.6291	0.276
Mof_H 	H 	0.2767	0.1473	0.6371	0.263
Mof_C 	C 	0.31062	0.12785	0.59136	-0.683
Mof_H 	H 	0.3293	0.1265	0.5883	0.207
Mof_H 	H 	0.3018	0.1322	0.5751	0.196
Mof_H 	H 	0.3041	0.1112	0.5978	0.204
Mof_C 	C 	0.34121	0.22008	0.57387	0.013
Mof_H 	H 	0.3482	0.2342	0.5643	0.004
Mof_O 	O 	0.81616	0.26428	0.47004	-0.528
Mof_O 	O 	0.7901	0.2976	0.4716	-0.657
Mof_C 	C 	0.80753	0.28725	0.46374	0.582
Mof_C 	C 	0.81657	0.29329	0.43604	-0.196
Mof_C 	C 	0.81079	0.31533	0.42845	0.083
Mof_H 	H 	0.8039	0.3278	0.4402	-0.028
Mof_C 	C 	0.81492	0.32251	0.39905	-0.129
Mof_C 	C 	0.80514	0.34996	0.38761	0.425
Mof_C 	C 	0.82821	0.3503	0.36795	-0.195
Mof_C 	C 	0.84857	0.33157	0.36704	0.095
Mof_C 	C 	0.83854	0.31481	0.39057	0.011
Mof_C 	C 	0.85604	0.28944	0.39896	-0.115
Mof_H 	H 	0.8707	0.2821	0.3905	0.034
Mof_C 	C 	0.78189	0.34134	0.37732	-0.872
Mof_H 	H 	0.7685	0.3417	0.3908	0.268
Mof_H 	H 	0.784	0.3236	0.3709	0.276
Mof_H 	H 	0.7767	0.3527	0.3629	0.263
Mof_C 	C 	0.81062	0.37215	0.40864	-0.683
Mof_H 	H 	0.8293	0.3735	0.4117	0.207
Mof_H 	H 	0.8018	0.3678	0.4249	0.196
Mof_H 	H 	0.8041	0.3888	0.4022	0.204
Mof_C 	C 	0.84121	0.27992	0.42613	0.013
Mof_H 	H 	0.8482	0.2658	0.4357	0.004
Mof_O 	O 	0.81616	0.76428	0.97004	-0.527
Mof_O 	O 	0.7901	0.7976	0.9716	-0.655
Mof_C 	C 	0.80753	0.78725	0.96374	0.582
Mof_C 	C 	0.81657	0.79329	0.93604	-0.196
Mof_C 	C 	0.81079	0.81533	0.92845	0.083
Mof_H 	H 	0.8039	0.8278	0.9402	-0.028
Mof_C 	C 	0.81492	0.82251	0.89905	-0.129
Mof_C 	C 	0.80514	0.84996	0.88761	0.425
Mof_C 	C 	0.82821	0.8503	0.86795	-0.195
Mof_C 	C 	0.84857	0.83157	0.86704	0.096
Mof_C 	C 	0.83854	0.81481	0.89057	0.011
Mof_C 	C 	0.85604	0.78944	0.89896	-0.115
Mof_H 	H 	0.8707	0.7821	0.8905	0.034
Mof_C 	C 	0.78189	0.84134	0.87732	-0.872
Mof_H 	H 	0.7685	0.8417	0.8908	0.268
Mof_H 	H 	0.784	0.8236	0.8709	0.276
Mof_H 	H 	0.7767	0.8527	0.8629	0.263
Mof_C 	C 	0.81062	0.87215	0.90864	-0.684
Mof_H 	H 	0.8293	0.8735	0.9117	0.208
Mof_H 	H 	0.8018	0.8678	0.9249	0.196
Mof_H 	H 	0.8041	0.8888	0.9022	0.205
Mof_C 	C 	0.84121	0.77992	0.92613	0.012
Mof_H 	H 	0.8482	0.7658	0.9357	0.004
Mof_O 	O 	0.31616	0.26428	0.97004	-0.527
Mof_O 	O 	0.2901	0.2976	0.9716	-0.655
Mof_C 	C 	0.30753	0.28725	0.96374	0.582
Mof_C 	C 	0.31657	0.29329	0.93604	-0.196
Mof_C 	C 	0.31079	0.31533	0.92845	0.083
Mof_H 	H 	0.3039	0.3278	0.9402	-0.028
Mof_C 	C 	0.31492	0.32251	0.89905	-0.129
Mof_C 	C 	0.30514	0.34996	0.88761	0.425
Mof_C 	C 	0.32821	0.3503	0.86795	-0.195
Mof_C 	C 	0.34857	0.33157	0.86704	0.095
Mof_C 	C 	0.33854	0.31481	0.89057	0.011
Mof_C 	C 	0.35604	0.28944	0.89896	-0.115
Mof_H 	H 	0.3707	0.2821	0.8905	0.034
Mof_C 	C 	0.28189	0.34134	0.87732	-0.872
Mof_H 	H 	0.2685	0.3417	0.8908	0.268
Mof_H 	H 	0.284	0.3236	0.8709	0.276
Mof_H 	H 	0.2767	0.3527	0.8629	0.263
Mof_C 	C 	0.31062	0.37215	0.90864	-0.683
Mof_H 	H 	0.3293	0.3735	0.9117	0.207
Mof_H 	H 	0.3018	0.3678	0.9249	0.196
Mof_H 	H 	0.3041	0.3888	0.9022	0.204
Mof_C 	C 	0.34121	0.27992	0.92613	0.012
Mof_H 	H 	0.3482	0.2658	0.9357	0.004
Mof_O 	O 	0.31616	0.76428	0.47004	-0.528
Mof_O 	O 	0.2901	0.7976	0.4716	-0.657
Mof_C 	C 	0.30753	0.78725	0.46374	0.582
Mof_C 	C 	0.31657	0.79329	0.43604	-0.196
Mof_C 	C 	0.31079	0.81533	0.42845	0.083
Mof_H 	H 	0.3039	0.8278	0.4402	-0.028
Mof_C 	C 	0.31492	0.82251	0.39905	-0.129
Mof_C 	C 	0.30514	0.84996	0.38761	0.425
Mof_C 	C 	0.32821	0.8503	0.36795	-0.195
Mof_C 	C 	0.34857	0.83157	0.36704	0.095
Mof_C 	C 	0.33854	0.81481	0.39057	0.011
Mof_C 	C 	0.35604	0.78944	0.39896	-0.115
Mof_H 	H 	0.3707	0.7821	0.3905	0.034
Mof_C 	C 	0.28189	0.84134	0.37732	-0.872
Mof_H 	H 	0.2685	0.8417	0.3908	0.268
Mof_H 	H 	0.284	0.8236	0.3709	0.276
Mof_H 	H 	0.2767	0.8527	0.3629	0.263
Mof_C 	C 	0.31062	0.87215	0.40864	-0.683
Mof_H 	H 	0.3293	0.8735	0.4117	0.207
Mof_H 	H 	0.3018	0.8678	0.4249	0.196
Mof_H 	H 	0.3041	0.8888	0.4022	0.204
Mof_C 	C 	0.34121	0.77992	0.42613	0.013
Mof_H 	H 	0.3482	0.7658	0.4357	0.004
Mof_O 	O 	0.52996	0.18384	0.26428	-0.528
Mof_O 	O 	0.5284	0.2099	0.2976	-0.657
Mof_C 	C 	0.53626	0.19247	0.28725	0.582
Mof_C 	C 	0.56396	0.18343	0.29329	-0.196
Mof_C 	C 	0.57155	0.18921	0.31533	0.083
Mof_H 	H 	0.5598	0.1961	0.3278	-0.028
Mof_C 	C 	0.60095	0.18508	0.32251	-0.129
Mof_C 	C 	0.61239	0.19486	0.34996	0.425
Mof_C 	C 	0.63205	0.17179	0.3503	-0.195
Mof_C 	C 	0.63296	0.15143	0.33157	0.095
Mof_C 	C 	0.60943	0.16146	0.31481	0.011
Mof_C 	C 	0.60104	0.14396	0.28944	-0.115
Mof_H 	H 	0.6095	0.1293	0.2821	0.034
Mof_C 	C 	0.62268	0.21811	0.34134	-0.872
Mof_H 	H 	0.6092	0.2315	0.3417	0.268
Mof_H 	H 	0.6291	0.216	0.3236	0.276
Mof_H 	H 	0.6371	0.2233	0.3527	0.263
Mof_C 	C 	0.59136	0.18938	0.37215	-0.683
Mof_H 	H 	0.5883	0.1707	0.3735	0.207
Mof_H 	H 	0.5751	0.1982	0.3678	0.196
Mof_H 	H 	0.5978	0.1959	0.3888	0.204
Mof_C 	C 	0.57387	0.15879	0.27992	0.013
Mof_H 	H 	0.5643	0.1518	0.2658	0.004
Mof_O 	O 	0.52996	0.68384	0.76428	-0.528
Mof_O 	O 	0.5284	0.7099	0.7976	-0.657
Mof_C 	C 	0.53626	0.69247	0.78725	0.582
Mof_C 	C 	0.56396	0.68343	0.79329	-0.196
Mof_C 	C 	0.57155	0.68921	0.81533	0.083
Mof_H 	H 	0.5598	0.6961	0.8278	-0.028
Mof_C 	C 	0.60095	0.68508	0.82251	-0.129
Mof_C 	C 	0.61239	0.69486	0.84996	0.425
Mof_C 	C 	0.63205	0.67179	0.8503	-0.195
Mof_C 	C 	0.63296	0.65143	0.83157	0.095
Mof_C 	C 	0.60943	0.66146	0.81481	0.011
Mof_C 	C 	0.60104	0.64396	0.78944	-0.115
Mof_H 	H 	0.6095	0.6293	0.7821	0.034
Mof_C 	C 	0.62268	0.71811	0.84134	-0.872
Mof_H 	H 	0.6092	0.7315	0.8417	0.268
Mof_H 	H 	0.6291	0.716	0.8236	0.276
Mof_H 	H 	0.6371	0.7233	0.8527	0.263
Mof_C 	C 	0.59136	0.68938	0.87215	-0.683
Mof_H 	H 	0.5883	0.6707	0.8735	0.207
Mof_H 	H 	0.5751	0.6982	0.8678	0.196
Mof_H 	H 	0.5978	0.6959	0.8888	0.204
Mof_C 	C 	0.57387	0.65879	0.77992	0.013
Mof_H 	H 	0.5643	0.6518	0.7658	0.004
Mof_O 	O 	0.02996	0.18384	0.76428	-0.528
Mof_O 	O 	0.0284	0.2099	0.7976	-0.656
Mof_C 	C 	0.03626	0.19247	0.78725	0.582
Mof_C 	C 	0.06396	0.18343	0.79329	-0.196
Mof_C 	C 	0.07155	0.18921	0.81533	0.083
Mof_H 	H 	0.0598	0.1961	0.8278	-0.028
Mof_C 	C 	0.10095	0.18508	0.82251	-0.129
Mof_C 	C 	0.11239	0.19486	0.84996	0.425
Mof_C 	C 	0.13205	0.17179	0.8503	-0.195
Mof_C 	C 	0.13296	0.15143	0.83157	0.095
Mof_C 	C 	0.10943	0.16146	0.81481	0.011
Mof_C 	C 	0.10104	0.14396	0.78944	-0.115
Mof_H 	H 	0.1095	0.1293	0.7821	0.034
Mof_C 	C 	0.12268	0.21811	0.84134	-0.872
Mof_H 	H 	0.1092	0.2315	0.8417	0.268
Mof_H 	H 	0.1291	0.216	0.8236	0.276
Mof_H 	H 	0.1371	0.2233	0.8527	0.263
Mof_C 	C 	0.09136	0.18938	0.87215	-0.683
Mof_H 	H 	0.0883	0.1707	0.8735	0.207
Mof_H 	H 	0.0751	0.1982	0.8678	0.196
Mof_H 	H 	0.0978	0.1959	0.8888	0.204
Mof_C 	C 	0.07387	0.15879	0.77992	0.012
Mof_H 	H 	0.0643	0.1518	0.7658	0.004
Mof_O 	O 	0.02996	0.68384	0.26428	-0.528
Mof_O 	O 	0.0284	0.7099	0.2976	-0.656
Mof_C 	C 	0.03626	0.69247	0.28725	0.582
Mof_C 	C 	0.06396	0.68343	0.29329	-0.196
Mof_C 	C 	0.07155	0.68921	0.31533	0.083
Mof_H 	H 	0.0598	0.6961	0.3278	-0.028
Mof_C 	C 	0.10095	0.68508	0.32251	-0.129
Mof_C 	C 	0.11239	0.69486	0.34996	0.424
Mof_C 	C 	0.13205	0.67179	0.3503	-0.195
Mof_C 	C 	0.13296	0.65143	0.33157	0.095
Mof_C 	C 	0.10943	0.66146	0.31481	0.011
Mof_C 	C 	0.10104	0.64396	0.28944	-0.115
Mof_H 	H 	0.1095	0.6293	0.2821	0.034
Mof_C 	C 	0.12268	0.71811	0.34134	-0.872
Mof_H 	H 	0.1092	0.7315	0.3417	0.268
Mof_H 	H 	0.1291	0.716	0.3236	0.276
Mof_H 	H 	0.1371	0.7233	0.3527	0.263
Mof_C 	C 	0.09136	0.68938	0.37215	-0.683
Mof_H 	H 	0.0883	0.6707	0.3735	0.207
Mof_H 	H 	0.0751	0.6982	0.3678	0.196
Mof_H 	H 	0.0978	0.6959	0.3888	0.204
Mof_C 	C 	0.07387	0.65879	0.27992	0.012
Mof_H 	H 	0.0643	0.6518	0.2658	0.004
Mof_O 	O 	0.47004	0.18384	0.73572	-0.528
Mof_O 	O 	0.4716	0.2099	0.7024	-0.657
Mof_C 	C 	0.46374	0.19247	0.71275	0.582
Mof_C 	C 	0.43604	0.18343	0.70671	-0.196
Mof_C 	C 	0.42845	0.18921	0.68467	0.083
Mof_H 	H 	0.4402	0.1961	0.6722	-0.028
Mof_C 	C 	0.39905	0.18508	0.67749	-0.129
Mof_C 	C 	0.38761	0.19486	0.65004	0.425
Mof_C 	C 	0.36795	0.17179	0.6497	-0.195
Mof_C 	C 	0.36704	0.15143	0.66843	0.095
Mof_C 	C 	0.39057	0.16146	0.68519	0.011
Mof_C 	C 	0.39896	0.14396	0.71056	-0.115
Mof_H 	H 	0.3905	0.1293	0.7179	0.034
Mof_C 	C 	0.37732	0.21811	0.65866	-0.872
Mof_H 	H 	0.3908	0.2315	0.6583	0.268
Mof_H 	H 	0.3709	0.216	0.6764	0.276
Mof_H 	H 	0.3629	0.2233	0.6473	0.263
Mof_C 	C 	0.40864	0.18938	0.62785	-0.683
Mof_H 	H 	0.4117	0.1707	0.6265	0.207
Mof_H 	H 	0.4249	0.1982	0.6322	0.196
Mof_H 	H 	0.4022	0.1959	0.6112	0.204
Mof_C 	C 	0.42613	0.15879	0.72008	0.013
Mof_H 	H 	0.4357	0.1518	0.7342	0.004
Mof_O 	O 	0.47004	0.68384	0.23572	-0.528
Mof_O 	O 	0.4716	0.7099	0.2024	-0.657
Mof_C 	C 	0.46374	0.69247	0.21275	0.582
Mof_C 	C 	0.43604	0.68343	0.20671	-0.196
Mof_C 	C 	0.42845	0.68921	0.18467	0.083
Mof_H 	H 	0.4402	0.6961	0.1722	-0.028
Mof_C 	C 	0.39905	0.68508	0.17749	-0.129
Mof_C 	C 	0.38761	0.69486	0.15004	0.425
Mof_C 	C 	0.36795	0.67179	0.1497	-0.195
Mof_C 	C 	0.36704	0.65143	0.16843	0.095
Mof_C 	C 	0.39057	0.66146	0.18519	0.011
Mof_C 	C 	0.39896	0.64396	0.21056	-0.115
Mof_H 	H 	0.3905	0.6293	0.2179	0.034
Mof_C 	C 	0.37732	0.71811	0.15866	-0.872
Mof_H 	H 	0.3908	0.7315	0.1583	0.268
Mof_H 	H 	0.3709	0.716	0.1764	0.276
Mof_H 	H 	0.3629	0.7233	0.1473	0.263
Mof_C 	C 	0.40864	0.68938	0.12785	-0.683
Mof_H 	H 	0.4117	0.6707	0.1265	0.207
Mof_H 	H 	0.4249	0.6982	0.1322	0.196
Mof_H 	H 	0.4022	0.6959	0.1112	0.204
Mof_C 	C 	0.42613	0.65879	0.22008	0.013
Mof_H 	H 	0.4357	0.6518	0.2342	0.004
Mof_O 	O 	0.97004	0.18384	0.23572	-0.527
Mof_O 	O 	0.9716	0.2099	0.2024	-0.655
Mof_C 	C 	0.96374	0.19247	0.21275	0.582
Mof_C 	C 	0.93604	0.18343	0.20671	-0.196
Mof_C 	C 	0.92845	0.18921	0.18467	0.083
Mof_H 	H 	0.9402	0.1961	0.1722	-0.028
Mof_C 	C 	0.89905	0.18508	0.17749	-0.129
Mof_C 	C 	0.88761	0.19486	0.15004	0.425
Mof_C 	C 	0.86795	0.17179	0.1497	-0.195
Mof_C 	C 	0.86704	0.15143	0.16843	0.095
Mof_C 	C 	0.89057	0.16146	0.18519	0.011
Mof_C 	C 	0.89896	0.14396	0.21056	-0.115
Mof_H 	H 	0.8905	0.1293	0.2179	0.034
Mof_C 	C 	0.87732	0.21811	0.15866	-0.872
Mof_H 	H 	0.8908	0.2315	0.1583	0.268
Mof_H 	H 	0.8709	0.216	0.1764	0.276
Mof_H 	H 	0.8629	0.2233	0.1473	0.263
Mof_C 	C 	0.90864	0.18938	0.12785	-0.683
Mof_H 	H 	0.9117	0.1707	0.1265	0.207
Mof_H 	H 	0.9249	0.1982	0.1322	0.196
Mof_H 	H 	0.9022	0.1959	0.1112	0.204
Mof_C 	C 	0.92613	0.15879	0.22008	0.012
Mof_H 	H 	0.9357	0.1518	0.2342	0.004
Mof_O 	O 	0.97004	0.68384	0.73572	-0.527
Mof_O 	O 	0.9716	0.7099	0.7024	-0.655
Mof_C 	C 	0.96374	0.69247	0.71275	0.582
Mof_C 	C 	0.93604	0.68343	0.70671	-0.196
Mof_C 	C 	0.92845	0.68921	0.68467	0.083
Mof_H 	H 	0.9402	0.6961	0.6722	-0.028
Mof_C 	C 	0.89905	0.68508	0.67749	-0.129
Mof_C 	C 	0.88761	0.69486	0.65004	0.425
Mof_C 	C 	0.86795	0.67179	0.6497	-0.195
Mof_C 	C 	0.86704	0.65143	0.66843	0.095
Mof_C 	C 	0.89057	0.66146	0.68519	0.011
Mof_C 	C 	0.89896	0.64396	0.71056	-0.115
Mof_H 	H 	0.8905	0.6293	0.7179	0.034
Mof_C 	C 	0.87732	0.71811	0.65866	-0.872
Mof_H 	H 	0.8908	0.7315	0.6583	0.268
Mof_H 	H 	0.8709	0.716	0.6764	0.276
Mof_H 	H 	0.8629	0.7233	0.6473	0.263
Mof_C 	C 	0.90864	0.68938	0.62785	-0.683
Mof_H 	H 	0.9117	0.6707	0.6265	0.207
Mof_H 	H 	0.9249	0.6982	0.6322	0.196
Mof_H 	H 	0.9022	0.6959	0.6112	0.204
Mof_C 	C 	0.92613	0.65879	0.72008	0.012
Mof_H 	H 	0.9357	0.6518	0.7342	0.004
Mof_O 	O 	0.52996	0.81616	0.73572	-0.528
Mof_O 	O 	0.5284	0.7901	0.7024	-0.657
Mof_C 	C 	0.53626	0.80753	0.71275	0.582
Mof_C 	C 	0.56396	0.81657	0.70671	-0.196
Mof_C 	C 	0.57155	0.81079	0.68467	0.083
Mof_H 	H 	0.5598	0.8039	0.6722	-0.028
Mof_C 	C 	0.60095	0.81492	0.67749	-0.129
Mof_C 	C 	0.61239	0.80514	0.65004	0.425
Mof_C 	C 	0.63205	0.82821	0.6497	-0.195
Mof_C 	C 	0.63296	0.84857	0.66843	0.095
Mof_C 	C 	0.60943	0.83854	0.68519	0.011
Mof_C 	C 	0.60104	0.85604	0.71056	-0.115
Mof_H 	H 	0.6095	0.8707	0.7179	0.034
Mof_C 	C 	0.62268	0.78189	0.65866	-0.872
Mof_H 	H 	0.6092	0.7685	0.6583	0.268
Mof_H 	H 	0.6291	0.784	0.6764	0.276
Mof_H 	H 	0.6371	0.7767	0.6473	0.263
Mof_C 	C 	0.59136	0.81062	0.62785	-0.683
Mof_H 	H 	0.5883	0.8293	0.6265	0.207
Mof_H 	H 	0.5751	0.8018	0.6322	0.196
Mof_H 	H 	0.5978	0.8041	0.6112	0.204
Mof_C 	C 	0.57387	0.84121	0.72008	0.013
Mof_H 	H 	0.5643	0.8482	0.7342	0.004
Mof_O 	O 	0.52996	0.31616	0.23572	-0.528
Mof_O 	O 	0.5284	0.2901	0.2024	-0.657
Mof_C 	C 	0.53626	0.30753	0.21275	0.582
Mof_C 	C 	0.56396	0.31657	0.20671	-0.196
Mof_C 	C 	0.57155	0.31079	0.18467	0.083
Mof_H 	H 	0.5598	0.3039	0.1722	-0.028
Mof_C 	C 	0.60095	0.31492	0.17749	-0.129
Mof_C 	C 	0.61239	0.30514	0.15004	0.425
Mof_C 	C 	0.63205	0.32821	0.1497	-0.195
Mof_C 	C 	0.63296	0.34857	0.16843	0.095
Mof_C 	C 	0.60943	0.33854	0.18519	0.011
Mof_C 	C 	0.60104	0.35604	0.21056	-0.115
Mof_H 	H 	0.6095	0.3707	0.2179	0.034
Mof_C 	C 	0.62268	0.28189	0.15866	-0.872
Mof_H 	H 	0.6092	0.2685	0.1583	0.268
Mof_H 	H 	0.6291	0.284	0.1764	0.276
Mof_H 	H 	0.6371	0.2767	0.1473	0.263
Mof_C 	C 	0.59136	0.31062	0.12785	-0.683
Mof_H 	H 	0.5883	0.3293	0.1265	0.207
Mof_H 	H 	0.5751	0.3018	0.1322	0.196
Mof_H 	H 	0.5978	0.3041	0.1112	0.204
Mof_C 	C 	0.57387	0.34121	0.22008	0.013
Mof_H 	H 	0.5643	0.3482	0.2342	0.004
Mof_O 	O 	0.02996	0.81616	0.23572	-0.528
Mof_O 	O 	0.0284	0.7901	0.2024	-0.656
Mof_C 	C 	0.03626	0.80753	0.21275	0.582
Mof_C 	C 	0.06396	0.81657	0.20671	-0.196
Mof_C 	C 	0.07155	0.81079	0.18467	0.083
Mof_H 	H 	0.0598	0.8039	0.1722	-0.028
Mof_C 	C 	0.10095	0.81492	0.17749	-0.129
Mof_C 	C 	0.11239	0.80514	0.15004	0.424
Mof_C 	C 	0.13205	0.82821	0.1497	-0.195
Mof_C 	C 	0.13296	0.84857	0.16843	0.095
Mof_C 	C 	0.10943	0.83854	0.18519	0.011
Mof_C 	C 	0.10104	0.85604	0.21056	-0.115
Mof_H 	H 	0.1095	0.8707	0.2179	0.034
Mof_C 	C 	0.12268	0.78189	0.15866	-0.872
Mof_H 	H 	0.1092	0.7685	0.1583	0.268
Mof_H 	H 	0.1291	0.784	0.1764	0.276
Mof_H 	H 	0.1371	0.7767	0.1473	0.263
Mof_C 	C 	0.09136	0.81062	0.12785	-0.683
Mof_H 	H 	0.0883	0.8293	0.1265	0.207
Mof_H 	H 	0.0751	0.8018	0.1322	0.196
Mof_H 	H 	0.0978	0.8041	0.1112	0.204
Mof_C 	C 	0.07387	0.84121	0.22008	0.012
Mof_H 	H 	0.0643	0.8482	0.2342	0.004
Mof_O 	O 	0.02996	0.31616	0.73572	-0.528
Mof_O 	O 	0.0284	0.2901	0.7024	-0.656
Mof_C 	C 	0.03626	0.30753	0.71275	0.582
Mof_C 	C 	0.06396	0.31657	0.70671	-0.196
Mof_C 	C 	0.07155	0.31079	0.68467	0.083
Mof_H 	H 	0.0598	0.3039	0.6722	-0.028
Mof_C 	C 	0.10095	0.31492	0.67749	-0.129
Mof_C 	C 	0.11239	0.30514	0.65004	0.425
Mof_C 	C 	0.13205	0.32821	0.6497	-0.195
Mof_C 	C 	0.13296	0.34857	0.66843	0.095
Mof_C 	C 	0.10943	0.33854	0.68519	0.011
Mof_C 	C 	0.10104	0.35604	0.71056	-0.115
Mof_H 	H 	0.1095	0.3707	0.7179	0.034
Mof_C 	C 	0.12268	0.28189	0.65866	-0.872
Mof_H 	H 	0.1092	0.2685	0.6583	0.268
Mof_H 	H 	0.1291	0.284	0.6764	0.276
Mof_H 	H 	0.1371	0.2767	0.6473	0.263
Mof_C 	C 	0.09136	0.31062	0.62785	-0.683
Mof_H 	H 	0.0883	0.3293	0.6265	0.207
Mof_H 	H 	0.0751	0.3018	0.6322	0.196
Mof_H 	H 	0.0978	0.3041	0.6112	0.204
Mof_C 	C 	0.07387	0.34121	0.72008	0.012
Mof_H 	H 	0.0643	0.3482	0.7342	0.004
Mof_O 	O 	0.47004	0.81616	0.26428	-0.528
Mof_O 	O 	0.4716	0.7901	0.2976	-0.657
Mof_C 	C 	0.46374	0.80753	0.28725	0.582
Mof_C 	C 	0.43604	0.81657	0.29329	-0.196
Mof_C 	C 	0.42845	0.81079	0.31533	0.083
Mof_H 	H 	0.4402	0.8039	0.3278	-0.028
Mof_C 	C 	0.39905	0.81492	0.32251	-0.129
Mof_C 	C 	0.38761	0.80514	0.34996	0.425
Mof_C 	C 	0.36795	0.82821	0.3503	-0.195
Mof_C 	C 	0.36704	0.84857	0.33157	0.095
Mof_C 	C 	0.39057	0.83854	0.31481	0.011
Mof_C 	C 	0.39896	0.85604	0.28944	-0.115
Mof_H 	H 	0.3905	0.8707	0.2821	0.034
Mof_C 	C 	0.37732	0.78189	0.34134	-0.872
Mof_H 	H 	0.3908	0.7685	0.3417	0.268
Mof_H 	H 	0.3709	0.784	0.3236	0.276
Mof_H 	H 	0.3629	0.7767	0.3527	0.263
Mof_C 	C 	0.40864	0.81062	0.37215	-0.683
Mof_H 	H 	0.4117	0.8293	0.3735	0.207
Mof_H 	H 	0.4249	0.8018	0.3678	0.196
Mof_H 	H 	0.4022	0.8041	0.3888	0.204
Mof_C 	C 	0.42613	0.84121	0.27992	0.013
Mof_H 	H 	0.4357	0.8482	0.2658	0.004
Mof_O 	O 	0.47004	0.31616	0.76428	-0.528
Mof_O 	O 	0.4716	0.2901	0.7976	-0.657
Mof_C 	C 	0.46374	0.30753	0.78725	0.582
Mof_C 	C 	0.43604	0.31657	0.79329	-0.196
Mof_C 	C 	0.42845	0.31079	0.81533	0.083
Mof_H 	H 	0.4402	0.3039	0.8278	-0.028
Mof_C 	C 	0.39905	0.31492	0.82251	-0.129
Mof_C 	C 	0.38761	0.30514	0.84996	0.425
Mof_C 	C 	0.36795	0.32821	0.8503	-0.195
Mof_C 	C 	0.36704	0.34857	0.83157	0.095
Mof_C 	C 	0.39057	0.33854	0.81481	0.011
Mof_C 	C 	0.39896	0.35604	0.78944	-0.115
Mof_H 	H 	0.3905	0.3707	0.7821	0.034
Mof_C 	C 	0.37732	0.28189	0.84134	-0.872
Mof_H 	H 	0.3908	0.2685	0.8417	0.268
Mof_H 	H 	0.3709	0.284	0.8236	0.276
Mof_H 	H 	0.3629	0.2767	0.8527	0.263
Mof_C 	C 	0.40864	0.31062	0.87215	-0.683
Mof_H 	H 	0.4117	0.3293	0.8735	0.207
Mof_H 	H 	0.4249	0.3018	0.8678	0.196
Mof_H 	H 	0.4022	0.3041	0.8888	0.204
Mof_C 	C 	0.42613	0.34121	0.77992	0.013
Mof_H 	H 	0.4357	0.3482	0.7658	0.004
Mof_O 	O 	0.97004	0.81616	0.76428	-0.527
Mof_O 	O 	0.9716	0.7901	0.7976	-0.655
Mof_C 	C 	0.96374	0.80753	0.78725	0.582
Mof_C 	C 	0.93604	0.81657	0.79329	-0.196
Mof_C 	C 	0.92845	0.81079	0.81533	0.083
Mof_H 	H 	0.9402	0.8039	0.8278	-0.028
Mof_C 	C 	0.89905	0.81492	0.82251	-0.129
Mof_C 	C 	0.88761	0.80514	0.84996	0.425
Mof_C 	C 	0.86795	0.82821	0.8503	-0.195
Mof_C 	C 	0.86704	0.84857	0.83157	0.096
Mof_C 	C 	0.89057	0.83854	0.81481	0.011
Mof_C 	C 	0.89896	0.85604	0.78944	-0.115
Mof_H 	H 	0.8905	0.8707	0.7821	0.034
Mof_C 	C 	0.87732	0.78189	0.84134	-0.872
Mof_H 	H 	0.8908	0.7685	0.8417	0.268
Mof_H 	H 	0.8709	0.784	0.8236	0.276
Mof_H 	H 	0.8629	0.7767	0.8527	0.263
Mof_C 	C 	0.90864	0.81062	0.87215	-0.684
Mof_H 	H 	0.9117	0.8293	0.8735	0.208
Mof_H 	H 	0.9249	0.8018	0.8678	0.196
Mof_H 	H 	0.9022	0.8041	0.8888	0.205
Mof_C 	C 	0.92613	0.84121	0.77992	0.012
Mof_H 	H 	0.9357	0.8482	0.7658	0.004
Mof_O 	O 	0.97004	0.31616	0.26428	-0.527
Mof_O 	O 	0.9716	0.2901	0.2976	-0.655
Mof_C 	C 	0.96374	0.30753	0.28725	0.582
Mof_C 	C 	0.93604	0.31657	0.29329	-0.196
Mof_C 	C 	0.92845	0.31079	0.31533	0.083
Mof_H 	H 	0.9402	0.3039	0.3278	-0.028
Mof_C 	C 	0.89905	0.31492	0.32251	-0.129
Mof_C 	C 	0.88761	0.30514	0.34996	0.425
Mof_C 	C 	0.86795	0.32821	0.3503	-0.195
Mof_C 	C 	0.86704	0.34857	0.33157	0.095
Mof_C 	C 	0.89057	0.33854	0.31481	0.011
Mof_C 	C 	0.89896	0.35604	0.28944	-0.115
Mof_H 	H 	0.8905	0.3707	0.2821	0.034
Mof_C 	C 	0.87732	0.28189	0.34134	-0.872
Mof_H 	H 	0.8908	0.2685	0.3417	0.268
Mof_H 	H 	0.8709	0.284	0.3236	0.276
Mof_H 	H 	0.8629	0.2767	0.3527	0.263
Mof_C 	C 	0.90864	0.31062	0.37215	-0.683
Mof_H 	H 	0.9117	0.3293	0.3735	0.207
Mof_H 	H 	0.9249	0.3018	0.3678	0.196
Mof_H 	H 	0.9022	0.3041	0.3888	0.204
Mof_C 	C 	0.92613	0.34121	0.27992	0.012
Mof_H 	H 	0.9357	0.3482	0.2658	0.004
Mof_O 	O 	0.02996	0.76428	0.31616	-0.528
Mof_O 	O 	0.0284	0.7976	0.2901	-0.656
Mof_C 	C 	0.03626	0.78725	0.30753	0.582
Mof_C 	C 	0.06396	0.79329	0.31657	-0.196
Mof_C 	C 	0.07155	0.81533	0.31079	0.083
Mof_H 	H 	0.0598	0.8278	0.3039	-0.028
Mof_C 	C 	0.10095	0.82251	0.31492	-0.129
Mof_C 	C 	0.11239	0.84996	0.30514	0.425
Mof_C 	C 	0.13205	0.8503	0.32821	-0.195
Mof_C 	C 	0.13296	0.83157	0.34857	0.095
Mof_C 	C 	0.10943	0.81481	0.33854	0.011
Mof_C 	C 	0.10104	0.78944	0.35604	-0.115
Mof_H 	H 	0.1095	0.7821	0.3707	0.034
Mof_C 	C 	0.12268	0.84134	0.28189	-0.872
Mof_H 	H 	0.1092	0.8417	0.2685	0.268
Mof_H 	H 	0.1291	0.8236	0.284	0.276
Mof_H 	H 	0.1371	0.8527	0.2767	0.263
Mof_C 	C 	0.09136	0.87215	0.31062	-0.683
Mof_H 	H 	0.0883	0.8735	0.3293	0.207
Mof_H 	H 	0.0751	0.8678	0.3018	0.196
Mof_H 	H 	0.0978	0.8888	0.3041	0.204
Mof_C 	C 	0.07387	0.77992	0.34121	0.012
Mof_H 	H 	0.0643	0.7658	0.3482	0.004
Mof_O 	O 	0.02996	0.26428	0.81616	-0.528
Mof_O 	O 	0.0284	0.2976	0.7901	-0.656
Mof_C 	C 	0.03626	0.28725	0.80753	0.582
Mof_C 	C 	0.06396	0.29329	0.81657	-0.196
Mof_C 	C 	0.07155	0.31533	0.81079	0.083
Mof_H 	H 	0.0598	0.3278	0.8039	-0.028
Mof_C 	C 	0.10095	0.32251	0.81492	-0.129
Mof_C 	C 	0.11239	0.34996	0.80514	0.425
Mof_C 	C 	0.13205	0.3503	0.82821	-0.195
Mof_C 	C 	0.13296	0.33157	0.84857	0.095
Mof_C 	C 	0.10943	0.31481	0.83854	0.011
Mof_C 	C 	0.10104	0.28944	0.85604	-0.115
Mof_H 	H 	0.1095	0.2821	0.8707	0.034
Mof_C 	C 	0.12268	0.34134	0.78189	-0.872
Mof_H 	H 	0.1092	0.3417	0.7685	0.268
Mof_H 	H 	0.1291	0.3236	0.784	0.276
Mof_H 	H 	0.1371	0.3527	0.7767	0.263
Mof_C 	C 	0.09136	0.37215	0.81062	-0.683
Mof_H 	H 	0.0883	0.3735	0.8293	0.207
Mof_H 	H 	0.0751	0.3678	0.8018	0.196
Mof_H 	H 	0.0978	0.3888	0.8041	0.204
Mof_C 	C 	0.07387	0.27992	0.84121	0.012
Mof_H 	H 	0.0643	0.2658	0.8482	0.004
Mof_O 	O 	0.52996	0.76428	0.81616	-0.528
Mof_O 	O 	0.5284	0.7976	0.7901	-0.657
Mof_C 	C 	0.53626	0.78725	0.80753	0.582
Mof_C 	C 	0.56396	0.79329	0.81657	-0.196
Mof_C 	C 	0.57155	0.81533	0.81079	0.083
Mof_H 	H 	0.5598	0.8278	0.8039	-0.028
Mof_C 	C 	0.60095	0.82251	0.81492	-0.129
Mof_C 	C 	0.61239	0.84996	0.80514	0.425
Mof_C 	C 	0.63205	0.8503	0.82821	-0.195
Mof_C 	C 	0.63296	0.83157	0.84857	0.095
Mof_C 	C 	0.60943	0.81481	0.83854	0.011
Mof_C 	C 	0.60104	0.78944	0.85604	-0.115
Mof_H 	H 	0.6095	0.7821	0.8707	0.034
Mof_C 	C 	0.62268	0.84134	0.78189	-0.872
Mof_H 	H 	0.6092	0.8417	0.7685	0.268
Mof_H 	H 	0.6291	0.8236	0.784	0.276
Mof_H 	H 	0.6371	0.8527	0.7767	0.263
Mof_C 	C 	0.59136	0.87215	0.81062	-0.683
Mof_H 	H 	0.5883	0.8735	0.8293	0.207
Mof_H 	H 	0.5751	0.8678	0.8018	0.196
Mof_H 	H 	0.5978	0.8888	0.8041	0.204
Mof_C 	C 	0.57387	0.77992	0.84121	0.013
Mof_H 	H 	0.5643	0.7658	0.8482	0.004
Mof_O 	O 	0.52996	0.26428	0.31616	-0.528
Mof_O 	O 	0.5284	0.2976	0.2901	-0.657
Mof_C 	C 	0.53626	0.28725	0.30753	0.582
Mof_C 	C 	0.56396	0.29329	0.31657	-0.196
Mof_C 	C 	0.57155	0.31533	0.31079	0.083
Mof_H 	H 	0.5598	0.3278	0.3039	-0.028
Mof_C 	C 	0.60095	0.32251	0.31492	-0.129
Mof_C 	C 	0.61239	0.34996	0.30514	0.425
Mof_C 	C 	0.63205	0.3503	0.32821	-0.195
Mof_C 	C 	0.63296	0.33157	0.34857	0.095
Mof_C 	C 	0.60943	0.31481	0.33854	0.011
Mof_C 	C 	0.60104	0.28944	0.35604	-0.115
Mof_H 	H 	0.6095	0.2821	0.3707	0.034
Mof_C 	C 	0.62268	0.34134	0.28189	-0.872
Mof_H 	H 	0.6092	0.3417	0.2685	0.268
Mof_H 	H 	0.6291	0.3236	0.284	0.276
Mof_H 	H 	0.6371	0.3527	0.2767	0.263
Mof_C 	C 	0.59136	0.37215	0.31062	-0.683
Mof_H 	H 	0.5883	0.3735	0.3293	0.207
Mof_H 	H 	0.5751	0.3678	0.3018	0.196
Mof_H 	H 	0.5978	0.3888	0.3041	0.204
Mof_C 	C 	0.57387	0.27992	0.34121	0.013
Mof_H 	H 	0.5643	0.2658	0.3482	0.004
Mof_O 	O 	0.97004	0.23572	0.31616	-0.527
Mof_O 	O 	0.9716	0.2024	0.2901	-0.655
Mof_C 	C 	0.96374	0.21275	0.30753	0.582
Mof_C 	C 	0.93604	0.20671	0.31657	-0.196
Mof_C 	C 	0.92845	0.18467	0.31079	0.083
Mof_H 	H 	0.9402	0.1722	0.3039	-0.028
Mof_C 	C 	0.89905	0.17749	0.31492	-0.129
Mof_C 	C 	0.88761	0.15004	0.30514	0.425
Mof_C 	C 	0.86795	0.1497	0.32821	-0.195
Mof_C 	C 	0.86704	0.16843	0.34857	0.095
Mof_C 	C 	0.89057	0.18519	0.33854	0.011
Mof_C 	C 	0.89896	0.21056	0.35604	-0.115
Mof_H 	H 	0.8905	0.2179	0.3707	0.034
Mof_C 	C 	0.87732	0.15866	0.28189	-0.872
Mof_H 	H 	0.8908	0.1583	0.2685	0.268
Mof_H 	H 	0.8709	0.1764	0.284	0.276
Mof_H 	H 	0.8629	0.1473	0.2767	0.263
Mof_C 	C 	0.90864	0.12785	0.31062	-0.683
Mof_H 	H 	0.9117	0.1265	0.3293	0.207
Mof_H 	H 	0.9249	0.1322	0.3018	0.196
Mof_H 	H 	0.9022	0.1112	0.3041	0.204
Mof_C 	C 	0.92613	0.22008	0.34121	0.012
Mof_H 	H 	0.9357	0.2342	0.3482	0.004
Mof_O 	O 	0.97004	0.73572	0.81616	-0.527
Mof_O 	O 	0.9716	0.7024	0.7901	-0.655
Mof_C 	C 	0.96374	0.71275	0.80753	0.582
Mof_C 	C 	0.93604	0.70671	0.81657	-0.196
Mof_C 	C 	0.92845	0.68467	0.81079	0.083
Mof_H 	H 	0.9402	0.6722	0.8039	-0.028
Mof_C 	C 	0.89905	0.67749	0.81492	-0.129
Mof_C 	C 	0.88761	0.65004	0.80514	0.425
Mof_C 	C 	0.86795	0.6497	0.82821	-0.195
Mof_C 	C 	0.86704	0.66843	0.84857	0.096
Mof_C 	C 	0.89057	0.68519	0.83854	0.011
Mof_C 	C 	0.89896	0.71056	0.85604	-0.115
Mof_H 	H 	0.8905	0.7179	0.8707	0.034
Mof_C 	C 	0.87732	0.65866	0.78189	-0.872
Mof_H 	H 	0.8908	0.6583	0.7685	0.268
Mof_H 	H 	0.8709	0.6764	0.784	0.276
Mof_H 	H 	0.8629	0.6473	0.7767	0.263
Mof_C 	C 	0.90864	0.62785	0.81062	-0.683
Mof_H 	H 	0.9117	0.6265	0.8293	0.207
Mof_H 	H 	0.9249	0.6322	0.8018	0.196
Mof_H 	H 	0.9022	0.6112	0.8041	0.204
Mof_C 	C 	0.92613	0.72008	0.84121	0.012
Mof_H 	H 	0.9357	0.7342	0.8482	0.004
Mof_O 	O 	0.47004	0.23572	0.81616	-0.528
Mof_O 	O 	0.4716	0.2024	0.7901	-0.657
Mof_C 	C 	0.46374	0.21275	0.80753	0.582
Mof_C 	C 	0.43604	0.20671	0.81657	-0.196
Mof_C 	C 	0.42845	0.18467	0.81079	0.083
Mof_H 	H 	0.4402	0.1722	0.8039	-0.028
Mof_C 	C 	0.39905	0.17749	0.81492	-0.129
Mof_C 	C 	0.38761	0.15004	0.80514	0.425
Mof_C 	C 	0.36795	0.1497	0.82821	-0.195
Mof_C 	C 	0.36704	0.16843	0.84857	0.095
Mof_C 	C 	0.39057	0.18519	0.83854	0.011
Mof_C 	C 	0.39896	0.21056	0.85604	-0.115
Mof_H 	H 	0.3905	0.2179	0.8707	0.034
Mof_C 	C 	0.37732	0.15866	0.78189	-0.872
Mof_H 	H 	0.3908	0.1583	0.7685	0.268
Mof_H 	H 	0.3709	0.1764	0.784	0.276
Mof_H 	H 	0.3629	0.1473	0.7767	0.263
Mof_C 	C 	0.40864	0.12785	0.81062	-0.683
Mof_H 	H 	0.4117	0.1265	0.8293	0.207
Mof_H 	H 	0.4249	0.1322	0.8018	0.196
Mof_H 	H 	0.4022	0.1112	0.8041	0.204
Mof_C 	C 	0.42613	0.22008	0.84121	0.013
Mof_H 	H 	0.4357	0.2342	0.8482	0.004
Mof_O 	O 	0.47004	0.73572	0.31616	-0.528
Mof_O 	O 	0.4716	0.7024	0.2901	-0.657
Mof_C 	C 	0.46374	0.71275	0.30753	0.582
Mof_C 	C 	0.43604	0.70671	0.31657	-0.196
Mof_C 	C 	0.42845	0.68467	0.31079	0.083
Mof_H 	H 	0.4402	0.6722	0.3039	-0.028
Mof_C 	C 	0.39905	0.67749	0.31492	-0.129
Mof_C 	C 	0.38761	0.65004	0.30514	0.425
Mof_C 	C 	0.36795	0.6497	0.32821	-0.195
Mof_C 	C 	0.36704	0.66843	0.34857	0.095
Mof_C 	C 	0.39057	0.68519	0.33854	0.011
Mof_C 	C 	0.39896	0.71056	0.35604	-0.115
Mof_H 	H 	0.3905	0.7179	0.3707	0.034
Mof_C 	C 	0.37732	0.65866	0.28189	-0.872
Mof_H 	H 	0.3908	0.6583	0.2685	0.268
Mof_H 	H 	0.3709	0.6764	0.284	0.276
Mof_H 	H 	0.3629	0.6473	0.2767	0.263
Mof_C 	C 	0.40864	0.62785	0.31062	-0.683
Mof_H 	H 	0.4117	0.6265	0.3293	0.207
Mof_H 	H 	0.4249	0.6322	0.3018	0.196
Mof_H 	H 	0.4022	0.6112	0.3041	0.204
Mof_C 	C 	0.42613	0.72008	0.34121	0.013
Mof_H 	H 	0.4357	0.7342	0.3482	0.004
Mof_O 	O 	0.02996	0.23572	0.68384	-0.528
Mof_O 	O 	0.0284	0.2024	0.7099	-0.656
Mof_C 	C 	0.03626	0.21275	0.69247	0.582
Mof_C 	C 	0.06396	0.20671	0.68343	-0.196
Mof_C 	C 	0.07155	0.18467	0.68921	0.083
Mof_H 	H 	0.0598	0.1722	0.6961	-0.028
Mof_C 	C 	0.10095	0.17749	0.68508	-0.129
Mof_C 	C 	0.11239	0.15004	0.69486	0.424
Mof_C 	C 	0.13205	0.1497	0.67179	-0.195
Mof_C 	C 	0.13296	0.16843	0.65143	0.095
Mof_C 	C 	0.10943	0.18519	0.66146	0.011
Mof_C 	C 	0.10104	0.21056	0.64396	-0.115
Mof_H 	H 	0.1095	0.2179	0.6293	0.034
Mof_C 	C 	0.12268	0.15866	0.71811	-0.871
Mof_H 	H 	0.1092	0.1583	0.7315	0.268
Mof_H 	H 	0.1291	0.1764	0.716	0.276
Mof_H 	H 	0.1371	0.1473	0.7233	0.263
Mof_C 	C 	0.09136	0.12785	0.68938	-0.682
Mof_H 	H 	0.0883	0.1265	0.6707	0.207
Mof_H 	H 	0.0751	0.1322	0.6982	0.196
Mof_H 	H 	0.0978	0.1112	0.6959	0.204
Mof_C 	C 	0.07387	0.22008	0.65879	0.012
Mof_H 	H 	0.0643	0.2342	0.6518	0.004
Mof_O 	O 	0.02996	0.73572	0.18384	-0.528
Mof_O 	O 	0.0284	0.7024	0.2099	-0.656
Mof_C 	C 	0.03626	0.71275	0.19247	0.582
Mof_C 	C 	0.06396	0.70671	0.18343	-0.196
Mof_C 	C 	0.07155	0.68467	0.18921	0.083
Mof_H 	H 	0.0598	0.6722	0.1961	-0.028
Mof_C 	C 	0.10095	0.67749	0.18508	-0.129
Mof_C 	C 	0.11239	0.65004	0.19486	0.424
Mof_C 	C 	0.13205	0.6497	0.17179	-0.195
Mof_C 	C 	0.13296	0.66843	0.15143	0.095
Mof_C 	C 	0.10943	0.68519	0.16146	0.011
Mof_C 	C 	0.10104	0.71056	0.14396	-0.116
Mof_H 	H 	0.1095	0.7179	0.1293	0.034
Mof_C 	C 	0.12268	0.65866	0.21811	-0.872
Mof_H 	H 	0.1092	0.6583	0.2315	0.268
Mof_H 	H 	0.1291	0.6764	0.216	0.276
Mof_H 	H 	0.1371	0.6473	0.2233	0.263
Mof_C 	C 	0.09136	0.62785	0.18938	-0.683
Mof_H 	H 	0.0883	0.6265	0.1707	0.207
Mof_H 	H 	0.0751	0.6322	0.1982	0.196
Mof_H 	H 	0.0978	0.6112	0.1959	0.204
Mof_C 	C 	0.07387	0.72008	0.15879	0.012
Mof_H 	H 	0.0643	0.7342	0.1518	0.004
Mof_O 	O 	0.52996	0.23572	0.18384	-0.528
Mof_O 	O 	0.5284	0.2024	0.2099	-0.657
Mof_C 	C 	0.53626	0.21275	0.19247	0.582
Mof_C 	C 	0.56396	0.20671	0.18343	-0.196
Mof_C 	C 	0.57155	0.18467	0.18921	0.083
Mof_H 	H 	0.5598	0.1722	0.1961	-0.028
Mof_C 	C 	0.60095	0.17749	0.18508	-0.129
Mof_C 	C 	0.61239	0.15004	0.19486	0.425
Mof_C 	C 	0.63205	0.1497	0.17179	-0.195
Mof_C 	C 	0.63296	0.16843	0.15143	0.095
Mof_C 	C 	0.60943	0.18519	0.16146	0.011
Mof_C 	C 	0.60104	0.21056	0.14396	-0.115
Mof_H 	H 	0.6095	0.2179	0.1293	0.034
Mof_C 	C 	0.62268	0.15866	0.21811	-0.872
Mof_H 	H 	0.6092	0.1583	0.2315	0.268
Mof_H 	H 	0.6291	0.1764	0.216	0.276
Mof_H 	H 	0.6371	0.1473	0.2233	0.263
Mof_C 	C 	0.59136	0.12785	0.18938	-0.683
Mof_H 	H 	0.5883	0.1265	0.1707	0.207
Mof_H 	H 	0.5751	0.1322	0.1982	0.196
Mof_H 	H 	0.5978	0.1112	0.1959	0.204
Mof_C 	C 	0.57387	0.22008	0.15879	0.013
Mof_H 	H 	0.5643	0.2342	0.1518	0.004
Mof_O 	O 	0.52996	0.73572	0.68384	-0.528
Mof_O 	O 	0.5284	0.7024	0.7099	-0.657
Mof_C 	C 	0.53626	0.71275	0.69247	0.582
Mof_C 	C 	0.56396	0.70671	0.68343	-0.196
Mof_C 	C 	0.57155	0.68467	0.68921	0.083
Mof_H 	H 	0.5598	0.6722	0.6961	-0.028
Mof_C 	C 	0.60095	0.67749	0.68508	-0.129
Mof_C 	C 	0.61239	0.65004	0.69486	0.425
Mof_C 	C 	0.63205	0.6497	0.67179	-0.195
Mof_C 	C 	0.63296	0.66843	0.65143	0.095
Mof_C 	C 	0.60943	0.68519	0.66146	0.011
Mof_C 	C 	0.60104	0.71056	0.64396	-0.115
Mof_H 	H 	0.6095	0.7179	0.6293	0.034
Mof_C 	C 	0.62268	0.65866	0.71811	-0.872
Mof_H 	H 	0.6092	0.6583	0.7315	0.268
Mof_H 	H 	0.6291	0.6764	0.716	0.276
Mof_H 	H 	0.6371	0.6473	0.7233	0.263
Mof_C 	C 	0.59136	0.62785	0.68938	-0.683
Mof_H 	H 	0.5883	0.6265	0.6707	0.207
Mof_H 	H 	0.5751	0.6322	0.6982	0.196
Mof_H 	H 	0.5978	0.6112	0.6959	0.204
Mof_C 	C 	0.57387	0.72008	0.65879	0.013
Mof_H 	H 	0.5643	0.7342	0.6518	0.004
Mof_O 	O 	0.97004	0.76428	0.68384	-0.527
Mof_O 	O 	0.9716	0.7976	0.7099	-0.655
Mof_C 	C 	0.96374	0.78725	0.69247	0.582
Mof_C 	C 	0.93604	0.79329	0.68343	-0.196
Mof_C 	C 	0.92845	0.81533	0.68921	0.083
Mof_H 	H 	0.9402	0.8278	0.6961	-0.028
Mof_C 	C 	0.89905	0.82251	0.68508	-0.129
Mof_C 	C 	0.88761	0.84996	0.69486	0.425
Mof_C 	C 	0.86795	0.8503	0.67179	-0.195
Mof_C 	C 	0.86704	0.83157	0.65143	0.095
Mof_C 	C 	0.89057	0.81481	0.66146	0.011
Mof_C 	C 	0.89896	0.78944	0.64396	-0.115
Mof_H 	H 	0.8905	0.7821	0.6293	0.034
Mof_C 	C 	0.87732	0.84134	0.71811	-0.872
Mof_H 	H 	0.8908	0.8417	0.7315	0.268
Mof_H 	H 	0.8709	0.8236	0.716	0.276
Mof_H 	H 	0.8629	0.8527	0.7233	0.263
Mof_C 	C 	0.90864	0.87215	0.68938	-0.684
Mof_H 	H 	0.9117	0.8735	0.6707	0.207
Mof_H 	H 	0.9249	0.8678	0.6982	0.196
Mof_H 	H 	0.9022	0.8888	0.6959	0.205
Mof_C 	C 	0.92613	0.77992	0.65879	0.012
Mof_H 	H 	0.9357	0.7658	0.6518	0.004
Mof_O 	O 	0.97004	0.26428	0.18384	-0.527
Mof_O 	O 	0.9716	0.2976	0.2099	-0.655
Mof_C 	C 	0.96374	0.28725	0.19247	0.582
Mof_C 	C 	0.93604	0.29329	0.18343	-0.196
Mof_C 	C 	0.92845	0.31533	0.18921	0.083
Mof_H 	H 	0.9402	0.3278	0.1961	-0.028
Mof_C 	C 	0.89905	0.32251	0.18508	-0.129
Mof_C 	C 	0.88761	0.34996	0.19486	0.425
Mof_C 	C 	0.86795	0.3503	0.17179	-0.195
Mof_C 	C 	0.86704	0.33157	0.15143	0.095
Mof_C 	C 	0.89057	0.31481	0.16146	0.011
Mof_C 	C 	0.89896	0.28944	0.14396	-0.115
Mof_H 	H 	0.8905	0.2821	0.1293	0.034
Mof_C 	C 	0.87732	0.34134	0.21811	-0.872
Mof_H 	H 	0.8908	0.3417	0.2315	0.268
Mof_H 	H 	0.8709	0.3236	0.216	0.276
Mof_H 	H 	0.8629	0.3527	0.2233	0.263
Mof_C 	C 	0.90864	0.37215	0.18938	-0.683
Mof_H 	H 	0.9117	0.3735	0.1707	0.207
Mof_H 	H 	0.9249	0.3678	0.1982	0.196
Mof_H 	H 	0.9022	0.3888	0.1959	0.204
Mof_C 	C 	0.92613	0.27992	0.15879	0.012
Mof_H 	H 	0.9357	0.2658	0.1518	0.004
Mof_O 	O 	0.47004	0.76428	0.18384	-0.528
Mof_O 	O 	0.4716	0.7976	0.2099	-0.657
Mof_C 	C 	0.46374	0.78725	0.19247	0.582
Mof_C 	C 	0.43604	0.79329	0.18343	-0.196
Mof_C 	C 	0.42845	0.81533	0.18921	0.083
Mof_H 	H 	0.4402	0.8278	0.1961	-0.028
Mof_C 	C 	0.39905	0.82251	0.18508	-0.129
Mof_C 	C 	0.38761	0.84996	0.19486	0.425
Mof_C 	C 	0.36795	0.8503	0.17179	-0.195
Mof_C 	C 	0.36704	0.83157	0.15143	0.095
Mof_C 	C 	0.39057	0.81481	0.16146	0.011
Mof_C 	C 	0.39896	0.78944	0.14396	-0.115
Mof_H 	H 	0.3905	0.7821	0.1293	0.034
Mof_C 	C 	0.37732	0.84134	0.21811	-0.872
Mof_H 	H 	0.3908	0.8417	0.2315	0.268
Mof_H 	H 	0.3709	0.8236	0.216	0.276
Mof_H 	H 	0.3629	0.8527	0.2233	0.263
Mof_C 	C 	0.40864	0.87215	0.18938	-0.683
Mof_H 	H 	0.4117	0.8735	0.1707	0.207
Mof_H 	H 	0.4249	0.8678	0.1982	0.196
Mof_H 	H 	0.4022	0.8888	0.1959	0.204
Mof_C 	C 	0.42613	0.77992	0.15879	0.013
Mof_H 	H 	0.4357	0.7658	0.1518	0.004
Mof_O 	O 	0.47004	0.26428	0.68384	-0.528
Mof_O 	O 	0.4716	0.2976	0.7099	-0.657
Mof_C 	C 	0.46374	0.28725	0.69247	0.582
Mof_C 	C 	0.43604	0.29329	0.68343	-0.196
Mof_C 	C 	0.42845	0.31533	0.68921	0.083
Mof_H 	H 	0.4402	0.3278	0.6961	-0.028
Mof_C 	C 	0.39905	0.32251	0.68508	-0.129
Mof_C 	C 	0.38761	0.34996	0.69486	0.425
Mof_C 	C 	0.36795	0.3503	0.67179	-0.195
Mof_C 	C 	0.36704	0.33157	0.65143	0.095
Mof_C 	C 	0.39057	0.31481	0.66146	0.011
Mof_C 	C 	0.39896	0.28944	0.64396	-0.115
Mof_H 	H 	0.3905	0.2821	0.6293	0.034
Mof_C 	C 	0.37732	0.34134	0.71811	-0.872
Mof_H 	H 	0.3908	0.3417	0.7315	0.268
Mof_H 	H 	0.3709	0.3236	0.716	0.276
Mof_H 	H 	0.3629	0.3527	0.7233	0.263
Mof_C 	C 	0.40864	0.37215	0.68938	-0.683
Mof_H 	H 	0.4117	0.3735	0.6707	0.207
Mof_H 	H 	0.4249	0.3678	0.6982	0.196
Mof_H 	H 	0.4022	0.3888	0.6959	0.204
Mof_C 	C 	0.42613	0.27992	0.65879	0.013
Mof_H 	H 	0.4357	0.2658	0.6518	0.004
Mof_O 	O 	0.76428	0.68384	0.97004	-0.527
Mof_O 	O 	0.7976	0.7099	0.9716	-0.655
Mof_C 	C 	0.78725	0.69247	0.96374	0.582
Mof_C 	C 	0.79329	0.68343	0.93604	-0.196
Mof_C 	C 	0.81533	0.68921	0.92845	0.083
Mof_H 	H 	0.8278	0.6961	0.9402	-0.028
Mof_C 	C 	0.82251	0.68508	0.89905	-0.129
Mof_C 	C 	0.84996	0.69486	0.88761	0.425
Mof_C 	C 	0.8503	0.67179	0.86795	-0.195
Mof_C 	C 	0.83157	0.65143	0.86704	0.095
Mof_C 	C 	0.81481	0.66146	0.89057	0.011
Mof_C 	C 	0.78944	0.64396	0.89896	-0.115
Mof_H 	H 	0.7821	0.6293	0.8905	0.034
Mof_C 	C 	0.84134	0.71811	0.87732	-0.872
Mof_H 	H 	0.8417	0.7315	0.8908	0.268
Mof_H 	H 	0.8236	0.716	0.8709	0.276
Mof_H 	H 	0.8527	0.7233	0.8629	0.263
Mof_C 	C 	0.87215	0.68938	0.90864	-0.684
Mof_H 	H 	0.8735	0.6707	0.9117	0.207
Mof_H 	H 	0.8678	0.6982	0.9249	0.196
Mof_H 	H 	0.8888	0.6959	0.9022	0.205
Mof_C 	C 	0.77992	0.65879	0.92613	0.012
Mof_H 	H 	0.7658	0.6518	0.9357	0.004
Mof_O 	O 	0.76428	0.18384	0.47004	-0.528
Mof_O 	O 	0.7976	0.2099	0.4716	-0.657
Mof_C 	C 	0.78725	0.19247	0.46374	0.582
Mof_C 	C 	0.79329	0.18343	0.43604	-0.196
Mof_C 	C 	0.81533	0.18921	0.42845	0.083
Mof_H 	H 	0.8278	0.1961	0.4402	-0.028
Mof_C 	C 	0.82251	0.18508	0.39905	-0.129
Mof_C 	C 	0.84996	0.19486	0.38761	0.425
Mof_C 	C 	0.8503	0.17179	0.36795	-0.195
Mof_C 	C 	0.83157	0.15143	0.36704	0.095
Mof_C 	C 	0.81481	0.16146	0.39057	0.011
Mof_C 	C 	0.78944	0.14396	0.39896	-0.115
Mof_H 	H 	0.7821	0.1293	0.3905	0.034
Mof_C 	C 	0.84134	0.21811	0.37732	-0.872
Mof_H 	H 	0.8417	0.2315	0.3908	0.268
Mof_H 	H 	0.8236	0.216	0.3709	0.276
Mof_H 	H 	0.8527	0.2233	0.3629	0.263
Mof_C 	C 	0.87215	0.18938	0.40864	-0.683
Mof_H 	H 	0.8735	0.1707	0.4117	0.207
Mof_H 	H 	0.8678	0.1982	0.4249	0.196
Mof_H 	H 	0.8888	0.1959	0.4022	0.204
Mof_C 	C 	0.77992	0.15879	0.42613	0.013
Mof_H 	H 	0.7658	0.1518	0.4357	0.004
Mof_O 	O 	0.26428	0.68384	0.47004	-0.528
Mof_O 	O 	0.2976	0.7099	0.4716	-0.657
Mof_C 	C 	0.28725	0.69247	0.46374	0.582
Mof_C 	C 	0.29329	0.68343	0.43604	-0.196
Mof_C 	C 	0.31533	0.68921	0.42845	0.083
Mof_H 	H 	0.3278	0.6961	0.4402	-0.028
Mof_C 	C 	0.32251	0.68508	0.39905	-0.129
Mof_C 	C 	0.34996	0.69486	0.38761	0.425
Mof_C 	C 	0.3503	0.67179	0.36795	-0.195
Mof_C 	C 	0.33157	0.65143	0.36704	0.095
Mof_C 	C 	0.31481	0.66146	0.39057	0.011
Mof_C 	C 	0.28944	0.64396	0.39896	-0.115
Mof_H 	H 	0.2821	0.6293	0.3905	0.034
Mof_C 	C 	0.34134	0.71811	0.37732	-0.872
Mof_H 	H 	0.3417	0.7315	0.3908	0.268
Mof_H 	H 	0.3236	0.716	0.3709	0.276
Mof_H 	H 	0.3527	0.7233	0.3629	0.263
Mof_C 	C 	0.37215	0.68938	0.40864	-0.683
Mof_H 	H 	0.3735	0.6707	0.4117	0.207
Mof_H 	H 	0.3678	0.6982	0.4249	0.196
Mof_H 	H 	0.3888	0.6959	0.4022	0.204
Mof_C 	C 	0.27992	0.65879	0.42613	0.013
Mof_H 	H 	0.2658	0.6518	0.4357	0.004
Mof_O 	O 	0.26428	0.18384	0.97004	-0.527
Mof_O 	O 	0.2976	0.2099	0.9716	-0.655
Mof_C 	C 	0.28725	0.19247	0.96374	0.582
Mof_C 	C 	0.29329	0.18343	0.93604	-0.196
Mof_C 	C 	0.31533	0.18921	0.92845	0.083
Mof_H 	H 	0.3278	0.1961	0.9402	-0.028
Mof_C 	C 	0.32251	0.18508	0.89905	-0.129
Mof_C 	C 	0.34996	0.19486	0.88761	0.425
Mof_C 	C 	0.3503	0.17179	0.86795	-0.195
Mof_C 	C 	0.33157	0.15143	0.86704	0.095
Mof_C 	C 	0.31481	0.16146	0.89057	0.011
Mof_C 	C 	0.28944	0.14396	0.89896	-0.115
Mof_H 	H 	0.2821	0.1293	0.8905	0.034
Mof_C 	C 	0.34134	0.21811	0.87732	-0.872
Mof_H 	H 	0.3417	0.2315	0.8908	0.268
Mof_H 	H 	0.3236	0.216	0.8709	0.276
Mof_H 	H 	0.3527	0.2233	0.8629	0.263
Mof_C 	C 	0.37215	0.18938	0.90864	-0.683
Mof_H 	H 	0.3735	0.1707	0.9117	0.207
Mof_H 	H 	0.3678	0.1982	0.9249	0.196
Mof_H 	H 	0.3888	0.1959	0.9022	0.204
Mof_C 	C 	0.27992	0.15879	0.92613	0.012
Mof_H 	H 	0.2658	0.1518	0.9357	0.004
Mof_O 	O 	0.23572	0.68384	0.02996	-0.528
Mof_O 	O 	0.2024	0.7099	0.0284	-0.656
Mof_C 	C 	0.21275	0.69247	0.03626	0.582
Mof_C 	C 	0.20671	0.68343	0.06396	-0.196
Mof_C 	C 	0.18467	0.68921	0.07155	0.083
Mof_H 	H 	0.1722	0.6961	0.0598	-0.028
Mof_C 	C 	0.17749	0.68508	0.10095	-0.129
Mof_C 	C 	0.15004	0.69486	0.11239	0.424
Mof_C 	C 	0.1497	0.67179	0.13205	-0.195
Mof_C 	C 	0.16843	0.65143	0.13296	0.095
Mof_C 	C 	0.18519	0.66146	0.10943	0.011
Mof_C 	C 	0.21056	0.64396	0.10104	-0.115
Mof_H 	H 	0.2179	0.6293	0.1095	0.034
Mof_C 	C 	0.15866	0.71811	0.12268	-0.871
Mof_H 	H 	0.1583	0.7315	0.1092	0.268
Mof_H 	H 	0.1764	0.716	0.1291	0.276
Mof_H 	H 	0.1473	0.7233	0.1371	0.263
Mof_C 	C 	0.12785	0.68938	0.09136	-0.682
Mof_H 	H 	0.1265	0.6707	0.0883	0.207
Mof_H 	H 	0.1322	0.6982	0.0751	0.196
Mof_H 	H 	0.1112	0.6959	0.0978	0.204
Mof_C 	C 	0.22008	0.65879	0.07387	0.012
Mof_H 	H 	0.2342	0.6518	0.0643	0.004
Mof_O 	O 	0.23572	0.18384	0.52996	-0.528
Mof_O 	O 	0.2024	0.2099	0.5284	-0.657
Mof_C 	C 	0.21275	0.19247	0.53626	0.582
Mof_C 	C 	0.20671	0.18343	0.56396	-0.196
Mof_C 	C 	0.18467	0.18921	0.57155	0.083
Mof_H 	H 	0.1722	0.1961	0.5598	-0.028
Mof_C 	C 	0.17749	0.18508	0.60095	-0.129
Mof_C 	C 	0.15004	0.19486	0.61239	0.425
Mof_C 	C 	0.1497	0.17179	0.63205	-0.195
Mof_C 	C 	0.16843	0.15143	0.63296	0.095
Mof_C 	C 	0.18519	0.16146	0.60943	0.011
Mof_C 	C 	0.21056	0.14396	0.60104	-0.115
Mof_H 	H 	0.2179	0.1293	0.6095	0.034
Mof_C 	C 	0.15866	0.21811	0.62268	-0.872
Mof_H 	H 	0.1583	0.2315	0.6092	0.268
Mof_H 	H 	0.1764	0.216	0.6291	0.276
Mof_H 	H 	0.1473	0.2233	0.6371	0.263
Mof_C 	C 	0.12785	0.18938	0.59136	-0.683
Mof_H 	H 	0.1265	0.1707	0.5883	0.207
Mof_H 	H 	0.1322	0.1982	0.5751	0.196
Mof_H 	H 	0.1112	0.1959	0.5978	0.204
Mof_C 	C 	0.22008	0.15879	0.57387	0.013
Mof_H 	H 	0.2342	0.1518	0.5643	0.004
Mof_O 	O 	0.73572	0.68384	0.52996	-0.528
Mof_O 	O 	0.7024	0.7099	0.5284	-0.657
Mof_C 	C 	0.71275	0.69247	0.53626	0.582
Mof_C 	C 	0.70671	0.68343	0.56396	-0.196
Mof_C 	C 	0.68467	0.68921	0.57155	0.083
Mof_H 	H 	0.6722	0.6961	0.5598	-0.028
Mof_C 	C 	0.67749	0.68508	0.60095	-0.129
Mof_C 	C 	0.65004	0.69486	0.61239	0.425
Mof_C 	C 	0.6497	0.67179	0.63205	-0.195
Mof_C 	C 	0.66843	0.65143	0.63296	0.095
Mof_C 	C 	0.68519	0.66146	0.60943	0.011
Mof_C 	C 	0.71056	0.64396	0.60104	-0.115
Mof_H 	H 	0.7179	0.6293	0.6095	0.034
Mof_C 	C 	0.65866	0.71811	0.62268	-0.872
Mof_H 	H 	0.6583	0.7315	0.6092	0.268
Mof_H 	H 	0.6764	0.716	0.6291	0.276
Mof_H 	H 	0.6473	0.7233	0.6371	0.263
Mof_C 	C 	0.62785	0.68938	0.59136	-0.683
Mof_H 	H 	0.6265	0.6707	0.5883	0.207
Mof_H 	H 	0.6322	0.6982	0.5751	0.196
Mof_H 	H 	0.6112	0.6959	0.5978	0.204
Mof_C 	C 	0.72008	0.65879	0.57387	0.013
Mof_H 	H 	0.7342	0.6518	0.5643	0.004
Mof_O 	O 	0.73572	0.18384	0.02996	-0.528
Mof_O 	O 	0.7024	0.2099	0.0284	-0.656
Mof_C 	C 	0.71275	0.19247	0.03626	0.582
Mof_C 	C 	0.70671	0.18343	0.06396	-0.196
Mof_C 	C 	0.68467	0.18921	0.07155	0.083
Mof_H 	H 	0.6722	0.1961	0.0598	-0.028
Mof_C 	C 	0.67749	0.18508	0.10095	-0.129
Mof_C 	C 	0.65004	0.19486	0.11239	0.424
Mof_C 	C 	0.6497	0.17179	0.13205	-0.195
Mof_C 	C 	0.66843	0.15143	0.13296	0.095
Mof_C 	C 	0.68519	0.16146	0.10943	0.011
Mof_C 	C 	0.71056	0.14396	0.10104	-0.116
Mof_H 	H 	0.7179	0.1293	0.1095	0.034
Mof_C 	C 	0.65866	0.21811	0.12268	-0.872
Mof_H 	H 	0.6583	0.2315	0.1092	0.268
Mof_H 	H 	0.6764	0.216	0.1291	0.276
Mof_H 	H 	0.6473	0.2233	0.1371	0.263
Mof_C 	C 	0.62785	0.18938	0.09136	-0.683
Mof_H 	H 	0.6265	0.1707	0.0883	0.207
Mof_H 	H 	0.6322	0.1982	0.0751	0.196
Mof_H 	H 	0.6112	0.1959	0.0978	0.204
Mof_C 	C 	0.72008	0.15879	0.07387	0.012
Mof_H 	H 	0.7342	0.1518	0.0643	0.004
Mof_O 	O 	0.23572	0.31616	0.97004	-0.527
Mof_O 	O 	0.2024	0.2901	0.9716	-0.655
Mof_C 	C 	0.21275	0.30753	0.96374	0.582
Mof_C 	C 	0.20671	0.31657	0.93604	-0.196
Mof_C 	C 	0.18467	0.31079	0.92845	0.083
Mof_H 	H 	0.1722	0.3039	0.9402	-0.028
Mof_C 	C 	0.17749	0.31492	0.89905	-0.129
Mof_C 	C 	0.15004	0.30514	0.88761	0.425
Mof_C 	C 	0.1497	0.32821	0.86795	-0.195
Mof_C 	C 	0.16843	0.34857	0.86704	0.095
Mof_C 	C 	0.18519	0.33854	0.89057	0.011
Mof_C 	C 	0.21056	0.35604	0.89896	-0.115
Mof_H 	H 	0.2179	0.3707	0.8905	0.034
Mof_C 	C 	0.15866	0.28189	0.87732	-0.872
Mof_H 	H 	0.1583	0.2685	0.8908	0.268
Mof_H 	H 	0.1764	0.284	0.8709	0.276
Mof_H 	H 	0.1473	0.2767	0.8629	0.263
Mof_C 	C 	0.12785	0.31062	0.90864	-0.683
Mof_H 	H 	0.1265	0.3293	0.9117	0.207
Mof_H 	H 	0.1322	0.3018	0.9249	0.196
Mof_H 	H 	0.1112	0.3041	0.9022	0.204
Mof_C 	C 	0.22008	0.34121	0.92613	0.012
Mof_H 	H 	0.2342	0.3482	0.9357	0.004
Mof_O 	O 	0.23572	0.81616	0.47004	-0.528
Mof_O 	O 	0.2024	0.7901	0.4716	-0.657
Mof_C 	C 	0.21275	0.80753	0.46374	0.582
Mof_C 	C 	0.20671	0.81657	0.43604	-0.196
Mof_C 	C 	0.18467	0.81079	0.42845	0.083
Mof_H 	H 	0.1722	0.8039	0.4402	-0.028
Mof_C 	C 	0.17749	0.81492	0.39905	-0.129
Mof_C 	C 	0.15004	0.80514	0.38761	0.425
Mof_C 	C 	0.1497	0.82821	0.36795	-0.195
Mof_C 	C 	0.16843	0.84857	0.36704	0.095
Mof_C 	C 	0.18519	0.83854	0.39057	0.011
Mof_C 	C 	0.21056	0.85604	0.39896	-0.115
Mof_H 	H 	0.2179	0.8707	0.3905	0.034
Mof_C 	C 	0.15866	0.78189	0.37732	-0.872
Mof_H 	H 	0.1583	0.7685	0.3908	0.268
Mof_H 	H 	0.1764	0.784	0.3709	0.276
Mof_H 	H 	0.1473	0.7767	0.3629	0.263
Mof_C 	C 	0.12785	0.81062	0.40864	-0.683
Mof_H 	H 	0.1265	0.8293	0.4117	0.207
Mof_H 	H 	0.1322	0.8018	0.4249	0.196
Mof_H 	H 	0.1112	0.8041	0.4022	0.204
Mof_C 	C 	0.22008	0.84121	0.42613	0.013
Mof_H 	H 	0.2342	0.8482	0.4357	0.004
Mof_O 	O 	0.73572	0.31616	0.47004	-0.528
Mof_O 	O 	0.7024	0.2901	0.4716	-0.657
Mof_C 	C 	0.71275	0.30753	0.46374	0.582
Mof_C 	C 	0.70671	0.31657	0.43604	-0.196
Mof_C 	C 	0.68467	0.31079	0.42845	0.083
Mof_H 	H 	0.6722	0.3039	0.4402	-0.028
Mof_C 	C 	0.67749	0.31492	0.39905	-0.129
Mof_C 	C 	0.65004	0.30514	0.38761	0.425
Mof_C 	C 	0.6497	0.32821	0.36795	-0.195
Mof_C 	C 	0.66843	0.34857	0.36704	0.095
Mof_C 	C 	0.68519	0.33854	0.39057	0.011
Mof_C 	C 	0.71056	0.35604	0.39896	-0.115
Mof_H 	H 	0.7179	0.3707	0.3905	0.034
Mof_C 	C 	0.65866	0.28189	0.37732	-0.872
Mof_H 	H 	0.6583	0.2685	0.3908	0.268
Mof_H 	H 	0.6764	0.284	0.3709	0.276
Mof_H 	H 	0.6473	0.2767	0.3629	0.263
Mof_C 	C 	0.62785	0.31062	0.40864	-0.683
Mof_H 	H 	0.6265	0.3293	0.4117	0.207
Mof_H 	H 	0.6322	0.3018	0.4249	0.196
Mof_H 	H 	0.6112	0.3041	0.4022	0.204
Mof_C 	C 	0.72008	0.34121	0.42613	0.013
Mof_H 	H 	0.7342	0.3482	0.4357	0.004
Mof_O 	O 	0.73572	0.81616	0.97004	-0.527
Mof_O 	O 	0.7024	0.7901	0.9716	-0.655
Mof_C 	C 	0.71275	0.80753	0.96374	0.582
Mof_C 	C 	0.70671	0.81657	0.93604	-0.196
Mof_C 	C 	0.68467	0.81079	0.92845	0.083
Mof_H 	H 	0.6722	0.8039	0.9402	-0.028
Mof_C 	C 	0.67749	0.81492	0.89905	-0.129
Mof_C 	C 	0.65004	0.80514	0.88761	0.425
Mof_C 	C 	0.6497	0.82821	0.86795	-0.195
Mof_C 	C 	0.66843	0.84857	0.86704	0.096
Mof_C 	C 	0.68519	0.83854	0.89057	0.011
Mof_C 	C 	0.71056	0.85604	0.89896	-0.115
Mof_H 	H 	0.7179	0.8707	0.8905	0.034
Mof_C 	C 	0.65866	0.78189	0.87732	-0.872
Mof_H 	H 	0.6583	0.7685	0.8908	0.268
Mof_H 	H 	0.6764	0.784	0.8709	0.276
Mof_H 	H 	0.6473	0.7767	0.8629	0.263
Mof_C 	C 	0.62785	0.81062	0.90864	-0.683
Mof_H 	H 	0.6265	0.8293	0.9117	0.207
Mof_H 	H 	0.6322	0.8018	0.9249	0.196
Mof_H 	H 	0.6112	0.8041	0.9022	0.204
Mof_C 	C 	0.72008	0.84121	0.92613	0.012
Mof_H 	H 	0.7342	0.8482	0.9357	0.004
Mof_O 	O 	0.76428	0.31616	0.02996	-0.528
Mof_O 	O 	0.7976	0.2901	0.0284	-0.656
Mof_C 	C 	0.78725	0.30753	0.03626	0.582
Mof_C 	C 	0.79329	0.31657	0.06396	-0.196
Mof_C 	C 	0.81533	0.31079	0.07155	0.083
Mof_H 	H 	0.8278	0.3039	0.0598	-0.028
Mof_C 	C 	0.82251	0.31492	0.10095	-0.129
Mof_C 	C 	0.84996	0.30514	0.11239	0.425
Mof_C 	C 	0.8503	0.32821	0.13205	-0.195
Mof_C 	C 	0.83157	0.34857	0.13296	0.095
Mof_C 	C 	0.81481	0.33854	0.10943	0.011
Mof_C 	C 	0.78944	0.35604	0.10104	-0.115
Mof_H 	H 	0.7821	0.3707	0.1095	0.034
Mof_C 	C 	0.84134	0.28189	0.12268	-0.872
Mof_H 	H 	0.8417	0.2685	0.1092	0.268
Mof_H 	H 	0.8236	0.284	0.1291	0.276
Mof_H 	H 	0.8527	0.2767	0.1371	0.263
Mof_C 	C 	0.87215	0.31062	0.09136	-0.683
Mof_H 	H 	0.8735	0.3293	0.0883	0.207
Mof_H 	H 	0.8678	0.3018	0.0751	0.196
Mof_H 	H 	0.8888	0.3041	0.0978	0.204
Mof_C 	C 	0.77992	0.34121	0.07387	0.012
Mof_H 	H 	0.7658	0.3482	0.0643	0.004
Mof_O 	O 	0.76428	0.81616	0.52996	-0.528
Mof_O 	O 	0.7976	0.7901	0.5284	-0.657
Mof_C 	C 	0.78725	0.80753	0.53626	0.582
Mof_C 	C 	0.79329	0.81657	0.56396	-0.196
Mof_C 	C 	0.81533	0.81079	0.57155	0.083
Mof_H 	H 	0.8278	0.8039	0.5598	-0.028
Mof_C 	C 	0.82251	0.81492	0.60095	-0.129
Mof_C 	C 	0.84996	0.80514	0.61239	0.425
Mof_C 	C 	0.8503	0.82821	0.63205	-0.195
Mof_C 	C 	0.83157	0.84857	0.63296	0.095
Mof_C 	C 	0.81481	0.83854	0.60943	0.011
Mof_C 	C 	0.78944	0.85604	0.60104	-0.115
Mof_H 	H 	0.7821	0.8707	0.6095	0.034
Mof_C 	C 	0.84134	0.78189	0.62268	-0.872
Mof_H 	H 	0.8417	0.7685	0.6092	0.268
Mof_H 	H 	0.8236	0.784	0.6291	0.276
Mof_H 	H 	0.8527	0.7767	0.6371	0.263
Mof_C 	C 	0.87215	0.81062	0.59136	-0.683
Mof_H 	H 	0.8735	0.8293	0.5883	0.207
Mof_H 	H 	0.8678	0.8018	0.5751	0.196
Mof_H 	H 	0.8888	0.8041	0.5978	0.204
Mof_C 	C 	0.77992	0.84121	0.57387	0.013
Mof_H 	H 	0.7658	0.8482	0.5643	0.004
Mof_O 	O 	0.26428	0.31616	0.52996	-0.528
Mof_O 	O 	0.2976	0.2901	0.5284	-0.657
Mof_C 	C 	0.28725	0.30753	0.53626	0.582
Mof_C 	C 	0.29329	0.31657	0.56396	-0.196
Mof_C 	C 	0.31533	0.31079	0.57155	0.083
Mof_H 	H 	0.3278	0.3039	0.5598	-0.028
Mof_C 	C 	0.32251	0.31492	0.60095	-0.129
Mof_C 	C 	0.34996	0.30514	0.61239	0.425
Mof_C 	C 	0.3503	0.32821	0.63205	-0.195
Mof_C 	C 	0.33157	0.34857	0.63296	0.095
Mof_C 	C 	0.31481	0.33854	0.60943	0.011
Mof_C 	C 	0.28944	0.35604	0.60104	-0.115
Mof_H 	H 	0.2821	0.3707	0.6095	0.034
Mof_C 	C 	0.34134	0.28189	0.62268	-0.872
Mof_H 	H 	0.3417	0.2685	0.6092	0.268
Mof_H 	H 	0.3236	0.284	0.6291	0.276
Mof_H 	H 	0.3527	0.2767	0.6371	0.263
Mof_C 	C 	0.37215	0.31062	0.59136	-0.683
Mof_H 	H 	0.3735	0.3293	0.5883	0.207
Mof_H 	H 	0.3678	0.3018	0.5751	0.196
Mof_H 	H 	0.3888	0.3041	0.5978	0.204
Mof_C 	C 	0.27992	0.34121	0.57387	0.013
Mof_H 	H 	0.2658	0.3482	0.5643	0.004
Mof_O 	O 	0.26428	0.81616	0.02996	-0.528
Mof_O 	O 	0.2976	0.7901	0.0284	-0.656
Mof_C 	C 	0.28725	0.80753	0.03626	0.582
Mof_C 	C 	0.29329	0.81657	0.06396	-0.196
Mof_C 	C 	0.31533	0.81079	0.07155	0.083
Mof_H 	H 	0.3278	0.8039	0.0598	-0.028
Mof_C 	C 	0.32251	0.81492	0.10095	-0.129
Mof_C 	C 	0.34996	0.80514	0.11239	0.425
Mof_C 	C 	0.3503	0.82821	0.13205	-0.195
Mof_C 	C 	0.33157	0.84857	0.13296	0.095
Mof_C 	C 	0.31481	0.83854	0.10943	0.011
Mof_C 	C 	0.28944	0.85604	0.10104	-0.115
Mof_H 	H 	0.2821	0.8707	0.1095	0.034
Mof_C 	C 	0.34134	0.78189	0.12268	-0.872
Mof_H 	H 	0.3417	0.7685	0.1092	0.268
Mof_H 	H 	0.3236	0.784	0.1291	0.276
Mof_H 	H 	0.3527	0.7767	0.1371	0.263
Mof_C 	C 	0.37215	0.81062	0.09136	-0.683
Mof_H 	H 	0.3735	0.8293	0.0883	0.207
Mof_H 	H 	0.3678	0.8018	0.0751	0.196
Mof_H 	H 	0.3888	0.8041	0.0978	0.204
Mof_C 	C 	0.27992	0.84121	0.07387	0.012
Mof_H 	H 	0.2658	0.8482	0.0643	0.004
Mof_O 	O 	0.68384	0.02996	0.23572	-0.528
Mof_O 	O 	0.7099	0.0284	0.2024	-0.656
Mof_C 	C 	0.69247	0.03626	0.21275	0.582
Mof_C 	C 	0.68343	0.06396	0.20671	-0.196
Mof_C 	C 	0.68921	0.07155	0.18467	0.083
Mof_H 	H 	0.6961	0.0598	0.1722	-0.028
Mof_C 	C 	0.68508	0.10095	0.17749	-0.129
Mof_C 	C 	0.69486	0.11239	0.15004	0.424
Mof_C 	C 	0.67179	0.13205	0.1497	-0.195
Mof_C 	C 	0.65143	0.13296	0.16843	0.095
Mof_C 	C 	0.66146	0.10943	0.18519	0.011
Mof_C 	C 	0.64396	0.10104	0.21056	-0.115
Mof_H 	H 	0.6293	0.1095	0.2179	0.034
Mof_C 	C 	0.71811	0.12268	0.15866	-0.871
Mof_H 	H 	0.7315	0.1092	0.1583	0.268
Mof_H 	H 	0.716	0.1291	0.1764	0.276
Mof_H 	H 	0.7233	0.1371	0.1473	0.263
Mof_C 	C 	0.68938	0.09136	0.12785	-0.682
Mof_H 	H 	0.6707	0.0883	0.1265	0.207
Mof_H 	H 	0.6982	0.0751	0.1322	0.196
Mof_H 	H 	0.6959	0.0978	0.1112	0.204
Mof_C 	C 	0.65879	0.07387	0.22008	0.012
Mof_H 	H 	0.6518	0.0643	0.2342	0.004
Mof_O 	O 	0.68384	0.52996	0.73572	-0.528
Mof_O 	O 	0.7099	0.5284	0.7024	-0.657
Mof_C 	C 	0.69247	0.53626	0.71275	0.582
Mof_C 	C 	0.68343	0.56396	0.70671	-0.196
Mof_C 	C 	0.68921	0.57155	0.68467	0.083
Mof_H 	H 	0.6961	0.5598	0.6722	-0.028
Mof_C 	C 	0.68508	0.60095	0.67749	-0.129
Mof_C 	C 	0.69486	0.61239	0.65004	0.425
Mof_C 	C 	0.67179	0.63205	0.6497	-0.195
Mof_C 	C 	0.65143	0.63296	0.66843	0.095
Mof_C 	C 	0.66146	0.60943	0.68519	0.011
Mof_C 	C 	0.64396	0.60104	0.71056	-0.115
Mof_H 	H 	0.6293	0.6095	0.7179	0.034
Mof_C 	C 	0.71811	0.62268	0.65866	-0.872
Mof_H 	H 	0.7315	0.6092	0.6583	0.268
Mof_H 	H 	0.716	0.6291	0.6764	0.276
Mof_H 	H 	0.7233	0.6371	0.6473	0.263
Mof_C 	C 	0.68938	0.59136	0.62785	-0.683
Mof_H 	H 	0.6707	0.5883	0.6265	0.207
Mof_H 	H 	0.6982	0.5751	0.6322	0.196
Mof_H 	H 	0.6959	0.5978	0.6112	0.204
Mof_C 	C 	0.65879	0.57387	0.72008	0.013
Mof_H 	H 	0.6518	0.5643	0.7342	0.004
Mof_O 	O 	0.18384	0.02996	0.73572	-0.528
Mof_O 	O 	0.2099	0.0284	0.7024	-0.656
Mof_C 	C 	0.19247	0.03626	0.71275	0.582
Mof_C 	C 	0.18343	0.06396	0.70671	-0.196
Mof_C 	C 	0.18921	0.07155	0.68467	0.083
Mof_H 	H 	0.1961	0.0598	0.6722	-0.028
Mof_C 	C 	0.18508	0.10095	0.67749	-0.129
Mof_C 	C 	0.19486	0.11239	0.65004	0.424
Mof_C 	C 	0.17179	0.13205	0.6497	-0.195
Mof_C 	C 	0.15143	0.13296	0.66843	0.095
Mof_C 	C 	0.16146	0.10943	0.68519	0.011
Mof_C 	C 	0.14396	0.10104	0.71056	-0.116
Mof_H 	H 	0.1293	0.1095	0.7179	0.034
Mof_C 	C 	0.21811	0.12268	0.65866	-0.872
Mof_H 	H 	0.2315	0.1092	0.6583	0.268
Mof_H 	H 	0.216	0.1291	0.6764	0.276
Mof_H 	H 	0.2233	0.1371	0.6473	0.263
Mof_C 	C 	0.18938	0.09136	0.62785	-0.683
Mof_H 	H 	0.1707	0.0883	0.6265	0.207
Mof_H 	H 	0.1982	0.0751	0.6322	0.196
Mof_H 	H 	0.1959	0.0978	0.6112	0.204
Mof_C 	C 	0.15879	0.07387	0.72008	0.012
Mof_H 	H 	0.1518	0.0643	0.7342	0.004
Mof_O 	O 	0.18384	0.52996	0.23572	-0.528
Mof_O 	O 	0.2099	0.5284	0.2024	-0.657
Mof_C 	C 	0.19247	0.53626	0.21275	0.582
Mof_C 	C 	0.18343	0.56396	0.20671	-0.196
Mof_C 	C 	0.18921	0.57155	0.18467	0.083
Mof_H 	H 	0.1961	0.5598	0.1722	-0.028
Mof_C 	C 	0.18508	0.60095	0.17749	-0.129
Mof_C 	C 	0.19486	0.61239	0.15004	0.425
Mof_C 	C 	0.17179	0.63205	0.1497	-0.195
Mof_C 	C 	0.15143	0.63296	0.16843	0.095
Mof_C 	C 	0.16146	0.60943	0.18519	0.011
Mof_C 	C 	0.14396	0.60104	0.21056	-0.115
Mof_H 	H 	0.1293	0.6095	0.2179	0.034
Mof_C 	C 	0.21811	0.62268	0.15866	-0.872
Mof_H 	H 	0.2315	0.6092	0.1583	0.268
Mof_H 	H 	0.216	0.6291	0.1764	0.276
Mof_H 	H 	0.2233	0.6371	0.1473	0.263
Mof_C 	C 	0.18938	0.59136	0.12785	-0.683
Mof_H 	H 	0.1707	0.5883	0.1265	0.207
Mof_H 	H 	0.1982	0.5751	0.1322	0.196
Mof_H 	H 	0.1959	0.5978	0.1112	0.204
Mof_C 	C 	0.15879	0.57387	0.22008	0.013
Mof_H 	H 	0.1518	0.5643	0.2342	0.004
Mof_O 	O 	0.68384	0.97004	0.76428	-0.527
Mof_O 	O 	0.7099	0.9716	0.7976	-0.655
Mof_C 	C 	0.69247	0.96374	0.78725	0.582
Mof_C 	C 	0.68343	0.93604	0.79329	-0.196
Mof_C 	C 	0.68921	0.92845	0.81533	0.083
Mof_H 	H 	0.6961	0.9402	0.8278	-0.028
Mof_C 	C 	0.68508	0.89905	0.82251	-0.129
Mof_C 	C 	0.69486	0.88761	0.84996	0.425
Mof_C 	C 	0.67179	0.86795	0.8503	-0.195
Mof_C 	C 	0.65143	0.86704	0.83157	0.095
Mof_C 	C 	0.66146	0.89057	0.81481	0.011
Mof_C 	C 	0.64396	0.89896	0.78944	-0.115
Mof_H 	H 	0.6293	0.8905	0.7821	0.034
Mof_C 	C 	0.71811	0.87732	0.84134	-0.872
Mof_H 	H 	0.7315	0.8908	0.8417	0.268
Mof_H 	H 	0.716	0.8709	0.8236	0.276
Mof_H 	H 	0.7233	0.8629	0.8527	0.263
Mof_C 	C 	0.68938	0.90864	0.87215	-0.684
Mof_H 	H 	0.6707	0.9117	0.8735	0.207
Mof_H 	H 	0.6982	0.9249	0.8678	0.196
Mof_H 	H 	0.6959	0.9022	0.8888	0.205
Mof_C 	C 	0.65879	0.92613	0.77992	0.012
Mof_H 	H 	0.6518	0.9357	0.7658	0.004
Mof_O 	O 	0.68384	0.47004	0.26428	-0.528
Mof_O 	O 	0.7099	0.4716	0.2976	-0.657
Mof_C 	C 	0.69247	0.46374	0.28725	0.582
Mof_C 	C 	0.68343	0.43604	0.29329	-0.196
Mof_C 	C 	0.68921	0.42845	0.31533	0.083
Mof_H 	H 	0.6961	0.4402	0.3278	-0.028
Mof_C 	C 	0.68508	0.39905	0.32251	-0.129
Mof_C 	C 	0.69486	0.38761	0.34996	0.425
Mof_C 	C 	0.67179	0.36795	0.3503	-0.195
Mof_C 	C 	0.65143	0.36704	0.33157	0.095
Mof_C 	C 	0.66146	0.39057	0.31481	0.011
Mof_C 	C 	0.64396	0.39896	0.28944	-0.115
Mof_H 	H 	0.6293	0.3905	0.2821	0.034
Mof_C 	C 	0.71811	0.37732	0.34134	-0.872
Mof_H 	H 	0.7315	0.3908	0.3417	0.268
Mof_H 	H 	0.716	0.3709	0.3236	0.276
Mof_H 	H 	0.7233	0.3629	0.3527	0.263
Mof_C 	C 	0.68938	0.40864	0.37215	-0.683
Mof_H 	H 	0.6707	0.4117	0.3735	0.207
Mof_H 	H 	0.6982	0.4249	0.3678	0.196
Mof_H 	H 	0.6959	0.4022	0.3888	0.204
Mof_C 	C 	0.65879	0.42613	0.27992	0.013
Mof_H 	H 	0.6518	0.4357	0.2658	0.004
Mof_O 	O 	0.18384	0.97004	0.26428	-0.527
Mof_O 	O 	0.2099	0.9716	0.2976	-0.655
Mof_C 	C 	0.19247	0.96374	0.28725	0.582
Mof_C 	C 	0.18343	0.93604	0.29329	-0.196
Mof_C 	C 	0.18921	0.92845	0.31533	0.083
Mof_H 	H 	0.1961	0.9402	0.3278	-0.028
Mof_C 	C 	0.18508	0.89905	0.32251	-0.129
Mof_C 	C 	0.19486	0.88761	0.34996	0.425
Mof_C 	C 	0.17179	0.86795	0.3503	-0.195
Mof_C 	C 	0.15143	0.86704	0.33157	0.095
Mof_C 	C 	0.16146	0.89057	0.31481	0.011
Mof_C 	C 	0.14396	0.89896	0.28944	-0.115
Mof_H 	H 	0.1293	0.8905	0.2821	0.034
Mof_C 	C 	0.21811	0.87732	0.34134	-0.872
Mof_H 	H 	0.2315	0.8908	0.3417	0.268
Mof_H 	H 	0.216	0.8709	0.3236	0.276
Mof_H 	H 	0.2233	0.8629	0.3527	0.263
Mof_C 	C 	0.18938	0.90864	0.37215	-0.683
Mof_H 	H 	0.1707	0.9117	0.3735	0.207
Mof_H 	H 	0.1982	0.9249	0.3678	0.196
Mof_H 	H 	0.1959	0.9022	0.3888	0.204
Mof_C 	C 	0.15879	0.92613	0.27992	0.012
Mof_H 	H 	0.1518	0.9357	0.2658	0.004
Mof_O 	O 	0.18384	0.47004	0.76428	-0.528
Mof_O 	O 	0.2099	0.4716	0.7976	-0.657
Mof_C 	C 	0.19247	0.46374	0.78725	0.582
Mof_C 	C 	0.18343	0.43604	0.79329	-0.196
Mof_C 	C 	0.18921	0.42845	0.81533	0.083
Mof_H 	H 	0.1961	0.4402	0.8278	-0.028
Mof_C 	C 	0.18508	0.39905	0.82251	-0.129
Mof_C 	C 	0.19486	0.38761	0.84996	0.425
Mof_C 	C 	0.17179	0.36795	0.8503	-0.195
Mof_C 	C 	0.15143	0.36704	0.83157	0.095
Mof_C 	C 	0.16146	0.39057	0.81481	0.011
Mof_C 	C 	0.14396	0.39896	0.78944	-0.115
Mof_H 	H 	0.1293	0.3905	0.7821	0.034
Mof_C 	C 	0.21811	0.37732	0.84134	-0.872
Mof_H 	H 	0.2315	0.3908	0.8417	0.268
Mof_H 	H 	0.216	0.3709	0.8236	0.276
Mof_H 	H 	0.2233	0.3629	0.8527	0.263
Mof_C 	C 	0.18938	0.40864	0.87215	-0.683
Mof_H 	H 	0.1707	0.4117	0.8735	0.207
Mof_H 	H 	0.1982	0.4249	0.8678	0.196
Mof_H 	H 	0.1959	0.4022	0.8888	0.204
Mof_C 	C 	0.15879	0.42613	0.77992	0.013
Mof_H 	H 	0.1518	0.4357	0.7658	0.004
Mof_O 	O 	0.31616	0.02996	0.76428	-0.528
Mof_O 	O 	0.2901	0.0284	0.7976	-0.656
Mof_C 	C 	0.30753	0.03626	0.78725	0.582
Mof_C 	C 	0.31657	0.06396	0.79329	-0.196
Mof_C 	C 	0.31079	0.07155	0.81533	0.083
Mof_H 	H 	0.3039	0.0598	0.8278	-0.028
Mof_C 	C 	0.31492	0.10095	0.82251	-0.129
Mof_C 	C 	0.30514	0.11239	0.84996	0.425
Mof_C 	C 	0.32821	0.13205	0.8503	-0.195
Mof_C 	C 	0.34857	0.13296	0.83157	0.095
Mof_C 	C 	0.33854	0.10943	0.81481	0.011
Mof_C 	C 	0.35604	0.10104	0.78944	-0.115
Mof_H 	H 	0.3707	0.1095	0.7821	0.034
Mof_C 	C 	0.28189	0.12268	0.84134	-0.872
Mof_H 	H 	0.2685	0.1092	0.8417	0.268
Mof_H 	H 	0.284	0.1291	0.8236	0.276
Mof_H 	H 	0.2767	0.1371	0.8527	0.263
Mof_C 	C 	0.31062	0.09136	0.87215	-0.683
Mof_H 	H 	0.3293	0.0883	0.8735	0.207
Mof_H 	H 	0.3018	0.0751	0.8678	0.196
Mof_H 	H 	0.3041	0.0978	0.8888	0.204
Mof_C 	C 	0.34121	0.07387	0.77992	0.012
Mof_H 	H 	0.3482	0.0643	0.7658	0.004
Mof_O 	O 	0.31616	0.52996	0.26428	-0.528
Mof_O 	O 	0.2901	0.5284	0.2976	-0.657
Mof_C 	C 	0.30753	0.53626	0.28725	0.582
Mof_C 	C 	0.31657	0.56396	0.29329	-0.196
Mof_C 	C 	0.31079	0.57155	0.31533	0.083
Mof_H 	H 	0.3039	0.5598	0.3278	-0.028
Mof_C 	C 	0.31492	0.60095	0.32251	-0.129
Mof_C 	C 	0.30514	0.61239	0.34996	0.425
Mof_C 	C 	0.32821	0.63205	0.3503	-0.195
Mof_C 	C 	0.34857	0.63296	0.33157	0.095
Mof_C 	C 	0.33854	0.60943	0.31481	0.011
Mof_C 	C 	0.35604	0.60104	0.28944	-0.115
Mof_H 	H 	0.3707	0.6095	0.2821	0.034
Mof_C 	C 	0.28189	0.62268	0.34134	-0.872
Mof_H 	H 	0.2685	0.6092	0.3417	0.268
Mof_H 	H 	0.284	0.6291	0.3236	0.276
Mof_H 	H 	0.2767	0.6371	0.3527	0.263
Mof_C 	C 	0.31062	0.59136	0.37215	-0.683
Mof_H 	H 	0.3293	0.5883	0.3735	0.207
Mof_H 	H 	0.3018	0.5751	0.3678	0.196
Mof_H 	H 	0.3041	0.5978	0.3888	0.204
Mof_C 	C 	0.34121	0.57387	0.27992	0.013
Mof_H 	H 	0.3482	0.5643	0.2658	0.004
Mof_O 	O 	0.81616	0.02996	0.26428	-0.528
Mof_O 	O 	0.7901	0.0284	0.2976	-0.656
Mof_C 	C 	0.80753	0.03626	0.28725	0.582
Mof_C 	C 	0.81657	0.06396	0.29329	-0.196
Mof_C 	C 	0.81079	0.07155	0.31533	0.083
Mof_H 	H 	0.8039	0.0598	0.3278	-0.028
Mof_C 	C 	0.81492	0.10095	0.32251	-0.129
Mof_C 	C 	0.80514	0.11239	0.34996	0.425
Mof_C 	C 	0.82821	0.13205	0.3503	-0.195
Mof_C 	C 	0.84857	0.13296	0.33157	0.095
Mof_C 	C 	0.83854	0.10943	0.31481	0.011
Mof_C 	C 	0.85604	0.10104	0.28944	-0.115
Mof_H 	H 	0.8707	0.1095	0.2821	0.034
Mof_C 	C 	0.78189	0.12268	0.34134	-0.872
Mof_H 	H 	0.7685	0.1092	0.3417	0.268
Mof_H 	H 	0.784	0.1291	0.3236	0.276
Mof_H 	H 	0.7767	0.1371	0.3527	0.263
Mof_C 	C 	0.81062	0.09136	0.37215	-0.683
Mof_H 	H 	0.8293	0.0883	0.3735	0.207
Mof_H 	H 	0.8018	0.0751	0.3678	0.196
Mof_H 	H 	0.8041	0.0978	0.3888	0.204
Mof_C 	C 	0.84121	0.07387	0.27992	0.012
Mof_H 	H 	0.8482	0.0643	0.2658	0.004
Mof_O 	O 	0.81616	0.52996	0.76428	-0.528
Mof_O 	O 	0.7901	0.5284	0.7976	-0.657
Mof_C 	C 	0.80753	0.53626	0.78725	0.582
Mof_C 	C 	0.81657	0.56396	0.79329	-0.196
Mof_C 	C 	0.81079	0.57155	0.81533	0.083
Mof_H 	H 	0.8039	0.5598	0.8278	-0.028
Mof_C 	C 	0.81492	0.60095	0.82251	-0.129
Mof_C 	C 	0.80514	0.61239	0.84996	0.425
Mof_C 	C 	0.82821	0.63205	0.8503	-0.195
Mof_C 	C 	0.84857	0.63296	0.83157	0.095
Mof_C 	C 	0.83854	0.60943	0.81481	0.011
Mof_C 	C 	0.85604	0.60104	0.78944	-0.115
Mof_H 	H 	0.8707	0.6095	0.7821	0.034
Mof_C 	C 	0.78189	0.62268	0.84134	-0.872
Mof_H 	H 	0.7685	0.6092	0.8417	0.268
Mof_H 	H 	0.784	0.6291	0.8236	0.276
Mof_H 	H 	0.7767	0.6371	0.8527	0.263
Mof_C 	C 	0.81062	0.59136	0.87215	-0.683
Mof_H 	H 	0.8293	0.5883	0.8735	0.207
Mof_H 	H 	0.8018	0.5751	0.8678	0.196
Mof_H 	H 	0.8041	0.5978	0.8888	0.204
Mof_C 	C 	0.84121	0.57387	0.77992	0.013
Mof_H 	H 	0.8482	0.5643	0.7658	0.004
Mof_O 	O 	0.31616	0.97004	0.23572	-0.527
Mof_O 	O 	0.2901	0.9716	0.2024	-0.655
Mof_C 	C 	0.30753	0.96374	0.21275	0.582
Mof_C 	C 	0.31657	0.93604	0.20671	-0.196
Mof_C 	C 	0.31079	0.92845	0.18467	0.083
Mof_H 	H 	0.3039	0.9402	0.1722	-0.028
Mof_C 	C 	0.31492	0.89905	0.17749	-0.129
Mof_C 	C 	0.30514	0.88761	0.15004	0.425
Mof_C 	C 	0.32821	0.86795	0.1497	-0.195
Mof_C 	C 	0.34857	0.86704	0.16843	0.095
Mof_C 	C 	0.33854	0.89057	0.18519	0.011
Mof_C 	C 	0.35604	0.89896	0.21056	-0.115
Mof_H 	H 	0.3707	0.8905	0.2179	0.034
Mof_C 	C 	0.28189	0.87732	0.15866	-0.872
Mof_H 	H 	0.2685	0.8908	0.1583	0.268
Mof_H 	H 	0.284	0.8709	0.1764	0.276
Mof_H 	H 	0.2767	0.8629	0.1473	0.263
Mof_C 	C 	0.31062	0.90864	0.12785	-0.683
Mof_H 	H 	0.3293	0.9117	0.1265	0.207
Mof_H 	H 	0.3018	0.9249	0.1322	0.196
Mof_H 	H 	0.3041	0.9022	0.1112	0.204
Mof_C 	C 	0.34121	0.92613	0.22008	0.012
Mof_H 	H 	0.3482	0.9357	0.2342	0.004
Mof_O 	O 	0.31616	0.47004	0.73572	-0.528
Mof_O 	O 	0.2901	0.4716	0.7024	-0.657
Mof_C 	C 	0.30753	0.46374	0.71275	0.582
Mof_C 	C 	0.31657	0.43604	0.70671	-0.196
Mof_C 	C 	0.31079	0.42845	0.68467	0.083
Mof_H 	H 	0.3039	0.4402	0.6722	-0.028
Mof_C 	C 	0.31492	0.39905	0.67749	-0.129
Mof_C 	C 	0.30514	0.38761	0.65004	0.425
Mof_C 	C 	0.32821	0.36795	0.6497	-0.195
Mof_C 	C 	0.34857	0.36704	0.66843	0.095
Mof_C 	C 	0.33854	0.39057	0.68519	0.011
Mof_C 	C 	0.35604	0.39896	0.71056	-0.115
Mof_H 	H 	0.3707	0.3905	0.7179	0.034
Mof_C 	C 	0.28189	0.37732	0.65866	-0.872
Mof_H 	H 	0.2685	0.3908	0.6583	0.268
Mof_H 	H 	0.284	0.3709	0.6764	0.276
Mof_H 	H 	0.2767	0.3629	0.6473	0.263
Mof_C 	C 	0.31062	0.40864	0.62785	-0.683
Mof_H 	H 	0.3293	0.4117	0.6265	0.207
Mof_H 	H 	0.3018	0.4249	0.6322	0.196
Mof_H 	H 	0.3041	0.4022	0.6112	0.204
Mof_C 	C 	0.34121	0.42613	0.72008	0.013
Mof_H 	H 	0.3482	0.4357	0.7342	0.004
Mof_O 	O 	0.81616	0.97004	0.73572	-0.527
Mof_O 	O 	0.7901	0.9716	0.7024	-0.655
Mof_C 	C 	0.80753	0.96374	0.71275	0.582
Mof_C 	C 	0.81657	0.93604	0.70671	-0.196
Mof_C 	C 	0.81079	0.92845	0.68467	0.083
Mof_H 	H 	0.8039	0.9402	0.6722	-0.028
Mof_C 	C 	0.81492	0.89905	0.67749	-0.129
Mof_C 	C 	0.80514	0.88761	0.65004	0.425
Mof_C 	C 	0.82821	0.86795	0.6497	-0.195
Mof_C 	C 	0.84857	0.86704	0.66843	0.096
Mof_C 	C 	0.83854	0.89057	0.68519	0.011
Mof_C 	C 	0.85604	0.89896	0.71056	-0.115
Mof_H 	H 	0.8707	0.8905	0.7179	0.034
Mof_C 	C 	0.78189	0.87732	0.65866	-0.872
Mof_H 	H 	0.7685	0.8908	0.6583	0.268
Mof_H 	H 	0.784	0.8709	0.6764	0.276
Mof_H 	H 	0.7767	0.8629	0.6473	0.263
Mof_C 	C 	0.81062	0.90864	0.62785	-0.683
Mof_H 	H 	0.8293	0.9117	0.6265	0.207
Mof_H 	H 	0.8018	0.9249	0.6322	0.196
Mof_H 	H 	0.8041	0.9022	0.6112	0.204
Mof_C 	C 	0.84121	0.92613	0.72008	0.012
Mof_H 	H 	0.8482	0.9357	0.7342	0.004
Mof_O 	O 	0.81616	0.47004	0.23572	-0.528
Mof_O 	O 	0.7901	0.4716	0.2024	-0.657
Mof_C 	C 	0.80753	0.46374	0.21275	0.582
Mof_C 	C 	0.81657	0.43604	0.20671	-0.196
Mof_C 	C 	0.81079	0.42845	0.18467	0.083
Mof_H 	H 	0.8039	0.4402	0.1722	-0.028
Mof_C 	C 	0.81492	0.39905	0.17749	-0.129
Mof_C 	C 	0.80514	0.38761	0.15004	0.425
Mof_C 	C 	0.82821	0.36795	0.1497	-0.195
Mof_C 	C 	0.84857	0.36704	0.16843	0.095
Mof_C 	C 	0.83854	0.39057	0.18519	0.011
Mof_C 	C 	0.85604	0.39896	0.21056	-0.115
Mof_H 	H 	0.8707	0.3905	0.2179	0.034
Mof_C 	C 	0.78189	0.37732	0.15866	-0.872
Mof_H 	H 	0.7685	0.3908	0.1583	0.268
Mof_H 	H 	0.784	0.3709	0.1764	0.276
Mof_H 	H 	0.7767	0.3629	0.1473	0.263
Mof_C 	C 	0.81062	0.40864	0.12785	-0.683
Mof_H 	H 	0.8293	0.4117	0.1265	0.207
Mof_H 	H 	0.8018	0.4249	0.1322	0.196
Mof_H 	H 	0.8041	0.4022	0.1112	0.204
Mof_C 	C 	0.84121	0.42613	0.22008	0.013
Mof_H 	H 	0.8482	0.4357	0.2342	0.004
Mof_O 	O 	0.73572	0.47004	0.81616	-0.528
Mof_O 	O 	0.7024	0.4716	0.7901	-0.657
Mof_C 	C 	0.71275	0.46374	0.80753	0.582
Mof_C 	C 	0.70671	0.43604	0.81657	-0.196
Mof_C 	C 	0.68467	0.42845	0.81079	0.083
Mof_H 	H 	0.6722	0.4402	0.8039	-0.028
Mof_C 	C 	0.67749	0.39905	0.81492	-0.129
Mof_C 	C 	0.65004	0.38761	0.80514	0.425
Mof_C 	C 	0.6497	0.36795	0.82821	-0.195
Mof_C 	C 	0.66843	0.36704	0.84857	0.095
Mof_C 	C 	0.68519	0.39057	0.83854	0.011
Mof_C 	C 	0.71056	0.39896	0.85604	-0.115
Mof_H 	H 	0.7179	0.3905	0.8707	0.034
Mof_C 	C 	0.65866	0.37732	0.78189	-0.872
Mof_H 	H 	0.6583	0.3908	0.7685	0.268
Mof_H 	H 	0.6764	0.3709	0.784	0.276
Mof_H 	H 	0.6473	0.3629	0.7767	0.263
Mof_C 	C 	0.62785	0.40864	0.81062	-0.683
Mof_H 	H 	0.6265	0.4117	0.8293	0.207
Mof_H 	H 	0.6322	0.4249	0.8018	0.196
Mof_H 	H 	0.6112	0.4022	0.8041	0.204
Mof_C 	C 	0.72008	0.42613	0.84121	0.013
Mof_H 	H 	0.7342	0.4357	0.8482	0.004
Mof_O 	O 	0.73572	0.97004	0.31616	-0.527
Mof_O 	O 	0.7024	0.9716	0.2901	-0.655
Mof_C 	C 	0.71275	0.96374	0.30753	0.582
Mof_C 	C 	0.70671	0.93604	0.31657	-0.196
Mof_C 	C 	0.68467	0.92845	0.31079	0.083
Mof_H 	H 	0.6722	0.9402	0.3039	-0.028
Mof_C 	C 	0.67749	0.89905	0.31492	-0.129
Mof_C 	C 	0.65004	0.88761	0.30514	0.425
Mof_C 	C 	0.6497	0.86795	0.32821	-0.195
Mof_C 	C 	0.66843	0.86704	0.34857	0.095
Mof_C 	C 	0.68519	0.89057	0.33854	0.011
Mof_C 	C 	0.71056	0.89896	0.35604	-0.115
Mof_H 	H 	0.7179	0.8905	0.3707	0.034
Mof_C 	C 	0.65866	0.87732	0.28189	-0.872
Mof_H 	H 	0.6583	0.8908	0.2685	0.268
Mof_H 	H 	0.6764	0.8709	0.284	0.276
Mof_H 	H 	0.6473	0.8629	0.2767	0.263
Mof_C 	C 	0.62785	0.90864	0.31062	-0.683
Mof_H 	H 	0.6265	0.9117	0.3293	0.207
Mof_H 	H 	0.6322	0.9249	0.3018	0.196
Mof_H 	H 	0.6112	0.9022	0.3041	0.204
Mof_C 	C 	0.72008	0.92613	0.34121	0.012
Mof_H 	H 	0.7342	0.9357	0.3482	0.004
Mof_O 	O 	0.23572	0.47004	0.31616	-0.528
Mof_O 	O 	0.2024	0.4716	0.2901	-0.657
Mof_C 	C 	0.21275	0.46374	0.30753	0.582
Mof_C 	C 	0.20671	0.43604	0.31657	-0.196
Mof_C 	C 	0.18467	0.42845	0.31079	0.083
Mof_H 	H 	0.1722	0.4402	0.3039	-0.028
Mof_C 	C 	0.17749	0.39905	0.31492	-0.129
Mof_C 	C 	0.15004	0.38761	0.30514	0.425
Mof_C 	C 	0.1497	0.36795	0.32821	-0.195
Mof_C 	C 	0.16843	0.36704	0.34857	0.095
Mof_C 	C 	0.18519	0.39057	0.33854	0.011
Mof_C 	C 	0.21056	0.39896	0.35604	-0.115
Mof_H 	H 	0.2179	0.3905	0.3707	0.034
Mof_C 	C 	0.15866	0.37732	0.28189	-0.872
Mof_H 	H 	0.1583	0.3908	0.2685	0.268
Mof_H 	H 	0.1764	0.3709	0.284	0.276
Mof_H 	H 	0.1473	0.3629	0.2767	0.263
Mof_C 	C 	0.12785	0.40864	0.31062	-0.683
Mof_H 	H 	0.1265	0.4117	0.3293	0.207
Mof_H 	H 	0.1322	0.4249	0.3018	0.196
Mof_H 	H 	0.1112	0.4022	0.3041	0.204
Mof_C 	C 	0.22008	0.42613	0.34121	0.013
Mof_H 	H 	0.2342	0.4357	0.3482	0.004
Mof_O 	O 	0.23572	0.97004	0.81616	-0.527
Mof_O 	O 	0.2024	0.9716	0.7901	-0.655
Mof_C 	C 	0.21275	0.96374	0.80753	0.582
Mof_C 	C 	0.20671	0.93604	0.81657	-0.196
Mof_C 	C 	0.18467	0.92845	0.81079	0.083
Mof_H 	H 	0.1722	0.9402	0.8039	-0.028
Mof_C 	C 	0.17749	0.89905	0.81492	-0.129
Mof_C 	C 	0.15004	0.88761	0.80514	0.425
Mof_C 	C 	0.1497	0.86795	0.82821	-0.195
Mof_C 	C 	0.16843	0.86704	0.84857	0.095
Mof_C 	C 	0.18519	0.89057	0.83854	0.011
Mof_C 	C 	0.21056	0.89896	0.85604	-0.115
Mof_H 	H 	0.2179	0.8905	0.8707	0.034
Mof_C 	C 	0.15866	0.87732	0.78189	-0.872
Mof_H 	H 	0.1583	0.8908	0.7685	0.268
Mof_H 	H 	0.1764	0.8709	0.784	0.276
Mof_H 	H 	0.1473	0.8629	0.7767	0.263
Mof_C 	C 	0.12785	0.90864	0.81062	-0.683
Mof_H 	H 	0.1265	0.9117	0.8293	0.207
Mof_H 	H 	0.1322	0.9249	0.8018	0.196
Mof_H 	H 	0.1112	0.9022	0.8041	0.204
Mof_C 	C 	0.22008	0.92613	0.84121	0.012
Mof_H 	H 	0.2342	0.9357	0.8482	0.004
Mof_O 	O 	0.26428	0.52996	0.81616	-0.528
Mof_O 	O 	0.2976	0.5284	0.7901	-0.657
Mof_C 	C 	0.28725	0.53626	0.80753	0.582
Mof_C 	C 	0.29329	0.56396	0.81657	-0.196
Mof_C 	C 	0.31533	0.57155	0.81079	0.083
Mof_H 	H 	0.3278	0.5598	0.8039	-0.028
Mof_C 	C 	0.32251	0.60095	0.81492	-0.129
Mof_C 	C 	0.34996	0.61239	0.80514	0.425
Mof_C 	C 	0.3503	0.63205	0.82821	-0.195
Mof_C 	C 	0.33157	0.63296	0.84857	0.095
Mof_C 	C 	0.31481	0.60943	0.83854	0.011
Mof_C 	C 	0.28944	0.60104	0.85604	-0.115
Mof_H 	H 	0.2821	0.6095	0.8707	0.034
Mof_C 	C 	0.34134	0.62268	0.78189	-0.872
Mof_H 	H 	0.3417	0.6092	0.7685	0.268
Mof_H 	H 	0.3236	0.6291	0.784	0.276
Mof_H 	H 	0.3527	0.6371	0.7767	0.263
Mof_C 	C 	0.37215	0.59136	0.81062	-0.683
Mof_H 	H 	0.3735	0.5883	0.8293	0.207
Mof_H 	H 	0.3678	0.5751	0.8018	0.196
Mof_H 	H 	0.3888	0.5978	0.8041	0.204
Mof_C 	C 	0.27992	0.57387	0.84121	0.013
Mof_H 	H 	0.2658	0.5643	0.8482	0.004
Mof_O 	O 	0.26428	0.02996	0.31616	-0.528
Mof_O 	O 	0.2976	0.0284	0.2901	-0.656
Mof_C 	C 	0.28725	0.03626	0.30753	0.582
Mof_C 	C 	0.29329	0.06396	0.31657	-0.196
Mof_C 	C 	0.31533	0.07155	0.31079	0.083
Mof_H 	H 	0.3278	0.0598	0.3039	-0.028
Mof_C 	C 	0.32251	0.10095	0.31492	-0.129
Mof_C 	C 	0.34996	0.11239	0.30514	0.425
Mof_C 	C 	0.3503	0.13205	0.32821	-0.195
Mof_C 	C 	0.33157	0.13296	0.34857	0.095
Mof_C 	C 	0.31481	0.10943	0.33854	0.011
Mof_C 	C 	0.28944	0.10104	0.35604	-0.115
Mof_H 	H 	0.2821	0.1095	0.3707	0.034
Mof_C 	C 	0.34134	0.12268	0.28189	-0.872
Mof_H 	H 	0.3417	0.1092	0.2685	0.268
Mof_H 	H 	0.3236	0.1291	0.284	0.276
Mof_H 	H 	0.3527	0.1371	0.2767	0.263
Mof_C 	C 	0.37215	0.09136	0.31062	-0.683
Mof_H 	H 	0.3735	0.0883	0.3293	0.207
Mof_H 	H 	0.3678	0.0751	0.3018	0.196
Mof_H 	H 	0.3888	0.0978	0.3041	0.204
Mof_C 	C 	0.27992	0.07387	0.34121	0.012
Mof_H 	H 	0.2658	0.0643	0.3482	0.004
Mof_O 	O 	0.76428	0.52996	0.31616	-0.528
Mof_O 	O 	0.7976	0.5284	0.2901	-0.657
Mof_C 	C 	0.78725	0.53626	0.30753	0.582
Mof_C 	C 	0.79329	0.56396	0.31657	-0.196
Mof_C 	C 	0.81533	0.57155	0.31079	0.083
Mof_H 	H 	0.8278	0.5598	0.3039	-0.028
Mof_C 	C 	0.82251	0.60095	0.31492	-0.129
Mof_C 	C 	0.84996	0.61239	0.30514	0.425
Mof_C 	C 	0.8503	0.63205	0.32821	-0.195
Mof_C 	C 	0.83157	0.63296	0.34857	0.095
Mof_C 	C 	0.81481	0.60943	0.33854	0.011
Mof_C 	C 	0.78944	0.60104	0.35604	-0.115
Mof_H 	H 	0.7821	0.6095	0.3707	0.034
Mof_C 	C 	0.84134	0.62268	0.28189	-0.872
Mof_H 	H 	0.8417	0.6092	0.2685	0.268
Mof_H 	H 	0.8236	0.6291	0.284	0.276
Mof_H 	H 	0.8527	0.6371	0.2767	0.263
Mof_C 	C 	0.87215	0.59136	0.31062	-0.683
Mof_H 	H 	0.8735	0.5883	0.3293	0.207
Mof_H 	H 	0.8678	0.5751	0.3018	0.196
Mof_H 	H 	0.8888	0.5978	0.3041	0.204
Mof_C 	C 	0.77992	0.57387	0.34121	0.013
Mof_H 	H 	0.7658	0.5643	0.3482	0.004
Mof_O 	O 	0.76428	0.02996	0.81616	-0.528
Mof_O 	O 	0.7976	0.0284	0.7901	-0.656
Mof_C 	C 	0.78725	0.03626	0.80753	0.582
Mof_C 	C 	0.79329	0.06396	0.81657	-0.196
Mof_C 	C 	0.81533	0.07155	0.81079	0.083
Mof_H 	H 	0.8278	0.0598	0.8039	-0.028
Mof_C 	C 	0.82251	0.10095	0.81492	-0.129
Mof_C 	C 	0.84996	0.11239	0.80514	0.425
Mof_C 	C 	0.8503	0.13205	0.82821	-0.195
Mof_C 	C 	0.83157	0.13296	0.84857	0.095
Mof_C 	C 	0.81481	0.10943	0.83854	0.011
Mof_C 	C 	0.78944	0.10104	0.85604	-0.115
Mof_H 	H 	0.7821	0.1095	0.8707	0.034
Mof_C 	C 	0.84134	0.12268	0.78189	-0.872
Mof_H 	H 	0.8417	0.1092	0.7685	0.268
Mof_H 	H 	0.8236	0.1291	0.784	0.276
Mof_H 	H 	0.8527	0.1371	0.7767	0.263
Mof_C 	C 	0.87215	0.09136	0.81062	-0.683
Mof_H 	H 	0.8735	0.0883	0.8293	0.207
Mof_H 	H 	0.8678	0.0751	0.8018	0.196
Mof_H 	H 	0.8888	0.0978	0.8041	0.204
Mof_C 	C 	0.77992	0.07387	0.84121	0.012
Mof_H 	H 	0.7658	0.0643	0.8482	0.004
Mof_O 	O 	0.26428	0.47004	0.18384	-0.528
Mof_O 	O 	0.2976	0.4716	0.2099	-0.657
Mof_C 	C 	0.28725	0.46374	0.19247	0.582
Mof_C 	C 	0.29329	0.43604	0.18343	-0.196
Mof_C 	C 	0.31533	0.42845	0.18921	0.083
Mof_H 	H 	0.3278	0.4402	0.1961	-0.028
Mof_C 	C 	0.32251	0.39905	0.18508	-0.129
Mof_C 	C 	0.34996	0.38761	0.19486	0.425
Mof_C 	C 	0.3503	0.36795	0.17179	-0.195
Mof_C 	C 	0.33157	0.36704	0.15143	0.095
Mof_C 	C 	0.31481	0.39057	0.16146	0.011
Mof_C 	C 	0.28944	0.39896	0.14396	-0.115
Mof_H 	H 	0.2821	0.3905	0.1293	0.034
Mof_C 	C 	0.34134	0.37732	0.21811	-0.872
Mof_H 	H 	0.3417	0.3908	0.2315	0.268
Mof_H 	H 	0.3236	0.3709	0.216	0.276
Mof_H 	H 	0.3527	0.3629	0.2233	0.263
Mof_C 	C 	0.37215	0.40864	0.18938	-0.683
Mof_H 	H 	0.3735	0.4117	0.1707	0.207
Mof_H 	H 	0.3678	0.4249	0.1982	0.196
Mof_H 	H 	0.3888	0.4022	0.1959	0.204
Mof_C 	C 	0.27992	0.42613	0.15879	0.013
Mof_H 	H 	0.2658	0.4357	0.1518	0.004
Mof_O 	O 	0.26428	0.97004	0.68384	-0.527
Mof_O 	O 	0.2976	0.9716	0.7099	-0.655
Mof_C 	C 	0.28725	0.96374	0.69247	0.582
Mof_C 	C 	0.29329	0.93604	0.68343	-0.196
Mof_C 	C 	0.31533	0.92845	0.68921	0.083
Mof_H 	H 	0.3278	0.9402	0.6961	-0.028
Mof_C 	C 	0.32251	0.89905	0.68508	-0.129
Mof_C 	C 	0.34996	0.88761	0.69486	0.425
Mof_C 	C 	0.3503	0.86795	0.67179	-0.195
Mof_C 	C 	0.33157	0.86704	0.65143	0.095
Mof_C 	C 	0.31481	0.89057	0.66146	0.011
Mof_C 	C 	0.28944	0.89896	0.64396	-0.115
Mof_H 	H 	0.2821	0.8905	0.6293	0.034
Mof_C 	C 	0.34134	0.87732	0.71811	-0.872
Mof_H 	H 	0.3417	0.8908	0.7315	0.268
Mof_H 	H 	0.3236	0.8709	0.716	0.276
Mof_H 	H 	0.3527	0.8629	0.7233	0.263
Mof_C 	C 	0.37215	0.90864	0.68938	-0.683
Mof_H 	H 	0.3735	0.9117	0.6707	0.207
Mof_H 	H 	0.3678	0.9249	0.6982	0.196
Mof_H 	H 	0.3888	0.9022	0.6959	0.204
Mof_C 	C 	0.27992	0.92613	0.65879	0.012
Mof_H 	H 	0.2658	0.9357	0.6518	0.004
Mof_O 	O 	0.76428	0.47004	0.68384	-0.528
Mof_O 	O 	0.7976	0.4716	0.7099	-0.657
Mof_C 	C 	0.78725	0.46374	0.69247	0.582
Mof_C 	C 	0.79329	0.43604	0.68343	-0.196
Mof_C 	C 	0.81533	0.42845	0.68921	0.083
Mof_H 	H 	0.8278	0.4402	0.6961	-0.028
Mof_C 	C 	0.82251	0.39905	0.68508	-0.129
Mof_C 	C 	0.84996	0.38761	0.69486	0.425
Mof_C 	C 	0.8503	0.36795	0.67179	-0.195
Mof_C 	C 	0.83157	0.36704	0.65143	0.095
Mof_C 	C 	0.81481	0.39057	0.66146	0.011
Mof_C 	C 	0.78944	0.39896	0.64396	-0.115
Mof_H 	H 	0.7821	0.3905	0.6293	0.034
Mof_C 	C 	0.84134	0.37732	0.71811	-0.872
Mof_H 	H 	0.8417	0.3908	0.7315	0.268
Mof_H 	H 	0.8236	0.3709	0.716	0.276
Mof_H 	H 	0.8527	0.3629	0.7233	0.263
Mof_C 	C 	0.87215	0.40864	0.68938	-0.683
Mof_H 	H 	0.8735	0.4117	0.6707	0.207
Mof_H 	H 	0.8678	0.4249	0.6982	0.196
Mof_H 	H 	0.8888	0.4022	0.6959	0.204
Mof_C 	C 	0.77992	0.42613	0.65879	0.013
Mof_H 	H 	0.7658	0.4357	0.6518	0.004
Mof_O 	O 	0.76428	0.97004	0.18384	-0.527
Mof_O 	O 	0.7976	0.9716	0.2099	-0.655
Mof_C 	C 	0.78725	0.96374	0.19247	0.582
Mof_C 	C 	0.79329	0.93604	0.18343	-0.196
Mof_C 	C 	0.81533	0.92845	0.18921	0.083
Mof_H 	H 	0.8278	0.9402	0.1961	-0.028
Mof_C 	C 	0.82251	0.89905	0.18508	-0.129
Mof_C 	C 	0.84996	0.88761	0.19486	0.425
Mof_C 	C 	0.8503	0.86795	0.17179	-0.195
Mof_C 	C 	0.83157	0.86704	0.15143	0.095
Mof_C 	C 	0.81481	0.89057	0.16146	0.011
Mof_C 	C 	0.78944	0.89896	0.14396	-0.115
Mof_H 	H 	0.7821	0.8905	0.1293	0.034
Mof_C 	C 	0.84134	0.87732	0.21811	-0.872
Mof_H 	H 	0.8417	0.8908	0.2315	0.268
Mof_H 	H 	0.8236	0.8709	0.216	0.276
Mof_H 	H 	0.8527	0.8629	0.2233	0.263
Mof_C 	C 	0.87215	0.90864	0.18938	-0.684
Mof_H 	H 	0.8735	0.9117	0.1707	0.207
Mof_H 	H 	0.8678	0.9249	0.1982	0.196
Mof_H 	H 	0.8888	0.9022	0.1959	0.205
Mof_C 	C 	0.77992	0.92613	0.15879	0.012
Mof_H 	H 	0.7658	0.9357	0.1518	0.004
Mof_O 	O 	0.73572	0.52996	0.18384	-0.528
Mof_O 	O 	0.7024	0.5284	0.2099	-0.657
Mof_C 	C 	0.71275	0.53626	0.19247	0.582
Mof_C 	C 	0.70671	0.56396	0.18343	-0.196
Mof_C 	C 	0.68467	0.57155	0.18921	0.083
Mof_H 	H 	0.6722	0.5598	0.1961	-0.028
Mof_C 	C 	0.67749	0.60095	0.18508	-0.129
Mof_C 	C 	0.65004	0.61239	0.19486	0.425
Mof_C 	C 	0.6497	0.63205	0.17179	-0.195
Mof_C 	C 	0.66843	0.63296	0.15143	0.095
Mof_C 	C 	0.68519	0.60943	0.16146	0.011
Mof_C 	C 	0.71056	0.60104	0.14396	-0.116
Mof_H 	H 	0.7179	0.6095	0.1293	0.034
Mof_C 	C 	0.65866	0.62268	0.21811	-0.872
Mof_H 	H 	0.6583	0.6092	0.2315	0.268
Mof_H 	H 	0.6764	0.6291	0.216	0.276
Mof_H 	H 	0.6473	0.6371	0.2233	0.263
Mof_C 	C 	0.62785	0.59136	0.18938	-0.683
Mof_H 	H 	0.6265	0.5883	0.1707	0.207
Mof_H 	H 	0.6322	0.5751	0.1982	0.196
Mof_H 	H 	0.6112	0.5978	0.1959	0.204
Mof_C 	C 	0.72008	0.57387	0.15879	0.013
Mof_H 	H 	0.7342	0.5643	0.1518	0.004
Mof_O 	O 	0.73572	0.02996	0.68384	-0.528
Mof_O 	O 	0.7024	0.0284	0.7099	-0.656
Mof_C 	C 	0.71275	0.03626	0.69247	0.582
Mof_C 	C 	0.70671	0.06396	0.68343	-0.196
Mof_C 	C 	0.68467	0.07155	0.68921	0.083
Mof_H 	H 	0.6722	0.0598	0.6961	-0.028
Mof_C 	C 	0.67749	0.10095	0.68508	-0.129
Mof_C 	C 	0.65004	0.11239	0.69486	0.424
Mof_C 	C 	0.6497	0.13205	0.67179	-0.195
Mof_C 	C 	0.66843	0.13296	0.65143	0.095
Mof_C 	C 	0.68519	0.10943	0.66146	0.011
Mof_C 	C 	0.71056	0.10104	0.64396	-0.115
Mof_H 	H 	0.7179	0.1095	0.6293	0.034
Mof_C 	C 	0.65866	0.12268	0.71811	-0.872
Mof_H 	H 	0.6583	0.1092	0.7315	0.268
Mof_H 	H 	0.6764	0.1291	0.716	0.276
Mof_H 	H 	0.6473	0.1371	0.7233	0.263
Mof_C 	C 	0.62785	0.09136	0.68938	-0.683
Mof_H 	H 	0.6265	0.0883	0.6707	0.207
Mof_H 	H 	0.6322	0.0751	0.6982	0.196
Mof_H 	H 	0.6112	0.0978	0.6959	0.204
Mof_C 	C 	0.72008	0.07387	0.65879	0.012
Mof_H 	H 	0.7342	0.0643	0.6518	0.004
Mof_O 	O 	0.23572	0.52996	0.68384	-0.528
Mof_O 	O 	0.2024	0.5284	0.7099	-0.657
Mof_C 	C 	0.21275	0.53626	0.69247	0.582
Mof_C 	C 	0.20671	0.56396	0.68343	-0.196
Mof_C 	C 	0.18467	0.57155	0.68921	0.083
Mof_H 	H 	0.1722	0.5598	0.6961	-0.028
Mof_C 	C 	0.17749	0.60095	0.68508	-0.129
Mof_C 	C 	0.15004	0.61239	0.69486	0.425
Mof_C 	C 	0.1497	0.63205	0.67179	-0.195
Mof_C 	C 	0.16843	0.63296	0.65143	0.095
Mof_C 	C 	0.18519	0.60943	0.66146	0.011
Mof_C 	C 	0.21056	0.60104	0.64396	-0.115
Mof_H 	H 	0.2179	0.6095	0.6293	0.034
Mof_C 	C 	0.15866	0.62268	0.71811	-0.872
Mof_H 	H 	0.1583	0.6092	0.7315	0.268
Mof_H 	H 	0.1764	0.6291	0.716	0.276
Mof_H 	H 	0.1473	0.6371	0.7233	0.263
Mof_C 	C 	0.12785	0.59136	0.68938	-0.683
Mof_H 	H 	0.1265	0.5883	0.6707	0.207
Mof_H 	H 	0.1322	0.5751	0.6982	0.196
Mof_H 	H 	0.1112	0.5978	0.6959	0.204
Mof_C 	C 	0.22008	0.57387	0.65879	0.013
Mof_H 	H 	0.2342	0.5643	0.6518	0.004
Mof_O 	O 	0.23572	0.02996	0.18384	-0.528
Mof_O 	O 	0.2024	0.0284	0.2099	-0.656
Mof_C 	C 	0.21275	0.03626	0.19247	0.582
Mof_C 	C 	0.20671	0.06396	0.18343	-0.196
Mof_C 	C 	0.18467	0.07155	0.18921	0.083
Mof_H 	H 	0.1722	0.0598	0.1961	-0.028
Mof_C 	C 	0.17749	0.10095	0.18508	-0.129
Mof_C 	C 	0.15004	0.11239	0.19486	0.424
Mof_C 	C 	0.1497	0.13205	0.17179	-0.195
Mof_C 	C 	0.16843	0.13296	0.15143	0.095
Mof_C 	C 	0.18519	0.10943	0.16146	0.011
Mof_C 	C 	0.21056	0.10104	0.14396	-0.115
Mof_H 	H 	0.2179	0.1095	0.1293	0.034
Mof_C 	C 	0.15866	0.12268	0.21811	-0.871
Mof_H 	H 	0.1583	0.1092	0.2315	0.268
Mof_H 	H 	0.1764	0.1291	0.216	0.276
Mof_H 	H 	0.1473	0.1371	0.2233	0.263
Mof_C 	C 	0.12785	0.09136	0.18938	-0.682
Mof_H 	H 	0.1265	0.0883	0.1707	0.207
Mof_H 	H 	0.1322	0.0751	0.1982	0.196
Mof_H 	H 	0.1112	0.0978	0.1959	0.204
Mof_C 	C 	0.22008	0.07387	0.15879	0.012
Mof_H 	H 	0.2342	0.0643	0.1518	0.004
Mof_O 	O 	0.81616	0.73572	0.47004	-0.528
Mof_O 	O 	0.7901	0.7024	0.4716	-0.657
Mof_C 	C 	0.80753	0.71275	0.46374	0.582
Mof_C 	C 	0.81657	0.70671	0.43604	-0.196
Mof_C 	C 	0.81079	0.68467	0.42845	0.083
Mof_H 	H 	0.8039	0.6722	0.4402	-0.028
Mof_C 	C 	0.81492	0.67749	0.39905	-0.129
Mof_C 	C 	0.80514	0.65004	0.38761	0.425
Mof_C 	C 	0.82821	0.6497	0.36795	-0.195
Mof_C 	C 	0.84857	0.66843	0.36704	0.095
Mof_C 	C 	0.83854	0.68519	0.39057	0.011
Mof_C 	C 	0.85604	0.71056	0.39896	-0.115
Mof_H 	H 	0.8707	0.7179	0.3905	0.034
Mof_C 	C 	0.78189	0.65866	0.37732	-0.872
Mof_H 	H 	0.7685	0.6583	0.3908	0.268
Mof_H 	H 	0.784	0.6764	0.3709	0.276
Mof_H 	H 	0.7767	0.6473	0.3629	0.263
Mof_C 	C 	0.81062	0.62785	0.40864	-0.683
Mof_H 	H 	0.8293	0.6265	0.4117	0.207
Mof_H 	H 	0.8018	0.6322	0.4249	0.196
Mof_H 	H 	0.8041	0.6112	0.4022	0.204
Mof_C 	C 	0.84121	0.72008	0.42613	0.013
Mof_H 	H 	0.8482	0.7342	0.4357	0.004
Mof_O 	O 	0.81616	0.23572	0.97004	-0.527
Mof_O 	O 	0.7901	0.2024	0.9716	-0.655
Mof_C 	C 	0.80753	0.21275	0.96374	0.582
Mof_C 	C 	0.81657	0.20671	0.93604	-0.196
Mof_C 	C 	0.81079	0.18467	0.92845	0.083
Mof_H 	H 	0.8039	0.1722	0.9402	-0.028
Mof_C 	C 	0.81492	0.17749	0.89905	-0.129
Mof_C 	C 	0.80514	0.15004	0.88761	0.425
Mof_C 	C 	0.82821	0.1497	0.86795	-0.195
Mof_C 	C 	0.84857	0.16843	0.86704	0.095
Mof_C 	C 	0.83854	0.18519	0.89057	0.011
Mof_C 	C 	0.85604	0.21056	0.89896	-0.115
Mof_H 	H 	0.8707	0.2179	0.8905	0.034
Mof_C 	C 	0.78189	0.15866	0.87732	-0.872
Mof_H 	H 	0.7685	0.1583	0.8908	0.268
Mof_H 	H 	0.784	0.1764	0.8709	0.276
Mof_H 	H 	0.7767	0.1473	0.8629	0.263
Mof_C 	C 	0.81062	0.12785	0.90864	-0.683
Mof_H 	H 	0.8293	0.1265	0.9117	0.207
Mof_H 	H 	0.8018	0.1322	0.9249	0.196
Mof_H 	H 	0.8041	0.1112	0.9022	0.204
Mof_C 	C 	0.84121	0.22008	0.92613	0.012
Mof_H 	H 	0.8482	0.2342	0.9357	0.004
Mof_O 	O 	0.31616	0.73572	0.97004	-0.527
Mof_O 	O 	0.2901	0.7024	0.9716	-0.655
Mof_C 	C 	0.30753	0.71275	0.96374	0.582
Mof_C 	C 	0.31657	0.70671	0.93604	-0.196
Mof_C 	C 	0.31079	0.68467	0.92845	0.083
Mof_H 	H 	0.3039	0.6722	0.9402	-0.028
Mof_C 	C 	0.31492	0.67749	0.89905	-0.129
Mof_C 	C 	0.30514	0.65004	0.88761	0.425
Mof_C 	C 	0.32821	0.6497	0.86795	-0.195
Mof_C 	C 	0.34857	0.66843	0.86704	0.095
Mof_C 	C 	0.33854	0.68519	0.89057	0.011
Mof_C 	C 	0.35604	0.71056	0.89896	-0.115
Mof_H 	H 	0.3707	0.7179	0.8905	0.034
Mof_C 	C 	0.28189	0.65866	0.87732	-0.872
Mof_H 	H 	0.2685	0.6583	0.8908	0.268
Mof_H 	H 	0.284	0.6764	0.8709	0.276
Mof_H 	H 	0.2767	0.6473	0.8629	0.263
Mof_C 	C 	0.31062	0.62785	0.90864	-0.683
Mof_H 	H 	0.3293	0.6265	0.9117	0.207
Mof_H 	H 	0.3018	0.6322	0.9249	0.196
Mof_H 	H 	0.3041	0.6112	0.9022	0.204
Mof_C 	C 	0.34121	0.72008	0.92613	0.012
Mof_H 	H 	0.3482	0.7342	0.9357	0.004
Mof_O 	O 	0.31616	0.23572	0.47004	-0.528
Mof_O 	O 	0.2901	0.2024	0.4716	-0.657
Mof_C 	C 	0.30753	0.21275	0.46374	0.582
Mof_C 	C 	0.31657	0.20671	0.43604	-0.196
Mof_C 	C 	0.31079	0.18467	0.42845	0.083
Mof_H 	H 	0.3039	0.1722	0.4402	-0.028
Mof_C 	C 	0.31492	0.17749	0.39905	-0.129
Mof_C 	C 	0.30514	0.15004	0.38761	0.425
Mof_C 	C 	0.32821	0.1497	0.36795	-0.195
Mof_C 	C 	0.34857	0.16843	0.36704	0.095
Mof_C 	C 	0.33854	0.18519	0.39057	0.011
Mof_C 	C 	0.35604	0.21056	0.39896	-0.115
Mof_H 	H 	0.3707	0.2179	0.3905	0.034
Mof_C 	C 	0.28189	0.15866	0.37732	-0.872
Mof_H 	H 	0.2685	0.1583	0.3908	0.268
Mof_H 	H 	0.284	0.1764	0.3709	0.276
Mof_H 	H 	0.2767	0.1473	0.3629	0.263
Mof_C 	C 	0.31062	0.12785	0.40864	-0.683
Mof_H 	H 	0.3293	0.1265	0.4117	0.207
Mof_H 	H 	0.3018	0.1322	0.4249	0.196
Mof_H 	H 	0.3041	0.1112	0.4022	0.204
Mof_C 	C 	0.34121	0.22008	0.42613	0.013
Mof_H 	H 	0.3482	0.2342	0.4357	0.004
Mof_O 	O 	0.81616	0.26428	0.52996	-0.528
Mof_O 	O 	0.7901	0.2976	0.5284	-0.657
Mof_C 	C 	0.80753	0.28725	0.53626	0.582
Mof_C 	C 	0.81657	0.29329	0.56396	-0.196
Mof_C 	C 	0.81079	0.31533	0.57155	0.083
Mof_H 	H 	0.8039	0.3278	0.5598	-0.028
Mof_C 	C 	0.81492	0.32251	0.60095	-0.129
Mof_C 	C 	0.80514	0.34996	0.61239	0.425
Mof_C 	C 	0.82821	0.3503	0.63205	-0.195
Mof_C 	C 	0.84857	0.33157	0.63296	0.095
Mof_C 	C 	0.83854	0.31481	0.60943	0.011
Mof_C 	C 	0.85604	0.28944	0.60104	-0.115
Mof_H 	H 	0.8707	0.2821	0.6095	0.034
Mof_C 	C 	0.78189	0.34134	0.62268	-0.872
Mof_H 	H 	0.7685	0.3417	0.6092	0.268
Mof_H 	H 	0.784	0.3236	0.6291	0.276
Mof_H 	H 	0.7767	0.3527	0.6371	0.263
Mof_C 	C 	0.81062	0.37215	0.59136	-0.683
Mof_H 	H 	0.8293	0.3735	0.5883	0.207
Mof_H 	H 	0.8018	0.3678	0.5751	0.196
Mof_H 	H 	0.8041	0.3888	0.5978	0.204
Mof_C 	C 	0.84121	0.27992	0.57387	0.013
Mof_H 	H 	0.8482	0.2658	0.5643	0.004
Mof_O 	O 	0.81616	0.76428	0.02996	-0.528
Mof_O 	O 	0.7901	0.7976	0.0284	-0.656
Mof_C 	C 	0.80753	0.78725	0.03626	0.582
Mof_C 	C 	0.81657	0.79329	0.06396	-0.196
Mof_C 	C 	0.81079	0.81533	0.07155	0.083
Mof_H 	H 	0.8039	0.8278	0.0598	-0.028
Mof_C 	C 	0.81492	0.82251	0.10095	-0.129
Mof_C 	C 	0.80514	0.84996	0.11239	0.425
Mof_C 	C 	0.82821	0.8503	0.13205	-0.195
Mof_C 	C 	0.84857	0.83157	0.13296	0.095
Mof_C 	C 	0.83854	0.81481	0.10943	0.011
Mof_C 	C 	0.85604	0.78944	0.10104	-0.115
Mof_H 	H 	0.8707	0.7821	0.1095	0.034
Mof_C 	C 	0.78189	0.84134	0.12268	-0.872
Mof_H 	H 	0.7685	0.8417	0.1092	0.268
Mof_H 	H 	0.784	0.8236	0.1291	0.276
Mof_H 	H 	0.7767	0.8527	0.1371	0.263
Mof_C 	C 	0.81062	0.87215	0.09136	-0.683
Mof_H 	H 	0.8293	0.8735	0.0883	0.207
Mof_H 	H 	0.8018	0.8678	0.0751	0.196
Mof_H 	H 	0.8041	0.8888	0.0978	0.204
Mof_C 	C 	0.84121	0.77992	0.07387	0.012
Mof_H 	H 	0.8482	0.7658	0.0643	0.004
Mof_O 	O 	0.31616	0.26428	0.02996	-0.528
Mof_O 	O 	0.2901	0.2976	0.0284	-0.656
Mof_C 	C 	0.30753	0.28725	0.03626	0.582
Mof_C 	C 	0.31657	0.29329	0.06396	-0.196
Mof_C 	C 	0.31079	0.31533	0.07155	0.083
Mof_H 	H 	0.3039	0.3278	0.0598	-0.028
Mof_C 	C 	0.31492	0.32251	0.10095	-0.129
Mof_C 	C 	0.30514	0.34996	0.11239	0.425
Mof_C 	C 	0.32821	0.3503	0.13205	-0.195
Mof_C 	C 	0.34857	0.33157	0.13296	0.095
Mof_C 	C 	0.33854	0.31481	0.10943	0.011
Mof_C 	C 	0.35604	0.28944	0.10104	-0.115
Mof_H 	H 	0.3707	0.2821	0.1095	0.034
Mof_C 	C 	0.28189	0.34134	0.12268	-0.872
Mof_H 	H 	0.2685	0.3417	0.1092	0.268
Mof_H 	H 	0.284	0.3236	0.1291	0.276
Mof_H 	H 	0.2767	0.3527	0.1371	0.263
Mof_C 	C 	0.31062	0.37215	0.09136	-0.683
Mof_H 	H 	0.3293	0.3735	0.0883	0.207
Mof_H 	H 	0.3018	0.3678	0.0751	0.196
Mof_H 	H 	0.3041	0.3888	0.0978	0.204
Mof_C 	C 	0.34121	0.27992	0.07387	0.012
Mof_H 	H 	0.3482	0.2658	0.0643	0.004
Mof_O 	O 	0.31616	0.76428	0.52996	-0.528
Mof_O 	O 	0.2901	0.7976	0.5284	-0.657
Mof_C 	C 	0.30753	0.78725	0.53626	0.582
Mof_C 	C 	0.31657	0.79329	0.56396	-0.196
Mof_C 	C 	0.31079	0.81533	0.57155	0.083
Mof_H 	H 	0.3039	0.8278	0.5598	-0.028
Mof_C 	C 	0.31492	0.82251	0.60095	-0.129
Mof_C 	C 	0.30514	0.84996	0.61239	0.425
Mof_C 	C 	0.32821	0.8503	0.63205	-0.195
Mof_C 	C 	0.34857	0.83157	0.63296	0.095
Mof_C 	C 	0.33854	0.81481	0.60943	0.011
Mof_C 	C 	0.35604	0.78944	0.60104	-0.115
Mof_H 	H 	0.3707	0.7821	0.6095	0.034
Mof_C 	C 	0.28189	0.84134	0.62268	-0.872
Mof_H 	H 	0.2685	0.8417	0.6092	0.268
Mof_H 	H 	0.284	0.8236	0.6291	0.276
Mof_H 	H 	0.2767	0.8527	0.6371	0.263
Mof_C 	C 	0.31062	0.87215	0.59136	-0.683
Mof_H 	H 	0.3293	0.8735	0.5883	0.207
Mof_H 	H 	0.3018	0.8678	0.5751	0.196
Mof_H 	H 	0.3041	0.8888	0.5978	0.204
Mof_C 	C 	0.34121	0.77992	0.57387	0.013
Mof_H 	H 	0.3482	0.7658	0.5643	0.004
Mof_O 	O 	0.18384	0.26428	0.47004	-0.528
Mof_O 	O 	0.2099	0.2976	0.4716	-0.657
Mof_C 	C 	0.19247	0.28725	0.46374	0.582
Mof_C 	C 	0.18343	0.29329	0.43604	-0.196
Mof_C 	C 	0.18921	0.31533	0.42845	0.083
Mof_H 	H 	0.1961	0.3278	0.4402	-0.028
Mof_C 	C 	0.18508	0.32251	0.39905	-0.129
Mof_C 	C 	0.19486	0.34996	0.38761	0.425
Mof_C 	C 	0.17179	0.3503	0.36795	-0.195
Mof_C 	C 	0.15143	0.33157	0.36704	0.095
Mof_C 	C 	0.16146	0.31481	0.39057	0.011
Mof_C 	C 	0.14396	0.28944	0.39896	-0.115
Mof_H 	H 	0.1293	0.2821	0.3905	0.034
Mof_C 	C 	0.21811	0.34134	0.37732	-0.872
Mof_H 	H 	0.2315	0.3417	0.3908	0.268
Mof_H 	H 	0.216	0.3236	0.3709	0.276
Mof_H 	H 	0.2233	0.3527	0.3629	0.263
Mof_C 	C 	0.18938	0.37215	0.40864	-0.683
Mof_H 	H 	0.1707	0.3735	0.4117	0.207
Mof_H 	H 	0.1982	0.3678	0.4249	0.196
Mof_H 	H 	0.1959	0.3888	0.4022	0.204
Mof_C 	C 	0.15879	0.27992	0.42613	0.013
Mof_H 	H 	0.1518	0.2658	0.4357	0.004
Mof_O 	O 	0.18384	0.76428	0.97004	-0.527
Mof_O 	O 	0.2099	0.7976	0.9716	-0.655
Mof_C 	C 	0.19247	0.78725	0.96374	0.582
Mof_C 	C 	0.18343	0.79329	0.93604	-0.196
Mof_C 	C 	0.18921	0.81533	0.92845	0.083
Mof_H 	H 	0.1961	0.8278	0.9402	-0.028
Mof_C 	C 	0.18508	0.82251	0.89905	-0.129
Mof_C 	C 	0.19486	0.84996	0.88761	0.425
Mof_C 	C 	0.17179	0.8503	0.86795	-0.195
Mof_C 	C 	0.15143	0.83157	0.86704	0.095
Mof_C 	C 	0.16146	0.81481	0.89057	0.011
Mof_C 	C 	0.14396	0.78944	0.89896	-0.115
Mof_H 	H 	0.1293	0.7821	0.8905	0.034
Mof_C 	C 	0.21811	0.84134	0.87732	-0.872
Mof_H 	H 	0.2315	0.8417	0.8908	0.268
Mof_H 	H 	0.216	0.8236	0.8709	0.276
Mof_H 	H 	0.2233	0.8527	0.8629	0.263
Mof_C 	C 	0.18938	0.87215	0.90864	-0.684
Mof_H 	H 	0.1707	0.8735	0.9117	0.207
Mof_H 	H 	0.1982	0.8678	0.9249	0.196
Mof_H 	H 	0.1959	0.8888	0.9022	0.205
Mof_C 	C 	0.15879	0.77992	0.92613	0.012
Mof_H 	H 	0.1518	0.7658	0.9357	0.004
Mof_O 	O 	0.68384	0.26428	0.97004	-0.527
Mof_O 	O 	0.7099	0.2976	0.9716	-0.655
Mof_C 	C 	0.69247	0.28725	0.96374	0.582
Mof_C 	C 	0.68343	0.29329	0.93604	-0.196
Mof_C 	C 	0.68921	0.31533	0.92845	0.083
Mof_H 	H 	0.6961	0.3278	0.9402	-0.028
Mof_C 	C 	0.68508	0.32251	0.89905	-0.129
Mof_C 	C 	0.69486	0.34996	0.88761	0.425
Mof_C 	C 	0.67179	0.3503	0.86795	-0.195
Mof_C 	C 	0.65143	0.33157	0.86704	0.095
Mof_C 	C 	0.66146	0.31481	0.89057	0.011
Mof_C 	C 	0.64396	0.28944	0.89896	-0.115
Mof_H 	H 	0.6293	0.2821	0.8905	0.034
Mof_C 	C 	0.71811	0.34134	0.87732	-0.872
Mof_H 	H 	0.7315	0.3417	0.8908	0.268
Mof_H 	H 	0.716	0.3236	0.8709	0.276
Mof_H 	H 	0.7233	0.3527	0.8629	0.263
Mof_C 	C 	0.68938	0.37215	0.90864	-0.683
Mof_H 	H 	0.6707	0.3735	0.9117	0.207
Mof_H 	H 	0.6982	0.3678	0.9249	0.196
Mof_H 	H 	0.6959	0.3888	0.9022	0.204
Mof_C 	C 	0.65879	0.27992	0.92613	0.012
Mof_H 	H 	0.6518	0.2658	0.9357	0.004
Mof_O 	O 	0.68384	0.76428	0.47004	-0.528
Mof_O 	O 	0.7099	0.7976	0.4716	-0.657
Mof_C 	C 	0.69247	0.78725	0.46374	0.582
Mof_C 	C 	0.68343	0.79329	0.43604	-0.196
Mof_C 	C 	0.68921	0.81533	0.42845	0.083
Mof_H 	H 	0.6961	0.8278	0.4402	-0.028
Mof_C 	C 	0.68508	0.82251	0.39905	-0.129
Mof_C 	C 	0.69486	0.84996	0.38761	0.425
Mof_C 	C 	0.67179	0.8503	0.36795	-0.195
Mof_C 	C 	0.65143	0.83157	0.36704	0.095
Mof_C 	C 	0.66146	0.81481	0.39057	0.011
Mof_C 	C 	0.64396	0.78944	0.39896	-0.115
Mof_H 	H 	0.6293	0.7821	0.3905	0.034
Mof_C 	C 	0.71811	0.84134	0.37732	-0.872
Mof_H 	H 	0.7315	0.8417	0.3908	0.268
Mof_H 	H 	0.716	0.8236	0.3709	0.276
Mof_H 	H 	0.7233	0.8527	0.3629	0.263
Mof_C 	C 	0.68938	0.87215	0.40864	-0.683
Mof_H 	H 	0.6707	0.8735	0.4117	0.207
Mof_H 	H 	0.6982	0.8678	0.4249	0.196
Mof_H 	H 	0.6959	0.8888	0.4022	0.204
Mof_C 	C 	0.65879	0.77992	0.42613	0.013
Mof_H 	H 	0.6518	0.7658	0.4357	0.004
Mof_O 	O 	0.18384	0.73572	0.52996	-0.528
Mof_O 	O 	0.2099	0.7024	0.5284	-0.657
Mof_C 	C 	0.19247	0.71275	0.53626	0.582
Mof_C 	C 	0.18343	0.70671	0.56396	-0.196
Mof_C 	C 	0.18921	0.68467	0.57155	0.083
Mof_H 	H 	0.1961	0.6722	0.5598	-0.028
Mof_C 	C 	0.18508	0.67749	0.60095	-0.129
Mof_C 	C 	0.19486	0.65004	0.61239	0.425
Mof_C 	C 	0.17179	0.6497	0.63205	-0.195
Mof_C 	C 	0.15143	0.66843	0.63296	0.095
Mof_C 	C 	0.16146	0.68519	0.60943	0.011
Mof_C 	C 	0.14396	0.71056	0.60104	-0.116
Mof_H 	H 	0.1293	0.7179	0.6095	0.034
Mof_C 	C 	0.21811	0.65866	0.62268	-0.872
Mof_H 	H 	0.2315	0.6583	0.6092	0.268
Mof_H 	H 	0.216	0.6764	0.6291	0.276
Mof_H 	H 	0.2233	0.6473	0.6371	0.263
Mof_C 	C 	0.18938	0.62785	0.59136	-0.683
Mof_H 	H 	0.1707	0.6265	0.5883	0.207
Mof_H 	H 	0.1982	0.6322	0.5751	0.196
Mof_H 	H 	0.1959	0.6112	0.5978	0.204
Mof_C 	C 	0.15879	0.72008	0.57387	0.013
Mof_H 	H 	0.1518	0.7342	0.5643	0.004
Mof_O 	O 	0.18384	0.23572	0.02996	-0.528
Mof_O 	O 	0.2099	0.2024	0.0284	-0.656
Mof_C 	C 	0.19247	0.21275	0.03626	0.582
Mof_C 	C 	0.18343	0.20671	0.06396	-0.196
Mof_C 	C 	0.18921	0.18467	0.07155	0.083
Mof_H 	H 	0.1961	0.1722	0.0598	-0.028
Mof_C 	C 	0.18508	0.17749	0.10095	-0.129
Mof_C 	C 	0.19486	0.15004	0.11239	0.424
Mof_C 	C 	0.17179	0.1497	0.13205	-0.195
Mof_C 	C 	0.15143	0.16843	0.13296	0.095
Mof_C 	C 	0.16146	0.18519	0.10943	0.011
Mof_C 	C 	0.14396	0.21056	0.10104	-0.115
Mof_H 	H 	0.1293	0.2179	0.1095	0.034
Mof_C 	C 	0.21811	0.15866	0.12268	-0.871
Mof_H 	H 	0.2315	0.1583	0.1092	0.268
Mof_H 	H 	0.216	0.1764	0.1291	0.276
Mof_H 	H 	0.2233	0.1473	0.1371	0.263
Mof_C 	C 	0.18938	0.12785	0.09136	-0.682
Mof_H 	H 	0.1707	0.1265	0.0883	0.207
Mof_H 	H 	0.1982	0.1322	0.0751	0.196
Mof_H 	H 	0.1959	0.1112	0.0978	0.204
Mof_C 	C 	0.15879	0.22008	0.07387	0.012
Mof_H 	H 	0.1518	0.2342	0.0643	0.004
Mof_O 	O 	0.68384	0.73572	0.02996	-0.528
Mof_O 	O 	0.7099	0.7024	0.0284	-0.656
Mof_C 	C 	0.69247	0.71275	0.03626	0.582
Mof_C 	C 	0.68343	0.70671	0.06396	-0.196
Mof_C 	C 	0.68921	0.68467	0.07155	0.083
Mof_H 	H 	0.6961	0.6722	0.0598	-0.028
Mof_C 	C 	0.68508	0.67749	0.10095	-0.129
Mof_C 	C 	0.69486	0.65004	0.11239	0.424
Mof_C 	C 	0.67179	0.6497	0.13205	-0.195
Mof_C 	C 	0.65143	0.66843	0.13296	0.095
Mof_C 	C 	0.66146	0.68519	0.10943	0.011
Mof_C 	C 	0.64396	0.71056	0.10104	-0.115
Mof_H 	H 	0.6293	0.7179	0.1095	0.034
Mof_C 	C 	0.71811	0.65866	0.12268	-0.872
Mof_H 	H 	0.7315	0.6583	0.1092	0.268
Mof_H 	H 	0.716	0.6764	0.1291	0.276
Mof_H 	H 	0.7233	0.6473	0.1371	0.263
Mof_C 	C 	0.68938	0.62785	0.09136	-0.683
Mof_H 	H 	0.6707	0.6265	0.0883	0.207
Mof_H 	H 	0.6982	0.6322	0.0751	0.196
Mof_H 	H 	0.6959	0.6112	0.0978	0.204
Mof_C 	C 	0.65879	0.72008	0.07387	0.012
Mof_H 	H 	0.6518	0.7342	0.0643	0.004
Mof_O 	O 	0.68384	0.23572	0.52996	-0.528
Mof_O 	O 	0.7099	0.2024	0.5284	-0.657
Mof_C 	C 	0.69247	0.21275	0.53626	0.582
Mof_C 	C 	0.68343	0.20671	0.56396	-0.196
Mof_C 	C 	0.68921	0.18467	0.57155	0.083
Mof_H 	H 	0.6961	0.1722	0.5598	-0.028
Mof_C 	C 	0.68508	0.17749	0.60095	-0.129
Mof_C 	C 	0.69486	0.15004	0.61239	0.425
Mof_C 	C 	0.67179	0.1497	0.63205	-0.195
Mof_C 	C 	0.65143	0.16843	0.63296	0.095
Mof_C 	C 	0.66146	0.18519	0.60943	0.011
Mof_C 	C 	0.64396	0.21056	0.60104	-0.115
Mof_H 	H 	0.6293	0.2179	0.6095	0.034
Mof_C 	C 	0.71811	0.15866	0.62268	-0.872
Mof_H 	H 	0.7315	0.1583	0.6092	0.268
Mof_H 	H 	0.716	0.1764	0.6291	0.276
Mof_H 	H 	0.7233	0.1473	0.6371	0.263
Mof_C 	C 	0.68938	0.12785	0.59136	-0.683
Mof_H 	H 	0.6707	0.1265	0.5883	0.207
Mof_H 	H 	0.6982	0.1322	0.5751	0.196
Mof_H 	H 	0.6959	0.1112	0.5978	0.204
Mof_C 	C 	0.65879	0.22008	0.57387	0.013
Mof_H 	H 	0.6518	0.2342	0.5643	0.004
Mof_O 	O 	0.47004	0.81616	0.73572	-0.528
Mof_O 	O 	0.4716	0.7901	0.7024	-0.657
Mof_C 	C 	0.46374	0.80753	0.71275	0.582
Mof_C 	C 	0.43604	0.81657	0.70671	-0.196
Mof_C 	C 	0.42845	0.81079	0.68467	0.083
Mof_H 	H 	0.4402	0.8039	0.6722	-0.028
Mof_C 	C 	0.39905	0.81492	0.67749	-0.129
Mof_C 	C 	0.38761	0.80514	0.65004	0.425
Mof_C 	C 	0.36795	0.82821	0.6497	-0.195
Mof_C 	C 	0.36704	0.84857	0.66843	0.095
Mof_C 	C 	0.39057	0.83854	0.68519	0.011
Mof_C 	C 	0.39896	0.85604	0.71056	-0.115
Mof_H 	H 	0.3905	0.8707	0.7179	0.034
Mof_C 	C 	0.37732	0.78189	0.65866	-0.872
Mof_H 	H 	0.3908	0.7685	0.6583	0.268
Mof_H 	H 	0.3709	0.784	0.6764	0.276
Mof_H 	H 	0.3629	0.7767	0.6473	0.263
Mof_C 	C 	0.40864	0.81062	0.62785	-0.683
Mof_H 	H 	0.4117	0.8293	0.6265	0.207
Mof_H 	H 	0.4249	0.8018	0.6322	0.196
Mof_H 	H 	0.4022	0.8041	0.6112	0.204
Mof_C 	C 	0.42613	0.84121	0.72008	0.013
Mof_H 	H 	0.4357	0.8482	0.7342	0.004
Mof_O 	O 	0.47004	0.31616	0.23572	-0.528
Mof_O 	O 	0.4716	0.2901	0.2024	-0.657
Mof_C 	C 	0.46374	0.30753	0.21275	0.582
Mof_C 	C 	0.43604	0.31657	0.20671	-0.196
Mof_C 	C 	0.42845	0.31079	0.18467	0.083
Mof_H 	H 	0.4402	0.3039	0.1722	-0.028
Mof_C 	C 	0.39905	0.31492	0.17749	-0.129
Mof_C 	C 	0.38761	0.30514	0.15004	0.425
Mof_C 	C 	0.36795	0.32821	0.1497	-0.195
Mof_C 	C 	0.36704	0.34857	0.16843	0.095
Mof_C 	C 	0.39057	0.33854	0.18519	0.011
Mof_C 	C 	0.39896	0.35604	0.21056	-0.115
Mof_H 	H 	0.3905	0.3707	0.2179	0.034
Mof_C 	C 	0.37732	0.28189	0.15866	-0.872
Mof_H 	H 	0.3908	0.2685	0.1583	0.268
Mof_H 	H 	0.3709	0.284	0.1764	0.276
Mof_H 	H 	0.3629	0.2767	0.1473	0.263
Mof_C 	C 	0.40864	0.31062	0.12785	-0.683
Mof_H 	H 	0.4117	0.3293	0.1265	0.207
Mof_H 	H 	0.4249	0.3018	0.1322	0.196
Mof_H 	H 	0.4022	0.3041	0.1112	0.204
Mof_C 	C 	0.42613	0.34121	0.22008	0.013
Mof_H 	H 	0.4357	0.3482	0.2342	0.004
Mof_O 	O 	0.97004	0.81616	0.23572	-0.527
Mof_O 	O 	0.9716	0.7901	0.2024	-0.655
Mof_C 	C 	0.96374	0.80753	0.21275	0.582
Mof_C 	C 	0.93604	0.81657	0.20671	-0.196
Mof_C 	C 	0.92845	0.81079	0.18467	0.083
Mof_H 	H 	0.9402	0.8039	0.1722	-0.028
Mof_C 	C 	0.89905	0.81492	0.17749	-0.129
Mof_C 	C 	0.88761	0.80514	0.15004	0.425
Mof_C 	C 	0.86795	0.82821	0.1497	-0.195
Mof_C 	C 	0.86704	0.84857	0.16843	0.095
Mof_C 	C 	0.89057	0.83854	0.18519	0.011
Mof_C 	C 	0.89896	0.85604	0.21056	-0.115
Mof_H 	H 	0.8905	0.8707	0.2179	0.034
Mof_C 	C 	0.87732	0.78189	0.15866	-0.872
Mof_H 	H 	0.8908	0.7685	0.1583	0.268
Mof_H 	H 	0.8709	0.784	0.1764	0.276
Mof_H 	H 	0.8629	0.7767	0.1473	0.263
Mof_C 	C 	0.90864	0.81062	0.12785	-0.683
Mof_H 	H 	0.9117	0.8293	0.1265	0.207
Mof_H 	H 	0.9249	0.8018	0.1322	0.196
Mof_H 	H 	0.9022	0.8041	0.1112	0.204
Mof_C 	C 	0.92613	0.84121	0.22008	0.012
Mof_H 	H 	0.9357	0.8482	0.2342	0.004
Mof_O 	O 	0.97004	0.31616	0.73572	-0.527
Mof_O 	O 	0.9716	0.2901	0.7024	-0.655
Mof_C 	C 	0.96374	0.30753	0.71275	0.582
Mof_C 	C 	0.93604	0.31657	0.70671	-0.196
Mof_C 	C 	0.92845	0.31079	0.68467	0.083
Mof_H 	H 	0.9402	0.3039	0.6722	-0.028
Mof_C 	C 	0.89905	0.31492	0.67749	-0.129
Mof_C 	C 	0.88761	0.30514	0.65004	0.425
Mof_C 	C 	0.86795	0.32821	0.6497	-0.195
Mof_C 	C 	0.86704	0.34857	0.66843	0.095
Mof_C 	C 	0.89057	0.33854	0.68519	0.011
Mof_C 	C 	0.89896	0.35604	0.71056	-0.115
Mof_H 	H 	0.8905	0.3707	0.7179	0.034
Mof_C 	C 	0.87732	0.28189	0.65866	-0.872
Mof_H 	H 	0.8908	0.2685	0.6583	0.268
Mof_H 	H 	0.8709	0.284	0.6764	0.276
Mof_H 	H 	0.8629	0.2767	0.6473	0.263
Mof_C 	C 	0.90864	0.31062	0.62785	-0.683
Mof_H 	H 	0.9117	0.3293	0.6265	0.207
Mof_H 	H 	0.9249	0.3018	0.6322	0.196
Mof_H 	H 	0.9022	0.3041	0.6112	0.204
Mof_C 	C 	0.92613	0.34121	0.72008	0.012
Mof_H 	H 	0.9357	0.3482	0.7342	0.004
Mof_O 	O 	0.52996	0.81616	0.26428	-0.528
Mof_O 	O 	0.5284	0.7901	0.2976	-0.657
Mof_C 	C 	0.53626	0.80753	0.28725	0.582
Mof_C 	C 	0.56396	0.81657	0.29329	-0.196
Mof_C 	C 	0.57155	0.81079	0.31533	0.083
Mof_H 	H 	0.5598	0.8039	0.3278	-0.028
Mof_C 	C 	0.60095	0.81492	0.32251	-0.129
Mof_C 	C 	0.61239	0.80514	0.34996	0.425
Mof_C 	C 	0.63205	0.82821	0.3503	-0.195
Mof_C 	C 	0.63296	0.84857	0.33157	0.095
Mof_C 	C 	0.60943	0.83854	0.31481	0.011
Mof_C 	C 	0.60104	0.85604	0.28944	-0.115
Mof_H 	H 	0.6095	0.8707	0.2821	0.034
Mof_C 	C 	0.62268	0.78189	0.34134	-0.872
Mof_H 	H 	0.6092	0.7685	0.3417	0.268
Mof_H 	H 	0.6291	0.784	0.3236	0.276
Mof_H 	H 	0.6371	0.7767	0.3527	0.263
Mof_C 	C 	0.59136	0.81062	0.37215	-0.683
Mof_H 	H 	0.5883	0.8293	0.3735	0.207
Mof_H 	H 	0.5751	0.8018	0.3678	0.196
Mof_H 	H 	0.5978	0.8041	0.3888	0.204
Mof_C 	C 	0.57387	0.84121	0.27992	0.013
Mof_H 	H 	0.5643	0.8482	0.2658	0.004
Mof_O 	O 	0.52996	0.31616	0.76428	-0.528
Mof_O 	O 	0.5284	0.2901	0.7976	-0.657
Mof_C 	C 	0.53626	0.30753	0.78725	0.582
Mof_C 	C 	0.56396	0.31657	0.79329	-0.196
Mof_C 	C 	0.57155	0.31079	0.81533	0.083
Mof_H 	H 	0.5598	0.3039	0.8278	-0.028
Mof_C 	C 	0.60095	0.31492	0.82251	-0.129
Mof_C 	C 	0.61239	0.30514	0.84996	0.425
Mof_C 	C 	0.63205	0.32821	0.8503	-0.195
Mof_C 	C 	0.63296	0.34857	0.83157	0.095
Mof_C 	C 	0.60943	0.33854	0.81481	0.011
Mof_C 	C 	0.60104	0.35604	0.78944	-0.115
Mof_H 	H 	0.6095	0.3707	0.7821	0.034
Mof_C 	C 	0.62268	0.28189	0.84134	-0.872
Mof_H 	H 	0.6092	0.2685	0.8417	0.268
Mof_H 	H 	0.6291	0.284	0.8236	0.276
Mof_H 	H 	0.6371	0.2767	0.8527	0.263
Mof_C 	C 	0.59136	0.31062	0.87215	-0.683
Mof_H 	H 	0.5883	0.3293	0.8735	0.207
Mof_H 	H 	0.5751	0.3018	0.8678	0.196
Mof_H 	H 	0.5978	0.3041	0.8888	0.204
Mof_C 	C 	0.57387	0.34121	0.77992	0.013
Mof_H 	H 	0.5643	0.3482	0.7658	0.004
Mof_O 	O 	0.02996	0.81616	0.76428	-0.528
Mof_O 	O 	0.0284	0.7901	0.7976	-0.656
Mof_C 	C 	0.03626	0.80753	0.78725	0.582
Mof_C 	C 	0.06396	0.81657	0.79329	-0.196
Mof_C 	C 	0.07155	0.81079	0.81533	0.083
Mof_H 	H 	0.0598	0.8039	0.8278	-0.028
Mof_C 	C 	0.10095	0.81492	0.82251	-0.129
Mof_C 	C 	0.11239	0.80514	0.84996	0.425
Mof_C 	C 	0.13205	0.82821	0.8503	-0.195
Mof_C 	C 	0.13296	0.84857	0.83157	0.095
Mof_C 	C 	0.10943	0.83854	0.81481	0.011
Mof_C 	C 	0.10104	0.85604	0.78944	-0.115
Mof_H 	H 	0.1095	0.8707	0.7821	0.034
Mof_C 	C 	0.12268	0.78189	0.84134	-0.872
Mof_H 	H 	0.1092	0.7685	0.8417	0.268
Mof_H 	H 	0.1291	0.784	0.8236	0.276
Mof_H 	H 	0.1371	0.7767	0.8527	0.263
Mof_C 	C 	0.09136	0.81062	0.87215	-0.683
Mof_H 	H 	0.0883	0.8293	0.8735	0.207
Mof_H 	H 	0.0751	0.8018	0.8678	0.196
Mof_H 	H 	0.0978	0.8041	0.8888	0.204
Mof_C 	C 	0.07387	0.84121	0.77992	0.012
Mof_H 	H 	0.0643	0.8482	0.7658	0.004
Mof_O 	O 	0.02996	0.31616	0.26428	-0.528
Mof_O 	O 	0.0284	0.2901	0.2976	-0.656
Mof_C 	C 	0.03626	0.30753	0.28725	0.582
Mof_C 	C 	0.06396	0.31657	0.29329	-0.196
Mof_C 	C 	0.07155	0.31079	0.31533	0.083
Mof_H 	H 	0.0598	0.3039	0.3278	-0.028
Mof_C 	C 	0.10095	0.31492	0.32251	-0.129
Mof_C 	C 	0.11239	0.30514	0.34996	0.425
Mof_C 	C 	0.13205	0.32821	0.3503	-0.195
Mof_C 	C 	0.13296	0.34857	0.33157	0.095
Mof_C 	C 	0.10943	0.33854	0.31481	0.011
Mof_C 	C 	0.10104	0.35604	0.28944	-0.115
Mof_H 	H 	0.1095	0.3707	0.2821	0.034
Mof_C 	C 	0.12268	0.28189	0.34134	-0.872
Mof_H 	H 	0.1092	0.2685	0.3417	0.268
Mof_H 	H 	0.1291	0.284	0.3236	0.276
Mof_H 	H 	0.1371	0.2767	0.3527	0.263
Mof_C 	C 	0.09136	0.31062	0.37215	-0.683
Mof_H 	H 	0.0883	0.3293	0.3735	0.207
Mof_H 	H 	0.0751	0.3018	0.3678	0.196
Mof_H 	H 	0.0978	0.3041	0.3888	0.204
Mof_C 	C 	0.07387	0.34121	0.27992	0.012
Mof_H 	H 	0.0643	0.3482	0.2658	0.004
Mof_O 	O 	0.47004	0.18384	0.26428	-0.528
Mof_O 	O 	0.4716	0.2099	0.2976	-0.657
Mof_C 	C 	0.46374	0.19247	0.28725	0.582
Mof_C 	C 	0.43604	0.18343	0.29329	-0.196
Mof_C 	C 	0.42845	0.18921	0.31533	0.083
Mof_H 	H 	0.4402	0.1961	0.3278	-0.028
Mof_C 	C 	0.39905	0.18508	0.32251	-0.129
Mof_C 	C 	0.38761	0.19486	0.34996	0.425
Mof_C 	C 	0.36795	0.17179	0.3503	-0.195
Mof_C 	C 	0.36704	0.15143	0.33157	0.095
Mof_C 	C 	0.39057	0.16146	0.31481	0.011
Mof_C 	C 	0.39896	0.14396	0.28944	-0.115
Mof_H 	H 	0.3905	0.1293	0.2821	0.034
Mof_C 	C 	0.37732	0.21811	0.34134	-0.872
Mof_H 	H 	0.3908	0.2315	0.3417	0.268
Mof_H 	H 	0.3709	0.216	0.3236	0.276
Mof_H 	H 	0.3629	0.2233	0.3527	0.263
Mof_C 	C 	0.40864	0.18938	0.37215	-0.683
Mof_H 	H 	0.4117	0.1707	0.3735	0.207
Mof_H 	H 	0.4249	0.1982	0.3678	0.196
Mof_H 	H 	0.4022	0.1959	0.3888	0.204
Mof_C 	C 	0.42613	0.15879	0.27992	0.013
Mof_H 	H 	0.4357	0.1518	0.2658	0.004
Mof_O 	O 	0.47004	0.68384	0.76428	-0.528
Mof_O 	O 	0.4716	0.7099	0.7976	-0.657
Mof_C 	C 	0.46374	0.69247	0.78725	0.582
Mof_C 	C 	0.43604	0.68343	0.79329	-0.196
Mof_C 	C 	0.42845	0.68921	0.81533	0.083
Mof_H 	H 	0.4402	0.6961	0.8278	-0.028
Mof_C 	C 	0.39905	0.68508	0.82251	-0.129
Mof_C 	C 	0.38761	0.69486	0.84996	0.425
Mof_C 	C 	0.36795	0.67179	0.8503	-0.195
Mof_C 	C 	0.36704	0.65143	0.83157	0.095
Mof_C 	C 	0.39057	0.66146	0.81481	0.011
Mof_C 	C 	0.39896	0.64396	0.78944	-0.115
Mof_H 	H 	0.3905	0.6293	0.7821	0.034
Mof_C 	C 	0.37732	0.71811	0.84134	-0.872
Mof_H 	H 	0.3908	0.7315	0.8417	0.268
Mof_H 	H 	0.3709	0.716	0.8236	0.276
Mof_H 	H 	0.3629	0.7233	0.8527	0.263
Mof_C 	C 	0.40864	0.68938	0.87215	-0.683
Mof_H 	H 	0.4117	0.6707	0.8735	0.207
Mof_H 	H 	0.4249	0.6982	0.8678	0.196
Mof_H 	H 	0.4022	0.6959	0.8888	0.204
Mof_C 	C 	0.42613	0.65879	0.77992	0.013
Mof_H 	H 	0.4357	0.6518	0.7658	0.004
Mof_O 	O 	0.97004	0.18384	0.76428	-0.527
Mof_O 	O 	0.9716	0.2099	0.7976	-0.655
Mof_C 	C 	0.96374	0.19247	0.78725	0.582
Mof_C 	C 	0.93604	0.18343	0.79329	-0.196
Mof_C 	C 	0.92845	0.18921	0.81533	0.083
Mof_H 	H 	0.9402	0.1961	0.8278	-0.028
Mof_C 	C 	0.89905	0.18508	0.82251	-0.129
Mof_C 	C 	0.88761	0.19486	0.84996	0.425
Mof_C 	C 	0.86795	0.17179	0.8503	-0.195
Mof_C 	C 	0.86704	0.15143	0.83157	0.095
Mof_C 	C 	0.89057	0.16146	0.81481	0.011
Mof_C 	C 	0.89896	0.14396	0.78944	-0.115
Mof_H 	H 	0.8905	0.1293	0.7821	0.034
Mof_C 	C 	0.87732	0.21811	0.84134	-0.872
Mof_H 	H 	0.8908	0.2315	0.8417	0.268
Mof_H 	H 	0.8709	0.216	0.8236	0.276
Mof_H 	H 	0.8629	0.2233	0.8527	0.263
Mof_C 	C 	0.90864	0.18938	0.87215	-0.684
Mof_H 	H 	0.9117	0.1707	0.8735	0.207
Mof_H 	H 	0.9249	0.1982	0.8678	0.196
Mof_H 	H 	0.9022	0.1959	0.8888	0.205
Mof_C 	C 	0.92613	0.15879	0.77992	0.012
Mof_H 	H 	0.9357	0.1518	0.7658	0.004
Mof_O 	O 	0.97004	0.68384	0.26428	-0.527
Mof_O 	O 	0.9716	0.7099	0.2976	-0.655
Mof_C 	C 	0.96374	0.69247	0.28725	0.582
Mof_C 	C 	0.93604	0.68343	0.29329	-0.196
Mof_C 	C 	0.92845	0.68921	0.31533	0.083
Mof_H 	H 	0.9402	0.6961	0.3278	-0.028
Mof_C 	C 	0.89905	0.68508	0.32251	-0.129
Mof_C 	C 	0.88761	0.69486	0.34996	0.425
Mof_C 	C 	0.86795	0.67179	0.3503	-0.195
Mof_C 	C 	0.86704	0.65143	0.33157	0.095
Mof_C 	C 	0.89057	0.66146	0.31481	0.011
Mof_C 	C 	0.89896	0.64396	0.28944	-0.115
Mof_H 	H 	0.8905	0.6293	0.2821	0.034
Mof_C 	C 	0.87732	0.71811	0.34134	-0.872
Mof_H 	H 	0.8908	0.7315	0.3417	0.268
Mof_H 	H 	0.8709	0.716	0.3236	0.276
Mof_H 	H 	0.8629	0.7233	0.3527	0.263
Mof_C 	C 	0.90864	0.68938	0.37215	-0.683
Mof_H 	H 	0.9117	0.6707	0.3735	0.207
Mof_H 	H 	0.9249	0.6982	0.3678	0.196
Mof_H 	H 	0.9022	0.6959	0.3888	0.204
Mof_C 	C 	0.92613	0.65879	0.27992	0.012
Mof_H 	H 	0.9357	0.6518	0.2658	0.004
Mof_O 	O 	0.52996	0.18384	0.73572	-0.528
Mof_O 	O 	0.5284	0.2099	0.7024	-0.657
Mof_C 	C 	0.53626	0.19247	0.71275	0.582
Mof_C 	C 	0.56396	0.18343	0.70671	-0.196
Mof_C 	C 	0.57155	0.18921	0.68467	0.083
Mof_H 	H 	0.5598	0.1961	0.6722	-0.028
Mof_C 	C 	0.60095	0.18508	0.67749	-0.129
Mof_C 	C 	0.61239	0.19486	0.65004	0.425
Mof_C 	C 	0.63205	0.17179	0.6497	-0.195
Mof_C 	C 	0.63296	0.15143	0.66843	0.095
Mof_C 	C 	0.60943	0.16146	0.68519	0.011
Mof_C 	C 	0.60104	0.14396	0.71056	-0.116
Mof_H 	H 	0.6095	0.1293	0.7179	0.034
Mof_C 	C 	0.62268	0.21811	0.65866	-0.872
Mof_H 	H 	0.6092	0.2315	0.6583	0.268
Mof_H 	H 	0.6291	0.216	0.6764	0.276
Mof_H 	H 	0.6371	0.2233	0.6473	0.263
Mof_C 	C 	0.59136	0.18938	0.62785	-0.683
Mof_H 	H 	0.5883	0.1707	0.6265	0.207
Mof_H 	H 	0.5751	0.1982	0.6322	0.196
Mof_H 	H 	0.5978	0.1959	0.6112	0.204
Mof_C 	C 	0.57387	0.15879	0.72008	0.013
Mof_H 	H 	0.5643	0.1518	0.7342	0.004
Mof_O 	O 	0.52996	0.68384	0.23572	-0.528
Mof_O 	O 	0.5284	0.7099	0.2024	-0.657
Mof_C 	C 	0.53626	0.69247	0.21275	0.582
Mof_C 	C 	0.56396	0.68343	0.20671	-0.196
Mof_C 	C 	0.57155	0.68921	0.18467	0.083
Mof_H 	H 	0.5598	0.6961	0.1722	-0.028
Mof_C 	C 	0.60095	0.68508	0.17749	-0.129
Mof_C 	C 	0.61239	0.69486	0.15004	0.425
Mof_C 	C 	0.63205	0.67179	0.1497	-0.195
Mof_C 	C 	0.63296	0.65143	0.16843	0.095
Mof_C 	C 	0.60943	0.66146	0.18519	0.011
Mof_C 	C 	0.60104	0.64396	0.21056	-0.115
Mof_H 	H 	0.6095	0.6293	0.2179	0.034
Mof_C 	C 	0.62268	0.71811	0.15866	-0.872
Mof_H 	H 	0.6092	0.7315	0.1583	0.268
Mof_H 	H 	0.6291	0.716	0.1764	0.276
Mof_H 	H 	0.6371	0.7233	0.1473	0.263
Mof_C 	C 	0.59136	0.68938	0.12785	-0.683
Mof_H 	H 	0.5883	0.6707	0.1265	0.207
Mof_H 	H 	0.5751	0.6982	0.1322	0.196
Mof_H 	H 	0.5978	0.6959	0.1112	0.204
Mof_C 	C 	0.57387	0.65879	0.22008	0.013
Mof_H 	H 	0.5643	0.6518	0.2342	0.004
Mof_O 	O 	0.02996	0.18384	0.23572	-0.528
Mof_O 	O 	0.0284	0.2099	0.2024	-0.656
Mof_C 	C 	0.03626	0.19247	0.21275	0.582
Mof_C 	C 	0.06396	0.18343	0.20671	-0.196
Mof_C 	C 	0.07155	0.18921	0.18467	0.083
Mof_H 	H 	0.0598	0.1961	0.1722	-0.028
Mof_C 	C 	0.10095	0.18508	0.17749	-0.129
Mof_C 	C 	0.11239	0.19486	0.15004	0.424
Mof_C 	C 	0.13205	0.17179	0.1497	-0.195
Mof_C 	C 	0.13296	0.15143	0.16843	0.095
Mof_C 	C 	0.10943	0.16146	0.18519	0.011
Mof_C 	C 	0.10104	0.14396	0.21056	-0.115
Mof_H 	H 	0.1095	0.1293	0.2179	0.034
Mof_C 	C 	0.12268	0.21811	0.15866	-0.871
Mof_H 	H 	0.1092	0.2315	0.1583	0.268
Mof_H 	H 	0.1291	0.216	0.1764	0.276
Mof_H 	H 	0.1371	0.2233	0.1473	0.263
Mof_C 	C 	0.09136	0.18938	0.12785	-0.682
Mof_H 	H 	0.0883	0.1707	0.1265	0.207
Mof_H 	H 	0.0751	0.1982	0.1322	0.196
Mof_H 	H 	0.0978	0.1959	0.1112	0.204
Mof_C 	C 	0.07387	0.15879	0.22008	0.012
Mof_H 	H 	0.0643	0.1518	0.2342	0.004
Mof_O 	O 	0.02996	0.68384	0.73572	-0.528
Mof_O 	O 	0.0284	0.7099	0.7024	-0.656
Mof_C 	C 	0.03626	0.69247	0.71275	0.582
Mof_C 	C 	0.06396	0.68343	0.70671	-0.196
Mof_C 	C 	0.07155	0.68921	0.68467	0.083
Mof_H 	H 	0.0598	0.6961	0.6722	-0.028
Mof_C 	C 	0.10095	0.68508	0.67749	-0.129
Mof_C 	C 	0.11239	0.69486	0.65004	0.424
Mof_C 	C 	0.13205	0.67179	0.6497	-0.195
Mof_C 	C 	0.13296	0.65143	0.66843	0.095
Mof_C 	C 	0.10943	0.66146	0.68519	0.011
Mof_C 	C 	0.10104	0.64396	0.71056	-0.115
Mof_H 	H 	0.1095	0.6293	0.7179	0.034
Mof_C 	C 	0.12268	0.71811	0.65866	-0.872
Mof_H 	H 	0.1092	0.7315	0.6583	0.268
Mof_H 	H 	0.1291	0.716	0.6764	0.276
Mof_H 	H 	0.1371	0.7233	0.6473	0.263
Mof_C 	C 	0.09136	0.68938	0.62785	-0.683
Mof_H 	H 	0.0883	0.6707	0.6265	0.207
Mof_H 	H 	0.0751	0.6982	0.6322	0.196
Mof_H 	H 	0.0978	0.6959	0.6112	0.204
Mof_C 	C 	0.07387	0.65879	0.72008	0.012
Mof_H 	H 	0.0643	0.6518	0.7342	0.004
Mof_O 	O 	0.97004	0.23572	0.68384	-0.527
Mof_O 	O 	0.9716	0.2024	0.7099	-0.655
Mof_C 	C 	0.96374	0.21275	0.69247	0.582
Mof_C 	C 	0.93604	0.20671	0.68343	-0.196
Mof_C 	C 	0.92845	0.18467	0.68921	0.083
Mof_H 	H 	0.9402	0.1722	0.6961	-0.028
Mof_C 	C 	0.89905	0.17749	0.68508	-0.129
Mof_C 	C 	0.88761	0.15004	0.69486	0.425
Mof_C 	C 	0.86795	0.1497	0.67179	-0.195
Mof_C 	C 	0.86704	0.16843	0.65143	0.095
Mof_C 	C 	0.89057	0.18519	0.66146	0.011
Mof_C 	C 	0.89896	0.21056	0.64396	-0.115
Mof_H 	H 	0.8905	0.2179	0.6293	0.034
Mof_C 	C 	0.87732	0.15866	0.71811	-0.872
Mof_H 	H 	0.8908	0.1583	0.7315	0.268
Mof_H 	H 	0.8709	0.1764	0.716	0.276
Mof_H 	H 	0.8629	0.1473	0.7233	0.263
Mof_C 	C 	0.90864	0.12785	0.68938	-0.683
Mof_H 	H 	0.9117	0.1265	0.6707	0.207
Mof_H 	H 	0.9249	0.1322	0.6982	0.196
Mof_H 	H 	0.9022	0.1112	0.6959	0.204
Mof_C 	C 	0.92613	0.22008	0.65879	0.012
Mof_H 	H 	0.9357	0.2342	0.6518	0.004
Mof_O 	O 	0.97004	0.73572	0.18384	-0.527
Mof_O 	O 	0.9716	0.7024	0.2099	-0.655
Mof_C 	C 	0.96374	0.71275	0.19247	0.582
Mof_C 	C 	0.93604	0.70671	0.18343	-0.196
Mof_C 	C 	0.92845	0.68467	0.18921	0.083
Mof_H 	H 	0.9402	0.6722	0.1961	-0.028
Mof_C 	C 	0.89905	0.67749	0.18508	-0.129
Mof_C 	C 	0.88761	0.65004	0.19486	0.425
Mof_C 	C 	0.86795	0.6497	0.17179	-0.195
Mof_C 	C 	0.86704	0.66843	0.15143	0.095
Mof_C 	C 	0.89057	0.68519	0.16146	0.011
Mof_C 	C 	0.89896	0.71056	0.14396	-0.115
Mof_H 	H 	0.8905	0.7179	0.1293	0.034
Mof_C 	C 	0.87732	0.65866	0.21811	-0.872
Mof_H 	H 	0.8908	0.6583	0.2315	0.268
Mof_H 	H 	0.8709	0.6764	0.216	0.276
Mof_H 	H 	0.8629	0.6473	0.2233	0.263
Mof_C 	C 	0.90864	0.62785	0.18938	-0.683
Mof_H 	H 	0.9117	0.6265	0.1707	0.207
Mof_H 	H 	0.9249	0.6322	0.1982	0.196
Mof_H 	H 	0.9022	0.6112	0.1959	0.204
Mof_C 	C 	0.92613	0.72008	0.15879	0.012
Mof_H 	H 	0.9357	0.7342	0.1518	0.004
Mof_O 	O 	0.47004	0.23572	0.18384	-0.528
Mof_O 	O 	0.4716	0.2024	0.2099	-0.657
Mof_C 	C 	0.46374	0.21275	0.19247	0.582
Mof_C 	C 	0.43604	0.20671	0.18343	-0.196
Mof_C 	C 	0.42845	0.18467	0.18921	0.083
Mof_H 	H 	0.4402	0.1722	0.1961	-0.028
Mof_C 	C 	0.39905	0.17749	0.18508	-0.129
Mof_C 	C 	0.38761	0.15004	0.19486	0.425
Mof_C 	C 	0.36795	0.1497	0.17179	-0.195
Mof_C 	C 	0.36704	0.16843	0.15143	0.095
Mof_C 	C 	0.39057	0.18519	0.16146	0.011
Mof_C 	C 	0.39896	0.21056	0.14396	-0.115
Mof_H 	H 	0.3905	0.2179	0.1293	0.034
Mof_C 	C 	0.37732	0.15866	0.21811	-0.872
Mof_H 	H 	0.3908	0.1583	0.2315	0.268
Mof_H 	H 	0.3709	0.1764	0.216	0.276
Mof_H 	H 	0.3629	0.1473	0.2233	0.263
Mof_C 	C 	0.40864	0.12785	0.18938	-0.683
Mof_H 	H 	0.4117	0.1265	0.1707	0.207
Mof_H 	H 	0.4249	0.1322	0.1982	0.196
Mof_H 	H 	0.4022	0.1112	0.1959	0.204
Mof_C 	C 	0.42613	0.22008	0.15879	0.013
Mof_H 	H 	0.4357	0.2342	0.1518	0.004
Mof_O 	O 	0.47004	0.73572	0.68384	-0.528
Mof_O 	O 	0.4716	0.7024	0.7099	-0.657
Mof_C 	C 	0.46374	0.71275	0.69247	0.582
Mof_C 	C 	0.43604	0.70671	0.68343	-0.196
Mof_C 	C 	0.42845	0.68467	0.68921	0.083
Mof_H 	H 	0.4402	0.6722	0.6961	-0.028
Mof_C 	C 	0.39905	0.67749	0.68508	-0.129
Mof_C 	C 	0.38761	0.65004	0.69486	0.425
Mof_C 	C 	0.36795	0.6497	0.67179	-0.195
Mof_C 	C 	0.36704	0.66843	0.65143	0.095
Mof_C 	C 	0.39057	0.68519	0.66146	0.011
Mof_C 	C 	0.39896	0.71056	0.64396	-0.115
Mof_H 	H 	0.3905	0.7179	0.6293	0.034
Mof_C 	C 	0.37732	0.65866	0.71811	-0.872
Mof_H 	H 	0.3908	0.6583	0.7315	0.268
Mof_H 	H 	0.3709	0.6764	0.716	0.276
Mof_H 	H 	0.3629	0.6473	0.7233	0.263
Mof_C 	C 	0.40864	0.62785	0.68938	-0.683
Mof_H 	H 	0.4117	0.6265	0.6707	0.207
Mof_H 	H 	0.4249	0.6322	0.6982	0.196
Mof_H 	H 	0.4022	0.6112	0.6959	0.204
Mof_C 	C 	0.42613	0.72008	0.65879	0.013
Mof_H 	H 	0.4357	0.7342	0.6518	0.004
Mof_O 	O 	0.02996	0.76428	0.68384	-0.528
Mof_O 	O 	0.0284	0.7976	0.7099	-0.656
Mof_C 	C 	0.03626	0.78725	0.69247	0.582
Mof_C 	C 	0.06396	0.79329	0.68343	-0.196
Mof_C 	C 	0.07155	0.81533	0.68921	0.083
Mof_H 	H 	0.0598	0.8278	0.6961	-0.028
Mof_C 	C 	0.10095	0.82251	0.68508	-0.129
Mof_C 	C 	0.11239	0.84996	0.69486	0.425
Mof_C 	C 	0.13205	0.8503	0.67179	-0.195
Mof_C 	C 	0.13296	0.83157	0.65143	0.095
Mof_C 	C 	0.10943	0.81481	0.66146	0.011
Mof_C 	C 	0.10104	0.78944	0.64396	-0.115
Mof_H 	H 	0.1095	0.7821	0.6293	0.034
Mof_C 	C 	0.12268	0.84134	0.71811	-0.872
Mof_H 	H 	0.1092	0.8417	0.7315	0.268
Mof_H 	H 	0.1291	0.8236	0.716	0.276
Mof_H 	H 	0.1371	0.8527	0.7233	0.263
Mof_C 	C 	0.09136	0.87215	0.68938	-0.683
Mof_H 	H 	0.0883	0.8735	0.6707	0.207
Mof_H 	H 	0.0751	0.8678	0.6982	0.196
Mof_H 	H 	0.0978	0.8888	0.6959	0.204
Mof_C 	C 	0.07387	0.77992	0.65879	0.012
Mof_H 	H 	0.0643	0.7658	0.6518	0.004
Mof_O 	O 	0.02996	0.26428	0.18384	-0.528
Mof_O 	O 	0.0284	0.2976	0.2099	-0.656
Mof_C 	C 	0.03626	0.28725	0.19247	0.582
Mof_C 	C 	0.06396	0.29329	0.18343	-0.196
Mof_C 	C 	0.07155	0.31533	0.18921	0.083
Mof_H 	H 	0.0598	0.3278	0.1961	-0.028
Mof_C 	C 	0.10095	0.32251	0.18508	-0.129
Mof_C 	C 	0.11239	0.34996	0.19486	0.424
Mof_C 	C 	0.13205	0.3503	0.17179	-0.195
Mof_C 	C 	0.13296	0.33157	0.15143	0.095
Mof_C 	C 	0.10943	0.31481	0.16146	0.011
Mof_C 	C 	0.10104	0.28944	0.14396	-0.115
Mof_H 	H 	0.1095	0.2821	0.1293	0.034
Mof_C 	C 	0.12268	0.34134	0.21811	-0.872
Mof_H 	H 	0.1092	0.3417	0.2315	0.268
Mof_H 	H 	0.1291	0.3236	0.216	0.276
Mof_H 	H 	0.1371	0.3527	0.2233	0.263
Mof_C 	C 	0.09136	0.37215	0.18938	-0.683
Mof_H 	H 	0.0883	0.3735	0.1707	0.207
Mof_H 	H 	0.0751	0.3678	0.1982	0.196
Mof_H 	H 	0.0978	0.3888	0.1959	0.204
Mof_C 	C 	0.07387	0.27992	0.15879	0.012
Mof_H 	H 	0.0643	0.2658	0.1518	0.004
Mof_O 	O 	0.52996	0.76428	0.18384	-0.528
Mof_O 	O 	0.5284	0.7976	0.2099	-0.657
Mof_C 	C 	0.53626	0.78725	0.19247	0.582
Mof_C 	C 	0.56396	0.79329	0.18343	-0.196
Mof_C 	C 	0.57155	0.81533	0.18921	0.083
Mof_H 	H 	0.5598	0.8278	0.1961	-0.028
Mof_C 	C 	0.60095	0.82251	0.18508	-0.129
Mof_C 	C 	0.61239	0.84996	0.19486	0.425
Mof_C 	C 	0.63205	0.8503	0.17179	-0.195
Mof_C 	C 	0.63296	0.83157	0.15143	0.095
Mof_C 	C 	0.60943	0.81481	0.16146	0.011
Mof_C 	C 	0.60104	0.78944	0.14396	-0.115
Mof_H 	H 	0.6095	0.7821	0.1293	0.034
Mof_C 	C 	0.62268	0.84134	0.21811	-0.872
Mof_H 	H 	0.6092	0.8417	0.2315	0.268
Mof_H 	H 	0.6291	0.8236	0.216	0.276
Mof_H 	H 	0.6371	0.8527	0.2233	0.263
Mof_C 	C 	0.59136	0.87215	0.18938	-0.683
Mof_H 	H 	0.5883	0.8735	0.1707	0.207
Mof_H 	H 	0.5751	0.8678	0.1982	0.196
Mof_H 	H 	0.5978	0.8888	0.1959	0.204
Mof_C 	C 	0.57387	0.77992	0.15879	0.013
Mof_H 	H 	0.5643	0.7658	0.1518	0.004
Mof_O 	O 	0.52996	0.26428	0.68384	-0.528
Mof_O 	O 	0.5284	0.2976	0.7099	-0.657
Mof_C 	C 	0.53626	0.28725	0.69247	0.582
Mof_C 	C 	0.56396	0.29329	0.68343	-0.196
Mof_C 	C 	0.57155	0.31533	0.68921	0.083
Mof_H 	H 	0.5598	0.3278	0.6961	-0.028
Mof_C 	C 	0.60095	0.32251	0.68508	-0.129
Mof_C 	C 	0.61239	0.34996	0.69486	0.425
Mof_C 	C 	0.63205	0.3503	0.67179	-0.195
Mof_C 	C 	0.63296	0.33157	0.65143	0.095
Mof_C 	C 	0.60943	0.31481	0.66146	0.011
Mof_C 	C 	0.60104	0.28944	0.64396	-0.115
Mof_H 	H 	0.6095	0.2821	0.6293	0.034
Mof_C 	C 	0.62268	0.34134	0.71811	-0.872
Mof_H 	H 	0.6092	0.3417	0.7315	0.268
Mof_H 	H 	0.6291	0.3236	0.716	0.276
Mof_H 	H 	0.6371	0.3527	0.7233	0.263
Mof_C 	C 	0.59136	0.37215	0.68938	-0.683
Mof_H 	H 	0.5883	0.3735	0.6707	0.207
Mof_H 	H 	0.5751	0.3678	0.6982	0.196
Mof_H 	H 	0.5978	0.3888	0.6959	0.204
Mof_C 	C 	0.57387	0.27992	0.65879	0.013
Mof_H 	H 	0.5643	0.2658	0.6518	0.004
Mof_O 	O 	0.97004	0.76428	0.31616	-0.527
Mof_O 	O 	0.9716	0.7976	0.2901	-0.655
Mof_C 	C 	0.96374	0.78725	0.30753	0.582
Mof_C 	C 	0.93604	0.79329	0.31657	-0.196
Mof_C 	C 	0.92845	0.81533	0.31079	0.083
Mof_H 	H 	0.9402	0.8278	0.3039	-0.028
Mof_C 	C 	0.89905	0.82251	0.31492	-0.129
Mof_C 	C 	0.88761	0.84996	0.30514	0.425
Mof_C 	C 	0.86795	0.8503	0.32821	-0.195
Mof_C 	C 	0.86704	0.83157	0.34857	0.096
Mof_C 	C 	0.89057	0.81481	0.33854	0.011
Mof_C 	C 	0.89896	0.78944	0.35604	-0.115
Mof_H 	H 	0.8905	0.7821	0.3707	0.034
Mof_C 	C 	0.87732	0.84134	0.28189	-0.872
Mof_H 	H 	0.8908	0.8417	0.2685	0.268
Mof_H 	H 	0.8709	0.8236	0.284	0.276
Mof_H 	H 	0.8629	0.8527	0.2767	0.263
Mof_C 	C 	0.90864	0.87215	0.31062	-0.684
Mof_H 	H 	0.9117	0.8735	0.3293	0.207
Mof_H 	H 	0.9249	0.8678	0.3018	0.196
Mof_H 	H 	0.9022	0.8888	0.3041	0.205
Mof_C 	C 	0.92613	0.77992	0.34121	0.012
Mof_H 	H 	0.9357	0.7658	0.3482	0.004
Mof_O 	O 	0.97004	0.26428	0.81616	-0.527
Mof_O 	O 	0.9716	0.2976	0.7901	-0.655
Mof_C 	C 	0.96374	0.28725	0.80753	0.582
Mof_C 	C 	0.93604	0.29329	0.81657	-0.196
Mof_C 	C 	0.92845	0.31533	0.81079	0.083
Mof_H 	H 	0.9402	0.3278	0.8039	-0.028
Mof_C 	C 	0.89905	0.32251	0.81492	-0.129
Mof_C 	C 	0.88761	0.34996	0.80514	0.425
Mof_C 	C 	0.86795	0.3503	0.82821	-0.195
Mof_C 	C 	0.86704	0.33157	0.84857	0.096
Mof_C 	C 	0.89057	0.31481	0.83854	0.011
Mof_C 	C 	0.89896	0.28944	0.85604	-0.115
Mof_H 	H 	0.8905	0.2821	0.8707	0.034
Mof_C 	C 	0.87732	0.34134	0.78189	-0.872
Mof_H 	H 	0.8908	0.3417	0.7685	0.268
Mof_H 	H 	0.8709	0.3236	0.784	0.276
Mof_H 	H 	0.8629	0.3527	0.7767	0.263
Mof_C 	C 	0.90864	0.37215	0.81062	-0.684
Mof_H 	H 	0.9117	0.3735	0.8293	0.207
Mof_H 	H 	0.9249	0.3678	0.8018	0.196
Mof_H 	H 	0.9022	0.3888	0.8041	0.204
Mof_C 	C 	0.92613	0.27992	0.84121	0.012
Mof_H 	H 	0.9357	0.2658	0.8482	0.004
Mof_O 	O 	0.47004	0.76428	0.81616	-0.528
Mof_O 	O 	0.4716	0.7976	0.7901	-0.657
Mof_C 	C 	0.46374	0.78725	0.80753	0.582
Mof_C 	C 	0.43604	0.79329	0.81657	-0.196
Mof_C 	C 	0.42845	0.81533	0.81079	0.083
Mof_H 	H 	0.4402	0.8278	0.8039	-0.028
Mof_C 	C 	0.39905	0.82251	0.81492	-0.129
Mof_C 	C 	0.38761	0.84996	0.80514	0.425
Mof_C 	C 	0.36795	0.8503	0.82821	-0.195
Mof_C 	C 	0.36704	0.83157	0.84857	0.095
Mof_C 	C 	0.39057	0.81481	0.83854	0.011
Mof_C 	C 	0.39896	0.78944	0.85604	-0.115
Mof_H 	H 	0.3905	0.7821	0.8707	0.034
Mof_C 	C 	0.37732	0.84134	0.78189	-0.872
Mof_H 	H 	0.3908	0.8417	0.7685	0.268
Mof_H 	H 	0.3709	0.8236	0.784	0.276
Mof_H 	H 	0.3629	0.8527	0.7767	0.263
Mof_C 	C 	0.40864	0.87215	0.81062	-0.683
Mof_H 	H 	0.4117	0.8735	0.8293	0.207
Mof_H 	H 	0.4249	0.8678	0.8018	0.196
Mof_H 	H 	0.4022	0.8888	0.8041	0.204
Mof_C 	C 	0.42613	0.77992	0.84121	0.013
Mof_H 	H 	0.4357	0.7658	0.8482	0.004
Mof_O 	O 	0.47004	0.26428	0.31616	-0.528
Mof_O 	O 	0.4716	0.2976	0.2901	-0.657
Mof_C 	C 	0.46374	0.28725	0.30753	0.582
Mof_C 	C 	0.43604	0.29329	0.31657	-0.196
Mof_C 	C 	0.42845	0.31533	0.31079	0.083
Mof_H 	H 	0.4402	0.3278	0.3039	-0.028
Mof_C 	C 	0.39905	0.32251	0.31492	-0.129
Mof_C 	C 	0.38761	0.34996	0.30514	0.425
Mof_C 	C 	0.36795	0.3503	0.32821	-0.195
Mof_C 	C 	0.36704	0.33157	0.34857	0.095
Mof_C 	C 	0.39057	0.31481	0.33854	0.011
Mof_C 	C 	0.39896	0.28944	0.35604	-0.115
Mof_H 	H 	0.3905	0.2821	0.3707	0.034
Mof_C 	C 	0.37732	0.34134	0.28189	-0.872
Mof_H 	H 	0.3908	0.3417	0.2685	0.268
Mof_H 	H 	0.3709	0.3236	0.284	0.276
Mof_H 	H 	0.3629	0.3527	0.2767	0.263
Mof_C 	C 	0.40864	0.37215	0.31062	-0.683
Mof_H 	H 	0.4117	0.3735	0.3293	0.207
Mof_H 	H 	0.4249	0.3678	0.3018	0.196
Mof_H 	H 	0.4022	0.3888	0.3041	0.204
Mof_C 	C 	0.42613	0.27992	0.34121	0.013
Mof_H 	H 	0.4357	0.2658	0.3482	0.004
Mof_O 	O 	0.02996	0.23572	0.31616	-0.528
Mof_O 	O 	0.0284	0.2024	0.2901	-0.656
Mof_C 	C 	0.03626	0.21275	0.30753	0.582
Mof_C 	C 	0.06396	0.20671	0.31657	-0.196
Mof_C 	C 	0.07155	0.18467	0.31079	0.083
Mof_H 	H 	0.0598	0.1722	0.3039	-0.028
Mof_C 	C 	0.10095	0.17749	0.31492	-0.129
Mof_C 	C 	0.11239	0.15004	0.30514	0.424
Mof_C 	C 	0.13205	0.1497	0.32821	-0.195
Mof_C 	C 	0.13296	0.16843	0.34857	0.095
Mof_C 	C 	0.10943	0.18519	0.33854	0.011
Mof_C 	C 	0.10104	0.21056	0.35604	-0.115
Mof_H 	H 	0.1095	0.2179	0.3707	0.034
Mof_C 	C 	0.12268	0.15866	0.28189	-0.872
Mof_H 	H 	0.1092	0.1583	0.2685	0.268
Mof_H 	H 	0.1291	0.1764	0.284	0.276
Mof_H 	H 	0.1371	0.1473	0.2767	0.263
Mof_C 	C 	0.09136	0.12785	0.31062	-0.682
Mof_H 	H 	0.0883	0.1265	0.3293	0.207
Mof_H 	H 	0.0751	0.1322	0.3018	0.196
Mof_H 	H 	0.0978	0.1112	0.3041	0.204
Mof_C 	C 	0.07387	0.22008	0.34121	0.012
Mof_H 	H 	0.0643	0.2342	0.3482	0.004
Mof_O 	O 	0.02996	0.73572	0.81616	-0.528
Mof_O 	O 	0.0284	0.7024	0.7901	-0.656
Mof_C 	C 	0.03626	0.71275	0.80753	0.582
Mof_C 	C 	0.06396	0.70671	0.81657	-0.196
Mof_C 	C 	0.07155	0.68467	0.81079	0.083
Mof_H 	H 	0.0598	0.6722	0.8039	-0.028
Mof_C 	C 	0.10095	0.67749	0.81492	-0.129
Mof_C 	C 	0.11239	0.65004	0.80514	0.425
Mof_C 	C 	0.13205	0.6497	0.82821	-0.195
Mof_C 	C 	0.13296	0.66843	0.84857	0.095
Mof_C 	C 	0.10943	0.68519	0.83854	0.011
Mof_C 	C 	0.10104	0.71056	0.85604	-0.115
Mof_H 	H 	0.1095	0.7179	0.8707	0.034
Mof_C 	C 	0.12268	0.65866	0.78189	-0.872
Mof_H 	H 	0.1092	0.6583	0.7685	0.268
Mof_H 	H 	0.1291	0.6764	0.784	0.276
Mof_H 	H 	0.1371	0.6473	0.7767	0.263
Mof_C 	C 	0.09136	0.62785	0.81062	-0.683
Mof_H 	H 	0.0883	0.6265	0.8293	0.207
Mof_H 	H 	0.0751	0.6322	0.8018	0.196
Mof_H 	H 	0.0978	0.6112	0.8041	0.204
Mof_C 	C 	0.07387	0.72008	0.84121	0.012
Mof_H 	H 	0.0643	0.7342	0.8482	0.004
Mof_O 	O 	0.52996	0.23572	0.81616	-0.528
Mof_O 	O 	0.5284	0.2024	0.7901	-0.657
Mof_C 	C 	0.53626	0.21275	0.80753	0.582
Mof_C 	C 	0.56396	0.20671	0.81657	-0.196
Mof_C 	C 	0.57155	0.18467	0.81079	0.083
Mof_H 	H 	0.5598	0.1722	0.8039	-0.028
Mof_C 	C 	0.60095	0.17749	0.81492	-0.129
Mof_C 	C 	0.61239	0.15004	0.80514	0.425
Mof_C 	C 	0.63205	0.1497	0.82821	-0.195
Mof_C 	C 	0.63296	0.16843	0.84857	0.095
Mof_C 	C 	0.60943	0.18519	0.83854	0.011
Mof_C 	C 	0.60104	0.21056	0.85604	-0.115
Mof_H 	H 	0.6095	0.2179	0.8707	0.034
Mof_C 	C 	0.62268	0.15866	0.78189	-0.872
Mof_H 	H 	0.6092	0.1583	0.7685	0.268
Mof_H 	H 	0.6291	0.1764	0.784	0.276
Mof_H 	H 	0.6371	0.1473	0.7767	0.263
Mof_C 	C 	0.59136	0.12785	0.81062	-0.683
Mof_H 	H 	0.5883	0.1265	0.8293	0.207
Mof_H 	H 	0.5751	0.1322	0.8018	0.196
Mof_H 	H 	0.5978	0.1112	0.8041	0.204
Mof_C 	C 	0.57387	0.22008	0.84121	0.013
Mof_H 	H 	0.5643	0.2342	0.8482	0.004
Mof_O 	O 	0.52996	0.73572	0.31616	-0.528
Mof_O 	O 	0.5284	0.7024	0.2901	-0.657
Mof_C 	C 	0.53626	0.71275	0.30753	0.582
Mof_C 	C 	0.56396	0.70671	0.31657	-0.196
Mof_C 	C 	0.57155	0.68467	0.31079	0.083
Mof_H 	H 	0.5598	0.6722	0.3039	-0.028
Mof_C 	C 	0.60095	0.67749	0.31492	-0.129
Mof_C 	C 	0.61239	0.65004	0.30514	0.425
Mof_C 	C 	0.63205	0.6497	0.32821	-0.195
Mof_C 	C 	0.63296	0.66843	0.34857	0.095
Mof_C 	C 	0.60943	0.68519	0.33854	0.011
Mof_C 	C 	0.60104	0.71056	0.35604	-0.115
Mof_H 	H 	0.6095	0.7179	0.3707	0.034
Mof_C 	C 	0.62268	0.65866	0.28189	-0.872
Mof_H 	H 	0.6092	0.6583	0.2685	0.268
Mof_H 	H 	0.6291	0.6764	0.284	0.276
Mof_H 	H 	0.6371	0.6473	0.2767	0.263
Mof_C 	C 	0.59136	0.62785	0.31062	-0.683
Mof_H 	H 	0.5883	0.6265	0.3293	0.207
Mof_H 	H 	0.5751	0.6322	0.3018	0.196
Mof_H 	H 	0.5978	0.6112	0.3041	0.204
Mof_C 	C 	0.57387	0.72008	0.34121	0.013
Mof_H 	H 	0.5643	0.7342	0.3482	0.004
Mof_O 	O 	0.23572	0.31616	0.02996	-0.528
Mof_O 	O 	0.2024	0.2901	0.0284	-0.656
Mof_C 	C 	0.21275	0.30753	0.03626	0.582
Mof_C 	C 	0.20671	0.31657	0.06396	-0.196
Mof_C 	C 	0.18467	0.31079	0.07155	0.083
Mof_H 	H 	0.1722	0.3039	0.0598	-0.028
Mof_C 	C 	0.17749	0.31492	0.10095	-0.129
Mof_C 	C 	0.15004	0.30514	0.11239	0.424
Mof_C 	C 	0.1497	0.32821	0.13205	-0.195
Mof_C 	C 	0.16843	0.34857	0.13296	0.095
Mof_C 	C 	0.18519	0.33854	0.10943	0.011
Mof_C 	C 	0.21056	0.35604	0.10104	-0.115
Mof_H 	H 	0.2179	0.3707	0.1095	0.034
Mof_C 	C 	0.15866	0.28189	0.12268	-0.872
Mof_H 	H 	0.1583	0.2685	0.1092	0.268
Mof_H 	H 	0.1764	0.284	0.1291	0.276
Mof_H 	H 	0.1473	0.2767	0.1371	0.263
Mof_C 	C 	0.12785	0.31062	0.09136	-0.682
Mof_H 	H 	0.1265	0.3293	0.0883	0.207
Mof_H 	H 	0.1322	0.3018	0.0751	0.196
Mof_H 	H 	0.1112	0.3041	0.0978	0.204
Mof_C 	C 	0.22008	0.34121	0.07387	0.012
Mof_H 	H 	0.2342	0.3482	0.0643	0.004
Mof_O 	O 	0.23572	0.81616	0.52996	-0.528
Mof_O 	O 	0.2024	0.7901	0.5284	-0.657
Mof_C 	C 	0.21275	0.80753	0.53626	0.582
Mof_C 	C 	0.20671	0.81657	0.56396	-0.196
Mof_C 	C 	0.18467	0.81079	0.57155	0.083
Mof_H 	H 	0.1722	0.8039	0.5598	-0.028
Mof_C 	C 	0.17749	0.81492	0.60095	-0.129
Mof_C 	C 	0.15004	0.80514	0.61239	0.425
Mof_C 	C 	0.1497	0.82821	0.63205	-0.195
Mof_C 	C 	0.16843	0.84857	0.63296	0.095
Mof_C 	C 	0.18519	0.83854	0.60943	0.011
Mof_C 	C 	0.21056	0.85604	0.60104	-0.115
Mof_H 	H 	0.2179	0.8707	0.6095	0.034
Mof_C 	C 	0.15866	0.78189	0.62268	-0.872
Mof_H 	H 	0.1583	0.7685	0.6092	0.268
Mof_H 	H 	0.1764	0.784	0.6291	0.276
Mof_H 	H 	0.1473	0.7767	0.6371	0.263
Mof_C 	C 	0.12785	0.81062	0.59136	-0.683
Mof_H 	H 	0.1265	0.8293	0.5883	0.207
Mof_H 	H 	0.1322	0.8018	0.5751	0.196
Mof_H 	H 	0.1112	0.8041	0.5978	0.204
Mof_C 	C 	0.22008	0.84121	0.57387	0.013
Mof_H 	H 	0.2342	0.8482	0.5643	0.004
Mof_O 	O 	0.73572	0.31616	0.52996	-0.528
Mof_O 	O 	0.7024	0.2901	0.5284	-0.657
Mof_C 	C 	0.71275	0.30753	0.53626	0.582
Mof_C 	C 	0.70671	0.31657	0.56396	-0.196
Mof_C 	C 	0.68467	0.31079	0.57155	0.083
Mof_H 	H 	0.6722	0.3039	0.5598	-0.028
Mof_C 	C 	0.67749	0.31492	0.60095	-0.129
Mof_C 	C 	0.65004	0.30514	0.61239	0.425
Mof_C 	C 	0.6497	0.32821	0.63205	-0.195
Mof_C 	C 	0.66843	0.34857	0.63296	0.095
Mof_C 	C 	0.68519	0.33854	0.60943	0.011
Mof_C 	C 	0.71056	0.35604	0.60104	-0.115
Mof_H 	H 	0.7179	0.3707	0.6095	0.034
Mof_C 	C 	0.65866	0.28189	0.62268	-0.872
Mof_H 	H 	0.6583	0.2685	0.6092	0.268
Mof_H 	H 	0.6764	0.284	0.6291	0.276
Mof_H 	H 	0.6473	0.2767	0.6371	0.263
Mof_C 	C 	0.62785	0.31062	0.59136	-0.683
Mof_H 	H 	0.6265	0.3293	0.5883	0.207
Mof_H 	H 	0.6322	0.3018	0.5751	0.196
Mof_H 	H 	0.6112	0.3041	0.5978	0.204
Mof_C 	C 	0.72008	0.34121	0.57387	0.013
Mof_H 	H 	0.7342	0.3482	0.5643	0.004
Mof_O 	O 	0.73572	0.81616	0.02996	-0.528
Mof_O 	O 	0.7024	0.7901	0.0284	-0.656
Mof_C 	C 	0.71275	0.80753	0.03626	0.582
Mof_C 	C 	0.70671	0.81657	0.06396	-0.196
Mof_C 	C 	0.68467	0.81079	0.07155	0.083
Mof_H 	H 	0.6722	0.8039	0.0598	-0.028
Mof_C 	C 	0.67749	0.81492	0.10095	-0.129
Mof_C 	C 	0.65004	0.80514	0.11239	0.425
Mof_C 	C 	0.6497	0.82821	0.13205	-0.195
Mof_C 	C 	0.66843	0.84857	0.13296	0.095
Mof_C 	C 	0.68519	0.83854	0.10943	0.011
Mof_C 	C 	0.71056	0.85604	0.10104	-0.115
Mof_H 	H 	0.7179	0.8707	0.1095	0.034
Mof_C 	C 	0.65866	0.78189	0.12268	-0.872
Mof_H 	H 	0.6583	0.7685	0.1092	0.268
Mof_H 	H 	0.6764	0.784	0.1291	0.276
Mof_H 	H 	0.6473	0.7767	0.1371	0.263
Mof_C 	C 	0.62785	0.81062	0.09136	-0.683
Mof_H 	H 	0.6265	0.8293	0.0883	0.207
Mof_H 	H 	0.6322	0.8018	0.0751	0.196
Mof_H 	H 	0.6112	0.8041	0.0978	0.204
Mof_C 	C 	0.72008	0.84121	0.07387	0.012
Mof_H 	H 	0.7342	0.8482	0.0643	0.004
Mof_O 	O 	0.76428	0.31616	0.97004	-0.527
Mof_O 	O 	0.7976	0.2901	0.9716	-0.655
Mof_C 	C 	0.78725	0.30753	0.96374	0.582
Mof_C 	C 	0.79329	0.31657	0.93604	-0.196
Mof_C 	C 	0.81533	0.31079	0.92845	0.083
Mof_H 	H 	0.8278	0.3039	0.9402	-0.028
Mof_C 	C 	0.82251	0.31492	0.89905	-0.129
Mof_C 	C 	0.84996	0.30514	0.88761	0.425
Mof_C 	C 	0.8503	0.32821	0.86795	-0.195
Mof_C 	C 	0.83157	0.34857	0.86704	0.096
Mof_C 	C 	0.81481	0.33854	0.89057	0.011
Mof_C 	C 	0.78944	0.35604	0.89896	-0.115
Mof_H 	H 	0.7821	0.3707	0.8905	0.034
Mof_C 	C 	0.84134	0.28189	0.87732	-0.872
Mof_H 	H 	0.8417	0.2685	0.8908	0.268
Mof_H 	H 	0.8236	0.284	0.8709	0.276
Mof_H 	H 	0.8527	0.2767	0.8629	0.263
Mof_C 	C 	0.87215	0.31062	0.90864	-0.684
Mof_H 	H 	0.8735	0.3293	0.9117	0.207
Mof_H 	H 	0.8678	0.3018	0.9249	0.196
Mof_H 	H 	0.8888	0.3041	0.9022	0.205
Mof_C 	C 	0.77992	0.34121	0.92613	0.012
Mof_H 	H 	0.7658	0.3482	0.9357	0.004
Mof_O 	O 	0.76428	0.81616	0.47004	-0.528
Mof_O 	O 	0.7976	0.7901	0.4716	-0.657
Mof_C 	C 	0.78725	0.80753	0.46374	0.582
Mof_C 	C 	0.79329	0.81657	0.43604	-0.196
Mof_C 	C 	0.81533	0.81079	0.42845	0.083
Mof_H 	H 	0.8278	0.8039	0.4402	-0.028
Mof_C 	C 	0.82251	0.81492	0.39905	-0.129
Mof_C 	C 	0.84996	0.80514	0.38761	0.425
Mof_C 	C 	0.8503	0.82821	0.36795	-0.195
Mof_C 	C 	0.83157	0.84857	0.36704	0.095
Mof_C 	C 	0.81481	0.83854	0.39057	0.011
Mof_C 	C 	0.78944	0.85604	0.39896	-0.115
Mof_H 	H 	0.7821	0.8707	0.3905	0.034
Mof_C 	C 	0.84134	0.78189	0.37732	-0.872
Mof_H 	H 	0.8417	0.7685	0.3908	0.268
Mof_H 	H 	0.8236	0.784	0.3709	0.276
Mof_H 	H 	0.8527	0.7767	0.3629	0.263
Mof_C 	C 	0.87215	0.81062	0.40864	-0.683
Mof_H 	H 	0.8735	0.8293	0.4117	0.207
Mof_H 	H 	0.8678	0.8018	0.4249	0.196
Mof_H 	H 	0.8888	0.8041	0.4022	0.204
Mof_C 	C 	0.77992	0.84121	0.42613	0.013
Mof_H 	H 	0.7658	0.8482	0.4357	0.004
Mof_O 	O 	0.26428	0.31616	0.47004	-0.528
Mof_O 	O 	0.2976	0.2901	0.4716	-0.657
Mof_C 	C 	0.28725	0.30753	0.46374	0.582
Mof_C 	C 	0.29329	0.31657	0.43604	-0.196
Mof_C 	C 	0.31533	0.31079	0.42845	0.083
Mof_H 	H 	0.3278	0.3039	0.4402	-0.028
Mof_C 	C 	0.32251	0.31492	0.39905	-0.129
Mof_C 	C 	0.34996	0.30514	0.38761	0.425
Mof_C 	C 	0.3503	0.32821	0.36795	-0.195
Mof_C 	C 	0.33157	0.34857	0.36704	0.095
Mof_C 	C 	0.31481	0.33854	0.39057	0.011
Mof_C 	C 	0.28944	0.35604	0.39896	-0.115
Mof_H 	H 	0.2821	0.3707	0.3905	0.034
Mof_C 	C 	0.34134	0.28189	0.37732	-0.872
Mof_H 	H 	0.3417	0.2685	0.3908	0.268
Mof_H 	H 	0.3236	0.284	0.3709	0.276
Mof_H 	H 	0.3527	0.2767	0.3629	0.263
Mof_C 	C 	0.37215	0.31062	0.40864	-0.683
Mof_H 	H 	0.3735	0.3293	0.4117	0.207
Mof_H 	H 	0.3678	0.3018	0.4249	0.196
Mof_H 	H 	0.3888	0.3041	0.4022	0.204
Mof_C 	C 	0.27992	0.34121	0.42613	0.013
Mof_H 	H 	0.2658	0.3482	0.4357	0.004
Mof_O 	O 	0.26428	0.81616	0.97004	-0.527
Mof_O 	O 	0.2976	0.7901	0.9716	-0.655
Mof_C 	C 	0.28725	0.80753	0.96374	0.582
Mof_C 	C 	0.29329	0.81657	0.93604	-0.196
Mof_C 	C 	0.31533	0.81079	0.92845	0.083
Mof_H 	H 	0.3278	0.8039	0.9402	-0.028
Mof_C 	C 	0.32251	0.81492	0.89905	-0.129
Mof_C 	C 	0.34996	0.80514	0.88761	0.425
Mof_C 	C 	0.3503	0.82821	0.86795	-0.195
Mof_C 	C 	0.33157	0.84857	0.86704	0.096
Mof_C 	C 	0.31481	0.83854	0.89057	0.011
Mof_C 	C 	0.28944	0.85604	0.89896	-0.115
Mof_H 	H 	0.2821	0.8707	0.8905	0.034
Mof_C 	C 	0.34134	0.78189	0.87732	-0.872
Mof_H 	H 	0.3417	0.7685	0.8908	0.268
Mof_H 	H 	0.3236	0.784	0.8709	0.276
Mof_H 	H 	0.3527	0.7767	0.8629	0.263
Mof_C 	C 	0.37215	0.81062	0.90864	-0.684
Mof_H 	H 	0.3735	0.8293	0.9117	0.207
Mof_H 	H 	0.3678	0.8018	0.9249	0.196
Mof_H 	H 	0.3888	0.8041	0.9022	0.204
Mof_C 	C 	0.27992	0.84121	0.92613	0.012
Mof_H 	H 	0.2658	0.8482	0.9357	0.004
Mof_O 	O 	0.76428	0.68384	0.02996	-0.528
Mof_O 	O 	0.7976	0.7099	0.0284	-0.656
Mof_C 	C 	0.78725	0.69247	0.03626	0.582
Mof_C 	C 	0.79329	0.68343	0.06396	-0.196
Mof_C 	C 	0.81533	0.68921	0.07155	0.083
Mof_H 	H 	0.8278	0.6961	0.0598	-0.028
Mof_C 	C 	0.82251	0.68508	0.10095	-0.129
Mof_C 	C 	0.84996	0.69486	0.11239	0.425
Mof_C 	C 	0.8503	0.67179	0.13205	-0.195
Mof_C 	C 	0.83157	0.65143	0.13296	0.095
Mof_C 	C 	0.81481	0.66146	0.10943	0.011
Mof_C 	C 	0.78944	0.64396	0.10104	-0.115
Mof_H 	H 	0.7821	0.6293	0.1095	0.034
Mof_C 	C 	0.84134	0.71811	0.12268	-0.872
Mof_H 	H 	0.8417	0.7315	0.1092	0.268
Mof_H 	H 	0.8236	0.716	0.1291	0.276
Mof_H 	H 	0.8527	0.7233	0.1371	0.263
Mof_C 	C 	0.87215	0.68938	0.09136	-0.683
Mof_H 	H 	0.8735	0.6707	0.0883	0.207
Mof_H 	H 	0.8678	0.6982	0.0751	0.196
Mof_H 	H 	0.8888	0.6959	0.0978	0.204
Mof_C 	C 	0.77992	0.65879	0.07387	0.012
Mof_H 	H 	0.7658	0.6518	0.0643	0.004
Mof_O 	O 	0.76428	0.18384	0.52996	-0.528
Mof_O 	O 	0.7976	0.2099	0.5284	-0.657
Mof_C 	C 	0.78725	0.19247	0.53626	0.582
Mof_C 	C 	0.79329	0.18343	0.56396	-0.196
Mof_C 	C 	0.81533	0.18921	0.57155	0.083
Mof_H 	H 	0.8278	0.1961	0.5598	-0.028
Mof_C 	C 	0.82251	0.18508	0.60095	-0.129
Mof_C 	C 	0.84996	0.19486	0.61239	0.425
Mof_C 	C 	0.8503	0.17179	0.63205	-0.195
Mof_C 	C 	0.83157	0.15143	0.63296	0.095
Mof_C 	C 	0.81481	0.16146	0.60943	0.011
Mof_C 	C 	0.78944	0.14396	0.60104	-0.115
Mof_H 	H 	0.7821	0.1293	0.6095	0.034
Mof_C 	C 	0.84134	0.21811	0.62268	-0.872
Mof_H 	H 	0.8417	0.2315	0.6092	0.268
Mof_H 	H 	0.8236	0.216	0.6291	0.276
Mof_H 	H 	0.8527	0.2233	0.6371	0.263
Mof_C 	C 	0.87215	0.18938	0.59136	-0.683
Mof_H 	H 	0.8735	0.1707	0.5883	0.207
Mof_H 	H 	0.8678	0.1982	0.5751	0.196
Mof_H 	H 	0.8888	0.1959	0.5978	0.204
Mof_C 	C 	0.77992	0.15879	0.57387	0.013
Mof_H 	H 	0.7658	0.1518	0.5643	0.004
Mof_O 	O 	0.26428	0.68384	0.52996	-0.528
Mof_O 	O 	0.2976	0.7099	0.5284	-0.657
Mof_C 	C 	0.28725	0.69247	0.53626	0.582
Mof_C 	C 	0.29329	0.68343	0.56396	-0.196
Mof_C 	C 	0.31533	0.68921	0.57155	0.083
Mof_H 	H 	0.3278	0.6961	0.5598	-0.028
Mof_C 	C 	0.32251	0.68508	0.60095	-0.129
Mof_C 	C 	0.34996	0.69486	0.61239	0.425
Mof_C 	C 	0.3503	0.67179	0.63205	-0.195
Mof_C 	C 	0.33157	0.65143	0.63296	0.095
Mof_C 	C 	0.31481	0.66146	0.60943	0.011
Mof_C 	C 	0.28944	0.64396	0.60104	-0.115
Mof_H 	H 	0.2821	0.6293	0.6095	0.034
Mof_C 	C 	0.34134	0.71811	0.62268	-0.872
Mof_H 	H 	0.3417	0.7315	0.6092	0.268
Mof_H 	H 	0.3236	0.716	0.6291	0.276
Mof_H 	H 	0.3527	0.7233	0.6371	0.263
Mof_C 	C 	0.37215	0.68938	0.59136	-0.683
Mof_H 	H 	0.3735	0.6707	0.5883	0.207
Mof_H 	H 	0.3678	0.6982	0.5751	0.196
Mof_H 	H 	0.3888	0.6959	0.5978	0.204
Mof_C 	C 	0.27992	0.65879	0.57387	0.013
Mof_H 	H 	0.2658	0.6518	0.5643	0.004
Mof_O 	O 	0.26428	0.18384	0.02996	-0.528
Mof_O 	O 	0.2976	0.2099	0.0284	-0.656
Mof_C 	C 	0.28725	0.19247	0.03626	0.582
Mof_C 	C 	0.29329	0.18343	0.06396	-0.196
Mof_C 	C 	0.31533	0.18921	0.07155	0.083
Mof_H 	H 	0.3278	0.1961	0.0598	-0.028
Mof_C 	C 	0.32251	0.18508	0.10095	-0.129
Mof_C 	C 	0.34996	0.19486	0.11239	0.424
Mof_C 	C 	0.3503	0.17179	0.13205	-0.195
Mof_C 	C 	0.33157	0.15143	0.13296	0.095
Mof_C 	C 	0.31481	0.16146	0.10943	0.011
Mof_C 	C 	0.28944	0.14396	0.10104	-0.115
Mof_H 	H 	0.2821	0.1293	0.1095	0.034
Mof_C 	C 	0.34134	0.21811	0.12268	-0.872
Mof_H 	H 	0.3417	0.2315	0.1092	0.268
Mof_H 	H 	0.3236	0.216	0.1291	0.276
Mof_H 	H 	0.3527	0.2233	0.1371	0.263
Mof_C 	C 	0.37215	0.18938	0.09136	-0.683
Mof_H 	H 	0.3735	0.1707	0.0883	0.207
Mof_H 	H 	0.3678	0.1982	0.0751	0.196
Mof_H 	H 	0.3888	0.1959	0.0978	0.204
Mof_C 	C 	0.27992	0.15879	0.07387	0.012
Mof_H 	H 	0.2658	0.1518	0.0643	0.004
Mof_O 	O 	0.23572	0.68384	0.97004	-0.527
Mof_O 	O 	0.2024	0.7099	0.9716	-0.655
Mof_C 	C 	0.21275	0.69247	0.96374	0.582
Mof_C 	C 	0.20671	0.68343	0.93604	-0.196
Mof_C 	C 	0.18467	0.68921	0.92845	0.083
Mof_H 	H 	0.1722	0.6961	0.9402	-0.028
Mof_C 	C 	0.17749	0.68508	0.89905	-0.129
Mof_C 	C 	0.15004	0.69486	0.88761	0.425
Mof_C 	C 	0.1497	0.67179	0.86795	-0.195
Mof_C 	C 	0.16843	0.65143	0.86704	0.095
Mof_C 	C 	0.18519	0.66146	0.89057	0.011
Mof_C 	C 	0.21056	0.64396	0.89896	-0.115
Mof_H 	H 	0.2179	0.6293	0.8905	0.034
Mof_C 	C 	0.15866	0.71811	0.87732	-0.872
Mof_H 	H 	0.1583	0.7315	0.8908	0.268
Mof_H 	H 	0.1764	0.716	0.8709	0.276
Mof_H 	H 	0.1473	0.7233	0.8629	0.263
Mof_C 	C 	0.12785	0.68938	0.90864	-0.683
Mof_H 	H 	0.1265	0.6707	0.9117	0.207
Mof_H 	H 	0.1322	0.6982	0.9249	0.196
Mof_H 	H 	0.1112	0.6959	0.9022	0.204
Mof_C 	C 	0.22008	0.65879	0.92613	0.012
Mof_H 	H 	0.2342	0.6518	0.9357	0.004
Mof_O 	O 	0.23572	0.18384	0.47004	-0.528
Mof_O 	O 	0.2024	0.2099	0.4716	-0.657
Mof_C 	C 	0.21275	0.19247	0.46374	0.582
Mof_C 	C 	0.20671	0.18343	0.43604	-0.196
Mof_C 	C 	0.18467	0.18921	0.42845	0.083
Mof_H 	H 	0.1722	0.1961	0.4402	-0.028
Mof_C 	C 	0.17749	0.18508	0.39905	-0.129
Mof_C 	C 	0.15004	0.19486	0.38761	0.425
Mof_C 	C 	0.1497	0.17179	0.36795	-0.195
Mof_C 	C 	0.16843	0.15143	0.36704	0.095
Mof_C 	C 	0.18519	0.16146	0.39057	0.011
Mof_C 	C 	0.21056	0.14396	0.39896	-0.115
Mof_H 	H 	0.2179	0.1293	0.3905	0.034
Mof_C 	C 	0.15866	0.21811	0.37732	-0.872
Mof_H 	H 	0.1583	0.2315	0.3908	0.268
Mof_H 	H 	0.1764	0.216	0.3709	0.276
Mof_H 	H 	0.1473	0.2233	0.3629	0.263
Mof_C 	C 	0.12785	0.18938	0.40864	-0.683
Mof_H 	H 	0.1265	0.1707	0.4117	0.207
Mof_H 	H 	0.1322	0.1982	0.4249	0.196
Mof_H 	H 	0.1112	0.1959	0.4022	0.204
Mof_C 	C 	0.22008	0.15879	0.42613	0.013
Mof_H 	H 	0.2342	0.1518	0.4357	0.004
Mof_O 	O 	0.73572	0.68384	0.47004	-0.528
Mof_O 	O 	0.7024	0.7099	0.4716	-0.657
Mof_C 	C 	0.71275	0.69247	0.46374	0.582
Mof_C 	C 	0.70671	0.68343	0.43604	-0.196
Mof_C 	C 	0.68467	0.68921	0.42845	0.083
Mof_H 	H 	0.6722	0.6961	0.4402	-0.028
Mof_C 	C 	0.67749	0.68508	0.39905	-0.129
Mof_C 	C 	0.65004	0.69486	0.38761	0.425
Mof_C 	C 	0.6497	0.67179	0.36795	-0.195
Mof_C 	C 	0.66843	0.65143	0.36704	0.095
Mof_C 	C 	0.68519	0.66146	0.39057	0.011
Mof_C 	C 	0.71056	0.64396	0.39896	-0.115
Mof_H 	H 	0.7179	0.6293	0.3905	0.034
Mof_C 	C 	0.65866	0.71811	0.37732	-0.872
Mof_H 	H 	0.6583	0.7315	0.3908	0.268
Mof_H 	H 	0.6764	0.716	0.3709	0.276
Mof_H 	H 	0.6473	0.7233	0.3629	0.263
Mof_C 	C 	0.62785	0.68938	0.40864	-0.683
Mof_H 	H 	0.6265	0.6707	0.4117	0.207
Mof_H 	H 	0.6322	0.6982	0.4249	0.196
Mof_H 	H 	0.6112	0.6959	0.4022	0.204
Mof_C 	C 	0.72008	0.65879	0.42613	0.013
Mof_H 	H 	0.7342	0.6518	0.4357	0.004
Mof_O 	O 	0.73572	0.18384	0.97004	-0.527
Mof_O 	O 	0.7024	0.2099	0.9716	-0.655
Mof_C 	C 	0.71275	0.19247	0.96374	0.582
Mof_C 	C 	0.70671	0.18343	0.93604	-0.196
Mof_C 	C 	0.68467	0.18921	0.92845	0.083
Mof_H 	H 	0.6722	0.1961	0.9402	-0.028
Mof_C 	C 	0.67749	0.18508	0.89905	-0.129
Mof_C 	C 	0.65004	0.19486	0.88761	0.425
Mof_C 	C 	0.6497	0.17179	0.86795	-0.195
Mof_C 	C 	0.66843	0.15143	0.86704	0.095
Mof_C 	C 	0.68519	0.16146	0.89057	0.011
Mof_C 	C 	0.71056	0.14396	0.89896	-0.115
Mof_H 	H 	0.7179	0.1293	0.8905	0.034
Mof_C 	C 	0.65866	0.21811	0.87732	-0.872
Mof_H 	H 	0.6583	0.2315	0.8908	0.268
Mof_H 	H 	0.6764	0.216	0.8709	0.276
Mof_H 	H 	0.6473	0.2233	0.8629	0.263
Mof_C 	C 	0.62785	0.18938	0.90864	-0.683
Mof_H 	H 	0.6265	0.1707	0.9117	0.207
Mof_H 	H 	0.6322	0.1982	0.9249	0.196
Mof_H 	H 	0.6112	0.1959	0.9022	0.204
Mof_C 	C 	0.72008	0.15879	0.92613	0.012
Mof_H 	H 	0.7342	0.1518	0.9357	0.004
Mof_O 	O 	0.31616	0.97004	0.76428	-0.527
Mof_O 	O 	0.2901	0.9716	0.7976	-0.655
Mof_C 	C 	0.30753	0.96374	0.78725	0.582
Mof_C 	C 	0.31657	0.93604	0.79329	-0.196
Mof_C 	C 	0.31079	0.92845	0.81533	0.083
Mof_H 	H 	0.3039	0.9402	0.8278	-0.028
Mof_C 	C 	0.31492	0.89905	0.82251	-0.129
Mof_C 	C 	0.30514	0.88761	0.84996	0.425
Mof_C 	C 	0.32821	0.86795	0.8503	-0.195
Mof_C 	C 	0.34857	0.86704	0.83157	0.096
Mof_C 	C 	0.33854	0.89057	0.81481	0.011
Mof_C 	C 	0.35604	0.89896	0.78944	-0.115
Mof_H 	H 	0.3707	0.8905	0.7821	0.034
Mof_C 	C 	0.28189	0.87732	0.84134	-0.872
Mof_H 	H 	0.2685	0.8908	0.8417	0.268
Mof_H 	H 	0.284	0.8709	0.8236	0.276
Mof_H 	H 	0.2767	0.8629	0.8527	0.263
Mof_C 	C 	0.31062	0.90864	0.87215	-0.684
Mof_H 	H 	0.3293	0.9117	0.8735	0.207
Mof_H 	H 	0.3018	0.9249	0.8678	0.196
Mof_H 	H 	0.3041	0.9022	0.8888	0.205
Mof_C 	C 	0.34121	0.92613	0.77992	0.012
Mof_H 	H 	0.3482	0.9357	0.7658	0.004
Mof_O 	O 	0.31616	0.47004	0.26428	-0.528
Mof_O 	O 	0.2901	0.4716	0.2976	-0.657
Mof_C 	C 	0.30753	0.46374	0.28725	0.582
Mof_C 	C 	0.31657	0.43604	0.29329	-0.196
Mof_C 	C 	0.31079	0.42845	0.31533	0.083
Mof_H 	H 	0.3039	0.4402	0.3278	-0.028
Mof_C 	C 	0.31492	0.39905	0.32251	-0.129
Mof_C 	C 	0.30514	0.38761	0.34996	0.425
Mof_C 	C 	0.32821	0.36795	0.3503	-0.195
Mof_C 	C 	0.34857	0.36704	0.33157	0.095
Mof_C 	C 	0.33854	0.39057	0.31481	0.011
Mof_C 	C 	0.35604	0.39896	0.28944	-0.115
Mof_H 	H 	0.3707	0.3905	0.2821	0.034
Mof_C 	C 	0.28189	0.37732	0.34134	-0.872
Mof_H 	H 	0.2685	0.3908	0.3417	0.268
Mof_H 	H 	0.284	0.3709	0.3236	0.276
Mof_H 	H 	0.2767	0.3629	0.3527	0.263
Mof_C 	C 	0.31062	0.40864	0.37215	-0.683
Mof_H 	H 	0.3293	0.4117	0.3735	0.207
Mof_H 	H 	0.3018	0.4249	0.3678	0.196
Mof_H 	H 	0.3041	0.4022	0.3888	0.204
Mof_C 	C 	0.34121	0.42613	0.27992	0.013
Mof_H 	H 	0.3482	0.4357	0.2658	0.004
Mof_O 	O 	0.81616	0.97004	0.26428	-0.527
Mof_O 	O 	0.7901	0.9716	0.2976	-0.655
Mof_C 	C 	0.80753	0.96374	0.28725	0.582
Mof_C 	C 	0.81657	0.93604	0.29329	-0.196
Mof_C 	C 	0.81079	0.92845	0.31533	0.083
Mof_H 	H 	0.8039	0.9402	0.3278	-0.028
Mof_C 	C 	0.81492	0.89905	0.32251	-0.129
Mof_C 	C 	0.80514	0.88761	0.34996	0.425
Mof_C 	C 	0.82821	0.86795	0.3503	-0.195
Mof_C 	C 	0.84857	0.86704	0.33157	0.096
Mof_C 	C 	0.83854	0.89057	0.31481	0.011
Mof_C 	C 	0.85604	0.89896	0.28944	-0.115
Mof_H 	H 	0.8707	0.8905	0.2821	0.034
Mof_C 	C 	0.78189	0.87732	0.34134	-0.872
Mof_H 	H 	0.7685	0.8908	0.3417	0.268
Mof_H 	H 	0.784	0.8709	0.3236	0.276
Mof_H 	H 	0.7767	0.8629	0.3527	0.263
Mof_C 	C 	0.81062	0.90864	0.37215	-0.684
Mof_H 	H 	0.8293	0.9117	0.3735	0.207
Mof_H 	H 	0.8018	0.9249	0.3678	0.196
Mof_H 	H 	0.8041	0.9022	0.3888	0.204
Mof_C 	C 	0.84121	0.92613	0.27992	0.012
Mof_H 	H 	0.8482	0.9357	0.2658	0.004
Mof_O 	O 	0.81616	0.47004	0.76428	-0.528
Mof_O 	O 	0.7901	0.4716	0.7976	-0.657
Mof_C 	C 	0.80753	0.46374	0.78725	0.582
Mof_C 	C 	0.81657	0.43604	0.79329	-0.196
Mof_C 	C 	0.81079	0.42845	0.81533	0.083
Mof_H 	H 	0.8039	0.4402	0.8278	-0.028
Mof_C 	C 	0.81492	0.39905	0.82251	-0.129
Mof_C 	C 	0.80514	0.38761	0.84996	0.425
Mof_C 	C 	0.82821	0.36795	0.8503	-0.195
Mof_C 	C 	0.84857	0.36704	0.83157	0.095
Mof_C 	C 	0.83854	0.39057	0.81481	0.011
Mof_C 	C 	0.85604	0.39896	0.78944	-0.115
Mof_H 	H 	0.8707	0.3905	0.7821	0.034
Mof_C 	C 	0.78189	0.37732	0.84134	-0.872
Mof_H 	H 	0.7685	0.3908	0.8417	0.268
Mof_H 	H 	0.784	0.3709	0.8236	0.276
Mof_H 	H 	0.7767	0.3629	0.8527	0.263
Mof_C 	C 	0.81062	0.40864	0.87215	-0.683
Mof_H 	H 	0.8293	0.4117	0.8735	0.207
Mof_H 	H 	0.8018	0.4249	0.8678	0.196
Mof_H 	H 	0.8041	0.4022	0.8888	0.204
Mof_C 	C 	0.84121	0.42613	0.77992	0.013
Mof_H 	H 	0.8482	0.4357	0.7658	0.004
Mof_O 	O 	0.31616	0.02996	0.23572	-0.528
Mof_O 	O 	0.2901	0.0284	0.2024	-0.656
Mof_C 	C 	0.30753	0.03626	0.21275	0.582
Mof_C 	C 	0.31657	0.06396	0.20671	-0.196
Mof_C 	C 	0.31079	0.07155	0.18467	0.083
Mof_H 	H 	0.3039	0.0598	0.1722	-0.028
Mof_C 	C 	0.31492	0.10095	0.17749	-0.129
Mof_C 	C 	0.30514	0.11239	0.15004	0.424
Mof_C 	C 	0.32821	0.13205	0.1497	-0.195
Mof_C 	C 	0.34857	0.13296	0.16843	0.095
Mof_C 	C 	0.33854	0.10943	0.18519	0.011
Mof_C 	C 	0.35604	0.10104	0.21056	-0.115
Mof_H 	H 	0.3707	0.1095	0.2179	0.034
Mof_C 	C 	0.28189	0.12268	0.15866	-0.872
Mof_H 	H 	0.2685	0.1092	0.1583	0.268
Mof_H 	H 	0.284	0.1291	0.1764	0.276
Mof_H 	H 	0.2767	0.1371	0.1473	0.263
Mof_C 	C 	0.31062	0.09136	0.12785	-0.682
Mof_H 	H 	0.3293	0.0883	0.1265	0.207
Mof_H 	H 	0.3018	0.0751	0.1322	0.196
Mof_H 	H 	0.3041	0.0978	0.1112	0.204
Mof_C 	C 	0.34121	0.07387	0.22008	0.012
Mof_H 	H 	0.3482	0.0643	0.2342	0.004
Mof_O 	O 	0.31616	0.52996	0.73572	-0.528
Mof_O 	O 	0.2901	0.5284	0.7024	-0.657
Mof_C 	C 	0.30753	0.53626	0.71275	0.582
Mof_C 	C 	0.31657	0.56396	0.70671	-0.196
Mof_C 	C 	0.31079	0.57155	0.68467	0.083
Mof_H 	H 	0.3039	0.5598	0.6722	-0.028
Mof_C 	C 	0.31492	0.60095	0.67749	-0.129
Mof_C 	C 	0.30514	0.61239	0.65004	0.425
Mof_C 	C 	0.32821	0.63205	0.6497	-0.195
Mof_C 	C 	0.34857	0.63296	0.66843	0.095
Mof_C 	C 	0.33854	0.60943	0.68519	0.011
Mof_C 	C 	0.35604	0.60104	0.71056	-0.115
Mof_H 	H 	0.3707	0.6095	0.7179	0.034
Mof_C 	C 	0.28189	0.62268	0.65866	-0.872
Mof_H 	H 	0.2685	0.6092	0.6583	0.268
Mof_H 	H 	0.284	0.6291	0.6764	0.276
Mof_H 	H 	0.2767	0.6371	0.6473	0.263
Mof_C 	C 	0.31062	0.59136	0.62785	-0.683
Mof_H 	H 	0.3293	0.5883	0.6265	0.207
Mof_H 	H 	0.3018	0.5751	0.6322	0.196
Mof_H 	H 	0.3041	0.5978	0.6112	0.204
Mof_C 	C 	0.34121	0.57387	0.72008	0.013
Mof_H 	H 	0.3482	0.5643	0.7342	0.004
Mof_O 	O 	0.81616	0.02996	0.73572	-0.528
Mof_O 	O 	0.7901	0.0284	0.7024	-0.656
Mof_C 	C 	0.80753	0.03626	0.71275	0.582
Mof_C 	C 	0.81657	0.06396	0.70671	-0.196
Mof_C 	C 	0.81079	0.07155	0.68467	0.083
Mof_H 	H 	0.8039	0.0598	0.6722	-0.028
Mof_C 	C 	0.81492	0.10095	0.67749	-0.129
Mof_C 	C 	0.80514	0.11239	0.65004	0.425
Mof_C 	C 	0.82821	0.13205	0.6497	-0.195
Mof_C 	C 	0.84857	0.13296	0.66843	0.095
Mof_C 	C 	0.83854	0.10943	0.68519	0.011
Mof_C 	C 	0.85604	0.10104	0.71056	-0.115
Mof_H 	H 	0.8707	0.1095	0.7179	0.034
Mof_C 	C 	0.78189	0.12268	0.65866	-0.872
Mof_H 	H 	0.7685	0.1092	0.6583	0.268
Mof_H 	H 	0.784	0.1291	0.6764	0.276
Mof_H 	H 	0.7767	0.1371	0.6473	0.263
Mof_C 	C 	0.81062	0.09136	0.62785	-0.683
Mof_H 	H 	0.8293	0.0883	0.6265	0.207
Mof_H 	H 	0.8018	0.0751	0.6322	0.196
Mof_H 	H 	0.8041	0.0978	0.6112	0.204
Mof_C 	C 	0.84121	0.07387	0.72008	0.012
Mof_H 	H 	0.8482	0.0643	0.7342	0.004
Mof_O 	O 	0.81616	0.52996	0.23572	-0.528
Mof_O 	O 	0.7901	0.5284	0.2024	-0.657
Mof_C 	C 	0.80753	0.53626	0.21275	0.582
Mof_C 	C 	0.81657	0.56396	0.20671	-0.196
Mof_C 	C 	0.81079	0.57155	0.18467	0.083
Mof_H 	H 	0.8039	0.5598	0.1722	-0.028
Mof_C 	C 	0.81492	0.60095	0.17749	-0.129
Mof_C 	C 	0.80514	0.61239	0.15004	0.425
Mof_C 	C 	0.82821	0.63205	0.1497	-0.195
Mof_C 	C 	0.84857	0.63296	0.16843	0.095
Mof_C 	C 	0.83854	0.60943	0.18519	0.011
Mof_C 	C 	0.85604	0.60104	0.21056	-0.115
Mof_H 	H 	0.8707	0.6095	0.2179	0.034
Mof_C 	C 	0.78189	0.62268	0.15866	-0.872
Mof_H 	H 	0.7685	0.6092	0.1583	0.268
Mof_H 	H 	0.784	0.6291	0.1764	0.276
Mof_H 	H 	0.7767	0.6371	0.1473	0.263
Mof_C 	C 	0.81062	0.59136	0.12785	-0.683
Mof_H 	H 	0.8293	0.5883	0.1265	0.207
Mof_H 	H 	0.8018	0.5751	0.1322	0.196
Mof_H 	H 	0.8041	0.5978	0.1112	0.204
Mof_C 	C 	0.84121	0.57387	0.22008	0.013
Mof_H 	H 	0.8482	0.5643	0.2342	0.004
Mof_O 	O 	0.68384	0.97004	0.23572	-0.527
Mof_O 	O 	0.7099	0.9716	0.2024	-0.655
Mof_C 	C 	0.69247	0.96374	0.21275	0.582
Mof_C 	C 	0.68343	0.93604	0.20671	-0.196
Mof_C 	C 	0.68921	0.92845	0.18467	0.083
Mof_H 	H 	0.6961	0.9402	0.1722	-0.028
Mof_C 	C 	0.68508	0.89905	0.17749	-0.129
Mof_C 	C 	0.69486	0.88761	0.15004	0.425
Mof_C 	C 	0.67179	0.86795	0.1497	-0.195
Mof_C 	C 	0.65143	0.86704	0.16843	0.095
Mof_C 	C 	0.66146	0.89057	0.18519	0.011
Mof_C 	C 	0.64396	0.89896	0.21056	-0.115
Mof_H 	H 	0.6293	0.8905	0.2179	0.034
Mof_C 	C 	0.71811	0.87732	0.15866	-0.872
Mof_H 	H 	0.7315	0.8908	0.1583	0.268
Mof_H 	H 	0.716	0.8709	0.1764	0.276
Mof_H 	H 	0.7233	0.8629	0.1473	0.263
Mof_C 	C 	0.68938	0.90864	0.12785	-0.683
Mof_H 	H 	0.6707	0.9117	0.1265	0.207
Mof_H 	H 	0.6982	0.9249	0.1322	0.196
Mof_H 	H 	0.6959	0.9022	0.1112	0.204
Mof_C 	C 	0.65879	0.92613	0.22008	0.012
Mof_H 	H 	0.6518	0.9357	0.2342	0.004
Mof_O 	O 	0.68384	0.47004	0.73572	-0.528
Mof_O 	O 	0.7099	0.4716	0.7024	-0.657
Mof_C 	C 	0.69247	0.46374	0.71275	0.582
Mof_C 	C 	0.68343	0.43604	0.70671	-0.196
Mof_C 	C 	0.68921	0.42845	0.68467	0.083
Mof_H 	H 	0.6961	0.4402	0.6722	-0.028
Mof_C 	C 	0.68508	0.39905	0.67749	-0.129
Mof_C 	C 	0.69486	0.38761	0.65004	0.425
Mof_C 	C 	0.67179	0.36795	0.6497	-0.195
Mof_C 	C 	0.65143	0.36704	0.66843	0.095
Mof_C 	C 	0.66146	0.39057	0.68519	0.011
Mof_C 	C 	0.64396	0.39896	0.71056	-0.115
Mof_H 	H 	0.6293	0.3905	0.7179	0.034
Mof_C 	C 	0.71811	0.37732	0.65866	-0.872
Mof_H 	H 	0.7315	0.3908	0.6583	0.268
Mof_H 	H 	0.716	0.3709	0.6764	0.276
Mof_H 	H 	0.7233	0.3629	0.6473	0.263
Mof_C 	C 	0.68938	0.40864	0.62785	-0.683
Mof_H 	H 	0.6707	0.4117	0.6265	0.207
Mof_H 	H 	0.6982	0.4249	0.6322	0.196
Mof_H 	H 	0.6959	0.4022	0.6112	0.204
Mof_C 	C 	0.65879	0.42613	0.72008	0.013
Mof_H 	H 	0.6518	0.4357	0.7342	0.004
Mof_O 	O 	0.18384	0.97004	0.73572	-0.527
Mof_O 	O 	0.2099	0.9716	0.7024	-0.655
Mof_C 	C 	0.19247	0.96374	0.71275	0.582
Mof_C 	C 	0.18343	0.93604	0.70671	-0.196
Mof_C 	C 	0.18921	0.92845	0.68467	0.083
Mof_H 	H 	0.1961	0.9402	0.6722	-0.028
Mof_C 	C 	0.18508	0.89905	0.67749	-0.129
Mof_C 	C 	0.19486	0.88761	0.65004	0.425
Mof_C 	C 	0.17179	0.86795	0.6497	-0.195
Mof_C 	C 	0.15143	0.86704	0.66843	0.095
Mof_C 	C 	0.16146	0.89057	0.68519	0.011
Mof_C 	C 	0.14396	0.89896	0.71056	-0.115
Mof_H 	H 	0.1293	0.8905	0.7179	0.034
Mof_C 	C 	0.21811	0.87732	0.65866	-0.872
Mof_H 	H 	0.2315	0.8908	0.6583	0.268
Mof_H 	H 	0.216	0.8709	0.6764	0.276
Mof_H 	H 	0.2233	0.8629	0.6473	0.263
Mof_C 	C 	0.18938	0.90864	0.62785	-0.683
Mof_H 	H 	0.1707	0.9117	0.6265	0.207
Mof_H 	H 	0.1982	0.9249	0.6322	0.196
Mof_H 	H 	0.1959	0.9022	0.6112	0.204
Mof_C 	C 	0.15879	0.92613	0.72008	0.012
Mof_H 	H 	0.1518	0.9357	0.7342	0.004
Mof_O 	O 	0.18384	0.47004	0.23572	-0.528
Mof_O 	O 	0.2099	0.4716	0.2024	-0.657
Mof_C 	C 	0.19247	0.46374	0.21275	0.582
Mof_C 	C 	0.18343	0.43604	0.20671	-0.196
Mof_C 	C 	0.18921	0.42845	0.18467	0.083
Mof_H 	H 	0.1961	0.4402	0.1722	-0.028
Mof_C 	C 	0.18508	0.39905	0.17749	-0.129
Mof_C 	C 	0.19486	0.38761	0.15004	0.425
Mof_C 	C 	0.17179	0.36795	0.1497	-0.195
Mof_C 	C 	0.15143	0.36704	0.16843	0.095
Mof_C 	C 	0.16146	0.39057	0.18519	0.011
Mof_C 	C 	0.14396	0.39896	0.21056	-0.115
Mof_H 	H 	0.1293	0.3905	0.2179	0.034
Mof_C 	C 	0.21811	0.37732	0.15866	-0.872
Mof_H 	H 	0.2315	0.3908	0.1583	0.268
Mof_H 	H 	0.216	0.3709	0.1764	0.276
Mof_H 	H 	0.2233	0.3629	0.1473	0.263
Mof_C 	C 	0.18938	0.40864	0.12785	-0.683
Mof_H 	H 	0.1707	0.4117	0.1265	0.207
Mof_H 	H 	0.1982	0.4249	0.1322	0.196
Mof_H 	H 	0.1959	0.4022	0.1112	0.204
Mof_C 	C 	0.15879	0.42613	0.22008	0.013
Mof_H 	H 	0.1518	0.4357	0.2342	0.004
Mof_O 	O 	0.68384	0.02996	0.76428	-0.528
Mof_O 	O 	0.7099	0.0284	0.7976	-0.656
Mof_C 	C 	0.69247	0.03626	0.78725	0.582
Mof_C 	C 	0.68343	0.06396	0.79329	-0.196
Mof_C 	C 	0.68921	0.07155	0.81533	0.083
Mof_H 	H 	0.6961	0.0598	0.8278	-0.028
Mof_C 	C 	0.68508	0.10095	0.82251	-0.129
Mof_C 	C 	0.69486	0.11239	0.84996	0.425
Mof_C 	C 	0.67179	0.13205	0.8503	-0.195
Mof_C 	C 	0.65143	0.13296	0.83157	0.095
Mof_C 	C 	0.66146	0.10943	0.81481	0.011
Mof_C 	C 	0.64396	0.10104	0.78944	-0.115
Mof_H 	H 	0.6293	0.1095	0.7821	0.034
Mof_C 	C 	0.71811	0.12268	0.84134	-0.872
Mof_H 	H 	0.7315	0.1092	0.8417	0.268
Mof_H 	H 	0.716	0.1291	0.8236	0.276
Mof_H 	H 	0.7233	0.1371	0.8527	0.263
Mof_C 	C 	0.68938	0.09136	0.87215	-0.683
Mof_H 	H 	0.6707	0.0883	0.8735	0.207
Mof_H 	H 	0.6982	0.0751	0.8678	0.196
Mof_H 	H 	0.6959	0.0978	0.8888	0.204
Mof_C 	C 	0.65879	0.07387	0.77992	0.012
Mof_H 	H 	0.6518	0.0643	0.7658	0.004
Mof_O 	O 	0.68384	0.52996	0.26428	-0.528
Mof_O 	O 	0.7099	0.5284	0.2976	-0.657
Mof_C 	C 	0.69247	0.53626	0.28725	0.582
Mof_C 	C 	0.68343	0.56396	0.29329	-0.196
Mof_C 	C 	0.68921	0.57155	0.31533	0.083
Mof_H 	H 	0.6961	0.5598	0.3278	-0.028
Mof_C 	C 	0.68508	0.60095	0.32251	-0.129
Mof_C 	C 	0.69486	0.61239	0.34996	0.425
Mof_C 	C 	0.67179	0.63205	0.3503	-0.195
Mof_C 	C 	0.65143	0.63296	0.33157	0.095
Mof_C 	C 	0.66146	0.60943	0.31481	0.011
Mof_C 	C 	0.64396	0.60104	0.28944	-0.115
Mof_H 	H 	0.6293	0.6095	0.2821	0.034
Mof_C 	C 	0.71811	0.62268	0.34134	-0.872
Mof_H 	H 	0.7315	0.6092	0.3417	0.268
Mof_H 	H 	0.716	0.6291	0.3236	0.276
Mof_H 	H 	0.7233	0.6371	0.3527	0.263
Mof_C 	C 	0.68938	0.59136	0.37215	-0.683
Mof_H 	H 	0.6707	0.5883	0.3735	0.207
Mof_H 	H 	0.6982	0.5751	0.3678	0.196
Mof_H 	H 	0.6959	0.5978	0.3888	0.204
Mof_C 	C 	0.65879	0.57387	0.27992	0.013
Mof_H 	H 	0.6518	0.5643	0.2658	0.004
Mof_O 	O 	0.18384	0.02996	0.26428	-0.528
Mof_O 	O 	0.2099	0.0284	0.2976	-0.656
Mof_C 	C 	0.19247	0.03626	0.28725	0.582
Mof_C 	C 	0.18343	0.06396	0.29329	-0.196
Mof_C 	C 	0.18921	0.07155	0.31533	0.083
Mof_H 	H 	0.1961	0.0598	0.3278	-0.028
Mof_C 	C 	0.18508	0.10095	0.32251	-0.129
Mof_C 	C 	0.19486	0.11239	0.34996	0.424
Mof_C 	C 	0.17179	0.13205	0.3503	-0.195
Mof_C 	C 	0.15143	0.13296	0.33157	0.095
Mof_C 	C 	0.16146	0.10943	0.31481	0.011
Mof_C 	C 	0.14396	0.10104	0.28944	-0.115
Mof_H 	H 	0.1293	0.1095	0.2821	0.034
Mof_C 	C 	0.21811	0.12268	0.34134	-0.872
Mof_H 	H 	0.2315	0.1092	0.3417	0.268
Mof_H 	H 	0.216	0.1291	0.3236	0.276
Mof_H 	H 	0.2233	0.1371	0.3527	0.263
Mof_C 	C 	0.18938	0.09136	0.37215	-0.683
Mof_H 	H 	0.1707	0.0883	0.3735	0.207
Mof_H 	H 	0.1982	0.0751	0.3678	0.196
Mof_H 	H 	0.1959	0.0978	0.3888	0.204
Mof_C 	C 	0.15879	0.07387	0.27992	0.012
Mof_H 	H 	0.1518	0.0643	0.2658	0.004
Mof_O 	O 	0.18384	0.52996	0.76428	-0.528
Mof_O 	O 	0.2099	0.5284	0.7976	-0.657
Mof_C 	C 	0.19247	0.53626	0.78725	0.582
Mof_C 	C 	0.18343	0.56396	0.79329	-0.196
Mof_C 	C 	0.18921	0.57155	0.81533	0.083
Mof_H 	H 	0.1961	0.5598	0.8278	-0.028
Mof_C 	C 	0.18508	0.60095	0.82251	-0.129
Mof_C 	C 	0.19486	0.61239	0.84996	0.425
Mof_C 	C 	0.17179	0.63205	0.8503	-0.195
Mof_C 	C 	0.15143	0.63296	0.83157	0.095
Mof_C 	C 	0.16146	0.60943	0.81481	0.011
Mof_C 	C 	0.14396	0.60104	0.78944	-0.115
Mof_H 	H 	0.1293	0.6095	0.7821	0.034
Mof_C 	C 	0.21811	0.62268	0.84134	-0.872
Mof_H 	H 	0.2315	0.6092	0.8417	0.268
Mof_H 	H 	0.216	0.6291	0.8236	0.276
Mof_H 	H 	0.2233	0.6371	0.8527	0.263
Mof_C 	C 	0.18938	0.59136	0.87215	-0.683
Mof_H 	H 	0.1707	0.5883	0.8735	0.207
Mof_H 	H 	0.1982	0.5751	0.8678	0.196
Mof_H 	H 	0.1959	0.5978	0.8888	0.204
Mof_C 	C 	0.15879	0.57387	0.77992	0.013
Mof_H 	H 	0.1518	0.5643	0.7658	0.004
Mof_Y 	Y 	0.23311	0.5	0.18654	1.484
Mof_Y 	Y 	0.23311	0	0.68654	1.481
Mof_Y 	Y 	0.73311	0.5	0.68654	1.484
Mof_Y 	Y 	0.73311	0	0.18654	1.481
Mof_Y 	Y 	0.76689	0.5	0.18654	1.484
Mof_Y 	Y 	0.76689	0	0.68654	1.481
Mof_Y 	Y 	0.26689	0.5	0.68654	1.484
Mof_Y 	Y 	0.26689	0	0.18654	1.481
Mof_Y 	Y 	0.76689	0.5	0.81346	1.484
Mof_Y 	Y 	0.76689	0	0.31346	1.481
Mof_Y 	Y 	0.26689	0.5	0.31346	1.484
Mof_Y 	Y 	0.26689	5.89677e-33	0.81346	1.481
Mof_Y 	Y 	0.23311	0.5	0.81346	1.484
Mof_Y 	Y 	0.23311	0	0.31346	1.481
Mof_Y 	Y 	0.73311	0.5	0.31346	1.484
Mof_Y 	Y 	0.73311	5.89677e-33	0.81346	1.481
Mof_Y 	Y 	0.18654	0.23311	0.5	1.484
Mof_Y 	Y 	0.18654	0.73311	-0	1.481
Mof_Y 	Y 	0.68654	0.23311	-0	1.481
Mof_Y 	Y 	0.68654	0.73311	0.5	1.484
Mof_Y 	Y 	0.18654	0.76689	0.5	1.484
Mof_Y 	Y 	0.18654	0.26689	-0	1.481
Mof_Y 	Y 	0.68654	0.76689	-0	1.481
Mof_Y 	Y 	0.68654	0.26689	0.5	1.484
Mof_Y 	Y 	0.81346	0.76689	0.5	1.484
Mof_Y 	Y 	0.81346	0.26689	-0	1.481
Mof_Y 	Y 	0.31346	0.76689	-0	1.481
Mof_Y 	Y 	0.31346	0.26689	0.5	1.484
Mof_Y 	Y 	0.81346	0.23311	0.5	1.484
Mof_Y 	Y 	0.81346	0.73311	-0	1.481
Mof_Y 	Y 	0.31346	0.23311	-0	1.481
Mof_Y 	Y 	0.31346	0.73311	0.5	1.484
Mof_Y 	Y 	0.5	0.18654	0.23311	1.484
Mof_Y 	Y 	0.5	0.68654	0.73311	1.484
Mof_Y 	Y 	1.45423e-32	0.18654	0.73311	1.481
Mof_Y 	Y 	-2.07436e-33	0.68654	0.23311	1.481
Mof_Y 	Y 	0.5	0.18654	0.76689	1.484
Mof_Y 	Y 	0.5	0.68654	0.26689	1.484
Mof_Y 	Y 	1.00068e-33	0.18654	0.26689	1.481
Mof_Y 	Y 	2.87538e-33	0.68654	0.76689	1.481
Mof_Y 	Y 	0.5	0.81346	0.76689	1.484
Mof_Y 	Y 	0.5	0.31346	0.26689	1.484
Mof_Y 	Y 	6.89745e-33	0.81346	0.26689	1.481
Mof_Y 	Y 	-8.91817e-33	0.31346	0.76689	1.481
Mof_Y 	Y 	0.5	0.81346	0.23311	1.484
Mof_Y 	Y 	0.5	0.31346	0.73311	1.484
Mof_Y 	Y 	1.45423e-32	0.81346	0.73311	1.481
Mof_Y 	Y 	-5.02275e-33	0.31346	0.23311	1.481
Mof_Y 	Y 	1.00204e-32	0.73311	0.31346	1.481
Mof_Y 	Y 	3.04999e-33	0.23311	0.81346	1.481
Mof_Y 	Y 	0.5	0.73311	0.81346	1.484
Mof_Y 	Y 	0.5	0.23311	0.31346	1.484
Mof_Y 	Y 	1.17529e-33	0.26689	0.31346	1.481
Mof_Y 	Y 	8.94676e-33	0.76689	0.81346	1.481
Mof_Y 	Y 	0.5	0.26689	0.81346	1.484
Mof_Y 	Y 	0.5	0.76689	0.31346	1.484
Mof_Y 	Y 	-3.32266e-33	0.26689	0.68654	1.481
Mof_Y 	Y 	-6.67155e-33	0.76689	0.18654	1.481
Mof_Y 	Y 	0.5	0.26689	0.18654	1.484
Mof_Y 	Y 	0.5	0.76689	0.68654	1.484
Mof_Y 	Y 	8.47089e-33	0.73311	0.68654	1.481
Mof_Y 	Y 	-7.7478e-34	0.23311	0.18654	1.481
Mof_Y 	Y 	0.5	0.73311	0.18654	1.484
Mof_Y 	Y 	0.5	0.23311	0.68654	1.484
Mof_Y 	Y 	0.73311	0.68654	-0	1.481
Mof_Y 	Y 	0.73311	0.18654	0.5	1.484
Mof_Y 	Y 	0.23311	0.68654	0.5	1.484
Mof_Y 	Y 	0.23311	0.18654	-0	1.481
Mof_Y 	Y 	0.26689	0.68654	-0	1.481
Mof_Y 	Y 	0.26689	0.18654	0.5	1.484
Mof_Y 	Y 	0.76689	0.68654	0.5	1.484
Mof_Y 	Y 	0.76689	0.18654	-0	1.481
Mof_Y 	Y 	0.26689	0.31346	-0	1.481
Mof_Y 	Y 	0.26689	0.81346	0.5	1.484
Mof_Y 	Y 	0.76689	0.31346	0.5	1.484
Mof_Y 	Y 	0.76689	0.81346	-0	1.481
Mof_Y 	Y 	0.73311	0.31346	-0	1.481
Mof_Y 	Y 	0.73311	0.81346	0.5	1.484
Mof_Y 	Y 	0.23311	0.31346	0.5	1.484
Mof_Y 	Y 	0.23311	0.81346	-0	1.481
Mof_Y 	Y 	0.68654	0	0.26689	1.481
Mof_Y 	Y 	0.68654	0.5	0.76689	1.484
Mof_Y 	Y 	0.18654	0	0.76689	1.481
Mof_Y 	Y 	0.18654	0.5	0.26689	1.484
Mof_Y 	Y 	0.68654	0	0.73311	1.481
Mof_Y 	Y 	0.68654	0.5	0.23311	1.484
Mof_Y 	Y 	0.18654	0	0.23311	1.481
Mof_Y 	Y 	0.18654	0.5	0.73311	1.484
Mof_Y 	Y 	0.31346	0	0.73311	1.481
Mof_Y 	Y 	0.31346	0.5	0.23311	1.484
Mof_Y 	Y 	0.81346	0	0.23311	1.481
Mof_Y 	Y 	0.81346	0.5	0.73311	1.484
Mof_Y 	Y 	0.31346	0	0.26689	1.481
Mof_Y 	Y 	0.31346	0.5	0.76689	1.484
Mof_Y 	Y 	0.81346	0	0.76689	1.481
Mof_Y 	Y 	0.81346	0.5	0.26689	1.484
_end
