# CIF file generated by openbabel 3.1.0, see https://openbabel.org
data_I
_chemical_name_common 'image0'
_cell_length_a 20.6271
_cell_length_b 13.6669
_cell_length_c 20.6839
_cell_angle_alpha 90
_cell_angle_beta 90
_cell_angle_gamma 90
_space_group_name_H-M_alt 'P 1'
_space_group_name_Hall 'P 1'
loop_
    _symmetry_equiv_pos_as_xyz
    x,y,z
loop_
    _atom_site_label
    _atom_site_type_symbol
    _atom_site_fract_x
    _atom_site_fract_y
    _atom_site_fract_z
    _atom_site_occupancy
    Cd1      Cd       0.67189    0.62744    0.81044    1.000
    O1       O        0.57500    0.69990    0.83130    1.000
    O2       O        0.61900    0.79320    0.75730    1.000
    N1       N        0.62240    0.52580    0.73440    1.000
    N2       N        0.71750    0.73230    0.89090    1.000
    C1       C        0.57510    0.77710    0.79620    1.000
    C2       C        0.57040    0.55130    0.70040    1.000
    C3       C        0.64200    0.43320    0.72910    1.000
    C4       C        0.78020    0.72660    0.90650    1.000
    C5       C        0.68220    0.79800    0.92380    1.000
    C6       C        0.52060    0.84780    0.80740    1.000
    H1       H        0.55630    0.61570    0.70320    1.000
    C7       C        0.53670    0.48940    0.66210    1.000
    C8       C        0.61120    0.36490    0.69110    1.000
    H2       H        0.67840    0.41370    0.75230    1.000
    H3       H        0.80560    0.68140    0.88440    1.000
    C9       C        0.80920    0.78230    0.95240    1.000
    C10      C        0.70850    0.86020    0.97020    1.000
    H4       H        0.63800    0.80230    0.91510    1.000
    H5       H        0.53310    0.89170    0.84210    1.000
    H6       H        0.48320    0.81110    0.82220    1.000
    H7       H        0.50020    0.51110    0.64000    1.000
    C11      C        0.55740    0.39300    0.65600    1.000
    H8       H        0.62630    0.30090    0.68900    1.000
    H9       H        0.85280    0.77270    0.96220    1.000
    C12      C        0.77380    0.85420    0.98510    1.000
    H10      H        0.68220    0.90560    0.99120    1.000
    H11      H        0.53550    0.95060    0.73780    1.000
    C13      C        0.52050    0.32080    0.61480    1.000
    C14      C        0.80610    0.92010    0.03320    1.000
    H12      H        0.54840    0.26600    0.60380    1.000
    H13      H        0.50700    0.35200    0.57490    1.000
    C15      C        0.46150    0.28440    0.65150    1.000
    H14      H        0.83360    0.88140    0.06130    1.000
    H15      H        0.77320    0.95110    0.05990    1.000
    H16      H        0.43370    0.33980    0.66100    1.000
    H17      H        0.47570    0.25700    0.69240    1.000
    C16      C        0.42170    0.20720    0.61540    1.000
    H18      H        0.87380    0.03590    0.02890    1.000
    C17      C        0.36200    0.18070    0.65450    1.000
    H19      H        0.40870    0.23250    0.57360    1.000
    H20      H        0.44790    0.14920    0.60840    1.000
    C18      C        0.30830    0.23450    0.65350    1.000
    C19      C        0.36220    0.10570    0.69680    1.000
    C20      C        0.25830    0.21830    0.69570    1.000
    H21      H        0.30470    0.28460    0.62340    1.000
    H22      H        0.39690    0.06230    0.69830    1.000
    C21      C        0.31060    0.09450    0.73750    1.000
    H23      H        0.22260    0.25970    0.69440    1.000
    N3       N        0.25870    0.14750    0.73730    1.000
    H24      H        0.31290    0.04450    0.76800    1.000
    Cd2      Cd       0.17189    0.12744    0.81044    1.000
    O3       O        0.07500    0.19990    0.83130    1.000
    O4       O        0.11900    0.29320    0.75730    1.000
    N4       N        0.12240    0.02580    0.73440    1.000
    N5       N        0.21750    0.23230    0.89090    1.000
    C22      C        0.07510    0.27710    0.79620    1.000
    C23      C        0.07040    0.05130    0.70040    1.000
    C24      C        0.14200    0.93320    0.72910    1.000
    C25      C        0.28020    0.22660    0.90650    1.000
    C26      C        0.18220    0.29800    0.92380    1.000
    C27      C        0.02060    0.34780    0.80740    1.000
    H25      H        0.05630    0.11570    0.70320    1.000
    C28      C        0.03670    0.98940    0.66210    1.000
    C29      C        0.11120    0.86490    0.69110    1.000
    H26      H        0.17840    0.91370    0.75230    1.000
    H27      H        0.30560    0.18140    0.88440    1.000
    C30      C        0.30920    0.28230    0.95240    1.000
    C31      C        0.20850    0.36020    0.97020    1.000
    H28      H        0.13800    0.30230    0.91510    1.000
    H29      H        0.03310    0.39170    0.84210    1.000
    H30      H        0.98320    0.31110    0.82220    1.000
    H31      H        0.00020    0.01110    0.64000    1.000
    C32      C        0.05740    0.89300    0.65600    1.000
    H32      H        0.12630    0.80090    0.68900    1.000
    H33      H        0.35280    0.27270    0.96220    1.000
    C33      C        0.27380    0.35420    0.98510    1.000
    H34      H        0.18220    0.40560    0.99120    1.000
    H35      H        0.03550    0.45060    0.73780    1.000
    C34      C        0.02050    0.82080    0.61480    1.000
    C35      C        0.30610    0.42010    0.03320    1.000
    H36      H        0.04840    0.76600    0.60380    1.000
    H37      H        0.00700    0.85200    0.57490    1.000
    C36      C        0.96150    0.78440    0.65150    1.000
    H38      H        0.33360    0.38140    0.06130    1.000
    H39      H        0.27320    0.45110    0.05990    1.000
    H40      H        0.93370    0.83980    0.66100    1.000
    H41      H        0.97570    0.75700    0.69240    1.000
    C37      C        0.92170    0.70720    0.61540    1.000
    H42      H        0.37380    0.53590    0.02890    1.000
    C38      C        0.86200    0.68070    0.65450    1.000
    H43      H        0.90870    0.73250    0.57360    1.000
    H44      H        0.94790    0.64920    0.60840    1.000
    C39      C        0.80830    0.73450    0.65350    1.000
    C40      C        0.86220    0.60570    0.69680    1.000
    C41      C        0.75830    0.71830    0.69570    1.000
    H45      H        0.80470    0.78460    0.62340    1.000
    H46      H        0.89690    0.56230    0.69830    1.000
    C42      C        0.81060    0.59450    0.73750    1.000
    H47      H        0.72260    0.75970    0.69440    1.000
    N6       N        0.75870    0.64750    0.73730    1.000
    H48      H        0.81290    0.54450    0.76800    1.000
    Cd3      Cd       0.32811    0.37256    0.31044    1.000
    O5       O        0.42500    0.30010    0.33130    1.000
    O6       O        0.38100    0.20680    0.25730    1.000
    N7       N        0.37760    0.47420    0.23440    1.000
    N8       N        0.28250    0.26770    0.39090    1.000
    C43      C        0.42490    0.22290    0.29620    1.000
    C44      C        0.42960    0.44870    0.20040    1.000
    C45      C        0.35800    0.56680    0.22910    1.000
    C46      C        0.21980    0.27340    0.40650    1.000
    C47      C        0.31780    0.20200    0.42380    1.000
    C48      C        0.47940    0.15220    0.30740    1.000
    H49      H        0.44370    0.38430    0.20320    1.000
    C49      C        0.46330    0.51060    0.16210    1.000
    C50      C        0.38880    0.63510    0.19110    1.000
    H50      H        0.32160    0.58630    0.25230    1.000
    H51      H        0.19440    0.31860    0.38440    1.000
    C51      C        0.19080    0.21770    0.45240    1.000
    C52      C        0.29150    0.13980    0.47020    1.000
    H52      H        0.36200    0.19770    0.41510    1.000
    H53      H        0.46690    0.10830    0.34210    1.000
    H54      H        0.51680    0.18890    0.32220    1.000
    H55      H        0.49980    0.48890    0.14000    1.000
    C53      C        0.44260    0.60700    0.15600    1.000
    H56      H        0.37370    0.69910    0.18900    1.000
    H57      H        0.14720    0.22730    0.46220    1.000
    C54      C        0.22620    0.14580    0.48510    1.000
    H58      H        0.31780    0.09440    0.49120    1.000
    H59      H        0.46450    0.04940    0.23780    1.000
    C55      C        0.47950    0.67920    0.11480    1.000
    C56      C        0.19390    0.07990    0.53320    1.000
    H60      H        0.45160    0.73400    0.10380    1.000
    H61      H        0.49300    0.64800    0.07490    1.000
    C57      C        0.53850    0.71560    0.15150    1.000
    H62      H        0.16640    0.11860    0.56130    1.000
    H63      H        0.22680    0.04890    0.55990    1.000
    H64      H        0.56630    0.66020    0.16100    1.000
    H65      H        0.52430    0.74300    0.19240    1.000
    C58      C        0.57830    0.79280    0.11540    1.000
    H66      H        0.12620    0.96410    0.52890    1.000
    C59      C        0.63800    0.81930    0.15450    1.000
    H67      H        0.59130    0.76750    0.07360    1.000
    H68      H        0.55210    0.85080    0.10840    1.000
    C60      C        0.69170    0.76550    0.15350    1.000
    C61      C        0.63780    0.89430    0.19680    1.000
    C62      C        0.74170    0.78170    0.19570    1.000
    H69      H        0.69530    0.71540    0.12340    1.000
    H70      H        0.60310    0.93770    0.19830    1.000
    C63      C        0.68940    0.90550    0.23750    1.000
    H71      H        0.77740    0.74030    0.19440    1.000
    N9       N        0.74130    0.85250    0.23730    1.000
    H72      H        0.68710    0.95550    0.26800    1.000
    Cd4      Cd       0.82811    0.87256    0.31044    1.000
    O7       O        0.92500    0.80010    0.33130    1.000
    O8       O        0.88100    0.70680    0.25730    1.000
    N10      N        0.87760    0.97420    0.23440    1.000
    N11      N        0.78250    0.76770    0.39090    1.000
    C64      C        0.92490    0.72290    0.29620    1.000
    C65      C        0.92960    0.94870    0.20040    1.000
    C66      C        0.85800    0.06680    0.22910    1.000
    C67      C        0.71980    0.77340    0.40650    1.000
    C68      C        0.81780    0.70200    0.42380    1.000
    C69      C        0.97940    0.65220    0.30740    1.000
    H73      H        0.94370    0.88430    0.20320    1.000
    C70      C        0.96330    0.01060    0.16210    1.000
    C71      C        0.88880    0.13510    0.19110    1.000
    H74      H        0.82160    0.08630    0.25230    1.000
    H75      H        0.69440    0.81860    0.38440    1.000
    C72      C        0.69080    0.71770    0.45240    1.000
    C73      C        0.79150    0.63980    0.47020    1.000
    H76      H        0.86200    0.69770    0.41510    1.000
    H77      H        0.96690    0.60830    0.34210    1.000
    H78      H        0.01680    0.68890    0.32220    1.000
    H79      H        0.99980    0.98890    0.14000    1.000
    C74      C        0.94260    0.10700    0.15600    1.000
    H80      H        0.87370    0.19910    0.18900    1.000
    H81      H        0.64720    0.72730    0.46220    1.000
    C75      C        0.72620    0.64580    0.48510    1.000
    H82      H        0.81780    0.59440    0.49120    1.000
    H83      H        0.96450    0.54940    0.23780    1.000
    C76      C        0.97950    0.17920    0.11480    1.000
    C77      C        0.69390    0.57990    0.53320    1.000
    H84      H        0.95160    0.23400    0.10380    1.000
    H85      H        0.99300    0.14800    0.07490    1.000
    C78      C        0.03850    0.21560    0.15150    1.000
    H86      H        0.66640    0.61860    0.56130    1.000
    H87      H        0.72680    0.54890    0.55990    1.000
    H88      H        0.06630    0.16020    0.16100    1.000
    H89      H        0.02430    0.24300    0.19240    1.000
    C79      C        0.07830    0.29280    0.11540    1.000
    H90      H        0.62620    0.46410    0.52890    1.000
    C80      C        0.13800    0.31930    0.15450    1.000
    H91      H        0.09130    0.26750    0.07360    1.000
    H92      H        0.05210    0.35080    0.10840    1.000
    C81      C        0.19170    0.26550    0.15350    1.000
    C82      C        0.13780    0.39430    0.19680    1.000
    C83      C        0.24170    0.28170    0.19570    1.000
    H93      H        0.19530    0.21540    0.12340    1.000
    H94      H        0.10310    0.43770    0.19830    1.000
    C84      C        0.18940    0.40550    0.23750    1.000
    H95      H        0.27740    0.24030    0.19440    1.000
    N12      N        0.24130    0.35250    0.23730    1.000
    H96      H        0.18710    0.45550    0.26800    1.000
    Cd5      Cd       0.32811    0.62744    0.68956    1.000
    O9       O        0.42500    0.69990    0.66870    1.000
    O10      O        0.38100    0.79320    0.74270    1.000
    N13      N        0.37760    0.52580    0.76560    1.000
    N14      N        0.28250    0.73230    0.60910    1.000
    C85      C        0.42490    0.77710    0.70380    1.000
    C86      C        0.42960    0.55130    0.79960    1.000
    C87      C        0.35800    0.43320    0.77090    1.000
    C88      C        0.21980    0.72660    0.59350    1.000
    C89      C        0.31780    0.79800    0.57620    1.000
    C90      C        0.47940    0.84780    0.69260    1.000
    H97      H        0.44370    0.61570    0.79680    1.000
    C91      C        0.46330    0.48940    0.83790    1.000
    C92      C        0.38880    0.36490    0.80890    1.000
    H98      H        0.32160    0.41370    0.74770    1.000
    H99      H        0.19440    0.68140    0.61560    1.000
    C93      C        0.19080    0.78230    0.54760    1.000
    C94      C        0.29150    0.86020    0.52980    1.000
    H100     H        0.36200    0.80230    0.58490    1.000
    H101     H        0.46690    0.89170    0.65790    1.000
    H102     H        0.51680    0.81110    0.67780    1.000
    H103     H        0.49980    0.51110    0.86000    1.000
    C95      C        0.44260    0.39300    0.84400    1.000
    H104     H        0.37370    0.30090    0.81100    1.000
    H105     H        0.14720    0.77270    0.53780    1.000
    C96      C        0.22620    0.85420    0.51490    1.000
    H106     H        0.31780    0.90560    0.50880    1.000
    H107     H        0.46450    0.95060    0.76220    1.000
    C97      C        0.47950    0.32080    0.88520    1.000
    C98      C        0.19390    0.92010    0.46680    1.000
    H108     H        0.45160    0.26600    0.89620    1.000
    H109     H        0.49300    0.35200    0.92510    1.000
    C99      C        0.53850    0.28440    0.84850    1.000
    H110     H        0.16640    0.88140    0.43870    1.000
    H111     H        0.22680    0.95110    0.44010    1.000
    H112     H        0.56630    0.33980    0.83900    1.000
    H113     H        0.52430    0.25700    0.80760    1.000
    C100     C        0.57830    0.20720    0.88460    1.000
    H114     H        0.12620    0.03590    0.47110    1.000
    C101     C        0.63800    0.18070    0.84550    1.000
    H115     H        0.59130    0.23250    0.92640    1.000
    H116     H        0.55210    0.14920    0.89160    1.000
    C102     C        0.69170    0.23450    0.84650    1.000
    C103     C        0.63780    0.10570    0.80320    1.000
    C104     C        0.74170    0.21830    0.80430    1.000
    H117     H        0.69530    0.28460    0.87660    1.000
    H118     H        0.60310    0.06230    0.80170    1.000
    C105     C        0.68940    0.09450    0.76250    1.000
    H119     H        0.77740    0.25970    0.80560    1.000
    N15      N        0.74130    0.14750    0.76270    1.000
    H120     H        0.68710    0.04450    0.73200    1.000
    Cd6      Cd       0.82811    0.12744    0.68956    1.000
    O11      O        0.92500    0.19990    0.66870    1.000
    O12      O        0.88100    0.29320    0.74270    1.000
    N16      N        0.87760    0.02580    0.76560    1.000
    N17      N        0.78250    0.23230    0.60910    1.000
    C106     C        0.92490    0.27710    0.70380    1.000
    C107     C        0.92960    0.05130    0.79960    1.000
    C108     C        0.85800    0.93320    0.77090    1.000
    C109     C        0.71980    0.22660    0.59350    1.000
    C110     C        0.81780    0.29800    0.57620    1.000
    C111     C        0.97940    0.34780    0.69260    1.000
    H121     H        0.94370    0.11570    0.79680    1.000
    C112     C        0.96330    0.98940    0.83790    1.000
    C113     C        0.88880    0.86490    0.80890    1.000
    H122     H        0.82160    0.91370    0.74770    1.000
    H123     H        0.69440    0.18140    0.61560    1.000
    C114     C        0.69080    0.28230    0.54760    1.000
    C115     C        0.79150    0.36020    0.52980    1.000
    H124     H        0.86200    0.30230    0.58490    1.000
    H125     H        0.96690    0.39170    0.65790    1.000
    H126     H        0.01680    0.31110    0.67780    1.000
    H127     H        0.99980    0.01110    0.86000    1.000
    C116     C        0.94260    0.89300    0.84400    1.000
    H128     H        0.87370    0.80090    0.81100    1.000
    H129     H        0.64720    0.27270    0.53780    1.000
    C117     C        0.72620    0.35420    0.51490    1.000
    H130     H        0.81780    0.40560    0.50880    1.000
    H131     H        0.96450    0.45060    0.76220    1.000
    C118     C        0.97950    0.82080    0.88520    1.000
    C119     C        0.69390    0.42010    0.46680    1.000
    H132     H        0.95160    0.76600    0.89620    1.000
    H133     H        0.99300    0.85200    0.92510    1.000
    C120     C        0.03850    0.78440    0.84850    1.000
    H134     H        0.66640    0.38140    0.43870    1.000
    H135     H        0.72680    0.45110    0.44010    1.000
    H136     H        0.06630    0.83980    0.83900    1.000
    H137     H        0.02430    0.75700    0.80760    1.000
    C121     C        0.07830    0.70720    0.88460    1.000
    H138     H        0.62620    0.53590    0.47110    1.000
    C122     C        0.13800    0.68070    0.84550    1.000
    H139     H        0.09130    0.73250    0.92640    1.000
    H140     H        0.05210    0.64920    0.89160    1.000
    C123     C        0.19170    0.73450    0.84650    1.000
    C124     C        0.13780    0.60570    0.80320    1.000
    C125     C        0.24170    0.71830    0.80430    1.000
    H141     H        0.19530    0.78460    0.87660    1.000
    H142     H        0.10310    0.56230    0.80170    1.000
    C126     C        0.18940    0.59450    0.76250    1.000
    H143     H        0.27740    0.75970    0.80560    1.000
    N18      N        0.24130    0.64750    0.76270    1.000
    H144     H        0.18710    0.54450    0.73200    1.000
    Cd7      Cd       0.67189    0.37256    0.18956    1.000
    O13      O        0.57500    0.30010    0.16870    1.000
    O14      O        0.61900    0.20680    0.24270    1.000
    N19      N        0.62240    0.47420    0.26560    1.000
    N20      N        0.71750    0.26770    0.10910    1.000
    C127     C        0.57510    0.22290    0.20380    1.000
    C128     C        0.57040    0.44870    0.29960    1.000
    C129     C        0.64200    0.56680    0.27090    1.000
    C130     C        0.78020    0.27340    0.09350    1.000
    C131     C        0.68220    0.20200    0.07620    1.000
    C132     C        0.52060    0.15220    0.19260    1.000
    H145     H        0.55630    0.38430    0.29680    1.000
    C133     C        0.53670    0.51060    0.33790    1.000
    C134     C        0.61120    0.63510    0.30890    1.000
    H146     H        0.67840    0.58630    0.24770    1.000
    H147     H        0.80560    0.31860    0.11560    1.000
    C135     C        0.80920    0.21770    0.04760    1.000
    C136     C        0.70850    0.13980    0.02980    1.000
    H148     H        0.63800    0.19770    0.08490    1.000
    H149     H        0.53310    0.10830    0.15790    1.000
    H150     H        0.48320    0.18890    0.17780    1.000
    H151     H        0.50020    0.48890    0.36000    1.000
    C137     C        0.55740    0.60700    0.34400    1.000
    H152     H        0.62630    0.69910    0.31100    1.000
    H153     H        0.85280    0.22730    0.03780    1.000
    C138     C        0.77380    0.14580    0.01490    1.000
    H154     H        0.68220    0.09440    0.00880    1.000
    H155     H        0.53550    0.04940    0.26220    1.000
    C139     C        0.52050    0.67920    0.38520    1.000
    C140     C        0.80610    0.07990    0.96680    1.000
    H156     H        0.54840    0.73400    0.39620    1.000
    H157     H        0.50700    0.64800    0.42510    1.000
    C141     C        0.46150    0.71560    0.34850    1.000
    H158     H        0.83360    0.11860    0.93870    1.000
    H159     H        0.77320    0.04890    0.94010    1.000
    H160     H        0.43370    0.66020    0.33900    1.000
    H161     H        0.47570    0.74300    0.30760    1.000
    C142     C        0.42170    0.79280    0.38460    1.000
    H162     H        0.87380    0.96410    0.97110    1.000
    C143     C        0.36200    0.81930    0.34550    1.000
    H163     H        0.40870    0.76750    0.42640    1.000
    H164     H        0.44790    0.85080    0.39160    1.000
    C144     C        0.30830    0.76550    0.34650    1.000
    C145     C        0.36220    0.89430    0.30320    1.000
    C146     C        0.25830    0.78170    0.30430    1.000
    H165     H        0.30470    0.71540    0.37660    1.000
    H166     H        0.39690    0.93770    0.30170    1.000
    C147     C        0.31060    0.90550    0.26250    1.000
    H167     H        0.22260    0.74030    0.30560    1.000
    N21      N        0.25870    0.85250    0.26270    1.000
    H168     H        0.31290    0.95550    0.23200    1.000
    Cd8      Cd       0.17189    0.87256    0.18956    1.000
    O15      O        0.07500    0.80010    0.16870    1.000
    O16      O        0.11900    0.70680    0.24270    1.000
    N22      N        0.12240    0.97420    0.26560    1.000
    N23      N        0.21750    0.76770    0.10910    1.000
    C148     C        0.07510    0.72290    0.20380    1.000
    C149     C        0.07040    0.94870    0.29960    1.000
    C150     C        0.14200    0.06680    0.27090    1.000
    C151     C        0.28020    0.77340    0.09350    1.000
    C152     C        0.18220    0.70200    0.07620    1.000
    C153     C        0.02060    0.65220    0.19260    1.000
    H169     H        0.05630    0.88430    0.29680    1.000
    C154     C        0.03670    0.01060    0.33790    1.000
    C155     C        0.11120    0.13510    0.30890    1.000
    H170     H        0.17840    0.08630    0.24770    1.000
    H171     H        0.30560    0.81860    0.11560    1.000
    C156     C        0.30920    0.71770    0.04760    1.000
    C157     C        0.20850    0.63980    0.02980    1.000
    H172     H        0.13800    0.69770    0.08490    1.000
    H173     H        0.03310    0.60830    0.15790    1.000
    H174     H        0.98320    0.68890    0.17780    1.000
    H175     H        0.00020    0.98890    0.36000    1.000
    C158     C        0.05740    0.10700    0.34400    1.000
    H176     H        0.12630    0.19910    0.31100    1.000
    H177     H        0.35280    0.72730    0.03780    1.000
    C159     C        0.27380    0.64580    0.01490    1.000
    H178     H        0.18220    0.59440    0.00880    1.000
    H179     H        0.03550    0.54940    0.26220    1.000
    C160     C        0.02050    0.17920    0.38520    1.000
    C161     C        0.30610    0.57990    0.96680    1.000
    H180     H        0.04840    0.23400    0.39620    1.000
    H181     H        0.00700    0.14800    0.42510    1.000
    C162     C        0.96150    0.21560    0.34850    1.000
    H182     H        0.33360    0.61860    0.93870    1.000
    H183     H        0.27320    0.54890    0.94010    1.000
    H184     H        0.93370    0.16020    0.33900    1.000
    H185     H        0.97570    0.24300    0.30760    1.000
    C163     C        0.92170    0.29280    0.38460    1.000
    H186     H        0.37380    0.46410    0.97110    1.000
    C164     C        0.86200    0.31930    0.34550    1.000
    H187     H        0.90870    0.26750    0.42640    1.000
    H188     H        0.94790    0.35080    0.39160    1.000
    C165     C        0.80830    0.26550    0.34650    1.000
    C166     C        0.86220    0.39430    0.30320    1.000
    C167     C        0.75830    0.28170    0.30430    1.000
    H189     H        0.80470    0.21540    0.37660    1.000
    H190     H        0.89690    0.43770    0.30170    1.000
    C168     C        0.81060    0.40550    0.26250    1.000
    H191     H        0.72260    0.24030    0.30560    1.000
    N24      N        0.75870    0.35250    0.26270    1.000
    H192     H        0.81290    0.45550    0.23200    1.000
    C169     C        0.50000    0.90920    0.75000    1.000
    C170     C        0.00000    0.40920    0.75000    1.000
    C171     C        0.50000    0.09080    0.25000    1.000
    C172     C        0.00000    0.59080    0.25000    1.000
    C173     C        0.84730    0.00000    0.00000    1.000
    C174     C        0.34730    0.50000    0.00000    1.000
    C175     C        0.15270    0.00000    0.50000    1.000
    C176     C        0.65270    0.50000    0.50000    1.000
