data_functionalizedCrystal
_audit_creation_method	'EQeq! by Chris Wilmer'
_symmetry_space_group_name_H-M	'P1'
_symmetry_Int_Tables_number	1
_symmetry_cell_setting	triclinic
loop_
_symmetry_equiv_pos_as_xyz
  x,y,z
_cell_length_a	8.0098
_cell_length_b	13.813
_cell_length_c	22.126
_cell_angle_alpha	90
_cell_angle_beta	98.25
_cell_angle_gamma	90
loop_
_atom_site_label
_atom_site_type_symbol
_atom_site_fract_x
_atom_site_fract_y
_atom_site_fract_z
_atom_site_charge
Mof_Zn	Zn	0.19051	0.02099	0.15018	1.241
Mof_O 	O 	0.1635	0.9386	0.07769	-0.46
Mof_O 	O 	0.0066	0.8486	0.1287	-0.56
Mof_H 	H 	0.0704	0.8131	0.1509	0.297
Mof_O 	O 	0.029	0.9077	0.84759	-0.388
Mof_O 	O 	0.0599	0.7571	0.8164	-0.231
Mof_O 	O 	0.7676	0.4839	0.2629	-0.408
Mof_O 	O 	0.5691	0.3911	0.2914	-0.295
Mof_O 	O 	0.3497	0.1285	0.15062	-0.457
Mof_O 	O 	0.3857	0.1312	0.0528	-0.538
Mof_H 	H 	0.477	0.1121	0.0449	0.295
Mof_N 	N 	0.781	0.5371	0.04158	-0.138
Mof_N 	N 	0.6894	0.4276	0.9731	-0.182
Mof_H 	H 	0.6425	0.3764	0.9563	0.136
Mof_N 	N 	0.7666	0.5001	0.9441	-0.087
Mof_C 	C 	0.0687	0.8673	0.0827	0.435
Mof_C 	C 	0.0219	0.8045	0.0262	-0.1
Mof_C 	C 	0.0502	0.8364	0.9694	0.032
Mof_H 	H 	0.0987	0.8968	0.9654	0.041
Mof_C 	C 	0.0065	0.7786	0.918	-0.093
Mof_C 	C 	0.937	0.6884	0.9235	-0.001
Mof_H 	H 	0.9125	0.6488	0.8894	0.058
Mof_C 	C 	0.9033	0.6565	0.9805	-0.024
Mof_C 	C 	0.9461	0.7143	0.0315	0.012
Mof_H 	H 	0.9244	0.6929	0.0695	0.056
Mof_C 	C 	0.0323	0.8161	0.8554	0.317
Mof_C 	C 	0.8174	0.563	0.9857	0.128
Mof_C 	C 	0.7007	0.4511	0.0308	0.151
Mof_C 	C 	0.6413	0.3998	0.0807	-0.052
Mof_C 	C 	0.5563	0.3097	0.0699	0.039
Mof_H 	H 	0.5427	0.2831	0.0309	0.029
Mof_C 	C 	0.4937	0.2611	0.1165	-0.138
Mof_C 	C 	0.518	0.3013	0.1751	0.061
Mof_H 	H 	0.4723	0.2704	0.2063	0.05
Mof_C 	C 	0.609	0.3865	0.1879	-0.081
Mof_C 	C 	0.6699	0.4355	0.1402	0.022
Mof_H 	H 	0.7304	0.4927	0.1483	0.06
Mof_C 	C 	0.6486	0.4221	0.252	0.332
Mof_C 	C 	0.4046	0.1672	0.1051	0.44
Mof_Zn	Zn	0.80949	0.52099	0.34982	1.242
Mof_O 	O 	0.8365	0.4386	0.42231	-0.464
Mof_O 	O 	0.9934	0.3486	0.3713	-0.562
Mof_H 	H 	0.9296	0.3131	0.3491	0.298
Mof_O 	O 	0.971	0.4077	0.65241	-0.389
Mof_O 	O 	0.9401	0.2571	0.6836	-0.231
Mof_O 	O 	0.2324	0.9839	0.2371	-0.405
Mof_O 	O 	0.4309	0.8911	0.2086	-0.294
Mof_O 	O 	0.6503	0.6285	0.34938	-0.456
Mof_O 	O 	0.6143	0.6312	0.4472	-0.536
Mof_H 	H 	0.523	0.6121	0.4551	0.295
Mof_N 	N 	0.219	0.0371	0.45842	-0.14
Mof_N 	N 	0.3106	0.9276	0.5269	-0.182
Mof_H 	H 	0.3575	0.8764	0.5437	0.136
Mof_N 	N 	0.2334	0.0001	0.5559	-0.087
Mof_C 	C 	0.9313	0.3673	0.4173	0.436
Mof_C 	C 	0.9781	0.3045	0.4738	-0.103
Mof_C 	C 	0.9498	0.3364	0.5306	0.035
Mof_H 	H 	0.9013	0.3968	0.5346	0.04
Mof_C 	C 	0.9935	0.2786	0.582	-0.094
Mof_C 	C 	0.063	0.1884	0.5765	0
Mof_H 	H 	0.0875	0.1488	0.6106	0.058
Mof_C 	C 	0.0967	0.1565	0.5195	-0.024
Mof_C 	C 	0.0539	0.2143	0.4685	0.012
Mof_H 	H 	0.0756	0.1929	0.4305	0.055
Mof_C 	C 	0.9677	0.3161	0.6446	0.317
Mof_C 	C 	0.1826	0.063	0.5143	0.128
Mof_C 	C 	0.2993	0.9511	0.4692	0.154
Mof_C 	C 	0.3587	0.8998	0.4193	-0.052
Mof_C 	C 	0.4437	0.8097	0.4301	0.038
Mof_H 	H 	0.4573	0.7831	0.4691	0.03
Mof_C 	C 	0.5063	0.7611	0.3835	-0.137
Mof_C 	C 	0.482	0.8013	0.3249	0.061
Mof_H 	H 	0.5277	0.7704	0.2937	0.05
Mof_C 	C 	0.391	0.8865	0.3121	-0.081
Mof_C 	C 	0.3301	0.9355	0.3598	0.022
Mof_H 	H 	0.2696	0.9927	0.3517	0.061
Mof_C 	C 	0.3514	0.9221	0.248	0.331
Mof_C 	C 	0.5954	0.6672	0.3949	0.44
Mof_Zn	Zn	0.80949	0.97901	0.84982	1.24
Mof_O 	O 	0.8365	0.0614	0.92231	-0.461
Mof_O 	O 	0.9934	0.1514	0.8713	-0.56
Mof_H 	H 	0.9296	0.1869	0.8491	0.297
Mof_O 	O 	0.971	0.0923	0.15241	-0.388
Mof_O 	O 	0.9401	0.2429	0.1836	-0.231
Mof_O 	O 	0.2324	0.5161	0.7371	-0.408
Mof_O 	O 	0.4309	0.6089	0.7086	-0.295
Mof_O 	O 	0.6503	0.8715	0.84938	-0.457
Mof_O 	O 	0.6143	0.8688	0.9472	-0.538
Mof_H 	H 	0.523	0.8879	0.9551	0.295
Mof_N 	N 	0.219	0.4629	0.95842	-0.138
Mof_N 	N 	0.3106	0.5724	0.0269	-0.182
Mof_H 	H 	0.3575	0.6236	0.0437	0.136
Mof_N 	N 	0.2334	0.4999	0.0559	-0.087
Mof_C 	C 	0.9313	0.1327	0.9173	0.435
Mof_C 	C 	0.9781	0.1955	0.9738	-0.1
Mof_C 	C 	0.9498	0.1636	0.0306	0.032
Mof_H 	H 	0.9013	0.1032	0.0346	0.041
Mof_C 	C 	0.9935	0.2214	0.082	-0.093
Mof_C 	C 	0.063	0.3116	0.0765	-0.001
Mof_H 	H 	0.0875	0.3512	0.1106	0.058
Mof_C 	C 	0.0967	0.3435	0.0195	-0.024
Mof_C 	C 	0.0539	0.2857	0.9685	0.012
Mof_H 	H 	0.0756	0.3071	0.9305	0.056
Mof_C 	C 	0.9677	0.1839	0.1446	0.317
Mof_C 	C 	0.1826	0.437	0.0143	0.128
Mof_C 	C 	0.2993	0.5489	0.9692	0.151
Mof_C 	C 	0.3587	0.6002	0.9193	-0.052
Mof_C 	C 	0.4437	0.6903	0.9301	0.039
Mof_H 	H 	0.4573	0.7169	0.9691	0.029
Mof_C 	C 	0.5063	0.7389	0.8835	-0.138
Mof_C 	C 	0.482	0.6987	0.8249	0.061
Mof_H 	H 	0.5277	0.7296	0.7937	0.05
Mof_C 	C 	0.391	0.6135	0.8121	-0.081
Mof_C 	C 	0.3301	0.5645	0.8598	0.022
Mof_H 	H 	0.2696	0.5073	0.8517	0.06
Mof_C 	C 	0.3514	0.5779	0.748	0.332
Mof_C 	C 	0.5954	0.8328	0.8949	0.44
Mof_Zn	Zn	0.19051	0.47901	0.65018	1.242
Mof_O 	O 	0.1635	0.5614	0.57769	-0.464
Mof_O 	O 	0.0066	0.6514	0.6287	-0.562
Mof_H 	H 	0.0704	0.6869	0.6509	0.298
Mof_O 	O 	0.029	0.5923	0.34759	-0.389
Mof_O 	O 	0.0599	0.7429	0.3164	-0.231
Mof_O 	O 	0.7676	0.0161	0.7629	-0.405
Mof_O 	O 	0.5691	0.1089	0.7914	-0.294
Mof_O 	O 	0.3497	0.3715	0.65062	-0.456
Mof_O 	O 	0.3857	0.3688	0.5528	-0.536
Mof_H 	H 	0.477	0.3879	0.5449	0.295
Mof_N 	N 	0.781	0.9629	0.54158	-0.14
Mof_N 	N 	0.6894	0.0724	0.4731	-0.182
Mof_H 	H 	0.6425	0.1236	0.4563	0.136
Mof_N 	N 	0.7666	0.9999	0.4441	-0.087
Mof_C 	C 	0.0687	0.6327	0.5827	0.436
Mof_C 	C 	0.0219	0.6955	0.5262	-0.103
Mof_C 	C 	0.0502	0.6636	0.4694	0.035
Mof_H 	H 	0.0987	0.6032	0.4654	0.04
Mof_C 	C 	0.0065	0.7214	0.418	-0.094
Mof_C 	C 	0.937	0.8116	0.4235	0
Mof_H 	H 	0.9125	0.8512	0.3894	0.058
Mof_C 	C 	0.9033	0.8435	0.4805	-0.024
Mof_C 	C 	0.9461	0.7857	0.5315	0.012
Mof_H 	H 	0.9244	0.8071	0.5695	0.055
Mof_C 	C 	0.0323	0.6839	0.3554	0.317
Mof_C 	C 	0.8174	0.937	0.4857	0.128
Mof_C 	C 	0.7007	0.0489	0.5308	0.154
Mof_C 	C 	0.6413	0.1002	0.5807	-0.052
Mof_C 	C 	0.5563	0.1903	0.5699	0.038
Mof_H 	H 	0.5427	0.2169	0.5309	0.03
Mof_C 	C 	0.4937	0.2389	0.6165	-0.137
Mof_C 	C 	0.518	0.1987	0.6751	0.061
Mof_H 	H 	0.4723	0.2296	0.7063	0.05
Mof_C 	C 	0.609	0.1135	0.6879	-0.081
Mof_C 	C 	0.6699	0.0645	0.6402	0.022
Mof_H 	H 	0.7304	0.0073	0.6483	0.061
Mof_C 	C 	0.6486	0.0779	0.752	0.331
Mof_C 	C 	0.4046	0.3328	0.6051	0.44
_end
