data_functionalizedCrystal
_audit_creation_method	'EQeq! by Chris Wilmer'
_symmetry_space_group_name_H-M	'P1'
_symmetry_Int_Tables_number	1
_symmetry_cell_setting	triclinic
loop_
_symmetry_equiv_pos_as_xyz
  x,y,z
_cell_length_a	13.736
_cell_length_b	13.736
_cell_length_c	15.17
_cell_angle_alpha	90
_cell_angle_beta	90
_cell_angle_gamma	120
loop_
_atom_site_label
_atom_site_type_symbol
_atom_site_fract_x
_atom_site_fract_y
_atom_site_fract_z
_atom_site_charge
Mof_Al	Al	0.99687	0.22868	0.10029	11.188
Mof_Si	Si	0.22862	0.23197	0.1052	9.288
Mof_O 	O 	0.1234	0.24	0.1282	-5.169
Mof_O 	O 	0.3251	0.3137	0.1672	-4.847
Mof_O 	O 	0.202	0.1096	0.1195	-5.253
Mof_O 	O 	0.2652	0.2692	0.0087	-5.168
Mof_P 	P 	0.89864	0.33668	0.22813	2.52
Mof_Al	Al	0.66354	0.56201	0.43362	11.053
Mof_Si	Si	0.89529	0.5653	0.43853	9.156
Mof_O 	O 	0.79007	0.57333	0.46153	-4.996
Mof_O 	O 	0.99177	0.64703	0.50053	-4.515
Mof_O 	O 	0.86867	0.44293	0.45283	-5.294
Mof_O 	O 	0.93187	0.60253	0.34203	-4.947
Mof_P 	P 	0.5653	0.67002	0.56147	2.459
Mof_Al	Al	0.3302	0.89535	0.76696	10.876
Mof_Si	Si	0.56195	0.89864	0.77187	8.927
Mof_O 	O 	0.45673	0.90667	0.79487	-4.942
Mof_O 	O 	0.65843	0.98037	0.83387	-4.603
Mof_O 	O 	0.53533	0.77627	0.78617	-5.098
Mof_O 	O 	0.59853	0.93587	0.67537	-4.841
Mof_P 	P 	0.23197	0.00335	0.8948	2.75
Mof_Al	Al	0.77132	0.76819	0.10029	10.315
Mof_Si	Si	0.76803	0.99665	0.1052	8.155
Mof_O 	O 	0.76	0.8834	0.1282	-4.665
Mof_O 	O 	0.6863	0.0114	0.1672	-4.442
Mof_O 	O 	0.8904	0.0924	0.1195	-4.869
Mof_O 	O 	0.7308	0.996	0.0087	-4.697
Mof_P 	P 	0.66332	0.56195	0.22813	2.453
Mof_Al	Al	0.43799	0.10152	0.43362	11.752
Mof_Si	Si	0.4347	0.32998	0.43853	9.305
Mof_O 	O 	0.42667	0.21673	0.46153	-5.17
Mof_O 	O 	0.35297	0.34473	0.50053	-4.826
Mof_O 	O 	0.55707	0.42573	0.45283	-5.221
Mof_O 	O 	0.39747	0.32933	0.34203	-5.071
Mof_P 	P 	0.32998	0.89529	0.56147	2.444
Mof_Al	Al	0.10465	0.43486	0.76696	11.007
Mof_Si	Si	0.10136	0.66332	0.77187	8.881
Mof_O 	O 	0.09333	0.55007	0.79487	-4.964
Mof_O 	O 	0.01963	0.67807	0.83387	-4.562
Mof_O 	O 	0.22373	0.75907	0.78617	-5.081
Mof_O 	O 	0.06413	0.66267	0.67537	-4.832
Mof_P 	P 	0.99665	0.22862	0.8948	2.769
Mof_Al	Al	0.23181	0.00313	0.10029	11.187
Mof_Si	Si	0.00335	0.77138	0.1052	8.118
Mof_O 	O 	0.1166	0.8766	0.1282	-4.948
Mof_O 	O 	0.9886	0.6749	0.1672	-4.422
Mof_O 	O 	0.9076	0.798	0.1195	-4.725
Mof_O 	O 	0.004	0.7348	0.0087	-4.633
Mof_P 	P 	0.43805	0.10136	0.22813	2.528
Mof_Al	Al	0.89848	0.33646	0.43362	11.779
Mof_Si	Si	0.67002	0.10471	0.43853	9.296
Mof_O 	O 	0.78327	0.20993	0.46153	-5.144
Mof_O 	O 	0.65527	0.00823	0.50053	-4.531
Mof_O 	O 	0.57427	0.13133	0.45283	-5.324
Mof_O 	O 	0.67067	0.06813	0.34203	-4.988
Mof_P 	P 	0.10471	0.4347	0.56147	2.489
Mof_Al	Al	0.56514	0.6698	0.76696	10.949
Mof_Si	Si	0.33668	0.43805	0.77187	9.214
Mof_O 	O 	0.44993	0.54327	0.79487	-4.992
Mof_O 	O 	0.32193	0.34157	0.83387	-4.858
Mof_O 	O 	0.24093	0.46467	0.78617	-5.201
Mof_O 	O 	0.33733	0.40147	0.67537	-5.018
Mof_P 	P 	0.77138	0.76803	0.8948	2.363
Mof_Al	Al	0.00313	0.77132	0.89971	9.588
Mof_O 	O 	0.8766	0.76	0.8718	-2.866
Mof_O 	O 	0.6749	0.6863	0.8328	-3.136
Mof_O 	O 	0.798	0.8904	0.8805	-3.24
Mof_O 	O 	0.7348	0.7308	0.9913	-3.182
Mof_Al	Al	0.6698	0.10465	0.23304	10.553
Mof_O 	O 	0.54327	0.09333	0.20513	-3.216
Mof_O 	O 	0.34157	0.01963	0.16613	-3.208
Mof_O 	O 	0.46467	0.22373	0.21383	-3.486
Mof_O 	O 	0.40147	0.06413	0.32463	-3.551
Mof_Al	Al	0.33646	0.43799	0.56638	10.691
Mof_O 	O 	0.20993	0.42667	0.53847	-3.264
Mof_O 	O 	0.00823	0.35297	0.49947	-3.461
Mof_O 	O 	0.13133	0.55707	0.54717	-3.338
Mof_O 	O 	0.06813	0.39747	0.65797	-3.438
Mof_Al	Al	0.22868	0.23181	0.89971	11.011
Mof_O 	O 	0.24	0.1166	0.8718	-3.3
Mof_O 	O 	0.3137	0.9886	0.8328	-3.332
Mof_O 	O 	0.1096	0.9076	0.8805	-3.417
Mof_O 	O 	0.2692	0.004	0.9913	-3.363
Mof_Al	Al	0.89535	0.56514	0.23304	10.452
Mof_O 	O 	0.90667	0.44993	0.20513	-3.19
Mof_O 	O 	0.98037	0.32193	0.16613	-3.192
Mof_O 	O 	0.77627	0.24093	0.21383	-3.439
Mof_O 	O 	0.93587	0.33733	0.32463	-3.535
Mof_Al	Al	0.56201	0.89848	0.56638	9.964
Mof_O 	O 	0.57333	0.78327	0.53847	-3.114
Mof_O 	O 	0.64703	0.65527	0.49947	-3.2
Mof_O 	O 	0.44293	0.57427	0.54717	-3.463
Mof_O 	O 	0.60253	0.67067	0.65797	-3.382
Mof_Al	Al	0.76819	0.99687	0.89971	9.829
Mof_O 	O 	0.8834	0.1234	0.8718	-2.903
Mof_O 	O 	0.0114	0.3251	0.8328	-3.356
Mof_O 	O 	0.0924	0.202	0.8805	-3.647
Mof_O 	O 	0.996	0.2652	0.9913	-3.328
Mof_Al	Al	0.43486	0.3302	0.23304	10.704
Mof_O 	O 	0.55007	0.45673	0.20513	-3.259
Mof_O 	O 	0.67807	0.65843	0.16613	-3.054
Mof_O 	O 	0.75907	0.53533	0.21383	-3.394
Mof_O 	O 	0.66267	0.59853	0.32463	-3.431
Mof_Al	Al	0.10152	0.66354	0.56638	9.884
Mof_O 	O 	0.21673	0.79007	0.53847	-3.119
Mof_O 	O 	0.34473	0.99177	0.49947	-3.477
Mof_O 	O 	0.42573	0.86867	0.54717	-3.345
Mof_O 	O 	0.32933	0.93187	0.65797	-3.414
_end
