# CIF file generated by openbabel 3.1.0, see https://openbabel.org
data_I
_chemical_name_common 'image0'
_cell_length_a 31.3014
_cell_length_b 31.3014
_cell_length_c 12.7921
_cell_angle_alpha 90
_cell_angle_beta 90
_cell_angle_gamma 120
_space_group_name_H-M_alt 'P 1'
_space_group_name_Hall 'P 1'
loop_
    _symmetry_equiv_pos_as_xyz
    x,y,z
loop_
    _atom_site_label
    _atom_site_type_symbol
    _atom_site_fract_x
    _atom_site_fract_y
    _atom_site_fract_z
    _atom_site_occupancy
    Ag1      Ag       0.13268    0.53832    0.14092    1.000
    C1       C        0.12263    0.62202    0.30430    1.000
    C2       C        0.07050    0.55620    0.43660    1.000
    H1       H        0.06640    0.57620    0.48700    1.000
    C3       C        0.05340    0.50670    0.44420    1.000
    H2       H        0.03550    0.48550    0.50060    1.000
    C4       C        0.06770    0.49418    0.35170    1.000
    H3       H        0.06030    0.46170    0.33430    1.000
    C5       C        0.10250    0.61448    0.03330    1.000
    H4       H        0.10660    0.60610    0.96410    1.000
    C6       C        0.07290    0.63491    0.06040    1.000
    H5       H        0.05370    0.64250    0.01470    1.000
    C7       C        0.07757    0.64144    0.16500    1.000
    H6       H        0.06200    0.65460    0.20760    1.000
    C8       C        0.25220    0.67970    0.28140    1.000
    H7       H        0.28350    0.70470    0.25690    1.000
    C9       C        0.24520    0.64120    0.34860    1.000
    H8       H        0.26980    0.63570    0.37860    1.000
    C10      C        0.19540    0.61370    0.36150    1.000
    H9       H        0.17840    0.58470    0.40260    1.000
    C11      C        0.11331    0.65514    0.37800    1.000
    H10      H        0.07740    0.64200    0.38480    1.000
    H11      H        0.12660    0.65510    0.44820    1.000
    C12      C        0.12740    0.73387    0.41300    1.000
    H12      H        0.14340    0.73510    0.48070    1.000
    H13      H        0.09160    0.71930    0.42520    1.000
    C13      C        0.14847    0.78519    0.36930    1.000
    C14      C        0.17161    0.82479    0.43900    1.000
    H14      H        0.17470    0.81910    0.51080    1.000
    C15      C        0.14312    0.79354    0.26560    1.000
    H15      H        0.12670    0.76640    0.21920    1.000
    N1       N        0.12392    0.60852    0.11660    1.000
    N2       N        0.10867    0.62561    0.19800    1.000
    N3       N        0.09410    0.57132    0.34470    1.000
    N4       N        0.09276    0.53293    0.29120    1.000
    N5       N        0.20955    0.67649    0.25630    1.000
    N6       N        0.17465    0.63518    0.30530    1.000
    O1       O        0.13600    0.70367    0.33950    1.000
    Ag2      Ag       0.79935    0.87165    0.47425    1.000
    C16      C        0.78930    0.95535    0.63763    1.000
    C17      C        0.73717    0.88953    0.76993    1.000
    H16      H        0.73307    0.90953    0.82033    1.000
    C18      C        0.72007    0.84003    0.77753    1.000
    H17      H        0.70217    0.81883    0.83393    1.000
    C19      C        0.73437    0.82751    0.68503    1.000
    H18      H        0.72697    0.79503    0.66763    1.000
    C20      C        0.76917    0.94781    0.36663    1.000
    H19      H        0.77327    0.93943    0.29743    1.000
    C21      C        0.73957    0.96824    0.39373    1.000
    H20      H        0.72037    0.97583    0.34803    1.000
    C22      C        0.74424    0.97477    0.49833    1.000
    H21      H        0.72867    0.98793    0.54093    1.000
    C23      C        0.91887    0.01303    0.61473    1.000
    H22      H        0.95017    0.03803    0.59023    1.000
    C24      C        0.91187    0.97453    0.68193    1.000
    H23      H        0.93647    0.96903    0.71193    1.000
    C25      C        0.86207    0.94703    0.69483    1.000
    H24      H        0.84507    0.91803    0.73593    1.000
    C26      C        0.77998    0.98847    0.71133    1.000
    H25      H        0.74407    0.97533    0.71813    1.000
    H26      H        0.79327    0.98843    0.78153    1.000
    C27      C        0.79407    0.06720    0.74633    1.000
    H27      H        0.81007    0.06843    0.81403    1.000
    H28      H        0.75827    0.05263    0.75853    1.000
    C28      C        0.81514    0.11852    0.70263    1.000
    C29      C        0.83828    0.15812    0.77233    1.000
    H29      H        0.84137    0.15243    0.84413    1.000
    C30      C        0.80979    0.12687    0.59893    1.000
    H30      H        0.79337    0.09973    0.55253    1.000
    N7       N        0.79059    0.94185    0.44993    1.000
    N8       N        0.77534    0.95894    0.53133    1.000
    N9       N        0.76077    0.90465    0.67803    1.000
    N10      N        0.75943    0.86626    0.62453    1.000
    N11      N        0.87622    0.00982    0.58963    1.000
    N12      N        0.84132    0.96851    0.63863    1.000
    O2       O        0.80267    0.03700    0.67283    1.000
    Ag3      Ag       0.46602    0.20498    0.80759    1.000
    C31      C        0.45596    0.28869    0.97097    1.000
    C32      C        0.40383    0.22287    0.10327    1.000
    H31      H        0.39973    0.24287    0.15367    1.000
    C33      C        0.38673    0.17337    0.11087    1.000
    H32      H        0.36883    0.15217    0.16727    1.000
    C34      C        0.40103    0.16085    0.01837    1.000
    H33      H        0.39363    0.12837    0.00097    1.000
    C35      C        0.43583    0.28115    0.69997    1.000
    H34      H        0.43993    0.27277    0.63077    1.000
    C36      C        0.40623    0.30158    0.72707    1.000
    H35      H        0.38703    0.30917    0.68137    1.000
    C37      C        0.41090    0.30811    0.83167    1.000
    H36      H        0.39533    0.32127    0.87427    1.000
    C38      C        0.58553    0.34637    0.94807    1.000
    H37      H        0.61683    0.37137    0.92357    1.000
    C39      C        0.57853    0.30787    0.01527    1.000
    H38      H        0.60313    0.30237    0.04527    1.000
    C40      C        0.52873    0.28037    0.02817    1.000
    H39      H        0.51173    0.25137    0.06927    1.000
    C41      C        0.44664    0.32181    0.04467    1.000
    H40      H        0.41073    0.30867    0.05147    1.000
    H41      H        0.45993    0.32177    0.11487    1.000
    C42      C        0.46073    0.40054    0.07967    1.000
    H42      H        0.47673    0.40177    0.14737    1.000
    H43      H        0.42493    0.38597    0.09187    1.000
    C43      C        0.48180    0.45186    0.03597    1.000
    C44      C        0.50494    0.49146    0.10567    1.000
    H44      H        0.50803    0.48577    0.17747    1.000
    C45      C        0.47645    0.46021    0.93227    1.000
    H45      H        0.46003    0.43307    0.88587    1.000
    N13      N        0.45725    0.27519    0.78327    1.000
    N14      N        0.44200    0.29228    0.86467    1.000
    N15      N        0.42743    0.23799    0.01137    1.000
    N16      N        0.42609    0.19960    0.95787    1.000
    N17      N        0.54288    0.34316    0.92297    1.000
    N18      N        0.50798    0.30185    0.97197    1.000
    O3       O        0.46933    0.37034    0.00617    1.000
    Ag4      Ag       0.46168    0.59437    0.14092    1.000
    C46      C        0.37798    0.50061    0.30430    1.000
    C47      C        0.44380    0.51430    0.43660    1.000
    H46      H        0.42380    0.49020    0.48700    1.000
    C48      C        0.49330    0.54670    0.44420    1.000
    H47      H        0.51450    0.55000    0.50060    1.000
    C49      C        0.50582    0.57352    0.35170    1.000
    H48      H        0.53830    0.59860    0.33430    1.000
    C50      C        0.38552    0.48802    0.03330    1.000
    H49      H        0.39390    0.50050    0.96410    1.000
    C51      C        0.36509    0.43799    0.06040    1.000
    H50      H        0.35750    0.41120    0.01470    1.000
    C52      C        0.35856    0.43613    0.16500    1.000
    H51      H        0.34540    0.40740    0.20760    1.000
    C53      C        0.32030    0.57250    0.28140    1.000
    H52      H        0.29530    0.57880    0.25690    1.000
    C54      C        0.35880    0.60400    0.34860    1.000
    H53      H        0.36430    0.63410    0.37860    1.000
    C55      C        0.38630    0.58170    0.36150    1.000
    H54      H        0.41530    0.59370    0.40260    1.000
    C56      C        0.34486    0.45817    0.37800    1.000
    H55      H        0.35800    0.43540    0.38480    1.000
    H56      H        0.34490    0.47150    0.44820    1.000
    C57      C        0.26613    0.39353    0.41300    1.000
    H57      H        0.26490    0.40830    0.48070    1.000
    H58      H        0.28070    0.37230    0.42520    1.000
    C58      C        0.21481    0.36328    0.36930    1.000
    C59      C        0.17521    0.34682    0.43900    1.000
    H59      H        0.18090    0.35560    0.51080    1.000
    C60      C        0.20646    0.34958    0.26560    1.000
    H60      H        0.23360    0.36030    0.21920    1.000
    N19      N        0.39148    0.51540    0.11660    1.000
    N20      N        0.37439    0.48306    0.19800    1.000
    N21      N        0.42868    0.52278    0.34470    1.000
    N22      N        0.46707    0.55983    0.29120    1.000
    N23      N        0.32351    0.53306    0.25630    1.000
    N24      N        0.36482    0.53947    0.30530    1.000
    O4       O        0.29633    0.43233    0.33950    1.000
    Ag5      Ag       0.12835    0.92770    0.47425    1.000
    C61      C        0.04465    0.83394    0.63763    1.000
    C62      C        0.11047    0.84763    0.76993    1.000
    H61      H        0.09047    0.82353    0.82033    1.000
    C63      C        0.15997    0.88003    0.77753    1.000
    H62      H        0.18117    0.88333    0.83393    1.000
    C64      C        0.17249    0.90685    0.68503    1.000
    H63      H        0.20497    0.93193    0.66763    1.000
    C65      C        0.05219    0.82135    0.36663    1.000
    H64      H        0.06057    0.83383    0.29743    1.000
    C66      C        0.03176    0.77132    0.39373    1.000
    H65      H        0.02417    0.74453    0.34803    1.000
    C67      C        0.02523    0.76946    0.49833    1.000
    H66      H        0.01207    0.74073    0.54093    1.000
    C68      C        0.98697    0.90583    0.61473    1.000
    H67      H        0.96197    0.91213    0.59023    1.000
    C69      C        0.02547    0.93733    0.68193    1.000
    H68      H        0.03097    0.96743    0.71193    1.000
    C70      C        0.05297    0.91503    0.69483    1.000
    H69      H        0.08197    0.92703    0.73593    1.000
    C71      C        0.01153    0.79150    0.71133    1.000
    H70      H        0.02467    0.76873    0.71813    1.000
    H71      H        0.01157    0.80483    0.78153    1.000
    C72      C        0.93280    0.72686    0.74633    1.000
    H72      H        0.93157    0.74163    0.81403    1.000
    H73      H        0.94737    0.70563    0.75853    1.000
    C73      C        0.88148    0.69661    0.70263    1.000
    C74      C        0.84188    0.68015    0.77233    1.000
    H74      H        0.84757    0.68893    0.84413    1.000
    C75      C        0.87313    0.68291    0.59893    1.000
    H75      H        0.90027    0.69363    0.55253    1.000
    N25      N        0.05815    0.84873    0.44993    1.000
    N26      N        0.04106    0.81639    0.53133    1.000
    N27      N        0.09535    0.85611    0.67803    1.000
    N28      N        0.13374    0.89316    0.62453    1.000
    N29      N        0.99018    0.86639    0.58963    1.000
    N30      N        0.03149    0.87280    0.63863    1.000
    O5       O        0.96300    0.76566    0.67283    1.000
    Ag6      Ag       0.79502    0.26103    0.80759    1.000
    C76      C        0.71131    0.16728    0.97097    1.000
    C77      C        0.77713    0.18097    0.10327    1.000
    H76      H        0.75713    0.15687    0.15367    1.000
    C78      C        0.82663    0.21337    0.11087    1.000
    H77      H        0.84783    0.21667    0.16727    1.000
    C79      C        0.83915    0.24019    0.01837    1.000
    H78      H        0.87163    0.26527    0.00097    1.000
    C80      C        0.71885    0.15469    0.69997    1.000
    H79      H        0.72723    0.16717    0.63077    1.000
    C81      C        0.69842    0.10466    0.72707    1.000
    H80      H        0.69083    0.07787    0.68137    1.000
    C82      C        0.69189    0.10280    0.83167    1.000
    H81      H        0.67873    0.07407    0.87427    1.000
    C83      C        0.65363    0.23917    0.94807    1.000
    H82      H        0.62863    0.24547    0.92357    1.000
    C84      C        0.69213    0.27067    0.01527    1.000
    H83      H        0.69763    0.30077    0.04527    1.000
    C85      C        0.71963    0.24837    0.02817    1.000
    H84      H        0.74863    0.26037    0.06927    1.000
    C86      C        0.67819    0.12484    0.04467    1.000
    H85      H        0.69133    0.10207    0.05147    1.000
    H86      H        0.67823    0.13817    0.11487    1.000
    C87      C        0.59946    0.06020    0.07967    1.000
    H87      H        0.59823    0.07497    0.14737    1.000
    H88      H        0.61403    0.03897    0.09187    1.000
    C88      C        0.54814    0.02995    0.03597    1.000
    C89      C        0.50854    0.01349    0.10567    1.000
    H89      H        0.51423    0.02227    0.17747    1.000
    C90      C        0.53979    0.01625    0.93227    1.000
    H90      H        0.56693    0.02697    0.88587    1.000
    N31      N        0.72481    0.18207    0.78327    1.000
    N32      N        0.70772    0.14973    0.86467    1.000
    N33      N        0.76201    0.18945    0.01137    1.000
    N34      N        0.80040    0.22650    0.95787    1.000
    N35      N        0.65684    0.19973    0.92297    1.000
    N36      N        0.69815    0.20614    0.97197    1.000
    O6       O        0.62966    0.09900    0.00617    1.000
    Ag7      Ag       0.40563    0.86732    0.14092    1.000
    C91      C        0.49939    0.87737    0.30430    1.000
    C92      C        0.48570    0.92950    0.43660    1.000
    H91      H        0.50980    0.93360    0.48700    1.000
    C93      C        0.45330    0.94660    0.44420    1.000
    H92      H        0.45000    0.96450    0.50060    1.000
    C94      C        0.42648    0.93230    0.35170    1.000
    H93      H        0.40140    0.93970    0.33430    1.000
    C95      C        0.51198    0.89750    0.03330    1.000
    H94      H        0.49950    0.89340    0.96410    1.000
    C96      C        0.56201    0.92710    0.06040    1.000
    H95      H        0.58880    0.94630    0.01470    1.000
    C97      C        0.56387    0.92243    0.16500    1.000
    H96      H        0.59260    0.93800    0.20760    1.000
    C98      C        0.42750    0.74780    0.28140    1.000
    H97      H        0.42120    0.71650    0.25690    1.000
    C99      C        0.39600    0.75480    0.34860    1.000
    H98      H        0.36590    0.73020    0.37860    1.000
    C100     C        0.41830    0.80460    0.36150    1.000
    H99      H        0.40630    0.82160    0.40260    1.000
    C101     C        0.54183    0.88669    0.37800    1.000
    H100     H        0.56460    0.92260    0.38480    1.000
    H101     H        0.52850    0.87340    0.44820    1.000
    C102     C        0.60647    0.87260    0.41300    1.000
    H102     H        0.59170    0.85660    0.48070    1.000
    H103     H        0.62770    0.90840    0.42520    1.000
    C103     C        0.63672    0.85153    0.36930    1.000
    C104     C        0.65318    0.82839    0.43900    1.000
    H104     H        0.64440    0.82530    0.51080    1.000
    C105     C        0.65042    0.85688    0.26560    1.000
    H105     H        0.63970    0.87330    0.21920    1.000
    N37      N        0.48460    0.87608    0.11660    1.000
    N38      N        0.51694    0.89133    0.19800    1.000
    N39      N        0.47722    0.90590    0.34470    1.000
    N40      N        0.44017    0.90724    0.29120    1.000
    N41      N        0.46694    0.79045    0.25630    1.000
    N42      N        0.46053    0.82535    0.30530    1.000
    O7       O        0.56767    0.86400    0.33950    1.000
    Ag8      Ag       0.07230    0.20065    0.47425    1.000
    C106     C        0.16606    0.21070    0.63763    1.000
    C107     C        0.15237    0.26283    0.76993    1.000
    H106     H        0.17647    0.26693    0.82033    1.000
    C108     C        0.11997    0.27993    0.77753    1.000
    H107     H        0.11667    0.29783    0.83393    1.000
    C109     C        0.09315    0.26563    0.68503    1.000
    H108     H        0.06807    0.27303    0.66763    1.000
    C110     C        0.17865    0.23083    0.36663    1.000
    H109     H        0.16617    0.22673    0.29743    1.000
    C111     C        0.22868    0.26043    0.39373    1.000
    H110     H        0.25547    0.27963    0.34803    1.000
    C112     C        0.23054    0.25576    0.49833    1.000
    H111     H        0.25927    0.27133    0.54093    1.000
    C113     C        0.09417    0.08113    0.61473    1.000
    H112     H        0.08787    0.04983    0.59023    1.000
    C114     C        0.06267    0.08813    0.68193    1.000
    H113     H        0.03257    0.06353    0.71193    1.000
    C115     C        0.08497    0.13793    0.69483    1.000
    H114     H        0.07297    0.15493    0.73593    1.000
    C116     C        0.20850    0.22002    0.71133    1.000
    H115     H        0.23127    0.25593    0.71813    1.000
    H116     H        0.19517    0.20673    0.78153    1.000
    C117     C        0.27314    0.20593    0.74633    1.000
    H117     H        0.25837    0.18993    0.81403    1.000
    H118     H        0.29437    0.24173    0.75853    1.000
    C118     C        0.30339    0.18486    0.70263    1.000
    C119     C        0.31985    0.16172    0.77233    1.000
    H119     H        0.31107    0.15863    0.84413    1.000
    C120     C        0.31709    0.19021    0.59893    1.000
    H120     H        0.30637    0.20663    0.55253    1.000
    N43      N        0.15127    0.20941    0.44993    1.000
    N44      N        0.18361    0.22466    0.53133    1.000
    N45      N        0.14389    0.23923    0.67803    1.000
    N46      N        0.10684    0.24057    0.62453    1.000
    N47      N        0.13361    0.12378    0.58963    1.000
    N48      N        0.12720    0.15868    0.63863    1.000
    O8       O        0.23434    0.19733    0.67283    1.000
    Ag9      Ag       0.73897    0.53398    0.80759    1.000
    C121     C        0.83272    0.54404    0.97097    1.000
    C122     C        0.81903    0.59617    0.10327    1.000
    H121     H        0.84313    0.60027    0.15367    1.000
    C123     C        0.78663    0.61327    0.11087    1.000
    H122     H        0.78333    0.63117    0.16727    1.000
    C124     C        0.75981    0.59897    0.01837    1.000
    H123     H        0.73473    0.60637    0.00097    1.000
    C125     C        0.84531    0.56417    0.69997    1.000
    H124     H        0.83283    0.56007    0.63077    1.000
    C126     C        0.89534    0.59377    0.72707    1.000
    H125     H        0.92213    0.61297    0.68137    1.000
    C127     C        0.89720    0.58910    0.83167    1.000
    H126     H        0.92593    0.60467    0.87427    1.000
    C128     C        0.76083    0.41447    0.94807    1.000
    H127     H        0.75453    0.38317    0.92357    1.000
    C129     C        0.72933    0.42147    0.01527    1.000
    H128     H        0.69923    0.39687    0.04527    1.000
    C130     C        0.75163    0.47127    0.02817    1.000
    H129     H        0.73963    0.48827    0.06927    1.000
    C131     C        0.87516    0.55336    0.04467    1.000
    H130     H        0.89793    0.58927    0.05147    1.000
    H131     H        0.86183    0.54007    0.11487    1.000
    C132     C        0.93980    0.53927    0.07967    1.000
    H132     H        0.92503    0.52327    0.14737    1.000
    H133     H        0.96103    0.57507    0.09187    1.000
    C133     C        0.97005    0.51820    0.03597    1.000
    C134     C        0.98651    0.49506    0.10567    1.000
    H134     H        0.97773    0.49197    0.17747    1.000
    C135     C        0.98375    0.52355    0.93227    1.000
    H135     H        0.97303    0.53997    0.88587    1.000
    N49      N        0.81793    0.54275    0.78327    1.000
    N50      N        0.85027    0.55800    0.86467    1.000
    N51      N        0.81055    0.57257    0.01137    1.000
    N52      N        0.77350    0.57391    0.95787    1.000
    N53      N        0.80027    0.45712    0.92297    1.000
    N54      N        0.79386    0.49202    0.97197    1.000
    O9       O        0.90100    0.53067    0.00617    1.000
    Ag10     Ag       0.86732    0.46168    0.85908    1.000
    C136     C        0.87737    0.37798    0.69570    1.000
    C137     C        0.92950    0.44380    0.56340    1.000
    H136     H        0.93360    0.42380    0.51300    1.000
    C138     C        0.94660    0.49330    0.55580    1.000
    H137     H        0.96450    0.51450    0.49940    1.000
    C139     C        0.93230    0.50582    0.64830    1.000
    H138     H        0.93970    0.53830    0.66570    1.000
    C140     C        0.89750    0.38552    0.96670    1.000
    H139     H        0.89340    0.39390    0.03590    1.000
    C141     C        0.92710    0.36509    0.93960    1.000
    H140     H        0.94630    0.35750    0.98530    1.000
    C142     C        0.92243    0.35856    0.83500    1.000
    H141     H        0.93800    0.34540    0.79240    1.000
    C143     C        0.74780    0.32030    0.71860    1.000
    H142     H        0.71650    0.29530    0.74310    1.000
    C144     C        0.75480    0.35880    0.65140    1.000
    H143     H        0.73020    0.36430    0.62140    1.000
    C145     C        0.80460    0.38630    0.63850    1.000
    H144     H        0.82160    0.41530    0.59740    1.000
    C146     C        0.88669    0.34486    0.62200    1.000
    H145     H        0.92260    0.35800    0.61520    1.000
    H146     H        0.87340    0.34490    0.55180    1.000
    C147     C        0.87260    0.26613    0.58700    1.000
    H147     H        0.85660    0.26490    0.51930    1.000
    H148     H        0.90840    0.28070    0.57480    1.000
    C148     C        0.85153    0.21481    0.63070    1.000
    C149     C        0.82839    0.17521    0.56100    1.000
    H149     H        0.82530    0.18090    0.48920    1.000
    C150     C        0.85688    0.20646    0.73440    1.000
    H150     H        0.87330    0.23360    0.78080    1.000
    N55      N        0.87608    0.39148    0.88340    1.000
    N56      N        0.89133    0.37439    0.80200    1.000
    N57      N        0.90590    0.42868    0.65530    1.000
    N58      N        0.90724    0.46707    0.70880    1.000
    N59      N        0.79045    0.32351    0.74370    1.000
    N60      N        0.82535    0.36482    0.69470    1.000
    O10      O        0.86400    0.29633    0.66050    1.000
    Ag11     Ag       0.53398    0.79502    0.19241    1.000
    C151     C        0.54404    0.71131    0.02903    1.000
    C152     C        0.59617    0.77713    0.89673    1.000
    H151     H        0.60027    0.75713    0.84633    1.000
    C153     C        0.61327    0.82663    0.88913    1.000
    H152     H        0.63117    0.84783    0.83273    1.000
    C154     C        0.59897    0.83915    0.98163    1.000
    H153     H        0.60637    0.87163    0.99903    1.000
    C155     C        0.56417    0.71885    0.30003    1.000
    H154     H        0.56007    0.72723    0.36923    1.000
    C156     C        0.59377    0.69842    0.27293    1.000
    H155     H        0.61297    0.69083    0.31863    1.000
    C157     C        0.58910    0.69189    0.16833    1.000
    H156     H        0.60467    0.67873    0.12573    1.000
    C158     C        0.41447    0.65363    0.05193    1.000
    H157     H        0.38317    0.62863    0.07643    1.000
    C159     C        0.42147    0.69213    0.98473    1.000
    H158     H        0.39687    0.69763    0.95473    1.000
    C160     C        0.47127    0.71963    0.97183    1.000
    H159     H        0.48827    0.74863    0.93073    1.000
    C161     C        0.55336    0.67819    0.95533    1.000
    H160     H        0.58927    0.69133    0.94853    1.000
    H161     H        0.54007    0.67823    0.88513    1.000
    C162     C        0.53927    0.59946    0.92033    1.000
    H162     H        0.52327    0.59823    0.85263    1.000
    H163     H        0.57507    0.61403    0.90813    1.000
    C163     C        0.51820    0.54814    0.96403    1.000
    C164     C        0.49506    0.50854    0.89433    1.000
    H164     H        0.49197    0.51423    0.82253    1.000
    C165     C        0.52355    0.53979    0.06773    1.000
    H165     H        0.53997    0.56693    0.11413    1.000
    N61      N        0.54275    0.72481    0.21673    1.000
    N62      N        0.55800    0.70772    0.13533    1.000
    N63      N        0.57257    0.76201    0.98863    1.000
    N64      N        0.57391    0.80040    0.04213    1.000
    N65      N        0.45712    0.65684    0.07703    1.000
    N66      N        0.49202    0.69815    0.02803    1.000
    O11      O        0.53067    0.62966    0.99383    1.000
    Ag12     Ag       0.20065    0.12835    0.52575    1.000
    C166     C        0.21070    0.04465    0.36237    1.000
    C167     C        0.26283    0.11047    0.23007    1.000
    H166     H        0.26693    0.09047    0.17967    1.000
    C168     C        0.27993    0.15997    0.22247    1.000
    H167     H        0.29783    0.18117    0.16607    1.000
    C169     C        0.26563    0.17249    0.31497    1.000
    H168     H        0.27303    0.20497    0.33237    1.000
    C170     C        0.23083    0.05219    0.63337    1.000
    H169     H        0.22673    0.06057    0.70257    1.000
    C171     C        0.26043    0.03176    0.60627    1.000
    H170     H        0.27963    0.02417    0.65197    1.000
    C172     C        0.25576    0.02523    0.50167    1.000
    H171     H        0.27133    0.01207    0.45907    1.000
    C173     C        0.08113    0.98697    0.38527    1.000
    H172     H        0.04983    0.96197    0.40977    1.000
    C174     C        0.08813    0.02547    0.31807    1.000
    H173     H        0.06353    0.03097    0.28807    1.000
    C175     C        0.13793    0.05297    0.30517    1.000
    H174     H        0.15493    0.08197    0.26407    1.000
    C176     C        0.22002    0.01153    0.28867    1.000
    H175     H        0.25593    0.02467    0.28187    1.000
    H176     H        0.20673    0.01157    0.21847    1.000
    C177     C        0.20593    0.93280    0.25367    1.000
    H177     H        0.18993    0.93157    0.18597    1.000
    H178     H        0.24173    0.94737    0.24147    1.000
    C178     C        0.18486    0.88148    0.29737    1.000
    C179     C        0.16172    0.84188    0.22767    1.000
    H179     H        0.15863    0.84757    0.15587    1.000
    C180     C        0.19021    0.87313    0.40107    1.000
    H180     H        0.20663    0.90027    0.44747    1.000
    N67      N        0.20941    0.05815    0.55007    1.000
    N68      N        0.22466    0.04106    0.46867    1.000
    N69      N        0.23923    0.09535    0.32197    1.000
    N70      N        0.24057    0.13374    0.37547    1.000
    N71      N        0.12378    0.99018    0.41037    1.000
    N72      N        0.15868    0.03149    0.36137    1.000
    O12      O        0.19733    0.96300    0.32717    1.000
    Ag13     Ag       0.53832    0.40563    0.85908    1.000
    C181     C        0.62202    0.49939    0.69570    1.000
    C182     C        0.55620    0.48570    0.56340    1.000
    H181     H        0.57620    0.50980    0.51300    1.000
    C183     C        0.50670    0.45330    0.55580    1.000
    H182     H        0.48550    0.45000    0.49940    1.000
    C184     C        0.49418    0.42648    0.64830    1.000
    H183     H        0.46170    0.40140    0.66570    1.000
    C185     C        0.61448    0.51198    0.96670    1.000
    H184     H        0.60610    0.49950    0.03590    1.000
    C186     C        0.63491    0.56201    0.93960    1.000
    H185     H        0.64250    0.58880    0.98530    1.000
    C187     C        0.64144    0.56387    0.83500    1.000
    H186     H        0.65460    0.59260    0.79240    1.000
    C188     C        0.67970    0.42750    0.71860    1.000
    H187     H        0.70470    0.42120    0.74310    1.000
    C189     C        0.64120    0.39600    0.65140    1.000
    H188     H        0.63570    0.36590    0.62140    1.000
    C190     C        0.61370    0.41830    0.63850    1.000
    H189     H        0.58470    0.40630    0.59740    1.000
    C191     C        0.65514    0.54183    0.62200    1.000
    H190     H        0.64200    0.56460    0.61520    1.000
    H191     H        0.65510    0.52850    0.55180    1.000
    C192     C        0.73387    0.60647    0.58700    1.000
    H192     H        0.73510    0.59170    0.51930    1.000
    H193     H        0.71930    0.62770    0.57480    1.000
    C193     C        0.78519    0.63672    0.63070    1.000
    C194     C        0.82479    0.65318    0.56100    1.000
    H194     H        0.81910    0.64440    0.48920    1.000
    C195     C        0.79354    0.65042    0.73440    1.000
    H195     H        0.76640    0.63970    0.78080    1.000
    N73      N        0.60852    0.48460    0.88340    1.000
    N74      N        0.62561    0.51694    0.80200    1.000
    N75      N        0.57132    0.47722    0.65530    1.000
    N76      N        0.53293    0.44017    0.70880    1.000
    N77      N        0.67649    0.46694    0.74370    1.000
    N78      N        0.63518    0.46053    0.69470    1.000
    O13      O        0.70367    0.56767    0.66050    1.000
    Ag14     Ag       0.20498    0.73897    0.19241    1.000
    C196     C        0.28869    0.83272    0.02903    1.000
    C197     C        0.22287    0.81903    0.89673    1.000
    H196     H        0.24287    0.84313    0.84633    1.000
    C198     C        0.17337    0.78663    0.88913    1.000
    H197     H        0.15217    0.78333    0.83273    1.000
    C199     C        0.16085    0.75981    0.98163    1.000
    H198     H        0.12837    0.73473    0.99903    1.000
    C200     C        0.28115    0.84531    0.30003    1.000
    H199     H        0.27277    0.83283    0.36923    1.000
    C201     C        0.30158    0.89534    0.27293    1.000
    H200     H        0.30917    0.92213    0.31863    1.000
    C202     C        0.30811    0.89720    0.16833    1.000
    H201     H        0.32127    0.92593    0.12573    1.000
    C203     C        0.34637    0.76083    0.05193    1.000
    H202     H        0.37137    0.75453    0.07643    1.000
    C204     C        0.30787    0.72933    0.98473    1.000
    H203     H        0.30237    0.69923    0.95473    1.000
    C205     C        0.28037    0.75163    0.97183    1.000
    H204     H        0.25137    0.73963    0.93073    1.000
    C206     C        0.32181    0.87516    0.95533    1.000
    H205     H        0.30867    0.89793    0.94853    1.000
    H206     H        0.32177    0.86183    0.88513    1.000
    C207     C        0.40054    0.93980    0.92033    1.000
    H207     H        0.40177    0.92503    0.85263    1.000
    H208     H        0.38597    0.96103    0.90813    1.000
    C208     C        0.45186    0.97005    0.96403    1.000
    C209     C        0.49146    0.98651    0.89433    1.000
    H209     H        0.48577    0.97773    0.82253    1.000
    C210     C        0.46021    0.98375    0.06773    1.000
    H210     H        0.43307    0.97303    0.11413    1.000
    N79      N        0.27519    0.81793    0.21673    1.000
    N80      N        0.29228    0.85027    0.13533    1.000
    N81      N        0.23799    0.81055    0.98863    1.000
    N82      N        0.19960    0.77350    0.04213    1.000
    N83      N        0.34316    0.80027    0.07703    1.000
    N84      N        0.30185    0.79386    0.02803    1.000
    O14      O        0.37034    0.90100    0.99383    1.000
    Ag15     Ag       0.87165    0.07230    0.52575    1.000
    C211     C        0.95535    0.16606    0.36237    1.000
    C212     C        0.88953    0.15237    0.23007    1.000
    H211     H        0.90953    0.17647    0.17967    1.000
    C213     C        0.84003    0.11997    0.22247    1.000
    H212     H        0.81883    0.11667    0.16607    1.000
    C214     C        0.82751    0.09315    0.31497    1.000
    H213     H        0.79503    0.06807    0.33237    1.000
    C215     C        0.94781    0.17865    0.63337    1.000
    H214     H        0.93943    0.16617    0.70257    1.000
    C216     C        0.96824    0.22868    0.60627    1.000
    H215     H        0.97583    0.25547    0.65197    1.000
    C217     C        0.97477    0.23054    0.50167    1.000
    H216     H        0.98793    0.25927    0.45907    1.000
    C218     C        0.01303    0.09417    0.38527    1.000
    H217     H        0.03803    0.08787    0.40977    1.000
    C219     C        0.97453    0.06267    0.31807    1.000
    H218     H        0.96903    0.03257    0.28807    1.000
    C220     C        0.94703    0.08497    0.30517    1.000
    H219     H        0.91803    0.07297    0.26407    1.000
    C221     C        0.98847    0.20850    0.28867    1.000
    H220     H        0.97533    0.23127    0.28187    1.000
    H221     H        0.98843    0.19517    0.21847    1.000
    C222     C        0.06720    0.27314    0.25367    1.000
    H222     H        0.06843    0.25837    0.18597    1.000
    H223     H        0.05263    0.29437    0.24147    1.000
    C223     C        0.11852    0.30339    0.29737    1.000
    C224     C        0.15812    0.31985    0.22767    1.000
    H224     H        0.15243    0.31107    0.15587    1.000
    C225     C        0.12687    0.31709    0.40107    1.000
    H225     H        0.09973    0.30637    0.44747    1.000
    N85      N        0.94185    0.15127    0.55007    1.000
    N86      N        0.95894    0.18361    0.46867    1.000
    N87      N        0.90465    0.14389    0.32197    1.000
    N88      N        0.86626    0.10684    0.37547    1.000
    N89      N        0.00982    0.13361    0.41037    1.000
    N90      N        0.96851    0.12720    0.36137    1.000
    O15      O        0.03700    0.23434    0.32717    1.000
    Ag16     Ag       0.59437    0.13268    0.85908    1.000
    C226     C        0.50061    0.12263    0.69570    1.000
    C227     C        0.51430    0.07050    0.56340    1.000
    H226     H        0.49020    0.06640    0.51300    1.000
    C228     C        0.54670    0.05340    0.55580    1.000
    H227     H        0.55000    0.03550    0.49940    1.000
    C229     C        0.57352    0.06770    0.64830    1.000
    H228     H        0.59860    0.06030    0.66570    1.000
    C230     C        0.48802    0.10250    0.96670    1.000
    H229     H        0.50050    0.10660    0.03590    1.000
    C231     C        0.43799    0.07290    0.93960    1.000
    H230     H        0.41120    0.05370    0.98530    1.000
    C232     C        0.43613    0.07757    0.83500    1.000
    H231     H        0.40740    0.06200    0.79240    1.000
    C233     C        0.57250    0.25220    0.71860    1.000
    H232     H        0.57880    0.28350    0.74310    1.000
    C234     C        0.60400    0.24520    0.65140    1.000
    H233     H        0.63410    0.26980    0.62140    1.000
    C235     C        0.58170    0.19540    0.63850    1.000
    H234     H        0.59370    0.17840    0.59740    1.000
    C236     C        0.45817    0.11331    0.62200    1.000
    H235     H        0.43540    0.07740    0.61520    1.000
    H236     H        0.47150    0.12660    0.55180    1.000
    C237     C        0.39353    0.12740    0.58700    1.000
    H237     H        0.40830    0.14340    0.51930    1.000
    H238     H        0.37230    0.09160    0.57480    1.000
    C238     C        0.36328    0.14847    0.63070    1.000
    C239     C        0.34682    0.17161    0.56100    1.000
    H239     H        0.35560    0.17470    0.48920    1.000
    C240     C        0.34958    0.14312    0.73440    1.000
    H240     H        0.36030    0.12670    0.78080    1.000
    N91      N        0.51540    0.12392    0.88340    1.000
    N92      N        0.48306    0.10867    0.80200    1.000
    N93      N        0.52278    0.09410    0.65530    1.000
    N94      N        0.55983    0.09276    0.70880    1.000
    N95      N        0.53306    0.20955    0.74370    1.000
    N96      N        0.53947    0.17465    0.69470    1.000
    O16      O        0.43233    0.13600    0.66050    1.000
    Ag17     Ag       0.26103    0.46602    0.19241    1.000
    C241     C        0.16728    0.45596    0.02903    1.000
    C242     C        0.18097    0.40383    0.89673    1.000
    H241     H        0.15687    0.39973    0.84633    1.000
    C243     C        0.21337    0.38673    0.88913    1.000
    H242     H        0.21667    0.36883    0.83273    1.000
    C244     C        0.24019    0.40103    0.98163    1.000
    H243     H        0.26527    0.39363    0.99903    1.000
    C245     C        0.15469    0.43583    0.30003    1.000
    H244     H        0.16717    0.43993    0.36923    1.000
    C246     C        0.10466    0.40623    0.27293    1.000
    H245     H        0.07787    0.38703    0.31863    1.000
    C247     C        0.10280    0.41090    0.16833    1.000
    H246     H        0.07407    0.39533    0.12573    1.000
    C248     C        0.23917    0.58553    0.05193    1.000
    H247     H        0.24547    0.61683    0.07643    1.000
    C249     C        0.27067    0.57853    0.98473    1.000
    H248     H        0.30077    0.60313    0.95473    1.000
    C250     C        0.24837    0.52873    0.97183    1.000
    H249     H        0.26037    0.51173    0.93073    1.000
    C251     C        0.12484    0.44664    0.95533    1.000
    H250     H        0.10207    0.41073    0.94853    1.000
    H251     H        0.13817    0.45993    0.88513    1.000
    C252     C        0.06020    0.46073    0.92033    1.000
    H252     H        0.07497    0.47673    0.85263    1.000
    H253     H        0.03897    0.42493    0.90813    1.000
    C253     C        0.02995    0.48180    0.96403    1.000
    C254     C        0.01349    0.50494    0.89433    1.000
    H254     H        0.02227    0.50803    0.82253    1.000
    C255     C        0.01625    0.47645    0.06773    1.000
    H255     H        0.02697    0.46003    0.11413    1.000
    N97      N        0.18207    0.45725    0.21673    1.000
    N98      N        0.14973    0.44200    0.13533    1.000
    N99      N        0.18945    0.42743    0.98863    1.000
    N100     N        0.22650    0.42609    0.04213    1.000
    N101     N        0.19973    0.54288    0.07703    1.000
    N102     N        0.20614    0.50798    0.02803    1.000
    O17      O        0.09900    0.46933    0.99383    1.000
    Ag18     Ag       0.92770    0.79935    0.52575    1.000
    C256     C        0.83394    0.78930    0.36237    1.000
    C257     C        0.84763    0.73717    0.23007    1.000
    H256     H        0.82353    0.73307    0.17967    1.000
    C258     C        0.88003    0.72007    0.22247    1.000
    H257     H        0.88333    0.70217    0.16607    1.000
    C259     C        0.90685    0.73437    0.31497    1.000
    H258     H        0.93193    0.72697    0.33237    1.000
    C260     C        0.82135    0.76917    0.63337    1.000
    H259     H        0.83383    0.77327    0.70257    1.000
    C261     C        0.77132    0.73957    0.60627    1.000
    H260     H        0.74453    0.72037    0.65197    1.000
    C262     C        0.76946    0.74424    0.50167    1.000
    H261     H        0.74073    0.72867    0.45907    1.000
    C263     C        0.90583    0.91887    0.38527    1.000
    H262     H        0.91213    0.95017    0.40977    1.000
    C264     C        0.93733    0.91187    0.31807    1.000
    H263     H        0.96743    0.93647    0.28807    1.000
    C265     C        0.91503    0.86207    0.30517    1.000
    H264     H        0.92703    0.84507    0.26407    1.000
    C266     C        0.79150    0.77998    0.28867    1.000
    H265     H        0.76873    0.74407    0.28187    1.000
    H266     H        0.80483    0.79327    0.21847    1.000
    C267     C        0.72686    0.79407    0.25367    1.000
    H267     H        0.74163    0.81007    0.18597    1.000
    H268     H        0.70563    0.75827    0.24147    1.000
    C268     C        0.69661    0.81514    0.29737    1.000
    C269     C        0.68015    0.83828    0.22767    1.000
    H269     H        0.68893    0.84137    0.15587    1.000
    C270     C        0.68291    0.80979    0.40107    1.000
    H270     H        0.69363    0.79337    0.44747    1.000
    N103     N        0.84873    0.79059    0.55007    1.000
    N104     N        0.81639    0.77534    0.46867    1.000
    N105     N        0.85611    0.76077    0.32197    1.000
    N106     N        0.89316    0.75943    0.37547    1.000
    N107     N        0.86639    0.87622    0.41037    1.000
    N108     N        0.87280    0.84132    0.36137    1.000
    O18      O        0.76566    0.80267    0.32717    1.000
