# CIF file generated by openbabel 3.1.0, see https://openbabel.org
data_I
_chemical_name_common 'ic300665a_si_002_clean'
_cell_length_a 13.8877
_cell_length_b 22.5663
_cell_length_c 22.5663
_cell_angle_alpha 90
_cell_angle_beta 90
_cell_angle_gamma 90
_space_group_name_H-M_alt 'P 1'
_space_group_name_Hall 'P 1'
loop_
    _symmetry_equiv_pos_as_xyz
    x,y,z
loop_
    _atom_site_label
    _atom_site_type_symbol
    _atom_site_fract_x
    _atom_site_fract_y
    _atom_site_fract_z
    _atom_site_occupancy
    Cd1      Cd       0.93743    0.21594    0.02000    1.000
    Cd2      Cd       0.81257    0.28406    0.52000    1.000
    H1       H        0.88290    0.13930    0.90620    1.000
    H2       H        0.89000    0.14920    0.14280    1.000
    H3       H        0.85080    0.15280    0.80630    1.000
    H4       H        0.90370    0.31990    0.11110    1.000
    H5       H        0.89920    0.33280    0.74100    1.000
    H6       H        0.85080    0.16720    0.24100    1.000
    H7       H        0.02960    0.28810    0.91300    1.000
    H8       H        0.84630    0.18010    0.61110    1.000
    H9       H        0.72040    0.21190    0.41300    1.000
    H10      H        0.89920    0.34720    0.30630    1.000
    H11      H        0.74590    0.19540    0.31290    1.000
    H12      H        0.86000    0.35080    0.64280    1.000
    H13      H        0.88550    0.15750    0.70780    1.000
    H14      H        0.00410    0.30460    0.81290    1.000
    H15      H        0.86450    0.34250    0.20780    1.000
    H16      H        0.86710    0.36070    0.40620    1.000
    C1       C        0.86130    0.19954    0.21490    1.000
    C2       C        0.89270    0.28832    0.13806    1.000
    C3       C        0.88870    0.30046    0.71490    1.000
    C4       C        0.86500    0.31106    0.65617    1.000
    C5       C        0.88500    0.18894    0.15617    1.000
    C6       C        0.97690    0.27070    0.83145    1.000
    C7       C        0.85300    0.25660    0.23558    1.000
    C8       C        0.99230    0.26040    0.89100    1.000
    C9       C        0.82880    0.26915    0.29850    1.000
    C10      C        0.77310    0.22930    0.33145    1.000
    C11      C        0.85730    0.21168    0.63806    1.000
    C12      C        0.86940    0.30230    0.19558    1.000
    C13      C        0.90640    0.17388    0.88703    1.000
    C14      C        0.92120    0.23085    0.79850    1.000
    C15      C        0.88060    0.19770    0.69558    1.000
    C16      C        0.86270    0.31846    0.32727    1.000
    C17      C        0.84360    0.32612    0.38703    1.000
    C18      C        0.75770    0.23960    0.39100    1.000
    C19      C        0.88730    0.18154    0.82727    1.000
    C20      C        0.89700    0.24340    0.73558    1.000
    N1       N        0.90100    0.23303    0.11781    1.000
    N2       N        0.95680    0.21333    0.91877    1.000
    N3       N        0.79320    0.28667    0.41877    1.000
    N4       N        0.84900    0.26697    0.61781    1.000
    Cd3      Cd       0.68743    0.48000    0.71594    1.000
    Cd4      Cd       0.56257    0.98000    0.78406    1.000
    H17      H        0.59630    0.88890    0.68010    1.000
    H18      H        0.60080    0.69370    0.65280    1.000
    H19      H        0.63550    0.79220    0.65750    1.000
    H20      H        0.49590    0.18710    0.69540    1.000
    H21      H        0.63290    0.59380    0.63930    1.000
    H22      H        0.61450    0.29220    0.84250    1.000
    H23      H        0.64920    0.75900    0.83280    1.000
    H24      H        0.61710    0.09380    0.86070    1.000
    H25      H        0.65370    0.38890    0.81990    1.000
    H26      H        0.77960    0.58700    0.78810    1.000
    H27      H        0.64920    0.19370    0.84720    1.000
    H28      H        0.60080    0.25900    0.66720    1.000
    H29      H        0.75410    0.68710    0.80460    1.000
    H30      H        0.64000    0.35720    0.64920    1.000
    H31      H        0.47040    0.08700    0.71190    1.000
    H32      H        0.61000    0.85720    0.85080    1.000
    C21      C        0.57880    0.20150    0.76915    1.000
    C22      C        0.52310    0.16855    0.72930    1.000
    C23      C        0.61500    0.84383    0.81106    1.000
    C24      C        0.63060    0.80442    0.69770    1.000
    C25      C        0.63730    0.67273    0.68154    1.000
    C26      C        0.59360    0.11297    0.82612    1.000
    C27      C        0.63500    0.34383    0.68894    1.000
    C28      C        0.50770    0.10900    0.73960    1.000
    C29      C        0.61940    0.30442    0.80230    1.000
    C30      C        0.61130    0.28510    0.69954    1.000
    C31      C        0.65640    0.61297    0.67388    1.000
    C32      C        0.64270    0.36194    0.78832    1.000
    C33      C        0.72690    0.66855    0.77070    1.000
    C34      C        0.67120    0.70150    0.73085    1.000
    C35      C        0.63870    0.78510    0.80046    1.000
    C36      C        0.60300    0.26442    0.75660    1.000
    C37      C        0.60730    0.86194    0.71168    1.000
    C38      C        0.74230    0.60900    0.76040    1.000
    C39      C        0.61270    0.17273    0.81846    1.000
    C40      C        0.64700    0.76442    0.74340    1.000
    N5       N        0.59900    0.88219    0.76697    1.000
    N6       N        0.65100    0.38219    0.73303    1.000
    N7       N        0.70680    0.58123    0.71333    1.000
    N8       N        0.54320    0.08123    0.78667    1.000
    Cd5      Cd       0.43743    0.78406    0.98000    1.000
    Cd6      Cd       0.31257    0.71594    0.48000    1.000
    H33      H        0.40370    0.68010    0.88890    1.000
    H34      H        0.24590    0.80460    0.68710    1.000
    H35      H        0.36000    0.64920    0.35720    1.000
    H36      H        0.38550    0.84250    0.29220    1.000
    H37      H        0.36710    0.63930    0.59380    1.000
    H38      H        0.52960    0.71190    0.08700    1.000
    H39      H        0.39920    0.65280    0.69370    1.000
    H40      H        0.22040    0.78810    0.58700    1.000
    H41      H        0.36450    0.65750    0.79220    1.000
    H42      H        0.39000    0.85080    0.85720    1.000
    H43      H        0.35080    0.83280    0.75900    1.000
    H44      H        0.35080    0.84720    0.19370    1.000
    H45      H        0.50410    0.69540    0.18710    1.000
    H46      H        0.38290    0.86070    0.09380    1.000
    H47      H        0.34630    0.81990    0.38890    1.000
    H48      H        0.39920    0.66720    0.25900    1.000
    C41      C        0.38500    0.81106    0.84383    1.000
    C42      C        0.25770    0.76040    0.60900    1.000
    C43      C        0.35300    0.74340    0.76442    1.000
    C44      C        0.42120    0.76915    0.20150    1.000
    C45      C        0.38730    0.81846    0.17273    1.000
    C46      C        0.39700    0.75660    0.26442    1.000
    C47      C        0.39270    0.71168    0.86194    1.000
    C48      C        0.27310    0.77070    0.66855    1.000
    C49      C        0.34360    0.67388    0.61297    1.000
    C50      C        0.40640    0.82612    0.11297    1.000
    C51      C        0.36940    0.69770    0.80442    1.000
    C52      C        0.47690    0.72930    0.16855    1.000
    C53      C        0.35730    0.78832    0.36194    1.000
    C54      C        0.49230    0.73960    0.10900    1.000
    C55      C        0.36270    0.68154    0.67273    1.000
    C56      C        0.38870    0.69954    0.28510    1.000
    C57      C        0.36500    0.68894    0.34383    1.000
    C58      C        0.36130    0.80046    0.78510    1.000
    C59      C        0.32880    0.73085    0.70150    1.000
    C60      C        0.38060    0.80230    0.30442    1.000
    N9       N        0.40100    0.76697    0.88219    1.000
    N10      N        0.34900    0.73303    0.38219    1.000
    N11      N        0.45680    0.78667    0.08123    1.000
    N12      N        0.29320    0.71333    0.58123    1.000
    Cd7      Cd       0.18743    0.52000    0.28406    1.000
    Cd8      Cd       0.06257    0.02000    0.21594    1.000
    H49      H        0.97040    0.91300    0.28810    1.000
    H50      H        0.25410    0.31290    0.19540    1.000
    H51      H        0.14920    0.80630    0.15280    1.000
    H52      H        0.27960    0.41300    0.21190    1.000
    H53      H        0.14920    0.24100    0.16720    1.000
    H54      H        0.11000    0.14280    0.14920    1.000
    H55      H        0.13550    0.20780    0.34250    1.000
    H56      H        0.11710    0.90620    0.13930    1.000
    H57      H        0.13290    0.40620    0.36070    1.000
    H58      H        0.15370    0.61110    0.18010    1.000
    H59      H        0.10080    0.74100    0.33280    1.000
    H60      H        0.10080    0.30630    0.34720    1.000
    H61      H        0.14000    0.64280    0.35080    1.000
    H62      H        0.09630    0.11110    0.31990    1.000
    H63      H        0.11450    0.70780    0.15750    1.000
    H64      H        0.99590    0.81290    0.30460    1.000
    C61      C        0.10300    0.73558    0.24340    1.000
    C62      C        0.17120    0.29850    0.26915    1.000
    C63      C        0.11500    0.15617    0.18894    1.000
    C64      C        0.24230    0.39100    0.23960    1.000
    C65      C        0.13060    0.19558    0.30230    1.000
    C66      C        0.14270    0.63806    0.21168    1.000
    C67      C        0.11940    0.69558    0.19770    1.000
    C68      C        0.13730    0.32727    0.31846    1.000
    C69      C        0.22690    0.33145    0.22930    1.000
    C70      C        0.15640    0.38703    0.32612    1.000
    C71      C        0.13870    0.21490    0.19954    1.000
    C72      C        0.09360    0.88703    0.17388    1.000
    C73      C        0.11130    0.71490    0.30046    1.000
    C74      C        0.11270    0.82727    0.18154    1.000
    C75      C        0.13500    0.65617    0.31106    1.000
    C76      C        0.02310    0.83145    0.27070    1.000
    C77      C        0.10730    0.13806    0.28832    1.000
    C78      C        0.00770    0.89100    0.26040    1.000
    C79      C        0.07880    0.79850    0.23085    1.000
    C80      C        0.14700    0.23558    0.25660    1.000
    N13      N        0.20680    0.41877    0.28667    1.000
    N14      N        0.04320    0.91877    0.21333    1.000
    N15      N        0.09900    0.11781    0.23303    1.000
    N16      N        0.15100    0.61781    0.26697    1.000
    H65      H        0.78650    0.44000    0.10210    1.000
    H66      H        0.84080    0.47120    0.30370    1.000
    H67      H        0.28990    0.20650    0.06370    1.000
    H68      H        0.48330    0.42830    0.05760    1.000
    H69      H        0.32420    0.41110    0.08550    1.000
    H70      H        0.43850    0.24620    0.08960    1.000
    H71      H        0.62830    0.46340    0.08810    1.000
    H72      H        0.64720    0.39330    0.08480    1.000
    H73      H        0.68800    0.44300    0.27030    1.000
    H74      H        0.17580    0.37020    0.05940    1.000
    H75      H        0.93920    0.46620    0.13550    1.000
    H76      H        0.46710    0.43630    0.12760    1.000
    C81      C        0.72330    0.43896    0.18340    1.000
    C82      C        0.79760    0.44613    0.14325    1.000
    C83      C        0.73910    0.44810    0.24280    1.000
    C84      C        0.83010    0.46490    0.26260    1.000
    C85      C        0.61010    0.42470    0.10530    1.000
    C86      C        0.00400    0.49134    0.24328    1.000
    C87      C        0.38510    0.27167    0.08300    1.000
    C88      C        0.50390    0.41420    0.09720    1.000
    C89      C        0.29660    0.24822    0.06793    1.000
    C90      C        0.88800    0.46219    0.16321    1.000
    C91      C        0.22940    0.34477    0.06542    1.000
    C92      C        0.39580    0.33280    0.08859    1.000
    C93      C        0.12140    0.25856    0.04268    1.000
    C94      C        0.90560    0.47248    0.22255    1.000
    C95      C        0.21710    0.28455    0.05886    1.000
    C96      C        0.31780    0.36948    0.08064    1.000
    O1       O        0.10852    0.20354    0.04445    1.000
    O2       O        0.07040    0.49784    0.20616    1.000
    O3       O        0.48620    0.35211    0.10272    1.000
    O4       O        0.05390    0.29327    0.02785    1.000
    O5       O        0.63100    0.42388    0.16747    1.000
    O6       O        0.01830    0.50021    0.29804    1.000
    H77      H        0.57420    0.12980    0.55940    1.000
    H78      H        0.06200    0.05700    0.77030    1.000
    H79      H        0.31150    0.25380    0.58960    1.000
    H80      H        0.10280    0.10670    0.58480    1.000
    H81      H        0.81080    0.03380    0.63550    1.000
    H82      H        0.96350    0.06000    0.60210    1.000
    H83      H        0.28290    0.06370    0.62760    1.000
    H84      H        0.12170    0.03660    0.58810    1.000
    H85      H        0.42580    0.08890    0.58550    1.000
    H86      H        0.90920    0.02880    0.80370    1.000
    H87      H        0.46010    0.29350    0.56370    1.000
    H88      H        0.26670    0.07170    0.55760    1.000
    C97      C        0.13990    0.07530    0.60530    1.000
    C98      C        0.62860    0.24144    0.54268    1.000
    C99      C        0.43220    0.13052    0.58064    1.000
    C100     C        0.02670    0.06104    0.68340    1.000
    C101     C        0.01090    0.05190    0.74280    1.000
    C102     C        0.91990    0.03510    0.76260    1.000
    C103     C        0.35420    0.16720    0.58859    1.000
    C104     C        0.86200    0.03781    0.66321    1.000
    C105     C        0.24610    0.08580    0.59720    1.000
    C106     C        0.52060    0.15523    0.56542    1.000
    C107     C        0.95240    0.05387    0.64325    1.000
    C108     C        0.74600    0.00866    0.74328    1.000
    C109     C        0.36490    0.22833    0.58300    1.000
    C110     C        0.53290    0.21545    0.55886    1.000
    C111     C        0.45340    0.25178    0.56793    1.000
    C112     C        0.84440    0.02752    0.72255    1.000
    O7       O        0.64148    0.29646    0.54445    1.000
    O8       O        0.11900    0.07612    0.66747    1.000
    O9       O        0.67960    0.00216    0.70616    1.000
    O10      O        0.73170    0.99979    0.79804    1.000
    O11      O        0.69610    0.20673    0.52785    1.000
    O12      O        0.26380    0.14789    0.60272    1.000
    H89      H        0.68920    0.36450    0.96620    1.000
    H90      H        0.43800    0.22970    0.94300    1.000
    H91      H        0.92580    0.44060    0.87020    1.000
    H92      H        0.23330    0.44240    0.92830    1.000
    H93      H        0.37830    0.41190    0.96340    1.000
    H94      H        0.18850    0.41040    0.74620    1.000
    H95      H        0.03990    0.43630    0.70650    1.000
    H96      H        0.53650    0.39790    0.94000    1.000
    H97      H        0.21710    0.37240    0.93630    1.000
    H98      H        0.59080    0.19630    0.97120    1.000
    H99      H        0.39720    0.41520    0.89330    1.000
    H100     H        0.07420    0.41450    0.91110    1.000
    C113     C        0.65560    0.27745    0.97248    1.000
    C114     C        0.97940    0.43458    0.84477    1.000
    C115     C        0.47330    0.31660    0.93896    1.000
    C116     C        0.75400    0.25672    0.99134    1.000
    C117     C        0.96710    0.44114    0.78455    1.000
    C118     C        0.63800    0.33679    0.96219    1.000
    C119     C        0.36010    0.39470    0.92470    1.000
    C120     C        0.48910    0.25720    0.94810    1.000
    C121     C        0.14580    0.41141    0.83280    1.000
    C122     C        0.54760    0.35675    0.94613    1.000
    C123     C        0.87140    0.45732    0.75856    1.000
    C124     C        0.58010    0.23740    0.96490    1.000
    C125     C        0.13510    0.41700    0.77167    1.000
    C126     C        0.25390    0.40280    0.91420    1.000
    C127     C        0.06780    0.41936    0.86948    1.000
    C128     C        0.04660    0.43207    0.74822    1.000
    O13      O        0.82040    0.29384    0.99784    1.000
    O14      O        0.76830    0.20196    0.00021    1.000
    O15      O        0.85852    0.45555    0.70354    1.000
    O16      O        0.80390    0.47215    0.79327    1.000
    O17      O        0.23620    0.39728    0.85211    1.000
    O18      O        0.38100    0.33253    0.92388    1.000
    H101     H        0.87170    0.91190    0.53660    1.000
    H102     H        0.01670    0.94240    0.57170    1.000
    H103     H        0.03290    0.87240    0.56370    1.000
    H104     H        0.06150    0.91040    0.75380    1.000
    H105     H        0.71350    0.89790    0.56000    1.000
    H106     H        0.17580    0.91450    0.58890    1.000
    H107     H        0.32420    0.94060    0.62980    1.000
    H108     H        0.85280    0.91520    0.60670    1.000
    H109     H        0.81200    0.72970    0.55700    1.000
    H110     H        0.56080    0.86450    0.53380    1.000
    H111     H        0.21010    0.93630    0.79350    1.000
    H112     H        0.65920    0.69630    0.52880    1.000
    C129     C        0.11490    0.91700    0.72833    1.000
    C130     C        0.99610    0.90280    0.58580    1.000
    C131     C        0.37860    0.95732    0.74144    1.000
    C132     C        0.10420    0.91141    0.66720    1.000
    C133     C        0.27060    0.93458    0.65523    1.000
    C134     C        0.70240    0.85675    0.55387    1.000
    C135     C        0.76090    0.75720    0.55190    1.000
    C136     C        0.77670    0.81660    0.56104    1.000
    C137     C        0.20340    0.93207    0.75178    1.000
    C138     C        0.88990    0.89470    0.57530    1.000
    C139     C        0.49600    0.75672    0.50866    1.000
    C140     C        0.28290    0.94114    0.71545    1.000
    C141     C        0.66990    0.73740    0.53510    1.000
    C142     C        0.59440    0.77745    0.52752    1.000
    C143     C        0.61200    0.83679    0.53781    1.000
    C144     C        0.18220    0.91936    0.63052    1.000
    O19      O        0.48170    0.70196    0.49979    1.000
    O20      O        0.86900    0.83253    0.57612    1.000
    O21      O        0.01380    0.89728    0.64789    1.000
    O22      O        0.39148    0.95555    0.79646    1.000
    O23      O        0.44610    0.97215    0.70673    1.000
    O24      O        0.42960    0.79384    0.50216    1.000
    H113     H        0.14720    0.60670    0.91520    1.000
    H114     H        0.78990    0.79350    0.93630    1.000
    H115     H        0.34080    0.52880    0.69630    1.000
    H116     H        0.67580    0.62980    0.94060    1.000
    H117     H        0.28650    0.56000    0.89790    1.000
    H118     H        0.96710    0.56370    0.87240    1.000
    H119     H        0.12830    0.53660    0.91190    1.000
    H120     H        0.98330    0.57170    0.94240    1.000
    H121     H        0.82420    0.58890    0.91450    1.000
    H122     H        0.93850    0.75380    0.91040    1.000
    H123     H        0.18800    0.55700    0.72970    1.000
    H124     H        0.43920    0.53380    0.86450    1.000
    C145     C        0.79660    0.75178    0.93207    1.000
    C146     C        0.81780    0.63052    0.91936    1.000
    C147     C        0.23910    0.55190    0.75720    1.000
    C148     C        0.62140    0.74144    0.95732    1.000
    C149     C        0.00390    0.58580    0.90280    1.000
    C150     C        0.72940    0.65523    0.93458    1.000
    C151     C        0.33010    0.53510    0.73740    1.000
    C152     C        0.50400    0.50866    0.75672    1.000
    C153     C        0.71710    0.71545    0.94114    1.000
    C154     C        0.11010    0.57530    0.89470    1.000
    C155     C        0.22330    0.56104    0.81660    1.000
    C156     C        0.38800    0.53781    0.83679    1.000
    C157     C        0.40560    0.52752    0.77745    1.000
    C158     C        0.29760    0.55387    0.85675    1.000
    C159     C        0.89580    0.66720    0.91141    1.000
    C160     C        0.88510    0.72833    0.91700    1.000
    O25      O        0.57040    0.50216    0.79384    1.000
    O26      O        0.60852    0.79646    0.95555    1.000
    O27      O        0.51830    0.49979    0.70196    1.000
    O28      O        0.98620    0.64789    0.89728    1.000
    O29      O        0.13100    0.57612    0.83253    1.000
    O30      O        0.55390    0.70673    0.97215    1.000
    H125     H        0.62170    0.96340    0.41190    1.000
    H126     H        0.31080    0.96620    0.36450    1.000
    H127     H        0.76670    0.92830    0.44240    1.000
    H128     H        0.81150    0.74620    0.41040    1.000
    H129     H        0.60280    0.89330    0.41520    1.000
    H130     H        0.96010    0.70650    0.43630    1.000
    H131     H        0.92580    0.91110    0.41450    1.000
    H132     H        0.78290    0.93630    0.37240    1.000
    H133     H        0.56200    0.94300    0.22970    1.000
    H134     H        0.46350    0.94000    0.39790    1.000
    H135     H        0.40920    0.97120    0.19630    1.000
    H136     H        0.07420    0.87020    0.44060    1.000
    C161     C        0.36200    0.96219    0.33679    1.000
    C162     C        0.63990    0.92470    0.39470    1.000
    C163     C        0.24600    0.99134    0.25672    1.000
    C164     C        0.74610    0.91420    0.40280    1.000
    C165     C        0.85420    0.83280    0.41141    1.000
    C166     C        0.86490    0.77167    0.41700    1.000
    C167     C        0.02060    0.84477    0.43458    1.000
    C168     C        0.41990    0.96490    0.23740    1.000
    C169     C        0.51090    0.94810    0.25720    1.000
    C170     C        0.34440    0.97248    0.27745    1.000
    C171     C        0.93220    0.86948    0.41936    1.000
    C172     C        0.03290    0.78455    0.44114    1.000
    C173     C        0.45240    0.94613    0.35675    1.000
    C174     C        0.95340    0.74822    0.43207    1.000
    C175     C        0.52670    0.93896    0.31660    1.000
    C176     C        0.12860    0.75856    0.45732    1.000
    O31      O        0.14148    0.70354    0.45555    1.000
    O32      O        0.76380    0.85211    0.39728    1.000
    O33      O        0.23170    0.00021    0.20196    1.000
    O34      O        0.17960    0.99784    0.29384    1.000
    O35      O        0.19610    0.79327    0.47215    1.000
    O36      O        0.61900    0.92388    0.33253    1.000
    H137     H        0.51670    0.05760    0.42830    1.000
    H138     H        0.15920    0.30370    0.47120    1.000
    H139     H        0.21350    0.10210    0.44000    1.000
    H140     H        0.37170    0.08810    0.46340    1.000
    H141     H        0.56150    0.08960    0.24620    1.000
    H142     H        0.67580    0.08550    0.41110    1.000
    H143     H        0.53290    0.12760    0.43630    1.000
    H144     H        0.31200    0.27030    0.44300    1.000
    H145     H        0.06080    0.13550    0.46620    1.000
    H146     H        0.35280    0.08480    0.39330    1.000
    H147     H        0.71010    0.06370    0.20650    1.000
    H148     H        0.82420    0.05940    0.37020    1.000
    C177     C        0.60420    0.08859    0.33280    1.000
    C178     C        0.61490    0.08300    0.27167    1.000
    C179     C        0.99600    0.24328    0.49134    1.000
    C180     C        0.09440    0.22255    0.47248    1.000
    C181     C        0.38990    0.10530    0.42470    1.000
    C182     C        0.11200    0.16321    0.46219    1.000
    C183     C        0.70340    0.06793    0.24822    1.000
    C184     C        0.20240    0.14325    0.44613    1.000
    C185     C        0.26090    0.24280    0.44810    1.000
    C186     C        0.27670    0.18340    0.43896    1.000
    C187     C        0.78290    0.05886    0.28455    1.000
    C188     C        0.49610    0.09720    0.41420    1.000
    C189     C        0.77060    0.06542    0.34477    1.000
    C190     C        0.68220    0.08064    0.36948    1.000
    C191     C        0.87860    0.04268    0.25856    1.000
    C192     C        0.16990    0.26260    0.46490    1.000
    O37      O        0.36900    0.16747    0.42388    1.000
    O38      O        0.51380    0.10272    0.35211    1.000
    O39      O        0.92960    0.20616    0.49784    1.000
    O40      O        0.94610    0.02785    0.29327    1.000
    O41      O        0.98170    0.29804    0.50021    1.000
    O42      O        0.89148    0.04445    0.20354    1.000
    H149     H        0.03650    0.60210    0.06000    1.000
    H150     H        0.57420    0.58550    0.08890    1.000
    H151     H        0.87830    0.58810    0.03660    1.000
    H152     H        0.93800    0.77030    0.05700    1.000
    H153     H        0.71710    0.62760    0.06370    1.000
    H154     H        0.73330    0.55760    0.07170    1.000
    H155     H        0.68850    0.58960    0.25380    1.000
    H156     H        0.18920    0.63550    0.03380    1.000
    H157     H        0.09080    0.80370    0.02880    1.000
    H158     H        0.53990    0.56370    0.29350    1.000
    H159     H        0.89720    0.58480    0.10670    1.000
    H160     H        0.42580    0.55940    0.12980    1.000
    C193     C        0.97330    0.68340    0.06104    1.000
    C194     C        0.25400    0.74328    0.00866    1.000
    C195     C        0.47940    0.56542    0.15523    1.000
    C196     C        0.75390    0.59720    0.08580    1.000
    C197     C        0.54660    0.56793    0.25178    1.000
    C198     C        0.13800    0.66321    0.03781    1.000
    C199     C        0.64580    0.58859    0.16720    1.000
    C200     C        0.08010    0.76260    0.03510    1.000
    C201     C        0.86010    0.60530    0.07530    1.000
    C202     C        0.04760    0.64325    0.05387    1.000
    C203     C        0.56780    0.58064    0.13052    1.000
    C204     C        0.37140    0.54268    0.24144    1.000
    C205     C        0.98910    0.74280    0.05190    1.000
    C206     C        0.15560    0.72255    0.02752    1.000
    C207     C        0.63510    0.58300    0.22833    1.000
    C208     C        0.46710    0.55886    0.21545    1.000
    O43      O        0.35852    0.54445    0.29646    1.000
    O44      O        0.73620    0.60272    0.14789    1.000
    O45      O        0.30390    0.52785    0.20673    1.000
    O46      O        0.26830    0.79804    0.99979    1.000
    O47      O        0.32040    0.70616    0.00216    1.000
    O48      O        0.88100    0.66747    0.07612    1.000
