data_functionalizedCrystal
_audit_creation_method	'EQeq! by Chris Wilmer'
_symmetry_space_group_name_H-M	'P1'
_symmetry_Int_Tables_number	1
_symmetry_cell_setting	triclinic
loop_
_symmetry_equiv_pos_as_xyz
  x,y,z
_cell_length_a	14.6533
_cell_length_b	17.0616
_cell_length_c	17.0616
_cell_angle_alpha	90
_cell_angle_beta	90
_cell_angle_gamma	90
loop_
_atom_site_label
_atom_site_type_symbol
_atom_site_fract_x
_atom_site_fract_y
_atom_site_fract_z
_atom_site_charge
Mof_V 	V 	0.87166	0.87875	0.88698	1.798
Mof_V 	V 	0.91123	0.81449	0.04745	1.801
Mof_V 	V 	0.08729	0.81155	0.9662	1.783
Mof_V 	V 	0.76963	0.9337	0.07055	1.783
Mof_V 	V 	0.87166	0.12125	0.11302	1.802
Mof_V 	V 	0.91123	0.18551	0.95255	1.776
Mof_V 	V 	0.08729	0.18845	0.0338	1.813
Mof_V 	V 	0.76963	0.0663	0.92945	1.783
Mof_V 	V 	0.12834	0.88698	0.12125	1.801
Mof_V 	V 	0.08877	0.04745	0.18551	1.81
Mof_V 	V 	0.91271	0.9662	0.18845	1.78
Mof_V 	V 	0.23037	0.07055	0.0663	1.809
Mof_V 	V 	0.12834	0.11302	0.87875	1.801
Mof_V 	V 	0.08877	0.95255	0.81449	1.781
Mof_V 	V 	0.91271	0.0338	0.81155	1.805
Mof_V 	V 	0.23037	0.92945	0.9337	1.763
Mof_V 	V 	0.37166	0.37875	0.61302	1.803
Mof_V 	V 	0.41123	0.31449	0.45255	1.793
Mof_V 	V 	0.58729	0.31155	0.5338	1.797
Mof_V 	V 	0.26963	0.4337	0.42945	1.793
Mof_V 	V 	0.37166	0.62125	0.38698	1.803
Mof_V 	V 	0.41123	0.68551	0.54745	1.793
Mof_V 	V 	0.58729	0.68845	0.4662	1.797
Mof_V 	V 	0.26963	0.5663	0.57055	1.793
Mof_V 	V 	0.62834	0.38698	0.37875	1.803
Mof_V 	V 	0.58877	0.54745	0.31449	1.793
Mof_V 	V 	0.41271	0.4662	0.31155	1.797
Mof_V 	V 	0.73037	0.57055	0.4337	1.793
Mof_V 	V 	0.62834	0.61302	0.62125	1.803
Mof_V 	V 	0.58877	0.45255	0.68551	1.793
Mof_V 	V 	0.41271	0.5338	0.68845	1.797
Mof_V 	V 	0.73037	0.42945	0.5663	1.793
Mof_Ni	Ni	0.75	0.74637	0.75363	1.105
Mof_Ni	Ni	0.75	0.25363	0.24637	1.106
Mof_Ni	Ni	0.25	0.75363	0.25363	1.105
Mof_Ni	Ni	0.25	0.24637	0.74637	1.106
Mof_H 	H 	0.943	0.8187	0.7216	-0.026
Mof_H 	H 	0.0478	0.8289	0.6224	0.118
Mof_H 	H 	0.9442	0.7152	0.82	-0.025
Mof_H 	H 	0.7541	0.5683	0.7591	-0.02
Mof_H 	H 	0.8541	0.4656	0.7678	0.09
Mof_H 	H 	0.0519	0.6184	0.8188	0.113
Mof_H 	H 	0.7568	0.7486	0.5766	-0.024
Mof_H 	H 	0.8559	0.7505	0.4737	0.096
Mof_H 	H 	0.943	0.1813	0.2784	-0.027
Mof_H 	H 	0.0478	0.1711	0.3776	0.129
Mof_H 	H 	0.9442	0.2848	0.18	-0.027
Mof_H 	H 	0.7541	0.4317	0.2409	-0.019
Mof_H 	H 	0.8541	0.5344	0.2322	0.093
Mof_H 	H 	0.0519	0.3816	0.1812	0.123
Mof_H 	H 	0.7568	0.2514	0.4234	-0.024
Mof_H 	H 	0.8559	0.2495	0.5263	0.099
Mof_H 	H 	0.057	0.7216	0.1813	-0.01
Mof_H 	H 	0.9522	0.6224	0.1711	0.085
Mof_H 	H 	0.0558	0.82	0.2848	-0.011
Mof_H 	H 	0.2459	0.7591	0.4317	-0.018
Mof_H 	H 	0.1459	0.7678	0.5344	0.089
Mof_H 	H 	0.9481	0.8188	0.3816	0.075
Mof_H 	H 	0.2432	0.5766	0.2514	-0.021
Mof_H 	H 	0.1441	0.4737	0.2495	0.098
Mof_H 	H 	0.057	0.2784	0.8187	-0.012
Mof_H 	H 	0.9522	0.3776	0.8289	0.081
Mof_H 	H 	0.0558	0.18	0.7152	-0.009
Mof_H 	H 	0.2459	0.2409	0.5683	-0.016
Mof_H 	H 	0.1459	0.2322	0.4656	0.092
Mof_H 	H 	0.9481	0.1812	0.6184	0.079
Mof_H 	H 	0.2432	0.4234	0.7486	-0.022
Mof_H 	H 	0.1441	0.5263	0.7505	0.096
Mof_H 	H 	0.443	0.3187	0.7784	-0.023
Mof_H 	H 	0.5478	0.3289	0.8776	0.105
Mof_H 	H 	0.4442	0.2152	0.68	-0.014
Mof_H 	H 	0.2541	0.0683	0.7409	0.011
Mof_H 	H 	0.3541	0.9656	0.7322	0.018
Mof_H 	H 	0.5519	0.1184	0.6812	0.097
Mof_H 	H 	0.2568	0.2486	0.9234	-0.055
Mof_H 	H 	0.3559	0.2505	0.0263	0.177
Mof_H 	H 	0.443	0.6813	0.2216	-0.015
Mof_H 	H 	0.5478	0.6711	0.1224	0.102
Mof_H 	H 	0.4442	0.7848	0.32	-0.022
Mof_H 	H 	0.2541	0.9317	0.2591	-0.049
Mof_H 	H 	0.3541	0.0344	0.2678	0.169
Mof_H 	H 	0.5519	0.8816	0.3188	0.098
Mof_H 	H 	0.2568	0.7514	0.0766	0.006
Mof_H 	H 	0.3559	0.7495	0.9737	0.023
Mof_H 	H 	0.557	0.2216	0.3187	-0.015
Mof_H 	H 	0.4522	0.1224	0.3289	0.103
Mof_H 	H 	0.5558	0.32	0.2152	-0.014
Mof_H 	H 	0.7459	0.2591	0.0683	0.012
Mof_H 	H 	0.6459	0.2678	0.9656	0.014
Mof_H 	H 	0.4481	0.3188	0.1184	0.098
Mof_H 	H 	0.7432	0.0766	0.2486	0.008
Mof_H 	H 	0.6441	0.9737	0.2505	0.019
Mof_H 	H 	0.557	0.7784	0.6813	-0.023
Mof_H 	H 	0.4522	0.8776	0.6711	0.104
Mof_H 	H 	0.5558	0.68	0.7848	-0.022
Mof_H 	H 	0.7459	0.7409	0.9317	-0.046
Mof_H 	H 	0.6459	0.7322	0.0344	0.161
Mof_H 	H 	0.4481	0.6812	0.8816	0.097
Mof_H 	H 	0.7432	0.9234	0.7514	-0.051
Mof_H 	H 	0.6441	0.0263	0.7495	0.168
Mof_C 	C 	0.9256	0.8045	0.6712	0.109
Mof_C 	C 	0.9891	0.811	0.612	-0.182
Mof_C 	C 	0.9631	0.7899	0.5354	0.081
Mof_C 	C 	0.9268	0.6649	0.8053	0.109
Mof_C 	C 	0.8148	0.5784	0.7712	0.088
Mof_C 	C 	0.8748	0.5166	0.7754	-0.144
Mof_C 	C 	0.0325	0.7912	0.4696	0.065
Mof_C 	C 	0.9916	0.6063	0.8069	-0.177
Mof_C 	C 	0.8171	0.7626	0.5863	0.102
Mof_C 	C 	0.8756	0.7652	0.5234	-0.159
Mof_C 	C 	0.9256	0.1955	0.3288	0.12
Mof_C 	C 	0.9891	0.189	0.388	-0.188
Mof_C 	C 	0.9631	0.2101	0.4646	0.088
Mof_C 	C 	0.9268	0.3351	0.1947	0.119
Mof_C 	C 	0.8148	0.4216	0.2288	0.094
Mof_C 	C 	0.8748	0.4834	0.2246	-0.143
Mof_C 	C 	0.0325	0.2088	0.5304	0.07
Mof_C 	C 	0.9916	0.3937	0.1931	-0.183
Mof_C 	C 	0.8171	0.2374	0.4137	0.108
Mof_C 	C 	0.8756	0.2348	0.4766	-0.16
Mof_C 	C 	0.0744	0.6712	0.1955	0.087
Mof_C 	C 	0.0109	0.612	0.189	-0.114
Mof_C 	C 	0.0369	0.5354	0.2101	0.08
Mof_C 	C 	0.0732	0.8053	0.3351	0.081
Mof_C 	C 	0.1852	0.7712	0.4216	0.083
Mof_C 	C 	0.1252	0.7754	0.4834	-0.135
Mof_C 	C 	0.9675	0.4696	0.2088	0.078
Mof_C 	C 	0.0084	0.8069	0.3937	-0.114
Mof_C 	C 	0.1829	0.5863	0.2374	0.102
Mof_C 	C 	0.1244	0.5234	0.2348	-0.148
Mof_C 	C 	0.0744	0.3288	0.8045	0.081
Mof_C 	C 	0.0109	0.388	0.811	-0.12
Mof_C 	C 	0.0369	0.4646	0.7899	0.075
Mof_C 	C 	0.0732	0.1947	0.6649	0.086
Mof_C 	C 	0.1852	0.2288	0.5784	0.088
Mof_C 	C 	0.1252	0.2246	0.5166	-0.132
Mof_C 	C 	0.9675	0.5304	0.7912	0.071
Mof_C 	C 	0.0084	0.1931	0.6063	-0.109
Mof_C 	C 	0.1829	0.4137	0.7626	0.097
Mof_C 	C 	0.1244	0.4766	0.7652	-0.15
Mof_C 	C 	0.4256	0.3045	0.8288	0.11
Mof_C 	C 	0.4891	0.311	0.888	-0.172
Mof_C 	C 	0.4631	0.2899	0.9646	0.098
Mof_C 	C 	0.4268	0.1649	0.6947	0.089
Mof_C 	C 	0.3148	0.0784	0.7288	0.034
Mof_C 	C 	0.3748	0.0166	0.7246	-0.02
Mof_C 	C 	0.5325	0.2912	0.0304	0.059
Mof_C 	C 	0.4916	0.1063	0.6931	-0.129
Mof_C 	C 	0.3171	0.2626	0.9137	0.163
Mof_C 	C 	0.3756	0.2652	0.9766	-0.288
Mof_C 	C 	0.4256	0.6955	0.1712	0.088
Mof_C 	C 	0.4891	0.689	0.112	-0.132
Mof_C 	C 	0.4631	0.7101	0.0354	0.066
Mof_C 	C 	0.4268	0.8351	0.3053	0.109
Mof_C 	C 	0.3148	0.9216	0.2712	0.146
Mof_C 	C 	0.3748	0.9834	0.2754	-0.268
Mof_C 	C 	0.5325	0.7088	0.9696	0.08
Mof_C 	C 	0.4916	0.8937	0.3069	-0.164
Mof_C 	C 	0.3171	0.7374	0.0863	0.045
Mof_C 	C 	0.3756	0.7348	0.0234	-0.032
Mof_C 	C 	0.5744	0.1712	0.3045	0.089
Mof_C 	C 	0.5109	0.112	0.311	-0.13
Mof_C 	C 	0.5369	0.0354	0.2899	0.066
Mof_C 	C 	0.5732	0.3053	0.1649	0.09
Mof_C 	C 	0.6852	0.2712	0.0784	0.033
Mof_C 	C 	0.6252	0.2754	0.0166	-0.011
Mof_C 	C 	0.4675	0.9696	0.2912	0.084
Mof_C 	C 	0.5084	0.3069	0.1063	-0.127
Mof_C 	C 	0.6829	0.0863	0.2626	0.044
Mof_C 	C 	0.6244	0.0234	0.2652	-0.022
Mof_C 	C 	0.5744	0.8288	0.6955	0.107
Mof_C 	C 	0.5109	0.888	0.689	-0.17
Mof_C 	C 	0.5369	0.9646	0.7101	0.093
Mof_C 	C 	0.5732	0.6947	0.8351	0.106
Mof_C 	C 	0.6852	0.7288	0.9216	0.138
Mof_C 	C 	0.6252	0.7246	0.9834	-0.257
Mof_C 	C 	0.4675	0.0304	0.7088	0.058
Mof_C 	C 	0.5084	0.6931	0.8937	-0.163
Mof_C 	C 	0.6829	0.9137	0.7374	0.154
Mof_C 	C 	0.6244	0.9766	0.7348	-0.276
Mof_N 	N 	0.8409	0.6529	0.784	-0.23
Mof_N 	N 	0.84	0.7787	0.66	-0.233
Mof_N 	N 	0.8409	0.3471	0.216	-0.23
Mof_N 	N 	0.84	0.2213	0.34	-0.233
Mof_N 	N 	0.1591	0.784	0.3471	-0.223
Mof_N 	N 	0.16	0.66	0.2213	-0.226
Mof_N 	N 	0.1591	0.216	0.6529	-0.222
Mof_N 	N 	0.16	0.34	0.7787	-0.227
Mof_N 	N 	0.3409	0.1529	0.716	-0.214
Mof_N 	N 	0.34	0.2787	0.84	-0.244
Mof_N 	N 	0.3409	0.8471	0.284	-0.239
Mof_N 	N 	0.34	0.7213	0.16	-0.217
Mof_N 	N 	0.6591	0.284	0.1529	-0.213
Mof_N 	N 	0.66	0.16	0.2787	-0.216
Mof_N 	N 	0.6591	0.716	0.8471	-0.238
Mof_N 	N 	0.66	0.84	0.7213	-0.243
Mof_O 	O 	0.8184	0.8176	0.829	-0.692
Mof_O 	O 	0.9623	0.815	0.9409	-0.939
Mof_O 	O 	0.8172	0.8702	0.9909	-0.987
Mof_O 	O 	0.8758	0.7284	0.0675	-0.552
Mof_O 	O 	0.8776	0.8786	0.1316	-0.915
Mof_O 	O 	0.9628	0.9282	0.8221	-0.945
Mof_O 	O 	0.1232	0.7234	0.9565	-0.577
Mof_O 	O 	0.8179	0.9811	0.8702	-0.973
Mof_O 	O 	0.6829	0.8941	0.1136	-0.553
Mof_O 	O 	0.8184	0.1824	0.171	-0.688
Mof_O 	O 	0.9623	0.185	0.0591	-0.904
Mof_O 	O 	0.8172	0.1298	0.0091	-0.914
Mof_O 	O 	0.8758	0.2716	0.9325	-0.589
Mof_O 	O 	0.8776	0.1214	0.8684	-0.915
Mof_O 	O 	0.9628	0.0718	0.1779	-0.91
Mof_O 	O 	0.1232	0.2766	0.0435	-0.533
Mof_O 	O 	0.8179	0.0189	0.1298	-0.901
Mof_O 	O 	0.6829	0.1059	0.8864	-0.555
Mof_O 	O 	0.1816	0.829	0.1824	-0.69
Mof_O 	O 	0.0377	0.9409	0.185	-0.926
Mof_O 	O 	0.1828	0.9909	0.1298	-0.979
Mof_O 	O 	0.1242	0.0675	0.2716	-0.544
Mof_O 	O 	0.1224	0.1316	0.1214	-0.893
Mof_O 	O 	0.0372	0.8221	0.0718	-0.901
Mof_O 	O 	0.8768	0.9565	0.2766	-0.584
Mof_O 	O 	0.1821	0.8702	0.0189	-0.914
Mof_O 	O 	0.3171	0.1136	0.1059	-0.53
Mof_O 	O 	0.1816	0.171	0.8176	-0.69
Mof_O 	O 	0.0377	0.0591	0.815	-0.894
Mof_O 	O 	0.1828	0.0091	0.8702	-0.927
Mof_O 	O 	0.1242	0.9325	0.7284	-0.583
Mof_O 	O 	0.1224	0.8684	0.8786	-0.92
Mof_O 	O 	0.0372	0.1779	0.9282	-0.932
Mof_O 	O 	0.8768	0.0435	0.7234	-0.541
Mof_O 	O 	0.1821	0.1298	0.9811	-0.966
Mof_O 	O 	0.3171	0.8864	0.8941	-0.573
Mof_O 	O 	0.3184	0.3176	0.671	-0.689
Mof_O 	O 	0.4623	0.315	0.5591	-0.913
Mof_O 	O 	0.3172	0.3702	0.5091	-0.944
Mof_O 	O 	0.3758	0.2284	0.4325	-0.563
Mof_O 	O 	0.3776	0.3786	0.3684	-0.908
Mof_O 	O 	0.4628	0.4282	0.6779	-0.92
Mof_O 	O 	0.6232	0.2234	0.5435	-0.554
Mof_O 	O 	0.3179	0.4811	0.6298	-0.932
Mof_O 	O 	0.1829	0.3941	0.3864	-0.544
Mof_O 	O 	0.3184	0.6824	0.329	-0.689
Mof_O 	O 	0.4623	0.685	0.4409	-0.914
Mof_O 	O 	0.3172	0.6298	0.4909	-0.945
Mof_O 	O 	0.3758	0.7716	0.5675	-0.571
Mof_O 	O 	0.3776	0.6214	0.6316	-0.909
Mof_O 	O 	0.4628	0.5718	0.3221	-0.919
Mof_O 	O 	0.6232	0.7766	0.4565	-0.564
Mof_O 	O 	0.3179	0.5189	0.3702	-0.931
Mof_O 	O 	0.1829	0.6059	0.6136	-0.545
Mof_O 	O 	0.6816	0.329	0.3176	-0.689
Mof_O 	O 	0.5377	0.4409	0.315	-0.913
Mof_O 	O 	0.6828	0.4909	0.3702	-0.945
Mof_O 	O 	0.6242	0.5675	0.2284	-0.563
Mof_O 	O 	0.6224	0.6316	0.3786	-0.909
Mof_O 	O 	0.5372	0.3221	0.4282	-0.919
Mof_O 	O 	0.3768	0.4565	0.2234	-0.554
Mof_O 	O 	0.6821	0.3702	0.4811	-0.932
Mof_O 	O 	0.8171	0.6136	0.3941	-0.55
Mof_O 	O 	0.6816	0.671	0.6824	-0.69
Mof_O 	O 	0.5377	0.5591	0.685	-0.914
Mof_O 	O 	0.6828	0.5091	0.6298	-0.945
Mof_O 	O 	0.6242	0.4325	0.7716	-0.571
Mof_O 	O 	0.6224	0.3684	0.6214	-0.908
Mof_O 	O 	0.5372	0.6779	0.5718	-0.92
Mof_O 	O 	0.3768	0.5435	0.7766	-0.564
Mof_O 	O 	0.6821	0.6298	0.5189	-0.932
Mof_O 	O 	0.8171	0.3864	0.6059	-0.55
Mof_O 	O 	0.7165	0	-0	-0.676
Mof_O 	O 	0.2835	0	-0	-0.675
Mof_O 	O 	0.2165	0.5	0.5	-0.735
Mof_O 	O 	0.7835	0.5	0.5	-0.738
Mof_F 	F 	-0	0	-0	-0.728
Mof_F 	F 	0.5	0.5	0.5	-0.782
_end
