data_functionalizedCrystal
_audit_creation_method	'EQeq! by Chris Wilmer'
_symmetry_space_group_name_H-M	'P1'
_symmetry_Int_Tables_number	1
_symmetry_cell_setting	triclinic
loop_
_symmetry_equiv_pos_as_xyz
  x,y,z
_cell_length_a	18.0784
_cell_length_b	18.7538
_cell_length_c	25.8011
_cell_angle_alpha	90
_cell_angle_beta	108.992
_cell_angle_gamma	90
loop_
_atom_site_label
_atom_site_type_symbol
_atom_site_fract_x
_atom_site_fract_y
_atom_site_fract_z
_atom_site_charge
Mof_C 	C 	0.55813	0.87744	0.55292	0.4
Mof_C 	C 	0.60722	0.92909	0.53388	-0.103
Mof_C 	C 	0.5976	0.99951	0.54308	-0.017
Mof_H 	H 	0.5671	0.0123	0.5645	0.055
Mof_C 	C 	0.6323	0.05258	0.52129	0.003
Mof_H 	H 	0.6223	0.1003	0.5264	0.028
Mof_C 	C 	0.68131	0.03492	0.49209	-0.119
Mof_C 	C 	0.69644	0.96235	0.48381	0.054
Mof_C 	C 	0.65794	0.90787	0.50397	0.045
Mof_C 	C 	0.6719	0.8361	0.49305	-0.081
Mof_H 	H 	0.648	0.7998	0.5064	0.071
Mof_C 	C 	0.7194	0.8189	0.46351	-0.03
Mof_H 	H 	0.727	0.7713	0.4566	0.042
Mof_C 	C 	0.757	0.8725	0.44335	-0.023
Mof_H 	H 	0.7891	0.8602	0.423	0.044
Mof_C 	C 	0.7467	0.9421	0.45359	-0.088
Mof_H 	H 	0.7727	0.9771	0.4407	0.075
Mof_C 	C 	0.55881	0.6188	0.55772	0.404
Mof_C 	C 	0.6055	0.56396	0.53942	-0.111
Mof_C 	C 	0.6757	0.5339	0.57426	0.049
Mof_C 	C 	0.7112	0.5553	0.6296	-0.085
Mof_H 	H 	0.6873	0.5902	0.6443	0.074
Mof_C 	C 	0.7787	0.5259	0.6611	-0.023
Mof_H 	H 	0.8007	0.5408	0.6973	0.039
Mof_C 	C 	0.8164	0.4732	0.64044	-0.025
Mof_H 	H 	0.8628	0.4532	0.663	0.045
Mof_C 	C 	0.7856	0.4514	0.58785	-0.086
Mof_H 	H 	0.8111	0.4165	0.5745	0.077
Mof_C 	C 	0.7148	0.48109	0.55261	0.052
Mof_C 	C 	0.6795	0.45862	0.49715	-0.124
Mof_C 	C 	0.6116	0.4888	0.46592	-0.007
Mof_H 	H 	0.5885	0.4731	0.4301	0.039
Mof_C 	C 	0.5756	0.5422	0.486	-0.011
Mof_H 	H 	0.5305	0.5637	0.4629	0.05
Mof_C 	C 	0.30723	0.74912	0.45136	0.426
Mof_C 	C 	0.25727	0.74977	0.39175	-0.123
Mof_C 	C 	0.17845	0.7504	0.38155	-0.002
Mof_H 	H 	0.1593	0.7513	0.4109	0.037
Mof_C 	C 	0.1253	0.7498	0.32802	-0.01
Mof_H 	H 	0.0718	0.7508	0.3224	0.033
Mof_C 	C 	0.15177	0.7476	0.28391	-0.11
Mof_C 	C 	0.23341	0.7489	0.29258	0.039
Mof_C 	C 	0.28755	0.7503	0.34646	0.066
Mof_C 	C 	0.3686	0.7517	0.3516	-0.105
Mof_H 	H 	0.4058	0.7522	0.3864	0.089
Mof_C 	C 	0.3926	0.7523	0.30674	-0.002
Mof_H 	H 	0.4458	0.7537	0.3114	0.006
Mof_C 	C 	0.339	0.7507	0.25419	-0.048
Mof_H 	H 	0.3565	0.7504	0.224	0.024
Mof_C 	C 	0.2609	0.7497	0.24661	-0.063
Mof_H 	H 	0.2252	0.7495	0.2113	0.052
Mof_C 	C 	0.10583	0.10532	0.80743	0.394
Mof_C 	C 	0.7109	0.09578	0.46609	0.407
Mof_C 	C 	0.09295	0.7475	0.22704	0.432
Mof_C 	C 	0.54483	0.7548	0.00687	0.391
Mof_C 	C 	0.3323	0.11248	0.82904	0.396
Mof_C 	C 	0.39137	0.88849	0.6923	0.401
Mof_C 	C 	0.37358	0.94349	0.72925	-0.111
Mof_C 	C 	0.3264	0.00014	0.70676	-0.013
Mof_H 	H 	0.3015	0.0021	0.6691	0.04
Mof_C 	C 	0.31527	0.05517	0.74006	-0.01
Mof_H 	H 	0.2822	0.0929	0.7242	0.029
Mof_C 	C 	0.35225	0.05456	0.79571	-0.149
Mof_C 	C 	0.40364	0.99694	0.82073	0.054
Mof_C 	C 	0.41306	0.94033	0.78685	0.041
Mof_C 	C 	0.4639	0.88337	0.81078	-0.075
Mof_H 	H 	0.4692	0.8456	0.7889	0.064
Mof_C 	C 	0.5048	0.8828	0.86487	-0.024
Mof_H 	H 	0.5381	0.8449	0.8799	0.041
Mof_C 	C 	0.4973	0.9391	0.8985	-0.023
Mof_H 	H 	0.5263	0.9386	0.9356	0.046
Mof_C 	C 	0.4482	0.9943	0.87755	-0.086
Mof_H 	H 	0.4436	0.031	0.9006	0.066
Mof_C 	C 	0.28701	0.74925	0.80344	0.417
Mof_C 	C 	0.34625	0.75122	0.86006	-0.115
Mof_C 	C 	0.4052	0.7025	0.8713	-0.005
Mof_H 	H 	0.4049	0.6684	0.845	0.044
Mof_C 	C 	0.4656	0.7023	0.92089	-0.015
Mof_H 	H 	0.5034	0.6666	0.9281	0.047
Mof_C 	C 	0.47068	0.75411	0.95961	-0.113
Mof_C 	C 	0.40946	0.80602	0.95047	0.047
Mof_C 	C 	0.34526	0.80268	0.90079	0.047
Mof_C 	C 	0.2835	0.8526	0.89227	-0.079
Mof_H 	H 	0.2406	0.8506	0.8604	0.058
Mof_C 	C 	0.2866	0.9037	0.93073	-0.024
Mof_H 	H 	0.2461	0.9365	0.9246	0.045
Mof_C 	C 	0.3502	0.907	0.97916	-0.027
Mof_H 	H 	0.3516	0.9422	0.0049	0.047
Mof_C 	C 	0.4097	0.8596	0.98904	-0.082
Mof_H 	H 	0.4513	0.8624	0.0217	0.064
Mof_C 	C 	0.1643	0.88301	0.67035	0.392
Mof_C 	C 	0.14295	0.93882	0.70395	-0.153
Mof_C 	C 	0.18907	0.94469	0.75762	-0.013
Mof_H 	H 	0.2284	0.9113	0.7721	0.034
Mof_C 	C 	0.1786	0.99954	0.79127	-0.004
Mof_H 	H 	0.212	0.0034	0.8272	0.039
Mof_C 	C 	0.1189	0.04768	0.77098	-0.118
Mof_C 	C 	0.0666	0.04069	0.71658	0.048
Mof_C 	C 	0.0796	0.98704	0.68171	0.049
Mof_C 	C 	0.0269	0.9816	0.62738	-0.087
Mof_H 	H 	0.036	0.9479	0.6037	0.065
Mof_C 	C 	0.9629	0.0252	0.60932	-0.035
Mof_H 	H 	0.9284	0.0203	0.5738	0.05
Mof_C 	C 	0.9491	0.0774	0.64418	-0.008
Mof_H 	H 	0.9051	0.1064	0.6319	0.039
Mof_C 	C 	0.0002	0.0855	0.69616	-0.106
Mof_H 	H 	0.9913	0.1211	0.7185	0.083
Mof_C 	C 	0.712	0.40219	0.46996	0.396
Mof_O 	O 	0.54408	0.89174	0.59594	-0.486
Mof_O 	O 	0.53124	0.82501	0.52231	-0.499
Mof_O 	O 	0.5275	0.66583	0.52358	-0.507
Mof_O 	O 	0.55182	0.61233	0.60419	-0.492
Mof_O 	O 	0.0661	0.80597	0.20897	-0.499
Mof_O 	O 	0.07491	0.6905	0.20341	-0.493
Mof_O 	O 	0.44218	0.75028	0.59838	-0.939
Mof_O 	O 	0.05418	0.08814	0.82924	-0.458
Mof_O 	O 	0.14071	0.16295	0.81486	-0.502
Mof_O 	O 	0.38022	0.75019	0.46214	-0.512
Mof_O 	O 	0.27404	0.74912	0.48654	-0.509
Mof_O 	O 	0.66354	0.36142	0.43791	-0.544
Mof_O 	O 	0.7849	0.39958	0.47839	-0.476
Mof_O 	O 	0.66119	0.1391	0.43938	-0.546
Mof_O 	O 	0.7835	0.09935	0.47338	-0.477
Mof_O 	O 	0.24143	0.74847	0.6017	-0.922
Mof_O 	O 	0.57594	0.6954	0.02302	-0.511
Mof_O 	O 	0.57394	0.81405	0.02575	-0.506
Mof_O 	O 	0.32789	0.09506	0.87501	-0.492
Mof_O 	O 	0.31805	0.17473	0.80943	-0.6
Mof_O 	O 	0.18499	0.82198	0.69121	-0.605
Mof_O 	O 	0.16389	0.90016	0.62318	-0.489
Mof_O 	O 	0.31546	0.74789	0.76542	-0.465
Mof_O 	O 	0.21566	0.74787	0.79889	-0.505
Mof_O 	O 	0.3594	0.82934	0.68341	-0.516
Mof_O 	O 	0.4433	0.90865	0.67254	-0.463
Mof_Zn	Zn	0.48641	0.66614	0.63899	1.221
Mof_Zn	Zn	0.46504	0.74661	0.53021	1.215
Mof_Zn	Zn	0.48563	0.83723	0.63584	1.221
Mof_Zn	Zn	0.32723	0.75005	0.57159	1.197
Mof_Zn	Zn	0.18215	0.66381	0.57089	1.213
Mof_Zn	Zn	0.18019	0.83186	0.57082	1.213
Mof_Zn	Zn	0.27644	0.74759	0.68387	1.226
Mof_Zn	Zn	0.1239	0.75058	0.72922	1.152
Mof_C 	C 	0.94187	0.37744	0.94708	0.401
Mof_C 	C 	0.89278	0.42909	0.96612	-0.11
Mof_C 	C 	0.9024	0.49951	0.95692	-0.013
Mof_H 	H 	0.9329	0.5123	0.9355	0.054
Mof_C 	C 	0.8677	0.55258	0.97871	0.005
Mof_H 	H 	0.8777	0.6003	0.9736	0.028
Mof_C 	C 	0.81869	0.53492	0.00791	-0.121
Mof_C 	C 	0.80356	0.46235	0.01619	0.044
Mof_C 	C 	0.84206	0.40787	0.99603	0.063
Mof_C 	C 	0.8281	0.3361	0.00695	-0.108
Mof_H 	H 	0.852	0.2998	0.9936	0.082
Mof_C 	C 	0.7806	0.3189	0.03649	-0.011
Mof_H 	H 	0.773	0.2713	0.0434	0.035
Mof_C 	C 	0.743	0.3725	0.05665	-0.038
Mof_H 	H 	0.7109	0.3602	0.077	0.049
Mof_C 	C 	0.7533	0.4421	0.04641	-0.077
Mof_H 	H 	0.7273	0.4771	0.0593	0.072
Mof_C 	C 	0.94119	0.1188	0.94228	0.402
Mof_C 	C 	0.8945	0.06396	0.96058	-0.105
Mof_C 	C 	0.8243	0.0339	0.92574	0.046
Mof_C 	C 	0.7888	0.0553	0.8704	-0.081
Mof_H 	H 	0.8127	0.0902	0.8557	0.072
Mof_C 	C 	0.7213	0.0259	0.8389	-0.026
Mof_H 	H 	0.6993	0.0408	0.8027	0.04
Mof_C 	C 	0.6836	0.9732	0.85956	-0.021
Mof_H 	H 	0.6372	0.9532	0.837	0.043
Mof_C 	C 	0.7144	0.9514	0.91215	-0.09
Mof_H 	H 	0.6889	0.9165	0.9255	0.079
Mof_C 	C 	0.7852	0.98109	0.94739	0.06
Mof_C 	C 	0.8205	0.95862	0.00285	-0.131
Mof_C 	C 	0.8884	0.9888	0.03408	-0.008
Mof_H 	H 	0.9115	0.9731	0.0699	0.037
Mof_C 	C 	0.9244	0.0422	0.014	-0.014
Mof_H 	H 	0.9695	0.0637	0.0371	0.05
Mof_C 	C 	0.19277	0.24912	0.04864	0.425
Mof_C 	C 	0.24273	0.24977	0.10825	-0.122
Mof_C 	C 	0.32155	0.2504	0.11845	-0.003
Mof_H 	H 	0.3407	0.2513	0.0891	0.037
Mof_C 	C 	0.3747	0.2498	0.17198	-0.009
Mof_H 	H 	0.4282	0.2508	0.1776	0.032
Mof_C 	C 	0.34823	0.2476	0.21609	-0.111
Mof_C 	C 	0.26659	0.2489	0.20742	0.04
Mof_C 	C 	0.21245	0.2503	0.15354	0.065
Mof_C 	C 	0.1314	0.2517	0.1484	-0.104
Mof_H 	H 	0.0942	0.2522	0.1136	0.089
Mof_C 	C 	0.1074	0.2523	0.19326	-0.002
Mof_H 	H 	0.0542	0.2537	0.1886	0.007
Mof_C 	C 	0.161	0.2507	0.24581	-0.048
Mof_H 	H 	0.1435	0.2504	0.276	0.024
Mof_C 	C 	0.2391	0.2497	0.25339	-0.063
Mof_H 	H 	0.2748	0.2495	0.2887	0.052
Mof_C 	C 	0.39417	0.60532	0.69257	0.389
Mof_C 	C 	0.7891	0.59578	0.03391	0.407
Mof_C 	C 	0.40705	0.2475	0.27296	0.433
Mof_C 	C 	0.95517	0.2548	0.49313	0.393
Mof_C 	C 	0.1677	0.61248	0.67096	0.394
Mof_C 	C 	0.10863	0.38849	0.8077	0.403
Mof_C 	C 	0.12642	0.44349	0.77075	-0.119
Mof_C 	C 	0.1736	0.50014	0.79324	-0.004
Mof_H 	H 	0.1985	0.5021	0.8309	0.037
Mof_C 	C 	0.18473	0.55517	0.75994	-0.017
Mof_H 	H 	0.2178	0.5929	0.7758	0.032
Mof_C 	C 	0.14775	0.55456	0.70429	-0.142
Mof_C 	C 	0.09636	0.49694	0.67927	0.045
Mof_C 	C 	0.08694	0.44033	0.71315	0.05
Mof_C 	C 	0.0361	0.38337	0.68922	-0.09
Mof_H 	H 	0.0308	0.3456	0.7111	0.068
Mof_C 	C 	0.9952	0.3828	0.63513	-0.004
Mof_H 	H 	0.9619	0.3449	0.6201	0.035
Mof_C 	C 	0.0027	0.4391	0.6015	-0.04
Mof_H 	H 	0.9737	0.4386	0.5644	0.052
Mof_C 	C 	0.0518	0.4943	0.62245	-0.076
Mof_H 	H 	0.0564	0.531	0.5994	0.064
Mof_C 	C 	0.21299	0.24925	0.69656	0.417
Mof_C 	C 	0.15375	0.25122	0.63994	-0.116
Mof_C 	C 	0.0948	0.2025	0.6287	-0.002
Mof_H 	H 	0.0951	0.1684	0.655	0.042
Mof_C 	C 	0.0344	0.2023	0.57911	-0.021
Mof_H 	H 	0.9966	0.1666	0.5719	0.051
Mof_C 	C 	0.02932	0.25411	0.54039	-0.114
Mof_C 	C 	0.09054	0.30602	0.54953	0.048
Mof_C 	C 	0.15474	0.30268	0.59921	0.047
Mof_C 	C 	0.2165	0.3526	0.60773	-0.078
Mof_H 	H 	0.2594	0.3506	0.6396	0.058
Mof_C 	C 	0.2134	0.4037	0.56927	-0.026
Mof_H 	H 	0.2539	0.4365	0.5754	0.044
Mof_C 	C 	0.1498	0.407	0.52084	-0.024
Mof_H 	H 	0.1484	0.4422	0.4951	0.045
Mof_C 	C 	0.0903	0.3596	0.51096	-0.084
Mof_H 	H 	0.0487	0.3624	0.4783	0.064
Mof_C 	C 	0.3357	0.38301	0.82965	0.395
Mof_C 	C 	0.35705	0.43882	0.79605	-0.16
Mof_C 	C 	0.31093	0.44469	0.74238	-0.001
Mof_H 	H 	0.2716	0.4113	0.7279	0.029
Mof_C 	C 	0.3214	0.49954	0.70873	-0.024
Mof_H 	H 	0.288	0.5034	0.6728	0.048
Mof_C 	C 	0.3811	0.54768	0.72902	-0.104
Mof_C 	C 	0.4334	0.54069	0.78342	0.035
Mof_C 	C 	0.4204	0.48704	0.81829	0.057
Mof_C 	C 	0.4731	0.4816	0.87262	-0.099
Mof_H 	H 	0.464	0.4479	0.8963	0.069
Mof_C 	C 	0.5371	0.5252	0.89068	-0.02
Mof_H 	H 	0.5716	0.5203	0.9262	0.045
Mof_C 	C 	0.5509	0.5774	0.85582	-0.034
Mof_H 	H 	0.5949	0.6064	0.8681	0.047
Mof_C 	C 	0.4998	0.5855	0.80384	-0.075
Mof_H 	H 	0.5087	0.6211	0.7815	0.069
Mof_C 	C 	0.788	0.90219	0.03004	0.398
Mof_O 	O 	0.95592	0.39174	0.90406	-0.484
Mof_O 	O 	0.96876	0.32501	0.97769	-0.497
Mof_O 	O 	0.9725	0.16583	0.97642	-0.503
Mof_O 	O 	0.94818	0.11233	0.89581	-0.488
Mof_O 	O 	0.4339	0.30597	0.29103	-0.502
Mof_O 	O 	0.42509	0.1905	0.29659	-0.495
Mof_O 	O 	0.05782	0.25028	0.90162	-0.942
Mof_O 	O 	0.44582	0.58814	0.67076	-0.455
Mof_O 	O 	0.35929	0.66295	0.68514	-0.501
Mof_O 	O 	0.11978	0.25019	0.03786	-0.509
Mof_O 	O 	0.22596	0.24912	0.01346	-0.506
Mof_O 	O 	0.83646	0.86142	0.06209	-0.546
Mof_O 	O 	0.7151	0.89958	0.02161	-0.477
Mof_O 	O 	0.83881	0.6391	0.06062	-0.547
Mof_O 	O 	0.7165	0.59935	0.02662	-0.478
Mof_O 	O 	0.25857	0.24847	0.8983	-0.922
Mof_O 	O 	0.92406	0.1954	0.47698	-0.511
Mof_O 	O 	0.92606	0.31405	0.47425	-0.506
Mof_O 	O 	0.17211	0.59506	0.62499	-0.491
Mof_O 	O 	0.18195	0.67473	0.69057	-0.599
Mof_O 	O 	0.31501	0.32198	0.80879	-0.606
Mof_O 	O 	0.33611	0.40016	0.87682	-0.49
Mof_O 	O 	0.18454	0.24789	0.73458	-0.465
Mof_O 	O 	0.28434	0.24787	0.70111	-0.505
Mof_O 	O 	0.1406	0.32934	0.81659	-0.517
Mof_O 	O 	0.0567	0.40865	0.82746	-0.465
Mof_Zn	Zn	0.01359	0.16614	0.86101	1.219
Mof_Zn	Zn	0.03496	0.24661	0.96979	1.212
Mof_Zn	Zn	0.01437	0.33723	0.86416	1.22
Mof_Zn	Zn	0.17277	0.25005	0.92841	1.197
Mof_Zn	Zn	0.31785	0.16381	0.92911	1.213
Mof_Zn	Zn	0.31981	0.33186	0.92918	1.213
Mof_Zn	Zn	0.22356	0.24759	0.81613	1.226
Mof_Zn	Zn	0.3761	0.25058	0.77078	1.152
Mof_C 	C 	0.44187	0.12256	0.44708	0.399
Mof_C 	C 	0.39278	0.07091	0.46612	-0.104
Mof_C 	C 	0.4024	0.00049	0.45692	-0.018
Mof_H 	H 	0.4329	0.9877	0.4355	0.055
Mof_C 	C 	0.3677	0.94742	0.47871	0.003
Mof_H 	H 	0.3777	0.8997	0.4736	0.028
Mof_C 	C 	0.31869	0.96508	0.50791	-0.119
Mof_C 	C 	0.30356	0.03765	0.51619	0.054
Mof_C 	C 	0.34206	0.09213	0.49603	0.045
Mof_C 	C 	0.3281	0.1639	0.50695	-0.081
Mof_H 	H 	0.352	0.2002	0.4936	0.071
Mof_C 	C 	0.2806	0.1811	0.53649	-0.03
Mof_H 	H 	0.273	0.2287	0.5434	0.042
Mof_C 	C 	0.243	0.1275	0.55665	-0.023
Mof_H 	H 	0.2109	0.1398	0.577	0.044
Mof_C 	C 	0.2533	0.0579	0.54641	-0.088
Mof_H 	H 	0.2273	0.0229	0.5593	0.075
Mof_C 	C 	0.44119	0.3812	0.44228	0.404
Mof_C 	C 	0.3945	0.43604	0.46058	-0.111
Mof_C 	C 	0.3243	0.4661	0.42574	0.049
Mof_C 	C 	0.2888	0.4447	0.3704	-0.085
Mof_H 	H 	0.3127	0.4098	0.3557	0.074
Mof_C 	C 	0.2213	0.4741	0.3389	-0.023
Mof_H 	H 	0.1993	0.4592	0.3027	0.039
Mof_C 	C 	0.1836	0.5268	0.35956	-0.025
Mof_H 	H 	0.1372	0.5468	0.337	0.045
Mof_C 	C 	0.2144	0.5486	0.41215	-0.086
Mof_H 	H 	0.1889	0.5835	0.4255	0.077
Mof_C 	C 	0.2852	0.51891	0.44739	0.052
Mof_C 	C 	0.3205	0.54138	0.50285	-0.124
Mof_C 	C 	0.3884	0.5112	0.53408	-0.007
Mof_H 	H 	0.4115	0.5269	0.5699	0.039
Mof_C 	C 	0.4244	0.4578	0.514	-0.011
Mof_H 	H 	0.4695	0.4363	0.5371	0.05
Mof_C 	C 	0.69277	0.25088	0.54864	0.426
Mof_C 	C 	0.74273	0.25023	0.60825	-0.123
Mof_C 	C 	0.82155	0.2496	0.61845	-0.002
Mof_H 	H 	0.8407	0.2487	0.5891	0.037
Mof_C 	C 	0.8747	0.2502	0.67198	-0.01
Mof_H 	H 	0.9282	0.2492	0.6776	0.033
Mof_C 	C 	0.84823	0.2524	0.71609	-0.11
Mof_C 	C 	0.76659	0.2511	0.70742	0.039
Mof_C 	C 	0.71245	0.2497	0.65354	0.066
Mof_C 	C 	0.6314	0.2483	0.6484	-0.105
Mof_H 	H 	0.5942	0.2478	0.6136	0.089
Mof_C 	C 	0.6074	0.2477	0.69326	-0.002
Mof_H 	H 	0.5542	0.2463	0.6886	0.006
Mof_C 	C 	0.661	0.2493	0.74581	-0.048
Mof_H 	H 	0.6435	0.2496	0.776	0.024
Mof_C 	C 	0.7391	0.2503	0.75339	-0.063
Mof_H 	H 	0.7748	0.2505	0.7887	0.052
Mof_C 	C 	0.89417	0.89468	0.19257	0.393
Mof_C 	C 	0.2891	0.90422	0.53391	0.407
Mof_C 	C 	0.90705	0.2525	0.77296	0.432
Mof_C 	C 	0.45517	0.2452	0.99313	0.391
Mof_C 	C 	0.6677	0.88752	0.17096	0.396
Mof_C 	C 	0.60863	0.11151	0.3077	0.401
Mof_C 	C 	0.62642	0.05651	0.27075	-0.111
Mof_C 	C 	0.6736	0.99986	0.29324	-0.013
Mof_H 	H 	0.6985	0.9979	0.3309	0.04
Mof_C 	C 	0.68473	0.94483	0.25994	-0.01
Mof_H 	H 	0.7178	0.9071	0.2758	0.029
Mof_C 	C 	0.64775	0.94544	0.20429	-0.149
Mof_C 	C 	0.59636	0.00306	0.17927	0.054
Mof_C 	C 	0.58694	0.05967	0.21315	0.041
Mof_C 	C 	0.5361	0.11663	0.18922	-0.075
Mof_H 	H 	0.5308	0.1544	0.2111	0.064
Mof_C 	C 	0.4952	0.1172	0.13513	-0.024
Mof_H 	H 	0.4619	0.1551	0.1201	0.041
Mof_C 	C 	0.5027	0.0609	0.1015	-0.023
Mof_H 	H 	0.4737	0.0614	0.0644	0.046
Mof_C 	C 	0.5518	0.0057	0.12245	-0.086
Mof_H 	H 	0.5564	0.969	0.0994	0.066
Mof_C 	C 	0.71299	0.25075	0.19656	0.417
Mof_C 	C 	0.65375	0.24878	0.13994	-0.115
Mof_C 	C 	0.5948	0.2975	0.1287	-0.005
Mof_H 	H 	0.5951	0.3316	0.155	0.044
Mof_C 	C 	0.5344	0.2977	0.07911	-0.015
Mof_H 	H 	0.4966	0.3334	0.0719	0.047
Mof_C 	C 	0.52932	0.24589	0.04039	-0.113
Mof_C 	C 	0.59054	0.19398	0.04953	0.047
Mof_C 	C 	0.65474	0.19732	0.09921	0.047
Mof_C 	C 	0.7165	0.1474	0.10773	-0.079
Mof_H 	H 	0.7594	0.1494	0.1396	0.058
Mof_C 	C 	0.7134	0.0963	0.06927	-0.024
Mof_H 	H 	0.7539	0.0635	0.0754	0.045
Mof_C 	C 	0.6498	0.093	0.02084	-0.027
Mof_H 	H 	0.6484	0.0578	0.9951	0.047
Mof_C 	C 	0.5903	0.1404	0.01096	-0.082
Mof_H 	H 	0.5487	0.1376	0.9783	0.064
Mof_C 	C 	0.8357	0.11699	0.32965	0.392
Mof_C 	C 	0.85705	0.06118	0.29605	-0.153
Mof_C 	C 	0.81093	0.05531	0.24238	-0.013
Mof_H 	H 	0.7716	0.0887	0.2279	0.034
Mof_C 	C 	0.8214	0.00046	0.20873	-0.004
Mof_H 	H 	0.788	0.9966	0.1728	0.039
Mof_C 	C 	0.8811	0.95232	0.22902	-0.118
Mof_C 	C 	0.9334	0.95931	0.28342	0.048
Mof_C 	C 	0.9204	0.01296	0.31829	0.049
Mof_C 	C 	0.9731	0.0184	0.37262	-0.087
Mof_H 	H 	0.964	0.0521	0.3963	0.065
Mof_C 	C 	0.0371	0.9748	0.39068	-0.035
Mof_H 	H 	0.0716	0.9797	0.4262	0.05
Mof_C 	C 	0.0509	0.9226	0.35582	-0.008
Mof_H 	H 	0.0949	0.8936	0.3681	0.039
Mof_C 	C 	0.9998	0.9145	0.30384	-0.106
Mof_H 	H 	0.0087	0.8789	0.2815	0.083
Mof_C 	C 	0.288	0.59781	0.53004	0.396
Mof_O 	O 	0.45592	0.10826	0.40406	-0.486
Mof_O 	O 	0.46876	0.17499	0.47769	-0.499
Mof_O 	O 	0.4725	0.33417	0.47642	-0.507
Mof_O 	O 	0.44818	0.38767	0.39581	-0.492
Mof_O 	O 	0.9339	0.19403	0.79103	-0.499
Mof_O 	O 	0.92509	0.3095	0.79659	-0.493
Mof_O 	O 	0.55782	0.24972	0.40162	-0.939
Mof_O 	O 	0.94582	0.91186	0.17076	-0.458
Mof_O 	O 	0.85929	0.83705	0.18514	-0.502
Mof_O 	O 	0.61978	0.24981	0.53786	-0.512
Mof_O 	O 	0.72596	0.25088	0.51346	-0.509
Mof_O 	O 	0.33646	0.63858	0.56209	-0.544
Mof_O 	O 	0.2151	0.60042	0.52161	-0.476
Mof_O 	O 	0.33881	0.8609	0.56062	-0.546
Mof_O 	O 	0.2165	0.90065	0.52662	-0.477
Mof_O 	O 	0.75857	0.25153	0.3983	-0.922
Mof_O 	O 	0.42406	0.3046	0.97698	-0.511
Mof_O 	O 	0.42606	0.18595	0.97425	-0.506
Mof_O 	O 	0.67211	0.90494	0.12499	-0.492
Mof_O 	O 	0.68195	0.82527	0.19057	-0.6
Mof_O 	O 	0.81501	0.17802	0.30879	-0.606
Mof_O 	O 	0.83611	0.09984	0.37682	-0.489
Mof_O 	O 	0.68454	0.25211	0.23458	-0.465
Mof_O 	O 	0.78434	0.25213	0.20111	-0.505
Mof_O 	O 	0.6406	0.17066	0.31659	-0.516
Mof_O 	O 	0.5567	0.09135	0.32746	-0.463
Mof_Zn	Zn	0.51359	0.33386	0.36101	1.221
Mof_Zn	Zn	0.53496	0.25339	0.46979	1.215
Mof_Zn	Zn	0.51437	0.16277	0.36416	1.221
Mof_Zn	Zn	0.67277	0.24995	0.42841	1.197
Mof_Zn	Zn	0.81785	0.33619	0.42911	1.213
Mof_Zn	Zn	0.81981	0.16814	0.42918	1.213
Mof_Zn	Zn	0.72357	0.25241	0.31613	1.226
Mof_Zn	Zn	0.8761	0.24942	0.27078	1.152
Mof_C 	C 	0.05813	0.62256	0.05292	0.401
Mof_C 	C 	0.10722	0.57091	0.03388	-0.11
Mof_C 	C 	0.0976	0.50049	0.04308	-0.013
Mof_H 	H 	0.0671	0.4877	0.0645	0.054
Mof_C 	C 	0.1323	0.44742	0.02129	0.005
Mof_H 	H 	0.1223	0.3997	0.0264	0.028
Mof_C 	C 	0.18131	0.46508	0.99209	-0.121
Mof_C 	C 	0.19644	0.53765	0.98381	0.044
Mof_C 	C 	0.15794	0.59213	0.00397	0.063
Mof_C 	C 	0.1719	0.6639	0.99305	-0.108
Mof_H 	H 	0.148	0.7002	0.0064	0.082
Mof_C 	C 	0.2194	0.6811	0.96351	-0.011
Mof_H 	H 	0.227	0.7287	0.9566	0.035
Mof_C 	C 	0.257	0.6275	0.94335	-0.038
Mof_H 	H 	0.2891	0.6398	0.923	0.049
Mof_C 	C 	0.2467	0.5579	0.95359	-0.077
Mof_H 	H 	0.2727	0.5229	0.9407	0.072
Mof_C 	C 	0.05881	0.8812	0.05772	0.402
Mof_C 	C 	0.1055	0.93604	0.03942	-0.105
Mof_C 	C 	0.1757	0.9661	0.07426	0.046
Mof_C 	C 	0.2112	0.9447	0.1296	-0.081
Mof_H 	H 	0.1873	0.9098	0.1443	0.072
Mof_C 	C 	0.2787	0.9741	0.1611	-0.026
Mof_H 	H 	0.3007	0.9592	0.1973	0.04
Mof_C 	C 	0.3164	0.0268	0.14044	-0.021
Mof_H 	H 	0.3628	0.0468	0.163	0.043
Mof_C 	C 	0.2856	0.0486	0.08785	-0.09
Mof_H 	H 	0.3111	0.0835	0.0745	0.079
Mof_C 	C 	0.2148	0.01891	0.05261	0.06
Mof_C 	C 	0.1795	0.04138	0.99715	-0.131
Mof_C 	C 	0.1116	0.0112	0.96592	-0.008
Mof_H 	H 	0.0885	0.0269	0.9301	0.037
Mof_C 	C 	0.0756	0.9578	0.986	-0.014
Mof_H 	H 	0.0305	0.9363	0.9629	0.05
Mof_C 	C 	0.80723	0.75088	0.95136	0.425
Mof_C 	C 	0.75727	0.75023	0.89175	-0.122
Mof_C 	C 	0.67845	0.7496	0.88155	-0.003
Mof_H 	H 	0.6593	0.7487	0.9109	0.037
Mof_C 	C 	0.6253	0.7502	0.82802	-0.009
Mof_H 	H 	0.5718	0.7492	0.8224	0.032
Mof_C 	C 	0.65177	0.7524	0.78391	-0.111
Mof_C 	C 	0.73341	0.7511	0.79258	0.04
Mof_C 	C 	0.78755	0.7497	0.84646	0.065
Mof_C 	C 	0.8686	0.7483	0.8516	-0.104
Mof_H 	H 	0.9058	0.7478	0.8864	0.089
Mof_C 	C 	0.8926	0.7477	0.80674	-0.002
Mof_H 	H 	0.9458	0.7463	0.8114	0.007
Mof_C 	C 	0.839	0.7493	0.75419	-0.048
Mof_H 	H 	0.8565	0.7496	0.724	0.024
Mof_C 	C 	0.7609	0.7503	0.74661	-0.063
Mof_H 	H 	0.7252	0.7505	0.7113	0.052
Mof_C 	C 	0.60583	0.39468	0.30743	0.389
Mof_C 	C 	0.2109	0.40422	0.96609	0.407
Mof_C 	C 	0.59295	0.7525	0.72704	0.433
Mof_C 	C 	0.04483	0.7452	0.50687	0.393
Mof_C 	C 	0.8323	0.38752	0.32904	0.394
Mof_C 	C 	0.89137	0.61151	0.1923	0.403
Mof_C 	C 	0.87358	0.55651	0.22925	-0.119
Mof_C 	C 	0.8264	0.49986	0.20676	-0.004
Mof_H 	H 	0.8015	0.4979	0.1691	0.037
Mof_C 	C 	0.81527	0.44483	0.24006	-0.017
Mof_H 	H 	0.7822	0.4071	0.2242	0.032
Mof_C 	C 	0.85225	0.44544	0.29571	-0.142
Mof_C 	C 	0.90364	0.50306	0.32073	0.045
Mof_C 	C 	0.91306	0.55967	0.28685	0.05
Mof_C 	C 	0.9639	0.61663	0.31078	-0.09
Mof_H 	H 	0.9692	0.6544	0.2889	0.068
Mof_C 	C 	0.0048	0.6172	0.36487	-0.004
Mof_H 	H 	0.0381	0.6551	0.3799	0.035
Mof_C 	C 	0.9973	0.5609	0.3985	-0.04
Mof_H 	H 	0.0263	0.5614	0.4356	0.052
Mof_C 	C 	0.9482	0.5057	0.37755	-0.076
Mof_H 	H 	0.9436	0.469	0.4006	0.064
Mof_C 	C 	0.78701	0.75075	0.30344	0.417
Mof_C 	C 	0.84625	0.74878	0.36006	-0.116
Mof_C 	C 	0.9052	0.7975	0.3713	-0.002
Mof_H 	H 	0.9049	0.8316	0.345	0.042
Mof_C 	C 	0.9656	0.7977	0.42089	-0.021
Mof_H 	H 	0.0034	0.8334	0.4281	0.051
Mof_C 	C 	0.97068	0.74589	0.45961	-0.114
Mof_C 	C 	0.90946	0.69398	0.45047	0.048
Mof_C 	C 	0.84526	0.69732	0.40079	0.047
Mof_C 	C 	0.7835	0.6474	0.39227	-0.078
Mof_H 	H 	0.7406	0.6494	0.3604	0.058
Mof_C 	C 	0.7866	0.5963	0.43073	-0.026
Mof_H 	H 	0.7461	0.5635	0.4246	0.044
Mof_C 	C 	0.8502	0.593	0.47916	-0.024
Mof_H 	H 	0.8516	0.5578	0.5049	0.045
Mof_C 	C 	0.9097	0.6404	0.48904	-0.084
Mof_H 	H 	0.9513	0.6376	0.5217	0.064
Mof_C 	C 	0.6643	0.61699	0.17035	0.395
Mof_C 	C 	0.64295	0.56118	0.20395	-0.16
Mof_C 	C 	0.68907	0.55531	0.25762	-0.001
Mof_H 	H 	0.7284	0.5887	0.2721	0.029
Mof_C 	C 	0.6786	0.50046	0.29127	-0.024
Mof_H 	H 	0.712	0.4966	0.3272	0.048
Mof_C 	C 	0.6189	0.45232	0.27098	-0.104
Mof_C 	C 	0.5666	0.45931	0.21658	0.035
Mof_C 	C 	0.5796	0.51296	0.18171	0.057
Mof_C 	C 	0.5269	0.5184	0.12738	-0.099
Mof_H 	H 	0.536	0.5521	0.1037	0.069
Mof_C 	C 	0.4629	0.4748	0.10932	-0.02
Mof_H 	H 	0.4284	0.4797	0.0738	0.045
Mof_C 	C 	0.4491	0.4226	0.14418	-0.034
Mof_H 	H 	0.4051	0.3936	0.1319	0.047
Mof_C 	C 	0.5002	0.4145	0.19616	-0.075
Mof_H 	H 	0.4913	0.3789	0.2185	0.069
Mof_C 	C 	0.212	0.09781	0.96996	0.398
Mof_O 	O 	0.04408	0.60826	0.09594	-0.484
Mof_O 	O 	0.03124	0.67499	0.02231	-0.497
Mof_O 	O 	0.0275	0.83417	0.02358	-0.503
Mof_O 	O 	0.05182	0.88767	0.10419	-0.488
Mof_O 	O 	0.5661	0.69403	0.70897	-0.502
Mof_O 	O 	0.57491	0.8095	0.70341	-0.495
Mof_O 	O 	0.94218	0.74972	0.09838	-0.942
Mof_O 	O 	0.55418	0.41186	0.32924	-0.455
Mof_O 	O 	0.64071	0.33705	0.31486	-0.501
Mof_O 	O 	0.88022	0.74981	0.96214	-0.509
Mof_O 	O 	0.77404	0.75088	0.98654	-0.506
Mof_O 	O 	0.16354	0.13858	0.93791	-0.546
Mof_O 	O 	0.2849	0.10042	0.97839	-0.477
Mof_O 	O 	0.16119	0.3609	0.93938	-0.547
Mof_O 	O 	0.2835	0.40065	0.97338	-0.478
Mof_O 	O 	0.74143	0.75153	0.1017	-0.922
Mof_O 	O 	0.07594	0.8046	0.52302	-0.511
Mof_O 	O 	0.07394	0.68595	0.52575	-0.506
Mof_O 	O 	0.82789	0.40494	0.37501	-0.491
Mof_O 	O 	0.81805	0.32527	0.30943	-0.6
Mof_O 	O 	0.68499	0.67802	0.19121	-0.606
Mof_O 	O 	0.66389	0.59984	0.12318	-0.49
Mof_O 	O 	0.81546	0.75211	0.26542	-0.465
Mof_O 	O 	0.71566	0.75213	0.29889	-0.505
Mof_O 	O 	0.8594	0.67066	0.18341	-0.517
Mof_O 	O 	0.9433	0.59135	0.17254	-0.465
Mof_Zn	Zn	0.98641	0.83386	0.13899	1.219
Mof_Zn	Zn	0.96504	0.75339	0.03021	1.212
Mof_Zn	Zn	0.98563	0.66277	0.13584	1.22
Mof_Zn	Zn	0.82723	0.74995	0.07159	1.197
Mof_Zn	Zn	0.68215	0.83619	0.07089	1.213
Mof_Zn	Zn	0.68019	0.66814	0.07082	1.213
Mof_Zn	Zn	0.77643	0.75241	0.18387	1.226
Mof_Zn	Zn	0.6239	0.74942	0.22922	1.152
_end
