data_functionalizedCrystal
_audit_creation_method	'EQeq! by Chris Wilmer'
_symmetry_space_group_name_H-M	'P1'
_symmetry_Int_Tables_number	1
_symmetry_cell_setting	triclinic
loop_
_symmetry_equiv_pos_as_xyz
  x,y,z
_cell_length_a	7.8121
_cell_length_b	7.9612
_cell_length_c	13.1728
_cell_angle_alpha	90
_cell_angle_beta	90
_cell_angle_gamma	90
loop_
_atom_site_label
_atom_site_type_symbol
_atom_site_fract_x
_atom_site_fract_y
_atom_site_fract_z
_atom_site_charge
Mof_Mn	Mn	0.55335	0.49461	0.08543	1.046
Mof_C 	C 	0.4158	0.2249	0.23529	0.445
Mof_H 	H 	0.5202	0.1736	0.2215	-0.096
Mof_C 	C 	0.2931	0.7722	0.03257	0.509
Mof_H 	H 	0.3569	0.7791	0.9731	-0.113
Mof_C 	C 	0.3119	0.2768	0.9587	0.475
Mof_H 	H 	0.239	0.2952	0.0134	-0.105
Mof_O 	O 	0.3855	0.3601	0.19145	-0.347
Mof_O 	O 	0.3179	0.1517	0.29651	-0.331
Mof_O 	O 	0.3423	0.67	0.09459	-0.384
Mof_O 	O 	0.1688	0.8683	0.03839	-0.374
Mof_O 	O 	0.4511	0.3505	0.96043	-0.362
Mof_O 	O 	0.2593	0.18	0.89068	-0.361
Mof_Mn	Mn	0.94665	0.50539	0.58543	1.046
Mof_C 	C 	0.0842	0.7751	0.73529	0.453
Mof_H 	H 	0.9798	0.8264	0.7215	-0.1
Mof_C 	C 	0.2069	0.2278	0.53257	0.515
Mof_H 	H 	0.1431	0.2209	0.4731	-0.117
Mof_C 	C 	0.1881	0.7232	0.4587	0.478
Mof_H 	H 	0.261	0.7048	0.5134	-0.107
Mof_O 	O 	0.1145	0.6399	0.69145	-0.348
Mof_O 	O 	0.1821	0.8483	0.79651	-0.333
Mof_O 	O 	0.1577	0.33	0.59459	-0.385
Mof_O 	O 	0.3312	0.1317	0.53839	-0.376
Mof_O 	O 	0.0489	0.6495	0.46043	-0.361
Mof_O 	O 	0.2407	0.82	0.39068	-0.362
Mof_Mn	Mn	0.44665	0.99461	0.41457	1.046
Mof_C 	C 	0.5842	0.7249	0.26471	0.447
Mof_H 	H 	0.4798	0.6736	0.2785	-0.096
Mof_C 	C 	0.7069	0.2722	0.46743	0.516
Mof_H 	H 	0.6431	0.2791	0.5269	-0.117
Mof_C 	C 	0.6881	0.7768	0.5413	0.479
Mof_H 	H 	0.761	0.7952	0.4866	-0.109
Mof_O 	O 	0.6145	0.8601	0.30855	-0.349
Mof_O 	O 	0.6821	0.6517	0.20349	-0.334
Mof_O 	O 	0.6577	0.17	0.40541	-0.384
Mof_O 	O 	0.8312	0.3683	0.46161	-0.377
Mof_O 	O 	0.5489	0.8505	0.53957	-0.363
Mof_O 	O 	0.7407	0.68	0.60932	-0.363
Mof_Mn	Mn	0.05335	0.00539	0.91457	1.044
Mof_C 	C 	0.9158	0.2751	0.76471	0.447
Mof_H 	H 	0.0202	0.3264	0.7785	-0.096
Mof_C 	C 	0.7931	0.7278	0.96743	0.527
Mof_H 	H 	0.8569	0.7209	0.0269	-0.125
Mof_C 	C 	0.8119	0.2232	0.0413	0.477
Mof_H 	H 	0.739	0.2048	0.9866	-0.106
Mof_O 	O 	0.8855	0.1399	0.80855	-0.345
Mof_O 	O 	0.8179	0.3483	0.70349	-0.333
Mof_O 	O 	0.8423	0.83	0.90541	-0.389
Mof_O 	O 	0.6688	0.6317	0.96161	-0.379
Mof_O 	O 	0.9511	0.1495	0.03957	-0.361
Mof_O 	O 	0.7593	0.32	0.10932	-0.362
_end
