data_functionalizedCrystal
_audit_creation_method	'EQeq! by Chris Wilmer'
_symmetry_space_group_name_H-M	'P1'
_symmetry_Int_Tables_number	1
_symmetry_cell_setting	triclinic
loop_
_symmetry_equiv_pos_as_xyz
  x,y,z
_cell_length_a	6.754
_cell_length_b	11.937
_cell_length_c	13.456
_cell_angle_alpha	90
_cell_angle_beta	100.381
_cell_angle_gamma	90
loop_
_atom_site_label
_atom_site_type_symbol
_atom_site_fract_x
_atom_site_fract_y
_atom_site_fract_z
_atom_site_charge
Mof_Pr	Pr	0.05196	0.83113	0.75493	2.51
Mof_Pr	Pr	0.94804	0.33113	0.74507	2.535
Mof_Pr	Pr	0.94804	0.16887	0.24507	2.51
Mof_Pr	Pr	0.05196	0.66887	0.25493	2.535
Mof_H 	H 	0.8003	0.9385	0.9589	-0.013
Mof_H 	H 	0.459	0.804	0.1451	-0.046
Mof_H 	H 	0.1997	0.4385	0.5411	-0.016
Mof_H 	H 	0.541	0.304	0.3549	-0.044
Mof_H 	H 	0.1997	0.0615	0.0411	-0.013
Mof_H 	H 	0.541	0.196	0.8549	-0.046
Mof_H 	H 	0.8003	0.5615	0.4589	-0.016
Mof_H 	H 	0.459	0.696	0.6451	-0.044
Mof_C 	C 	0.542	0.8977	0.7807	0.475
Mof_C 	C 	0.5272	0.88	0.8902	-0.148
Mof_C 	C 	0.6821	0.9048	0.9701	0.128
Mof_C 	C 	0.6549	0.8777	0.0668	-0.218
Mof_C 	C 	0.8193	0.9007	0.1571	0.49
Mof_C 	C 	0.4763	0.8272	0.0813	0.126
Mof_C 	C 	0.3249	0.8127	0.9976	-0.154
Mof_C 	C 	0.1175	0.767	0.004	0.474
Mof_C 	C 	0.458	0.3977	0.7193	0.478
Mof_C 	C 	0.4728	0.38	0.6098	-0.148
Mof_C 	C 	0.3179	0.4048	0.5299	0.133
Mof_C 	C 	0.3451	0.3777	0.4332	-0.22
Mof_C 	C 	0.1807	0.4007	0.3429	0.492
Mof_C 	C 	0.5237	0.3272	0.4187	0.123
Mof_C 	C 	0.6751	0.3127	0.5024	-0.146
Mof_C 	C 	0.8825	0.267	0.496	0.471
Mof_C 	C 	0.458	0.1023	0.2193	0.475
Mof_C 	C 	0.4728	0.12	0.1098	-0.148
Mof_C 	C 	0.3179	0.0952	0.0299	0.128
Mof_C 	C 	0.3451	0.1223	0.9332	-0.218
Mof_C 	C 	0.1807	0.0993	0.8429	0.49
Mof_C 	C 	0.5237	0.1728	0.9187	0.126
Mof_C 	C 	0.6751	0.1873	0.0024	-0.154
Mof_C 	C 	0.8825	0.233	0.996	0.474
Mof_C 	C 	0.542	0.6023	0.2807	0.478
Mof_C 	C 	0.5272	0.62	0.3902	-0.148
Mof_C 	C 	0.6821	0.5952	0.4701	0.133
Mof_C 	C 	0.6549	0.6223	0.5668	-0.22
Mof_C 	C 	0.8193	0.5993	0.6571	0.492
Mof_C 	C 	0.4763	0.6728	0.5813	0.123
Mof_C 	C 	0.3249	0.6873	0.4976	-0.146
Mof_C 	C 	0.1175	0.733	0.504	0.471
Mof_N 	N 	0.3496	0.8385	0.9043	-0.208
Mof_N 	N 	0.6504	0.3385	0.5957	-0.209
Mof_N 	N 	0.6504	0.1615	0.0957	-0.208
Mof_N 	N 	0.3496	0.6615	0.4043	-0.209
Mof_O 	O 	0.3768	0.9011	0.7192	-0.578
Mof_O 	O 	0.7123	0.9072	0.7581	-0.564
Mof_O 	O 	0.8339	0.8321	0.2291	-0.587
Mof_O 	O 	0.9259	0.9859	0.1547	-0.552
Mof_O 	O 	0.0772	0.7427	0.0884	-0.602
Mof_O 	O 	0.9976	0.7572	0.9205	-0.543
Mof_O 	O 	0.6232	0.4011	0.7808	-0.578
Mof_O 	O 	0.2877	0.4072	0.7419	-0.57
Mof_O 	O 	0.1661	0.3321	0.2709	-0.586
Mof_O 	O 	0.0741	0.4859	0.3453	-0.562
Mof_O 	O 	0.9228	0.2427	0.4116	-0.599
Mof_O 	O 	0.0024	0.2572	0.5795	-0.544
Mof_O 	O 	0.6232	0.0989	0.2808	-0.578
Mof_O 	O 	0.2877	0.0928	0.2419	-0.564
Mof_O 	O 	0.1661	0.1679	0.7709	-0.587
Mof_O 	O 	0.0741	0.0141	0.8453	-0.552
Mof_O 	O 	0.9228	0.2573	0.9116	-0.602
Mof_O 	O 	0.0024	0.2428	0.0795	-0.543
Mof_O 	O 	0.3768	0.5989	0.2192	-0.578
Mof_O 	O 	0.7123	0.5928	0.2581	-0.57
Mof_O 	O 	0.8339	0.6679	0.7291	-0.586
Mof_O 	O 	0.9259	0.5141	0.6547	-0.562
Mof_O 	O 	0.0772	0.7573	0.5884	-0.599
Mof_O 	O 	0.9976	0.7428	0.4205	-0.544
_end
