data_functionalizedCrystal
_audit_creation_method	'EQeq! by Chris Wilmer'
_symmetry_space_group_name_H-M	'P1'
_symmetry_Int_Tables_number	1
_symmetry_cell_setting	triclinic
loop_
_symmetry_equiv_pos_as_xyz
  x,y,z
_cell_length_a	12.489
_cell_length_b	14.085
_cell_length_c	16.293
_cell_angle_alpha	90
_cell_angle_beta	90
_cell_angle_gamma	112.425
loop_
_atom_site_label
_atom_site_type_symbol
_atom_site_fract_x
_atom_site_fract_y
_atom_site_fract_z
_atom_site_charge
Mof_Ag	Ag	0.33184	0.22947	0.96308	0.574
Mof_Ag	Ag	0.16816	0.77053	0.46308	0.574
Mof_Ag	Ag	0.66816	0.77053	0.03692	0.573
Mof_Ag	Ag	0.83184	0.22947	0.53692	0.573
Mof_H 	H 	0.076	0.8859	0.9509	0.08
Mof_H 	H 	0.9407	0.8057	0.1402	0.093
Mof_H 	H 	0.0278	0.7882	0.0778	0.108
Mof_H 	H 	0.881	0.5735	0.0797	0.138
Mof_H 	H 	0.808	0.606	0.1445	0.14
Mof_H 	H 	0.6054	0.5014	0.1543	0.139
Mof_H 	H 	0.4411	0.3747	0.1042	-0.027
Mof_H 	H 	0.766	0.4897	0.9443	0.139
Mof_H 	H 	0.5951	0.3653	0.8984	-0.004
Mof_H 	H 	0.8895	0.0191	0.1857	0.09
Mof_H 	H 	0.8639	0.9008	0.1804	0.083
Mof_H 	H 	0.552	0.8918	0.2072	0.111
Mof_H 	H 	0.6334	0.837	0.2367	0.128
Mof_H 	H 	0.7762	0.9146	0.3403	0.128
Mof_H 	H 	0.8529	0.0398	0.4382	-0.027
Mof_H 	H 	0.609	0.0816	0.2445	0.111
Mof_H 	H 	0.688	0.2012	0.3473	-0.017
Mof_H 	H 	0.424	0.1141	0.4509	0.079
Mof_H 	H 	0.5593	0.1943	0.6402	0.093
Mof_H 	H 	0.4722	0.2118	0.5778	0.109
Mof_H 	H 	0.619	0.4265	0.5797	0.138
Mof_H 	H 	0.692	0.394	0.6445	0.14
Mof_H 	H 	0.8946	0.4986	0.6543	0.14
Mof_H 	H 	0.0589	0.6253	0.6042	-0.027
Mof_H 	H 	0.734	0.5103	0.4443	0.139
Mof_H 	H 	0.9049	0.6347	0.3984	-0.004
Mof_H 	H 	0.6105	0.9809	0.6857	0.092
Mof_H 	H 	0.6361	0.0992	0.6804	0.084
Mof_H 	H 	0.948	0.1082	0.7072	0.111
Mof_H 	H 	0.8666	0.163	0.7367	0.127
Mof_H 	H 	0.7238	0.0854	0.8403	0.128
Mof_H 	H 	0.6471	0.9602	0.9382	-0.027
Mof_H 	H 	0.891	0.9184	0.7445	0.111
Mof_H 	H 	0.812	0.7988	0.8473	-0.016
Mof_H 	H 	0.924	0.1141	0.0491	0.08
Mof_H 	H 	0.0593	0.1943	0.8598	0.093
Mof_H 	H 	0.9722	0.2118	0.9222	0.108
Mof_H 	H 	0.119	0.4265	0.9203	0.138
Mof_H 	H 	0.192	0.394	0.8555	0.14
Mof_H 	H 	0.3946	0.4986	0.8457	0.139
Mof_H 	H 	0.5589	0.6253	0.8958	-0.027
Mof_H 	H 	0.234	0.5103	0.0557	0.139
Mof_H 	H 	0.4049	0.6347	0.1016	-0.004
Mof_H 	H 	0.1105	0.9809	0.8143	0.09
Mof_H 	H 	0.1361	0.0992	0.8196	0.083
Mof_H 	H 	0.448	0.1082	0.7928	0.111
Mof_H 	H 	0.3666	0.163	0.7633	0.128
Mof_H 	H 	0.2238	0.0854	0.6597	0.128
Mof_H 	H 	0.1471	0.9602	0.5618	-0.027
Mof_H 	H 	0.391	0.9184	0.7555	0.111
Mof_H 	H 	0.312	0.7988	0.6527	-0.017
Mof_H 	H 	0.576	0.8859	0.5491	0.079
Mof_H 	H 	0.4407	0.8057	0.3598	0.093
Mof_H 	H 	0.5278	0.7882	0.4222	0.109
Mof_H 	H 	0.381	0.5735	0.4203	0.138
Mof_H 	H 	0.308	0.606	0.3555	0.14
Mof_H 	H 	0.1054	0.5014	0.3457	0.14
Mof_H 	H 	0.9411	0.3747	0.3958	-0.027
Mof_H 	H 	0.266	0.4897	0.5557	0.139
Mof_H 	H 	0.0951	0.3653	0.6016	-0.004
Mof_H 	H 	0.3895	0.0191	0.3143	0.092
Mof_H 	H 	0.3639	0.9008	0.3196	0.084
Mof_H 	H 	0.052	0.8918	0.2928	0.111
Mof_H 	H 	0.1334	0.837	0.2633	0.127
Mof_H 	H 	0.2762	0.9146	0.1597	0.128
Mof_H 	H 	0.3529	0.0398	0.0618	-0.027
Mof_H 	H 	0.109	0.0816	0.2555	0.111
Mof_H 	H 	0.188	0.2012	0.1527	-0.016
Mof_C 	C 	0.9803	0.9077	0.0432	0.046
Mof_C 	C 	0.9338	0.9774	0.0732	0.037
Mof_C 	C 	0.0453	0.9321	0.9707	-0.125
Mof_C 	C 	0.9593	0.8046	0.0825	-0.204
Mof_C 	C 	0.8155	0.5937	0.0867	-0.3
Mof_C 	C 	0.7058	0.5098	0.0554	0.217
Mof_C 	C 	0.6061	0.4743	0.1023	-0.257
Mof_C 	C 	0.5072	0.3979	0.0716	0.143
Mof_C 	C 	0.701	0.4677	0.978	-0.243
Mof_C 	C 	0.5976	0.3919	0.9509	0.139
Mof_C 	C 	0.8608	0.9592	0.1504	-0.189
Mof_C 	C 	0.6321	0.9014	0.2166	-0.28
Mof_C 	C 	0.6829	0.983	0.2805	0.206
Mof_C 	C 	0.7571	0.9722	0.3401	-0.242
Mof_C 	C 	0.8027	0.0481	0.3992	0.129
Mof_C 	C 	0.6577	0.0709	0.2834	-0.232
Mof_C 	C 	0.7064	0.1431	0.3457	0.127
Mof_C 	C 	0.5197	0.0923	0.5432	0.045
Mof_C 	C 	0.5662	0.0226	0.5732	0.036
Mof_C 	C 	0.4547	0.0679	0.4707	-0.122
Mof_C 	C 	0.5407	0.1954	0.5825	-0.205
Mof_C 	C 	0.6845	0.4063	0.5867	-0.3
Mof_C 	C 	0.7942	0.4902	0.5554	0.217
Mof_C 	C 	0.8939	0.5257	0.6023	-0.258
Mof_C 	C 	0.9928	0.6021	0.5716	0.144
Mof_C 	C 	0.799	0.5323	0.478	-0.244
Mof_C 	C 	0.9024	0.6081	0.4509	0.139
Mof_C 	C 	0.6392	0.0408	0.6504	-0.191
Mof_C 	C 	0.8679	0.0986	0.7166	-0.279
Mof_C 	C 	0.8171	0.017	0.7805	0.204
Mof_C 	C 	0.7429	0.0278	0.8401	-0.244
Mof_C 	C 	0.6973	0.9519	0.8992	0.131
Mof_C 	C 	0.8423	0.9291	0.7834	-0.23
Mof_C 	C 	0.7936	0.8569	0.8457	0.127
Mof_C 	C 	0.0197	0.0923	0.9568	0.046
Mof_C 	C 	0.0662	0.0226	0.9268	0.037
Mof_C 	C 	0.9547	0.0679	0.0293	-0.125
Mof_C 	C 	0.0407	0.1954	0.9175	-0.204
Mof_C 	C 	0.1845	0.4063	0.9133	-0.3
Mof_C 	C 	0.2942	0.4902	0.9446	0.217
Mof_C 	C 	0.3939	0.5257	0.8977	-0.257
Mof_C 	C 	0.4928	0.6021	0.9284	0.143
Mof_C 	C 	0.299	0.5323	0.022	-0.243
Mof_C 	C 	0.4024	0.6081	0.0491	0.139
Mof_C 	C 	0.1392	0.0408	0.8496	-0.189
Mof_C 	C 	0.3679	0.0986	0.7834	-0.28
Mof_C 	C 	0.3171	0.017	0.7195	0.206
Mof_C 	C 	0.2429	0.0278	0.6599	-0.242
Mof_C 	C 	0.1973	0.9519	0.6008	0.129
Mof_C 	C 	0.3423	0.9291	0.7166	-0.232
Mof_C 	C 	0.2936	0.8569	0.6543	0.127
Mof_C 	C 	0.4803	0.9077	0.4568	0.045
Mof_C 	C 	0.4338	0.9774	0.4268	0.036
Mof_C 	C 	0.5453	0.9321	0.5293	-0.122
Mof_C 	C 	0.4593	0.8046	0.4175	-0.205
Mof_C 	C 	0.3155	0.5937	0.4133	-0.3
Mof_C 	C 	0.2058	0.5098	0.4446	0.217
Mof_C 	C 	0.1061	0.4743	0.3977	-0.258
Mof_C 	C 	0.0072	0.3979	0.4284	0.144
Mof_C 	C 	0.201	0.4677	0.522	-0.244
Mof_C 	C 	0.0976	0.3919	0.5491	0.139
Mof_C 	C 	0.3608	0.9592	0.3496	-0.191
Mof_C 	C 	0.1321	0.9014	0.2834	-0.279
Mof_C 	C 	0.1829	0.983	0.2195	0.204
Mof_C 	C 	0.2571	0.9722	0.1599	-0.244
Mof_C 	C 	0.3027	0.0481	0.1008	0.131
Mof_C 	C 	0.1577	0.0709	0.2166	-0.23
Mof_C 	C 	0.2064	0.1431	0.1543	0.127
Mof_S 	S 	0.83765	0.70983	0.02746	-0.03
Mof_S 	S 	0.71149	0.93411	0.11888	-0.05
Mof_S 	S 	0.66235	0.29017	0.52746	-0.029
Mof_S 	S 	0.78851	0.06589	0.61888	-0.05
Mof_S 	S 	0.16235	0.29017	0.97254	-0.03
Mof_S 	S 	0.28851	0.06589	0.88112	-0.05
Mof_S 	S 	0.33765	0.70983	0.47254	-0.029
Mof_S 	S 	0.21149	0.93411	0.38112	-0.05
Mof_N 	N 	0.5019	0.3556	0.997	-0.216
Mof_N 	N 	0.7779	0.1328	0.4028	-0.196
Mof_N 	N 	0.9981	0.6444	0.497	-0.216
Mof_N 	N 	0.7221	0.8672	0.9028	-0.196
Mof_N 	N 	0.4981	0.6444	0.003	-0.216
Mof_N 	N 	0.2221	0.8672	0.5972	-0.196
Mof_N 	N 	0.0019	0.3556	0.503	-0.216
Mof_N 	N 	0.2779	0.1328	0.0972	-0.196
Mof_Cl	Cl	0.81436	0.33895	0.80027	-0.212
Mof_O 	O 	0.718	0.2608	0.7697	-0.072
Mof_O 	O 	0.835	0.3134	0.8812	-0.054
Mof_O 	O 	0.7966	0.4348	0.7994	-0.06
Mof_O 	O 	0.911	0.3486	0.7507	-0.07
Mof_Cl	Cl	0.68564	0.66105	0.30027	-0.212
Mof_O 	O 	0.782	0.7392	0.2697	-0.072
Mof_O 	O 	0.665	0.6866	0.3812	-0.054
Mof_O 	O 	0.7034	0.5652	0.2994	-0.06
Mof_O 	O 	0.589	0.6514	0.2507	-0.07
Mof_Cl	Cl	0.18564	0.66105	0.19973	-0.212
Mof_O 	O 	0.282	0.7392	0.2303	-0.072
Mof_O 	O 	0.165	0.6866	0.1188	-0.054
Mof_O 	O 	0.2034	0.5652	0.2006	-0.06
Mof_O 	O 	0.089	0.6514	0.2493	-0.07
Mof_Cl	Cl	0.31436	0.33895	0.69973	-0.212
Mof_O 	O 	0.218	0.2608	0.7303	-0.072
Mof_O 	O 	0.335	0.3134	0.6188	-0.054
Mof_O 	O 	0.2966	0.4348	0.7006	-0.06
Mof_O 	O 	0.411	0.3486	0.7493	-0.07
_end
