data_functionalizedCrystal
_audit_creation_method	'EQeq! by Chris Wilmer'
_symmetry_space_group_name_H-M	'P1'
_symmetry_Int_Tables_number	1
_symmetry_cell_setting	triclinic
loop_
_symmetry_equiv_pos_as_xyz
  x,y,z
_cell_length_a	20.269
_cell_length_b	20.269
_cell_length_c	39.645
_cell_angle_alpha	90
_cell_angle_beta	90
_cell_angle_gamma	90
loop_
_atom_site_label
_atom_site_type_symbol
_atom_site_fract_x
_atom_site_fract_y
_atom_site_fract_z
_atom_site_charge
Mof_Zn	Zn	0.83192	0.14543	0.70088	1.198
Mof_Zn	Zn	0.16808	0.85457	0.20088	1.198
Mof_Zn	Zn	0.85457	0.83192	0.95088	1.2
Mof_Zn	Zn	0.14543	0.16808	0.45088	1.197
Mof_Zn	Zn	0.16808	0.14543	0.29912	1.197
Mof_Zn	Zn	0.83192	0.85457	0.79912	1.2
Mof_Zn	Zn	0.14543	0.83192	0.04912	1.199
Mof_Zn	Zn	0.85457	0.16808	0.54912	1.199
Mof_Zn	Zn	0.83189	0	0.75	1.246
Mof_Zn	Zn	0.16811	0	0.25	1.246
Mof_Zn	Zn	-0	0.83189	-0	1.245
Mof_Zn	Zn	3.66681e-33	0.16811	0.5	1.246
Mof_H 	H 	0.8381	0.8866	0.6614	0.044
Mof_H 	H 	0.8578	0.8237	0.6133	0.065
Mof_H 	H 	0.8976	0.9918	0.5618	0.062
Mof_H 	H 	0.8783	0.0539	0.6107	0.044
Mof_H 	H 	0.8957	0.7037	0.5237	0.097
Mof_H 	H 	0.9341	0.6805	0.4237	0.092
Mof_H 	H 	0.9242	0.8646	0.4648	0.099
Mof_H 	H 	0.8402	0.4932	0.5315	0.079
Mof_H 	H 	0.8344	0.3831	0.5439	0.016
Mof_H 	H 	0.9484	0.3402	0.464	0.023
Mof_H 	H 	0.9608	0.4486	0.4529	0.083
Mof_H 	H 	0.0175	0.7408	0.3374	0.093
Mof_H 	H 	0.0646	0.7604	0.2857	-0
Mof_H 	H 	0.0152	0.9516	0.2929	0.022
Mof_H 	H 	0.9673	0.9324	0.3447	0.089
Mof_H 	H 	0.1619	0.1134	0.1614	0.001
Mof_H 	H 	0.1422	0.1763	0.1133	0.094
Mof_H 	H 	0.1024	0.0082	0.0618	0.097
Mof_H 	H 	0.1217	0.9461	0.1107	-0.021
Mof_H 	H 	0.1043	0.2963	0.0237	0.094
Mof_H 	H 	0.0659	0.3195	0.9237	0.088
Mof_H 	H 	0.0758	0.1354	0.9648	0.091
Mof_H 	H 	0.1598	0.5068	0.0315	0.08
Mof_H 	H 	0.1656	0.6169	0.0439	0.011
Mof_H 	H 	0.0516	0.6598	0.964	0.014
Mof_H 	H 	0.0392	0.5514	0.9529	0.079
Mof_H 	H 	0.9825	0.2592	0.8374	0.089
Mof_H 	H 	0.9354	0.2396	0.7857	0.006
Mof_H 	H 	0.9848	0.0484	0.7929	0.004
Mof_H 	H 	0.0327	0.0676	0.8447	0.094
Mof_H 	H 	0.1134	0.8381	0.9114	0.002
Mof_H 	H 	0.1763	0.8578	0.8633	0.098
Mof_H 	H 	0.0082	0.8976	0.8118	0.101
Mof_H 	H 	0.9461	0.8783	0.8607	-0.017
Mof_H 	H 	0.2963	0.8957	0.7737	0.093
Mof_H 	H 	0.3195	0.9341	0.6737	0.09
Mof_H 	H 	0.1354	0.9242	0.7148	0.091
Mof_H 	H 	0.5068	0.8402	0.7815	0.079
Mof_H 	H 	0.6169	0.8344	0.7939	0.016
Mof_H 	H 	0.6598	0.9484	0.714	0.023
Mof_H 	H 	0.5514	0.9608	0.7029	0.083
Mof_H 	H 	0.2592	0.0175	0.5874	0.094
Mof_H 	H 	0.2396	0.0646	0.5357	-0.002
Mof_H 	H 	0.0484	0.0152	0.5429	0.012
Mof_H 	H 	0.0676	0.9673	0.5947	0.086
Mof_H 	H 	0.8866	0.1619	0.4114	0.043
Mof_H 	H 	0.8237	0.1422	0.3633	0.062
Mof_H 	H 	0.9918	0.1024	0.3118	0.059
Mof_H 	H 	0.0539	0.1217	0.3607	0.04
Mof_H 	H 	0.7037	0.1043	0.2737	0.093
Mof_H 	H 	0.6805	0.0659	0.1737	0.087
Mof_H 	H 	0.8646	0.0758	0.2148	0.096
Mof_H 	H 	0.4932	0.1598	0.2815	0.077
Mof_H 	H 	0.3831	0.1656	0.2939	0.014
Mof_H 	H 	0.3402	0.0516	0.214	0.017
Mof_H 	H 	0.4486	0.0392	0.2029	0.076
Mof_H 	H 	0.7408	0.9825	0.0874	0.087
Mof_H 	H 	0.7604	0.9354	0.0357	0.008
Mof_H 	H 	0.9516	0.9848	0.0429	0.014
Mof_H 	H 	0.9324	0.0327	0.0947	0.097
Mof_H 	H 	0.1619	0.8866	0.3386	0.043
Mof_H 	H 	0.1422	0.8237	0.3867	0.062
Mof_H 	H 	0.1024	0.9918	0.4382	0.059
Mof_H 	H 	0.1217	0.0539	0.3893	0.04
Mof_H 	H 	0.1043	0.7037	0.4763	0.093
Mof_H 	H 	0.0659	0.6805	0.5763	0.087
Mof_H 	H 	0.0758	0.8646	0.5352	0.096
Mof_H 	H 	0.1598	0.4932	0.4685	0.077
Mof_H 	H 	0.1656	0.3831	0.4561	0.014
Mof_H 	H 	0.0516	0.3402	0.536	0.017
Mof_H 	H 	0.0392	0.4486	0.5471	0.076
Mof_H 	H 	0.9825	0.7408	0.6626	0.088
Mof_H 	H 	0.9354	0.7604	0.7143	0.008
Mof_H 	H 	0.9848	0.9516	0.7071	0.014
Mof_H 	H 	0.0327	0.9324	0.6553	0.098
Mof_H 	H 	0.8381	0.1134	0.8386	0.001
Mof_H 	H 	0.8578	0.1763	0.8867	0.099
Mof_H 	H 	0.8976	0.0082	0.9382	0.103
Mof_H 	H 	0.8783	0.9461	0.8893	-0.018
Mof_H 	H 	0.8957	0.2963	0.9763	0.089
Mof_H 	H 	0.9341	0.3195	0.0763	0.088
Mof_H 	H 	0.9242	0.1354	0.0352	0.088
Mof_H 	H 	0.8402	0.5068	0.9685	0.076
Mof_H 	H 	0.8344	0.6169	0.9561	0.019
Mof_H 	H 	0.9484	0.6598	0.036	0.026
Mof_H 	H 	0.9608	0.5514	0.0471	0.08
Mof_H 	H 	0.0175	0.2592	0.1626	0.094
Mof_H 	H 	0.0646	0.2396	0.2143	-0.002
Mof_H 	H 	0.0152	0.0484	0.2071	0.012
Mof_H 	H 	0.9673	0.0676	0.1553	0.086
Mof_H 	H 	0.8866	0.8381	0.0886	0.044
Mof_H 	H 	0.8237	0.8578	0.1367	0.064
Mof_H 	H 	0.9918	0.8976	0.1882	0.062
Mof_H 	H 	0.0539	0.8783	0.1393	0.044
Mof_H 	H 	0.7037	0.8957	0.2263	0.097
Mof_H 	H 	0.6805	0.9341	0.3263	0.092
Mof_H 	H 	0.8646	0.9242	0.2852	0.099
Mof_H 	H 	0.4932	0.8402	0.2185	0.079
Mof_H 	H 	0.3831	0.8344	0.2061	0.016
Mof_H 	H 	0.3402	0.9484	0.286	0.023
Mof_H 	H 	0.4486	0.9608	0.2971	0.083
Mof_H 	H 	0.7408	0.0175	0.4126	0.093
Mof_H 	H 	0.7604	0.0646	0.4643	-0
Mof_H 	H 	0.9516	0.0152	0.4571	0.022
Mof_H 	H 	0.9324	0.9673	0.4053	0.089
Mof_H 	H 	0.1134	0.1619	0.5886	0.001
Mof_H 	H 	0.1763	0.1422	0.6367	0.095
Mof_H 	H 	0.0082	0.1024	0.6882	0.098
Mof_H 	H 	0.9461	0.1217	0.6393	-0.021
Mof_H 	H 	0.2963	0.1043	0.7263	0.089
Mof_H 	H 	0.3195	0.0659	0.8263	0.085
Mof_H 	H 	0.1354	0.0758	0.7852	0.087
Mof_H 	H 	0.5068	0.1598	0.7185	0.077
Mof_H 	H 	0.6169	0.1656	0.7061	0.014
Mof_H 	H 	0.6598	0.0516	0.786	0.017
Mof_H 	H 	0.5514	0.0392	0.7971	0.076
Mof_H 	H 	0.2592	0.9825	0.9126	0.09
Mof_H 	H 	0.2396	0.9354	0.9643	0.006
Mof_H 	H 	0.0484	0.9848	0.9571	0.004
Mof_H 	H 	0.0676	0.0327	0.9053	0.095
Mof_C 	C 	0.84388	0.01444	0.67218	0.365
Mof_C 	C 	0.8558	0.97421	0.6404	-0.063
Mof_C 	C 	0.85019	0.9076	0.64118	0.013
Mof_C 	C 	0.86205	0.86985	0.61265	-0.086
Mof_C 	C 	0.88077	0.9026	0.58249	0.042
Mof_C 	C 	0.88593	0.9704	0.58192	-0.064
Mof_C 	C 	0.87409	0.00774	0.61093	-0.038
Mof_C 	C 	0.89277	0.86365	0.55212	-0
Mof_C 	C 	0.90075	0.8315	0.52792	-0.046
Mof_C 	C 	0.91096	0.7893	0.49908	0.119
Mof_C 	C 	0.906	0.7216	0.50244	-0.174
Mof_C 	C 	0.9157	0.6796	0.47555	0.121
Mof_C 	C 	0.92834	0.7078	0.4427	-0.162
Mof_C 	C 	0.93183	0.7757	0.43967	0.105
Mof_C 	C 	0.92264	0.81851	0.46737	-0.162
Mof_C 	C 	0.9094	0.6152	0.47893	-0.054
Mof_C 	C 	0.9075	0.556	0.4831	-0.013
Mof_C 	C 	0.899	0.4833	0.49131	0.08
Mof_C 	C 	0.8629	0.4625	0.51802	-0.143
Mof_C 	C 	0.8597	0.3971	0.52537	0.068
Mof_C 	C 	0.89244	0.351	0.50626	-0.134
Mof_C 	C 	0.9283	0.3717	0.47802	0.071
Mof_C 	C 	0.9341	0.4348	0.47098	-0.134
Mof_C 	C 	0.8895	0.2777	0.51641	0.393
Mof_C 	C 	0.9482	0.80293	0.40655	-0.025
Mof_C 	C 	0.96387	0.81853	0.37946	-0.037
Mof_C 	C 	0.98873	0.8346	0.34572	0.128
Mof_C 	C 	0.0176	0.7837	0.32837	-0.2
Mof_C 	C 	0.04664	0.7958	0.29799	0.113
Mof_C 	C 	0.05026	0.8574	0.28504	-0.173
Mof_C 	C 	0.01694	0.90924	0.30245	0.063
Mof_C 	C 	0.98776	0.8979	0.33275	-0.141
Mof_C 	C 	0.0867	0.8738	0.25265	0.441
Mof_C 	C 	0.15612	0.98556	0.17218	0.482
Mof_C 	C 	0.1442	0.02579	0.1404	-0.232
Mof_C 	C 	0.14981	0.0924	0.14118	0.131
Mof_C 	C 	0.13795	0.13015	0.11265	-0.187
Mof_C 	C 	0.11923	0.0974	0.08249	0.123
Mof_C 	C 	0.11407	0.0296	0.08192	-0.22
Mof_C 	C 	0.12591	0.99226	0.11093	0.155
Mof_C 	C 	0.10723	0.13635	0.05212	-0.045
Mof_C 	C 	0.09925	0.1685	0.02792	-0.038
Mof_C 	C 	0.08904	0.2107	0.99908	0.112
Mof_C 	C 	0.094	0.2784	0.00244	-0.182
Mof_C 	C 	0.0843	0.3204	0.97555	0.119
Mof_C 	C 	0.07166	0.2922	0.9427	-0.166
Mof_C 	C 	0.06817	0.2243	0.93967	0.101
Mof_C 	C 	0.07736	0.18149	0.96737	-0.164
Mof_C 	C 	0.0906	0.3848	0.97893	-0.058
Mof_C 	C 	0.0925	0.444	0.9831	-0.021
Mof_C 	C 	0.101	0.5167	0.99131	0.086
Mof_C 	C 	0.1371	0.5375	0.01802	-0.157
Mof_C 	C 	0.1403	0.6029	0.02537	0.076
Mof_C 	C 	0.10756	0.649	0.00626	-0.147
Mof_C 	C 	0.0717	0.6283	0.97802	0.08
Mof_C 	C 	0.0659	0.5652	0.97098	-0.147
Mof_C 	C 	0.1105	0.7223	0.01641	0.39
Mof_C 	C 	0.0518	0.19707	0.90655	-0.035
Mof_C 	C 	0.03613	0.18147	0.87946	-0.04
Mof_C 	C 	0.01127	0.1654	0.84572	0.1
Mof_C 	C 	0.9824	0.2163	0.82837	-0.156
Mof_C 	C 	0.95336	0.2042	0.79799	0.107
Mof_C 	C 	0.94974	0.1426	0.78504	-0.181
Mof_C 	C 	0.98306	0.09076	0.80245	0.118
Mof_C 	C 	0.01224	0.1021	0.83275	-0.191
Mof_C 	C 	0.9133	0.1262	0.75265	0.45
Mof_C 	C 	0.98556	0.84388	0.92218	0.481
Mof_C 	C 	0.02579	0.8558	0.8904	-0.229
Mof_C 	C 	0.0924	0.85019	0.89118	0.134
Mof_C 	C 	0.13015	0.86205	0.86265	-0.186
Mof_C 	C 	0.0974	0.88077	0.83249	0.13
Mof_C 	C 	0.0296	0.88593	0.83192	-0.218
Mof_C 	C 	0.99226	0.87409	0.86093	0.158
Mof_C 	C 	0.13635	0.89277	0.80212	-0.043
Mof_C 	C 	0.1685	0.90075	0.77792	-0.024
Mof_C 	C 	0.2107	0.91096	0.74908	0.102
Mof_C 	C 	0.2784	0.906	0.75244	-0.163
Mof_C 	C 	0.3204	0.9157	0.72555	0.114
Mof_C 	C 	0.2922	0.92834	0.6927	-0.157
Mof_C 	C 	0.2243	0.93183	0.68967	0.098
Mof_C 	C 	0.18149	0.92264	0.71737	-0.153
Mof_C 	C 	0.3848	0.9094	0.72893	-0.052
Mof_C 	C 	0.444	0.9075	0.7331	-0.014
Mof_C 	C 	0.5167	0.899	0.74131	0.08
Mof_C 	C 	0.5375	0.8629	0.76802	-0.143
Mof_C 	C 	0.6029	0.8597	0.77537	0.069
Mof_C 	C 	0.649	0.89244	0.75626	-0.133
Mof_C 	C 	0.6283	0.9283	0.72802	0.072
Mof_C 	C 	0.5652	0.9341	0.72098	-0.135
Mof_C 	C 	0.7223	0.8895	0.76641	0.393
Mof_C 	C 	0.19707	0.9482	0.65655	-0.023
Mof_C 	C 	0.18147	0.96387	0.62946	-0.04
Mof_C 	C 	0.1654	0.98873	0.59572	0.131
Mof_C 	C 	0.2163	0.0176	0.57837	-0.204
Mof_C 	C 	0.2042	0.04664	0.54799	0.117
Mof_C 	C 	0.1426	0.05026	0.53504	-0.178
Mof_C 	C 	0.09076	0.01694	0.55245	0.068
Mof_C 	C 	0.1021	0.98776	0.58275	-0.146
Mof_C 	C 	0.1262	0.0867	0.50265	0.446
Mof_C 	C 	0.01444	0.15612	0.42218	0.365
Mof_C 	C 	0.97421	0.1442	0.3904	-0.066
Mof_C 	C 	0.9076	0.14981	0.39118	0.011
Mof_C 	C 	0.86985	0.13795	0.36265	-0.089
Mof_C 	C 	0.9026	0.11923	0.33249	0.038
Mof_C 	C 	0.9704	0.11407	0.33192	-0.067
Mof_C 	C 	0.00774	0.12591	0.36093	-0.04
Mof_C 	C 	0.86365	0.10723	0.30212	-0.006
Mof_C 	C 	0.8315	0.09925	0.27792	-0.051
Mof_C 	C 	0.7893	0.08904	0.24908	0.114
Mof_C 	C 	0.7216	0.094	0.25244	-0.175
Mof_C 	C 	0.6796	0.0843	0.22555	0.115
Mof_C 	C 	0.7078	0.07166	0.1927	-0.165
Mof_C 	C 	0.7757	0.06817	0.18967	0.102
Mof_C 	C 	0.81851	0.07736	0.21737	-0.165
Mof_C 	C 	0.6152	0.0906	0.22893	-0.058
Mof_C 	C 	0.556	0.0925	0.2331	-0.02
Mof_C 	C 	0.4833	0.101	0.24131	0.077
Mof_C 	C 	0.4625	0.1371	0.26802	-0.146
Mof_C 	C 	0.3971	0.1403	0.27537	0.067
Mof_C 	C 	0.351	0.10756	0.25626	-0.138
Mof_C 	C 	0.3717	0.0717	0.22802	0.069
Mof_C 	C 	0.4348	0.0659	0.22098	-0.139
Mof_C 	C 	0.2777	0.1105	0.26641	0.392
Mof_C 	C 	0.80293	0.0518	0.15655	-0.035
Mof_C 	C 	0.81853	0.03613	0.12946	-0.037
Mof_C 	C 	0.8346	0.01127	0.09572	0.096
Mof_C 	C 	0.7837	0.9824	0.07837	-0.151
Mof_C 	C 	0.7958	0.95336	0.04799	0.1
Mof_C 	C 	0.8574	0.94974	0.03504	-0.173
Mof_C 	C 	0.90924	0.98306	0.05245	0.112
Mof_C 	C 	0.8979	0.01224	0.08275	-0.185
Mof_C 	C 	0.8738	0.9133	0.00265	0.436
Mof_C 	C 	0.15612	0.01444	0.32782	0.365
Mof_C 	C 	0.1442	0.97421	0.3596	-0.066
Mof_C 	C 	0.14981	0.9076	0.35882	0.011
Mof_C 	C 	0.13795	0.86985	0.38735	-0.089
Mof_C 	C 	0.11923	0.9026	0.41751	0.039
Mof_C 	C 	0.11407	0.9704	0.41808	-0.068
Mof_C 	C 	0.12591	0.00774	0.38907	-0.04
Mof_C 	C 	0.10723	0.86365	0.44788	-0.006
Mof_C 	C 	0.09925	0.8315	0.47208	-0.051
Mof_C 	C 	0.08904	0.7893	0.50092	0.114
Mof_C 	C 	0.094	0.7216	0.49756	-0.175
Mof_C 	C 	0.0843	0.6796	0.52445	0.115
Mof_C 	C 	0.07166	0.7078	0.5573	-0.164
Mof_C 	C 	0.06817	0.7757	0.56033	0.102
Mof_C 	C 	0.07736	0.81851	0.53263	-0.165
Mof_C 	C 	0.0906	0.6152	0.52107	-0.058
Mof_C 	C 	0.0925	0.556	0.5169	-0.02
Mof_C 	C 	0.101	0.4833	0.50869	0.077
Mof_C 	C 	0.1371	0.4625	0.48198	-0.146
Mof_C 	C 	0.1403	0.3971	0.47463	0.067
Mof_C 	C 	0.10756	0.351	0.49374	-0.138
Mof_C 	C 	0.0717	0.3717	0.52198	0.069
Mof_C 	C 	0.0659	0.4348	0.52902	-0.139
Mof_C 	C 	0.1105	0.2777	0.48359	0.392
Mof_C 	C 	0.0518	0.80293	0.59345	-0.035
Mof_C 	C 	0.03613	0.81853	0.62054	-0.038
Mof_C 	C 	0.01127	0.8346	0.65428	0.097
Mof_C 	C 	0.9824	0.7837	0.67163	-0.153
Mof_C 	C 	0.95336	0.7958	0.70201	0.103
Mof_C 	C 	0.94974	0.8574	0.71496	-0.176
Mof_C 	C 	0.98306	0.90924	0.69755	0.114
Mof_C 	C 	0.01224	0.8979	0.66725	-0.187
Mof_C 	C 	0.9133	0.8738	0.74735	0.445
Mof_C 	C 	0.84388	0.98556	0.82782	0.483
Mof_C 	C 	0.8558	0.02579	0.8596	-0.232
Mof_C 	C 	0.85019	0.0924	0.85882	0.136
Mof_C 	C 	0.86205	0.13015	0.88735	-0.189
Mof_C 	C 	0.88077	0.0974	0.91751	0.134
Mof_C 	C 	0.88593	0.0296	0.91808	-0.221
Mof_C 	C 	0.87409	0.99226	0.88907	0.16
Mof_C 	C 	0.89277	0.13635	0.94788	-0.048
Mof_C 	C 	0.90075	0.1685	0.97208	-0.016
Mof_C 	C 	0.91096	0.2107	0.00092	0.088
Mof_C 	C 	0.906	0.2784	0.99756	-0.148
Mof_C 	C 	0.9157	0.3204	0.02445	0.104
Mof_C 	C 	0.92834	0.2922	0.0573	-0.151
Mof_C 	C 	0.93183	0.2243	0.06033	0.092
Mof_C 	C 	0.92264	0.18149	0.03263	-0.145
Mof_C 	C 	0.9094	0.3848	0.02107	-0.049
Mof_C 	C 	0.9075	0.444	0.0169	-0.015
Mof_C 	C 	0.899	0.5167	0.00869	0.073
Mof_C 	C 	0.8629	0.5375	0.98198	-0.133
Mof_C 	C 	0.8597	0.6029	0.97463	0.061
Mof_C 	C 	0.89244	0.649	0.99374	-0.126
Mof_C 	C 	0.9283	0.6283	0.02198	0.062
Mof_C 	C 	0.9341	0.5652	0.02902	-0.128
Mof_C 	C 	0.8895	0.7223	0.98359	0.394
Mof_C 	C 	0.9482	0.19707	0.09345	-0.021
Mof_C 	C 	0.96387	0.18147	0.12054	-0.042
Mof_C 	C 	0.98873	0.1654	0.15428	0.132
Mof_C 	C 	0.0176	0.2163	0.17163	-0.205
Mof_C 	C 	0.04664	0.2042	0.20201	0.118
Mof_C 	C 	0.05026	0.1426	0.21496	-0.178
Mof_C 	C 	0.01694	0.09076	0.19755	0.068
Mof_C 	C 	0.98776	0.1021	0.16725	-0.147
Mof_C 	C 	0.0867	0.1262	0.24735	0.446
Mof_C 	C 	0.01444	0.84388	0.07782	0.365
Mof_C 	C 	0.97421	0.8558	0.1096	-0.062
Mof_C 	C 	0.9076	0.85019	0.10882	0.012
Mof_C 	C 	0.86985	0.86205	0.13735	-0.086
Mof_C 	C 	0.9026	0.88077	0.16751	0.042
Mof_C 	C 	0.9704	0.88593	0.16808	-0.064
Mof_C 	C 	0.00774	0.87409	0.13907	-0.039
Mof_C 	C 	0.86365	0.89277	0.19788	-0
Mof_C 	C 	0.8315	0.90075	0.22208	-0.047
Mof_C 	C 	0.7893	0.91096	0.25092	0.119
Mof_C 	C 	0.7216	0.906	0.24756	-0.174
Mof_C 	C 	0.6796	0.9157	0.27445	0.121
Mof_C 	C 	0.7078	0.92834	0.3073	-0.162
Mof_C 	C 	0.7757	0.93183	0.31033	0.105
Mof_C 	C 	0.81851	0.92264	0.28263	-0.162
Mof_C 	C 	0.6152	0.9094	0.27107	-0.054
Mof_C 	C 	0.556	0.9075	0.2669	-0.013
Mof_C 	C 	0.4833	0.899	0.25869	0.08
Mof_C 	C 	0.4625	0.8629	0.23198	-0.143
Mof_C 	C 	0.3971	0.8597	0.22463	0.068
Mof_C 	C 	0.351	0.89244	0.24374	-0.134
Mof_C 	C 	0.3717	0.9283	0.27198	0.072
Mof_C 	C 	0.4348	0.9341	0.27902	-0.134
Mof_C 	C 	0.2777	0.8895	0.23359	0.393
Mof_C 	C 	0.80293	0.9482	0.34345	-0.025
Mof_C 	C 	0.81853	0.96387	0.37054	-0.037
Mof_C 	C 	0.8346	0.98873	0.40428	0.128
Mof_C 	C 	0.7837	0.0176	0.42163	-0.2
Mof_C 	C 	0.7958	0.04664	0.45201	0.113
Mof_C 	C 	0.8574	0.05026	0.46496	-0.173
Mof_C 	C 	0.90924	0.01694	0.44755	0.063
Mof_C 	C 	0.8979	0.98776	0.41725	-0.141
Mof_C 	C 	0.8738	0.0867	0.49735	0.441
Mof_C 	C 	0.98556	0.15612	0.57782	0.482
Mof_C 	C 	0.02579	0.1442	0.6096	-0.233
Mof_C 	C 	0.0924	0.14981	0.60882	0.133
Mof_C 	C 	0.13015	0.13795	0.63735	-0.189
Mof_C 	C 	0.0974	0.11923	0.66751	0.127
Mof_C 	C 	0.0296	0.11407	0.66808	-0.222
Mof_C 	C 	0.99226	0.12591	0.63907	0.157
Mof_C 	C 	0.13635	0.10723	0.69788	-0.05
Mof_C 	C 	0.1685	0.09925	0.72208	-0.029
Mof_C 	C 	0.2107	0.08904	0.75092	0.097
Mof_C 	C 	0.2784	0.094	0.74756	-0.165
Mof_C 	C 	0.3204	0.0843	0.77445	0.108
Mof_C 	C 	0.2922	0.07166	0.8073	-0.159
Mof_C 	C 	0.2243	0.06817	0.81033	0.095
Mof_C 	C 	0.18149	0.07736	0.78263	-0.155
Mof_C 	C 	0.3848	0.0906	0.77107	-0.055
Mof_C 	C 	0.444	0.0925	0.7669	-0.021
Mof_C 	C 	0.5167	0.101	0.75869	0.077
Mof_C 	C 	0.5375	0.1371	0.73198	-0.146
Mof_C 	C 	0.6029	0.1403	0.72463	0.068
Mof_C 	C 	0.649	0.10756	0.74374	-0.138
Mof_C 	C 	0.6283	0.0717	0.77198	0.069
Mof_C 	C 	0.5652	0.0659	0.77902	-0.139
Mof_C 	C 	0.7223	0.1105	0.73359	0.392
Mof_C 	C 	0.19707	0.0518	0.84345	-0.033
Mof_C 	C 	0.18147	0.03613	0.87054	-0.042
Mof_C 	C 	0.1654	0.01127	0.90428	0.102
Mof_C 	C 	0.2163	0.9824	0.92163	-0.159
Mof_C 	C 	0.2042	0.95336	0.95201	0.11
Mof_C 	C 	0.1426	0.94974	0.96496	-0.184
Mof_C 	C 	0.09076	0.98306	0.94755	0.122
Mof_C 	C 	0.1021	0.01224	0.91725	-0.194
Mof_C 	C 	0.1262	0.9133	0.99735	0.459
Mof_O 	O 	0.83032	0.9842	0.69834	-0.425
Mof_O 	O 	0.84964	0.07614	0.66866	-0.507
Mof_O 	O 	0.85098	0.26315	0.53889	-0.505
Mof_O 	O 	0.9285	0.23936	0.49992	-0.459
Mof_O 	O 	0.10922	0.82671	0.23726	-0.521
Mof_O 	O 	0.09326	0.9308	0.24296	-0.488
Mof_O 	O 	0.16968	0.0158	0.19834	-0.48
Mof_O 	O 	0.15036	0.92386	0.16866	-0.535
Mof_O 	O 	0.14902	0.73685	0.03889	-0.507
Mof_O 	O 	0.0715	0.76064	0.99992	-0.463
Mof_O 	O 	0.89078	0.17329	0.73726	-0.519
Mof_O 	O 	0.90674	0.0692	0.74296	-0.497
Mof_O 	O 	0.0158	0.83032	0.94834	-0.479
Mof_O 	O 	0.92386	0.84964	0.91866	-0.53
Mof_O 	O 	0.73685	0.85098	0.78889	-0.503
Mof_O 	O 	0.76064	0.9285	0.74992	-0.459
Mof_O 	O 	0.17329	0.10922	0.48726	-0.523
Mof_O 	O 	0.0692	0.09326	0.49296	-0.5
Mof_O 	O 	0.9842	0.16968	0.44834	-0.425
Mof_O 	O 	0.07614	0.15036	0.41866	-0.512
Mof_O 	O 	0.26315	0.14902	0.28889	-0.508
Mof_O 	O 	0.23936	0.0715	0.24992	-0.467
Mof_O 	O 	0.82671	0.89078	0.98726	-0.512
Mof_O 	O 	0.9308	0.90674	0.99296	-0.481
Mof_O 	O 	0.16968	0.9842	0.30166	-0.425
Mof_O 	O 	0.15036	0.07614	0.33134	-0.512
Mof_O 	O 	0.14902	0.26315	0.46111	-0.508
Mof_O 	O 	0.0715	0.23936	0.50008	-0.467
Mof_O 	O 	0.89078	0.82671	0.76274	-0.517
Mof_O 	O 	0.90674	0.9308	0.75704	-0.486
Mof_O 	O 	0.83032	0.0158	0.80166	-0.48
Mof_O 	O 	0.84964	0.92386	0.83134	-0.53
Mof_O 	O 	0.85098	0.73685	0.96111	-0.503
Mof_O 	O 	0.9285	0.76064	8e-05	-0.462
Mof_O 	O 	0.10922	0.17329	0.26274	-0.523
Mof_O 	O 	0.09326	0.0692	0.25704	-0.5
Mof_O 	O 	0.9842	0.83032	0.05166	-0.425
Mof_O 	O 	0.07614	0.84964	0.08134	-0.507
Mof_O 	O 	0.26315	0.85098	0.21111	-0.505
Mof_O 	O 	0.23936	0.9285	0.25008	-0.459
Mof_O 	O 	0.82671	0.10922	0.51274	-0.521
Mof_O 	O 	0.9308	0.09326	0.50704	-0.488
Mof_O 	O 	0.0158	0.16968	0.55166	-0.481
Mof_O 	O 	0.92386	0.15036	0.58134	-0.535
Mof_O 	O 	0.73685	0.14902	0.71111	-0.506
Mof_O 	O 	0.76064	0.0715	0.75008	-0.467
Mof_O 	O 	0.17329	0.89078	0.01274	-0.524
Mof_O 	O 	0.0692	0.90674	0.00704	-0.502
_end
