# CIF file generated by openbabel 3.1.0, see https://openbabel.org
data_I
_chemical_name_common 'HAFTOZ_clean'
_cell_length_a 18.7318
_cell_length_b 18.7318
_cell_length_c 18.7318
_cell_angle_alpha 60
_cell_angle_beta 60
_cell_angle_gamma 60
_space_group_name_H-M_alt 'P 1'
_space_group_name_Hall 'P 1'
loop_
    _symmetry_equiv_pos_as_xyz
    x,y,z
loop_
    _atom_site_label
    _atom_site_type_symbol
    _atom_site_fract_x
    _atom_site_fract_y
    _atom_site_fract_z
    _atom_site_occupancy
    Ni1      Ni       0.84004    0.05332    0.05332    1.000
    Ni2      Ni       0.05332    0.84004    0.05332    1.000
    Ni3      Ni       0.05332    0.05332    0.84004    1.000
    Ni4      Ni       0.05332    0.05332    0.05332    1.000
    Ni5      Ni       0.94668    0.15996    0.94668    1.000
    Ni6      Ni       0.15996    0.94668    0.94668    1.000
    Ni7      Ni       0.94668    0.94668    0.15996    1.000
    Ni8      Ni       0.94668    0.94668    0.94668    1.000
    H1       H        0.62940    0.07564    0.07564    1.000
    H2       H        0.07564    0.62940    0.21932    1.000
    H3       H        0.07564    0.21932    0.62940    1.000
    H4       H        0.21932    0.07564    0.07564    1.000
    H5       H        0.62940    0.07564    0.21932    1.000
    H6       H        0.07564    0.21932    0.07564    1.000
    H7       H        0.07564    0.62940    0.07564    1.000
    H8       H        0.21932    0.07564    0.62940    1.000
    H9       H        0.62940    0.21932    0.07564    1.000
    H10      H        0.07564    0.07564    0.62940    1.000
    H11      H        0.07564    0.07564    0.21932    1.000
    H12      H        0.21932    0.62940    0.07564    1.000
    H13      H        0.92436    0.37060    0.92436    1.000
    H14      H        0.37060    0.92436    0.78068    1.000
    H15      H        0.78068    0.92436    0.37060    1.000
    H16      H        0.92436    0.78068    0.92436    1.000
    H17      H        0.92436    0.37060    0.78068    1.000
    H18      H        0.78068    0.92436    0.92436    1.000
    H19      H        0.37060    0.92436    0.92436    1.000
    H20      H        0.92436    0.78068    0.37060    1.000
    H21      H        0.78068    0.37060    0.92436    1.000
    H22      H        0.92436    0.92436    0.37060    1.000
    H23      H        0.92436    0.92436    0.78068    1.000
    H24      H        0.37060    0.78068    0.92436    1.000
    C1       C        0.53710    0.00000    0.00000    1.000
    C2       C        0.60384    0.00000    0.00000    1.000
    C3       C        0.67804    0.00000    0.00000    1.000
    C4       C        0.00000    0.53710    0.46290    1.000
    C5       C        0.00000    0.60384    0.39616    1.000
    C6       C        0.00000    0.67804    0.32196    1.000
    C7       C        0.00000    0.46290    0.53710    1.000
    C8       C        0.00000    0.39616    0.60384    1.000
    C9       C        0.00000    0.32196    0.67804    1.000
    C10      C        0.46290    0.00000    0.00000    1.000
    C11      C        0.39616    0.00000    0.00000    1.000
    C12      C        0.32196    0.00000    0.00000    1.000
    C13      C        0.53710    0.00000    0.46290    1.000
    C14      C        0.60384    0.00000    0.39616    1.000
    C15      C        0.67804    0.00000    0.32196    1.000
    C16      C        0.00000    0.46290    0.00000    1.000
    C17      C        0.00000    0.39616    0.00000    1.000
    C18      C        0.00000    0.32196    0.00000    1.000
    C19      C        0.00000    0.53710    0.00000    1.000
    C20      C        0.00000    0.60384    0.00000    1.000
    C21      C        0.00000    0.67804    0.00000    1.000
    C22      C        0.46290    0.00000    0.53710    1.000
    C23      C        0.39616    0.00000    0.60384    1.000
    C24      C        0.32196    0.00000    0.67804    1.000
    C25      C        0.53710    0.46290    0.00000    1.000
    C26      C        0.60384    0.39616    0.00000    1.000
    C27      C        0.67804    0.32196    0.00000    1.000
    C28      C        0.00000    0.00000    0.53710    1.000
    C29      C        0.00000    0.00000    0.60384    1.000
    C30      C        0.00000    0.00000    0.67804    1.000
    C31      C        0.00000    0.00000    0.46290    1.000
    C32      C        0.00000    0.00000    0.39616    1.000
    C33      C        0.00000    0.00000    0.32196    1.000
    C34      C        0.46290    0.53710    0.00000    1.000
    C35      C        0.39616    0.60384    0.00000    1.000
    C36      C        0.32196    0.67804    0.00000    1.000
    C37      C        0.67919    0.04153    0.04153    1.000
    C38      C        0.04153    0.67919    0.23775    1.000
    C39      C        0.04153    0.23775    0.67919    1.000
    C40      C        0.23775    0.04153    0.04153    1.000
    C41      C        0.67919    0.04153    0.23775    1.000
    C42      C        0.04153    0.23775    0.04153    1.000
    C43      C        0.04153    0.67919    0.04153    1.000
    C44      C        0.23775    0.04153    0.67919    1.000
    C45      C        0.67919    0.23775    0.04153    1.000
    C46      C        0.04153    0.04153    0.67919    1.000
    C47      C        0.04153    0.04153    0.23775    1.000
    C48      C        0.23775    0.67919    0.04153    1.000
    C49      C        0.95847    0.32081    0.95847    1.000
    C50      C        0.32081    0.95847    0.76225    1.000
    C51      C        0.76225    0.95847    0.32081    1.000
    C52      C        0.95847    0.76225    0.95847    1.000
    C53      C        0.95847    0.32081    0.76225    1.000
    C54      C        0.76225    0.95847    0.95847    1.000
    C55      C        0.32081    0.95847    0.95847    1.000
    C56      C        0.95847    0.76225    0.32081    1.000
    C57      C        0.76225    0.32081    0.95847    1.000
    C58      C        0.95847    0.95847    0.32081    1.000
    C59      C        0.95847    0.95847    0.76225    1.000
    C60      C        0.32081    0.76225    0.95847    1.000
    N1       N        0.76409    0.02567    0.02567    1.000
    N2       N        0.02567    0.76409    0.18457    1.000
    N3       N        0.02567    0.18457    0.76409    1.000
    N4       N        0.18457    0.02567    0.02567    1.000
    N5       N        0.76409    0.02567    0.18457    1.000
    N6       N        0.02567    0.18457    0.02567    1.000
    N7       N        0.02567    0.76409    0.02567    1.000
    N8       N        0.18457    0.02567    0.76409    1.000
    N9       N        0.76409    0.18457    0.02567    1.000
    N10      N        0.02567    0.02567    0.76409    1.000
    N11      N        0.02567    0.02567    0.18457    1.000
    N12      N        0.18457    0.76409    0.02567    1.000
    N13      N        0.97433    0.23591    0.97433    1.000
    N14      N        0.23591    0.97433    0.81543    1.000
    N15      N        0.81543    0.97433    0.23591    1.000
    N16      N        0.97433    0.81543    0.97433    1.000
    N17      N        0.97433    0.23591    0.81543    1.000
    N18      N        0.81543    0.97433    0.97433    1.000
    N19      N        0.23591    0.97433    0.97433    1.000
    N20      N        0.97433    0.81543    0.23591    1.000
    N21      N        0.81543    0.23591    0.97433    1.000
    N22      N        0.97433    0.97433    0.23591    1.000
    N23      N        0.97433    0.97433    0.81543    1.000
    N24      N        0.23591    0.81543    0.97433    1.000
