data_functionalizedCrystal
_audit_creation_method	'EQeq! by Chris Wilmer'
_symmetry_space_group_name_H-M	'P1'
_symmetry_Int_Tables_number	1
_symmetry_cell_setting	triclinic
loop_
_symmetry_equiv_pos_as_xyz
  x,y,z
_cell_length_a	29.8541
_cell_length_b	20.9459
_cell_length_c	19.3789
_cell_angle_alpha	90
_cell_angle_beta	94.071
_cell_angle_gamma	90
loop_
_atom_site_label
_atom_site_type_symbol
_atom_site_fract_x
_atom_site_fract_y
_atom_site_fract_z
_atom_site_charge
Mof_Yb	Yb	0.27693	0.1758	0.05712	1.707
Mof_Yb	Yb	0.18218	0.82912	0.96305	1.607
Mof_O 	O 	0.3399	0.1048	0.0704	-0.404
Mof_O 	O 	0.2774	0.0707	0.0194	-0.424
Mof_O 	O 	0.257	0.8399	0.9667	-0.509
Mof_O 	O 	0.3083	0.7714	0.0034	-0.543
Mof_O 	O 	0.62908	0.7239	0.3819	-0.393
Mof_O 	O 	0.69716	0.7086	0.3529	-0.397
Mof_O 	O 	0.68946	0.8081	0.0446	-0.47
Mof_O 	O 	0.73191	0.7433	0.1113	-0.52
Mof_O 	O 	0.1912	0.9431	0.9749	-0.427
Mof_O 	O 	0.1489	0.9077	0.8919	-0.427
Mof_O 	O 	0.2166	0.1844	0.9815	-0.539
Mof_O 	O 	0.17325	0.2434	0.9124	-0.485
Mof_C 	C 	0.3167	0.0601	0.0447	0.323
Mof_C 	C 	0.334	0.9937	0.0468	-0.093
Mof_C 	C 	0.3768	0.9805	0.0766	-0.017
Mof_H 	H 	0.3949	0.0136	0.0943	0.054
Mof_C 	C 	0.3928	0.9174	0.0803	-0.005
Mof_C 	C 	0.3651	0.8682	0.054	0.016
Mof_H 	H 	0.3754	0.8263	0.0566	0.035
Mof_C 	C 	0.3226	0.8811	0.0239	-0.166
Mof_C 	C 	0.3069	0.9433	0.0191	0.056
Mof_H 	H 	0.2787	0.9518	0.9977	0.036
Mof_C 	C 	0.2941	0.8263	0.9955	0.52
Mof_C 	C 	0.4368	0.9035	0.1113	-0.011
Mof_C 	C 	0.4732	0.8866	0.1341	-0.005
Mof_C 	C 	0.5149	0.8644	0.1578	-0.003
Mof_C 	C 	0.5512	0.8437	0.1771	-0.011
Mof_C 	C 	0.5929	0.816	0.192	-0.001
Mof_C 	C 	0.6055	0.7883	0.257	-0.016
Mof_H 	H 	0.5857	0.7906	0.2919	0.055
Mof_C 	C 	0.6459	0.7582	0.2701	-0.095
Mof_C 	C 	0.6763	0.7557	0.2198	0.055
Mof_H 	H 	0.7039	0.7359	0.2294	0.024
Mof_C 	C 	0.6661	0.7826	0.1542	-0.15
Mof_C 	C 	0.625	0.8123	0.1413	0.008
Mof_H 	H 	0.6181	0.8304	0.098	0.048
Mof_C 	C 	0.6582	0.7282	0.3387	0.339
Mof_C 	C 	0.6984	0.7785	0.0993	0.485
Mof_C 	C 	0.1639	0.9538	0.9263	0.365
Mof_C 	C 	0.1487	0.0191	0.9076	-0.116
Mof_C 	C 	0.1729	0.0723	0.9323	0.062
Mof_H 	H 	0.1988	0.067	0.9611	0.028
Mof_C 	C 	0.1582	0.1327	0.9138	-0.147
Mof_C 	C 	0.1193	0.1415	0.8725	0.005
Mof_H 	H 	0.1096	0.1824	0.8604	0.043
Mof_C 	C 	0.0946	0.0887	0.8489	-0.008
Mof_C 	C 	0.1105	0.0264	0.8658	-0.007
Mof_H 	H 	0.0949	0.9908	0.8484	0.047
Mof_C 	C 	0.1847	0.1916	0.938	0.486
Mof_C 	C 	0.0541	0.0956	0.8051	-0.017
Mof_C 	C 	0.0202	0.0976	0.7709	-0.012
Mof_Yb	Yb	0.77693	0.6758	0.05712	1.71
Mof_Yb	Yb	0.68218	0.32912	0.96305	1.609
Mof_O 	O 	0.8399	0.6048	0.0704	-0.403
Mof_O 	O 	0.7774	0.5707	0.0194	-0.423
Mof_O 	O 	0.757	0.3399	0.9667	-0.508
Mof_O 	O 	0.8083	0.2714	0.0034	-0.544
Mof_O 	O 	0.12908	0.2239	0.3819	-0.392
Mof_O 	O 	0.19716	0.2086	0.3529	-0.396
Mof_O 	O 	0.18946	0.3081	0.0446	-0.47
Mof_O 	O 	0.23191	0.2433	0.1113	-0.519
Mof_O 	O 	0.6912	0.4431	0.9749	-0.426
Mof_O 	O 	0.6489	0.4077	0.8919	-0.426
Mof_O 	O 	0.7166	0.6844	0.9815	-0.539
Mof_O 	O 	0.67325	0.7434	0.9124	-0.484
Mof_C 	C 	0.8167	0.5601	0.0447	0.325
Mof_C 	C 	0.834	0.4937	0.0468	-0.092
Mof_C 	C 	0.8768	0.4805	0.0766	-0.02
Mof_H 	H 	0.8949	0.5136	0.0943	0.056
Mof_C 	C 	0.8928	0.4174	0.0803	-0.004
Mof_C 	C 	0.8651	0.3682	0.054	0.016
Mof_H 	H 	0.8754	0.3263	0.0566	0.034
Mof_C 	C 	0.8226	0.3811	0.0239	-0.167
Mof_C 	C 	0.8069	0.4433	0.0191	0.054
Mof_H 	H 	0.7787	0.4518	0.9977	0.038
Mof_C 	C 	0.7941	0.3263	0.9955	0.523
Mof_C 	C 	0.9368	0.4035	0.1113	-0.011
Mof_C 	C 	0.9732	0.3866	0.1341	-0.005
Mof_C 	C 	0.0149	0.3644	0.1578	-0.004
Mof_C 	C 	0.0512	0.3437	0.1771	-0.011
Mof_C 	C 	0.0929	0.316	0.192	-0.001
Mof_C 	C 	0.1055	0.2883	0.257	-0.015
Mof_H 	H 	0.0857	0.2906	0.2919	0.055
Mof_C 	C 	0.1459	0.2582	0.2701	-0.095
Mof_C 	C 	0.1763	0.2557	0.2198	0.055
Mof_H 	H 	0.2039	0.2359	0.2294	0.024
Mof_C 	C 	0.1661	0.2826	0.1542	-0.15
Mof_C 	C 	0.125	0.3123	0.1413	0.008
Mof_H 	H 	0.1181	0.3304	0.098	0.048
Mof_C 	C 	0.1582	0.2282	0.3387	0.339
Mof_C 	C 	0.1984	0.2785	0.0993	0.485
Mof_C 	C 	0.6639	0.4538	0.9263	0.366
Mof_C 	C 	0.6487	0.5191	0.9076	-0.117
Mof_C 	C 	0.6729	0.5723	0.9323	0.062
Mof_H 	H 	0.6988	0.567	0.9611	0.027
Mof_C 	C 	0.6582	0.6327	0.9138	-0.147
Mof_C 	C 	0.6193	0.6415	0.8725	0.005
Mof_H 	H 	0.6096	0.6824	0.8604	0.043
Mof_C 	C 	0.5946	0.5887	0.8489	-0.008
Mof_C 	C 	0.6105	0.5264	0.8658	-0.009
Mof_H 	H 	0.5949	0.4908	0.8484	0.049
Mof_C 	C 	0.6847	0.6916	0.938	0.486
Mof_C 	C 	0.5541	0.5956	0.8051	-0.017
Mof_C 	C 	0.5202	0.5976	0.7709	-0.012
Mof_Yb	Yb	0.72307	0.1758	0.44288	1.709
Mof_Yb	Yb	0.81782	0.82912	0.53695	1.608
Mof_O 	O 	0.6601	0.1048	0.4296	-0.403
Mof_O 	O 	0.7226	0.0707	0.4806	-0.423
Mof_O 	O 	0.743	0.8399	0.5333	-0.508
Mof_O 	O 	0.6917	0.7714	0.4966	-0.543
Mof_O 	O 	0.37092	0.7239	0.1181	-0.392
Mof_O 	O 	0.30284	0.7086	0.1471	-0.396
Mof_O 	O 	0.31054	0.8081	0.4554	-0.47
Mof_O 	O 	0.26809	0.7433	0.3887	-0.519
Mof_O 	O 	0.8088	0.9431	0.5251	-0.426
Mof_O 	O 	0.8511	0.9077	0.6081	-0.426
Mof_O 	O 	0.7834	0.1844	0.5185	-0.538
Mof_O 	O 	0.82675	0.2434	0.5876	-0.484
Mof_C 	C 	0.6833	0.0601	0.4553	0.325
Mof_C 	C 	0.666	0.9937	0.4532	-0.092
Mof_C 	C 	0.6232	0.9805	0.4234	-0.019
Mof_H 	H 	0.6051	0.0136	0.4057	0.055
Mof_C 	C 	0.6072	0.9174	0.4197	-0.004
Mof_C 	C 	0.6349	0.8682	0.446	0.016
Mof_H 	H 	0.6246	0.8263	0.4434	0.035
Mof_C 	C 	0.6774	0.8811	0.4761	-0.167
Mof_C 	C 	0.6931	0.9433	0.4809	0.054
Mof_H 	H 	0.7213	0.9518	0.5023	0.038
Mof_C 	C 	0.7059	0.8263	0.5045	0.522
Mof_C 	C 	0.5632	0.9035	0.3887	-0.011
Mof_C 	C 	0.5268	0.8866	0.3659	-0.005
Mof_C 	C 	0.4851	0.8644	0.3422	-0.004
Mof_C 	C 	0.4488	0.8437	0.3229	-0.011
Mof_C 	C 	0.4071	0.816	0.308	-0.001
Mof_C 	C 	0.3945	0.7883	0.243	-0.015
Mof_H 	H 	0.4143	0.7906	0.2081	0.055
Mof_C 	C 	0.3541	0.7582	0.2299	-0.095
Mof_C 	C 	0.3237	0.7557	0.2802	0.055
Mof_H 	H 	0.2961	0.7359	0.2706	0.024
Mof_C 	C 	0.3339	0.7826	0.3458	-0.15
Mof_C 	C 	0.375	0.8123	0.3587	0.008
Mof_H 	H 	0.3819	0.8304	0.402	0.048
Mof_C 	C 	0.3418	0.7282	0.1613	0.339
Mof_C 	C 	0.3016	0.7785	0.4007	0.485
Mof_C 	C 	0.8361	0.9538	0.5737	0.366
Mof_C 	C 	0.8513	0.0191	0.5924	-0.117
Mof_C 	C 	0.8271	0.0723	0.5677	0.062
Mof_H 	H 	0.8012	0.067	0.5389	0.027
Mof_C 	C 	0.8418	0.1327	0.5862	-0.147
Mof_C 	C 	0.8807	0.1415	0.6275	0.005
Mof_H 	H 	0.8904	0.1824	0.6396	0.043
Mof_C 	C 	0.9054	0.0887	0.6511	-0.008
Mof_C 	C 	0.8895	0.0264	0.6342	-0.008
Mof_H 	H 	0.9051	0.9908	0.6516	0.048
Mof_C 	C 	0.8153	0.1916	0.562	0.486
Mof_C 	C 	0.9459	0.0956	0.6949	-0.017
Mof_C 	C 	0.9798	0.0976	0.7291	-0.012
Mof_Yb	Yb	0.22307	0.6758	0.44288	1.709
Mof_Yb	Yb	0.31782	0.32912	0.53695	1.608
Mof_O 	O 	0.1601	0.6048	0.4296	-0.403
Mof_O 	O 	0.2226	0.5707	0.4806	-0.423
Mof_O 	O 	0.243	0.3399	0.5333	-0.508
Mof_O 	O 	0.1917	0.2714	0.4966	-0.543
Mof_O 	O 	0.87092	0.2239	0.1181	-0.392
Mof_O 	O 	0.80284	0.2086	0.1471	-0.396
Mof_O 	O 	0.81054	0.3081	0.4554	-0.47
Mof_O 	O 	0.76809	0.2433	0.3887	-0.519
Mof_O 	O 	0.3088	0.4431	0.5251	-0.426
Mof_O 	O 	0.3511	0.4077	0.6081	-0.426
Mof_O 	O 	0.2834	0.6844	0.5185	-0.538
Mof_O 	O 	0.32675	0.7434	0.5876	-0.484
Mof_C 	C 	0.1833	0.5601	0.4553	0.325
Mof_C 	C 	0.166	0.4937	0.4532	-0.092
Mof_C 	C 	0.1232	0.4805	0.4234	-0.02
Mof_H 	H 	0.1051	0.5136	0.4057	0.056
Mof_C 	C 	0.1072	0.4174	0.4197	-0.004
Mof_C 	C 	0.1349	0.3682	0.446	0.016
Mof_H 	H 	0.1246	0.3263	0.4434	0.035
Mof_C 	C 	0.1774	0.3811	0.4761	-0.166
Mof_C 	C 	0.1931	0.4433	0.4809	0.054
Mof_H 	H 	0.2213	0.4518	0.5023	0.038
Mof_C 	C 	0.2059	0.3263	0.5045	0.522
Mof_C 	C 	0.0632	0.4035	0.3887	-0.011
Mof_C 	C 	0.0268	0.3866	0.3659	-0.005
Mof_C 	C 	0.9851	0.3644	0.3422	-0.004
Mof_C 	C 	0.9488	0.3437	0.3229	-0.011
Mof_C 	C 	0.9071	0.316	0.308	-0.002
Mof_C 	C 	0.8945	0.2883	0.243	-0.015
Mof_H 	H 	0.9143	0.2906	0.2081	0.055
Mof_C 	C 	0.8541	0.2582	0.2299	-0.095
Mof_C 	C 	0.8237	0.2557	0.2802	0.055
Mof_H 	H 	0.7961	0.2359	0.2706	0.024
Mof_C 	C 	0.8339	0.2826	0.3458	-0.15
Mof_C 	C 	0.875	0.3123	0.3587	0.008
Mof_H 	H 	0.8819	0.3304	0.402	0.048
Mof_C 	C 	0.8418	0.2282	0.1613	0.339
Mof_C 	C 	0.8016	0.2785	0.4007	0.485
Mof_C 	C 	0.3361	0.4538	0.5737	0.366
Mof_C 	C 	0.3513	0.5191	0.5924	-0.117
Mof_C 	C 	0.3271	0.5723	0.5677	0.062
Mof_H 	H 	0.3012	0.567	0.5389	0.027
Mof_C 	C 	0.3418	0.6327	0.5862	-0.147
Mof_C 	C 	0.3807	0.6415	0.6275	0.005
Mof_H 	H 	0.3904	0.6824	0.6396	0.043
Mof_C 	C 	0.4054	0.5887	0.6511	-0.008
Mof_C 	C 	0.3895	0.5264	0.6342	-0.009
Mof_H 	H 	0.4051	0.4908	0.6516	0.049
Mof_C 	C 	0.3153	0.6916	0.562	0.486
Mof_C 	C 	0.4459	0.5956	0.6949	-0.017
Mof_C 	C 	0.4798	0.5976	0.7291	-0.012
Mof_Yb	Yb	0.72307	0.8242	0.94288	1.708
Mof_Yb	Yb	0.81782	0.17088	0.03695	1.608
Mof_O 	O 	0.6601	0.8952	0.9296	-0.403
Mof_O 	O 	0.7226	0.9293	0.9806	-0.423
Mof_O 	O 	0.743	0.1601	0.0333	-0.508
Mof_O 	O 	0.6917	0.2286	0.9966	-0.542
Mof_O 	O 	0.37092	0.2761	0.6181	-0.392
Mof_O 	O 	0.30284	0.2914	0.6471	-0.396
Mof_O 	O 	0.31054	0.1919	0.9554	-0.469
Mof_O 	O 	0.26809	0.2567	0.8887	-0.519
Mof_O 	O 	0.8088	0.0569	0.0251	-0.426
Mof_O 	O 	0.8511	0.0923	0.1081	-0.426
Mof_O 	O 	0.7834	0.8156	0.0185	-0.538
Mof_O 	O 	0.82675	0.7566	0.0876	-0.484
Mof_C 	C 	0.6833	0.9399	0.9553	0.324
Mof_C 	C 	0.666	0.0063	0.9532	-0.092
Mof_C 	C 	0.6232	0.0195	0.9234	-0.017
Mof_H 	H 	0.6051	0.9864	0.9057	0.054
Mof_C 	C 	0.6072	0.0826	0.9197	-0.005
Mof_C 	C 	0.6349	0.1318	0.946	0.016
Mof_H 	H 	0.6246	0.1737	0.9434	0.035
Mof_C 	C 	0.6774	0.1189	0.9761	-0.166
Mof_C 	C 	0.6931	0.0567	0.9809	0.056
Mof_H 	H 	0.7213	0.0482	0.0023	0.036
Mof_C 	C 	0.7059	0.1737	0.0045	0.52
Mof_C 	C 	0.5632	0.0965	0.8887	-0.011
Mof_C 	C 	0.5268	0.1134	0.8659	-0.005
Mof_C 	C 	0.4851	0.1356	0.8422	-0.003
Mof_C 	C 	0.4488	0.1563	0.8229	-0.011
Mof_C 	C 	0.4071	0.184	0.808	-0.001
Mof_C 	C 	0.3945	0.2117	0.743	-0.016
Mof_H 	H 	0.4143	0.2094	0.7081	0.055
Mof_C 	C 	0.3541	0.2418	0.7299	-0.095
Mof_C 	C 	0.3237	0.2443	0.7802	0.055
Mof_H 	H 	0.2961	0.2641	0.7706	0.024
Mof_C 	C 	0.3339	0.2174	0.8458	-0.15
Mof_C 	C 	0.375	0.1877	0.8587	0.008
Mof_H 	H 	0.3819	0.1696	0.902	0.048
Mof_C 	C 	0.3418	0.2718	0.6613	0.339
Mof_C 	C 	0.3016	0.2215	0.9007	0.485
Mof_C 	C 	0.8361	0.0462	0.0737	0.365
Mof_C 	C 	0.8513	0.9809	0.0924	-0.116
Mof_C 	C 	0.8271	0.9277	0.0677	0.062
Mof_H 	H 	0.8012	0.933	0.0389	0.028
Mof_C 	C 	0.8418	0.8673	0.0862	-0.147
Mof_C 	C 	0.8807	0.8585	0.1275	0.005
Mof_H 	H 	0.8904	0.8176	0.1396	0.043
Mof_C 	C 	0.9054	0.9113	0.1511	-0.008
Mof_C 	C 	0.8895	0.9736	0.1342	-0.007
Mof_H 	H 	0.9051	0.0092	0.1516	0.047
Mof_C 	C 	0.8153	0.8084	0.062	0.486
Mof_C 	C 	0.9459	0.9044	0.1949	-0.017
Mof_C 	C 	0.9798	0.9024	0.2291	-0.012
Mof_Yb	Yb	0.22307	0.3242	0.94288	1.71
Mof_Yb	Yb	0.31782	0.67088	0.03695	1.609
Mof_O 	O 	0.1601	0.3952	0.9296	-0.403
Mof_O 	O 	0.2226	0.4293	0.9806	-0.423
Mof_O 	O 	0.243	0.6601	0.0333	-0.508
Mof_O 	O 	0.1917	0.7286	0.9966	-0.544
Mof_O 	O 	0.87092	0.7761	0.6181	-0.392
Mof_O 	O 	0.80284	0.7914	0.6471	-0.396
Mof_O 	O 	0.81054	0.6919	0.9554	-0.47
Mof_O 	O 	0.76809	0.7567	0.8887	-0.519
Mof_O 	O 	0.3088	0.5569	0.0251	-0.426
Mof_O 	O 	0.3511	0.5923	0.1081	-0.426
Mof_O 	O 	0.2834	0.3156	0.0185	-0.539
Mof_O 	O 	0.32675	0.2566	0.0876	-0.484
Mof_C 	C 	0.1833	0.4399	0.9553	0.325
Mof_C 	C 	0.166	0.5063	0.9532	-0.092
Mof_C 	C 	0.1232	0.5195	0.9234	-0.02
Mof_H 	H 	0.1051	0.4864	0.9057	0.056
Mof_C 	C 	0.1072	0.5826	0.9197	-0.004
Mof_C 	C 	0.1349	0.6318	0.946	0.016
Mof_H 	H 	0.1246	0.6737	0.9434	0.034
Mof_C 	C 	0.1774	0.6189	0.9761	-0.167
Mof_C 	C 	0.1931	0.5567	0.9809	0.054
Mof_H 	H 	0.2213	0.5482	0.0023	0.038
Mof_C 	C 	0.2059	0.6737	0.0045	0.523
Mof_C 	C 	0.0632	0.5965	0.8887	-0.011
Mof_C 	C 	0.0268	0.6134	0.8659	-0.005
Mof_C 	C 	0.9851	0.6356	0.8422	-0.004
Mof_C 	C 	0.9488	0.6563	0.8229	-0.011
Mof_C 	C 	0.9071	0.684	0.808	-0.001
Mof_C 	C 	0.8945	0.7117	0.743	-0.015
Mof_H 	H 	0.9143	0.7094	0.7081	0.055
Mof_C 	C 	0.8541	0.7418	0.7299	-0.095
Mof_C 	C 	0.8237	0.7443	0.7802	0.055
Mof_H 	H 	0.7961	0.7641	0.7706	0.024
Mof_C 	C 	0.8339	0.7174	0.8458	-0.15
Mof_C 	C 	0.875	0.6877	0.8587	0.008
Mof_H 	H 	0.8819	0.6696	0.902	0.048
Mof_C 	C 	0.8418	0.7718	0.6613	0.339
Mof_C 	C 	0.8016	0.7215	0.9007	0.485
Mof_C 	C 	0.3361	0.5462	0.0737	0.366
Mof_C 	C 	0.3513	0.4809	0.0924	-0.117
Mof_C 	C 	0.3271	0.4277	0.0677	0.062
Mof_H 	H 	0.3012	0.433	0.0389	0.027
Mof_C 	C 	0.3418	0.3673	0.0862	-0.147
Mof_C 	C 	0.3807	0.3585	0.1275	0.005
Mof_H 	H 	0.3904	0.3176	0.1396	0.043
Mof_C 	C 	0.4054	0.4113	0.1511	-0.008
Mof_C 	C 	0.3895	0.4736	0.1342	-0.009
Mof_H 	H 	0.4051	0.5092	0.1516	0.049
Mof_C 	C 	0.3153	0.3084	0.062	0.486
Mof_C 	C 	0.4459	0.4044	0.1949	-0.017
Mof_C 	C 	0.4798	0.4024	0.2291	-0.012
Mof_Yb	Yb	0.27693	0.8242	0.55712	1.709
Mof_Yb	Yb	0.18218	0.17088	0.46305	1.608
Mof_O 	O 	0.3399	0.8952	0.5704	-0.403
Mof_O 	O 	0.2774	0.9293	0.5194	-0.423
Mof_O 	O 	0.257	0.1601	0.4667	-0.508
Mof_O 	O 	0.3083	0.2286	0.5034	-0.543
Mof_O 	O 	0.62908	0.2761	0.8819	-0.392
Mof_O 	O 	0.69716	0.2914	0.8529	-0.396
Mof_O 	O 	0.68946	0.1919	0.5446	-0.47
Mof_O 	O 	0.73191	0.2567	0.6113	-0.519
Mof_O 	O 	0.1912	0.0569	0.4749	-0.426
Mof_O 	O 	0.1489	0.0923	0.3919	-0.426
Mof_O 	O 	0.2166	0.8156	0.4815	-0.538
Mof_O 	O 	0.17325	0.7566	0.4124	-0.484
Mof_C 	C 	0.3167	0.9399	0.5447	0.325
Mof_C 	C 	0.334	0.0063	0.5468	-0.092
Mof_C 	C 	0.3768	0.0195	0.5766	-0.019
Mof_H 	H 	0.3949	0.9864	0.5943	0.055
Mof_C 	C 	0.3928	0.0826	0.5803	-0.004
Mof_C 	C 	0.3651	0.1318	0.554	0.016
Mof_H 	H 	0.3754	0.1737	0.5566	0.035
Mof_C 	C 	0.3226	0.1189	0.5239	-0.167
Mof_C 	C 	0.3069	0.0567	0.5191	0.054
Mof_H 	H 	0.2787	0.0482	0.4977	0.038
Mof_C 	C 	0.2941	0.1737	0.4955	0.522
Mof_C 	C 	0.4368	0.0965	0.6113	-0.011
Mof_C 	C 	0.4732	0.1134	0.6341	-0.005
Mof_C 	C 	0.5149	0.1356	0.6578	-0.004
Mof_C 	C 	0.5512	0.1563	0.6771	-0.011
Mof_C 	C 	0.5929	0.184	0.692	-0.001
Mof_C 	C 	0.6055	0.2117	0.757	-0.015
Mof_H 	H 	0.5857	0.2094	0.7919	0.055
Mof_C 	C 	0.6459	0.2418	0.7701	-0.095
Mof_C 	C 	0.6763	0.2443	0.7198	0.055
Mof_H 	H 	0.7039	0.2641	0.7294	0.024
Mof_C 	C 	0.6661	0.2174	0.6542	-0.15
Mof_C 	C 	0.625	0.1877	0.6413	0.008
Mof_H 	H 	0.6181	0.1696	0.598	0.048
Mof_C 	C 	0.6582	0.2718	0.8387	0.339
Mof_C 	C 	0.6984	0.2215	0.5993	0.485
Mof_C 	C 	0.1639	0.0462	0.4263	0.366
Mof_C 	C 	0.1487	0.9809	0.4076	-0.117
Mof_C 	C 	0.1729	0.9277	0.4323	0.062
Mof_H 	H 	0.1988	0.933	0.4611	0.027
Mof_C 	C 	0.1582	0.8673	0.4138	-0.147
Mof_C 	C 	0.1193	0.8585	0.3725	0.005
Mof_H 	H 	0.1096	0.8176	0.3604	0.043
Mof_C 	C 	0.0946	0.9113	0.3489	-0.008
Mof_C 	C 	0.1105	0.9736	0.3658	-0.008
Mof_H 	H 	0.0949	0.0092	0.3484	0.048
Mof_C 	C 	0.1847	0.8084	0.438	0.486
Mof_C 	C 	0.0541	0.9044	0.3051	-0.017
Mof_C 	C 	0.0202	0.9024	0.2709	-0.012
Mof_Yb	Yb	0.77693	0.3242	0.55712	1.709
Mof_Yb	Yb	0.68218	0.67088	0.46305	1.608
Mof_O 	O 	0.8399	0.3952	0.5704	-0.403
Mof_O 	O 	0.7774	0.4293	0.5194	-0.423
Mof_O 	O 	0.757	0.6601	0.4667	-0.508
Mof_O 	O 	0.8083	0.7286	0.5034	-0.543
Mof_O 	O 	0.12908	0.7761	0.8819	-0.392
Mof_O 	O 	0.19716	0.7914	0.8529	-0.396
Mof_O 	O 	0.18946	0.6919	0.5446	-0.47
Mof_O 	O 	0.23191	0.7567	0.6113	-0.519
Mof_O 	O 	0.6912	0.5569	0.4749	-0.426
Mof_O 	O 	0.6489	0.5923	0.3919	-0.426
Mof_O 	O 	0.7166	0.3156	0.4815	-0.538
Mof_O 	O 	0.67325	0.2566	0.4124	-0.484
Mof_C 	C 	0.8167	0.4399	0.5447	0.325
Mof_C 	C 	0.834	0.5063	0.5468	-0.092
Mof_C 	C 	0.8768	0.5195	0.5766	-0.02
Mof_H 	H 	0.8949	0.4864	0.5943	0.056
Mof_C 	C 	0.8928	0.5826	0.5803	-0.004
Mof_C 	C 	0.8651	0.6318	0.554	0.016
Mof_H 	H 	0.8754	0.6737	0.5566	0.035
Mof_C 	C 	0.8226	0.6189	0.5239	-0.166
Mof_C 	C 	0.8069	0.5567	0.5191	0.054
Mof_H 	H 	0.7787	0.5482	0.4977	0.038
Mof_C 	C 	0.7941	0.6737	0.4955	0.522
Mof_C 	C 	0.9368	0.5965	0.6113	-0.011
Mof_C 	C 	0.9732	0.6134	0.6341	-0.005
Mof_C 	C 	0.0149	0.6356	0.6578	-0.004
Mof_C 	C 	0.0512	0.6563	0.6771	-0.011
Mof_C 	C 	0.0929	0.684	0.692	-0.002
Mof_C 	C 	0.1055	0.7117	0.757	-0.015
Mof_H 	H 	0.0857	0.7094	0.7919	0.055
Mof_C 	C 	0.1459	0.7418	0.7701	-0.095
Mof_C 	C 	0.1763	0.7443	0.7198	0.055
Mof_H 	H 	0.2039	0.7641	0.7294	0.024
Mof_C 	C 	0.1661	0.7174	0.6542	-0.15
Mof_C 	C 	0.125	0.6877	0.6413	0.008
Mof_H 	H 	0.1181	0.6696	0.598	0.048
Mof_C 	C 	0.1582	0.7718	0.8387	0.339
Mof_C 	C 	0.1984	0.7215	0.5993	0.485
Mof_C 	C 	0.6639	0.5462	0.4263	0.366
Mof_C 	C 	0.6487	0.4809	0.4076	-0.117
Mof_C 	C 	0.6729	0.4277	0.4323	0.062
Mof_H 	H 	0.6988	0.433	0.4611	0.027
Mof_C 	C 	0.6582	0.3673	0.4138	-0.147
Mof_C 	C 	0.6193	0.3585	0.3725	0.005
Mof_H 	H 	0.6096	0.3176	0.3604	0.043
Mof_C 	C 	0.5946	0.4113	0.3489	-0.008
Mof_C 	C 	0.6105	0.4736	0.3658	-0.009
Mof_H 	H 	0.5949	0.5092	0.3484	0.049
Mof_C 	C 	0.6847	0.3084	0.438	0.486
Mof_C 	C 	0.5541	0.4044	0.3051	-0.017
Mof_C 	C 	0.5202	0.4024	0.2709	-0.012
_end
