data_functionalizedCrystal
_audit_creation_method	'EQeq! by Chris Wilmer'
_symmetry_space_group_name_H-M	'P1'
_symmetry_Int_Tables_number	1
_symmetry_cell_setting	triclinic
loop_
_symmetry_equiv_pos_as_xyz
  x,y,z
_cell_length_a	7.149
_cell_length_b	7.149
_cell_length_c	13.392
_cell_angle_alpha	90
_cell_angle_beta	90
_cell_angle_gamma	90
loop_
_atom_site_label
_atom_site_type_symbol
_atom_site_fract_x
_atom_site_fract_y
_atom_site_fract_z
_atom_site_charge
Mof_Pt	Pt	3.51182e-33	0	0.5	0.072
Mof_Fe	Fe	0.5	0.5	0.5	0.784
Mof_N 	N 	0.5	0.5	0.3503	-0.21
Mof_C 	C 	0.5	0.5	0.146	0.05
Mof_N 	N 	0.5	0.5	0.6497	-0.21
Mof_C 	C 	0.5	0.5	0.854	0.049
Mof_N 	N 	0.6904	0.6904	0.5	-0.205
Mof_C 	C 	0.8048	0.8048	0.5	0.06
Mof_N 	N 	0.3096	0.3096	0.5	-0.204
Mof_C 	C 	0.1952	0.1952	0.5	0.044
Mof_N 	N 	0.3096	0.6904	0.5	-0.205
Mof_C 	C 	0.1952	0.8048	0.5	0.052
Mof_N 	N 	0.6904	0.3096	0.5	-0.205
Mof_C 	C 	0.8048	0.1952	0.5	0.052
Mof_C 	C 	0.657	0.5	0.299	0.045
Mof_C 	C 	0.657	0.5	0.1965	-0.03
Mof_C 	C 	0.343	0.5	0.299	0.042
Mof_C 	C 	0.343	0.5	0.1965	-0.033
Mof_C 	C 	0.5	0.657	0.299	0.045
Mof_C 	C 	0.5	0.657	0.1965	-0.03
Mof_C 	C 	0.5	0.343	0.299	0.042
Mof_C 	C 	0.5	0.343	0.1965	-0.033
Mof_C 	C 	0.343	0.5	0.701	0.042
Mof_C 	C 	0.343	0.5	0.8035	-0.033
Mof_C 	C 	0.657	0.5	0.701	0.045
Mof_C 	C 	0.657	0.5	0.8035	-0.03
Mof_C 	C 	0.5	0.657	0.701	0.045
Mof_C 	C 	0.5	0.657	0.8035	-0.03
Mof_C 	C 	0.5	0.343	0.701	0.042
Mof_C 	C 	0.5	0.343	0.8035	-0.033
Mof_C 	C 	0.5	0.43	0.032	-0.004
Mof_C 	C 	0.5	0.57	0.032	-0.001
Mof_C 	C 	0.57	0.5	0.032	-0.001
Mof_C 	C 	0.43	0.5	0.032	-0.004
Mof_C 	C 	0.5	0.43	0.968	-0.004
Mof_C 	C 	0.5	0.57	0.968	-0.001
Mof_C 	C 	0.43	0.5	0.968	-0.004
Mof_C 	C 	0.57	0.5	0.968	-0.001
_end
