# CIF file generated by openbabel 3.1.0, see https://openbabel.org
data_I
_chemical_name_common 'QOTZEG_clean'
_cell_length_a 10.438
_cell_length_b 10.438
_cell_length_c 13.853
_cell_angle_alpha 90
_cell_angle_beta 90
_cell_angle_gamma 90
_space_group_name_H-M_alt 'P 1'
_space_group_name_Hall 'P 1'
loop_
    _symmetry_equiv_pos_as_xyz
    x,y,z
loop_
    _atom_site_label
    _atom_site_type_symbol
    _atom_site_fract_x
    _atom_site_fract_y
    _atom_site_fract_z
    _atom_site_occupancy
    La1      La       0.39317    0.63319    0.81087    1.000
    La2      La       0.63319    0.60683    0.56087    1.000
    La3      La       0.60683    0.36681    0.31087    1.000
    La4      La       0.36681    0.39317    0.06087    1.000
    H1       H        0.61030    0.03010    0.56600    1.000
    H2       H        0.50880    0.04610    0.84740    1.000
    H3       H        0.63430    0.50830    0.93440    1.000
    H4       H        0.04610    0.49120    0.59740    1.000
    H5       H        0.49170    0.63430    0.18440    1.000
    H6       H        0.96990    0.61030    0.81600    1.000
    H7       H        0.03010    0.38970    0.31600    1.000
    H8       H        0.36570    0.49170    0.43440    1.000
    H9       H        0.50830    0.36570    0.68440    1.000
    H10      H        0.49120    0.95390    0.34740    1.000
    H11      H        0.95390    0.50880    0.09740    1.000
    H12      H        0.38970    0.96990    0.06600    1.000
    C1       C        0.41170    0.73260    0.01570    1.000
    C2       C        0.58830    0.26740    0.51570    1.000
    C3       C        0.07760    0.41650    0.37000    1.000
    C4       C        0.91280    0.52420    0.03820    1.000
    C5       C        0.56630    0.20620    0.61270    1.000
    C6       C        0.50990    0.21940    0.78120    1.000
    C7       C        0.70790    0.47230    0.11790    1.000
    C8       C        0.72220    0.52540    0.94160    1.000
    C9       C        0.43880    0.98430    0.20840    1.000
    C10      C        0.56120    0.01570    0.70840    1.000
    C11      C        0.29210    0.52770    0.61790    1.000
    C12      C        0.26740    0.41170    0.26570    1.000
    C13      C        0.43370    0.79380    0.11270    1.000
    C14      C        0.52540    0.27780    0.69160    1.000
    C15      C        0.47580    0.91280    0.28820    1.000
    C16      C        0.56890    0.87070    0.71410    1.000
    C17      C        0.52770    0.70790    0.36790    1.000
    C18      C        0.87070    0.43110    0.46410    1.000
    C19      C        0.49010    0.78060    0.28120    1.000
    C20      C        0.12930    0.56890    0.96410    1.000
    C21      C        0.47460    0.72220    0.19160    1.000
    C22      C        0.58350    0.07760    0.62000    1.000
    C23      C        0.20620    0.43370    0.36270    1.000
    C24      C        0.27780    0.47460    0.44160    1.000
    C25      C        0.73260    0.58830    0.76570    1.000
    C26      C        0.01570    0.43880    0.45840    1.000
    C27      C        0.43110    0.12930    0.21410    1.000
    C28      C        0.79380    0.56630    0.86270    1.000
    C29      C        0.47230    0.29210    0.86790    1.000
    C30      C        0.21940    0.49010    0.53120    1.000
    C31      C        0.98430    0.56120    0.95840    1.000
    C32      C        0.92240    0.58350    0.87000    1.000
    C33      C        0.52420    0.08720    0.78820    1.000
    C34      C        0.41650    0.92240    0.12000    1.000
    C35      C        0.08720    0.47580    0.53820    1.000
    C36      C        0.78060    0.50990    0.03120    1.000
    O1       O        0.61260    0.55750    0.75320    1.000
    O2       O        0.18080    0.54030    0.04450    1.000
    O3       O        0.50780    0.75650    0.45060    1.000
    O4       O        0.54030    0.81920    0.79450    1.000
    O5       O        0.57940    0.59560    0.36160    1.000
    O6       O        0.75650    0.49220    0.20060    1.000
    O7       O        0.44250    0.61260    0.00320    1.000
    O8       O        0.42060    0.40440    0.86160    1.000
    O9       O        0.40390    0.18880    0.13960    1.000
    O10      O        0.18880    0.59610    0.88960    1.000
    O11      O        0.55750    0.38740    0.50320    1.000
    O12      O        0.79800    0.63180    0.69830    1.000
    O13      O        0.81120    0.40390    0.38960    1.000
    O14      O        0.40440    0.57940    0.61160    1.000
    O15      O        0.63180    0.20200    0.44830    1.000
    O16      O        0.36820    0.79800    0.94830    1.000
    O17      O        0.38740    0.44250    0.25320    1.000
    O18      O        0.49220    0.24350    0.95060    1.000
    O19      O        0.45970    0.18080    0.29450    1.000
    O20      O        0.24350    0.50780    0.70060    1.000
    O21      O        0.81920    0.45970    0.54450    1.000
    O22      O        0.59560    0.42060    0.11160    1.000
    O23      O        0.59610    0.81120    0.63960    1.000
    O24      O        0.20200    0.36820    0.19830    1.000
