data_functionalizedCrystal
_audit_creation_method	'EQeq! by Chris Wilmer'
_symmetry_space_group_name_H-M	'P1'
_symmetry_Int_Tables_number	1
_symmetry_cell_setting	triclinic
loop_
_symmetry_equiv_pos_as_xyz
  x,y,z
_cell_length_a	13.111
_cell_length_b	13.848
_cell_length_c	19.978
_cell_angle_alpha	90
_cell_angle_beta	90
_cell_angle_gamma	90
loop_
_atom_site_label
_atom_site_type_symbol
_atom_site_fract_x
_atom_site_fract_y
_atom_site_fract_z
_atom_site_charge
Mof_Co	Co	0.25927	0.47474	0.115	1.15
Mof_Co	Co	0.40532	0.39632	0.97478	1.175
Mof_Co	Co	0.25927	0.97474	0.385	1.161
Mof_Co	Co	0.40532	0.89632	0.52522	1.171
Mof_Co	Co	0.66305	0.5	-0	1.186
Mof_Co	Co	0.58707	0.298	0.90253	1.174
Mof_Co	Co	0.58707	0.202	0.40253	1.173
Mof_Co	Co	0.40532	0.60368	0.02522	1.158
Mof_Co	Co	0.66305	6.95946e-33	0.5	1.182
Mof_Co	Co	0.25927	0.52526	0.885	1.151
Mof_Co	Co	0.58707	0.702	0.09747	1.172
Mof_Co	Co	0.25927	0.02526	0.615	1.14
Mof_Co	Co	0.40532	0.10368	0.47478	1.161
Mof_Co	Co	0.58707	0.798	0.59747	1.173
Mof_H 	H 	0.3453	0.3372	0.341	0.049
Mof_H 	H 	0.0501	0.1718	0.8381	0.081
Mof_H 	H 	0.9737	0.8849	0.4917	0.03
Mof_H 	H 	0.6153	0.7069	0.2482	0.023
Mof_H 	H 	0.9737	0.6151	0.9917	0.071
Mof_H 	H 	0.3488	0.3597	0.6945	0.053
Mof_H 	H 	0.5726	0.3458	0.0204	0.142
Mof_H 	H 	0.8817	0.7013	0.6344	0.031
Mof_H 	H 	0.5857	0.0791	0.8725	-0
Mof_H 	H 	0.8817	0.2013	0.8656	0.016
Mof_H 	H 	0.309	0.2607	0.1207	0.022
Mof_H 	H 	0.309	0.2393	0.6207	0.023
Mof_H 	H 	0.5109	0.5	0.5	0.028
Mof_H 	H 	0.629	0.6928	0.8366	0.068
Mof_H 	H 	0.6017	0.4716	0.7135	0.064
Mof_H 	H 	0.9737	0.3849	0.0083	-0.02
Mof_H 	H 	0.1777	0.247	0.3911	0.01
Mof_H 	H 	0.2469	0.1443	0.0029	0.011
Mof_H 	H 	0.9737	0.1151	0.5083	0.018
Mof_H 	H 	0.5857	0.9209	0.1275	0.045
Mof_H 	H 	0.6153	0.2069	0.2518	0.015
Mof_H 	H 	0.0501	0.6718	0.6619	0.071
Mof_H 	H 	0.2971	0.9506	0.2358	0.027
Mof_H 	H 	0.2971	0.0494	0.7642	0.008
Mof_H 	H 	0.5109	0	-0	0.028
Mof_H 	H 	0.5726	0.6542	0.9796	0.187
Mof_H 	H 	0.3488	0.1403	0.1945	0.045
Mof_H 	H 	0.8817	0.7987	0.1344	0.043
Mof_H 	H 	0.629	0.3072	0.1634	0.06
Mof_H 	H 	0.2971	0.5494	0.7358	0.016
Mof_H 	H 	0.1777	0.747	0.1089	0.024
Mof_H 	H 	0.2469	0.3557	0.5029	0.024
Mof_H 	H 	0.3453	0.6628	0.659	0.051
Mof_H 	H 	0.629	0.1928	0.6634	0.077
Mof_H 	H 	0.0501	0.8282	0.1619	0.06
Mof_H 	H 	0.5857	0.4209	0.3725	0.022
Mof_H 	H 	0.4507	0.0527	0.5954	0.171
Mof_H 	H 	0.1582	0	-0	0.102
Mof_H 	H 	0.629	0.8072	0.3366	0.05
Mof_H 	H 	0.1582	0.5	0.5	0.08
Mof_H 	H 	0.2469	0.6443	0.4971	0.023
Mof_H 	H 	0.4507	0.9473	0.4046	0.176
Mof_H 	H 	0.3453	0.1628	0.841	0.051
Mof_H 	H 	0.309	0.7607	0.3793	0.024
Mof_H 	H 	0.4507	0.5527	0.9046	0.173
Mof_H 	H 	0.4507	0.4473	0.0954	0.174
Mof_H 	H 	0.1777	0.253	0.8911	-0.002
Mof_H 	H 	0.3488	0.6403	0.3055	0.052
Mof_H 	H 	0.6153	0.2931	0.7518	0.006
Mof_H 	H 	0.6017	0.9716	0.7865	0.125
Mof_H 	H 	0.6017	0.5284	0.2865	0.063
Mof_H 	H 	0.5857	0.5791	0.6275	0.021
Mof_H 	H 	0.6153	0.7931	0.7482	0.016
Mof_H 	H 	0.3453	0.8372	0.159	0.05
Mof_H 	H 	0.1777	0.753	0.6089	0.012
Mof_H 	H 	0.6017	0.0284	0.2135	0.006
Mof_H 	H 	0.5726	0.1542	0.5204	0.164
Mof_H 	H 	0.3488	0.8597	0.8055	0.062
Mof_H 	H 	0.0501	0.3282	0.3381	0.07
Mof_H 	H 	0.2469	0.8557	0.9971	-0.006
Mof_H 	H 	0.8817	0.2987	0.3656	0.028
Mof_H 	H 	0.2971	0.4506	0.2642	0.018
Mof_H 	H 	0.309	0.7393	0.8793	0.026
Mof_H 	H 	0.5726	0.8458	0.4796	0.163
Mof_C 	C 	0.2823	0.9138	0.9997	0.185
Mof_C 	C 	0.6196	0.9301	0.286	-0.096
Mof_C 	C 	0.9337	0.7666	0.1119	0.004
Mof_C 	C 	0.9337	0.2334	0.8881	0.073
Mof_C 	C 	0.7998	0.6735	0.0481	0.379
Mof_C 	C 	0.3147	0.7244	0.8341	0.024
Mof_C 	C 	0.089	0.8254	0.5438	-0.153
Mof_C 	C 	0.3088	0.6124	0.7501	0.031
Mof_C 	C 	0.0344	0.284	0.3716	-0.116
Mof_C 	C 	0.4396	0.1823	0.9904	0.399
Mof_C 	C 	0.6125	0.773	0.2403	0.028
Mof_C 	C 	0.3404	0.2968	0.7097	-0.037
Mof_C 	C 	0.3372	0.8198	0.2036	-0.042
Mof_C 	C 	0.6313	0.0013	0.6546	0.294
Mof_C 	C 	0.0344	0.716	0.6284	-0.112
Mof_C 	C 	0.1104	0.2629	0.9041	0.1
Mof_C 	C 	0.3147	0.7756	0.3341	0.019
Mof_C 	C 	0.1751	0.6245	0.0077	0.376
Mof_C 	C 	0.2823	0.5862	0.4997	0.059
Mof_C 	C 	0.6125	0.227	0.7597	0.076
Mof_C 	C 	0.3404	0.7968	0.7903	-0.039
Mof_C 	C 	0.3088	0.8876	0.2501	0.028
Mof_C 	C 	0.6052	0.5375	0.7222	-0.066
Mof_C 	C 	0.9105	0.2989	0.9382	-0.162
Mof_C 	C 	0.6215	0.6669	0.7939	-0.07
Mof_C 	C 	0.1751	0.8755	0.5077	0.423
Mof_C 	C 	0.9105	0.7989	0.5618	-0.121
Mof_C 	C 	0.4396	0.3177	0.4904	0.378
Mof_C 	C 	0.3537	0.225	0.2764	-0.084
Mof_C 	C 	0.3404	0.7032	0.2903	-0.034
Mof_C 	C 	0.4396	0.8177	0.0096	0.354
Mof_C 	C 	0.9105	0.2011	0.4382	-0.13
Mof_C 	C 	0.6125	0.273	0.2597	0.049
Mof_C 	C 	0.3372	0.1802	0.7964	-0.048
Mof_C 	C 	0.9887	0.1569	0.4732	0.065
Mof_C 	C 	0.9887	0.8431	0.5268	0.065
Mof_C 	C 	0.9105	0.7011	0.0618	-0.088
Mof_C 	C 	0.6215	0.3331	0.2061	-0.066
Mof_C 	C 	0.4396	0.6823	0.5096	0.378
Mof_C 	C 	0.6196	0.0699	0.714	0.016
Mof_C 	C 	0.9337	0.7334	0.6119	0.038
Mof_C 	C 	0.9887	0.3431	0.9732	0.143
Mof_C 	C 	0.3088	0.3876	0.2499	0.027
Mof_C 	C 	0.6196	0.5699	0.786	-0.039
Mof_C 	C 	0.387	0.0866	0.9968	-0.111
Mof_C 	C 	0.3537	0.725	0.2236	-0.081
Mof_C 	C 	0.5957	0.603	0.6705	0.048
Mof_C 	C 	0.7998	0.3265	0.9519	0.407
Mof_C 	C 	0.6215	0.8331	0.2939	-0.028
Mof_C 	C 	0.5957	0.897	0.1705	-0.004
Mof_C 	C 	0.3718	0.1479	0.3275	0.384
Mof_C 	C 	0.2823	0.0862	0.0003	0.068
Mof_C 	C 	0.387	0.5866	0.5032	-0.139
Mof_C 	C 	0.6313	0.4987	0.1546	0.358
Mof_C 	C 	0.6052	0.9625	0.2222	0.041
Mof_C 	C 	0.089	0.1746	0.4562	-0.162
Mof_C 	C 	0.5957	0.103	0.8295	0.099
Mof_C 	C 	0.6313	0.5013	0.8454	0.354
Mof_C 	C 	0.3372	0.6802	0.7036	-0.048
Mof_C 	C 	0.3718	0.3521	0.8275	0.38
Mof_C 	C 	0.1751	0.3755	0.9923	0.469
Mof_C 	C 	0.3372	0.3198	0.2964	-0.042
Mof_C 	C 	0.387	0.4134	0.4968	-0.139
Mof_C 	C 	0.7998	0.1735	0.4519	0.394
Mof_C 	C 	0.1104	0.7371	0.0959	0.02
Mof_C 	C 	0.6052	0.4625	0.2778	-0.062
Mof_C 	C 	0.4399	0.5	0.5	0.072
Mof_C 	C 	0.3718	0.8521	0.6725	0.377
Mof_C 	C 	0.089	0.3254	0.9562	-0.202
Mof_C 	C 	0.6196	0.4301	0.214	-0.044
Mof_C 	C 	0.6313	0.9987	0.3454	0.416
Mof_C 	C 	0.3404	0.2032	0.2097	-0.033
Mof_C 	C 	0.5957	0.397	0.3295	0.046
Mof_C 	C 	0.089	0.6746	0.0438	-0.112
Mof_C 	C 	0.6125	0.727	0.7403	0.054
Mof_C 	C 	0.3088	0.1124	0.7499	0.03
Mof_C 	C 	0.1104	0.2371	0.4041	0.06
Mof_C 	C 	0.7998	0.8265	0.5481	0.392
Mof_C 	C 	0.3537	0.775	0.7236	-0.074
Mof_C 	C 	0.3147	0.2756	0.1659	0.016
Mof_C 	C 	0.3147	0.2244	0.6659	0.02
Mof_C 	C 	0.9887	0.6569	0.0268	-0.015
Mof_C 	C 	0.2823	0.4138	0.5003	0.059
Mof_C 	C 	0.9337	0.2666	0.3881	0.038
Mof_C 	C 	0.0344	0.216	0.8716	-0.151
Mof_C 	C 	0.2292	0.5	0.5	-0.13
Mof_C 	C 	0.6215	0.1669	0.7061	-0.11
Mof_C 	C 	0.3537	0.275	0.7764	-0.078
Mof_C 	C 	0.387	0.9134	0.0032	-0.155
Mof_C 	C 	0.1751	0.1245	0.4923	0.423
Mof_C 	C 	0.1104	0.7629	0.5959	0.058
Mof_C 	C 	0.6052	0.0375	0.7778	-0.173
Mof_C 	C 	0.4399	0	-0	0.022
Mof_C 	C 	0.3718	0.6479	0.1725	0.381
Mof_C 	C 	0.2292	0	-0	-0.238
Mof_C 	C 	0.0344	0.784	0.1284	-0.077
Mof_N 	N 	0.6001	0.3021	0.32166	-0.213
Mof_N 	N 	0.6001	0.6979	0.67834	-0.215
Mof_N 	N 	0.2974	0.6331	0.81464	-0.221
Mof_N 	N 	0.2974	0.1331	0.68536	-0.224
Mof_N 	N 	0.6001	0.1979	0.82166	-0.228
Mof_N 	N 	0.6001	0.8021	0.17834	-0.2
Mof_N 	N 	0.2974	0.8669	0.31464	-0.217
Mof_N 	N 	0.2974	0.3669	0.18536	-0.22
Mof_O 	O 	0.6218	0.5861	0.1641	-0.426
Mof_O 	O 	0.4256	0.8316	0.62113	-0.518
Mof_O 	O 	0.5623	0.38823	0.98172	-0.659
Mof_O 	O 	0.3938	0.46306	0.06556	-0.703
Mof_O 	O 	0.4256	0.3316	0.87887	-0.521
Mof_O 	O 	0.6218	0.0861	0.3359	-0.461
Mof_O 	O 	0.5281	0.3172	0.46457	-0.409
Mof_O 	O 	0.6502	0.9559	0.39942	-0.429
Mof_O 	O 	0.7346	0.231	0.4303	-0.432
Mof_O 	O 	0.5623	0.11177	0.48172	-0.691
Mof_O 	O 	0.3251	0.0706	0.31791	-0.466
Mof_O 	O 	0.785	0.4046	0.98097	-0.404
Mof_O 	O 	0.7346	0.769	0.5697	-0.428
Mof_O 	O 	0.3938	0.53694	0.93444	-0.688
Mof_O 	O 	0.7346	0.269	0.9303	-0.432
Mof_O 	O 	0.1688	0.6132	0.94579	-0.431
Mof_O 	O 	0.3251	0.4294	0.81791	-0.449
Mof_O 	O 	0.6502	0.5441	0.89942	-0.419
Mof_O 	O 	0.5623	0.88823	0.51828	-0.673
Mof_O 	O 	0.3251	0.9294	0.68209	-0.431
Mof_O 	O 	0.5623	0.61177	0.01828	-0.708
Mof_O 	O 	0.3938	0.96306	0.43444	-0.683
Mof_O 	O 	0.6502	0.0441	0.60058	-0.419
Mof_O 	O 	0.2473	0.40407	0.95666	-0.565
Mof_O 	O 	0.2473	0.90407	0.54334	-0.549
Mof_O 	O 	0.1688	0.3868	0.05421	-0.484
Mof_O 	O 	0.4256	0.1684	0.37887	-0.527
Mof_O 	O 	0.7346	0.731	0.0697	-0.428
Mof_O 	O 	0.785	0.5954	0.01903	-0.418
Mof_O 	O 	0.3938	0.03694	0.56556	-0.708
Mof_O 	O 	0.391	0.2458	0.50869	-0.435
Mof_O 	O 	0.785	0.9046	0.51903	-0.399
Mof_O 	O 	0.2473	0.59593	0.04334	-0.554
Mof_O 	O 	0.1688	0.1132	0.55421	-0.464
Mof_O 	O 	0.391	0.7458	0.99131	-0.406
Mof_O 	O 	0.6502	0.4559	0.10058	-0.43
Mof_O 	O 	0.3251	0.5706	0.18209	-0.45
Mof_O 	O 	0.785	0.0954	0.48097	-0.423
Mof_O 	O 	0.2473	0.09593	0.45666	-0.57
Mof_O 	O 	0.5281	0.1828	0.96457	-0.408
Mof_O 	O 	0.6218	0.9139	0.6641	-0.389
Mof_O 	O 	0.391	0.7542	0.49131	-0.435
Mof_O 	O 	0.391	0.2542	0.00869	-0.461
Mof_O 	O 	0.5281	0.8172	0.03543	-0.403
Mof_O 	O 	0.6218	0.4139	0.8359	-0.425
Mof_O 	O 	0.5281	0.6828	0.53543	-0.409
Mof_O 	O 	0.1688	0.8868	0.44579	-0.452
Mof_O 	O 	0.4256	0.6684	0.12113	-0.524
_end
