data_functionalizedCrystal
_audit_creation_method	'EQeq! by Chris Wilmer'
_symmetry_space_group_name_H-M	'P1'
_symmetry_Int_Tables_number	1
_symmetry_cell_setting	triclinic
loop_
_symmetry_equiv_pos_as_xyz
  x,y,z
_cell_length_a	22.2973
_cell_length_b	22.2973
_cell_length_c	22.2973
_cell_angle_alpha	90
_cell_angle_beta	90
_cell_angle_gamma	90
loop_
_atom_site_label
_atom_site_type_symbol
_atom_site_fract_x
_atom_site_fract_y
_atom_site_fract_z
_atom_site_charge
Mof_Co	Co	0.32314	0.26014	0.80823	1.169
Mof_C 	C 	0.2006	0.28532	0.98983	0.012
Mof_H 	H 	0.2421	0.2814	0.9918	0.048
Mof_C 	C 	0.17299	0.29098	0.93444	-0.068
Mof_C 	C 	0.19663	0.27921	0.10443	0.383
Mof_C 	C 	0.2069	0.29216	0.87599	0.373
Mof_C 	C 	0.07784	0.2942	0.98446	0.09
Mof_C 	C 	0.11104	0.29521	0.93164	-0.065
Mof_H 	H 	0.0918	0.2987	0.8948	0.075
Mof_C 	C 	0.10635	0.28926	0.03947	-0.064
Mof_H 	H 	0.0838	0.2885	0.0746	0.08
Mof_C 	C 	0.16747	0.28544	0.04227	-0.064
Mof_O 	O 	0.17627	0.30401	0.82998	-0.431
Mof_O 	O 	0.16296	0.29147	0.14759	-0.423
Mof_O 	O 	0.2497	0.26294	0.10535	-0.426
Mof_O 	O 	0.26171	0.28075	0.87842	-0.421
Mof_N 	N 	0.01357	0.29611	0.97701	-0.084
Mof_Co	Co	0.67686	0.73986	0.80823	1.169
Mof_C 	C 	0.7994	0.71468	0.98983	0.012
Mof_H 	H 	0.7579	0.7186	0.9918	0.048
Mof_C 	C 	0.82701	0.70902	0.93444	-0.068
Mof_C 	C 	0.80337	0.72079	0.10443	0.383
Mof_C 	C 	0.7931	0.70784	0.87599	0.373
Mof_C 	C 	0.92216	0.7058	0.98446	0.09
Mof_C 	C 	0.88896	0.70479	0.93164	-0.065
Mof_H 	H 	0.9082	0.7013	0.8948	0.075
Mof_C 	C 	0.89365	0.71074	0.03947	-0.064
Mof_H 	H 	0.9162	0.7115	0.0746	0.08
Mof_C 	C 	0.83253	0.71456	0.04227	-0.064
Mof_O 	O 	0.82373	0.69599	0.82998	-0.431
Mof_O 	O 	0.83704	0.70853	0.14759	-0.423
Mof_O 	O 	0.7503	0.73706	0.10535	-0.426
Mof_O 	O 	0.73829	0.71925	0.87842	-0.421
Mof_N 	N 	0.98643	0.70389	0.97701	-0.084
Mof_Co	Co	0.67686	0.26014	0.19177	1.169
Mof_C 	C 	0.7994	0.28532	0.01017	0.012
Mof_H 	H 	0.7579	0.2814	0.0082	0.048
Mof_C 	C 	0.82701	0.29098	0.06556	-0.068
Mof_C 	C 	0.80337	0.27921	0.89557	0.383
Mof_C 	C 	0.7931	0.29216	0.12401	0.373
Mof_C 	C 	0.92216	0.2942	0.01554	0.09
Mof_C 	C 	0.88896	0.29521	0.06836	-0.065
Mof_H 	H 	0.9082	0.2987	0.1052	0.075
Mof_C 	C 	0.89365	0.28926	0.96053	-0.064
Mof_H 	H 	0.9162	0.2885	0.9254	0.08
Mof_C 	C 	0.83253	0.28544	0.95773	-0.064
Mof_O 	O 	0.82373	0.30401	0.17002	-0.431
Mof_O 	O 	0.83704	0.29147	0.85241	-0.423
Mof_O 	O 	0.7503	0.26294	0.89465	-0.426
Mof_O 	O 	0.73829	0.28075	0.12158	-0.421
Mof_N 	N 	0.98643	0.29611	0.02299	-0.084
Mof_Co	Co	0.32314	0.73986	0.19177	1.169
Mof_C 	C 	0.2006	0.71468	0.01017	0.012
Mof_H 	H 	0.2421	0.7186	0.0082	0.048
Mof_C 	C 	0.17299	0.70902	0.06556	-0.068
Mof_C 	C 	0.19663	0.72079	0.89557	0.383
Mof_C 	C 	0.2069	0.70784	0.12401	0.373
Mof_C 	C 	0.07784	0.7058	0.01554	0.09
Mof_C 	C 	0.11104	0.70479	0.06836	-0.065
Mof_H 	H 	0.0918	0.7013	0.1052	0.075
Mof_C 	C 	0.10635	0.71074	0.96053	-0.064
Mof_H 	H 	0.0838	0.7115	0.9254	0.08
Mof_C 	C 	0.16747	0.71456	0.95773	-0.064
Mof_O 	O 	0.17627	0.69599	0.17002	-0.431
Mof_O 	O 	0.16296	0.70853	0.85241	-0.423
Mof_O 	O 	0.2497	0.73706	0.89465	-0.426
Mof_O 	O 	0.26171	0.71925	0.12158	-0.421
Mof_N 	N 	0.01357	0.70389	0.02299	-0.084
Mof_Co	Co	0.80823	0.32314	0.26014	1.169
Mof_C 	C 	0.98983	0.2006	0.28532	0.012
Mof_H 	H 	0.9918	0.2421	0.2814	0.048
Mof_C 	C 	0.93444	0.17299	0.29098	-0.068
Mof_C 	C 	0.10443	0.19663	0.27921	0.383
Mof_C 	C 	0.87599	0.2069	0.29216	0.373
Mof_C 	C 	0.98446	0.07784	0.2942	0.09
Mof_C 	C 	0.93164	0.11104	0.29521	-0.065
Mof_H 	H 	0.8948	0.0918	0.2987	0.075
Mof_C 	C 	0.03947	0.10635	0.28926	-0.064
Mof_H 	H 	0.0746	0.0838	0.2885	0.08
Mof_C 	C 	0.04227	0.16747	0.28544	-0.064
Mof_O 	O 	0.82998	0.17627	0.30401	-0.431
Mof_O 	O 	0.14759	0.16296	0.29147	-0.423
Mof_O 	O 	0.10535	0.2497	0.26294	-0.426
Mof_O 	O 	0.87842	0.26171	0.28075	-0.421
Mof_N 	N 	0.97701	0.01357	0.29611	-0.084
Mof_Co	Co	0.80823	0.67686	0.73986	1.169
Mof_C 	C 	0.98983	0.7994	0.71468	0.012
Mof_H 	H 	0.9918	0.7579	0.7186	0.048
Mof_C 	C 	0.93444	0.82701	0.70902	-0.068
Mof_C 	C 	0.10443	0.80337	0.72079	0.383
Mof_C 	C 	0.87599	0.7931	0.70784	0.373
Mof_C 	C 	0.98446	0.92216	0.7058	0.09
Mof_C 	C 	0.93164	0.88896	0.70479	-0.065
Mof_H 	H 	0.8948	0.9082	0.7013	0.075
Mof_C 	C 	0.03947	0.89365	0.71074	-0.064
Mof_H 	H 	0.0746	0.9162	0.7115	0.08
Mof_C 	C 	0.04227	0.83253	0.71456	-0.064
Mof_O 	O 	0.82998	0.82373	0.69599	-0.431
Mof_O 	O 	0.14759	0.83704	0.70853	-0.423
Mof_O 	O 	0.10535	0.7503	0.73706	-0.426
Mof_O 	O 	0.87842	0.73829	0.71925	-0.421
Mof_N 	N 	0.97701	0.98643	0.70389	-0.084
Mof_Co	Co	0.19177	0.67686	0.26014	1.169
Mof_C 	C 	0.01017	0.7994	0.28532	0.012
Mof_H 	H 	0.0082	0.7579	0.2814	0.048
Mof_C 	C 	0.06556	0.82701	0.29098	-0.068
Mof_C 	C 	0.89557	0.80337	0.27921	0.383
Mof_C 	C 	0.12401	0.7931	0.29216	0.373
Mof_C 	C 	0.01554	0.92216	0.2942	0.09
Mof_C 	C 	0.06836	0.88896	0.29521	-0.065
Mof_H 	H 	0.1052	0.9082	0.2987	0.075
Mof_C 	C 	0.96053	0.89365	0.28926	-0.064
Mof_H 	H 	0.9254	0.9162	0.2885	0.08
Mof_C 	C 	0.95773	0.83253	0.28544	-0.064
Mof_O 	O 	0.17002	0.82373	0.30401	-0.431
Mof_O 	O 	0.85241	0.83704	0.29147	-0.423
Mof_O 	O 	0.89465	0.7503	0.26294	-0.426
Mof_O 	O 	0.12158	0.73829	0.28075	-0.421
Mof_N 	N 	0.02299	0.98643	0.29611	-0.084
Mof_Co	Co	0.19177	0.32314	0.73986	1.169
Mof_C 	C 	0.01017	0.2006	0.71468	0.012
Mof_H 	H 	0.0082	0.2421	0.7186	0.048
Mof_C 	C 	0.06556	0.17299	0.70902	-0.068
Mof_C 	C 	0.89557	0.19663	0.72079	0.383
Mof_C 	C 	0.12401	0.2069	0.70784	0.373
Mof_C 	C 	0.01554	0.07784	0.7058	0.09
Mof_C 	C 	0.06836	0.11104	0.70479	-0.065
Mof_H 	H 	0.1052	0.0918	0.7013	0.075
Mof_C 	C 	0.96053	0.10635	0.71074	-0.064
Mof_H 	H 	0.9254	0.0838	0.7115	0.08
Mof_C 	C 	0.95773	0.16747	0.71456	-0.064
Mof_O 	O 	0.17002	0.17627	0.69599	-0.431
Mof_O 	O 	0.85241	0.16296	0.70853	-0.423
Mof_O 	O 	0.89465	0.2497	0.73706	-0.426
Mof_O 	O 	0.12158	0.26171	0.71925	-0.421
Mof_N 	N 	0.02299	0.01357	0.70389	-0.084
Mof_Co	Co	0.26014	0.80823	0.32314	1.169
Mof_C 	C 	0.28532	0.98983	0.2006	0.012
Mof_H 	H 	0.2814	0.9918	0.2421	0.048
Mof_C 	C 	0.29098	0.93444	0.17299	-0.068
Mof_C 	C 	0.27921	0.10443	0.19663	0.383
Mof_C 	C 	0.29216	0.87599	0.2069	0.373
Mof_C 	C 	0.2942	0.98446	0.07784	0.09
Mof_C 	C 	0.29521	0.93164	0.11104	-0.065
Mof_H 	H 	0.2987	0.8948	0.0918	0.075
Mof_C 	C 	0.28926	0.03947	0.10635	-0.064
Mof_H 	H 	0.2885	0.0746	0.0838	0.08
Mof_C 	C 	0.28544	0.04227	0.16747	-0.064
Mof_O 	O 	0.30401	0.82998	0.17627	-0.431
Mof_O 	O 	0.29147	0.14759	0.16296	-0.423
Mof_O 	O 	0.26294	0.10535	0.2497	-0.426
Mof_O 	O 	0.28075	0.87842	0.26171	-0.421
Mof_N 	N 	0.29611	0.97701	0.01357	-0.084
Mof_Co	Co	0.73986	0.80823	0.67686	1.169
Mof_C 	C 	0.71468	0.98983	0.7994	0.012
Mof_H 	H 	0.7186	0.9918	0.7579	0.048
Mof_C 	C 	0.70902	0.93444	0.82701	-0.068
Mof_C 	C 	0.72079	0.10443	0.80337	0.383
Mof_C 	C 	0.70784	0.87599	0.7931	0.373
Mof_C 	C 	0.7058	0.98446	0.92216	0.09
Mof_C 	C 	0.70479	0.93164	0.88896	-0.065
Mof_H 	H 	0.7013	0.8948	0.9082	0.075
Mof_C 	C 	0.71074	0.03947	0.89365	-0.064
Mof_H 	H 	0.7115	0.0746	0.9162	0.08
Mof_C 	C 	0.71456	0.04227	0.83253	-0.064
Mof_O 	O 	0.69599	0.82998	0.82373	-0.431
Mof_O 	O 	0.70853	0.14759	0.83704	-0.423
Mof_O 	O 	0.73706	0.10535	0.7503	-0.426
Mof_O 	O 	0.71925	0.87842	0.73829	-0.421
Mof_N 	N 	0.70389	0.97701	0.98643	-0.084
Mof_Co	Co	0.26014	0.19177	0.67686	1.169
Mof_C 	C 	0.28532	0.01017	0.7994	0.012
Mof_H 	H 	0.2814	0.0082	0.7579	0.048
Mof_C 	C 	0.29098	0.06556	0.82701	-0.068
Mof_C 	C 	0.27921	0.89557	0.80337	0.383
Mof_C 	C 	0.29216	0.12401	0.7931	0.373
Mof_C 	C 	0.2942	0.01554	0.92216	0.09
Mof_C 	C 	0.29521	0.06836	0.88896	-0.065
Mof_H 	H 	0.2987	0.1052	0.9082	0.075
Mof_C 	C 	0.28926	0.96053	0.89365	-0.064
Mof_H 	H 	0.2885	0.9254	0.9162	0.08
Mof_C 	C 	0.28544	0.95773	0.83253	-0.064
Mof_O 	O 	0.30401	0.17002	0.82373	-0.431
Mof_O 	O 	0.29147	0.85241	0.83704	-0.423
Mof_O 	O 	0.26294	0.89465	0.7503	-0.426
Mof_O 	O 	0.28075	0.12158	0.73829	-0.421
Mof_N 	N 	0.29611	0.02299	0.98643	-0.084
Mof_Co	Co	0.73986	0.19177	0.32314	1.169
Mof_C 	C 	0.71468	0.01017	0.2006	0.012
Mof_H 	H 	0.7186	0.0082	0.2421	0.048
Mof_C 	C 	0.70902	0.06556	0.17299	-0.068
Mof_C 	C 	0.72079	0.89557	0.19663	0.383
Mof_C 	C 	0.70784	0.12401	0.2069	0.373
Mof_C 	C 	0.7058	0.01554	0.07784	0.09
Mof_C 	C 	0.70479	0.06836	0.11104	-0.065
Mof_H 	H 	0.7013	0.1052	0.0918	0.075
Mof_C 	C 	0.71074	0.96053	0.10635	-0.064
Mof_H 	H 	0.7115	0.9254	0.0838	0.08
Mof_C 	C 	0.71456	0.95773	0.16747	-0.064
Mof_O 	O 	0.69599	0.17002	0.17627	-0.431
Mof_O 	O 	0.70853	0.85241	0.16296	-0.423
Mof_O 	O 	0.73706	0.89465	0.2497	-0.426
Mof_O 	O 	0.71925	0.12158	0.26171	-0.421
Mof_N 	N 	0.70389	0.02299	0.01357	-0.084
Mof_Co	Co	0.76014	0.82314	0.30823	1.169
Mof_C 	C 	0.78532	0.7006	0.48983	0.012
Mof_H 	H 	0.7814	0.7421	0.4918	0.048
Mof_C 	C 	0.79098	0.67299	0.43444	-0.068
Mof_C 	C 	0.77921	0.69663	0.60443	0.383
Mof_C 	C 	0.79216	0.7069	0.37599	0.373
Mof_C 	C 	0.7942	0.57784	0.48446	0.09
Mof_C 	C 	0.79521	0.61104	0.43164	-0.065
Mof_H 	H 	0.7987	0.5918	0.3948	0.075
Mof_C 	C 	0.78926	0.60635	0.53947	-0.064
Mof_H 	H 	0.7885	0.5838	0.5746	0.08
Mof_C 	C 	0.78544	0.66747	0.54227	-0.064
Mof_O 	O 	0.80401	0.67627	0.32998	-0.431
Mof_O 	O 	0.79147	0.66296	0.64759	-0.423
Mof_O 	O 	0.76294	0.7497	0.60535	-0.426
Mof_O 	O 	0.78075	0.76171	0.37842	-0.421
Mof_N 	N 	0.79611	0.51357	0.47701	-0.084
Mof_Co	Co	0.23986	0.17686	0.30823	1.169
Mof_C 	C 	0.21468	0.2994	0.48983	0.012
Mof_H 	H 	0.2186	0.2579	0.4918	0.048
Mof_C 	C 	0.20902	0.32701	0.43444	-0.068
Mof_C 	C 	0.22079	0.30337	0.60443	0.383
Mof_C 	C 	0.20784	0.2931	0.37599	0.373
Mof_C 	C 	0.2058	0.42216	0.48446	0.09
Mof_C 	C 	0.20479	0.38896	0.43164	-0.065
Mof_H 	H 	0.2013	0.4082	0.3948	0.075
Mof_C 	C 	0.21074	0.39365	0.53947	-0.064
Mof_H 	H 	0.2115	0.4162	0.5746	0.08
Mof_C 	C 	0.21456	0.33253	0.54227	-0.064
Mof_O 	O 	0.19599	0.32373	0.32998	-0.431
Mof_O 	O 	0.20853	0.33704	0.64759	-0.423
Mof_O 	O 	0.23706	0.2503	0.60535	-0.426
Mof_O 	O 	0.21925	0.23829	0.37842	-0.421
Mof_N 	N 	0.20389	0.48643	0.47701	-0.084
Mof_Co	Co	0.76014	0.17686	0.69177	1.169
Mof_C 	C 	0.78532	0.2994	0.51017	0.012
Mof_H 	H 	0.7814	0.2579	0.5082	0.048
Mof_C 	C 	0.79098	0.32701	0.56556	-0.068
Mof_C 	C 	0.77921	0.30337	0.39557	0.383
Mof_C 	C 	0.79216	0.2931	0.62401	0.373
Mof_C 	C 	0.7942	0.42216	0.51554	0.09
Mof_C 	C 	0.79521	0.38896	0.56836	-0.065
Mof_H 	H 	0.7987	0.4082	0.6052	0.075
Mof_C 	C 	0.78926	0.39365	0.46053	-0.064
Mof_H 	H 	0.7885	0.4162	0.4254	0.08
Mof_C 	C 	0.78544	0.33253	0.45773	-0.064
Mof_O 	O 	0.80401	0.32373	0.67002	-0.431
Mof_O 	O 	0.79147	0.33704	0.35241	-0.423
Mof_O 	O 	0.76294	0.2503	0.39465	-0.426
Mof_O 	O 	0.78075	0.23829	0.62158	-0.421
Mof_N 	N 	0.79611	0.48643	0.52299	-0.084
Mof_Co	Co	0.23986	0.82314	0.69177	1.169
Mof_C 	C 	0.21468	0.7006	0.51017	0.012
Mof_H 	H 	0.2186	0.7421	0.5082	0.048
Mof_C 	C 	0.20902	0.67299	0.56556	-0.068
Mof_C 	C 	0.22079	0.69663	0.39557	0.383
Mof_C 	C 	0.20784	0.7069	0.62401	0.373
Mof_C 	C 	0.2058	0.57784	0.51554	0.09
Mof_C 	C 	0.20479	0.61104	0.56836	-0.065
Mof_H 	H 	0.2013	0.5918	0.6052	0.075
Mof_C 	C 	0.21074	0.60635	0.46053	-0.064
Mof_H 	H 	0.2115	0.5838	0.4254	0.08
Mof_C 	C 	0.21456	0.66747	0.45773	-0.064
Mof_O 	O 	0.19599	0.67627	0.67002	-0.431
Mof_O 	O 	0.20853	0.66296	0.35241	-0.423
Mof_O 	O 	0.23706	0.7497	0.39465	-0.426
Mof_O 	O 	0.21925	0.76171	0.62158	-0.421
Mof_N 	N 	0.20389	0.51357	0.52299	-0.084
Mof_Co	Co	0.82314	0.30823	0.76014	1.169
Mof_C 	C 	0.7006	0.48983	0.78532	0.012
Mof_H 	H 	0.7421	0.4918	0.7814	0.048
Mof_C 	C 	0.67299	0.43444	0.79098	-0.068
Mof_C 	C 	0.69663	0.60443	0.77921	0.383
Mof_C 	C 	0.7069	0.37599	0.79216	0.373
Mof_C 	C 	0.57784	0.48446	0.7942	0.09
Mof_C 	C 	0.61104	0.43164	0.79521	-0.065
Mof_H 	H 	0.5918	0.3948	0.7987	0.075
Mof_C 	C 	0.60635	0.53947	0.78926	-0.064
Mof_H 	H 	0.5838	0.5746	0.7885	0.08
Mof_C 	C 	0.66747	0.54227	0.78544	-0.064
Mof_O 	O 	0.67627	0.32998	0.80401	-0.431
Mof_O 	O 	0.66296	0.64759	0.79147	-0.423
Mof_O 	O 	0.7497	0.60535	0.76294	-0.426
Mof_O 	O 	0.76171	0.37842	0.78075	-0.421
Mof_N 	N 	0.51357	0.47701	0.79611	-0.084
Mof_Co	Co	0.17686	0.30823	0.23986	1.169
Mof_C 	C 	0.2994	0.48983	0.21468	0.012
Mof_H 	H 	0.2579	0.4918	0.2186	0.048
Mof_C 	C 	0.32701	0.43444	0.20902	-0.068
Mof_C 	C 	0.30337	0.60443	0.22079	0.383
Mof_C 	C 	0.2931	0.37599	0.20784	0.373
Mof_C 	C 	0.42216	0.48446	0.2058	0.09
Mof_C 	C 	0.38896	0.43164	0.20479	-0.065
Mof_H 	H 	0.4082	0.3948	0.2013	0.075
Mof_C 	C 	0.39365	0.53947	0.21074	-0.064
Mof_H 	H 	0.4162	0.5746	0.2115	0.08
Mof_C 	C 	0.33253	0.54227	0.21456	-0.064
Mof_O 	O 	0.32373	0.32998	0.19599	-0.431
Mof_O 	O 	0.33704	0.64759	0.20853	-0.423
Mof_O 	O 	0.2503	0.60535	0.23706	-0.426
Mof_O 	O 	0.23829	0.37842	0.21925	-0.421
Mof_N 	N 	0.48643	0.47701	0.20389	-0.084
Mof_Co	Co	0.17686	0.69177	0.76014	1.169
Mof_C 	C 	0.2994	0.51017	0.78532	0.012
Mof_H 	H 	0.2579	0.5082	0.7814	0.048
Mof_C 	C 	0.32701	0.56556	0.79098	-0.068
Mof_C 	C 	0.30337	0.39557	0.77921	0.383
Mof_C 	C 	0.2931	0.62401	0.79216	0.373
Mof_C 	C 	0.42216	0.51554	0.7942	0.09
Mof_C 	C 	0.38896	0.56836	0.79521	-0.065
Mof_H 	H 	0.4082	0.6052	0.7987	0.075
Mof_C 	C 	0.39365	0.46053	0.78926	-0.064
Mof_H 	H 	0.4162	0.4254	0.7885	0.08
Mof_C 	C 	0.33253	0.45773	0.78544	-0.064
Mof_O 	O 	0.32373	0.67002	0.80401	-0.431
Mof_O 	O 	0.33704	0.35241	0.79147	-0.423
Mof_O 	O 	0.2503	0.39465	0.76294	-0.426
Mof_O 	O 	0.23829	0.62158	0.78075	-0.421
Mof_N 	N 	0.48643	0.52299	0.79611	-0.084
Mof_Co	Co	0.82314	0.69177	0.23986	1.169
Mof_C 	C 	0.7006	0.51017	0.21468	0.012
Mof_H 	H 	0.7421	0.5082	0.2186	0.048
Mof_C 	C 	0.67299	0.56556	0.20902	-0.068
Mof_C 	C 	0.69663	0.39557	0.22079	0.383
Mof_C 	C 	0.7069	0.62401	0.20784	0.373
Mof_C 	C 	0.57784	0.51554	0.2058	0.09
Mof_C 	C 	0.61104	0.56836	0.20479	-0.065
Mof_H 	H 	0.5918	0.6052	0.2013	0.075
Mof_C 	C 	0.60635	0.46053	0.21074	-0.064
Mof_H 	H 	0.5838	0.4254	0.2115	0.08
Mof_C 	C 	0.66747	0.45773	0.21456	-0.064
Mof_O 	O 	0.67627	0.67002	0.19599	-0.431
Mof_O 	O 	0.66296	0.35241	0.20853	-0.423
Mof_O 	O 	0.7497	0.39465	0.23706	-0.426
Mof_O 	O 	0.76171	0.62158	0.21925	-0.421
Mof_N 	N 	0.51357	0.52299	0.20389	-0.084
Mof_Co	Co	0.30823	0.76014	0.82314	1.169
Mof_C 	C 	0.48983	0.78532	0.7006	0.012
Mof_H 	H 	0.4918	0.7814	0.7421	0.048
Mof_C 	C 	0.43444	0.79098	0.67299	-0.068
Mof_C 	C 	0.60443	0.77921	0.69663	0.383
Mof_C 	C 	0.37599	0.79216	0.7069	0.373
Mof_C 	C 	0.48446	0.7942	0.57784	0.09
Mof_C 	C 	0.43164	0.79521	0.61104	-0.065
Mof_H 	H 	0.3948	0.7987	0.5918	0.075
Mof_C 	C 	0.53947	0.78926	0.60635	-0.064
Mof_H 	H 	0.5746	0.7885	0.5838	0.08
Mof_C 	C 	0.54227	0.78544	0.66747	-0.064
Mof_O 	O 	0.32998	0.80401	0.67627	-0.431
Mof_O 	O 	0.64759	0.79147	0.66296	-0.423
Mof_O 	O 	0.60535	0.76294	0.7497	-0.426
Mof_O 	O 	0.37842	0.78075	0.76171	-0.421
Mof_N 	N 	0.47701	0.79611	0.51357	-0.084
Mof_Co	Co	0.30823	0.23986	0.17686	1.169
Mof_C 	C 	0.48983	0.21468	0.2994	0.012
Mof_H 	H 	0.4918	0.2186	0.2579	0.048
Mof_C 	C 	0.43444	0.20902	0.32701	-0.068
Mof_C 	C 	0.60443	0.22079	0.30337	0.383
Mof_C 	C 	0.37599	0.20784	0.2931	0.373
Mof_C 	C 	0.48446	0.2058	0.42216	0.09
Mof_C 	C 	0.43164	0.20479	0.38896	-0.065
Mof_H 	H 	0.3948	0.2013	0.4082	0.075
Mof_C 	C 	0.53947	0.21074	0.39365	-0.064
Mof_H 	H 	0.5746	0.2115	0.4162	0.08
Mof_C 	C 	0.54227	0.21456	0.33253	-0.064
Mof_O 	O 	0.32998	0.19599	0.32373	-0.431
Mof_O 	O 	0.64759	0.20853	0.33704	-0.423
Mof_O 	O 	0.60535	0.23706	0.2503	-0.426
Mof_O 	O 	0.37842	0.21925	0.23829	-0.421
Mof_N 	N 	0.47701	0.20389	0.48643	-0.084
Mof_Co	Co	0.69177	0.76014	0.17686	1.169
Mof_C 	C 	0.51017	0.78532	0.2994	0.012
Mof_H 	H 	0.5082	0.7814	0.2579	0.048
Mof_C 	C 	0.56556	0.79098	0.32701	-0.068
Mof_C 	C 	0.39557	0.77921	0.30337	0.383
Mof_C 	C 	0.62401	0.79216	0.2931	0.373
Mof_C 	C 	0.51554	0.7942	0.42216	0.09
Mof_C 	C 	0.56836	0.79521	0.38896	-0.065
Mof_H 	H 	0.6052	0.7987	0.4082	0.075
Mof_C 	C 	0.46053	0.78926	0.39365	-0.064
Mof_H 	H 	0.4254	0.7885	0.4162	0.08
Mof_C 	C 	0.45773	0.78544	0.33253	-0.064
Mof_O 	O 	0.67002	0.80401	0.32373	-0.431
Mof_O 	O 	0.35241	0.79147	0.33704	-0.423
Mof_O 	O 	0.39465	0.76294	0.2503	-0.426
Mof_O 	O 	0.62158	0.78075	0.23829	-0.421
Mof_N 	N 	0.52299	0.79611	0.48643	-0.084
Mof_Co	Co	0.69177	0.23986	0.82314	1.169
Mof_C 	C 	0.51017	0.21468	0.7006	0.012
Mof_H 	H 	0.5082	0.2186	0.7421	0.048
Mof_C 	C 	0.56556	0.20902	0.67299	-0.068
Mof_C 	C 	0.39557	0.22079	0.69663	0.383
Mof_C 	C 	0.62401	0.20784	0.7069	0.373
Mof_C 	C 	0.51554	0.2058	0.57784	0.09
Mof_C 	C 	0.56836	0.20479	0.61104	-0.065
Mof_H 	H 	0.6052	0.2013	0.5918	0.075
Mof_C 	C 	0.46053	0.21074	0.60635	-0.064
Mof_H 	H 	0.4254	0.2115	0.5838	0.08
Mof_C 	C 	0.45773	0.21456	0.66747	-0.064
Mof_O 	O 	0.67002	0.19599	0.67627	-0.431
Mof_O 	O 	0.35241	0.20853	0.66296	-0.423
Mof_O 	O 	0.39465	0.23706	0.7497	-0.426
Mof_O 	O 	0.62158	0.21925	0.76171	-0.421
Mof_N 	N 	0.52299	0.20389	0.51357	-0.084
Mof_O 	O 	0.26355	0.26355	0.73645	-0.552
Mof_O 	O 	0.73645	0.73645	0.73645	-0.552
Mof_O 	O 	0.73645	0.26355	0.26355	-0.552
Mof_O 	O 	0.26355	0.73645	0.26355	-0.552
Mof_O 	O 	0.76355	0.76355	0.23645	-0.552
Mof_O 	O 	0.23645	0.23645	0.23645	-0.552
Mof_O 	O 	0.76355	0.23645	0.76355	-0.552
Mof_O 	O 	0.23645	0.76355	0.76355	-0.552
_end
