# CIF file generated by openbabel 3.1.0, see https://openbabel.org
data_I
_chemical_name_common 'image0'
_cell_length_a 9.781
_cell_length_b 11.007
_cell_length_c 11.382
_cell_angle_alpha 80.46
_cell_angle_beta 82.42
_cell_angle_gamma 81.98
_space_group_name_H-M_alt 'P 1'
_space_group_name_Hall 'P 1'
loop_
    _symmetry_equiv_pos_as_xyz
    x,y,z
loop_
    _atom_site_label
    _atom_site_type_symbol
    _atom_site_fract_x
    _atom_site_fract_y
    _atom_site_fract_z
    _atom_site_occupancy
    Sr1      Sr       0.92863    0.33728    0.99727    1.000
    C1       C        0.57960    0.39310    0.85820    1.000
    C2       C        0.46130    0.39650    0.79700    1.000
    C3       C        0.32920    0.41610    0.86290    1.000
    C4       C        0.47530    0.37220    0.67730    1.000
    C5       C        0.35610    0.36390    0.61960    1.000
    H1       H        0.26810    0.37450    0.66160    1.000
    C6       C        0.36890    0.34100    0.50530    1.000
    H2       H        0.28940    0.33590    0.47050    1.000
    C7       C        0.50070    0.32450    0.43720    1.000
    C8       C        0.61900    0.33210    0.49560    1.000
    H3       H        0.70710    0.32160    0.45380    1.000
    C9       C        0.60650    0.35410    0.60990    1.000
    H4       H        0.68620    0.35740    0.64510    1.000
    C10      C        0.51620    0.30120    0.31720    1.000
    C11      C        0.40030    0.29240    0.25880    1.000
    C12      C        0.64830    0.28720    0.24980    1.000
    C13      C        0.98020    0.34690    0.46430    1.000
    C14      C        0.98870    0.24280    0.55610    1.000
    C15      C        0.98760    0.26900    0.67420    1.000
    C16      C        0.99460    0.10130    0.40880    1.000
    H5       H        0.99140    0.16890    0.34770    1.000
    C17      C        0.99460    0.12180    0.52850    1.000
    C18      C        0.00100    0.01600    0.61880    1.000
    H6       H        0.00210    0.02650    0.69810    1.000
    N1       N        0.67690    0.39120    0.90510    1.000
    N2       N        0.22060    0.43410    0.91260    1.000
    N3       N        0.30460    0.28590    0.21330    1.000
    N4       N        0.75550    0.27810    0.19620    1.000
    N5       N        0.98600    0.29230    0.76870    1.000
    N6       N        0.97200    0.42640    0.38650    1.000
    O1       O        0.94559    0.55238    0.86221    1.000
    H7       H        0.99380    0.54960    0.79590    1.000
    H8       H        0.86540    0.58930    0.85030    1.000
    Sr2      Sr       0.07137    0.66272    0.00273    1.000
    C19      C        0.42040    0.60690    0.14180    1.000
    C20      C        0.53870    0.60350    0.20300    1.000
    C21      C        0.67080    0.58390    0.13710    1.000
    C22      C        0.52470    0.62780    0.32270    1.000
    C23      C        0.64390    0.63610    0.38040    1.000
    H9       H        0.73190    0.62550    0.33840    1.000
    C24      C        0.63110    0.65900    0.49470    1.000
    H10      H        0.71060    0.66410    0.52950    1.000
    C25      C        0.49930    0.67550    0.56280    1.000
    C26      C        0.38100    0.66790    0.50440    1.000
    H11      H        0.29290    0.67840    0.54620    1.000
    C27      C        0.39350    0.64590    0.39010    1.000
    H12      H        0.31380    0.64260    0.35490    1.000
    C28      C        0.48380    0.69880    0.68280    1.000
    C29      C        0.59970    0.70760    0.74120    1.000
    C30      C        0.35170    0.71280    0.75020    1.000
    C31      C        0.01980    0.65310    0.53570    1.000
    C32      C        0.01130    0.75720    0.44390    1.000
    C33      C        0.01240    0.73100    0.32580    1.000
    C34      C        0.00540    0.89870    0.59120    1.000
    H13      H        0.00860    0.83110    0.65230    1.000
    C35      C        0.00540    0.87820    0.47150    1.000
    C36      C        0.99900    0.98400    0.38120    1.000
    H14      H        0.99790    0.97350    0.30190    1.000
    N7       N        0.32310    0.60880    0.09490    1.000
    N8       N        0.77940    0.56590    0.08740    1.000
    N9       N        0.69540    0.71410    0.78670    1.000
    N10      N        0.24450    0.72190    0.80380    1.000
    N11      N        0.01400    0.70770    0.23130    1.000
    N12      N        0.02800    0.57360    0.61350    1.000
    O2       O        0.05441    0.44762    0.13779    1.000
    H15      H        0.00620    0.45040    0.20410    1.000
    H16      H        0.13460    0.41070    0.14970    1.000
