# CIF file generated by openbabel 3.1.0, see https://openbabel.org
data_I
_chemical_name_common 'image0'
_cell_length_a 18.9895
_cell_length_b 28.481
_cell_length_c 16.9587
_cell_angle_alpha 90
_cell_angle_beta 119.896
_cell_angle_gamma 90
_space_group_name_H-M_alt 'P 1'
_space_group_name_Hall 'P 1'
loop_
    _symmetry_equiv_pos_as_xyz
    x,y,z
loop_
    _atom_site_label
    _atom_site_type_symbol
    _atom_site_fract_x
    _atom_site_fract_y
    _atom_site_fract_z
    _atom_site_occupancy
    Cd1      Cd       0.40033    0.63052    0.37225    1.000
    Na1      Na       0.20235    0.60864    0.28182    1.000
    O1       O        0.43840    0.43126    0.97400    1.000
    O2       O        0.40590    0.59183    0.26230    1.000
    O3       O        0.28830    0.56260    0.23200    1.000
    O4       O        0.28790    0.67119    0.28040    1.000
    O5       O        0.03400    0.83807    0.92300    1.000
    O6       O        0.96570    0.81429    0.98890    1.000
    O7       O        0.31560    0.40475    0.92960    1.000
    O8       O        0.36840    0.70583    0.23970    1.000
    O9       O        0.86940    0.66346    0.17640    1.000
    O10      O        0.94720    0.57540    0.13600    1.000
    O11      O        0.95000    0.69570    0.13450    1.000
    C1       C        0.34690    0.56400    0.22100    1.000
    C2       C        0.82720    0.75750    0.01620    1.000
    H1       H        0.88070    0.76280    0.02710    1.000
    C3       C        0.30150    0.69970    0.23330    1.000
    C4       C        0.35230    0.53010    0.15460    1.000
    C5       C        0.81390    0.72240    0.06250    1.000
    C6       C        0.23520    0.75650    0.10230    1.000
    H2       H        0.28380    0.75660    0.09910    1.000
    C7       C        0.37310    0.43250    0.97500    1.000
    C8       C        0.15800    0.72810    0.16800    1.000
    H3       H        0.15290    0.70840    0.21000    1.000
    C9       C        0.02780    0.81350    0.98130    1.000
    C10      C        0.09880    0.78350    0.04500    1.000
    O12      O        0.07340    0.58980    0.17720    1.000
    C11      C        0.16990    0.78350    0.04250    1.000
    H4       H        0.17430    0.80240    0.99900    1.000
    C12      C        0.29460    0.49620    0.11150    1.000
    H5       H        0.25000    0.49400    0.12200    1.000
    C13      C        0.73500    0.71500    0.04560    1.000
    H6       H        0.72450    0.69090    0.07690    1.000
    C14      C        0.42040    0.50230    0.07620    1.000
    H7       H        0.46390    0.50500    0.06390    1.000
    C15      C        0.41460    0.53400    0.13630    1.000
    H8       H        0.45390    0.55810    0.16420    1.000
    C16      C        0.23010    0.72920    0.16670    1.000
    C17      C        0.36350    0.46750    0.03530    1.000
    C18      C        0.88190    0.69190    0.12910    1.000
    C19      C        0.09330    0.75560    0.10840    1.000
    H9       H        0.04450    0.75530    0.11090    1.000
    C20      C        0.30060    0.46510    0.05300    1.000
    H10      H        0.26040    0.44140    0.02440    1.000
    C21      C        0.00520    0.53280    0.06280    1.000
    C22      C        0.93390    0.50710    0.01130    1.000
    H11      H        0.88850    0.51200    0.01940    1.000
    C23      C        0.07040    0.52480    0.05030    1.000
    H12      H        0.11930    0.54200    0.08540    1.000
    C24      C        0.00960    0.56860    0.13040    1.000
    Cd2      Cd       0.90033    0.13052    0.37225    1.000
    Na2      Na       0.70235    0.10864    0.28182    1.000
    O13      O        0.93840    0.93126    0.97400    1.000
    O14      O        0.90590    0.09183    0.26230    1.000
    O15      O        0.78830    0.06260    0.23200    1.000
    O16      O        0.78790    0.17119    0.28040    1.000
    O17      O        0.53400    0.33807    0.92300    1.000
    O18      O        0.46570    0.31429    0.98890    1.000
    O19      O        0.81560    0.90475    0.92960    1.000
    O20      O        0.86840    0.20583    0.23970    1.000
    O21      O        0.36940    0.16346    0.17640    1.000
    O22      O        0.44720    0.07540    0.13600    1.000
    O23      O        0.45000    0.19570    0.13450    1.000
    C25      C        0.84690    0.06400    0.22100    1.000
    C26      C        0.32720    0.25750    0.01620    1.000
    H13      H        0.38070    0.26280    0.02710    1.000
    C27      C        0.80150    0.19970    0.23330    1.000
    C28      C        0.85230    0.03010    0.15460    1.000
    C29      C        0.31390    0.22240    0.06250    1.000
    C30      C        0.73520    0.25650    0.10230    1.000
    H14      H        0.78380    0.25660    0.09910    1.000
    C31      C        0.87310    0.93250    0.97500    1.000
    C32      C        0.65800    0.22810    0.16800    1.000
    H15      H        0.65290    0.20840    0.21000    1.000
    C33      C        0.52780    0.31350    0.98130    1.000
    C34      C        0.59880    0.28350    0.04500    1.000
    O24      O        0.57340    0.08980    0.17720    1.000
    C35      C        0.66990    0.28350    0.04250    1.000
    H16      H        0.67430    0.30240    0.99900    1.000
    C36      C        0.79460    0.99620    0.11150    1.000
    H17      H        0.75000    0.99400    0.12200    1.000
    C37      C        0.23500    0.21500    0.04560    1.000
    H18      H        0.22450    0.19090    0.07690    1.000
    C38      C        0.92040    0.00230    0.07620    1.000
    H19      H        0.96390    0.00500    0.06390    1.000
    C39      C        0.91460    0.03400    0.13630    1.000
    H20      H        0.95390    0.05810    0.16420    1.000
    C40      C        0.73010    0.22920    0.16670    1.000
    C41      C        0.86350    0.96750    0.03530    1.000
    C42      C        0.38190    0.19190    0.12910    1.000
    C43      C        0.59330    0.25560    0.10840    1.000
    H21      H        0.54450    0.25530    0.11090    1.000
    C44      C        0.80060    0.96510    0.05300    1.000
    H22      H        0.76040    0.94140    0.02440    1.000
    C45      C        0.50520    0.03280    0.06280    1.000
    C46      C        0.43390    0.00710    0.01130    1.000
    H23      H        0.38850    0.01200    0.01940    1.000
    C47      C        0.57040    0.02480    0.05030    1.000
    H24      H        0.61930    0.04200    0.08540    1.000
    C48      C        0.50960    0.06860    0.13040    1.000
    Cd3      Cd       0.59967    0.63052    0.12775    1.000
    Na3      Na       0.79765    0.60864    0.21818    1.000
    O25      O        0.56160    0.43126    0.52600    1.000
    O26      O        0.59410    0.59183    0.23770    1.000
    O27      O        0.71170    0.56260    0.26800    1.000
    O28      O        0.71210    0.67119    0.21960    1.000
    O29      O        0.96600    0.83807    0.57700    1.000
    O30      O        0.03430    0.81429    0.51110    1.000
    O31      O        0.68440    0.40475    0.57040    1.000
    O32      O        0.63160    0.70583    0.26030    1.000
    O33      O        0.13060    0.66346    0.32360    1.000
    O34      O        0.05280    0.57540    0.36400    1.000
    O35      O        0.05000    0.69570    0.36550    1.000
    C49      C        0.65310    0.56400    0.27900    1.000
    C50      C        0.17280    0.75750    0.48380    1.000
    H25      H        0.11930    0.76280    0.47290    1.000
    C51      C        0.69850    0.69970    0.26670    1.000
    C52      C        0.64770    0.53010    0.34540    1.000
    C53      C        0.18610    0.72240    0.43750    1.000
    C54      C        0.76480    0.75650    0.39770    1.000
    H26      H        0.71620    0.75660    0.40090    1.000
    C55      C        0.62690    0.43250    0.52500    1.000
    C56      C        0.84200    0.72810    0.33200    1.000
    H27      H        0.84710    0.70840    0.29000    1.000
    C57      C        0.97220    0.81350    0.51870    1.000
    C58      C        0.90120    0.78350    0.45500    1.000
    O36      O        0.92660    0.58980    0.32280    1.000
    C59      C        0.83010    0.78350    0.45750    1.000
    H28      H        0.82570    0.80240    0.50100    1.000
    C60      C        0.70540    0.49620    0.38850    1.000
    H29      H        0.75000    0.49400    0.37800    1.000
    C61      C        0.26500    0.71500    0.45440    1.000
    H30      H        0.27550    0.69090    0.42310    1.000
    C62      C        0.57960    0.50230    0.42380    1.000
    H31      H        0.53610    0.50500    0.43610    1.000
    C63      C        0.58540    0.53400    0.36370    1.000
    H32      H        0.54610    0.55810    0.33580    1.000
    C64      C        0.76990    0.72920    0.33330    1.000
    C65      C        0.63650    0.46750    0.46470    1.000
    C66      C        0.11810    0.69190    0.37090    1.000
    C67      C        0.90670    0.75560    0.39160    1.000
    H33      H        0.95550    0.75530    0.38910    1.000
    C68      C        0.69940    0.46510    0.44700    1.000
    H34      H        0.73960    0.44140    0.47560    1.000
    C69      C        0.99480    0.53280    0.43720    1.000
    C70      C        0.06610    0.50710    0.48870    1.000
    H35      H        0.11150    0.51200    0.48060    1.000
    C71      C        0.92960    0.52480    0.44970    1.000
    H36      H        0.88070    0.54200    0.41460    1.000
    C72      C        0.99040    0.56860    0.36960    1.000
    Cd4      Cd       0.09967    0.13052    0.12775    1.000
    Na4      Na       0.29765    0.10864    0.21818    1.000
    O37      O        0.06160    0.93126    0.52600    1.000
    O38      O        0.09410    0.09183    0.23770    1.000
    O39      O        0.21170    0.06260    0.26800    1.000
    O40      O        0.21210    0.17119    0.21960    1.000
    O41      O        0.46600    0.33807    0.57700    1.000
    O42      O        0.53430    0.31429    0.51110    1.000
    O43      O        0.18440    0.90475    0.57040    1.000
    O44      O        0.13160    0.20583    0.26030    1.000
    O45      O        0.63060    0.16346    0.32360    1.000
    O46      O        0.55280    0.07540    0.36400    1.000
    O47      O        0.55000    0.19570    0.36550    1.000
    C73      C        0.15310    0.06400    0.27900    1.000
    C74      C        0.67280    0.25750    0.48380    1.000
    H37      H        0.61930    0.26280    0.47290    1.000
    C75      C        0.19850    0.19970    0.26670    1.000
    C76      C        0.14770    0.03010    0.34540    1.000
    C77      C        0.68610    0.22240    0.43750    1.000
    C78      C        0.26480    0.25650    0.39770    1.000
    H38      H        0.21620    0.25660    0.40090    1.000
    C79      C        0.12690    0.93250    0.52500    1.000
    C80      C        0.34200    0.22810    0.33200    1.000
    H39      H        0.34710    0.20840    0.29000    1.000
    C81      C        0.47220    0.31350    0.51870    1.000
    C82      C        0.40120    0.28350    0.45500    1.000
    O48      O        0.42660    0.08980    0.32280    1.000
    C83      C        0.33010    0.28350    0.45750    1.000
    H40      H        0.32570    0.30240    0.50100    1.000
    C84      C        0.20540    0.99620    0.38850    1.000
    H41      H        0.25000    0.99400    0.37800    1.000
    C85      C        0.76500    0.21500    0.45440    1.000
    H42      H        0.77550    0.19090    0.42310    1.000
    C86      C        0.07960    0.00230    0.42380    1.000
    H43      H        0.03610    0.00500    0.43610    1.000
    C87      C        0.08540    0.03400    0.36370    1.000
    H44      H        0.04610    0.05810    0.33580    1.000
    C88      C        0.26990    0.22920    0.33330    1.000
    C89      C        0.13650    0.96750    0.46470    1.000
    C90      C        0.61810    0.19190    0.37090    1.000
    C91      C        0.40670    0.25560    0.39160    1.000
    H45      H        0.45550    0.25530    0.38910    1.000
    C92      C        0.19940    0.96510    0.44700    1.000
    H46      H        0.23960    0.94140    0.47560    1.000
    C93      C        0.49480    0.03280    0.43720    1.000
    C94      C        0.56610    0.00710    0.48870    1.000
    H47      H        0.61150    0.01200    0.48060    1.000
    C95      C        0.42960    0.02480    0.44970    1.000
    H48      H        0.38070    0.04200    0.41460    1.000
    C96      C        0.49040    0.06860    0.36960    1.000
    Cd5      Cd       0.59967    0.36948    0.62775    1.000
    Na5      Na       0.79765    0.39136    0.71818    1.000
    O49      O        0.56160    0.56874    0.02600    1.000
    O50      O        0.59410    0.40817    0.73770    1.000
    O51      O        0.71170    0.43740    0.76800    1.000
    O52      O        0.71210    0.32881    0.71960    1.000
    O53      O        0.96600    0.16193    0.07700    1.000
    O54      O        0.03430    0.18571    0.01110    1.000
    O55      O        0.68440    0.59525    0.07040    1.000
    O56      O        0.63160    0.29417    0.76030    1.000
    O57      O        0.13060    0.33654    0.82360    1.000
    O58      O        0.05280    0.42460    0.86400    1.000
    O59      O        0.05000    0.30430    0.86550    1.000
    C97      C        0.65310    0.43600    0.77900    1.000
    C98      C        0.17280    0.24250    0.98380    1.000
    H49      H        0.11930    0.23720    0.97290    1.000
    C99      C        0.69850    0.30030    0.76670    1.000
    C100     C        0.64770    0.46990    0.84540    1.000
    C101     C        0.18610    0.27760    0.93750    1.000
    C102     C        0.76480    0.24350    0.89770    1.000
    H50      H        0.71620    0.24340    0.90090    1.000
    C103     C        0.62690    0.56750    0.02500    1.000
    C104     C        0.84200    0.27190    0.83200    1.000
    H51      H        0.84710    0.29160    0.79000    1.000
    C105     C        0.97220    0.18650    0.01870    1.000
    C106     C        0.90120    0.21650    0.95500    1.000
    O60      O        0.92660    0.41020    0.82280    1.000
    C107     C        0.83010    0.21650    0.95750    1.000
    H52      H        0.82570    0.19760    0.00100    1.000
    C108     C        0.70540    0.50380    0.88850    1.000
    H53      H        0.75000    0.50600    0.87800    1.000
    C109     C        0.26500    0.28500    0.95440    1.000
    H54      H        0.27550    0.30910    0.92310    1.000
    C110     C        0.57960    0.49770    0.92380    1.000
    H55      H        0.53610    0.49500    0.93610    1.000
    C111     C        0.58540    0.46600    0.86370    1.000
    H56      H        0.54610    0.44190    0.83580    1.000
    C112     C        0.76990    0.27080    0.83330    1.000
    C113     C        0.63650    0.53250    0.96470    1.000
    C114     C        0.11810    0.30810    0.87090    1.000
    C115     C        0.90670    0.24440    0.89160    1.000
    H57      H        0.95550    0.24470    0.88910    1.000
    C116     C        0.69940    0.53490    0.94700    1.000
    H58      H        0.73960    0.55860    0.97560    1.000
    C117     C        0.99480    0.46720    0.93720    1.000
    C118     C        0.06610    0.49290    0.98870    1.000
    H59      H        0.11150    0.48800    0.98060    1.000
    C119     C        0.92960    0.47520    0.94970    1.000
    H60      H        0.88070    0.45800    0.91460    1.000
    C120     C        0.99040    0.43140    0.86960    1.000
    Cd6      Cd       0.09967    0.86948    0.62775    1.000
    Na6      Na       0.29765    0.89136    0.71818    1.000
    O61      O        0.06160    0.06874    0.02600    1.000
    O62      O        0.09410    0.90817    0.73770    1.000
    O63      O        0.21170    0.93740    0.76800    1.000
    O64      O        0.21210    0.82881    0.71960    1.000
    O65      O        0.46600    0.66193    0.07700    1.000
    O66      O        0.53430    0.68571    0.01110    1.000
    O67      O        0.18440    0.09525    0.07040    1.000
    O68      O        0.13160    0.79417    0.76030    1.000
    O69      O        0.63060    0.83654    0.82360    1.000
    O70      O        0.55280    0.92460    0.86400    1.000
    O71      O        0.55000    0.80430    0.86550    1.000
    C121     C        0.15310    0.93600    0.77900    1.000
    C122     C        0.67280    0.74250    0.98380    1.000
    H61      H        0.61930    0.73720    0.97290    1.000
    C123     C        0.19850    0.80030    0.76670    1.000
    C124     C        0.14770    0.96990    0.84540    1.000
    C125     C        0.68610    0.77760    0.93750    1.000
    C126     C        0.26480    0.74350    0.89770    1.000
    H62      H        0.21620    0.74340    0.90090    1.000
    C127     C        0.12690    0.06750    0.02500    1.000
    C128     C        0.34200    0.77190    0.83200    1.000
    H63      H        0.34710    0.79160    0.79000    1.000
    C129     C        0.47220    0.68650    0.01870    1.000
    C130     C        0.40120    0.71650    0.95500    1.000
    O72      O        0.42660    0.91020    0.82280    1.000
    C131     C        0.33010    0.71650    0.95750    1.000
    H64      H        0.32570    0.69760    0.00100    1.000
    C132     C        0.20540    0.00380    0.88850    1.000
    H65      H        0.25000    0.00600    0.87800    1.000
    C133     C        0.76500    0.78500    0.95440    1.000
    H66      H        0.77550    0.80910    0.92310    1.000
    C134     C        0.07960    0.99770    0.92380    1.000
    H67      H        0.03610    0.99500    0.93610    1.000
    C135     C        0.08540    0.96600    0.86370    1.000
    H68      H        0.04610    0.94190    0.83580    1.000
    C136     C        0.26990    0.77080    0.83330    1.000
    C137     C        0.13650    0.03250    0.96470    1.000
    C138     C        0.61810    0.80810    0.87090    1.000
    C139     C        0.40670    0.74440    0.89160    1.000
    H69      H        0.45550    0.74470    0.88910    1.000
    C140     C        0.19940    0.03490    0.94700    1.000
    H70      H        0.23960    0.05860    0.97560    1.000
    C141     C        0.49480    0.96720    0.93720    1.000
    C142     C        0.56610    0.99290    0.98870    1.000
    H71      H        0.61150    0.98800    0.98060    1.000
    C143     C        0.42960    0.97520    0.94970    1.000
    H72      H        0.38070    0.95800    0.91460    1.000
    C144     C        0.49040    0.93140    0.86960    1.000
    Cd7      Cd       0.40033    0.36948    0.87225    1.000
    Na7      Na       0.20235    0.39136    0.78182    1.000
    O73      O        0.43840    0.56874    0.47400    1.000
    O74      O        0.40590    0.40817    0.76230    1.000
    O75      O        0.28830    0.43740    0.73200    1.000
    O76      O        0.28790    0.32881    0.78040    1.000
    O77      O        0.03400    0.16193    0.42300    1.000
    O78      O        0.96570    0.18571    0.48890    1.000
    O79      O        0.31560    0.59525    0.42960    1.000
    O80      O        0.36840    0.29417    0.73970    1.000
    O81      O        0.86940    0.33654    0.67640    1.000
    O82      O        0.94720    0.42460    0.63600    1.000
    O83      O        0.95000    0.30430    0.63450    1.000
    C145     C        0.34690    0.43600    0.72100    1.000
    C146     C        0.82720    0.24250    0.51620    1.000
    H73      H        0.88070    0.23720    0.52710    1.000
    C147     C        0.30150    0.30030    0.73330    1.000
    C148     C        0.35230    0.46990    0.65460    1.000
    C149     C        0.81390    0.27760    0.56250    1.000
    C150     C        0.23520    0.24350    0.60230    1.000
    H74      H        0.28380    0.24340    0.59910    1.000
    C151     C        0.37310    0.56750    0.47500    1.000
    C152     C        0.15800    0.27190    0.66800    1.000
    H75      H        0.15290    0.29160    0.71000    1.000
    C153     C        0.02780    0.18650    0.48130    1.000
    C154     C        0.09880    0.21650    0.54500    1.000
    O84      O        0.07340    0.41020    0.67720    1.000
    C155     C        0.16990    0.21650    0.54250    1.000
    H76      H        0.17430    0.19760    0.49900    1.000
    C156     C        0.29460    0.50380    0.61150    1.000
    H77      H        0.25000    0.50600    0.62200    1.000
    C157     C        0.73500    0.28500    0.54560    1.000
    H78      H        0.72450    0.30910    0.57690    1.000
    C158     C        0.42040    0.49770    0.57620    1.000
    H79      H        0.46390    0.49500    0.56390    1.000
    C159     C        0.41460    0.46600    0.63630    1.000
    H80      H        0.45390    0.44190    0.66420    1.000
    C160     C        0.23010    0.27080    0.66670    1.000
    C161     C        0.36350    0.53250    0.53530    1.000
    C162     C        0.88190    0.30810    0.62910    1.000
    C163     C        0.09330    0.24440    0.60840    1.000
    H81      H        0.04450    0.24470    0.61090    1.000
    C164     C        0.30060    0.53490    0.55300    1.000
    H82      H        0.26040    0.55860    0.52440    1.000
    C165     C        0.00520    0.46720    0.56280    1.000
    C166     C        0.93390    0.49290    0.51130    1.000
    H83      H        0.88850    0.48800    0.51940    1.000
    C167     C        0.07040    0.47520    0.55030    1.000
    H84      H        0.11930    0.45800    0.58540    1.000
    C168     C        0.00960    0.43140    0.63040    1.000
    Cd8      Cd       0.90033    0.86948    0.87225    1.000
    Na8      Na       0.70235    0.89136    0.78182    1.000
    O85      O        0.93840    0.06874    0.47400    1.000
    O86      O        0.90590    0.90817    0.76230    1.000
    O87      O        0.78830    0.93740    0.73200    1.000
    O88      O        0.78790    0.82881    0.78040    1.000
    O89      O        0.53400    0.66193    0.42300    1.000
    O90      O        0.46570    0.68571    0.48890    1.000
    O91      O        0.81560    0.09525    0.42960    1.000
    O92      O        0.86840    0.79417    0.73970    1.000
    O93      O        0.36940    0.83654    0.67640    1.000
    O94      O        0.44720    0.92460    0.63600    1.000
    O95      O        0.45000    0.80430    0.63450    1.000
    C169     C        0.84690    0.93600    0.72100    1.000
    C170     C        0.32720    0.74250    0.51620    1.000
    H85      H        0.38070    0.73720    0.52710    1.000
    C171     C        0.80150    0.80030    0.73330    1.000
    C172     C        0.85230    0.96990    0.65460    1.000
    C173     C        0.31390    0.77760    0.56250    1.000
    C174     C        0.73520    0.74350    0.60230    1.000
    H86      H        0.78380    0.74340    0.59910    1.000
    C175     C        0.87310    0.06750    0.47500    1.000
    C176     C        0.65800    0.77190    0.66800    1.000
    H87      H        0.65290    0.79160    0.71000    1.000
    C177     C        0.52780    0.68650    0.48130    1.000
    C178     C        0.59880    0.71650    0.54500    1.000
    O96      O        0.57340    0.91020    0.67720    1.000
    C179     C        0.66990    0.71650    0.54250    1.000
    H88      H        0.67430    0.69760    0.49900    1.000
    C180     C        0.79460    0.00380    0.61150    1.000
    H89      H        0.75000    0.00600    0.62200    1.000
    C181     C        0.23500    0.78500    0.54560    1.000
    H90      H        0.22450    0.80910    0.57690    1.000
    C182     C        0.92040    0.99770    0.57620    1.000
    H91      H        0.96390    0.99500    0.56390    1.000
    C183     C        0.91460    0.96600    0.63630    1.000
    H92      H        0.95390    0.94190    0.66420    1.000
    C184     C        0.73010    0.77080    0.66670    1.000
    C185     C        0.86350    0.03250    0.53530    1.000
    C186     C        0.38190    0.80810    0.62910    1.000
    C187     C        0.59330    0.74440    0.60840    1.000
    H93      H        0.54450    0.74470    0.61090    1.000
    C188     C        0.80060    0.03490    0.55300    1.000
    H94      H        0.76040    0.05860    0.52440    1.000
    C189     C        0.50520    0.96720    0.56280    1.000
    C190     C        0.43390    0.99290    0.51130    1.000
    H95      H        0.38850    0.98800    0.51940    1.000
    C191     C        0.57040    0.97520    0.55030    1.000
    H96      H        0.61930    0.95800    0.58540    1.000
    C192     C        0.50960    0.93140    0.63040    1.000
    Cd9      Cd       0.00000    0.63247    0.25000    1.000
    Cd10     Cd       0.50000    0.13247    0.25000    1.000
    Cd11     Cd       0.00000    0.36753    0.75000    1.000
    Cd12     Cd       0.50000    0.86753    0.75000    1.000
    K1       K        0.50000    0.66301    0.25000    1.000
    K2       K        0.00000    0.16301    0.25000    1.000
    K3       K        0.50000    0.33699    0.75000    1.000
    K4       K        0.00000    0.83699    0.75000    1.000
