data_functionalizedCrystal
_audit_creation_method	'EQeq! by Chris Wilmer'
_symmetry_space_group_name_H-M	'P1'
_symmetry_Int_Tables_number	1
_symmetry_cell_setting	triclinic
loop_
_symmetry_equiv_pos_as_xyz
  x,y,z
_cell_length_a	24.4238
_cell_length_b	27.1242
_cell_length_c	30.9423
_cell_angle_alpha	115.306
_cell_angle_beta	113.245
_cell_angle_gamma	90
loop_
_atom_site_label
_atom_site_type_symbol
_atom_site_fract_x
_atom_site_fract_y
_atom_site_fract_z
_atom_site_charge
Mof_Zn	Zn	0.8528	0.9309	0.5514	1.138
Mof_Zn	Zn	0.8121	0.9982	0.4694	1.206
Mof_Zn	Zn	0.0112	0.9771	0.6372	1.188
Mof_Zn	Zn	0.8231	0.7835	0.4716	1.212
Mof_Zn	Zn	0.7638	0.964	0.6272	1.172
Mof_H 	H 	0.6837	0.8535	0.6162	0.064
Mof_H 	H 	0.658	0.7583	0.5888	0.038
Mof_H 	H 	0.6785	0.6882	0.5268	0.059
Mof_H 	H 	0.7433	0.7085	0.4964	0.079
Mof_H 	H 	0.0915	0.0669	0.622	0.079
Mof_H 	H 	0.102	0.1303	0.5896	0.038
Mof_H 	H 	0.0238	0.1338	0.5216	0.033
Mof_H 	H 	0.9238	0.0885	0.4858	0.062
Mof_H 	H 	0.7299	0.0983	0.4982	0.078
Mof_H 	H 	0.6709	0.1447	0.5372	0.067
Mof_H 	H 	0.6475	0.1301	0.5912	0.023
Mof_H 	H 	0.6828	0.0682	0.6196	0.077
Mof_H 	H 	0.1037	0.8816	0.6236	0.076
Mof_H 	H 	0.9468	0.7185	0.4858	0.064
Mof_H 	H 	0.0553	0.7206	0.515	0.039
Mof_H 	H 	0.1268	0.7989	0.5854	0.028
Mof_H 	H 	0.7511	0.7366	0.3368	0.1
Mof_H 	H 	0.7217	0.7472	0.2612	0.028
Mof_H 	H 	0.7248	0.8247	0.259	0.04
Mof_H 	H 	0.744	0.9122	0.3366	0.089
Mof_H 	H 	0.8537	0.0309	0.7586	0.077
Mof_H 	H 	0.9366	0.0829	0.8402	0.039
Mof_H 	H 	0.0339	0.09	0.8454	0.036
Mof_H 	H 	0.0484	0.0451	0.7692	0.061
Mof_H 	H 	0.7242	0.101	0.7574	0.064
Mof_H 	H 	0.6772	0.127	0.8168	0.051
Mof_H 	H 	0.7149	0.9905	0.8326	0.051
Mof_H 	H 	0.718	0.9561	0.7486	0.067
Mof_H 	H 	0.6975	0.1746	0.9088	0.015
Mof_H 	H 	0.6716	0.2055	0.9794	0.104
Mof_H 	H 	0.6334	0.0477	0.9514	0.107
Mof_H 	H 	0.6593	0.0168	0.881	0.019
Mof_H 	H 	0.6544	0.2192	0.0322	-0.029
Mof_H 	H 	0.687	0.1799	0.0546	0.003
Mof_H 	H 	0.1674	0.9848	0.7884	0.028
Mof_H 	H 	0.2644	0.0243	0.8624	0.077
Mof_H 	H 	0.2938	0.1252	0.8038	0.089
Mof_H 	H 	0.1958	0.0943	0.7442	0.012
Mof_H 	H 	0.3643	0.0256	0.8904	0.017
Mof_H 	H 	0.4612	0.055	0.9598	0.11
Mof_H 	H 	0.4667	0.2082	0.9708	0.104
Mof_H 	H 	0.3698	0.1788	0.9014	0.008
Mof_H 	H 	0.5336	0.1865	0.065	-0.016
Mof_H 	H 	0.5376	0.2074	0.0264	-0.025
Mof_H 	H 	0.5999	0.1362	0.0812	0.017
Mof_H 	H 	0.6683	0.1648	0.1156	0.008
Mof_H 	H 	0.7893	0.6294	0.3256	-0.3
Mof_H 	H 	0.713	0.5428	0.2566	0.244
Mof_H 	H 	0.7678	0.4959	0.3666	0.259
Mof_H 	H 	0.7978	0.5918	0.4294	-0.222
Mof_H 	H 	0.7963	0.4452	0.2506	-0.065
Mof_H 	H 	0.7655	0.3526	0.186	0.18
Mof_H 	H 	0.6037	0.3474	0.1908	0.175
Mof_H 	H 	0.6344	0.44	0.2552	-0.065
Mof_H 	H 	0.5959	0.2846	0.103	-0.137
Mof_H 	H 	0.6024	0.2591	0.1416	-0.117
Mof_H 	H 	0.7832	0.1453	0.4282	-0.084
Mof_H 	H 	0.7462	0.1822	0.3682	0.144
Mof_H 	H 	0.7133	0.0277	0.25	0.131
Mof_H 	H 	0.7363	0.9947	0.3168	-0.036
Mof_H 	H 	0.6423	0.1636	0.2822	0.01
Mof_H 	H 	0.5998	0.1839	0.2118	0.107
Mof_H 	H 	0.7249	0.1203	0.1618	0.095
Mof_H 	H 	0.7674	0.1	0.2324	0.011
Mof_C 	C 	0.752	0.793	0.536	0.081
Mof_C 	C 	0.737	0.835	0.57	0.06
Mof_C 	C 	0.696	0.826	0.594	-0.117
Mof_C 	C 	0.68	0.769	0.574	-0.015
Mof_C 	C 	0.695	0.725	0.538	-0.02
Mof_C 	C 	0.732	0.737	0.52	-0.117
Mof_C 	C 	0.951	0.047	0.532	0.06
Mof_C 	C 	0.996	0.041	0.572	0.078
Mof_C 	C 	0.059	0.071	0.596	-0.123
Mof_C 	C 	0.065	0.108	0.576	-0.026
Mof_C 	C 	0.015	0.111	0.534	-0.027
Mof_C 	C 	0.956	0.084	0.512	-0.11
Mof_C 	C 	0.742	0.051	0.538	0.059
Mof_C 	C 	0.721	0.091	0.522	-0.096
Mof_C 	C 	0.687	0.117	0.546	-0.043
Mof_C 	C 	0.673	0.109	0.578	0.018
Mof_C 	C 	0.693	0.073	0.596	-0.142
Mof_C 	C 	0.733	0.04	0.574	0.071
Mof_C 	C 	0.074	0.851	0.596	-0.125
Mof_C 	C 	0.007	0.855	0.572	0.075
Mof_C 	C 	0.961	0.804	0.532	0.06
Mof_C 	C 	0.976	0.751	0.51	-0.104
Mof_C 	C 	0.042	0.753	0.53	-0.039
Mof_C 	C 	0.086	0.802	0.572	0.006
Mof_C 	C 	0.774	0.871	0.384	0.06
Mof_C 	C 	0.777	0.824	0.384	0.074
Mof_C 	C 	0.754	0.771	0.338	-0.135
Mof_C 	C 	0.736	0.779	0.294	0.006
Mof_C 	C 	0.735	0.826	0.292	-0.034
Mof_C 	C 	0.75	0.879	0.338	-0.106
Mof_C 	C 	0.96	0.011	0.718	0.05
Mof_C 	C 	0.901	0.007	0.714	0.076
Mof_C 	C 	0.892	0.034	0.76	-0.114
Mof_C 	C 	0.943	0.065	0.81	-0.017
Mof_C 	C 	-8.14767e-17	0.069	0.812	-0.016
Mof_C 	C 	0.01	0.042	0.768	-0.103
Mof_C 	C 	0.742	0.995	0.698	0.175
Mof_C 	C 	0.728	0.024	0.746	0.003
Mof_C 	C 	0.717	0.076	0.768	-0.044
Mof_C 	C 	0.694	0.095	0.81	-0.066
Mof_C 	C 	0.698	0.068	0.84	0.035
Mof_C 	C 	0.711	0.014	0.816	-0.059
Mof_C 	C 	0.719	0.994	0.766	-0.048
Mof_C 	C 	0.685	0.149	0.918	0.049
Mof_C 	C 	0.669	0.168	0.96	-0.204
Mof_C 	C 	0.65	0.13	0.972	0.22
Mof_C 	C 	0.646	0.073	0.942	-0.169
Mof_C 	C 	0.661	0.055	0.9	0.036
Mof_C 	C 	0.681	0.093	0.888	-0.053
Mof_C 	C 	0.647	0.188	0.038	0.192
Mof_C 	C 	0.109	0.003	0.706	0.495
Mof_C 	C 	0.176	0.032	0.754	-0.15
Mof_C 	C 	0.194	0.013	0.792	0.055
Mof_C 	C 	0.252	0.036	0.836	-0.136
Mof_C 	C 	0.291	0.08	0.84	0.092
Mof_C 	C 	0.269	0.098	0.802	-0.175
Mof_C 	C 	0.211	0.076	0.764	0.102
Mof_C 	C 	0.357	0.099	0.888	-0.073
Mof_C 	C 	0.385	0.062	0.906	0.041
Mof_C 	C 	0.443	0.08	0.948	-0.171
Mof_C 	C 	0.473	0.135	0.972	0.211
Mof_C 	C 	0.446	0.172	0.954	-0.203
Mof_C 	C 	0.389	0.154	0.914	0.062
Mof_C 	C 	0.553	0.183	0.042	0.19
Mof_C 	C 	0.621	0.206	0.078	-0.225
Mof_C 	C 	0.627	0.172	0.106	0.15
Mof_C 	C 	0.8	0.682	0.42	1.168
Mof_C 	C 	0.779	0.62	0.38	-0.92
Mof_C 	C 	0.773	0.61	0.334	0.803
Mof_C 	C 	0.738	0.55	0.292	-0.63
Mof_C 	C 	0.741	0.509	0.302	0.551
Mof_C 	C 	0.764	0.523	0.356	-0.644
Mof_C 	C 	0.783	0.582	0.394	0.746
Mof_C 	C 	0.719	0.452	0.26	-0.366
Mof_C 	C 	0.757	0.426	0.238	0.276
Mof_C 	C 	0.739	0.37	0.2	-0.389
Mof_C 	C 	0.682	0.341	0.182	0.432
Mof_C 	C 	0.642	0.367	0.202	-0.394
Mof_C 	C 	0.661	0.422	0.242	0.275
Mof_C 	C 	0.62	0.264	0.12	0.578
Mof_C 	C 	0.786	0.047	0.418	0.865
Mof_C 	C 	0.766	0.072	0.38	-0.464
Mof_C 	C 	0.767	0.121	0.392	0.375
Mof_C 	C 	0.746	0.144	0.356	-0.332
Mof_C 	C 	0.724	0.108	0.302	0.219
Mof_C 	C 	0.724	0.052	0.286	-0.273
Mof_C 	C 	0.741	0.033	0.326	0.249
Mof_C 	C 	0.709	0.13	0.264	-0.122
Mof_C 	C 	0.659	0.155	0.258	0.061
Mof_C 	C 	0.633	0.167	0.216	-0.166
Mof_C 	C 	0.658	0.154	0.18	0.164
Mof_C 	C 	0.708	0.129	0.186	-0.177
Mof_C 	C 	0.734	0.117	0.228	0.067
Mof_N 	N 	0.975	0.007	0.584	-0.242
Mof_N 	N 	0.916	0.991	0.552	-0.198
Mof_N 	N 	0.899	0.015	0.52	-0.243
Mof_N 	N 	0.776	0.015	0.522	-0.238
Mof_N 	N 	0.789	0.986	0.55	-0.212
Mof_N 	N 	0.801	0.832	0.436	-0.237
Mof_N 	N 	0.812	0.887	0.464	-0.205
Mof_N 	N 	0.797	0.917	0.436	-0.248
Mof_N 	N 	0.787	0.814	0.524	-0.244
Mof_N 	N 	0.793	0.867	0.55	-0.195
Mof_N 	N 	0.95	0.991	0.666	-0.25
Mof_N 	N 	0.893	0.976	0.64	-0.174
Mof_N 	N 	0.858	0.986	0.662	-0.233
Mof_N 	N 	0.92	0.877	0.554	-0.207
Mof_N 	N 	0.981	0.897	0.586	-0.256
Mof_N 	N 	0.762	0.883	0.58	-0.254
Mof_N 	N 	0.91	0.823	0.522	-0.239
Mof_N 	N 	0.76	0.001	0.58	-0.241
Mof_O 	O 	0.095	0.029	0.684	-0.53
Mof_O 	O 	0.088	0.964	0.702	-0.48
Mof_O 	O 	0.792	0.713	0.412	-0.94
Mof_O 	O 	0.827	0.693	0.466	-0.607
Mof_O 	O 	0.806	0.08	0.462	-0.572
Mof_O 	O 	0.782	0.005	0.406	-0.758
Mof_O 	O 	0.747	0.035	0.686	-0.371
Mof_O 	O 	0.753	0.949	0.69	-0.368
Mof_O 	O 	0.533	0.134	0.004	-0.253
Mof_O 	O 	0.62	0.189	0.15	-0.226
Mof_O 	O 	0.628	0.135	0.008	-0.258
Mof_O 	O 	0.666	0.285	0.144	-0.497
Mof_Zn	Zn	0.3014	0.5691	0.4486	1.137
Mof_Zn	Zn	0.3427	0.5018	0.5306	1.205
Mof_Zn	Zn	0.374	0.5229	0.3628	1.187
Mof_Zn	Zn	0.3515	0.7165	0.5284	1.211
Mof_Zn	Zn	0.1366	0.536	0.3728	1.171
Mof_H 	H 	0.0675	0.6465	0.3838	0.063
Mof_H 	H 	0.0692	0.7417	0.4112	0.037
Mof_H 	H 	0.1517	0.8118	0.4732	0.058
Mof_H 	H 	0.2469	0.7915	0.5036	0.078
Mof_H 	H 	0.4695	0.4331	0.378	0.078
Mof_H 	H 	0.5124	0.3697	0.4104	0.037
Mof_H 	H 	0.5022	0.3662	0.4784	0.032
Mof_H 	H 	0.438	0.4115	0.5142	0.062
Mof_H 	H 	0.2317	0.4017	0.5018	0.077
Mof_H 	H 	0.1337	0.3553	0.4628	0.066
Mof_H 	H 	0.0563	0.3699	0.4088	0.023
Mof_H 	H 	0.0632	0.4318	0.3804	0.077
Mof_H 	H 	0.4801	0.6184	0.3764	0.075
Mof_H 	H 	0.461	0.7815	0.5142	0.064
Mof_H 	H 	0.5403	0.7794	0.485	0.039
Mof_H 	H 	0.5414	0.7011	0.4146	0.028
Mof_H 	H 	0.4143	0.7634	0.6632	0.1
Mof_H 	H 	0.4605	0.7528	0.7388	0.028
Mof_H 	H 	0.4658	0.6753	0.741	0.04
Mof_H 	H 	0.4074	0.5878	0.6634	0.089
Mof_H 	H 	0.0951	0.4691	0.2414	0.076
Mof_H 	H 	0.0964	0.4171	0.1598	0.039
Mof_H 	H 	0.1885	0.41	0.1546	0.036
Mof_H 	H 	0.2792	0.4549	0.2308	0.061
Mof_H 	H 	0.9668	0.399	0.2426	0.063
Mof_H 	H 	0.8604	0.373	0.1832	0.051
Mof_H 	H 	0.8823	0.5095	0.1674	0.052
Mof_H 	H 	0.9694	0.5439	0.2514	0.066
Mof_H 	H 	0.7887	0.3254	0.0912	0.015
Mof_H 	H 	0.6922	0.2945	0.0206	0.104
Mof_H 	H 	0.682	0.4523	0.0486	0.107
Mof_H 	H 	0.7783	0.4832	0.119	0.019
Mof_H 	H 	0.6222	0.2808	0.9678	-0.029
Mof_H 	H 	0.6324	0.3201	0.9454	0.003
Mof_H 	H 	0.379	0.5152	0.2116	0.027
Mof_H 	H 	0.402	0.4757	0.1376	0.078
Mof_H 	H 	0.49	0.3748	0.1962	0.09
Mof_H 	H 	0.4516	0.4057	0.2558	0.011
Mof_H 	H 	0.4739	0.4744	0.1096	0.017
Mof_H 	H 	0.5014	0.445	0.0402	0.11
Mof_H 	H 	0.4959	0.2918	0.0292	0.104
Mof_H 	H 	0.4684	0.3212	0.0986	0.008
Mof_H 	H 	0.4686	0.3135	0.935	-0.016
Mof_H 	H 	0.5112	0.2926	0.9736	-0.026
Mof_H 	H 	0.5187	0.3638	0.9188	0.017
Mof_H 	H 	0.5527	0.3352	0.8844	0.008
Mof_H 	H 	0.4637	0.8706	0.6744	-0.3
Mof_H 	H 	0.4564	0.9572	0.7434	0.244
Mof_H 	H 	0.4012	0.0041	0.6334	0.259
Mof_H 	H 	0.3684	0.9082	0.5706	-0.222
Mof_H 	H 	0.5457	0.0548	0.7494	-0.065
Mof_H 	H 	0.5795	0.1474	0.814	0.181
Mof_H 	H 	0.4129	0.1526	0.8092	0.175
Mof_H 	H 	0.3792	0.06	0.7448	-0.065
Mof_H 	H 	0.4929	0.2154	0.897	-0.137
Mof_H 	H 	0.4608	0.2409	0.8584	-0.117
Mof_H 	H 	0.355	0.3547	0.5718	-0.083
Mof_H 	H 	0.378	0.3178	0.6318	0.144
Mof_H 	H 	0.4633	0.4723	0.75	0.131
Mof_H 	H 	0.4195	0.5053	0.6832	-0.036
Mof_H 	H 	0.3601	0.3364	0.7178	0.01
Mof_H 	H 	0.388	0.3161	0.7882	0.107
Mof_H 	H 	0.5631	0.3797	0.8382	0.095
Mof_H 	H 	0.535	0.4	0.7676	0.011
Mof_C 	C 	0.216	0.707	0.464	0.081
Mof_C 	C 	0.167	0.665	0.43	0.06
Mof_C 	C 	0.102	0.674	0.406	-0.117
Mof_C 	C 	0.106	0.731	0.426	-0.015
Mof_C 	C 	0.157	0.775	0.462	-0.02
Mof_C 	C 	0.212	0.763	0.48	-0.117
Mof_C 	C 	0.419	0.453	0.468	0.06
Mof_C 	C 	0.424	0.459	0.428	0.076
Mof_C 	C 	0.463	0.429	0.404	-0.122
Mof_C 	C 	0.489	0.392	0.424	-0.027
Mof_C 	C 	0.481	0.389	0.466	-0.025
Mof_C 	C 	0.444	0.416	0.488	-0.111
Mof_C 	C 	0.204	0.449	0.462	0.059
Mof_C 	C 	0.199	0.409	0.478	-0.096
Mof_C 	C 	0.141	0.383	0.454	-0.043
Mof_C 	C 	0.095	0.391	0.422	0.018
Mof_C 	C 	0.097	0.427	0.404	-0.142
Mof_C 	C 	0.159	0.46	0.426	0.071
Mof_C 	C 	0.478	0.649	0.404	-0.125
Mof_C 	C 	0.435	0.645	0.428	0.074
Mof_C 	C 	0.429	0.696	0.468	0.06
Mof_C 	C 	0.466	0.749	0.49	-0.104
Mof_C 	C 	0.512	0.747	0.47	-0.04
Mof_C 	C 	0.514	0.698	0.428	0.006
Mof_C 	C 	0.39	0.629	0.616	0.06
Mof_C 	C 	0.393	0.676	0.616	0.074
Mof_C 	C 	0.416	0.729	0.662	-0.135
Mof_C 	C 	0.442	0.721	0.706	0.006
Mof_C 	C 	0.443	0.674	0.708	-0.034
Mof_C 	C 	0.412	0.621	0.662	-0.106
Mof_C 	C 	0.242	0.489	0.282	0.049
Mof_C 	C 	0.187	0.493	0.286	0.075
Mof_C 	C 	0.132	0.466	0.24	-0.114
Mof_C 	C 	0.133	0.435	0.19	-0.018
Mof_C 	C 	0.188	0.431	0.188	-0.015
Mof_C 	C 	0.242	0.458	0.232	-0.102
Mof_C 	C 	0.044	0.505	0.302	0.176
Mof_C 	C 	0.982	0.476	0.254	0.001
Mof_C 	C 	0.949	0.424	0.232	-0.043
Mof_C 	C 	0.884	0.405	0.19	-0.067
Mof_C 	C 	0.858	0.432	0.16	0.036
Mof_C 	C 	0.895	0.486	0.184	-0.061
Mof_C 	C 	0.953	0.506	0.234	-0.046
Mof_C 	C 	0.767	0.351	0.082	0.049
Mof_C 	C 	0.709	0.332	0.04	-0.204
Mof_C 	C 	0.678	0.37	0.028	0.219
Mof_C 	C 	0.704	0.427	0.058	-0.169
Mof_C 	C 	0.761	0.445	0.1	0.036
Mof_C 	C 	0.793	0.407	0.112	-0.053
Mof_C 	C 	0.609	0.312	0.962	0.192
Mof_C 	C 	0.403	0.497	0.294	0.496
Mof_C 	C 	0.422	0.468	0.246	-0.151
Mof_C 	C 	0.402	0.487	0.208	0.057
Mof_C 	C 	0.416	0.464	0.164	-0.137
Mof_C 	C 	0.451	0.42	0.16	0.093
Mof_C 	C 	0.467	0.402	0.198	-0.175
Mof_C 	C 	0.447	0.424	0.236	0.103
Mof_C 	C 	0.469	0.401	0.112	-0.073
Mof_C 	C 	0.479	0.438	0.094	0.041
Mof_C 	C 	0.495	0.42	0.052	-0.171
Mof_C 	C 	0.501	0.365	0.028	0.211
Mof_C 	C 	0.492	0.328	0.046	-0.204
Mof_C 	C 	0.475	0.346	0.086	0.062
Mof_C 	C 	0.511	0.317	0.958	0.19
Mof_C 	C 	0.543	0.294	0.922	-0.225
Mof_C 	C 	0.521	0.328	0.894	0.15
Mof_C 	C 	0.38	0.818	0.58	1.168
Mof_C 	C 	0.399	0.88	0.62	-0.92
Mof_C 	C 	0.439	0.89	0.666	0.803
Mof_C 	C 	0.446	0.95	0.708	-0.63
Mof_C 	C 	0.439	0.991	0.698	0.551
Mof_C 	C 	0.408	0.977	0.644	-0.644
Mof_C 	C 	0.389	0.918	0.606	0.745
Mof_C 	C 	0.459	0.048	0.74	-0.366
Mof_C 	C 	0.519	0.074	0.762	0.276
Mof_C 	C 	0.539	0.13	0.8	-0.389
Mof_C 	C 	0.5	0.159	0.818	0.432
Mof_C 	C 	0.44	0.133	0.798	-0.394
Mof_C 	C 	0.419	0.078	0.758	0.275
Mof_C 	C 	0.5	0.236	0.88	0.578
Mof_C 	C 	0.368	0.453	0.582	0.865
Mof_C 	C 	0.386	0.428	0.62	-0.464
Mof_C 	C 	0.375	0.379	0.608	0.375
Mof_C 	C 	0.39	0.356	0.644	-0.332
Mof_C 	C 	0.422	0.392	0.698	0.219
Mof_C 	C 	0.438	0.448	0.714	-0.272
Mof_C 	C 	0.415	0.467	0.674	0.248
Mof_C 	C 	0.445	0.37	0.736	-0.122
Mof_C 	C 	0.401	0.345	0.742	0.061
Mof_C 	C 	0.417	0.333	0.784	-0.166
Mof_C 	C 	0.478	0.346	0.82	0.164
Mof_C 	C 	0.522	0.371	0.814	-0.177
Mof_C 	C 	0.506	0.383	0.772	0.067
Mof_N 	N 	0.391	0.493	0.416	-0.242
Mof_N 	N 	0.364	0.509	0.448	-0.198
Mof_N 	N 	0.379	0.485	0.48	-0.243
Mof_N 	N 	0.254	0.485	0.478	-0.238
Mof_N 	N 	0.239	0.514	0.45	-0.212
Mof_N 	N 	0.365	0.668	0.564	-0.237
Mof_N 	N 	0.348	0.613	0.536	-0.205
Mof_N 	N 	0.361	0.583	0.564	-0.248
Mof_N 	N 	0.263	0.686	0.476	-0.244
Mof_N 	N 	0.243	0.633	0.45	-0.195
Mof_N 	N 	0.284	0.509	0.334	-0.25
Mof_N 	N 	0.253	0.524	0.36	-0.174
Mof_N 	N 	0.196	0.514	0.338	-0.233
Mof_N 	N 	0.366	0.623	0.446	-0.207
Mof_N 	N 	0.395	0.603	0.414	-0.255
Mof_N 	N 	0.182	0.617	0.42	-0.254
Mof_N 	N 	0.388	0.677	0.478	-0.239
Mof_N 	N 	0.18	0.499	0.42	-0.241
Mof_O 	O 	0.411	0.471	0.316	-0.53
Mof_O 	O 	0.386	0.536	0.298	-0.481
Mof_O 	O 	0.38	0.787	0.588	-0.94
Mof_O 	O 	0.361	0.807	0.534	-0.607
Mof_O 	O 	0.344	0.42	0.538	-0.572
Mof_O 	O 	0.376	0.495	0.594	-0.758
Mof_O 	O 	0.061	0.465	0.314	-0.371
Mof_O 	O 	0.063	0.551	0.31	-0.368
Mof_O 	O 	0.529	0.366	0.996	-0.253
Mof_O 	O 	0.47	0.311	0.85	-0.226
Mof_O 	O 	0.62	0.365	0.992	-0.258
Mof_O 	O 	0.522	0.215	0.856	-0.497
Mof_Zn	Zn	0.1472	0.0691	0.4486	1.137
Mof_Zn	Zn	0.1879	0.0018	0.5306	1.205
Mof_Zn	Zn	0.9888	0.0229	0.3628	1.187
Mof_Zn	Zn	0.1769	0.2165	0.5284	1.211
Mof_Zn	Zn	0.2362	0.036	0.3728	1.171
Mof_H 	H 	0.3163	0.1465	0.3838	0.063
Mof_H 	H 	0.342	0.2417	0.4112	0.037
Mof_H 	H 	0.3215	0.3118	0.4732	0.058
Mof_H 	H 	0.2567	0.2915	0.5036	0.078
Mof_H 	H 	0.9085	0.9331	0.378	0.078
Mof_H 	H 	0.898	0.8697	0.4104	0.036
Mof_H 	H 	0.9762	0.8662	0.4784	0.032
Mof_H 	H 	0.0762	0.9115	0.5142	0.061
Mof_H 	H 	0.2701	0.9017	0.5018	0.077
Mof_H 	H 	0.3291	0.8553	0.4628	0.066
Mof_H 	H 	0.3525	0.8699	0.4088	0.023
Mof_H 	H 	0.3172	0.9318	0.3804	0.077
Mof_H 	H 	0.8963	0.1184	0.3764	0.076
Mof_H 	H 	0.0532	0.2815	0.5142	0.064
Mof_H 	H 	0.9447	0.2794	0.485	0.039
Mof_H 	H 	0.8732	0.2011	0.4146	0.028
Mof_H 	H 	0.2489	0.2634	0.6632	0.1
Mof_H 	H 	0.2783	0.2528	0.7388	0.028
Mof_H 	H 	0.2752	0.1753	0.741	0.04
Mof_H 	H 	0.256	0.0878	0.6634	0.089
Mof_H 	H 	0.1463	0.9691	0.2414	0.075
Mof_H 	H 	0.0634	0.9171	0.1598	0.041
Mof_H 	H 	0.9661	0.91	0.1546	0.032
Mof_H 	H 	0.9516	0.9549	0.2308	0.064
Mof_H 	H 	0.2758	0.899	0.2426	0.064
Mof_H 	H 	0.3228	0.873	0.1832	0.051
Mof_H 	H 	0.2851	0.0095	0.1674	0.051
Mof_H 	H 	0.282	0.0439	0.2514	0.067
Mof_H 	H 	0.3025	0.8254	0.0912	0.015
Mof_H 	H 	0.3284	0.7945	0.0206	0.104
Mof_H 	H 	0.3666	0.9523	0.0486	0.107
Mof_H 	H 	0.3407	0.9832	0.119	0.019
Mof_H 	H 	0.3456	0.7808	0.9678	-0.029
Mof_H 	H 	0.313	0.8201	0.9454	0.003
Mof_H 	H 	0.8326	0.0152	0.2116	0.028
Mof_H 	H 	0.7356	0.9757	0.1376	0.077
Mof_H 	H 	0.7062	0.8748	0.1962	0.089
Mof_H 	H 	0.8042	0.9057	0.2558	0.012
Mof_H 	H 	0.6357	0.9744	0.1096	0.017
Mof_H 	H 	0.5388	0.945	0.0402	0.11
Mof_H 	H 	0.5333	0.7918	0.0292	0.104
Mof_H 	H 	0.6302	0.8212	0.0986	0.008
Mof_H 	H 	0.4664	0.8135	0.935	-0.016
Mof_H 	H 	0.4624	0.7926	0.9736	-0.025
Mof_H 	H 	0.4001	0.8638	0.9188	0.017
Mof_H 	H 	0.3317	0.8352	0.8844	0.008
Mof_H 	H 	0.2107	0.3706	0.6744	-0.3
Mof_H 	H 	0.287	0.4572	0.7434	0.244
Mof_H 	H 	0.2322	0.5041	0.6334	0.259
Mof_H 	H 	0.2022	0.4082	0.5706	-0.222
Mof_H 	H 	0.2037	0.5548	0.7494	-0.065
Mof_H 	H 	0.2345	0.6474	0.814	0.18
Mof_H 	H 	0.3963	0.6526	0.8092	0.175
Mof_H 	H 	0.3656	0.56	0.7448	-0.065
Mof_H 	H 	0.4041	0.7154	0.897	-0.137
Mof_H 	H 	0.3976	0.7409	0.8584	-0.117
Mof_H 	H 	0.2168	0.8547	0.5718	-0.084
Mof_H 	H 	0.2538	0.8178	0.6318	0.144
Mof_H 	H 	0.2867	0.9723	0.75	0.131
Mof_H 	H 	0.2637	0.0053	0.6832	-0.036
Mof_H 	H 	0.3577	0.8364	0.7178	0.01
Mof_H 	H 	0.4002	0.8161	0.7882	0.107
Mof_H 	H 	0.2751	0.8797	0.8382	0.095
Mof_H 	H 	0.2326	0.9	0.7676	0.011
Mof_C 	C 	0.248	0.207	0.464	0.081
Mof_C 	C 	0.263	0.165	0.43	0.06
Mof_C 	C 	0.304	0.174	0.406	-0.117
Mof_C 	C 	0.32	0.231	0.426	-0.015
Mof_C 	C 	0.305	0.275	0.462	-0.02
Mof_C 	C 	0.268	0.263	0.48	-0.117
Mof_C 	C 	0.049	0.953	0.468	0.059
Mof_C 	C 	0.004	0.959	0.428	0.078
Mof_C 	C 	0.941	0.929	0.404	-0.124
Mof_C 	C 	0.935	0.892	0.424	-0.025
Mof_C 	C 	0.985	0.889	0.466	-0.028
Mof_C 	C 	0.044	0.916	0.488	-0.109
Mof_C 	C 	0.258	0.949	0.462	0.059
Mof_C 	C 	0.279	0.909	0.478	-0.096
Mof_C 	C 	0.313	0.883	0.454	-0.043
Mof_C 	C 	0.327	0.891	0.422	0.018
Mof_C 	C 	0.307	0.927	0.404	-0.142
Mof_C 	C 	0.267	0.96	0.426	0.071
Mof_C 	C 	0.926	0.149	0.404	-0.125
Mof_C 	C 	0.993	0.145	0.428	0.075
Mof_C 	C 	0.039	0.196	0.468	0.06
Mof_C 	C 	0.024	0.249	0.49	-0.104
Mof_C 	C 	0.958	0.247	0.47	-0.04
Mof_C 	C 	0.914	0.198	0.428	0.006
Mof_C 	C 	0.226	0.129	0.616	0.06
Mof_C 	C 	0.223	0.176	0.616	0.074
Mof_C 	C 	0.246	0.229	0.662	-0.135
Mof_C 	C 	0.264	0.221	0.706	0.006
Mof_C 	C 	0.265	0.174	0.708	-0.034
Mof_C 	C 	0.25	0.121	0.662	-0.106
Mof_C 	C 	0.04	0.989	0.282	0.054
Mof_C 	C 	0.099	0.993	0.286	0.073
Mof_C 	C 	0.108	0.966	0.24	-0.11
Mof_C 	C 	0.057	0.935	0.19	-0.024
Mof_C 	C 	-6.23399e-18	0.931	0.188	-0.006
Mof_C 	C 	0.99	0.958	0.232	-0.11
Mof_C 	C 	0.258	0.005	0.302	0.175
Mof_C 	C 	0.272	0.976	0.254	0.003
Mof_C 	C 	0.283	0.924	0.232	-0.044
Mof_C 	C 	0.306	0.905	0.19	-0.066
Mof_C 	C 	0.302	0.932	0.16	0.035
Mof_C 	C 	0.289	0.986	0.184	-0.059
Mof_C 	C 	0.281	0.006	0.234	-0.048
Mof_C 	C 	0.315	0.851	0.082	0.049
Mof_C 	C 	0.331	0.832	0.04	-0.204
Mof_C 	C 	0.35	0.87	0.028	0.22
Mof_C 	C 	0.354	0.927	0.058	-0.169
Mof_C 	C 	0.339	0.945	0.1	0.036
Mof_C 	C 	0.319	0.907	0.112	-0.053
Mof_C 	C 	0.353	0.812	0.962	0.192
Mof_C 	C 	0.891	0.997	0.294	0.495
Mof_C 	C 	0.824	0.968	0.246	-0.15
Mof_C 	C 	0.806	0.987	0.208	0.055
Mof_C 	C 	0.748	0.964	0.164	-0.136
Mof_C 	C 	0.709	0.92	0.16	0.092
Mof_C 	C 	0.731	0.902	0.198	-0.175
Mof_C 	C 	0.789	0.924	0.236	0.102
Mof_C 	C 	0.643	0.901	0.112	-0.073
Mof_C 	C 	0.615	0.938	0.094	0.041
Mof_C 	C 	0.557	0.92	0.052	-0.171
Mof_C 	C 	0.527	0.865	0.028	0.211
Mof_C 	C 	0.554	0.828	0.046	-0.203
Mof_C 	C 	0.611	0.846	0.086	0.062
Mof_C 	C 	0.447	0.817	0.958	0.19
Mof_C 	C 	0.379	0.794	0.922	-0.225
Mof_C 	C 	0.373	0.828	0.894	0.15
Mof_C 	C 	0.2	0.318	0.58	1.168
Mof_C 	C 	0.221	0.38	0.62	-0.92
Mof_C 	C 	0.227	0.39	0.666	0.803
Mof_C 	C 	0.262	0.45	0.708	-0.63
Mof_C 	C 	0.259	0.491	0.698	0.551
Mof_C 	C 	0.236	0.477	0.644	-0.644
Mof_C 	C 	0.217	0.418	0.606	0.746
Mof_C 	C 	0.281	0.548	0.74	-0.366
Mof_C 	C 	0.243	0.574	0.762	0.276
Mof_C 	C 	0.261	0.63	0.8	-0.389
Mof_C 	C 	0.318	0.659	0.818	0.432
Mof_C 	C 	0.358	0.633	0.798	-0.394
Mof_C 	C 	0.339	0.578	0.758	0.275
Mof_C 	C 	0.38	0.736	0.88	0.578
Mof_C 	C 	0.214	0.953	0.582	0.865
Mof_C 	C 	0.234	0.928	0.62	-0.464
Mof_C 	C 	0.233	0.879	0.608	0.375
Mof_C 	C 	0.254	0.856	0.644	-0.332
Mof_C 	C 	0.276	0.892	0.698	0.219
Mof_C 	C 	0.276	0.948	0.714	-0.273
Mof_C 	C 	0.259	0.967	0.674	0.249
Mof_C 	C 	0.291	0.87	0.736	-0.122
Mof_C 	C 	0.341	0.845	0.742	0.061
Mof_C 	C 	0.367	0.833	0.784	-0.166
Mof_C 	C 	0.342	0.846	0.82	0.164
Mof_C 	C 	0.292	0.871	0.814	-0.177
Mof_C 	C 	0.266	0.883	0.772	0.067
Mof_N 	N 	0.025	0.993	0.416	-0.242
Mof_N 	N 	0.084	0.009	0.448	-0.198
Mof_N 	N 	0.101	0.985	0.48	-0.243
Mof_N 	N 	0.224	0.985	0.478	-0.238
Mof_N 	N 	0.211	0.014	0.45	-0.212
Mof_N 	N 	0.199	0.168	0.564	-0.237
Mof_N 	N 	0.188	0.113	0.536	-0.205
Mof_N 	N 	0.203	0.083	0.564	-0.248
Mof_N 	N 	0.213	0.186	0.476	-0.244
Mof_N 	N 	0.207	0.133	0.45	-0.195
Mof_N 	N 	0.05	0.009	0.334	-0.25
Mof_N 	N 	0.107	0.024	0.36	-0.174
Mof_N 	N 	0.142	0.014	0.338	-0.233
Mof_N 	N 	0.08	0.123	0.446	-0.207
Mof_N 	N 	0.019	0.103	0.414	-0.255
Mof_N 	N 	0.238	0.117	0.42	-0.254
Mof_N 	N 	0.09	0.177	0.478	-0.239
Mof_N 	N 	0.24	0.999	0.42	-0.241
Mof_O 	O 	0.905	0.971	0.316	-0.53
Mof_O 	O 	0.912	0.036	0.298	-0.48
Mof_O 	O 	0.208	0.287	0.588	-0.94
Mof_O 	O 	0.173	0.307	0.534	-0.607
Mof_O 	O 	0.194	0.92	0.538	-0.572
Mof_O 	O 	0.218	0.995	0.594	-0.758
Mof_O 	O 	0.253	0.965	0.314	-0.371
Mof_O 	O 	0.247	0.051	0.31	-0.368
Mof_O 	O 	0.467	0.866	0.996	-0.253
Mof_O 	O 	0.38	0.811	0.85	-0.226
Mof_O 	O 	0.372	0.865	0.992	-0.258
Mof_O 	O 	0.334	0.715	0.856	-0.497
Mof_Zn	Zn	0.6986	0.4309	0.5514	1.137
Mof_Zn	Zn	0.6573	0.4982	0.4694	1.205
Mof_Zn	Zn	0.626	0.4771	0.6372	1.187
Mof_Zn	Zn	0.6485	0.2835	0.4716	1.211
Mof_Zn	Zn	0.8634	0.464	0.6272	1.171
Mof_H 	H 	0.9325	0.3535	0.6162	0.063
Mof_H 	H 	0.9308	0.2583	0.5888	0.037
Mof_H 	H 	0.8483	0.1882	0.5268	0.058
Mof_H 	H 	0.7531	0.2085	0.4964	0.078
Mof_H 	H 	0.5305	0.5669	0.622	0.078
Mof_H 	H 	0.4876	0.6303	0.5896	0.037
Mof_H 	H 	0.4978	0.6338	0.5216	0.032
Mof_H 	H 	0.562	0.5885	0.4858	0.062
Mof_H 	H 	0.7683	0.5983	0.4982	0.077
Mof_H 	H 	0.8663	0.6447	0.5372	0.066
Mof_H 	H 	0.9437	0.6301	0.5912	0.023
Mof_H 	H 	0.9368	0.5682	0.6196	0.077
Mof_H 	H 	0.5199	0.3816	0.6236	0.075
Mof_H 	H 	0.539	0.2185	0.4858	0.064
Mof_H 	H 	0.4597	0.2206	0.515	0.039
Mof_H 	H 	0.4586	0.2989	0.5854	0.028
Mof_H 	H 	0.5857	0.2366	0.3368	0.1
Mof_H 	H 	0.5395	0.2472	0.2612	0.028
Mof_H 	H 	0.5342	0.3247	0.259	0.04
Mof_H 	H 	0.5926	0.4122	0.3366	0.089
Mof_H 	H 	0.9049	0.5309	0.7586	0.076
Mof_H 	H 	0.9036	0.5829	0.8402	0.039
Mof_H 	H 	0.8115	0.59	0.8454	0.036
Mof_H 	H 	0.7208	0.5451	0.7692	0.061
Mof_H 	H 	0.0332	0.601	0.7574	0.063
Mof_H 	H 	0.1396	0.627	0.8168	0.051
Mof_H 	H 	0.1177	0.4905	0.8326	0.052
Mof_H 	H 	0.0306	0.4561	0.7486	0.066
Mof_H 	H 	0.2113	0.6746	0.9088	0.015
Mof_H 	H 	0.3078	0.7055	0.9794	0.104
Mof_H 	H 	0.318	0.5477	0.9514	0.107
Mof_H 	H 	0.2217	0.5168	0.881	0.019
Mof_H 	H 	0.3778	0.7192	0.0322	-0.029
Mof_H 	H 	0.3676	0.6799	0.0546	0.003
Mof_H 	H 	0.621	0.4848	0.7884	0.027
Mof_H 	H 	0.598	0.5243	0.8624	0.078
Mof_H 	H 	0.51	0.6252	0.8038	0.09
Mof_H 	H 	0.5484	0.5943	0.7442	0.011
Mof_H 	H 	0.5261	0.5256	0.8904	0.017
Mof_H 	H 	0.4986	0.555	0.9598	0.11
Mof_H 	H 	0.5041	0.7082	0.9708	0.104
Mof_H 	H 	0.5316	0.6788	0.9014	0.008
Mof_H 	H 	0.5314	0.6865	0.065	-0.016
Mof_H 	H 	0.4888	0.7074	0.0264	-0.026
Mof_H 	H 	0.4813	0.6362	0.0812	0.017
Mof_H 	H 	0.4473	0.6648	0.1156	0.008
Mof_H 	H 	0.5363	0.1294	0.3256	-0.3
Mof_H 	H 	0.5436	0.0428	0.2566	0.244
Mof_H 	H 	0.5988	0.9959	0.3666	0.259
Mof_H 	H 	0.6316	0.0918	0.4294	-0.222
Mof_H 	H 	0.4543	0.9452	0.2506	-0.065
Mof_H 	H 	0.4205	0.8526	0.186	0.181
Mof_H 	H 	0.5871	0.8474	0.1908	0.175
Mof_H 	H 	0.6208	0.94	0.2552	-0.065
Mof_H 	H 	0.5071	0.7846	0.103	-0.137
Mof_H 	H 	0.5392	0.7591	0.1416	-0.117
Mof_H 	H 	0.645	0.6453	0.4282	-0.083
Mof_H 	H 	0.622	0.6822	0.3682	0.144
Mof_H 	H 	0.5367	0.5277	0.25	0.131
Mof_H 	H 	0.5805	0.4947	0.3168	-0.036
Mof_H 	H 	0.6399	0.6636	0.2822	0.01
Mof_H 	H 	0.612	0.6839	0.2118	0.107
Mof_H 	H 	0.4369	0.6203	0.1618	0.095
Mof_H 	H 	0.465	0.6	0.2324	0.011
Mof_C 	C 	0.784	0.293	0.536	0.081
Mof_C 	C 	0.833	0.335	0.57	0.06
Mof_C 	C 	0.898	0.326	0.594	-0.117
Mof_C 	C 	0.894	0.269	0.574	-0.015
Mof_C 	C 	0.843	0.225	0.538	-0.02
Mof_C 	C 	0.788	0.237	0.52	-0.117
Mof_C 	C 	0.581	0.547	0.532	0.06
Mof_C 	C 	0.576	0.541	0.572	0.076
Mof_C 	C 	0.537	0.571	0.596	-0.122
Mof_C 	C 	0.511	0.608	0.576	-0.027
Mof_C 	C 	0.519	0.611	0.534	-0.025
Mof_C 	C 	0.556	0.584	0.512	-0.111
Mof_C 	C 	0.796	0.551	0.538	0.059
Mof_C 	C 	0.801	0.591	0.522	-0.096
Mof_C 	C 	0.859	0.617	0.546	-0.043
Mof_C 	C 	0.905	0.609	0.578	0.018
Mof_C 	C 	0.903	0.573	0.596	-0.142
Mof_C 	C 	0.841	0.54	0.574	0.071
Mof_C 	C 	0.522	0.351	0.596	-0.125
Mof_C 	C 	0.565	0.355	0.572	0.074
Mof_C 	C 	0.571	0.304	0.532	0.06
Mof_C 	C 	0.534	0.251	0.51	-0.104
Mof_C 	C 	0.488	0.253	0.53	-0.04
Mof_C 	C 	0.486	0.302	0.572	0.006
Mof_C 	C 	0.61	0.371	0.384	0.06
Mof_C 	C 	0.607	0.324	0.384	0.074
Mof_C 	C 	0.584	0.271	0.338	-0.135
Mof_C 	C 	0.558	0.279	0.294	0.006
Mof_C 	C 	0.557	0.326	0.292	-0.034
Mof_C 	C 	0.588	0.379	0.338	-0.106
Mof_C 	C 	0.758	0.511	0.718	0.049
Mof_C 	C 	0.813	0.507	0.714	0.075
Mof_C 	C 	0.868	0.534	0.76	-0.114
Mof_C 	C 	0.867	0.565	0.81	-0.018
Mof_C 	C 	0.812	0.569	0.812	-0.015
Mof_C 	C 	0.758	0.542	0.768	-0.102
Mof_C 	C 	0.956	0.495	0.698	0.176
Mof_C 	C 	0.018	0.524	0.746	0.002
Mof_C 	C 	0.051	0.576	0.768	-0.043
Mof_C 	C 	0.116	0.595	0.81	-0.067
Mof_C 	C 	0.142	0.568	0.84	0.036
Mof_C 	C 	0.105	0.514	0.816	-0.061
Mof_C 	C 	0.047	0.494	0.766	-0.046
Mof_C 	C 	0.233	0.649	0.918	0.049
Mof_C 	C 	0.291	0.668	0.96	-0.204
Mof_C 	C 	0.322	0.63	0.972	0.219
Mof_C 	C 	0.296	0.573	0.942	-0.169
Mof_C 	C 	0.239	0.555	0.9	0.036
Mof_C 	C 	0.207	0.593	0.888	-0.053
Mof_C 	C 	0.391	0.688	0.038	0.192
Mof_C 	C 	0.597	0.503	0.706	0.496
Mof_C 	C 	0.578	0.532	0.754	-0.151
Mof_C 	C 	0.598	0.513	0.792	0.057
Mof_C 	C 	0.584	0.536	0.836	-0.137
Mof_C 	C 	0.549	0.58	0.84	0.093
Mof_C 	C 	0.533	0.598	0.802	-0.175
Mof_C 	C 	0.553	0.576	0.764	0.103
Mof_C 	C 	0.531	0.599	0.888	-0.073
Mof_C 	C 	0.521	0.562	0.906	0.041
Mof_C 	C 	0.505	0.58	0.948	-0.171
Mof_C 	C 	0.499	0.635	0.972	0.211
Mof_C 	C 	0.508	0.672	0.954	-0.204
Mof_C 	C 	0.525	0.654	0.914	0.062
Mof_C 	C 	0.489	0.683	0.042	0.19
Mof_C 	C 	0.457	0.706	0.078	-0.225
Mof_C 	C 	0.479	0.672	0.106	0.15
Mof_C 	C 	0.62	0.182	0.42	1.168
Mof_C 	C 	0.601	0.12	0.38	-0.92
Mof_C 	C 	0.561	0.11	0.334	0.803
Mof_C 	C 	0.554	0.05	0.292	-0.63
Mof_C 	C 	0.561	0.009	0.302	0.551
Mof_C 	C 	0.592	0.023	0.356	-0.644
Mof_C 	C 	0.611	0.082	0.394	0.745
Mof_C 	C 	0.541	0.952	0.26	-0.366
Mof_C 	C 	0.481	0.926	0.238	0.276
Mof_C 	C 	0.461	0.87	0.2	-0.389
Mof_C 	C 	0.5	0.841	0.182	0.432
Mof_C 	C 	0.56	0.867	0.202	-0.394
Mof_C 	C 	0.581	0.922	0.242	0.275
Mof_C 	C 	0.5	0.764	0.12	0.578
Mof_C 	C 	0.632	0.547	0.418	0.865
Mof_C 	C 	0.614	0.572	0.38	-0.464
Mof_C 	C 	0.625	0.621	0.392	0.375
Mof_C 	C 	0.61	0.644	0.356	-0.332
Mof_C 	C 	0.578	0.608	0.302	0.219
Mof_C 	C 	0.562	0.552	0.286	-0.272
Mof_C 	C 	0.585	0.533	0.326	0.248
Mof_C 	C 	0.555	0.63	0.264	-0.122
Mof_C 	C 	0.599	0.655	0.258	0.061
Mof_C 	C 	0.583	0.667	0.216	-0.166
Mof_C 	C 	0.522	0.654	0.18	0.164
Mof_C 	C 	0.478	0.629	0.186	-0.177
Mof_C 	C 	0.494	0.617	0.228	0.067
Mof_N 	N 	0.609	0.507	0.584	-0.242
Mof_N 	N 	0.636	0.491	0.552	-0.198
Mof_N 	N 	0.621	0.515	0.52	-0.243
Mof_N 	N 	0.746	0.515	0.522	-0.238
Mof_N 	N 	0.761	0.486	0.55	-0.212
Mof_N 	N 	0.635	0.332	0.436	-0.237
Mof_N 	N 	0.652	0.387	0.464	-0.205
Mof_N 	N 	0.639	0.417	0.436	-0.248
Mof_N 	N 	0.737	0.314	0.524	-0.244
Mof_N 	N 	0.757	0.367	0.55	-0.195
Mof_N 	N 	0.716	0.491	0.666	-0.25
Mof_N 	N 	0.747	0.476	0.64	-0.174
Mof_N 	N 	0.804	0.486	0.662	-0.233
Mof_N 	N 	0.634	0.377	0.554	-0.207
Mof_N 	N 	0.605	0.397	0.586	-0.255
Mof_N 	N 	0.818	0.383	0.58	-0.254
Mof_N 	N 	0.612	0.323	0.522	-0.239
Mof_N 	N 	0.82	0.501	0.58	-0.241
Mof_O 	O 	0.589	0.529	0.684	-0.53
Mof_O 	O 	0.614	0.464	0.702	-0.481
Mof_O 	O 	0.62	0.213	0.412	-0.94
Mof_O 	O 	0.639	0.193	0.466	-0.607
Mof_O 	O 	0.656	0.58	0.462	-0.572
Mof_O 	O 	0.624	0.505	0.406	-0.758
Mof_O 	O 	0.939	0.535	0.686	-0.371
Mof_O 	O 	0.937	0.449	0.69	-0.368
Mof_O 	O 	0.471	0.634	0.004	-0.253
Mof_O 	O 	0.53	0.689	0.15	-0.226
Mof_O 	O 	0.38	0.635	0.008	-0.258
Mof_O 	O 	0.478	0.785	0.144	-0.497
_end
