# CIF file generated by openbabel 3.1.0, see https://openbabel.org
data_I
_chemical_name_common 'image0'
_cell_length_a 9.727
_cell_length_b 17.0204
_cell_length_c 15.2959
_cell_angle_alpha 90
_cell_angle_beta 96.8477
_cell_angle_gamma 90
_space_group_name_H-M_alt 'P 1'
_space_group_name_Hall 'P 1'
loop_
    _symmetry_equiv_pos_as_xyz
    x,y,z
loop_
    _atom_site_label
    _atom_site_type_symbol
    _atom_site_fract_x
    _atom_site_fract_y
    _atom_site_fract_z
    _atom_site_occupancy
    Cd1      Cd       0.86686    0.58026    0.51932    1.000
    O1       O        0.74460    0.53890    0.38993    1.000
    O2       O        0.68380    0.66776    0.53282    1.000
    O3       O        0.84550    0.66152    0.64735    1.000
    O4       O        0.93130    0.46602    0.40116    1.000
    N1       N        0.99660    0.16606    0.04835    1.000
    N2       N        0.24450    0.98427    0.90926    1.000
    C1       C        0.81380    0.48267    0.36599    1.000
    C2       C        0.74690    0.43295    0.29057    1.000
    C3       C        0.82320    0.37753    0.25005    1.000
    H1       H        0.91780    0.36930    0.27150    1.000
    C4       C        0.76250    0.33374    0.17810    1.000
    C5       C        0.62150    0.34550    0.14890    1.000
    H2       H        0.57850    0.31620    0.10030    1.000
    C6       C        0.54420    0.39960    0.19070    1.000
    H3       H        0.44850    0.40620    0.17120    1.000
    C7       C        0.60640    0.44410    0.26080    1.000
    H4       H        0.55390    0.48190    0.28830    1.000
    C8       C        0.01330    0.17459    0.13570    1.000
    H5       H        0.07930    0.14210    0.16920    1.000
    C9       C        0.94050    0.22767    0.18040    1.000
    H6       H        0.95640    0.23100    0.24280    1.000
    C10      C        0.84350    0.27636    0.13300    1.000
    C11      C        0.82580    0.26730    0.04170    1.000
    H7       H        0.76040    0.29900    0.00670    1.000
    C12      C        0.90200    0.21310    0.00230    1.000
    H8       H        0.88790    0.20830    0.94000    1.000
    C13      C        0.72910    0.68460    0.61153    1.000
    C14      C        0.64080    0.73380    0.66350    1.000
    C15      C        0.51020    0.75960    0.62720    1.000
    H9       H        0.47520    0.74430    0.56900    1.000
    C16      C        0.43120    0.80720    0.67490    1.000
    H10      H        0.34270    0.82430    0.64880    1.000
    C17      C        0.47930    0.83037    0.76071    1.000
    C18      C        0.60900    0.80260    0.79740    1.000
    H11      H        0.64390    0.81690    0.85590    1.000
    C19      C        0.68670    0.75480    0.74970    1.000
    H12      H        0.77360    0.73580    0.77630    1.000
    C20      C        0.21540    0.97630    0.82200    1.000
    H13      H        0.14060    0.00590    0.79310    1.000
    C21      C        0.28690    0.92782    0.77150    1.000
    H14      H        0.26210    0.92520    0.70960    1.000
    C22      C        0.39660    0.88240    0.81185    1.000
    C23      C        0.42520    0.89000    0.90286    1.000
    H15      H        0.49770    0.86000    0.93380    1.000
    C24      C        0.34980    0.94010    0.94801    1.000
    H16      H        0.37270    0.94420    0.01000    1.000
    Cd2      Cd       0.13314    0.08026    0.98068    1.000
    O5       O        0.25540    0.03890    0.11007    1.000
    O6       O        0.31620    0.16776    0.96718    1.000
    O7       O        0.15450    0.16152    0.85265    1.000
    O8       O        0.06870    0.96602    0.09884    1.000
    N3       N        0.00340    0.66606    0.45165    1.000
    N4       N        0.75550    0.48427    0.59074    1.000
    C25      C        0.18620    0.98267    0.13401    1.000
    C26      C        0.25310    0.93295    0.20943    1.000
    C27      C        0.17680    0.87753    0.24995    1.000
    H17      H        0.08220    0.86930    0.22850    1.000
    C28      C        0.23750    0.83374    0.32190    1.000
    C29      C        0.37850    0.84550    0.35110    1.000
    H18      H        0.42150    0.81620    0.39970    1.000
    C30      C        0.45580    0.89960    0.30930    1.000
    H19      H        0.55150    0.90620    0.32880    1.000
    C31      C        0.39360    0.94410    0.23920    1.000
    H20      H        0.44610    0.98190    0.21170    1.000
    C32      C        0.98670    0.67459    0.36430    1.000
    H21      H        0.92070    0.64210    0.33080    1.000
    C33      C        0.05950    0.72767    0.31960    1.000
    H22      H        0.04360    0.73100    0.25720    1.000
    C34      C        0.15650    0.77636    0.36700    1.000
    C35      C        0.17420    0.76730    0.45830    1.000
    H23      H        0.23960    0.79900    0.49330    1.000
    C36      C        0.09800    0.71310    0.49770    1.000
    H24      H        0.11210    0.70830    0.56000    1.000
    C37      C        0.27090    0.18460    0.88847    1.000
    C38      C        0.35920    0.23380    0.83650    1.000
    C39      C        0.48980    0.25960    0.87280    1.000
    H25      H        0.52480    0.24430    0.93100    1.000
    C40      C        0.56880    0.30720    0.82510    1.000
    H26      H        0.65730    0.32430    0.85120    1.000
    C41      C        0.52070    0.33037    0.73929    1.000
    C42      C        0.39100    0.30260    0.70260    1.000
    H27      H        0.35610    0.31690    0.64410    1.000
    C43      C        0.31330    0.25480    0.75030    1.000
    H28      H        0.22640    0.23580    0.72370    1.000
    C44      C        0.78460    0.47630    0.67800    1.000
    H29      H        0.85940    0.50590    0.70690    1.000
    C45      C        0.71310    0.42782    0.72850    1.000
    H30      H        0.73790    0.42520    0.79040    1.000
    C46      C        0.60340    0.38240    0.68815    1.000
    C47      C        0.57480    0.39000    0.59714    1.000
    H31      H        0.50230    0.36000    0.56620    1.000
    C48      C        0.65020    0.44010    0.55199    1.000
    H32      H        0.62730    0.44420    0.49000    1.000
    Cd3      Cd       0.13314    0.41974    0.48068    1.000
    O9       O        0.25540    0.46110    0.61007    1.000
    O10      O        0.31620    0.33224    0.46718    1.000
    O11      O        0.15450    0.33848    0.35265    1.000
    O12      O        0.06870    0.53398    0.59884    1.000
    N5       N        0.00340    0.83394    0.95165    1.000
    N6       N        0.75550    0.01573    0.09074    1.000
    C49      C        0.18620    0.51733    0.63401    1.000
    C50      C        0.25310    0.56705    0.70943    1.000
    C51      C        0.17680    0.62247    0.74995    1.000
    H33      H        0.08220    0.63070    0.72850    1.000
    C52      C        0.23750    0.66626    0.82190    1.000
    C53      C        0.37850    0.65450    0.85110    1.000
    H34      H        0.42150    0.68380    0.89970    1.000
    C54      C        0.45580    0.60040    0.80930    1.000
    H35      H        0.55150    0.59380    0.82880    1.000
    C55      C        0.39360    0.55590    0.73920    1.000
    H36      H        0.44610    0.51810    0.71170    1.000
    C56      C        0.98670    0.82541    0.86430    1.000
    H37      H        0.92070    0.85790    0.83080    1.000
    C57      C        0.05950    0.77233    0.81960    1.000
    H38      H        0.04360    0.76900    0.75720    1.000
    C58      C        0.15650    0.72364    0.86700    1.000
    C59      C        0.17420    0.73270    0.95830    1.000
    H39      H        0.23960    0.70100    0.99330    1.000
    C60      C        0.09800    0.78690    0.99770    1.000
    H40      H        0.11210    0.79170    0.06000    1.000
    C61      C        0.27090    0.31540    0.38847    1.000
    C62      C        0.35920    0.26620    0.33650    1.000
    C63      C        0.48980    0.24040    0.37280    1.000
    H41      H        0.52480    0.25570    0.43100    1.000
    C64      C        0.56880    0.19280    0.32510    1.000
    H42      H        0.65730    0.17570    0.35120    1.000
    C65      C        0.52070    0.16963    0.23929    1.000
    C66      C        0.39100    0.19740    0.20260    1.000
    H43      H        0.35610    0.18310    0.14410    1.000
    C67      C        0.31330    0.24520    0.25030    1.000
    H44      H        0.22640    0.26420    0.22370    1.000
    C68      C        0.78460    0.02370    0.17800    1.000
    H45      H        0.85940    0.99410    0.20690    1.000
    C69      C        0.71310    0.07218    0.22850    1.000
    H46      H        0.73790    0.07480    0.29040    1.000
    C70      C        0.60340    0.11760    0.18815    1.000
    C71      C        0.57480    0.11000    0.09714    1.000
    H47      H        0.50230    0.14000    0.06620    1.000
    C72      C        0.65020    0.05990    0.05199    1.000
    H48      H        0.62730    0.05580    0.99000    1.000
    Cd4      Cd       0.86686    0.91974    0.01932    1.000
    O13      O        0.74460    0.96110    0.88993    1.000
    O14      O        0.68380    0.83224    0.03282    1.000
    O15      O        0.84550    0.83848    0.14735    1.000
    O16      O        0.93130    0.03398    0.90116    1.000
    N7       N        0.99660    0.33394    0.54835    1.000
    N8       N        0.24450    0.51573    0.40926    1.000
    C73      C        0.81380    0.01733    0.86599    1.000
    C74      C        0.74690    0.06705    0.79057    1.000
    C75      C        0.82320    0.12247    0.75005    1.000
    H49      H        0.91780    0.13070    0.77150    1.000
    C76      C        0.76250    0.16626    0.67810    1.000
    C77      C        0.62150    0.15450    0.64890    1.000
    H50      H        0.57850    0.18380    0.60030    1.000
    C78      C        0.54420    0.10040    0.69070    1.000
    H51      H        0.44850    0.09380    0.67120    1.000
    C79      C        0.60640    0.05590    0.76080    1.000
    H52      H        0.55390    0.01810    0.78830    1.000
    C80      C        0.01330    0.32541    0.63570    1.000
    H53      H        0.07930    0.35790    0.66920    1.000
    C81      C        0.94050    0.27233    0.68040    1.000
    H54      H        0.95640    0.26900    0.74280    1.000
    C82      C        0.84350    0.22364    0.63300    1.000
    C83      C        0.82580    0.23270    0.54170    1.000
    H55      H        0.76040    0.20100    0.50670    1.000
    C84      C        0.90200    0.28690    0.50230    1.000
    H56      H        0.88790    0.29170    0.44000    1.000
    C85      C        0.72910    0.81540    0.11153    1.000
    C86      C        0.64080    0.76620    0.16350    1.000
    C87      C        0.51020    0.74040    0.12720    1.000
    H57      H        0.47520    0.75570    0.06900    1.000
    C88      C        0.43120    0.69280    0.17490    1.000
    H58      H        0.34270    0.67570    0.14880    1.000
    C89      C        0.47930    0.66963    0.26071    1.000
    C90      C        0.60900    0.69740    0.29740    1.000
    H59      H        0.64390    0.68310    0.35590    1.000
    C91      C        0.68670    0.74520    0.24970    1.000
    H60      H        0.77360    0.76420    0.27630    1.000
    C92      C        0.21540    0.52370    0.32200    1.000
    H61      H        0.14060    0.49410    0.29310    1.000
    C93      C        0.28690    0.57218    0.27150    1.000
    H62      H        0.26210    0.57480    0.20960    1.000
    C94      C        0.39660    0.61760    0.31185    1.000
    C95      C        0.42520    0.61000    0.40286    1.000
    H63      H        0.49770    0.64000    0.43380    1.000
    C96      C        0.34980    0.55990    0.44801    1.000
    H64      H        0.37270    0.55580    0.51000    1.000
