# CIF file generated by openbabel 3.1.0, see https://openbabel.org
data_I
_chemical_name_common 'image0'
_cell_length_a 14.956
_cell_length_b 23.671
_cell_length_c 9.026
_cell_angle_alpha 90
_cell_angle_beta 90
_cell_angle_gamma 90
_space_group_name_H-M_alt 'P 1'
_space_group_name_Hall 'P 1'
loop_
    _symmetry_equiv_pos_as_xyz
    x,y,z
loop_
    _atom_site_label
    _atom_site_type_symbol
    _atom_site_fract_x
    _atom_site_fract_y
    _atom_site_fract_z
    _atom_site_occupancy
    Fe1      Fe       0.07315    0.05452    0.00000    1.000
    O1       O        0.13200    0.07276    0.19930    1.000
    O2       O        0.16090    0.12528    0.94060    1.000
    O3       O        0.26500    0.17951    0.04840    1.000
    O4       O        0.23160    0.13075    0.30610    1.000
    C1       C        0.18860    0.11250    0.19780    1.000
    C2       C        0.20590    0.14130    0.04840    1.000
    Cl1      Cl       0.18186    0.99597    0.90160    1.000
    Fe2      Fe       0.07315    0.55452    0.50000    1.000
    O5       O        0.13200    0.57276    0.69930    1.000
    O6       O        0.16090    0.62528    0.44060    1.000
    O7       O        0.26500    0.67951    0.54840    1.000
    O8       O        0.23160    0.63075    0.80610    1.000
    C3       C        0.18860    0.61250    0.69780    1.000
    C4       C        0.20590    0.64130    0.54840    1.000
    Cl2      Cl       0.18186    0.49597    0.40160    1.000
    Fe3      Fe       0.57315    0.05452    0.50000    1.000
    O9       O        0.63200    0.07276    0.69930    1.000
    O10      O        0.66090    0.12528    0.44060    1.000
    O11      O        0.76500    0.17951    0.54840    1.000
    O12      O        0.73160    0.13075    0.80610    1.000
    C5       C        0.68860    0.11250    0.69780    1.000
    C6       C        0.70590    0.14130    0.54840    1.000
    Cl3      Cl       0.68186    0.99597    0.40160    1.000
    Fe4      Fe       0.57315    0.55452    0.00000    1.000
    O13      O        0.63200    0.57276    0.19930    1.000
    O14      O        0.66090    0.62528    0.94060    1.000
    O15      O        0.76500    0.67951    0.04840    1.000
    O16      O        0.73160    0.63075    0.30610    1.000
    C7       C        0.68860    0.61250    0.19780    1.000
    C8       C        0.70590    0.64130    0.04840    1.000
    Cl4      Cl       0.68186    0.49597    0.90160    1.000
    Fe5      Fe       0.92685    0.94548    0.00000    1.000
    O17      O        0.86800    0.92724    0.19930    1.000
    O18      O        0.83910    0.87472    0.94060    1.000
    O19      O        0.73500    0.82049    0.04840    1.000
    O20      O        0.76840    0.86925    0.30610    1.000
    C9       C        0.81140    0.88750    0.19780    1.000
    C10      C        0.79410    0.85870    0.04840    1.000
    Cl5      Cl       0.81814    0.00403    0.90160    1.000
    Fe6      Fe       0.92685    0.44548    0.50000    1.000
    O21      O        0.86800    0.42724    0.69930    1.000
    O22      O        0.83910    0.37472    0.44060    1.000
    O23      O        0.73500    0.32049    0.54840    1.000
    O24      O        0.76840    0.36925    0.80610    1.000
    C11      C        0.81140    0.38750    0.69780    1.000
    C12      C        0.79410    0.35870    0.54840    1.000
    Cl6      Cl       0.81814    0.50403    0.40160    1.000
    Fe7      Fe       0.42685    0.94548    0.50000    1.000
    O25      O        0.36800    0.92724    0.69930    1.000
    O26      O        0.33910    0.87472    0.44060    1.000
    O27      O        0.23500    0.82049    0.54840    1.000
    O28      O        0.26840    0.86925    0.80610    1.000
    C13      C        0.31140    0.88750    0.69780    1.000
    C14      C        0.29410    0.85870    0.54840    1.000
    Cl7      Cl       0.31814    0.00403    0.40160    1.000
    Fe8      Fe       0.42685    0.44548    0.00000    1.000
    O29      O        0.36800    0.42724    0.19930    1.000
    O30      O        0.33910    0.37472    0.94060    1.000
    O31      O        0.23500    0.32049    0.04840    1.000
    O32      O        0.26840    0.36925    0.30610    1.000
    C15      C        0.31140    0.38750    0.19780    1.000
    C16      C        0.29410    0.35870    0.04840    1.000
    Cl8      Cl       0.31814    0.50403    0.90160    1.000
    Fe9      Fe       0.32315    0.19548    0.25000    1.000
    O33      O        0.38200    0.17724    0.44930    1.000
    O34      O        0.41090    0.12472    0.19060    1.000
    O35      O        0.51500    0.07049    0.29840    1.000
    O36      O        0.48160    0.11925    0.55610    1.000
    C17      C        0.43860    0.13750    0.44780    1.000
    C18      C        0.45590    0.10870    0.29840    1.000
    Cl9      Cl       0.43186    0.25403    0.15160    1.000
    Fe10     Fe       0.32315    0.69548    0.75000    1.000
    O37      O        0.38200    0.67724    0.94930    1.000
    O38      O        0.41090    0.62472    0.69060    1.000
    O39      O        0.51500    0.57049    0.79840    1.000
    O40      O        0.48160    0.61925    0.05610    1.000
    C19      C        0.43860    0.63750    0.94780    1.000
    C20      C        0.45590    0.60870    0.79840    1.000
    Cl10     Cl       0.43186    0.75403    0.65160    1.000
    Fe11     Fe       0.82315    0.19548    0.75000    1.000
    O41      O        0.88200    0.17724    0.94930    1.000
    O42      O        0.91090    0.12472    0.69060    1.000
    O43      O        0.01500    0.07049    0.79840    1.000
    O44      O        0.98160    0.11925    0.05610    1.000
    C21      C        0.93860    0.13750    0.94780    1.000
    C22      C        0.95590    0.10870    0.79840    1.000
    Cl11     Cl       0.93186    0.25403    0.65160    1.000
    Fe12     Fe       0.82315    0.69548    0.25000    1.000
    O45      O        0.88200    0.67724    0.44930    1.000
    O46      O        0.91090    0.62472    0.19060    1.000
    O47      O        0.01500    0.57049    0.29840    1.000
    O48      O        0.98160    0.61925    0.55610    1.000
    C23      C        0.93860    0.63750    0.44780    1.000
    C24      C        0.95590    0.60870    0.29840    1.000
    Cl12     Cl       0.93186    0.75403    0.15160    1.000
    Fe13     Fe       0.17685    0.30452    0.25000    1.000
    O49      O        0.11800    0.32276    0.44930    1.000
    O50      O        0.08910    0.37528    0.19060    1.000
    O51      O        0.98500    0.42951    0.29840    1.000
    O52      O        0.01840    0.38075    0.55610    1.000
    C25      C        0.06140    0.36250    0.44780    1.000
    C26      C        0.04410    0.39130    0.29840    1.000
    Cl13     Cl       0.06814    0.24597    0.15160    1.000
    Fe14     Fe       0.17685    0.80452    0.75000    1.000
    O53      O        0.11800    0.82276    0.94930    1.000
    O54      O        0.08910    0.87528    0.69060    1.000
    O55      O        0.98500    0.92951    0.79840    1.000
    O56      O        0.01840    0.88075    0.05610    1.000
    C27      C        0.06140    0.86250    0.94780    1.000
    C28      C        0.04410    0.89130    0.79840    1.000
    Cl14     Cl       0.06814    0.74597    0.65160    1.000
    Fe15     Fe       0.67685    0.30452    0.75000    1.000
    O57      O        0.61800    0.32276    0.94930    1.000
    O58      O        0.58910    0.37528    0.69060    1.000
    O59      O        0.48500    0.42951    0.79840    1.000
    O60      O        0.51840    0.38075    0.05610    1.000
    C29      C        0.56140    0.36250    0.94780    1.000
    C30      C        0.54410    0.39130    0.79840    1.000
    Cl15     Cl       0.56814    0.24597    0.65160    1.000
    Fe16     Fe       0.67685    0.80452    0.25000    1.000
    O61      O        0.61800    0.82276    0.44930    1.000
    O62      O        0.58910    0.87528    0.19060    1.000
    O63      O        0.48500    0.92951    0.29840    1.000
    O64      O        0.51840    0.88075    0.55610    1.000
    C31      C        0.56140    0.86250    0.44780    1.000
    C32      C        0.54410    0.89130    0.29840    1.000
    Cl16     Cl       0.56814    0.74597    0.15160    1.000
    O65      O        0.00000    0.00000    0.07590    1.000
    O66      O        0.00000    0.50000    0.57590    1.000
    O67      O        0.50000    0.00000    0.57590    1.000
    O68      O        0.50000    0.50000    0.07590    1.000
    O69      O        0.25000    0.25000    0.32590    1.000
    O70      O        0.25000    0.75000    0.82590    1.000
    O71      O        0.75000    0.25000    0.82590    1.000
    O72      O        0.75000    0.75000    0.32590    1.000
