data_functionalizedCrystal
_audit_creation_method	'EQeq! by Chris Wilmer'
_symmetry_space_group_name_H-M	'P1'
_symmetry_Int_Tables_number	1
_symmetry_cell_setting	triclinic
loop_
_symmetry_equiv_pos_as_xyz
  x,y,z
_cell_length_a	16.0107
_cell_length_b	16.0114
_cell_length_c	21.5577
_cell_angle_alpha	90
_cell_angle_beta	90
_cell_angle_gamma	90
loop_
_atom_site_label
_atom_site_type_symbol
_atom_site_fract_x
_atom_site_fract_y
_atom_site_fract_z
_atom_site_charge
Mof_N 	N 	0.9079	0.0152	0.405	-0.207
Mof_N 	N 	0.1039	0.987	0.25982	-0.202
Mof_N 	N 	0.0121	0.1392	0.3215	-0.23
Mof_N 	N 	0.0049	0.3954	0.24736	-0.234
Mof_N 	N 	0.9877	0.5911	0.0995	-0.208
Mof_N 	N 	0.137	0.5099	0.1799	-0.224
Mof_N 	N 	0.3975	0.5126	0.24904	-0.232
Mof_N 	N 	0.905	0.999	0.60671	-0.162
Mof_N 	N 	0.9871	0.138	0.6868	-0.223
Mof_N 	N 	0.9897	0.3971	0.7544	-0.213
Mof_N 	N 	0.3613	0.9864	0.18309	-0.202
Mof_N 	N 	0.0001	0.5923	0.89893	-0.248
Mof_N 	N 	0.863	0.0657	0.5063	-0.088
Mof_N 	N 	0.8422	0.0327	0.5073	-0.103
Mof_N 	N 	0.209	0.967	0.1792	-0.185
Mof_N 	N 	0.0446	0.2866	0.3167	-0.153
Mof_N 	N 	0.9982	0.2873	0.3251	-0.065
Mof_N 	N 	0.9861	0.6619	0.0002	-0.098
Mof_N 	N 	0.9463	0.6468	0.9981	-0.122
Mof_N 	N 	0.2927	0.5176	0.1677	-0.102
Mof_N 	N 	0.283	0.4778	0.178	-0.111
Mof_N 	N 	0.9729	0.2858	0.6794	-0.186
Mof_C 	C 	0.8867	0.0281	0.4546	0.156
Mof_C 	C 	0.1578	0.9818	0.2258	0.169
Mof_C 	C 	0.0123	0.2072	0.3179	0.167
Mof_C 	C 	0.0118	0.3427	0.2791	0.167
Mof_C 	C 	0.9774	0.6167	0.0515	0.187
Mof_C 	C 	0.2083	0.509	0.1802	0.165
Mof_C 	C 	0.3432	0.5077	0.215	0.154
Mof_C 	C 	0.8833	0.0199	0.5581	0.104
Mof_C 	C 	0.9795	0.207	0.6878	0.164
Mof_C 	C 	0.9794	0.3417	0.7226	0.17
Mof_C 	C 	0.2899	0.9778	0.1859	0.16
Mof_C 	C 	0.9821	0.6169	0.94591	0.185
Mof_N 	N 	0.0921	0.9848	0.405	-0.2
Mof_N 	N 	0.8961	0.013	0.25982	-0.213
Mof_N 	N 	0.9879	0.8608	0.3215	-0.214
Mof_N 	N 	0.9951	0.6046	0.24736	-0.227
Mof_N 	N 	0.0123	0.4089	0.0995	-0.225
Mof_N 	N 	0.863	0.4901	0.1799	-0.215
Mof_N 	N 	0.6025	0.4874	0.24904	-0.232
Mof_N 	N 	0.095	0.001	0.60671	-0.253
Mof_N 	N 	0.0129	0.862	0.6868	-0.221
Mof_N 	N 	0.0103	0.6029	0.7544	-0.225
Mof_N 	N 	0.6387	0.0136	0.18309	-0.219
Mof_N 	N 	0.9999	0.4077	0.89893	-0.194
Mof_N 	N 	0.137	0.9343	0.5063	-0.104
Mof_N 	N 	0.1578	0.9673	0.5073	-0.101
Mof_N 	N 	0.791	0.033	0.1792	-0.192
Mof_N 	N 	0.9554	0.7134	0.3167	-0.101
Mof_N 	N 	0.0018	0.7127	0.3251	-0.158
Mof_N 	N 	0.0139	0.3381	0.0002	-0.108
Mof_N 	N 	0.0537	0.3532	0.9981	-0.108
Mof_N 	N 	0.7073	0.4824	0.1677	-0.101
Mof_N 	N 	0.717	0.5222	0.178	-0.111
Mof_N 	N 	0.0271	0.7142	0.6794	-0.19
Mof_C 	C 	0.1133	0.9719	0.4546	0.172
Mof_C 	C 	0.8422	0.0182	0.2258	0.135
Mof_C 	C 	0.9877	0.7928	0.3179	0.225
Mof_C 	C 	0.9882	0.6573	0.2791	0.214
Mof_C 	C 	0.0226	0.3833	0.0515	0.157
Mof_C 	C 	0.7917	0.491	0.1802	0.167
Mof_C 	C 	0.6568	0.4923	0.215	0.156
Mof_C 	C 	0.1167	0.9801	0.5581	0.195
Mof_C 	C 	0.0205	0.793	0.6878	0.157
Mof_C 	C 	0.0206	0.6583	0.7226	0.16
Mof_C 	C 	0.7101	0.0222	0.1859	0.132
Mof_C 	C 	0.0179	0.3831	0.94591	0.102
Mof_N 	N 	0.5921	0.5152	0.595	-0.215
Mof_N 	N 	0.3961	0.487	0.74018	-0.22
Mof_N 	N 	0.4879	0.6392	0.6785	-0.233
Mof_N 	N 	0.4951	0.8954	0.75264	-0.22
Mof_N 	N 	0.5123	0.0911	0.9005	-0.222
Mof_N 	N 	0.363	0.0099	0.8201	-0.223
Mof_N 	N 	0.1025	0.0126	0.75096	-0.232
Mof_N 	N 	0.595	0.499	0.39329	-0.216
Mof_N 	N 	0.5129	0.638	0.3132	-0.234
Mof_N 	N 	0.5103	0.8971	0.2456	-0.208
Mof_N 	N 	0.1387	0.4864	0.81691	-0.217
Mof_N 	N 	0.4999	0.0923	0.10107	-0.227
Mof_N 	N 	0.637	0.5657	0.4937	-0.096
Mof_N 	N 	0.6578	0.5327	0.4927	-0.102
Mof_N 	N 	0.291	0.467	0.8208	-0.19
Mof_N 	N 	0.4554	0.7866	0.6833	-0.127
Mof_N 	N 	0.5018	0.7873	0.6749	-0.112
Mof_N 	N 	0.5139	0.1619	0.9998	-0.105
Mof_N 	N 	0.5537	0.1468	0.0019	-0.112
Mof_N 	N 	0.2073	0.0176	0.8323	-0.16
Mof_N 	N 	0.217	0.9778	0.822	-0.024
Mof_N 	N 	0.5271	0.7858	0.3206	-0.187
Mof_C 	C 	0.6133	0.5281	0.5454	0.166
Mof_C 	C 	0.3422	0.4818	0.7742	0.151
Mof_C 	C 	0.4877	0.7072	0.6821	0.201
Mof_C 	C 	0.4882	0.8427	0.7209	0.196
Mof_C 	C 	0.5226	0.1167	0.9485	0.163
Mof_C 	C 	0.2917	0.009	0.8198	0.123
Mof_C 	C 	0.1568	0.0077	0.785	0.118
Mof_C 	C 	0.6167	0.5199	0.4419	0.147
Mof_C 	C 	0.5205	0.707	0.3122	0.163
Mof_C 	C 	0.5206	0.8417	0.2774	0.169
Mof_C 	C 	0.2101	0.4778	0.8141	0.143
Mof_C 	C 	0.5179	0.1169	0.05409	0.134
Mof_N 	N 	0.4079	0.4848	0.595	-0.216
Mof_N 	N 	0.6039	0.513	0.74018	-0.219
Mof_N 	N 	0.5121	0.3608	0.6785	-0.234
Mof_N 	N 	0.5049	0.1046	0.75264	-0.237
Mof_N 	N 	0.4877	0.9089	0.9005	-0.207
Mof_N 	N 	0.637	0.9901	0.8201	-0.21
Mof_N 	N 	0.8975	0.9874	0.75096	-0.21
Mof_N 	N 	0.405	0.501	0.39329	-0.216
Mof_N 	N 	0.4871	0.362	0.3132	-0.234
Mof_N 	N 	0.4897	0.1029	0.2456	-0.225
Mof_N 	N 	0.8613	0.5136	0.81691	-0.207
Mof_N 	N 	0.5001	0.9077	0.10107	-0.212
Mof_N 	N 	0.363	0.4343	0.4937	-0.099
Mof_N 	N 	0.3422	0.4673	0.4927	-0.103
Mof_N 	N 	0.709	0.533	0.8208	-0.19
Mof_N 	N 	0.5446	0.2134	0.6833	-0.126
Mof_N 	N 	0.4982	0.2127	0.6749	-0.117
Mof_N 	N 	0.4861	0.8381	0.9998	-0.099
Mof_N 	N 	0.4463	0.8532	0.0019	-0.121
Mof_N 	N 	0.7927	0.9824	0.8323	-0.046
Mof_N 	N 	0.783	0.0222	0.822	-0.191
Mof_N 	N 	0.4729	0.2142	0.3206	-0.191
Mof_C 	C 	0.3867	0.4719	0.5454	0.162
Mof_C 	C 	0.6578	0.5182	0.7742	0.154
Mof_C 	C 	0.5123	0.2928	0.6821	0.197
Mof_C 	C 	0.5118	0.1573	0.7209	0.186
Mof_C 	C 	0.4774	0.8833	0.9485	0.181
Mof_C 	C 	0.7083	0.991	0.8198	0.207
Mof_C 	C 	0.8432	0.9923	0.785	0.188
Mof_C 	C 	0.3833	0.4801	0.4419	0.146
Mof_C 	C 	0.4795	0.293	0.3122	0.161
Mof_C 	C 	0.4794	0.1583	0.2774	0.159
Mof_C 	C 	0.7899	0.5222	0.8141	0.148
Mof_C 	C 	0.4821	0.8831	0.05409	0.153
Mof_Mn	Mn	1.65305e-33	0	0.32744	0.676
Mof_Mn	Mn	1.25844e-32	9.13563e-33	0.68315	0.656
Mof_Mn	Mn	0.5	0.5	0.67256	0.763
Mof_Mn	Mn	0.5	0.5	0.31685	0.743
Mof_Mn	Mn	3.18212e-33	0.5	0.17792	0.731
Mof_Mn	Mn	0.5	0	0.82208	0.713
Mof_Mn	Mn	0.5	2.28391e-33	0.17806	0.706
Mof_Mn	Mn	-1.41218e-32	0.5	0.82194	0.723
Mof_N 	N 	0.2454	0.2231	0.12917	-0.149
Mof_C 	C 	0.2623	0.2025	0.1953	0.119
Mof_H 	H 	0.3206	0.1871	0.1989	-0.014
Mof_H 	H 	0.2295	0.1536	0.206	-0.007
Mof_C 	C 	0.244	0.2707	0.2442	-0.471
Mof_H 	H 	0.2824	0.317	0.2384	0.166
Mof_H 	H 	0.1877	0.2916	0.2385	0.171
Mof_C 	C 	0.2527	0.2383	0.3057	0.421
Mof_H 	H 	0.3054	0.2091	0.3104	-0.044
Mof_H 	H 	0.2075	0.2002	0.3154	-0.047
Mof_C 	C 	0.2493	0.3214	0.3509	-0.727
Mof_H 	H 	0.2549	0.3044	0.3934	0.211
Mof_H 	H 	0.1969	0.3495	0.3454	0.207
Mof_H 	H 	0.2942	0.3585	0.3403	0.2
Mof_H 	H 	0.3052	0.2081	0.3034	-0.045
Mof_H 	H 	0.2101	0.1953	0.307	-0.045
Mof_C 	C 	0.253	0.2695	0.3696	-0.298
Mof_H 	H 	0.2596	0.2235	0.3977	0.068
Mof_H 	H 	0.2011	0.2974	0.378	0.17
Mof_H 	H 	0.2984	0.308	0.3749	0.182
Mof_C 	C 	0.2733	0.1458	0.0924	0.105
Mof_H 	H 	0.3311	0.1342	0.1028	-0.017
Mof_H 	H 	0.2403	0.0985	0.1062	-0.012
Mof_C 	C 	0.2661	0.1515	0.0223	-0.44
Mof_H 	H 	0.2955	0.2007	0.0076	0.033
Mof_H 	H 	0.2078	0.1566	0.0105	0.026
Mof_C 	C 	0.3052	0.0701	0.9916	-0.414
Mof_H 	H 	0.314	0.0788	0.9476	0.122
Mof_H 	H 	0.3585	0.057	0.0107	0.118
Mof_C 	C 	0.2431	0.9987	0.0022	-0.197
Mof_H 	H 	0.2644	0.9485	0.9838	0.013
Mof_H 	H 	0.1905	0.0127	0.9835	0.029
Mof_H 	H 	0.2355	0.9904	0.0459	0.091
Mof_H 	H 	0.3204	0.1659	0.0054	0.157
Mof_H 	H 	0.2278	0.1964	0.0119	0.117
Mof_C 	C 	0.2354	0.0704	0.9912	0.689
Mof_H 	H 	0.1857	0.0492	0.0116	-0.215
Mof_H 	H 	0.223	0.0796	0.9476	-0.202
Mof_C 	C 	0.3094	0.0098	0.9991	-0.33
Mof_H 	H 	0.2984	0.9594	0.9764	0.162
Mof_H 	H 	0.3163	0.9968	0.0423	0.144
Mof_H 	H 	0.3594	0.0354	0.9836	0.117
Mof_C 	C 	0.152	0.2401	0.1204	-0.181
Mof_H 	H 	0.138	0.2911	0.1424	0.079
Mof_H 	H 	0.1416	0.2497	0.0767	0.073
Mof_C 	C 	0.0947	0.1719	0.1424	0.177
Mof_H 	H 	0.1072	0.1619	0.1858	-0.018
Mof_H 	H 	0.1096	0.1215	0.12	0.017
Mof_C 	C 	0.0011	0.1824	0.1369	-0.141
Mof_H 	H 	0.9874	0.2338	0.1153	0.089
Mof_H 	H 	0.9751	0.1832	0.1775	0.091
Mof_C 	C 	0.9711	0.1024	0.0978	-0.581
Mof_H 	H 	0.9116	0.1046	0.0922	0.187
Mof_H 	H 	0.9857	0.0524	0.1198	0.163
Mof_H 	H 	0.998	0.1026	0.058	0.148
Mof_H 	H 	0.0614	0.1901	0.1774	-0.017
Mof_H 	H 	0.1257	0.1222	0.1538	-0.04
Mof_C 	C 	0.0396	0.1563	0.0844	-0.47
Mof_H 	H 	0.0698	0.1808	0.0499	0.128
Mof_H 	H 	0.0407	0.0964	0.0777	0.158
Mof_C 	C 	0.9602	0.179	0.077	0.727
Mof_H 	H 	0.941	0.1616	0.0369	-0.207
Mof_H 	H 	0.9559	0.2388	0.0802	-0.226
Mof_H 	H 	0.9265	0.1536	0.1085	-0.129
Mof_C 	C 	0.2929	0.2983	0.1092	0.203
Mof_H 	H 	0.2704	0.3462	0.1312	-0.028
Mof_H 	H 	0.2822	0.3071	0.0654	-0.039
Mof_C 	C 	0.3871	0.2975	0.1188	-0.638
Mof_H 	H 	0.3989	0.2997	0.1629	0.211
Mof_H 	H 	0.4094	0.2454	0.1029	0.218
Mof_C 	C 	0.4305	0.3689	0.0873	0.738
Mof_H 	H 	0.4214	0.3648	0.0429	-0.203
Mof_H 	H 	0.4057	0.4209	0.1013	-0.209
Mof_C 	C 	0.5222	0.3713	0.0996	-1.279
Mof_H 	H 	0.546	0.4199	0.0804	0.398
Mof_H 	H 	0.5479	0.3221	0.0829	0.398
Mof_H 	H 	0.5318	0.3736	0.1436	0.4
Mof_N 	N 	0.7546	0.7769	0.12917	-0.184
Mof_C 	C 	0.7377	0.7975	0.1953	0.115
Mof_H 	H 	0.6794	0.8129	0.1989	-0.006
Mof_H 	H 	0.7705	0.8464	0.206	-0.002
Mof_C 	C 	0.756	0.7293	0.2442	-0.472
Mof_H 	H 	0.7176	0.683	0.2384	0.167
Mof_H 	H 	0.8123	0.7084	0.2385	0.171
Mof_C 	C 	0.7473	0.7617	0.3057	0.424
Mof_H 	H 	0.6946	0.7909	0.3104	-0.041
Mof_H 	H 	0.7925	0.7998	0.3154	-0.044
Mof_C 	C 	0.7507	0.6786	0.3509	-0.749
Mof_H 	H 	0.7451	0.6956	0.3934	0.217
Mof_H 	H 	0.8031	0.6505	0.3454	0.216
Mof_H 	H 	0.7058	0.6415	0.3403	0.208
Mof_H 	H 	0.6948	0.7919	0.3034	-0.042
Mof_H 	H 	0.7899	0.8047	0.307	-0.042
Mof_C 	C 	0.747	0.7305	0.3696	-0.299
Mof_H 	H 	0.7404	0.7765	0.3977	0.08
Mof_H 	H 	0.7989	0.7026	0.378	0.178
Mof_H 	H 	0.7016	0.692	0.3749	0.187
Mof_C 	C 	0.7267	0.8542	0.0924	0.124
Mof_H 	H 	0.6689	0.8658	0.1028	-0.008
Mof_H 	H 	0.7597	0.9015	0.1062	-0.011
Mof_C 	C 	0.7339	0.8485	0.0223	-0.507
Mof_H 	H 	0.7045	0.7993	0.0076	0.134
Mof_H 	H 	0.7922	0.8434	0.0105	0.169
Mof_C 	C 	0.6948	0.9299	0.9916	0.967
Mof_H 	H 	0.686	0.9212	0.9476	-0.258
Mof_H 	H 	0.6415	0.943	0.0107	-0.265
Mof_C 	C 	0.7569	0.0013	0.0022	-0.697
Mof_H 	H 	0.7356	0.0515	0.9838	0.289
Mof_H 	H 	0.8095	0.9873	0.9835	0.256
Mof_H 	H 	0.7645	0.0096	0.0459	0.204
Mof_H 	H 	0.6796	0.8341	0.0054	0.042
Mof_H 	H 	0.7722	0.8036	0.0119	0.044
Mof_C 	C 	0.7646	0.9296	0.9912	-0.455
Mof_H 	H 	0.8143	0.9508	0.0116	0.133
Mof_H 	H 	0.777	0.9204	0.9476	0.13
Mof_C 	C 	0.6906	0.9902	0.9991	-0.186
Mof_H 	H 	0.7016	0.0406	0.9764	-0.048
Mof_H 	H 	0.6837	0.0032	0.0423	0.072
Mof_H 	H 	0.6406	0.9646	0.9836	0.043
Mof_C 	C 	0.848	0.7599	0.1204	0.094
Mof_H 	H 	0.862	0.7089	0.1424	0.002
Mof_H 	H 	0.8584	0.7503	0.0767	-0.007
Mof_C 	C 	0.9053	0.8281	0.1424	-0.365
Mof_H 	H 	0.8928	0.8381	0.1858	0.118
Mof_H 	H 	0.8904	0.8785	0.12	0.152
Mof_C 	C 	0.9989	0.8176	0.1369	0.701
Mof_H 	H 	0.0126	0.7662	0.1153	-0.231
Mof_H 	H 	0.0249	0.8168	0.1775	-0.206
Mof_C 	C 	0.0289	0.8976	0.0978	-1.354
Mof_H 	H 	0.0884	0.8954	0.0922	0.439
Mof_H 	H 	0.0143	0.9476	0.1198	0.413
Mof_H 	H 	0.002	0.8974	0.058	0.345
Mof_H 	H 	0.9386	0.8099	0.1774	0.021
Mof_H 	H 	0.8743	0.8778	0.1538	0.025
Mof_C 	C 	0.9604	0.8437	0.0844	-0.56
Mof_H 	H 	0.9302	0.8192	0.0499	0.161
Mof_H 	H 	0.9593	0.9036	0.0777	0.228
Mof_C 	C 	0.0398	0.821	0.077	0.767
Mof_H 	H 	0.059	0.8384	0.0369	-0.243
Mof_H 	H 	0.0441	0.7612	0.0802	-0.169
Mof_H 	H 	0.0735	0.8464	0.1085	-0.146
Mof_C 	C 	0.7071	0.7017	0.1092	0.217
Mof_H 	H 	0.7296	0.6538	0.1312	-0.032
Mof_H 	H 	0.7178	0.6929	0.0654	-0.044
Mof_C 	C 	0.6129	0.7025	0.1188	-0.652
Mof_H 	H 	0.6011	0.7003	0.1629	0.216
Mof_H 	H 	0.5906	0.7546	0.1029	0.224
Mof_C 	C 	0.5695	0.6311	0.0873	0.749
Mof_H 	H 	0.5786	0.6352	0.0429	-0.206
Mof_H 	H 	0.5943	0.5791	0.1013	-0.211
Mof_C 	C 	0.4778	0.6287	0.0996	-1.289
Mof_H 	H 	0.454	0.5801	0.0804	0.4
Mof_H 	H 	0.4521	0.6779	0.0829	0.401
Mof_H 	H 	0.4682	0.6264	0.1436	0.403
Mof_N 	N 	0.2546	0.7231	0.87083	-0.159
Mof_C 	C 	0.2377	0.7025	0.8047	0.127
Mof_H 	H 	0.1794	0.6871	0.8011	-0.012
Mof_H 	H 	0.2705	0.6536	0.794	-0.008
Mof_C 	C 	0.256	0.7707	0.7558	-0.494
Mof_H 	H 	0.2176	0.817	0.7616	0.177
Mof_H 	H 	0.3123	0.7916	0.7615	0.18
Mof_C 	C 	0.2473	0.7383	0.6943	0.449
Mof_H 	H 	0.1946	0.7091	0.6896	-0.046
Mof_H 	H 	0.2925	0.7002	0.6846	-0.049
Mof_C 	C 	0.2507	0.8214	0.6491	-0.76
Mof_H 	H 	0.2451	0.8044	0.6066	0.224
Mof_H 	H 	0.3031	0.8495	0.6546	0.222
Mof_H 	H 	0.2058	0.8585	0.6597	0.216
Mof_H 	H 	0.1948	0.7081	0.6966	-0.048
Mof_H 	H 	0.2899	0.6953	0.693	-0.048
Mof_C 	C 	0.247	0.7695	0.6304	-0.316
Mof_H 	H 	0.2404	0.7235	0.6023	0.077
Mof_H 	H 	0.2989	0.7974	0.622	0.181
Mof_H 	H 	0.2016	0.808	0.6251	0.191
Mof_C 	C 	0.2267	0.6458	0.9076	0.111
Mof_H 	H 	0.1689	0.6342	0.8972	-0.012
Mof_H 	H 	0.2597	0.5985	0.8938	-0.011
Mof_C 	C 	0.2339	0.6515	0.9777	-0.468
Mof_H 	H 	0.2045	0.7007	0.9924	0.085
Mof_H 	H 	0.2922	0.6566	0.9895	0.101
Mof_C 	C 	0.1948	0.5701	0.0084	0.318
Mof_H 	H 	0.186	0.5788	0.0524	-0.082
Mof_H 	H 	0.1415	0.557	0.9893	-0.088
Mof_C 	C 	0.2569	0.4987	0.9978	-0.464
Mof_H 	H 	0.2356	0.4485	0.0162	0.162
Mof_H 	H 	0.3095	0.5127	0.0165	0.149
Mof_H 	H 	0.2645	0.4904	0.9541	0.151
Mof_H 	H 	0.1796	0.6659	0.9946	0.092
Mof_H 	H 	0.2722	0.6964	0.9881	0.077
Mof_C 	C 	0.2646	0.5704	0.0088	0.076
Mof_H 	H 	0.3143	0.5492	0.9884	-0.028
Mof_H 	H 	0.277	0.5796	0.0524	-0.024
Mof_C 	C 	0.1906	0.5098	0.0009	-0.243
Mof_H 	H 	0.2016	0.4594	0.0236	0.045
Mof_H 	H 	0.1837	0.4968	0.9577	0.102
Mof_H 	H 	0.1406	0.5354	0.0164	0.072
Mof_C 	C 	0.348	0.7401	0.8796	-0.046
Mof_H 	H 	0.362	0.7911	0.8576	0.043
Mof_H 	H 	0.3584	0.7497	0.9233	0.035
Mof_C 	C 	0.4053	0.6719	0.8576	-0.095
Mof_H 	H 	0.3928	0.6619	0.8142	0.05
Mof_H 	H 	0.3904	0.6215	0.88	0.085
Mof_C 	C 	0.4989	0.6824	0.8631	0.296
Mof_H 	H 	0.5126	0.7338	0.8847	-0.076
Mof_H 	H 	0.5249	0.6832	0.8225	-0.063
Mof_C 	C 	0.5289	0.6024	0.9022	-0.977
Mof_H 	H 	0.5884	0.6046	0.9078	0.316
Mof_H 	H 	0.5143	0.5524	0.8802	0.289
Mof_H 	H 	0.502	0.6026	0.942	0.248
Mof_H 	H 	0.4386	0.6901	0.8226	0
Mof_H 	H 	0.3743	0.6222	0.8462	-0.008
Mof_C 	C 	0.4604	0.6563	0.9156	-0.523
Mof_H 	H 	0.4302	0.6808	0.9501	0.147
Mof_H 	H 	0.4593	0.5964	0.9223	0.197
Mof_C 	C 	0.5398	0.679	0.923	0.75
Mof_H 	H 	0.559	0.6616	0.9631	-0.226
Mof_H 	H 	0.5441	0.7388	0.9198	-0.196
Mof_H 	H 	0.5735	0.6536	0.8915	-0.139
Mof_C 	C 	0.2071	0.7983	0.8908	0.139
Mof_H 	H 	0.2296	0.8462	0.8688	-0.006
Mof_H 	H 	0.2178	0.8071	0.9346	-0.017
Mof_C 	C 	0.1129	0.7975	0.8812	-0.505
Mof_H 	H 	0.1011	0.7997	0.8371	0.172
Mof_H 	H 	0.0906	0.7454	0.8971	0.175
Mof_C 	C 	0.0695	0.8689	0.9127	0.529
Mof_H 	H 	0.0786	0.8648	0.9571	-0.14
Mof_H 	H 	0.0943	0.9209	0.8987	-0.136
Mof_C 	C 	0.9778	0.8713	0.9004	-1.032
Mof_H 	H 	0.954	0.9199	0.9196	0.33
Mof_H 	H 	0.9521	0.8221	0.9171	0.328
Mof_H 	H 	0.9682	0.8736	0.8564	0.339
Mof_N 	N 	0.7454	0.2769	0.87083	-0.178
Mof_C 	C 	0.7623	0.2975	0.8047	0.113
Mof_H 	H 	0.8206	0.3129	0.8011	-0.01
Mof_H 	H 	0.7295	0.3464	0.794	-0.003
Mof_C 	C 	0.744	0.2293	0.7558	-0.461
Mof_H 	H 	0.7824	0.183	0.7616	0.161
Mof_H 	H 	0.6877	0.2084	0.7615	0.166
Mof_C 	C 	0.7527	0.2617	0.6943	0.408
Mof_H 	H 	0.8054	0.2909	0.6896	-0.041
Mof_H 	H 	0.7075	0.2998	0.6846	-0.044
Mof_C 	C 	0.7493	0.1786	0.6491	-0.727
Mof_H 	H 	0.7549	0.1956	0.6066	0.208
Mof_H 	H 	0.6969	0.1505	0.6546	0.204
Mof_H 	H 	0.7942	0.1415	0.6597	0.198
Mof_H 	H 	0.8052	0.2919	0.6966	-0.042
Mof_H 	H 	0.7101	0.3047	0.693	-0.042
Mof_C 	C 	0.753	0.2305	0.6304	-0.288
Mof_H 	H 	0.7596	0.2765	0.6023	0.072
Mof_H 	H 	0.7011	0.2026	0.622	0.17
Mof_H 	H 	0.7984	0.192	0.6251	0.182
Mof_C 	C 	0.7733	0.3542	0.9076	0.116
Mof_H 	H 	0.8311	0.3658	0.8972	-0.014
Mof_H 	H 	0.7403	0.4015	0.8938	-0.012
Mof_C 	C 	0.7661	0.3485	0.9777	-0.473
Mof_H 	H 	0.7955	0.2993	0.9924	0.082
Mof_H 	H 	0.7078	0.3434	0.9895	0.096
Mof_C 	C 	0.8052	0.4299	0.0084	0.251
Mof_H 	H 	0.814	0.4212	0.0524	-0.059
Mof_H 	H 	0.8585	0.443	0.9893	-0.062
Mof_C 	C 	0.7431	0.5013	0.9978	-0.431
Mof_H 	H 	0.7644	0.5515	0.0162	0.142
Mof_H 	H 	0.6905	0.4873	0.0165	0.137
Mof_H 	H 	0.7355	0.5096	0.9541	0.143
Mof_H 	H 	0.8204	0.3341	0.9946	0.104
Mof_H 	H 	0.7278	0.3036	0.9881	0.082
Mof_C 	C 	0.7354	0.4296	0.0088	0.134
Mof_H 	H 	0.6857	0.4508	0.9884	-0.045
Mof_H 	H 	0.723	0.4204	0.0524	-0.041
Mof_C 	C 	0.8094	0.4902	0.0009	-0.264
Mof_H 	H 	0.7984	0.5406	0.0236	0.064
Mof_H 	H 	0.8163	0.5032	0.9577	0.11
Mof_H 	H 	0.8594	0.4646	0.0164	0.083
Mof_C 	C 	0.652	0.2599	0.8796	-0.032
Mof_H 	H 	0.638	0.2089	0.8576	0.036
Mof_H 	H 	0.6416	0.2503	0.9233	0.03
Mof_C 	C 	0.5947	0.3281	0.8576	-0.112
Mof_H 	H 	0.6072	0.3381	0.8142	0.053
Mof_H 	H 	0.6096	0.3785	0.88	0.089
Mof_C 	C 	0.5011	0.3176	0.8631	0.302
Mof_H 	H 	0.4874	0.2662	0.8847	-0.08
Mof_H 	H 	0.4751	0.3168	0.8225	-0.068
Mof_C 	C 	0.4711	0.3976	0.9022	-0.98
Mof_H 	H 	0.4116	0.3954	0.9078	0.316
Mof_H 	H 	0.4857	0.4476	0.8802	0.289
Mof_H 	H 	0.498	0.3974	0.942	0.249
Mof_H 	H 	0.5614	0.3099	0.8226	0.003
Mof_H 	H 	0.6257	0.3778	0.8462	-0.006
Mof_C 	C 	0.5396	0.3437	0.9156	-0.515
Mof_H 	H 	0.5698	0.3192	0.9501	0.146
Mof_H 	H 	0.5407	0.4036	0.9223	0.194
Mof_C 	C 	0.4602	0.321	0.923	0.741
Mof_H 	H 	0.441	0.3384	0.9631	-0.224
Mof_H 	H 	0.4559	0.2612	0.9198	-0.195
Mof_H 	H 	0.4265	0.3464	0.8915	-0.137
Mof_C 	C 	0.7929	0.2017	0.8908	0.291
Mof_H 	H 	0.7704	0.1538	0.8688	-0.057
Mof_H 	H 	0.7822	0.1929	0.9346	-0.068
Mof_C 	C 	0.8871	0.2025	0.8812	-0.805
Mof_H 	H 	0.8989	0.2003	0.8371	0.263
Mof_H 	H 	0.9094	0.2546	0.8971	0.273
Mof_C 	C 	0.9305	0.1311	0.9127	0.99
Mof_H 	H 	0.9214	0.1352	0.9571	-0.277
Mof_H 	H 	0.9057	0.0791	0.8987	-0.291
Mof_C 	C 	0.0222	0.1287	0.9004	-1.577
Mof_H 	H 	0.046	0.0801	0.9196	0.481
Mof_H 	H 	0.0479	0.1779	0.9171	0.483
Mof_H 	H 	0.0318	0.1264	0.8564	0.477
_end
