data_functionalizedCrystal
_audit_creation_method	'EQeq! by Chris Wilmer'
_symmetry_space_group_name_H-M	'P1'
_symmetry_Int_Tables_number	1
_symmetry_cell_setting	triclinic
loop_
_symmetry_equiv_pos_as_xyz
  x,y,z
_cell_length_a	10.885
_cell_length_b	10.93
_cell_length_c	18.518
_cell_angle_alpha	87.42
_cell_angle_beta	84.99
_cell_angle_gamma	70.57
loop_
_atom_site_label
_atom_site_type_symbol
_atom_site_fract_x
_atom_site_fract_y
_atom_site_fract_z
_atom_site_charge
Mof_Zn	Zn	0.34332	0.24176	0.57692	1.212
Mof_Zn	Zn	0.31858	0.23809	0.73963	1.214
Mof_H 	H 	0.7601	0.2103	0.5517	0.046
Mof_H 	H 	0.9595	0.2435	0.5573	0.063
Mof_H 	H 	0.9092	0.2498	0.7746	0.096
Mof_H 	H 	0.7115	0.2141	0.7691	0.058
Mof_H 	H 	0.3606	0.6332	0.5449	0.056
Mof_H 	H 	0.3665	0.8435	0.546	0.055
Mof_H 	H 	0.3215	0.8394	0.7649	0.056
Mof_H 	H 	0.309	0.6288	0.763	0.065
Mof_H 	H 	0.3501	0.0695	0.4538	-0.005
Mof_H 	H 	0.3386	0.0754	0.3318	0.11
Mof_H 	H 	0.3044	0.4547	0.3306	0.139
Mof_H 	H 	0.3167	0.4376	0.4537	-0.001
Mof_H 	H 	0.4479	0.087	0.2178	0.049
Mof_H 	H 	0.4421	0.0846	0.0945	0.039
Mof_H 	H 	0.506	0.1614	0.9809	0.107
Mof_H 	H 	0.5018	0.153	0.8568	-0.009
Mof_H 	H 	0.1289	0.3469	0.866	0.029
Mof_H 	H 	0.1219	0.3636	0.9899	0.154
Mof_C 	C 	0.7138	0.2124	0.6599	-0.078
Mof_C 	C 	0.7891	0.219	0.5963	-0.004
Mof_C 	C 	0.909	0.2388	0.5998	-0.036
Mof_C 	C 	0.9532	0.2514	0.6658	-0.034
Mof_C 	C 	0.8794	0.2423	0.73	-0.022
Mof_C 	C 	0.7605	0.2217	0.7265	0.002
Mof_C 	C 	0.5803	0.1987	0.657	0.36
Mof_C 	C 	0.0846	0.2708	0.6691	0.358
Mof_C 	C 	0.332	0.6125	0.6543	-0.063
Mof_C 	C 	0.3512	0.6753	0.5887	-0.021
Mof_C 	C 	0.3558	0.8009	0.5894	-0.018
Mof_C 	C 	0.3447	0.8634	0.655	-0.068
Mof_C 	C 	0.3279	0.7988	0.721	-0.015
Mof_C 	C 	0.321	0.6719	0.7199	-0.018
Mof_C 	C 	0.3209	0.4774	0.6536	0.376
Mof_C 	C 	0.3492	0.0005	0.6556	0.373
Mof_C 	C 	0.3407	0.1475	0.4288	0.117
Mof_C 	C 	0.3347	0.1502	0.3553	-0.191
Mof_C 	C 	0.3226	0.2648	0.3151	0.167
Mof_C 	C 	0.3143	0.3756	0.3544	-0.177
Mof_C 	C 	0.321	0.3645	0.4284	0.107
Mof_C 	C 	0.3201	0.2673	0.2349	-0.094
Mof_C 	C 	0.3946	0.1598	0.1943	-0.026
Mof_C 	C 	0.3914	0.1584	0.1196	-0.017
Mof_C 	C 	0.3141	0.2653	0.081	-0.096
Mof_C 	C 	0.2404	0.3729	0.1216	0.231
Mof_C 	C 	0.2449	0.3759	0.1961	0.235
Mof_C 	C 	0.311	0.2599	0.0011	0.17
Mof_C 	C 	0.4279	0.1983	0.9591	-0.187
Mof_C 	C 	0.4241	0.1937	0.8842	0.111
Mof_C 	C 	0.2049	0.308	0.8894	0.11
Mof_C 	C 	0.2	0.3179	0.9644	-0.177
Mof_N 	N 	0.3338	0.2517	0.4669	-0.259
Mof_N 	N 	0.3149	0.2445	0.8495	-0.258
Mof_O 	O 	0.5395	0.1975	0.5957	-0.444
Mof_O 	O 	0.5172	0.1948	0.7177	-0.447
Mof_O 	O 	0.1236	0.274	0.7313	-0.412
Mof_O 	O 	0.1454	0.2816	0.6092	-0.441
Mof_O 	O 	0.3309	0.4275	0.5922	-0.454
Mof_O 	O 	0.3048	0.4247	0.7135	-0.452
Mof_O 	O 	0.3422	0.0501	0.7162	-0.461
Mof_O 	O 	0.3588	0.0527	0.5942	-0.458
Mof_F 	F 	0.1674	0.4846	0.2309	-0.415
Mof_F 	F 	0.1643	0.4838	0.0889	-0.409
Mof_Zn	Zn	0.65668	0.75824	0.42308	1.213
Mof_Zn	Zn	0.68142	0.76191	0.26037	1.215
Mof_H 	H 	0.2399	0.7897	0.4483	0.047
Mof_H 	H 	0.0405	0.7565	0.4427	0.064
Mof_H 	H 	0.0908	0.7502	0.2254	0.096
Mof_H 	H 	0.2885	0.7859	0.2309	0.058
Mof_H 	H 	0.6394	0.3668	0.4551	0.056
Mof_H 	H 	0.6335	0.1565	0.454	0.055
Mof_H 	H 	0.6785	0.1606	0.2351	0.056
Mof_H 	H 	0.691	0.3712	0.237	0.065
Mof_H 	H 	0.6499	0.9305	0.5462	-0.005
Mof_H 	H 	0.6614	0.9246	0.6682	0.11
Mof_H 	H 	0.6956	0.5453	0.6694	0.139
Mof_H 	H 	0.6833	0.5624	0.5463	-0.001
Mof_H 	H 	0.5521	0.913	0.7822	0.049
Mof_H 	H 	0.5579	0.9154	0.9055	0.039
Mof_H 	H 	0.494	0.8386	0.0191	0.107
Mof_H 	H 	0.4982	0.847	0.1432	-0.009
Mof_H 	H 	0.8711	0.6531	0.134	0.029
Mof_H 	H 	0.8781	0.6364	0.0101	0.154
Mof_C 	C 	0.2862	0.7876	0.3401	-0.078
Mof_C 	C 	0.2109	0.781	0.4037	-0.004
Mof_C 	C 	0.091	0.7612	0.4002	-0.036
Mof_C 	C 	0.0468	0.7486	0.3342	-0.034
Mof_C 	C 	0.1206	0.7577	0.27	-0.022
Mof_C 	C 	0.2395	0.7783	0.2735	0.002
Mof_C 	C 	0.4197	0.8013	0.343	0.36
Mof_C 	C 	0.9154	0.7292	0.3309	0.358
Mof_C 	C 	0.668	0.3875	0.3457	-0.063
Mof_C 	C 	0.6488	0.3247	0.4113	-0.021
Mof_C 	C 	0.6442	0.1991	0.4106	-0.018
Mof_C 	C 	0.6553	0.1366	0.345	-0.068
Mof_C 	C 	0.6721	0.2012	0.279	-0.015
Mof_C 	C 	0.679	0.3281	0.2801	-0.018
Mof_C 	C 	0.6791	0.5226	0.3464	0.376
Mof_C 	C 	0.6508	0.9995	0.3444	0.373
Mof_C 	C 	0.6593	0.8525	0.5712	0.117
Mof_C 	C 	0.6653	0.8498	0.6447	-0.191
Mof_C 	C 	0.6774	0.7352	0.6849	0.167
Mof_C 	C 	0.6857	0.6244	0.6456	-0.177
Mof_C 	C 	0.679	0.6355	0.5716	0.107
Mof_C 	C 	0.6799	0.7327	0.7651	-0.094
Mof_C 	C 	0.6054	0.8402	0.8057	-0.026
Mof_C 	C 	0.6086	0.8416	0.8804	-0.017
Mof_C 	C 	0.6859	0.7347	0.919	-0.096
Mof_C 	C 	0.7596	0.6271	0.8784	0.231
Mof_C 	C 	0.7551	0.6241	0.8039	0.235
Mof_C 	C 	0.689	0.7401	0.9989	0.17
Mof_C 	C 	0.5721	0.8017	0.0409	-0.187
Mof_C 	C 	0.5759	0.8063	0.1158	0.111
Mof_C 	C 	0.7951	0.692	0.1106	0.11
Mof_C 	C 	0.8	0.6821	0.0356	-0.177
Mof_N 	N 	0.6662	0.7483	0.5331	-0.259
Mof_N 	N 	0.6851	0.7555	0.1505	-0.258
Mof_O 	O 	0.4605	0.8025	0.4043	-0.444
Mof_O 	O 	0.4828	0.8052	0.2823	-0.447
Mof_O 	O 	0.8764	0.726	0.2687	-0.412
Mof_O 	O 	0.8546	0.7184	0.3908	-0.441
Mof_O 	O 	0.6691	0.5725	0.4078	-0.454
Mof_O 	O 	0.6952	0.5753	0.2865	-0.452
Mof_O 	O 	0.6578	0.9499	0.2838	-0.461
Mof_O 	O 	0.6412	0.9473	0.4058	-0.458
Mof_F 	F 	0.8326	0.5154	0.7691	-0.415
Mof_F 	F 	0.8357	0.5162	0.9111	-0.409
_end
