# CIF file generated by openbabel 3.1.0, see https://openbabel.org
data_I
_chemical_name_common 'image0'
_cell_length_a 28.47
_cell_length_b 27.784
_cell_length_c 9.255
_cell_angle_alpha 90
_cell_angle_beta 90
_cell_angle_gamma 90
_space_group_name_H-M_alt 'P 1'
_space_group_name_Hall 'P 1'
loop_
    _symmetry_equiv_pos_as_xyz
    x,y,z
loop_
    _atom_site_label
    _atom_site_type_symbol
    _atom_site_fract_x
    _atom_site_fract_y
    _atom_site_fract_z
    _atom_site_occupancy
    Cl1      Cl       0.31677    0.49924    0.89290    1.000
    Zn1      Zn       0.36497    0.49206    0.08132    1.000
    C1       C        0.45563    0.54215    0.13720    1.000
    H1       H        0.45870    0.52810    0.22790    1.000
    C2       C        0.43067    0.55970    0.92830    1.000
    H2       H        0.41290    0.56000    0.84400    1.000
    C3       C        0.46848    0.58650    0.95220    1.000
    H3       H        0.48160    0.60900    0.88990    1.000
    C4       C        0.52336    0.59572    0.16380    1.000
    C5       C        0.55238    0.56772    0.24600    1.000
    H4       H        0.54810    0.53450    0.24820    1.000
    C6       C        0.58757    0.58826    0.32490    1.000
    H5       H        0.60680    0.56880    0.38150    1.000
    C7       C        0.59518    0.63728    0.32220    1.000
    C8       C        0.56616    0.66502    0.23530    1.000
    H6       H        0.57120    0.69800    0.22920    1.000
    C9       C        0.53022    0.64452    0.15810    1.000
    H7       H        0.51060    0.66370    0.10210    1.000
    C10      C        0.79662    0.54090    0.72650    1.000
    H8       H        0.77710    0.54760    0.80460    1.000
    C11      C        0.85390    0.51580    0.59910    1.000
    H9       H        0.88220    0.50160    0.57220    1.000
    C12      C        0.82428    0.53790    0.51030    1.000
    H10      H        0.82780    0.54170    0.41100    1.000
    C13      C        0.74830    0.58109    0.54140    1.000
    C14      C        0.72486    0.61114    0.63680    1.000
    H11      H        0.73510    0.61420    0.73180    1.000
    C15      C        0.68642    0.63623    0.58930    1.000
    H12      H        0.67050    0.65620    0.65330    1.000
    C16      C        0.67093    0.63244    0.44850    1.000
    C17      C        0.69476    0.60345    0.35730    1.000
    H13      H        0.68510    0.60110    0.26160    1.000
    C18      C        0.73307    0.57720    0.40320    1.000
    H14      H        0.74850    0.55680    0.33920    1.000
    C19      C        0.63104    0.88573    0.56530    1.000
    H15      H        0.65520    0.88500    0.49750    1.000
    C20      C        0.58030    0.91025    0.71800    1.000
    H16      H        0.56270    0.93050    0.77700    1.000
    C21      C        0.57569    0.86260    0.70990    1.000
    H17      H        0.55430    0.84370    0.76050    1.000
    C22      C        0.61483    0.79852    0.56450    1.000
    C23      C        0.57733    0.76714    0.56650    1.000
    H18      H        0.54850    0.77690    0.60360    1.000
    C24      C        0.58276    0.72131    0.51340    1.000
    H19      H        0.55760    0.70000    0.51540    1.000
    C25      C        0.62521    0.70679    0.45750    1.000
    C26      C        0.66261    0.73837    0.45570    1.000
    H20      H        0.69130    0.72870    0.41760    1.000
    C27      C        0.65756    0.78392    0.50980    1.000
    H21      H        0.68290    0.80500    0.50960    1.000
    N1       N        0.42190    0.53183    0.04580    1.000
    N2       N        0.48420    0.57435    0.08570    1.000
    N3       N        0.61517    0.92463    0.62530    1.000
    N4       N        0.60846    0.84696    0.61280    1.000
    N5       N        0.78783    0.55414    0.59180    1.000
    N6       N        0.83619    0.51715    0.73610    1.000
    N7       N        0.63094    0.65928    0.40290    1.000
    Cl2      Cl       0.18323    0.99924    0.60710    1.000
    Zn2      Zn       0.13503    0.99206    0.41868    1.000
    C28      C        0.04437    0.04215    0.36280    1.000
    H22      H        0.04130    0.02810    0.27210    1.000
    C29      C        0.06933    0.05970    0.57170    1.000
    H23      H        0.08710    0.06000    0.65600    1.000
    C30      C        0.03152    0.08650    0.54780    1.000
    H24      H        0.01840    0.10900    0.61010    1.000
    C31      C        0.97664    0.09572    0.33620    1.000
    C32      C        0.94762    0.06772    0.25400    1.000
    H25      H        0.95190    0.03450    0.25180    1.000
    C33      C        0.91243    0.08826    0.17510    1.000
    H26      H        0.89320    0.06880    0.11850    1.000
    C34      C        0.90482    0.13728    0.17780    1.000
    C35      C        0.93384    0.16502    0.26470    1.000
    H27      H        0.92880    0.19800    0.27080    1.000
    C36      C        0.96978    0.14452    0.34190    1.000
    H28      H        0.98940    0.16370    0.39790    1.000
    C37      C        0.70338    0.04090    0.77350    1.000
    H29      H        0.72290    0.04760    0.69540    1.000
    C38      C        0.64610    0.01580    0.90090    1.000
    H30      H        0.61780    0.00160    0.92780    1.000
    C39      C        0.67572    0.03790    0.98970    1.000
    H31      H        0.67220    0.04170    0.08900    1.000
    C40      C        0.75170    0.08109    0.95860    1.000
    C41      C        0.77514    0.11114    0.86320    1.000
    H32      H        0.76490    0.11420    0.76820    1.000
    C42      C        0.81358    0.13623    0.91070    1.000
    H33      H        0.82950    0.15620    0.84670    1.000
    C43      C        0.82907    0.13244    0.05150    1.000
    C44      C        0.80524    0.10345    0.14270    1.000
    H34      H        0.81490    0.10110    0.23840    1.000
    C45      C        0.76693    0.07720    0.09680    1.000
    H35      H        0.75150    0.05680    0.16080    1.000
    C46      C        0.86896    0.38573    0.93470    1.000
    H36      H        0.84480    0.38500    0.00250    1.000
    C47      C        0.91970    0.41025    0.78200    1.000
    H37      H        0.93730    0.43050    0.72300    1.000
    C48      C        0.92431    0.36260    0.79010    1.000
    H38      H        0.94570    0.34370    0.73950    1.000
    C49      C        0.88517    0.29852    0.93550    1.000
    C50      C        0.92267    0.26714    0.93350    1.000
    H39      H        0.95150    0.27690    0.89640    1.000
    C51      C        0.91724    0.22131    0.98660    1.000
    H40      H        0.94240    0.20000    0.98460    1.000
    C52      C        0.87479    0.20679    0.04250    1.000
    C53      C        0.83739    0.23837    0.04430    1.000
    H41      H        0.80870    0.22870    0.08240    1.000
    C54      C        0.84244    0.28392    0.99020    1.000
    H42      H        0.81710    0.30500    0.99040    1.000
    N8       N        0.07810    0.03183    0.45420    1.000
    N9       N        0.01580    0.07435    0.41430    1.000
    N10      N        0.88483    0.42463    0.87470    1.000
    N11      N        0.89154    0.34696    0.88720    1.000
    N12      N        0.71217    0.05414    0.90820    1.000
    N13      N        0.66381    0.01715    0.76390    1.000
    N14      N        0.86906    0.15928    0.09710    1.000
    Cl3      Cl       0.81677    0.49924    0.10710    1.000
    Zn3      Zn       0.86497    0.49206    0.91868    1.000
    C55      C        0.95563    0.54215    0.86280    1.000
    H43      H        0.95870    0.52810    0.77210    1.000
    C56      C        0.93067    0.55970    0.07170    1.000
    H44      H        0.91290    0.56000    0.15600    1.000
    C57      C        0.96848    0.58650    0.04780    1.000
    H45      H        0.98160    0.60900    0.11010    1.000
    C58      C        0.02336    0.59572    0.83620    1.000
    C59      C        0.05238    0.56772    0.75400    1.000
    H46      H        0.04810    0.53450    0.75180    1.000
    C60      C        0.08757    0.58826    0.67510    1.000
    H47      H        0.10680    0.56880    0.61850    1.000
    C61      C        0.09518    0.63728    0.67780    1.000
    C62      C        0.06616    0.66502    0.76470    1.000
    H48      H        0.07120    0.69800    0.77080    1.000
    C63      C        0.03022    0.64452    0.84190    1.000
    H49      H        0.01060    0.66370    0.89790    1.000
    C64      C        0.29662    0.54090    0.27350    1.000
    H50      H        0.27710    0.54760    0.19540    1.000
    C65      C        0.35390    0.51580    0.40090    1.000
    H51      H        0.38220    0.50160    0.42780    1.000
    C66      C        0.32428    0.53790    0.48970    1.000
    H52      H        0.32780    0.54170    0.58900    1.000
    C67      C        0.24830    0.58109    0.45860    1.000
    C68      C        0.22486    0.61114    0.36320    1.000
    H53      H        0.23510    0.61420    0.26820    1.000
    C69      C        0.18642    0.63623    0.41070    1.000
    H54      H        0.17050    0.65620    0.34670    1.000
    C70      C        0.17093    0.63244    0.55150    1.000
    C71      C        0.19476    0.60345    0.64270    1.000
    H55      H        0.18510    0.60110    0.73840    1.000
    C72      C        0.23307    0.57720    0.59680    1.000
    H56      H        0.24850    0.55680    0.66080    1.000
    C73      C        0.13104    0.88573    0.43470    1.000
    H57      H        0.15520    0.88500    0.50250    1.000
    C74      C        0.08030    0.91025    0.28200    1.000
    H58      H        0.06270    0.93050    0.22300    1.000
    C75      C        0.07569    0.86260    0.29010    1.000
    H59      H        0.05430    0.84370    0.23950    1.000
    C76      C        0.11483    0.79852    0.43550    1.000
    C77      C        0.07733    0.76714    0.43350    1.000
    H60      H        0.04850    0.77690    0.39640    1.000
    C78      C        0.08276    0.72131    0.48660    1.000
    H61      H        0.05760    0.70000    0.48460    1.000
    C79      C        0.12521    0.70679    0.54250    1.000
    C80      C        0.16261    0.73837    0.54430    1.000
    H62      H        0.19130    0.72870    0.58240    1.000
    C81      C        0.15756    0.78392    0.49020    1.000
    H63      H        0.18290    0.80500    0.49040    1.000
    N15      N        0.92190    0.53183    0.95420    1.000
    N16      N        0.98420    0.57435    0.91430    1.000
    N17      N        0.11517    0.92463    0.37470    1.000
    N18      N        0.10846    0.84696    0.38720    1.000
    N19      N        0.28783    0.55414    0.40820    1.000
    N20      N        0.33619    0.51715    0.26390    1.000
    N21      N        0.13094    0.65928    0.59710    1.000
    Cl4      Cl       0.68323    0.99924    0.39290    1.000
    Zn4      Zn       0.63503    0.99206    0.58132    1.000
    C82      C        0.54437    0.04215    0.63720    1.000
    H64      H        0.54130    0.02810    0.72790    1.000
    C83      C        0.56933    0.05970    0.42830    1.000
    H65      H        0.58710    0.06000    0.34400    1.000
    C84      C        0.53152    0.08650    0.45220    1.000
    H66      H        0.51840    0.10900    0.38990    1.000
    C85      C        0.47664    0.09572    0.66380    1.000
    C86      C        0.44762    0.06772    0.74600    1.000
    H67      H        0.45190    0.03450    0.74820    1.000
    C87      C        0.41243    0.08826    0.82490    1.000
    H68      H        0.39320    0.06880    0.88150    1.000
    C88      C        0.40482    0.13728    0.82220    1.000
    C89      C        0.43384    0.16502    0.73530    1.000
    H69      H        0.42880    0.19800    0.72920    1.000
    C90      C        0.46978    0.14452    0.65810    1.000
    H70      H        0.48940    0.16370    0.60210    1.000
    C91      C        0.20338    0.04090    0.22650    1.000
    H71      H        0.22290    0.04760    0.30460    1.000
    C92      C        0.14610    0.01580    0.09910    1.000
    H72      H        0.11780    0.00160    0.07220    1.000
    C93      C        0.17572    0.03790    0.01030    1.000
    H73      H        0.17220    0.04170    0.91100    1.000
    C94      C        0.25170    0.08109    0.04140    1.000
    C95      C        0.27514    0.11114    0.13680    1.000
    H74      H        0.26490    0.11420    0.23180    1.000
    C96      C        0.31358    0.13623    0.08930    1.000
    H75      H        0.32950    0.15620    0.15330    1.000
    C97      C        0.32907    0.13244    0.94850    1.000
    C98      C        0.30524    0.10345    0.85730    1.000
    H76      H        0.31490    0.10110    0.76160    1.000
    C99      C        0.26693    0.07720    0.90320    1.000
    H77      H        0.25150    0.05680    0.83920    1.000
    C100     C        0.36896    0.38573    0.06530    1.000
    H78      H        0.34480    0.38500    0.99750    1.000
    C101     C        0.41970    0.41025    0.21800    1.000
    H79      H        0.43730    0.43050    0.27700    1.000
    C102     C        0.42431    0.36260    0.20990    1.000
    H80      H        0.44570    0.34370    0.26050    1.000
    C103     C        0.38517    0.29852    0.06450    1.000
    C104     C        0.42267    0.26714    0.06650    1.000
    H81      H        0.45150    0.27690    0.10360    1.000
    C105     C        0.41724    0.22131    0.01340    1.000
    H82      H        0.44240    0.20000    0.01540    1.000
    C106     C        0.37479    0.20679    0.95750    1.000
    C107     C        0.33739    0.23837    0.95570    1.000
    H83      H        0.30870    0.22870    0.91760    1.000
    C108     C        0.34244    0.28392    0.00980    1.000
    H84      H        0.31710    0.30500    0.00960    1.000
    N22      N        0.57810    0.03183    0.54580    1.000
    N23      N        0.51580    0.07435    0.58570    1.000
    N24      N        0.38483    0.42463    0.12530    1.000
    N25      N        0.39154    0.34696    0.11280    1.000
    N26      N        0.21217    0.05414    0.09180    1.000
    N27      N        0.16381    0.01715    0.23610    1.000
    N28      N        0.36906    0.15928    0.90290    1.000
    Cl5      Cl       0.18323    0.50076    0.89290    1.000
    Zn5      Zn       0.13503    0.50794    0.08132    1.000
    C109     C        0.04437    0.45785    0.13720    1.000
    H85      H        0.04130    0.47190    0.22790    1.000
    C110     C        0.06933    0.44030    0.92830    1.000
    H86      H        0.08710    0.44000    0.84400    1.000
    C111     C        0.03152    0.41350    0.95220    1.000
    H87      H        0.01840    0.39100    0.88990    1.000
    C112     C        0.97664    0.40428    0.16380    1.000
    C113     C        0.94762    0.43228    0.24600    1.000
    H88      H        0.95190    0.46550    0.24820    1.000
    C114     C        0.91243    0.41174    0.32490    1.000
    H89      H        0.89320    0.43120    0.38150    1.000
    C115     C        0.90482    0.36272    0.32220    1.000
    C116     C        0.93384    0.33498    0.23530    1.000
    H90      H        0.92880    0.30200    0.22920    1.000
    C117     C        0.96978    0.35548    0.15810    1.000
    H91      H        0.98940    0.33630    0.10210    1.000
    C118     C        0.70338    0.45910    0.72650    1.000
    H92      H        0.72290    0.45240    0.80460    1.000
    C119     C        0.64610    0.48420    0.59910    1.000
    H93      H        0.61780    0.49840    0.57220    1.000
    C120     C        0.67572    0.46210    0.51030    1.000
    H94      H        0.67220    0.45830    0.41100    1.000
    C121     C        0.75170    0.41891    0.54140    1.000
    C122     C        0.77514    0.38886    0.63680    1.000
    H95      H        0.76490    0.38580    0.73180    1.000
    C123     C        0.81358    0.36377    0.58930    1.000
    H96      H        0.82950    0.34380    0.65330    1.000
    C124     C        0.82907    0.36756    0.44850    1.000
    C125     C        0.80524    0.39655    0.35730    1.000
    H97      H        0.81490    0.39890    0.26160    1.000
    C126     C        0.76693    0.42280    0.40320    1.000
    H98      H        0.75150    0.44320    0.33920    1.000
    C127     C        0.86896    0.11427    0.56530    1.000
    H99      H        0.84480    0.11500    0.49750    1.000
    C128     C        0.91970    0.08975    0.71800    1.000
    H100     H        0.93730    0.06950    0.77700    1.000
    C129     C        0.92431    0.13740    0.70990    1.000
    H101     H        0.94570    0.15630    0.76050    1.000
    C130     C        0.88517    0.20148    0.56450    1.000
    C131     C        0.92267    0.23286    0.56650    1.000
    H102     H        0.95150    0.22310    0.60360    1.000
    C132     C        0.91724    0.27869    0.51340    1.000
    H103     H        0.94240    0.30000    0.51540    1.000
    C133     C        0.87479    0.29321    0.45750    1.000
    C134     C        0.83739    0.26163    0.45570    1.000
    H104     H        0.80870    0.27130    0.41760    1.000
    C135     C        0.84244    0.21608    0.50980    1.000
    H105     H        0.81710    0.19500    0.50960    1.000
    N29      N        0.07810    0.46817    0.04580    1.000
    N30      N        0.01580    0.42565    0.08570    1.000
    N31      N        0.88483    0.07537    0.62530    1.000
    N32      N        0.89154    0.15304    0.61280    1.000
    N33      N        0.71217    0.44586    0.59180    1.000
    N34      N        0.66381    0.48285    0.73610    1.000
    N35      N        0.86906    0.34072    0.40290    1.000
    Cl6      Cl       0.31677    0.00076    0.60710    1.000
    Zn6      Zn       0.36497    0.00794    0.41868    1.000
    C136     C        0.45563    0.95785    0.36280    1.000
    H106     H        0.45870    0.97190    0.27210    1.000
    C137     C        0.43067    0.94030    0.57170    1.000
    H107     H        0.41290    0.94000    0.65600    1.000
    C138     C        0.46848    0.91350    0.54780    1.000
    H108     H        0.48160    0.89100    0.61010    1.000
    C139     C        0.52336    0.90428    0.33620    1.000
    C140     C        0.55238    0.93228    0.25400    1.000
    H109     H        0.54810    0.96550    0.25180    1.000
    C141     C        0.58757    0.91174    0.17510    1.000
    H110     H        0.60680    0.93120    0.11850    1.000
    C142     C        0.59518    0.86272    0.17780    1.000
    C143     C        0.56616    0.83498    0.26470    1.000
    H111     H        0.57120    0.80200    0.27080    1.000
    C144     C        0.53022    0.85548    0.34190    1.000
    H112     H        0.51060    0.83630    0.39790    1.000
    C145     C        0.79662    0.95910    0.77350    1.000
    H113     H        0.77710    0.95240    0.69540    1.000
    C146     C        0.85390    0.98420    0.90090    1.000
    H114     H        0.88220    0.99840    0.92780    1.000
    C147     C        0.82428    0.96210    0.98970    1.000
    H115     H        0.82780    0.95830    0.08900    1.000
    C148     C        0.74830    0.91891    0.95860    1.000
    C149     C        0.72486    0.88886    0.86320    1.000
    H116     H        0.73510    0.88580    0.76820    1.000
    C150     C        0.68642    0.86377    0.91070    1.000
    H117     H        0.67050    0.84380    0.84670    1.000
    C151     C        0.67093    0.86756    0.05150    1.000
    C152     C        0.69476    0.89655    0.14270    1.000
    H118     H        0.68510    0.89890    0.23840    1.000
    C153     C        0.73307    0.92280    0.09680    1.000
    H119     H        0.74850    0.94320    0.16080    1.000
    C154     C        0.63104    0.61427    0.93470    1.000
    H120     H        0.65520    0.61500    0.00250    1.000
    C155     C        0.58030    0.58975    0.78200    1.000
    H121     H        0.56270    0.56950    0.72300    1.000
    C156     C        0.57569    0.63740    0.79010    1.000
    H122     H        0.55430    0.65630    0.73950    1.000
    C157     C        0.61483    0.70148    0.93550    1.000
    C158     C        0.57733    0.73286    0.93350    1.000
    H123     H        0.54850    0.72310    0.89640    1.000
    C159     C        0.58276    0.77869    0.98660    1.000
    H124     H        0.55760    0.80000    0.98460    1.000
    C160     C        0.62521    0.79321    0.04250    1.000
    C161     C        0.66261    0.76163    0.04430    1.000
    H125     H        0.69130    0.77130    0.08240    1.000
    C162     C        0.65756    0.71608    0.99020    1.000
    H126     H        0.68290    0.69500    0.99040    1.000
    N36      N        0.42190    0.96817    0.45420    1.000
    N37      N        0.48420    0.92565    0.41430    1.000
    N38      N        0.61517    0.57537    0.87470    1.000
    N39      N        0.60846    0.65304    0.88720    1.000
    N40      N        0.78783    0.94586    0.90820    1.000
    N41      N        0.83619    0.98285    0.76390    1.000
    N42      N        0.63094    0.84072    0.09710    1.000
    Cl7      Cl       0.68323    0.50076    0.10710    1.000
    Zn7      Zn       0.63503    0.50794    0.91868    1.000
    C163     C        0.54437    0.45785    0.86280    1.000
    H127     H        0.54130    0.47190    0.77210    1.000
    C164     C        0.56933    0.44030    0.07170    1.000
    H128     H        0.58710    0.44000    0.15600    1.000
    C165     C        0.53152    0.41350    0.04780    1.000
    H129     H        0.51840    0.39100    0.11010    1.000
    C166     C        0.47664    0.40428    0.83620    1.000
    C167     C        0.44762    0.43228    0.75400    1.000
    H130     H        0.45190    0.46550    0.75180    1.000
    C168     C        0.41243    0.41174    0.67510    1.000
    H131     H        0.39320    0.43120    0.61850    1.000
    C169     C        0.40482    0.36272    0.67780    1.000
    C170     C        0.43384    0.33498    0.76470    1.000
    H132     H        0.42880    0.30200    0.77080    1.000
    C171     C        0.46978    0.35548    0.84190    1.000
    H133     H        0.48940    0.33630    0.89790    1.000
    C172     C        0.20338    0.45910    0.27350    1.000
    H134     H        0.22290    0.45240    0.19540    1.000
    C173     C        0.14610    0.48420    0.40090    1.000
    H135     H        0.11780    0.49840    0.42780    1.000
    C174     C        0.17572    0.46210    0.48970    1.000
    H136     H        0.17220    0.45830    0.58900    1.000
    C175     C        0.25170    0.41891    0.45860    1.000
    C176     C        0.27514    0.38886    0.36320    1.000
    H137     H        0.26490    0.38580    0.26820    1.000
    C177     C        0.31358    0.36377    0.41070    1.000
    H138     H        0.32950    0.34380    0.34670    1.000
    C178     C        0.32907    0.36756    0.55150    1.000
    C179     C        0.30524    0.39655    0.64270    1.000
    H139     H        0.31490    0.39890    0.73840    1.000
    C180     C        0.26693    0.42280    0.59680    1.000
    H140     H        0.25150    0.44320    0.66080    1.000
    C181     C        0.36896    0.11427    0.43470    1.000
    H141     H        0.34480    0.11500    0.50250    1.000
    C182     C        0.41970    0.08975    0.28200    1.000
    H142     H        0.43730    0.06950    0.22300    1.000
    C183     C        0.42431    0.13740    0.29010    1.000
    H143     H        0.44570    0.15630    0.23950    1.000
    C184     C        0.38517    0.20148    0.43550    1.000
    C185     C        0.42267    0.23286    0.43350    1.000
    H144     H        0.45150    0.22310    0.39640    1.000
    C186     C        0.41724    0.27869    0.48660    1.000
    H145     H        0.44240    0.30000    0.48460    1.000
    C187     C        0.37479    0.29321    0.54250    1.000
    C188     C        0.33739    0.26163    0.54430    1.000
    H146     H        0.30870    0.27130    0.58240    1.000
    C189     C        0.34244    0.21608    0.49020    1.000
    H147     H        0.31710    0.19500    0.49040    1.000
    N43      N        0.57810    0.46817    0.95420    1.000
    N44      N        0.51580    0.42565    0.91430    1.000
    N45      N        0.38483    0.07537    0.37470    1.000
    N46      N        0.39154    0.15304    0.38720    1.000
    N47      N        0.21217    0.44586    0.40820    1.000
    N48      N        0.16381    0.48285    0.26390    1.000
    N49      N        0.36906    0.34072    0.59710    1.000
    Cl8      Cl       0.81677    0.00076    0.39290    1.000
    Zn8      Zn       0.86497    0.00794    0.58132    1.000
    C190     C        0.95563    0.95785    0.63720    1.000
    H148     H        0.95870    0.97190    0.72790    1.000
    C191     C        0.93067    0.94030    0.42830    1.000
    H149     H        0.91290    0.94000    0.34400    1.000
    C192     C        0.96848    0.91350    0.45220    1.000
    H150     H        0.98160    0.89100    0.38990    1.000
    C193     C        0.02336    0.90428    0.66380    1.000
    C194     C        0.05238    0.93228    0.74600    1.000
    H151     H        0.04810    0.96550    0.74820    1.000
    C195     C        0.08757    0.91174    0.82490    1.000
    H152     H        0.10680    0.93120    0.88150    1.000
    C196     C        0.09518    0.86272    0.82220    1.000
    C197     C        0.06616    0.83498    0.73530    1.000
    H153     H        0.07120    0.80200    0.72920    1.000
    C198     C        0.03022    0.85548    0.65810    1.000
    H154     H        0.01060    0.83630    0.60210    1.000
    C199     C        0.29662    0.95910    0.22650    1.000
    H155     H        0.27710    0.95240    0.30460    1.000
    C200     C        0.35390    0.98420    0.09910    1.000
    H156     H        0.38220    0.99840    0.07220    1.000
    C201     C        0.32428    0.96210    0.01030    1.000
    H157     H        0.32780    0.95830    0.91100    1.000
    C202     C        0.24830    0.91891    0.04140    1.000
    C203     C        0.22486    0.88886    0.13680    1.000
    H158     H        0.23510    0.88580    0.23180    1.000
    C204     C        0.18642    0.86377    0.08930    1.000
    H159     H        0.17050    0.84380    0.15330    1.000
    C205     C        0.17093    0.86756    0.94850    1.000
    C206     C        0.19476    0.89655    0.85730    1.000
    H160     H        0.18510    0.89890    0.76160    1.000
    C207     C        0.23307    0.92280    0.90320    1.000
    H161     H        0.24850    0.94320    0.83920    1.000
    C208     C        0.13104    0.61427    0.06530    1.000
    H162     H        0.15520    0.61500    0.99750    1.000
    C209     C        0.08030    0.58975    0.21800    1.000
    H163     H        0.06270    0.56950    0.27700    1.000
    C210     C        0.07569    0.63740    0.20990    1.000
    H164     H        0.05430    0.65630    0.26050    1.000
    C211     C        0.11483    0.70148    0.06450    1.000
    C212     C        0.07733    0.73286    0.06650    1.000
    H165     H        0.04850    0.72310    0.10360    1.000
    C213     C        0.08276    0.77869    0.01340    1.000
    H166     H        0.05760    0.80000    0.01540    1.000
    C214     C        0.12521    0.79321    0.95750    1.000
    C215     C        0.16261    0.76163    0.95570    1.000
    H167     H        0.19130    0.77130    0.91760    1.000
    C216     C        0.15756    0.71608    0.00980    1.000
    H168     H        0.18290    0.69500    0.00960    1.000
    N50      N        0.92190    0.96817    0.54580    1.000
    N51      N        0.98420    0.92565    0.58570    1.000
    N52      N        0.11517    0.57537    0.12530    1.000
    N53      N        0.10846    0.65304    0.11280    1.000
    N54      N        0.28783    0.94586    0.09180    1.000
    N55      N        0.33619    0.98285    0.23610    1.000
    N56      N        0.13094    0.84072    0.90290    1.000
