data_functionalizedCrystal
_audit_creation_method	'EQeq! by Chris Wilmer'
_symmetry_space_group_name_H-M	'P1'
_symmetry_Int_Tables_number	1
_symmetry_cell_setting	triclinic
loop_
_symmetry_equiv_pos_as_xyz
  x,y,z
_cell_length_a	26.2522
_cell_length_b	26.2522
_cell_length_c	26.2522
_cell_angle_alpha	90
_cell_angle_beta	90
_cell_angle_gamma	90
loop_
_atom_site_label
_atom_site_type_symbol
_atom_site_fract_x
_atom_site_fract_y
_atom_site_fract_z
_atom_site_charge
Mof_O 	O 	0.0089	0.9703	0.3349	-0.428
Mof_O 	O 	0.0143	0.9786	0.4174	-0.302
Mof_C 	C 	0.0035	0.0546	0.3672	-0.461
Mof_H 	H 	0.9729	0.0659	0.3846	0.237
Mof_H 	H 	0.0324	0.0722	0.382	0.164
Mof_C 	C 	0.0098	0.9978	0.3737	0.537
Mof_O 	O 	0.0089	0.4703	0.8349	-0.456
Mof_O 	O 	0.0143	0.4786	0.9174	-0.289
Mof_C 	C 	0.0035	0.5546	0.8672	-0.323
Mof_H 	H 	0.9729	0.5659	0.8846	0.208
Mof_H 	H 	0.0324	0.5722	0.882	0.135
Mof_C 	C 	0.0098	0.4978	0.8737	0.426
Mof_O 	O 	0.5089	0.9703	0.8349	-0.411
Mof_O 	O 	0.5143	0.9786	0.9174	-0.239
Mof_C 	C 	0.5035	0.0546	0.8672	-0.304
Mof_H 	H 	0.4729	0.0659	0.8846	0.135
Mof_H 	H 	0.5324	0.0722	0.882	0.129
Mof_C 	C 	0.5098	0.9978	0.8737	0.495
Mof_O 	O 	0.5089	0.4703	0.3349	-0.449
Mof_O 	O 	0.5143	0.4786	0.4174	-0.294
Mof_C 	C 	0.5035	0.5546	0.3672	-0.18
Mof_H 	H 	0.4729	0.5659	0.3846	0.102
Mof_H 	H 	0.5324	0.5722	0.382	0.096
Mof_C 	C 	0.5098	0.4978	0.3737	0.401
Mof_O 	O 	0.2411	0.7797	0.8349	-0.442
Mof_O 	O 	0.2357	0.7714	0.9174	-0.258
Mof_C 	C 	0.2465	0.6954	0.8672	-0.177
Mof_H 	H 	0.2771	0.6841	0.8846	0.107
Mof_H 	H 	0.2176	0.6778	0.882	0.099
Mof_C 	C 	0.2402	0.7522	0.8737	0.395
Mof_O 	O 	0.2411	0.2797	0.3349	-0.449
Mof_O 	O 	0.2357	0.2714	0.4174	-0.294
Mof_C 	C 	0.2465	0.1954	0.3672	-0.18
Mof_H 	H 	0.2771	0.1841	0.3846	0.101
Mof_H 	H 	0.2176	0.1778	0.382	0.096
Mof_C 	C 	0.2402	0.2522	0.3737	0.401
Mof_O 	O 	0.7411	0.7797	0.3349	-0.446
Mof_O 	O 	0.7357	0.7714	0.4174	-0.291
Mof_C 	C 	0.7465	0.6954	0.3672	-0.181
Mof_H 	H 	0.7771	0.6841	0.3846	0.103
Mof_H 	H 	0.7176	0.6778	0.382	0.096
Mof_C 	C 	0.7402	0.7522	0.3737	0.402
Mof_O 	O 	0.7411	0.2797	0.8349	-0.443
Mof_O 	O 	0.7357	0.2714	0.9174	-0.259
Mof_C 	C 	0.7465	0.1954	0.8672	-0.179
Mof_H 	H 	0.7771	0.1841	0.8846	0.108
Mof_H 	H 	0.7176	0.1778	0.882	0.1
Mof_C 	C 	0.7402	0.2522	0.8737	0.396
Mof_O 	O 	0.7411	0.4703	0.9151	-0.397
Mof_O 	O 	0.7357	0.4786	0.8326	-0.286
Mof_C 	C 	0.7465	0.5546	0.8828	-0.174
Mof_H 	H 	0.7771	0.5659	0.8654	0.103
Mof_H 	H 	0.7176	0.5722	0.868	0.096
Mof_C 	C 	0.7402	0.4978	0.8763	0.391
Mof_O 	O 	0.7411	0.9703	0.4151	-0.416
Mof_O 	O 	0.7357	0.9786	0.3326	-0.271
Mof_C 	C 	0.7465	0.0546	0.3828	-0.309
Mof_H 	H 	0.7771	0.0659	0.3654	0.132
Mof_H 	H 	0.7176	0.0722	0.368	0.127
Mof_C 	C 	0.7402	0.9978	0.3763	0.503
Mof_O 	O 	0.2411	0.4703	0.4151	-0.45
Mof_O 	O 	0.2357	0.4786	0.3326	-0.294
Mof_C 	C 	0.2465	0.5546	0.3828	-0.18
Mof_H 	H 	0.2771	0.5659	0.3654	0.101
Mof_H 	H 	0.2176	0.5722	0.368	0.096
Mof_C 	C 	0.2402	0.4978	0.3763	0.401
Mof_O 	O 	0.2411	0.9703	0.9151	-0.364
Mof_O 	O 	0.2357	0.9786	0.8326	-0.266
Mof_C 	C 	0.2465	0.0546	0.8828	-0.299
Mof_H 	H 	0.2771	0.0659	0.8654	0.131
Mof_H 	H 	0.2176	0.0722	0.868	0.125
Mof_C 	C 	0.2402	0.9978	0.8763	0.489
Mof_O 	O 	0.5089	0.2797	0.4151	-0.449
Mof_O 	O 	0.5143	0.2714	0.3326	-0.294
Mof_C 	C 	0.5035	0.1954	0.3828	-0.18
Mof_H 	H 	0.4729	0.1841	0.3654	0.101
Mof_H 	H 	0.5324	0.1778	0.368	0.096
Mof_C 	C 	0.5098	0.2522	0.3763	0.401
Mof_O 	O 	0.5089	0.7797	0.9151	-0.395
Mof_O 	O 	0.5143	0.7714	0.8326	-0.285
Mof_C 	C 	0.5035	0.6954	0.8828	-0.172
Mof_H 	H 	0.4729	0.6841	0.8654	0.102
Mof_H 	H 	0.5324	0.6778	0.868	0.095
Mof_C 	C 	0.5098	0.7522	0.8763	0.39
Mof_O 	O 	0.0089	0.2797	0.9151	-0.408
Mof_O 	O 	0.0143	0.2714	0.8326	-0.317
Mof_C 	C 	0.0035	0.1954	0.8828	-0.32
Mof_H 	H 	0.9729	0.1841	0.8654	0.205
Mof_H 	H 	0.0324	0.1778	0.868	0.131
Mof_C 	C 	0.0098	0.2522	0.8763	0.421
Mof_O 	O 	0.0089	0.7797	0.4151	-0.46
Mof_O 	O 	0.0143	0.7714	0.3326	-0.322
Mof_C 	C 	0.0035	0.6954	0.3828	-0.328
Mof_H 	H 	0.9729	0.6841	0.3654	0.206
Mof_H 	H 	0.0324	0.6778	0.368	0.132
Mof_C 	C 	0.0098	0.7522	0.3763	0.433
Mof_O 	O 	0.3349	0.0089	0.9703	-0.428
Mof_O 	O 	0.4174	0.0143	0.9786	-0.302
Mof_C 	C 	0.3672	0.0035	0.0546	-0.461
Mof_H 	H 	0.3846	0.9729	0.0659	0.237
Mof_H 	H 	0.382	0.0324	0.0722	0.164
Mof_C 	C 	0.3737	0.0098	0.9978	0.537
Mof_O 	O 	0.3349	0.5089	0.4703	-0.449
Mof_O 	O 	0.4174	0.5143	0.4786	-0.294
Mof_C 	C 	0.3672	0.5035	0.5546	-0.18
Mof_H 	H 	0.3846	0.4729	0.5659	0.102
Mof_H 	H 	0.382	0.5324	0.5722	0.096
Mof_C 	C 	0.3737	0.5098	0.4978	0.401
Mof_O 	O 	0.8349	0.0089	0.4703	-0.456
Mof_O 	O 	0.9174	0.0143	0.4786	-0.289
Mof_C 	C 	0.8672	0.0035	0.5546	-0.323
Mof_H 	H 	0.8846	0.9729	0.5659	0.208
Mof_H 	H 	0.882	0.0324	0.5722	0.135
Mof_C 	C 	0.8737	0.0098	0.4978	0.426
Mof_O 	O 	0.8349	0.5089	0.9703	-0.411
Mof_O 	O 	0.9174	0.5143	0.9786	-0.239
Mof_C 	C 	0.8672	0.5035	0.0546	-0.304
Mof_H 	H 	0.8846	0.4729	0.0659	0.135
Mof_H 	H 	0.882	0.5324	0.0722	0.129
Mof_C 	C 	0.8737	0.5098	0.9978	0.495
Mof_O 	O 	0.8349	0.2411	0.7797	-0.442
Mof_O 	O 	0.9174	0.2357	0.7714	-0.258
Mof_C 	C 	0.8672	0.2465	0.6954	-0.177
Mof_H 	H 	0.8846	0.2771	0.6841	0.107
Mof_H 	H 	0.882	0.2176	0.6778	0.099
Mof_C 	C 	0.8737	0.2402	0.7522	0.395
Mof_O 	O 	0.8349	0.7411	0.2797	-0.443
Mof_O 	O 	0.9174	0.7357	0.2714	-0.259
Mof_C 	C 	0.8672	0.7465	0.1954	-0.179
Mof_H 	H 	0.8846	0.7771	0.1841	0.108
Mof_H 	H 	0.882	0.7176	0.1778	0.1
Mof_C 	C 	0.8737	0.7402	0.2522	0.396
Mof_O 	O 	0.3349	0.2411	0.2797	-0.449
Mof_O 	O 	0.4174	0.2357	0.2714	-0.294
Mof_C 	C 	0.3672	0.2465	0.1954	-0.18
Mof_H 	H 	0.3846	0.2771	0.1841	0.101
Mof_H 	H 	0.382	0.2176	0.1778	0.096
Mof_C 	C 	0.3737	0.2402	0.2522	0.401
Mof_O 	O 	0.3349	0.7411	0.7797	-0.446
Mof_O 	O 	0.4174	0.7357	0.7714	-0.291
Mof_C 	C 	0.3672	0.7465	0.6954	-0.181
Mof_H 	H 	0.3846	0.7771	0.6841	0.103
Mof_H 	H 	0.382	0.7176	0.6778	0.096
Mof_C 	C 	0.3737	0.7402	0.7522	0.402
Mof_O 	O 	0.9151	0.7411	0.4703	-0.397
Mof_O 	O 	0.8326	0.7357	0.4786	-0.286
Mof_C 	C 	0.8828	0.7465	0.5546	-0.174
Mof_H 	H 	0.8654	0.7771	0.5659	0.103
Mof_H 	H 	0.868	0.7176	0.5722	0.096
Mof_C 	C 	0.8763	0.7402	0.4978	0.391
Mof_O 	O 	0.9151	0.2411	0.9703	-0.364
Mof_O 	O 	0.8326	0.2357	0.9786	-0.266
Mof_C 	C 	0.8828	0.2465	0.0546	-0.299
Mof_H 	H 	0.8654	0.2771	0.0659	0.131
Mof_H 	H 	0.868	0.2176	0.0722	0.125
Mof_C 	C 	0.8763	0.2402	0.9978	0.489
Mof_O 	O 	0.4151	0.7411	0.9703	-0.416
Mof_O 	O 	0.3326	0.7357	0.9786	-0.271
Mof_C 	C 	0.3828	0.7465	0.0546	-0.309
Mof_H 	H 	0.3654	0.7771	0.0659	0.132
Mof_H 	H 	0.368	0.7176	0.0722	0.127
Mof_C 	C 	0.3763	0.7402	0.9978	0.503
Mof_O 	O 	0.4151	0.2411	0.4703	-0.45
Mof_O 	O 	0.3326	0.2357	0.4786	-0.294
Mof_C 	C 	0.3828	0.2465	0.5546	-0.18
Mof_H 	H 	0.3654	0.2771	0.5659	0.101
Mof_H 	H 	0.368	0.2176	0.5722	0.096
Mof_C 	C 	0.3763	0.2402	0.4978	0.401
Mof_O 	O 	0.4151	0.5089	0.2797	-0.449
Mof_O 	O 	0.3326	0.5143	0.2714	-0.294
Mof_C 	C 	0.3828	0.5035	0.1954	-0.18
Mof_H 	H 	0.3654	0.4729	0.1841	0.101
Mof_H 	H 	0.368	0.5324	0.1778	0.096
Mof_C 	C 	0.3763	0.5098	0.2522	0.401
Mof_O 	O 	0.4151	0.0089	0.7797	-0.46
Mof_O 	O 	0.3326	0.0143	0.7714	-0.322
Mof_C 	C 	0.3828	0.0035	0.6954	-0.328
Mof_H 	H 	0.3654	0.9729	0.6841	0.206
Mof_H 	H 	0.368	0.0324	0.6778	0.132
Mof_C 	C 	0.3763	0.0098	0.7522	0.433
Mof_O 	O 	0.9151	0.5089	0.7797	-0.395
Mof_O 	O 	0.8326	0.5143	0.7714	-0.285
Mof_C 	C 	0.8828	0.5035	0.6954	-0.172
Mof_H 	H 	0.8654	0.4729	0.6841	0.102
Mof_H 	H 	0.868	0.5324	0.6778	0.095
Mof_C 	C 	0.8763	0.5098	0.7522	0.39
Mof_O 	O 	0.9151	0.0089	0.2797	-0.408
Mof_O 	O 	0.8326	0.0143	0.2714	-0.317
Mof_C 	C 	0.8828	0.0035	0.1954	-0.32
Mof_H 	H 	0.8654	0.9729	0.1841	0.205
Mof_H 	H 	0.868	0.0324	0.1778	0.131
Mof_C 	C 	0.8763	0.0098	0.2522	0.421
Mof_O 	O 	0.9703	0.3349	0.0089	-0.428
Mof_O 	O 	0.9786	0.4174	0.0143	-0.302
Mof_C 	C 	0.0546	0.3672	0.0035	-0.461
Mof_H 	H 	0.0659	0.3846	0.9729	0.237
Mof_H 	H 	0.0722	0.382	0.0324	0.164
Mof_C 	C 	0.9978	0.3737	0.0098	0.537
Mof_O 	O 	0.9703	0.8349	0.5089	-0.411
Mof_O 	O 	0.9786	0.9174	0.5143	-0.239
Mof_C 	C 	0.0546	0.8672	0.5035	-0.304
Mof_H 	H 	0.0659	0.8846	0.4729	0.135
Mof_H 	H 	0.0722	0.882	0.5324	0.129
Mof_C 	C 	0.9978	0.8737	0.5098	0.495
Mof_O 	O 	0.4703	0.3349	0.5089	-0.449
Mof_O 	O 	0.4786	0.4174	0.5143	-0.294
Mof_C 	C 	0.5546	0.3672	0.5035	-0.18
Mof_H 	H 	0.5659	0.3846	0.4729	0.102
Mof_H 	H 	0.5722	0.382	0.5324	0.096
Mof_C 	C 	0.4978	0.3737	0.5098	0.401
Mof_O 	O 	0.4703	0.8349	0.0089	-0.456
Mof_O 	O 	0.4786	0.9174	0.0143	-0.289
Mof_C 	C 	0.5546	0.8672	0.0035	-0.323
Mof_H 	H 	0.5659	0.8846	0.9729	0.208
Mof_H 	H 	0.5722	0.882	0.0324	0.135
Mof_C 	C 	0.4978	0.8737	0.0098	0.426
Mof_O 	O 	0.7797	0.8349	0.2411	-0.442
Mof_O 	O 	0.7714	0.9174	0.2357	-0.258
Mof_C 	C 	0.6954	0.8672	0.2465	-0.177
Mof_H 	H 	0.6841	0.8846	0.2771	0.107
Mof_H 	H 	0.6778	0.882	0.2176	0.099
Mof_C 	C 	0.7522	0.8737	0.2402	0.395
Mof_O 	O 	0.7797	0.3349	0.7411	-0.446
Mof_O 	O 	0.7714	0.4174	0.7357	-0.291
Mof_C 	C 	0.6954	0.3672	0.7465	-0.181
Mof_H 	H 	0.6841	0.3846	0.7771	0.103
Mof_H 	H 	0.6778	0.382	0.7176	0.096
Mof_C 	C 	0.7522	0.3737	0.7402	0.402
Mof_O 	O 	0.2797	0.8349	0.7411	-0.443
Mof_O 	O 	0.2714	0.9174	0.7357	-0.259
Mof_C 	C 	0.1954	0.8672	0.7465	-0.179
Mof_H 	H 	0.1841	0.8846	0.7771	0.108
Mof_H 	H 	0.1778	0.882	0.7176	0.1
Mof_C 	C 	0.2522	0.8737	0.7402	0.396
Mof_O 	O 	0.2797	0.3349	0.2411	-0.449
Mof_O 	O 	0.2714	0.4174	0.2357	-0.294
Mof_C 	C 	0.1954	0.3672	0.2465	-0.18
Mof_H 	H 	0.1841	0.3846	0.2771	0.101
Mof_H 	H 	0.1778	0.382	0.2176	0.096
Mof_C 	C 	0.2522	0.3737	0.2402	0.401
Mof_O 	O 	0.4703	0.9151	0.7411	-0.397
Mof_O 	O 	0.4786	0.8326	0.7357	-0.286
Mof_C 	C 	0.5546	0.8828	0.7465	-0.174
Mof_H 	H 	0.5659	0.8654	0.7771	0.103
Mof_H 	H 	0.5722	0.868	0.7176	0.096
Mof_C 	C 	0.4978	0.8763	0.7402	0.391
Mof_O 	O 	0.4703	0.4151	0.2411	-0.45
Mof_O 	O 	0.4786	0.3326	0.2357	-0.294
Mof_C 	C 	0.5546	0.3828	0.2465	-0.18
Mof_H 	H 	0.5659	0.3654	0.2771	0.101
Mof_H 	H 	0.5722	0.368	0.2176	0.096
Mof_C 	C 	0.4978	0.3763	0.2402	0.401
Mof_O 	O 	0.9703	0.9151	0.2411	-0.364
Mof_O 	O 	0.9786	0.8326	0.2357	-0.266
Mof_C 	C 	0.0546	0.8828	0.2465	-0.299
Mof_H 	H 	0.0659	0.8654	0.2771	0.131
Mof_H 	H 	0.0722	0.868	0.2176	0.125
Mof_C 	C 	0.9978	0.8763	0.2402	0.489
Mof_O 	O 	0.9703	0.4151	0.7411	-0.416
Mof_O 	O 	0.9786	0.3326	0.7357	-0.271
Mof_C 	C 	0.0546	0.3828	0.7465	-0.309
Mof_H 	H 	0.0659	0.3654	0.7771	0.132
Mof_H 	H 	0.0722	0.368	0.7176	0.127
Mof_C 	C 	0.9978	0.3763	0.7402	0.503
Mof_O 	O 	0.2797	0.4151	0.5089	-0.449
Mof_O 	O 	0.2714	0.3326	0.5143	-0.294
Mof_C 	C 	0.1954	0.3828	0.5035	-0.18
Mof_H 	H 	0.1841	0.3654	0.4729	0.101
Mof_H 	H 	0.1778	0.368	0.5324	0.096
Mof_C 	C 	0.2522	0.3763	0.5098	0.401
Mof_O 	O 	0.2797	0.9151	0.0089	-0.408
Mof_O 	O 	0.2714	0.8326	0.0143	-0.317
Mof_C 	C 	0.1954	0.8828	0.0035	-0.32
Mof_H 	H 	0.1841	0.8654	0.9729	0.205
Mof_H 	H 	0.1778	0.868	0.0324	0.131
Mof_C 	C 	0.2522	0.8763	0.0098	0.421
Mof_O 	O 	0.7797	0.4151	0.0089	-0.46
Mof_O 	O 	0.7714	0.3326	0.0143	-0.322
Mof_C 	C 	0.6954	0.3828	0.0035	-0.328
Mof_H 	H 	0.6841	0.3654	0.9729	0.206
Mof_H 	H 	0.6778	0.368	0.0324	0.132
Mof_C 	C 	0.7522	0.3763	0.0098	0.433
Mof_O 	O 	0.7797	0.9151	0.5089	-0.395
Mof_O 	O 	0.7714	0.8326	0.5143	-0.285
Mof_C 	C 	0.6954	0.8828	0.5035	-0.172
Mof_H 	H 	0.6841	0.8654	0.4729	0.102
Mof_H 	H 	0.6778	0.868	0.5324	0.095
Mof_C 	C 	0.7522	0.8763	0.5098	0.39
Mof_O 	O 	0.7203	0.2589	0.6651	-0.451
Mof_O 	O 	0.7286	0.2643	0.5826	-0.295
Mof_C 	C 	0.8046	0.2535	0.6328	-0.182
Mof_H 	H 	0.8159	0.2229	0.6154	0.102
Mof_H 	H 	0.8222	0.2824	0.618	0.099
Mof_C 	C 	0.7478	0.2598	0.6263	0.402
Mof_O 	O 	0.7203	0.7589	0.1651	-0.452
Mof_O 	O 	0.7286	0.7643	0.0826	-0.302
Mof_C 	C 	0.8046	0.7535	0.1328	-0.183
Mof_H 	H 	0.8159	0.7229	0.1154	0.103
Mof_H 	H 	0.8222	0.7824	0.118	0.099
Mof_C 	C 	0.7478	0.7598	0.1263	0.403
Mof_O 	O 	0.2203	0.2589	0.1651	-0.454
Mof_O 	O 	0.2286	0.2643	0.0826	-0.304
Mof_C 	C 	0.3046	0.2535	0.1328	-0.18
Mof_H 	H 	0.3159	0.2229	0.1154	0.1
Mof_H 	H 	0.3222	0.2824	0.118	0.095
Mof_C 	C 	0.2478	0.2598	0.1263	0.401
Mof_O 	O 	0.2203	0.7589	0.6651	-0.451
Mof_O 	O 	0.2286	0.7643	0.5826	-0.295
Mof_C 	C 	0.3046	0.7535	0.6328	-0.182
Mof_H 	H 	0.3159	0.7229	0.6154	0.102
Mof_H 	H 	0.3222	0.7824	0.618	0.098
Mof_C 	C 	0.2478	0.7598	0.6263	0.402
Mof_O 	O 	0.5297	0.4911	0.1651	-0.452
Mof_O 	O 	0.5214	0.4857	0.0826	-0.302
Mof_C 	C 	0.4454	0.4965	0.1328	-0.18
Mof_H 	H 	0.4341	0.5271	0.1154	0.101
Mof_H 	H 	0.4278	0.4676	0.118	0.095
Mof_C 	C 	0.5022	0.4902	0.1263	0.402
Mof_O 	O 	0.5297	0.9911	0.6651	-0.36
Mof_O 	O 	0.5214	0.9857	0.5826	-0.22
Mof_C 	C 	0.4454	0.9965	0.6328	0.145
Mof_H 	H 	0.4341	0.0271	0.6154	-0.045
Mof_H 	H 	0.4278	0.9676	0.618	0.017
Mof_C 	C 	0.5022	0.9902	0.6263	0.307
Mof_O 	O 	0.0297	0.4911	0.6651	-0.429
Mof_O 	O 	0.0214	0.4857	0.5826	-0.287
Mof_C 	C 	0.9454	0.4965	0.6328	-0.062
Mof_H 	H 	0.9341	0.5271	0.6154	0.08
Mof_H 	H 	0.9278	0.4676	0.618	0.074
Mof_C 	C 	0.0022	0.4902	0.6263	0.29
Mof_O 	O 	0.0297	0.9911	0.1651	-0.34
Mof_O 	O 	0.0214	0.9857	0.0826	-0.222
Mof_C 	C 	0.9454	0.9965	0.1328	0.255
Mof_H 	H 	0.9341	0.0271	0.1154	-0.064
Mof_H 	H 	0.9278	0.9676	0.118	-0.004
Mof_C 	C 	0.0022	0.9902	0.1263	0.199
Mof_O 	O 	0.2203	0.9911	0.0849	-0.35
Mof_O 	O 	0.2286	0.9857	0.1674	-0.221
Mof_C 	C 	0.3046	0.9965	0.1172	0.134
Mof_H 	H 	0.3159	0.0271	0.1346	-0.043
Mof_H 	H 	0.3222	0.9676	0.132	0.022
Mof_C 	C 	0.2478	0.9902	0.1237	0.307
Mof_O 	O 	0.2203	0.4911	0.5849	-0.451
Mof_O 	O 	0.2286	0.4857	0.6674	-0.295
Mof_C 	C 	0.3046	0.4965	0.6172	-0.181
Mof_H 	H 	0.3159	0.5271	0.6346	0.101
Mof_H 	H 	0.3222	0.4676	0.632	0.097
Mof_C 	C 	0.2478	0.4902	0.6237	0.401
Mof_O 	O 	0.7203	0.9911	0.5849	-0.361
Mof_O 	O 	0.7286	0.9857	0.6674	-0.222
Mof_C 	C 	0.8046	0.9965	0.6172	0.136
Mof_H 	H 	0.8159	0.0271	0.6346	-0.04
Mof_H 	H 	0.8222	0.9676	0.632	0.021
Mof_C 	C 	0.7478	0.9902	0.6237	0.31
Mof_O 	O 	0.7203	0.4911	0.0849	-0.441
Mof_O 	O 	0.7286	0.4857	0.1674	-0.296
Mof_C 	C 	0.8046	0.4965	0.1172	-0.2
Mof_H 	H 	0.8159	0.5271	0.1346	0.108
Mof_H 	H 	0.8222	0.4676	0.132	0.105
Mof_C 	C 	0.7478	0.4902	0.1237	0.404
Mof_O 	O 	0.0297	0.7589	0.5849	-0.429
Mof_O 	O 	0.0214	0.7643	0.6674	-0.287
Mof_C 	C 	0.9454	0.7535	0.6172	-0.065
Mof_H 	H 	0.9341	0.7229	0.6346	0.08
Mof_H 	H 	0.9278	0.7824	0.632	0.076
Mof_C 	C 	0.0022	0.7598	0.6237	0.292
Mof_O 	O 	0.0297	0.2589	0.0849	-0.42
Mof_O 	O 	0.0214	0.2643	0.1674	-0.289
Mof_C 	C 	0.9454	0.2535	0.1172	-0.077
Mof_H 	H 	0.9341	0.2229	0.1346	0.084
Mof_H 	H 	0.9278	0.2824	0.132	0.08
Mof_C 	C 	0.0022	0.2598	0.1237	0.289
Mof_O 	O 	0.5297	0.7589	0.0849	-0.441
Mof_O 	O 	0.5214	0.7643	0.1674	-0.296
Mof_C 	C 	0.4454	0.7535	0.1172	-0.2
Mof_H 	H 	0.4341	0.7229	0.1346	0.107
Mof_H 	H 	0.4278	0.7824	0.132	0.104
Mof_C 	C 	0.5022	0.7598	0.1237	0.404
Mof_O 	O 	0.5297	0.2589	0.5849	-0.45
Mof_O 	O 	0.5214	0.2643	0.6674	-0.295
Mof_C 	C 	0.4454	0.2535	0.6172	-0.18
Mof_H 	H 	0.4341	0.2229	0.6346	0.101
Mof_H 	H 	0.4278	0.2824	0.632	0.096
Mof_C 	C 	0.5022	0.2598	0.6237	0.401
Mof_O 	O 	0.7589	0.5849	0.0297	-0.429
Mof_O 	O 	0.7643	0.6674	0.0214	-0.287
Mof_C 	C 	0.7535	0.6172	0.9454	-0.065
Mof_H 	H 	0.7229	0.6346	0.9341	0.08
Mof_H 	H 	0.7824	0.632	0.9278	0.076
Mof_C 	C 	0.7598	0.6237	0.0022	0.292
Mof_O 	O 	0.7589	0.0849	0.5297	-0.441
Mof_O 	O 	0.7643	0.1674	0.5214	-0.296
Mof_C 	C 	0.7535	0.1172	0.4454	-0.2
Mof_H 	H 	0.7229	0.1346	0.4341	0.107
Mof_H 	H 	0.7824	0.132	0.4278	0.104
Mof_C 	C 	0.7598	0.1237	0.5022	0.404
Mof_O 	O 	0.2589	0.5849	0.5297	-0.45
Mof_O 	O 	0.2643	0.6674	0.5214	-0.295
Mof_C 	C 	0.2535	0.6172	0.4454	-0.18
Mof_H 	H 	0.2229	0.6346	0.4341	0.101
Mof_H 	H 	0.2824	0.632	0.4278	0.096
Mof_C 	C 	0.2598	0.6237	0.5022	0.401
Mof_O 	O 	0.2589	0.0849	0.0297	-0.42
Mof_O 	O 	0.2643	0.1674	0.0214	-0.289
Mof_C 	C 	0.2535	0.1172	0.9454	-0.077
Mof_H 	H 	0.2229	0.1346	0.9341	0.084
Mof_H 	H 	0.2824	0.132	0.9278	0.08
Mof_C 	C 	0.2598	0.1237	0.0022	0.289
Mof_O 	O 	0.9911	0.0849	0.2203	-0.35
Mof_O 	O 	0.9857	0.1674	0.2286	-0.221
Mof_C 	C 	0.9965	0.1172	0.3046	0.134
Mof_H 	H 	0.0271	0.1346	0.3159	-0.043
Mof_H 	H 	0.9676	0.132	0.3222	0.022
Mof_C 	C 	0.9902	0.1237	0.2478	0.307
Mof_O 	O 	0.9911	0.5849	0.7203	-0.361
Mof_O 	O 	0.9857	0.6674	0.7286	-0.222
Mof_C 	C 	0.9965	0.6172	0.8046	0.136
Mof_H 	H 	0.0271	0.6346	0.8159	-0.04
Mof_H 	H 	0.9676	0.632	0.8222	0.021
Mof_C 	C 	0.9902	0.6237	0.7478	0.31
Mof_O 	O 	0.4911	0.0849	0.7203	-0.441
Mof_O 	O 	0.4857	0.1674	0.7286	-0.296
Mof_C 	C 	0.4965	0.1172	0.8046	-0.2
Mof_H 	H 	0.5271	0.1346	0.8159	0.108
Mof_H 	H 	0.4676	0.132	0.8222	0.105
Mof_C 	C 	0.4902	0.1237	0.7478	0.404
Mof_O 	O 	0.4911	0.5849	0.2203	-0.451
Mof_O 	O 	0.4857	0.6674	0.2286	-0.295
Mof_C 	C 	0.4965	0.6172	0.3046	-0.181
Mof_H 	H 	0.5271	0.6346	0.3159	0.101
Mof_H 	H 	0.4676	0.632	0.3222	0.097
Mof_C 	C 	0.4902	0.6237	0.2478	0.401
Mof_O 	O 	0.4911	0.1651	0.5297	-0.452
Mof_O 	O 	0.4857	0.0826	0.5214	-0.302
Mof_C 	C 	0.4965	0.1328	0.4454	-0.18
Mof_H 	H 	0.5271	0.1154	0.4341	0.101
Mof_H 	H 	0.4676	0.118	0.4278	0.095
Mof_C 	C 	0.4902	0.1263	0.5022	0.402
Mof_O 	O 	0.4911	0.6651	0.0297	-0.429
Mof_O 	O 	0.4857	0.5826	0.0214	-0.287
Mof_C 	C 	0.4965	0.6328	0.9454	-0.062
Mof_H 	H 	0.5271	0.6154	0.9341	0.08
Mof_H 	H 	0.4676	0.618	0.9278	0.074
Mof_C 	C 	0.4902	0.6263	0.0022	0.29
Mof_O 	O 	0.9911	0.1651	0.0297	-0.34
Mof_O 	O 	0.9857	0.0826	0.0214	-0.222
Mof_C 	C 	0.9965	0.1328	0.9454	0.255
Mof_H 	H 	0.0271	0.1154	0.9341	-0.064
Mof_H 	H 	0.9676	0.118	0.9278	-0.004
Mof_C 	C 	0.9902	0.1263	0.0022	0.199
Mof_O 	O 	0.9911	0.6651	0.5297	-0.36
Mof_O 	O 	0.9857	0.5826	0.5214	-0.22
Mof_C 	C 	0.9965	0.6328	0.4454	0.145
Mof_H 	H 	0.0271	0.6154	0.4341	-0.045
Mof_H 	H 	0.9676	0.618	0.4278	0.017
Mof_C 	C 	0.9902	0.6263	0.5022	0.307
Mof_O 	O 	0.2589	0.6651	0.7203	-0.451
Mof_O 	O 	0.2643	0.5826	0.7286	-0.295
Mof_C 	C 	0.2535	0.6328	0.8046	-0.182
Mof_H 	H 	0.2229	0.6154	0.8159	0.102
Mof_H 	H 	0.2824	0.618	0.8222	0.099
Mof_C 	C 	0.2598	0.6263	0.7478	0.402
Mof_O 	O 	0.2589	0.1651	0.2203	-0.454
Mof_O 	O 	0.2643	0.0826	0.2286	-0.304
Mof_C 	C 	0.2535	0.1328	0.3046	-0.18
Mof_H 	H 	0.2229	0.1154	0.3159	0.1
Mof_H 	H 	0.2824	0.118	0.3222	0.095
Mof_C 	C 	0.2598	0.1263	0.2478	0.401
Mof_O 	O 	0.7589	0.6651	0.2203	-0.451
Mof_O 	O 	0.7643	0.5826	0.2286	-0.295
Mof_C 	C 	0.7535	0.6328	0.3046	-0.182
Mof_H 	H 	0.7229	0.6154	0.3159	0.102
Mof_H 	H 	0.7824	0.618	0.3222	0.098
Mof_C 	C 	0.7598	0.6263	0.2478	0.402
Mof_O 	O 	0.7589	0.1651	0.7203	-0.452
Mof_O 	O 	0.7643	0.0826	0.7286	-0.302
Mof_C 	C 	0.7535	0.1328	0.8046	-0.183
Mof_H 	H 	0.7229	0.1154	0.8159	0.103
Mof_H 	H 	0.7824	0.118	0.8222	0.099
Mof_C 	C 	0.7598	0.1263	0.7478	0.403
Mof_O 	O 	0.0849	0.2203	0.9911	-0.35
Mof_O 	O 	0.1674	0.2286	0.9857	-0.221
Mof_C 	C 	0.1172	0.3046	0.9965	0.134
Mof_H 	H 	0.1346	0.3159	0.0271	-0.043
Mof_H 	H 	0.132	0.3222	0.9676	0.022
Mof_C 	C 	0.1237	0.2478	0.9902	0.307
Mof_O 	O 	0.0849	0.7203	0.4911	-0.441
Mof_O 	O 	0.1674	0.7286	0.4857	-0.296
Mof_C 	C 	0.1172	0.8046	0.4965	-0.2
Mof_H 	H 	0.1346	0.8159	0.5271	0.108
Mof_H 	H 	0.132	0.8222	0.4676	0.105
Mof_C 	C 	0.1237	0.7478	0.4902	0.404
Mof_O 	O 	0.5849	0.2203	0.4911	-0.451
Mof_O 	O 	0.6674	0.2286	0.4857	-0.295
Mof_C 	C 	0.6172	0.3046	0.4965	-0.181
Mof_H 	H 	0.6346	0.3159	0.5271	0.101
Mof_H 	H 	0.632	0.3222	0.4676	0.097
Mof_C 	C 	0.6237	0.2478	0.4902	0.401
Mof_O 	O 	0.5849	0.7203	0.9911	-0.361
Mof_O 	O 	0.6674	0.7286	0.9857	-0.222
Mof_C 	C 	0.6172	0.8046	0.9965	0.136
Mof_H 	H 	0.6346	0.8159	0.0271	-0.04
Mof_H 	H 	0.632	0.8222	0.9676	0.021
Mof_C 	C 	0.6237	0.7478	0.9902	0.31
Mof_O 	O 	0.5849	0.0297	0.7589	-0.429
Mof_O 	O 	0.6674	0.0214	0.7643	-0.287
Mof_C 	C 	0.6172	0.9454	0.7535	-0.065
Mof_H 	H 	0.6346	0.9341	0.7229	0.08
Mof_H 	H 	0.632	0.9278	0.7824	0.076
Mof_C 	C 	0.6237	0.0022	0.7598	0.292
Mof_O 	O 	0.5849	0.5297	0.2589	-0.45
Mof_O 	O 	0.6674	0.5214	0.2643	-0.295
Mof_C 	C 	0.6172	0.4454	0.2535	-0.18
Mof_H 	H 	0.6346	0.4341	0.2229	0.101
Mof_H 	H 	0.632	0.4278	0.2824	0.096
Mof_C 	C 	0.6237	0.5022	0.2598	0.401
Mof_O 	O 	0.0849	0.0297	0.2589	-0.42
Mof_O 	O 	0.1674	0.0214	0.2643	-0.289
Mof_C 	C 	0.1172	0.9454	0.2535	-0.077
Mof_H 	H 	0.1346	0.9341	0.2229	0.084
Mof_H 	H 	0.132	0.9278	0.2824	0.08
Mof_C 	C 	0.1237	0.0022	0.2598	0.289
Mof_O 	O 	0.0849	0.5297	0.7589	-0.441
Mof_O 	O 	0.1674	0.5214	0.7643	-0.296
Mof_C 	C 	0.1172	0.4454	0.7535	-0.2
Mof_H 	H 	0.1346	0.4341	0.7229	0.107
Mof_H 	H 	0.132	0.4278	0.7824	0.104
Mof_C 	C 	0.1237	0.5022	0.7598	0.404
Mof_O 	O 	0.6651	0.7203	0.2589	-0.451
Mof_O 	O 	0.5826	0.7286	0.2643	-0.295
Mof_C 	C 	0.6328	0.8046	0.2535	-0.182
Mof_H 	H 	0.6154	0.8159	0.2229	0.102
Mof_H 	H 	0.618	0.8222	0.2824	0.099
Mof_C 	C 	0.6263	0.7478	0.2598	0.402
Mof_O 	O 	0.6651	0.2203	0.7589	-0.451
Mof_O 	O 	0.5826	0.2286	0.7643	-0.295
Mof_C 	C 	0.6328	0.3046	0.7535	-0.182
Mof_H 	H 	0.6154	0.3159	0.7229	0.102
Mof_H 	H 	0.618	0.3222	0.7824	0.098
Mof_C 	C 	0.6263	0.2478	0.7598	0.402
Mof_O 	O 	0.1651	0.7203	0.7589	-0.452
Mof_O 	O 	0.0826	0.7286	0.7643	-0.302
Mof_C 	C 	0.1328	0.8046	0.7535	-0.183
Mof_H 	H 	0.1154	0.8159	0.7229	0.103
Mof_H 	H 	0.118	0.8222	0.7824	0.099
Mof_C 	C 	0.1263	0.7478	0.7598	0.403
Mof_O 	O 	0.1651	0.2203	0.2589	-0.454
Mof_O 	O 	0.0826	0.2286	0.2643	-0.304
Mof_C 	C 	0.1328	0.3046	0.2535	-0.18
Mof_H 	H 	0.1154	0.3159	0.2229	0.1
Mof_H 	H 	0.118	0.3222	0.2824	0.095
Mof_C 	C 	0.1263	0.2478	0.2598	0.401
Mof_O 	O 	0.1651	0.5297	0.4911	-0.452
Mof_O 	O 	0.0826	0.5214	0.4857	-0.302
Mof_C 	C 	0.1328	0.4454	0.4965	-0.18
Mof_H 	H 	0.1154	0.4341	0.5271	0.101
Mof_H 	H 	0.118	0.4278	0.4676	0.095
Mof_C 	C 	0.1263	0.5022	0.4902	0.402
Mof_O 	O 	0.1651	0.0297	0.9911	-0.34
Mof_O 	O 	0.0826	0.0214	0.9857	-0.222
Mof_C 	C 	0.1328	0.9454	0.9965	0.255
Mof_H 	H 	0.1154	0.9341	0.0271	-0.064
Mof_H 	H 	0.118	0.9278	0.9676	-0.004
Mof_C 	C 	0.1263	0.0022	0.9902	0.199
Mof_O 	O 	0.6651	0.5297	0.9911	-0.36
Mof_O 	O 	0.5826	0.5214	0.9857	-0.22
Mof_C 	C 	0.6328	0.4454	0.9965	0.145
Mof_H 	H 	0.6154	0.4341	0.0271	-0.045
Mof_H 	H 	0.618	0.4278	0.9676	0.017
Mof_C 	C 	0.6263	0.5022	0.9902	0.307
Mof_O 	O 	0.6651	0.0297	0.4911	-0.429
Mof_O 	O 	0.5826	0.0214	0.4857	-0.287
Mof_C 	C 	0.6328	0.9454	0.4965	-0.062
Mof_H 	H 	0.6154	0.9341	0.5271	0.08
Mof_H 	H 	0.618	0.9278	0.4676	0.074
Mof_C 	C 	0.6263	0.0022	0.4902	0.29
Mof_O 	O 	0.9911	0.0297	0.6651	-0.34
Mof_O 	O 	0.9857	0.0214	0.5826	-0.214
Mof_C 	C 	0.9965	0.9454	0.6328	0.248
Mof_H 	H 	0.0271	0.9341	0.6154	-0.06
Mof_H 	H 	0.9676	0.9278	0.618	-0.001
Mof_C 	C 	0.9902	0.0022	0.6263	0.202
Mof_O 	O 	0.9911	0.5297	0.1651	-0.361
Mof_O 	O 	0.9857	0.5214	0.0826	-0.228
Mof_C 	C 	0.9965	0.4454	0.1328	0.151
Mof_H 	H 	0.0271	0.4341	0.1154	-0.048
Mof_H 	H 	0.9676	0.4278	0.118	0.015
Mof_C 	C 	0.9902	0.5022	0.1263	0.306
Mof_O 	O 	0.4911	0.0297	0.1651	-0.431
Mof_O 	O 	0.4857	0.0214	0.0826	-0.295
Mof_C 	C 	0.4965	0.9454	0.1328	-0.06
Mof_H 	H 	0.5271	0.9341	0.1154	0.079
Mof_H 	H 	0.4676	0.9278	0.118	0.073
Mof_C 	C 	0.4902	0.0022	0.1263	0.289
Mof_O 	O 	0.4911	0.5297	0.6651	-0.45
Mof_O 	O 	0.4857	0.5214	0.5826	-0.294
Mof_C 	C 	0.4965	0.4454	0.6328	-0.181
Mof_H 	H 	0.5271	0.4341	0.6154	0.101
Mof_H 	H 	0.4676	0.4278	0.618	0.096
Mof_C 	C 	0.4902	0.5022	0.6263	0.401
Mof_O 	O 	0.7589	0.2203	0.1651	-0.453
Mof_O 	O 	0.7643	0.2286	0.0826	-0.303
Mof_C 	C 	0.7535	0.3046	0.1328	-0.181
Mof_H 	H 	0.7229	0.3159	0.1154	0.101
Mof_H 	H 	0.7824	0.3222	0.118	0.097
Mof_C 	C 	0.7598	0.2478	0.1263	0.402
Mof_O 	O 	0.7589	0.7203	0.6651	-0.45
Mof_O 	O 	0.7643	0.7286	0.5826	-0.294
Mof_C 	C 	0.7535	0.8046	0.6328	-0.184
Mof_H 	H 	0.7229	0.8159	0.6154	0.103
Mof_H 	H 	0.7824	0.8222	0.618	0.1
Mof_C 	C 	0.7598	0.7478	0.6263	0.403
Mof_O 	O 	0.2589	0.2203	0.6651	-0.452
Mof_O 	O 	0.2643	0.2286	0.5826	-0.295
Mof_C 	C 	0.2535	0.3046	0.6328	-0.18
Mof_H 	H 	0.2229	0.3159	0.6154	0.101
Mof_H 	H 	0.2824	0.3222	0.618	0.097
Mof_C 	C 	0.2598	0.2478	0.6263	0.401
Mof_O 	O 	0.2589	0.7203	0.1651	-0.453
Mof_O 	O 	0.2643	0.7286	0.0826	-0.303
Mof_C 	C 	0.2535	0.8046	0.1328	-0.182
Mof_H 	H 	0.2229	0.8159	0.1154	0.102
Mof_H 	H 	0.2824	0.8222	0.118	0.098
Mof_C 	C 	0.2598	0.7478	0.1263	0.402
Mof_O 	O 	0.2589	0.5297	0.0849	-0.442
Mof_O 	O 	0.2643	0.5214	0.1674	-0.296
Mof_C 	C 	0.2535	0.4454	0.1172	-0.199
Mof_H 	H 	0.2229	0.4341	0.1346	0.106
Mof_H 	H 	0.2824	0.4278	0.132	0.102
Mof_C 	C 	0.2598	0.5022	0.1237	0.403
Mof_O 	O 	0.2589	0.0297	0.5849	-0.429
Mof_O 	O 	0.2643	0.0214	0.6674	-0.287
Mof_C 	C 	0.2535	0.9454	0.6172	-0.061
Mof_H 	H 	0.2229	0.9341	0.6346	0.079
Mof_H 	H 	0.2824	0.9278	0.632	0.074
Mof_C 	C 	0.2598	0.0022	0.6237	0.289
Mof_O 	O 	0.7589	0.5297	0.5849	-0.45
Mof_O 	O 	0.7643	0.5214	0.6674	-0.294
Mof_C 	C 	0.7535	0.4454	0.6172	-0.182
Mof_H 	H 	0.7229	0.4341	0.6346	0.102
Mof_H 	H 	0.7824	0.4278	0.632	0.098
Mof_C 	C 	0.7598	0.5022	0.6237	0.402
Mof_O 	O 	0.7589	0.0297	0.0849	-0.42
Mof_O 	O 	0.7643	0.0214	0.1674	-0.289
Mof_C 	C 	0.7535	0.9454	0.1172	-0.081
Mof_H 	H 	0.7229	0.9341	0.1346	0.085
Mof_H 	H 	0.7824	0.9278	0.132	0.081
Mof_C 	C 	0.7598	0.0022	0.1237	0.293
Mof_O 	O 	0.4911	0.7203	0.5849	-0.45
Mof_O 	O 	0.4857	0.7286	0.6674	-0.294
Mof_C 	C 	0.4965	0.8046	0.6172	-0.183
Mof_H 	H 	0.5271	0.8159	0.6346	0.103
Mof_H 	H 	0.4676	0.8222	0.632	0.099
Mof_C 	C 	0.4902	0.7478	0.6237	0.402
Mof_O 	O 	0.4911	0.2203	0.0849	-0.442
Mof_O 	O 	0.4857	0.2286	0.1674	-0.297
Mof_C 	C 	0.4965	0.3046	0.1172	-0.199
Mof_H 	H 	0.5271	0.3159	0.1346	0.106
Mof_H 	H 	0.4676	0.3222	0.132	0.103
Mof_C 	C 	0.4902	0.2478	0.1237	0.404
Mof_O 	O 	0.9911	0.7203	0.0849	-0.351
Mof_O 	O 	0.9857	0.7286	0.1674	-0.223
Mof_C 	C 	0.9965	0.8046	0.1172	0.123
Mof_H 	H 	0.0271	0.8159	0.1346	-0.037
Mof_H 	H 	0.9676	0.8222	0.132	0.026
Mof_C 	C 	0.9902	0.7478	0.1237	0.31
Mof_O 	O 	0.9911	0.2203	0.5849	-0.36
Mof_O 	O 	0.9857	0.2286	0.6674	-0.221
Mof_C 	C 	0.9965	0.3046	0.6172	0.147
Mof_H 	H 	0.0271	0.3159	0.6346	-0.045
Mof_H 	H 	0.9676	0.3222	0.632	0.017
Mof_C 	C 	0.9902	0.2478	0.6237	0.306
Mof_O 	O 	0.6651	0.9911	0.0297	-0.34
Mof_O 	O 	0.5826	0.9857	0.0214	-0.214
Mof_C 	C 	0.6328	0.9965	0.9454	0.248
Mof_H 	H 	0.6154	0.0271	0.9341	-0.06
Mof_H 	H 	0.618	0.9676	0.9278	-0.001
Mof_C 	C 	0.6263	0.9902	0.0022	0.202
Mof_O 	O 	0.6651	0.4911	0.5297	-0.45
Mof_O 	O 	0.5826	0.4857	0.5214	-0.294
Mof_C 	C 	0.6328	0.4965	0.4454	-0.181
Mof_H 	H 	0.6154	0.5271	0.4341	0.101
Mof_H 	H 	0.618	0.4676	0.4278	0.096
Mof_C 	C 	0.6263	0.4902	0.5022	0.401
Mof_O 	O 	0.1651	0.9911	0.5297	-0.361
Mof_O 	O 	0.0826	0.9857	0.5214	-0.228
Mof_C 	C 	0.1328	0.9965	0.4454	0.151
Mof_H 	H 	0.1154	0.0271	0.4341	-0.048
Mof_H 	H 	0.118	0.9676	0.4278	0.015
Mof_C 	C 	0.1263	0.9902	0.5022	0.306
Mof_O 	O 	0.1651	0.4911	0.0297	-0.431
Mof_O 	O 	0.0826	0.4857	0.0214	-0.295
Mof_C 	C 	0.1328	0.4965	0.9454	-0.06
Mof_H 	H 	0.1154	0.5271	0.9341	0.079
Mof_H 	H 	0.118	0.4676	0.9278	0.073
Mof_C 	C 	0.1263	0.4902	0.0022	0.289
Mof_O 	O 	0.1651	0.7589	0.2203	-0.453
Mof_O 	O 	0.0826	0.7643	0.2286	-0.303
Mof_C 	C 	0.1328	0.7535	0.3046	-0.181
Mof_H 	H 	0.1154	0.7229	0.3159	0.101
Mof_H 	H 	0.118	0.7824	0.3222	0.097
Mof_C 	C 	0.1263	0.7598	0.2478	0.402
Mof_O 	O 	0.1651	0.2589	0.7203	-0.453
Mof_O 	O 	0.0826	0.2643	0.7286	-0.303
Mof_C 	C 	0.1328	0.2535	0.8046	-0.182
Mof_H 	H 	0.1154	0.2229	0.8159	0.102
Mof_H 	H 	0.118	0.2824	0.8222	0.098
Mof_C 	C 	0.1263	0.2598	0.7478	0.402
Mof_O 	O 	0.6651	0.7589	0.7203	-0.45
Mof_O 	O 	0.5826	0.7643	0.7286	-0.294
Mof_C 	C 	0.6328	0.7535	0.8046	-0.184
Mof_H 	H 	0.6154	0.7229	0.8159	0.103
Mof_H 	H 	0.618	0.7824	0.8222	0.1
Mof_C 	C 	0.6263	0.7598	0.7478	0.403
Mof_O 	O 	0.6651	0.2589	0.2203	-0.452
Mof_O 	O 	0.5826	0.2643	0.2286	-0.295
Mof_C 	C 	0.6328	0.2535	0.3046	-0.18
Mof_H 	H 	0.6154	0.2229	0.3159	0.101
Mof_H 	H 	0.618	0.2824	0.3222	0.097
Mof_C 	C 	0.6263	0.2598	0.2478	0.401
Mof_O 	O 	0.0849	0.2589	0.5297	-0.442
Mof_O 	O 	0.1674	0.2643	0.5214	-0.296
Mof_C 	C 	0.1172	0.2535	0.4454	-0.199
Mof_H 	H 	0.1346	0.2229	0.4341	0.106
Mof_H 	H 	0.132	0.2824	0.4278	0.102
Mof_C 	C 	0.1237	0.2598	0.5022	0.403
Mof_O 	O 	0.0849	0.7589	0.0297	-0.42
Mof_O 	O 	0.1674	0.7643	0.0214	-0.289
Mof_C 	C 	0.1172	0.7535	0.9454	-0.081
Mof_H 	H 	0.1346	0.7229	0.9341	0.085
Mof_H 	H 	0.132	0.7824	0.9278	0.081
Mof_C 	C 	0.1237	0.7598	0.0022	0.293
Mof_O 	O 	0.5849	0.2589	0.0297	-0.429
Mof_O 	O 	0.6674	0.2643	0.0214	-0.287
Mof_C 	C 	0.6172	0.2535	0.9454	-0.061
Mof_H 	H 	0.6346	0.2229	0.9341	0.079
Mof_H 	H 	0.632	0.2824	0.9278	0.074
Mof_C 	C 	0.6237	0.2598	0.0022	0.289
Mof_O 	O 	0.5849	0.7589	0.5297	-0.45
Mof_O 	O 	0.6674	0.7643	0.5214	-0.294
Mof_C 	C 	0.6172	0.7535	0.4454	-0.182
Mof_H 	H 	0.6346	0.7229	0.4341	0.102
Mof_H 	H 	0.632	0.7824	0.4278	0.098
Mof_C 	C 	0.6237	0.7598	0.5022	0.402
Mof_O 	O 	0.5849	0.4911	0.7203	-0.45
Mof_O 	O 	0.6674	0.4857	0.7286	-0.294
Mof_C 	C 	0.6172	0.4965	0.8046	-0.183
Mof_H 	H 	0.6346	0.5271	0.8159	0.103
Mof_H 	H 	0.632	0.4676	0.8222	0.099
Mof_C 	C 	0.6237	0.4902	0.7478	0.402
Mof_O 	O 	0.5849	0.9911	0.2203	-0.36
Mof_O 	O 	0.6674	0.9857	0.2286	-0.221
Mof_C 	C 	0.6172	0.9965	0.3046	0.147
Mof_H 	H 	0.6346	0.0271	0.3159	-0.045
Mof_H 	H 	0.632	0.9676	0.3222	0.017
Mof_C 	C 	0.6237	0.9902	0.2478	0.306
Mof_O 	O 	0.0849	0.4911	0.2203	-0.442
Mof_O 	O 	0.1674	0.4857	0.2286	-0.297
Mof_C 	C 	0.1172	0.4965	0.3046	-0.199
Mof_H 	H 	0.1346	0.5271	0.3159	0.106
Mof_H 	H 	0.132	0.4676	0.3222	0.103
Mof_C 	C 	0.1237	0.4902	0.2478	0.404
Mof_O 	O 	0.0849	0.9911	0.7203	-0.351
Mof_O 	O 	0.1674	0.9857	0.7286	-0.223
Mof_C 	C 	0.1172	0.9965	0.8046	0.123
Mof_H 	H 	0.1346	0.0271	0.8159	-0.037
Mof_H 	H 	0.132	0.9676	0.8222	0.026
Mof_C 	C 	0.1237	0.9902	0.7478	0.31
Mof_O 	O 	0.0297	0.6651	0.9911	-0.34
Mof_O 	O 	0.0214	0.5826	0.9857	-0.214
Mof_C 	C 	0.9454	0.6328	0.9965	0.248
Mof_H 	H 	0.9341	0.6154	0.0271	-0.06
Mof_H 	H 	0.9278	0.618	0.9676	-0.001
Mof_C 	C 	0.0022	0.6263	0.9902	0.202
Mof_O 	O 	0.0297	0.1651	0.4911	-0.431
Mof_O 	O 	0.0214	0.0826	0.4857	-0.295
Mof_C 	C 	0.9454	0.1328	0.4965	-0.06
Mof_H 	H 	0.9341	0.1154	0.5271	0.079
Mof_H 	H 	0.9278	0.118	0.4676	0.073
Mof_C 	C 	0.0022	0.1263	0.4902	0.289
Mof_O 	O 	0.5297	0.6651	0.4911	-0.45
Mof_O 	O 	0.5214	0.5826	0.4857	-0.294
Mof_C 	C 	0.4454	0.6328	0.4965	-0.181
Mof_H 	H 	0.4341	0.6154	0.5271	0.101
Mof_H 	H 	0.4278	0.618	0.4676	0.096
Mof_C 	C 	0.5022	0.6263	0.4902	0.401
Mof_O 	O 	0.5297	0.1651	0.9911	-0.361
Mof_O 	O 	0.5214	0.0826	0.9857	-0.228
Mof_C 	C 	0.4454	0.1328	0.9965	0.151
Mof_H 	H 	0.4341	0.1154	0.0271	-0.048
Mof_H 	H 	0.4278	0.118	0.9676	0.015
Mof_C 	C 	0.5022	0.1263	0.9902	0.306
Mof_O 	O 	0.2203	0.1651	0.7589	-0.453
Mof_O 	O 	0.2286	0.0826	0.7643	-0.303
Mof_C 	C 	0.3046	0.1328	0.7535	-0.181
Mof_H 	H 	0.3159	0.1154	0.7229	0.101
Mof_H 	H 	0.3222	0.118	0.7824	0.097
Mof_C 	C 	0.2478	0.1263	0.7598	0.402
Mof_O 	O 	0.2203	0.6651	0.2589	-0.452
Mof_O 	O 	0.2286	0.5826	0.2643	-0.295
Mof_C 	C 	0.3046	0.6328	0.2535	-0.18
Mof_H 	H 	0.3159	0.6154	0.2229	0.101
Mof_H 	H 	0.3222	0.618	0.2824	0.097
Mof_C 	C 	0.2478	0.6263	0.2598	0.401
Mof_O 	O 	0.7203	0.1651	0.2589	-0.453
Mof_O 	O 	0.7286	0.0826	0.2643	-0.303
Mof_C 	C 	0.8046	0.1328	0.2535	-0.182
Mof_H 	H 	0.8159	0.1154	0.2229	0.102
Mof_H 	H 	0.8222	0.118	0.2824	0.098
Mof_C 	C 	0.7478	0.1263	0.2598	0.402
Mof_O 	O 	0.7203	0.6651	0.7589	-0.45
Mof_O 	O 	0.7286	0.5826	0.7643	-0.294
Mof_C 	C 	0.8046	0.6328	0.7535	-0.184
Mof_H 	H 	0.8159	0.6154	0.7229	0.103
Mof_H 	H 	0.8222	0.618	0.7824	0.1
Mof_C 	C 	0.7478	0.6263	0.7598	0.403
Mof_O 	O 	0.5297	0.0849	0.2589	-0.442
Mof_O 	O 	0.5214	0.1674	0.2643	-0.296
Mof_C 	C 	0.4454	0.1172	0.2535	-0.199
Mof_H 	H 	0.4341	0.1346	0.2229	0.106
Mof_H 	H 	0.4278	0.132	0.2824	0.102
Mof_C 	C 	0.5022	0.1237	0.2598	0.403
Mof_O 	O 	0.5297	0.5849	0.7589	-0.45
Mof_O 	O 	0.5214	0.6674	0.7643	-0.294
Mof_C 	C 	0.4454	0.6172	0.7535	-0.182
Mof_H 	H 	0.4341	0.6346	0.7229	0.102
Mof_H 	H 	0.4278	0.632	0.7824	0.098
Mof_C 	C 	0.5022	0.6237	0.7598	0.402
Mof_O 	O 	0.0297	0.0849	0.7589	-0.42
Mof_O 	O 	0.0214	0.1674	0.7643	-0.289
Mof_C 	C 	0.9454	0.1172	0.7535	-0.081
Mof_H 	H 	0.9341	0.1346	0.7229	0.085
Mof_H 	H 	0.9278	0.132	0.7824	0.081
Mof_C 	C 	0.0022	0.1237	0.7598	0.293
Mof_O 	O 	0.0297	0.5849	0.2589	-0.429
Mof_O 	O 	0.0214	0.6674	0.2643	-0.287
Mof_C 	C 	0.9454	0.6172	0.2535	-0.061
Mof_H 	H 	0.9341	0.6346	0.2229	0.079
Mof_H 	H 	0.9278	0.632	0.2824	0.074
Mof_C 	C 	0.0022	0.6237	0.2598	0.289
Mof_O 	O 	0.7203	0.5849	0.4911	-0.45
Mof_O 	O 	0.7286	0.6674	0.4857	-0.294
Mof_C 	C 	0.8046	0.6172	0.4965	-0.183
Mof_H 	H 	0.8159	0.6346	0.5271	0.103
Mof_H 	H 	0.8222	0.632	0.4676	0.099
Mof_C 	C 	0.7478	0.6237	0.4902	0.402
Mof_O 	O 	0.7203	0.0849	0.9911	-0.351
Mof_O 	O 	0.7286	0.1674	0.9857	-0.223
Mof_C 	C 	0.8046	0.1172	0.9965	0.123
Mof_H 	H 	0.8159	0.1346	0.0271	-0.037
Mof_H 	H 	0.8222	0.132	0.9676	0.026
Mof_C 	C 	0.7478	0.1237	0.9902	0.31
Mof_O 	O 	0.2203	0.5849	0.9911	-0.36
Mof_O 	O 	0.2286	0.6674	0.9857	-0.221
Mof_C 	C 	0.3046	0.6172	0.9965	0.147
Mof_H 	H 	0.3159	0.6346	0.0271	-0.045
Mof_H 	H 	0.3222	0.632	0.9676	0.017
Mof_C 	C 	0.2478	0.6237	0.9902	0.306
Mof_O 	O 	0.2203	0.0849	0.4911	-0.442
Mof_O 	O 	0.2286	0.1674	0.4857	-0.297
Mof_C 	C 	0.3046	0.1172	0.4965	-0.199
Mof_H 	H 	0.3159	0.1346	0.5271	0.106
Mof_H 	H 	0.3222	0.132	0.4676	0.103
Mof_C 	C 	0.2478	0.1237	0.4902	0.404
Mof_O 	O 	0.2797	0.7411	0.3349	-0.448
Mof_O 	O 	0.2714	0.7357	0.4174	-0.293
Mof_C 	C 	0.1954	0.7465	0.3672	-0.181
Mof_H 	H 	0.1841	0.7771	0.3846	0.103
Mof_H 	H 	0.1778	0.7176	0.382	0.097
Mof_C 	C 	0.2522	0.7402	0.3737	0.402
Mof_O 	O 	0.2797	0.2411	0.8349	-0.444
Mof_O 	O 	0.2714	0.2357	0.9174	-0.259
Mof_C 	C 	0.1954	0.2465	0.8672	-0.177
Mof_H 	H 	0.1841	0.2771	0.8846	0.106
Mof_H 	H 	0.1778	0.2176	0.882	0.099
Mof_C 	C 	0.2522	0.2402	0.8737	0.395
Mof_O 	O 	0.7797	0.7411	0.8349	-0.441
Mof_O 	O 	0.7714	0.7357	0.9174	-0.258
Mof_C 	C 	0.6954	0.7465	0.8672	-0.179
Mof_H 	H 	0.6841	0.7771	0.8846	0.108
Mof_H 	H 	0.6778	0.7176	0.882	0.1
Mof_C 	C 	0.7522	0.7402	0.8737	0.396
Mof_O 	O 	0.7797	0.2411	0.3349	-0.447
Mof_O 	O 	0.7714	0.2357	0.4174	-0.292
Mof_C 	C 	0.6954	0.2465	0.3672	-0.18
Mof_H 	H 	0.6841	0.2771	0.3846	0.102
Mof_H 	H 	0.6778	0.2176	0.382	0.096
Mof_C 	C 	0.7522	0.2402	0.3737	0.401
Mof_O 	O 	0.4703	0.5089	0.8349	-0.444
Mof_O 	O 	0.4786	0.5143	0.9174	-0.259
Mof_C 	C 	0.5546	0.5035	0.8672	-0.178
Mof_H 	H 	0.5659	0.4729	0.8846	0.107
Mof_H 	H 	0.5722	0.5324	0.882	0.099
Mof_C 	C 	0.4978	0.5098	0.8737	0.396
Mof_O 	O 	0.4703	0.0089	0.3349	-0.462
Mof_O 	O 	0.4786	0.0143	0.4174	-0.324
Mof_C 	C 	0.5546	0.0035	0.3672	-0.33
Mof_H 	H 	0.5659	0.9729	0.3846	0.207
Mof_H 	H 	0.5722	0.0324	0.382	0.133
Mof_C 	C 	0.4978	0.0098	0.3737	0.433
Mof_O 	O 	0.9703	0.5089	0.3349	-0.416
Mof_O 	O 	0.9786	0.5143	0.4174	-0.272
Mof_C 	C 	0.0546	0.5035	0.3672	-0.31
Mof_H 	H 	0.0659	0.4729	0.3846	0.131
Mof_H 	H 	0.0722	0.5324	0.382	0.127
Mof_C 	C 	0.9978	0.5098	0.3737	0.504
Mof_O 	O 	0.9703	0.0089	0.8349	-0.423
Mof_O 	O 	0.9786	0.0143	0.9174	-0.268
Mof_C 	C 	0.0546	0.0035	0.8672	-0.451
Mof_H 	H 	0.0659	0.9729	0.8846	0.238
Mof_H 	H 	0.0722	0.0324	0.882	0.165
Mof_C 	C 	0.9978	0.0098	0.8737	0.527
Mof_O 	O 	0.7797	0.0089	0.9151	-0.407
Mof_O 	O 	0.7714	0.0143	0.8326	-0.315
Mof_C 	C 	0.6954	0.0035	0.8828	-0.317
Mof_H 	H 	0.6841	0.9729	0.8654	0.203
Mof_H 	H 	0.6778	0.0324	0.868	0.131
Mof_C 	C 	0.7522	0.0098	0.8763	0.42
Mof_O 	O 	0.7797	0.5089	0.4151	-0.447
Mof_O 	O 	0.7714	0.5143	0.3326	-0.292
Mof_C 	C 	0.6954	0.5035	0.3828	-0.18
Mof_H 	H 	0.6841	0.4729	0.3654	0.102
Mof_H 	H 	0.6778	0.5324	0.368	0.096
Mof_C 	C 	0.7522	0.5098	0.3763	0.401
Mof_O 	O 	0.2797	0.0089	0.4151	-0.462
Mof_O 	O 	0.2714	0.0143	0.3326	-0.324
Mof_C 	C 	0.1954	0.0035	0.3828	-0.331
Mof_H 	H 	0.1841	0.9729	0.3654	0.208
Mof_H 	H 	0.1778	0.0324	0.368	0.133
Mof_C 	C 	0.2522	0.0098	0.3763	0.433
Mof_O 	O 	0.2797	0.5089	0.9151	-0.396
Mof_O 	O 	0.2714	0.5143	0.8326	-0.287
Mof_C 	C 	0.1954	0.5035	0.8828	-0.172
Mof_H 	H 	0.1841	0.4729	0.8654	0.102
Mof_H 	H 	0.1778	0.5324	0.868	0.095
Mof_C 	C 	0.2522	0.5098	0.8763	0.39
Mof_O 	O 	0.9703	0.2411	0.4151	-0.416
Mof_O 	O 	0.9786	0.2357	0.3326	-0.272
Mof_C 	C 	0.0546	0.2465	0.3828	-0.31
Mof_H 	H 	0.0659	0.2771	0.3654	0.131
Mof_H 	H 	0.0722	0.2176	0.368	0.127
Mof_C 	C 	0.9978	0.2402	0.3763	0.504
Mof_O 	O 	0.9703	0.7411	0.9151	-0.365
Mof_O 	O 	0.9786	0.7357	0.8326	-0.265
Mof_C 	C 	0.0546	0.7465	0.8828	-0.297
Mof_H 	H 	0.0659	0.7771	0.8654	0.132
Mof_H 	H 	0.0722	0.7176	0.868	0.125
Mof_C 	C 	0.9978	0.7402	0.8763	0.488
Mof_O 	O 	0.4703	0.2411	0.9151	-0.397
Mof_O 	O 	0.4786	0.2357	0.8326	-0.287
Mof_C 	C 	0.5546	0.2465	0.8828	-0.172
Mof_H 	H 	0.5659	0.2771	0.8654	0.102
Mof_H 	H 	0.5722	0.2176	0.868	0.095
Mof_C 	C 	0.4978	0.2402	0.8763	0.389
Mof_O 	O 	0.4703	0.7411	0.4151	-0.449
Mof_O 	O 	0.4786	0.7357	0.3326	-0.293
Mof_C 	C 	0.5546	0.7465	0.3828	-0.181
Mof_H 	H 	0.5659	0.7771	0.3654	0.103
Mof_H 	H 	0.5722	0.7176	0.368	0.097
Mof_C 	C 	0.4978	0.7402	0.3763	0.402
Mof_O 	O 	0.2411	0.4151	0.9703	-0.416
Mof_O 	O 	0.2357	0.3326	0.9786	-0.272
Mof_C 	C 	0.2465	0.3828	0.0546	-0.31
Mof_H 	H 	0.2771	0.3654	0.0659	0.131
Mof_H 	H 	0.2176	0.368	0.0722	0.127
Mof_C 	C 	0.2402	0.3763	0.9978	0.504
Mof_O 	O 	0.2411	0.9151	0.4703	-0.397
Mof_O 	O 	0.2357	0.8326	0.4786	-0.287
Mof_C 	C 	0.2465	0.8828	0.5546	-0.172
Mof_H 	H 	0.2771	0.8654	0.5659	0.102
Mof_H 	H 	0.2176	0.868	0.5722	0.095
Mof_C 	C 	0.2402	0.8763	0.4978	0.389
Mof_O 	O 	0.7411	0.4151	0.4703	-0.449
Mof_O 	O 	0.7357	0.3326	0.4786	-0.293
Mof_C 	C 	0.7465	0.3828	0.5546	-0.181
Mof_H 	H 	0.7771	0.3654	0.5659	0.103
Mof_H 	H 	0.7176	0.368	0.5722	0.097
Mof_C 	C 	0.7402	0.3763	0.4978	0.402
Mof_O 	O 	0.7411	0.9151	0.9703	-0.365
Mof_O 	O 	0.7357	0.8326	0.9786	-0.265
Mof_C 	C 	0.7465	0.8828	0.0546	-0.297
Mof_H 	H 	0.7771	0.8654	0.0659	0.132
Mof_H 	H 	0.7176	0.868	0.0722	0.125
Mof_C 	C 	0.7402	0.8763	0.9978	0.488
Mof_O 	O 	0.0089	0.9151	0.7797	-0.407
Mof_O 	O 	0.0143	0.8326	0.7714	-0.315
Mof_C 	C 	0.0035	0.8828	0.6954	-0.317
Mof_H 	H 	0.9729	0.8654	0.6841	0.203
Mof_H 	H 	0.0324	0.868	0.6778	0.131
Mof_C 	C 	0.0098	0.8763	0.7522	0.42
Mof_O 	O 	0.0089	0.4151	0.2797	-0.462
Mof_O 	O 	0.0143	0.3326	0.2714	-0.324
Mof_C 	C 	0.0035	0.3828	0.1954	-0.331
Mof_H 	H 	0.9729	0.3654	0.1841	0.208
Mof_H 	H 	0.0324	0.368	0.1778	0.133
Mof_C 	C 	0.0098	0.3763	0.2522	0.433
Mof_O 	O 	0.5089	0.9151	0.2797	-0.396
Mof_O 	O 	0.5143	0.8326	0.2714	-0.287
Mof_C 	C 	0.5035	0.8828	0.1954	-0.172
Mof_H 	H 	0.4729	0.8654	0.1841	0.102
Mof_H 	H 	0.5324	0.868	0.1778	0.095
Mof_C 	C 	0.5098	0.8763	0.2522	0.39
Mof_O 	O 	0.5089	0.4151	0.7797	-0.447
Mof_O 	O 	0.5143	0.3326	0.7714	-0.292
Mof_C 	C 	0.5035	0.3828	0.6954	-0.18
Mof_H 	H 	0.4729	0.3654	0.6841	0.102
Mof_H 	H 	0.5324	0.368	0.6778	0.096
Mof_C 	C 	0.5098	0.3763	0.7522	0.401
Mof_O 	O 	0.5089	0.8349	0.4703	-0.444
Mof_O 	O 	0.5143	0.9174	0.4786	-0.259
Mof_C 	C 	0.5035	0.8672	0.5546	-0.178
Mof_H 	H 	0.4729	0.8846	0.5659	0.107
Mof_H 	H 	0.5324	0.882	0.5722	0.099
Mof_C 	C 	0.5098	0.8737	0.4978	0.396
Mof_O 	O 	0.5089	0.3349	0.9703	-0.416
Mof_O 	O 	0.5143	0.4174	0.9786	-0.272
Mof_C 	C 	0.5035	0.3672	0.0546	-0.31
Mof_H 	H 	0.4729	0.3846	0.0659	0.131
Mof_H 	H 	0.5324	0.382	0.0722	0.127
Mof_C 	C 	0.5098	0.3737	0.9978	0.504
Mof_O 	O 	0.0089	0.8349	0.9703	-0.423
Mof_O 	O 	0.0143	0.9174	0.9786	-0.268
Mof_C 	C 	0.0035	0.8672	0.0546	-0.451
Mof_H 	H 	0.9729	0.8846	0.0659	0.238
Mof_H 	H 	0.0324	0.882	0.0722	0.165
Mof_C 	C 	0.0098	0.8737	0.9978	0.527
Mof_O 	O 	0.0089	0.3349	0.4703	-0.462
Mof_O 	O 	0.0143	0.4174	0.4786	-0.324
Mof_C 	C 	0.0035	0.3672	0.5546	-0.33
Mof_H 	H 	0.9729	0.3846	0.5659	0.207
Mof_H 	H 	0.0324	0.382	0.5722	0.133
Mof_C 	C 	0.0098	0.3737	0.4978	0.433
Mof_O 	O 	0.7411	0.3349	0.2797	-0.448
Mof_O 	O 	0.7357	0.4174	0.2714	-0.293
Mof_C 	C 	0.7465	0.3672	0.1954	-0.181
Mof_H 	H 	0.7771	0.3846	0.1841	0.103
Mof_H 	H 	0.7176	0.382	0.1778	0.097
Mof_C 	C 	0.7402	0.3737	0.2522	0.402
Mof_O 	O 	0.7411	0.8349	0.7797	-0.441
Mof_O 	O 	0.7357	0.9174	0.7714	-0.258
Mof_C 	C 	0.7465	0.8672	0.6954	-0.179
Mof_H 	H 	0.7771	0.8846	0.6841	0.108
Mof_H 	H 	0.7176	0.882	0.6778	0.1
Mof_C 	C 	0.7402	0.8737	0.7522	0.396
Mof_O 	O 	0.2411	0.3349	0.7797	-0.447
Mof_O 	O 	0.2357	0.4174	0.7714	-0.292
Mof_C 	C 	0.2465	0.3672	0.6954	-0.18
Mof_H 	H 	0.2771	0.3846	0.6841	0.102
Mof_H 	H 	0.2176	0.382	0.6778	0.096
Mof_C 	C 	0.2402	0.3737	0.7522	0.401
Mof_O 	O 	0.2411	0.8349	0.2797	-0.444
Mof_O 	O 	0.2357	0.9174	0.2714	-0.259
Mof_C 	C 	0.2465	0.8672	0.1954	-0.177
Mof_H 	H 	0.2771	0.8846	0.1841	0.106
Mof_H 	H 	0.2176	0.882	0.1778	0.099
Mof_C 	C 	0.2402	0.8737	0.2522	0.395
Mof_O 	O 	0.9151	0.7797	0.0089	-0.407
Mof_O 	O 	0.8326	0.7714	0.0143	-0.315
Mof_C 	C 	0.8828	0.6954	0.0035	-0.317
Mof_H 	H 	0.8654	0.6841	0.9729	0.203
Mof_H 	H 	0.868	0.6778	0.0324	0.131
Mof_C 	C 	0.8763	0.7522	0.0098	0.42
Mof_O 	O 	0.9151	0.2797	0.5089	-0.396
Mof_O 	O 	0.8326	0.2714	0.5143	-0.287
Mof_C 	C 	0.8828	0.1954	0.5035	-0.172
Mof_H 	H 	0.8654	0.1841	0.4729	0.102
Mof_H 	H 	0.868	0.1778	0.5324	0.095
Mof_C 	C 	0.8763	0.2522	0.5098	0.39
Mof_O 	O 	0.4151	0.7797	0.5089	-0.447
Mof_O 	O 	0.3326	0.7714	0.5143	-0.292
Mof_C 	C 	0.3828	0.6954	0.5035	-0.18
Mof_H 	H 	0.3654	0.6841	0.4729	0.102
Mof_H 	H 	0.368	0.6778	0.5324	0.096
Mof_C 	C 	0.3763	0.7522	0.5098	0.401
Mof_O 	O 	0.4151	0.2797	0.0089	-0.462
Mof_O 	O 	0.3326	0.2714	0.0143	-0.324
Mof_C 	C 	0.3828	0.1954	0.0035	-0.331
Mof_H 	H 	0.3654	0.1841	0.9729	0.208
Mof_H 	H 	0.368	0.1778	0.0324	0.133
Mof_C 	C 	0.3763	0.2522	0.0098	0.433
Mof_O 	O 	0.4151	0.9703	0.2411	-0.416
Mof_O 	O 	0.3326	0.9786	0.2357	-0.272
Mof_C 	C 	0.3828	0.0546	0.2465	-0.31
Mof_H 	H 	0.3654	0.0659	0.2771	0.131
Mof_H 	H 	0.368	0.0722	0.2176	0.127
Mof_C 	C 	0.3763	0.9978	0.2402	0.504
Mof_O 	O 	0.4151	0.4703	0.7411	-0.449
Mof_O 	O 	0.3326	0.4786	0.7357	-0.293
Mof_C 	C 	0.3828	0.5546	0.7465	-0.181
Mof_H 	H 	0.3654	0.5659	0.7771	0.103
Mof_H 	H 	0.368	0.5722	0.7176	0.097
Mof_C 	C 	0.3763	0.4978	0.7402	0.402
Mof_O 	O 	0.9151	0.9703	0.7411	-0.365
Mof_O 	O 	0.8326	0.9786	0.7357	-0.265
Mof_C 	C 	0.8828	0.0546	0.7465	-0.297
Mof_H 	H 	0.8654	0.0659	0.7771	0.132
Mof_H 	H 	0.868	0.0722	0.7176	0.125
Mof_C 	C 	0.8763	0.9978	0.7402	0.488
Mof_O 	O 	0.9151	0.4703	0.2411	-0.397
Mof_O 	O 	0.8326	0.4786	0.2357	-0.287
Mof_C 	C 	0.8828	0.5546	0.2465	-0.172
Mof_H 	H 	0.8654	0.5659	0.2771	0.102
Mof_H 	H 	0.868	0.5722	0.2176	0.095
Mof_C 	C 	0.8763	0.4978	0.2402	0.389
Mof_O 	O 	0.3349	0.2797	0.7411	-0.448
Mof_O 	O 	0.4174	0.2714	0.7357	-0.293
Mof_C 	C 	0.3672	0.1954	0.7465	-0.181
Mof_H 	H 	0.3846	0.1841	0.7771	0.103
Mof_H 	H 	0.382	0.1778	0.7176	0.097
Mof_C 	C 	0.3737	0.2522	0.7402	0.402
Mof_O 	O 	0.3349	0.7797	0.2411	-0.447
Mof_O 	O 	0.4174	0.7714	0.2357	-0.292
Mof_C 	C 	0.3672	0.6954	0.2465	-0.18
Mof_H 	H 	0.3846	0.6841	0.2771	0.102
Mof_H 	H 	0.382	0.6778	0.2176	0.096
Mof_C 	C 	0.3737	0.7522	0.2402	0.401
Mof_O 	O 	0.8349	0.2797	0.2411	-0.444
Mof_O 	O 	0.9174	0.2714	0.2357	-0.259
Mof_C 	C 	0.8672	0.1954	0.2465	-0.177
Mof_H 	H 	0.8846	0.1841	0.2771	0.106
Mof_H 	H 	0.882	0.1778	0.2176	0.099
Mof_C 	C 	0.8737	0.2522	0.2402	0.395
Mof_O 	O 	0.8349	0.7797	0.7411	-0.441
Mof_O 	O 	0.9174	0.7714	0.7357	-0.258
Mof_C 	C 	0.8672	0.6954	0.7465	-0.179
Mof_H 	H 	0.8846	0.6841	0.7771	0.108
Mof_H 	H 	0.882	0.6778	0.7176	0.1
Mof_C 	C 	0.8737	0.7522	0.7402	0.396
Mof_O 	O 	0.8349	0.4703	0.5089	-0.444
Mof_O 	O 	0.9174	0.4786	0.5143	-0.259
Mof_C 	C 	0.8672	0.5546	0.5035	-0.178
Mof_H 	H 	0.8846	0.5659	0.4729	0.107
Mof_H 	H 	0.882	0.5722	0.5324	0.099
Mof_C 	C 	0.8737	0.4978	0.5098	0.396
Mof_O 	O 	0.8349	0.9703	0.0089	-0.423
Mof_O 	O 	0.9174	0.9786	0.0143	-0.268
Mof_C 	C 	0.8672	0.0546	0.0035	-0.451
Mof_H 	H 	0.8846	0.0659	0.9729	0.238
Mof_H 	H 	0.882	0.0722	0.0324	0.165
Mof_C 	C 	0.8737	0.9978	0.0098	0.527
Mof_O 	O 	0.3349	0.4703	0.0089	-0.462
Mof_O 	O 	0.4174	0.4786	0.0143	-0.324
Mof_C 	C 	0.3672	0.5546	0.0035	-0.33
Mof_H 	H 	0.3846	0.5659	0.9729	0.207
Mof_H 	H 	0.382	0.5722	0.0324	0.133
Mof_C 	C 	0.3737	0.4978	0.0098	0.433
Mof_O 	O 	0.3349	0.9703	0.5089	-0.416
Mof_O 	O 	0.4174	0.9786	0.5143	-0.272
Mof_C 	C 	0.3672	0.0546	0.5035	-0.31
Mof_H 	H 	0.3846	0.0659	0.4729	0.131
Mof_H 	H 	0.382	0.0722	0.5324	0.127
Mof_C 	C 	0.3737	0.9978	0.5098	0.504
Mof_Dy	Dy	9.3735e-34	0	0.25	1.796
Mof_Dy	Dy	-1.3931e-32	0.5	0.75	2.015
Mof_Dy	Dy	0.5	0	0.75	2.016
Mof_Dy	Dy	0.5	0.5	0.25	2.224
Mof_Dy	Dy	0.25	0.75	0.75	2.225
Mof_Dy	Dy	0.25	0.25	0.25	2.224
Mof_Dy	Dy	0.75	0.5	-0	2.016
Mof_Dy	Dy	0.75	0	0.5	2.015
Mof_Dy	Dy	0.5	0.25	0.5	2.224
Mof_Dy	Dy	0.5	0.75	-0	2.015
Mof_Dy	Dy	0.25	0	-0	1.796
Mof_Dy	Dy	0.25	0.5	0.5	2.224
Mof_Dy	Dy	0.75	0.25	0.75	2.225
Mof_Dy	Dy	-9.28733e-33	0.75	0.5	2.016
Mof_Dy	Dy	-0	0.25	-0	1.796
Mof_Dy	Dy	0.75	0.75	0.25	2.225
Mof_Dy	Dy	-2.76897e-33	0	0.75	1.805
Mof_Dy	Dy	-1.85316e-33	0.5	0.25	2.011
Mof_Dy	Dy	0.75	0.25	0.25	2.225
Mof_Dy	Dy	0.75	0.75	0.75	2.226
Mof_Dy	Dy	0.25	0.5	-0	2.01
Mof_Dy	Dy	0.25	0	0.5	2.011
Mof_Dy	Dy	0.5	0.75	0.5	2.225
Mof_Dy	Dy	0.5	0.25	-0	2.011
Mof_Dy	Dy	0.75	0	-0	1.805
Mof_Dy	Dy	0.25	0.75	0.25	2.225
Mof_Dy	Dy	-3.70632e-33	0.25	0.5	2.01
Mof_Dy	Dy	0.5	0.5	0.75	2.225
Mof_Dy	Dy	-0	0.75	-0	1.805
Mof_Dy	Dy	0.25	0.25	0.75	2.225
Mof_Dy	Dy	0.5	0	0.25	2.01
Mof_Dy	Dy	0.75	0.5	0.5	2.225
Mof_Cd	Cd	1.8747e-33	0	0.5	0.355
Mof_Cd	Cd	0.5	0.5	0.5	0.525
Mof_Cd	Cd	0.25	0.75	-0	0.44
Mof_Cd	Cd	0.75	0.5	0.75	0.525
Mof_Cd	Cd	0.75	0	0.25	0.44
Mof_Cd	Cd	0.5	0.25	0.25	0.524
Mof_Cd	Cd	2.81205e-33	0.25	0.75	0.44
Mof_Cd	Cd	0.5	0	-0	0.355
Mof_Cd	Cd	0.75	0.75	0.5	0.525
Mof_Cd	Cd	0.25	0.5	0.25	0.524
Mof_Cd	Cd	-0	0.5	-0	0.355
Mof_Cd	Cd	0.5	0.75	0.75	0.525
Mof_Cd	Cd	0.25	0.25	0.5	0.524
Mof_Cd	Cd	0.75	0.25	0.5	0.525
Mof_Cd	Cd	0.75	0.75	-0	0.442
Mof_Cd	Cd	0.25	0.25	-0	0.438
Mof_Cd	Cd	0.5	0.5	-0	0.44
Mof_Cd	Cd	0.25	0	0.25	0.438
Mof_Cd	Cd	2.81205e-33	0.75	0.75	0.442
Mof_Cd	Cd	9.3735e-34	0.25	0.25	0.438
Mof_Cd	Cd	0.5	0	0.5	0.44
Mof_Cd	Cd	0.25	0.5	0.75	0.525
Mof_Cd	Cd	0.75	0	0.75	0.442
Mof_Cd	Cd	0.5	0.75	0.25	0.525
Mof_Cd	Cd	1.8747e-33	0.5	0.5	0.44
Mof_Cd	Cd	-0	0	-0	0.269
Mof_Cd	Cd	0.75	0.25	-0	0.44
Mof_Cd	Cd	3.72786e-33	0.75	0.25	0.44
Mof_Cd	Cd	0.25	0	0.75	0.44
Mof_Cd	Cd	0.25	0.75	0.5	0.525
Mof_Cd	Cd	0.75	0.5	0.25	0.525
Mof_Cd	Cd	0.5	0.25	0.75	0.525
Mof_O 	O 	1.18406e-33	0.0658	0.3158	-0.31
Mof_O 	O 	-2.52226e-33	0.5658	0.8158	-0.34
Mof_O 	O 	0.5	0.0658	0.8158	-0.235
Mof_O 	O 	0.5	0.5658	0.3158	-0.268
Mof_O 	O 	0.25	0.6842	0.8158	-0.268
Mof_O 	O 	0.25	0.1842	0.3158	-0.269
Mof_O 	O 	0.75	0.6842	0.3158	-0.267
Mof_O 	O 	0.75	0.1842	0.8158	-0.267
Mof_O 	O 	0.75	0.5658	0.9342	-0.253
Mof_O 	O 	0.75	0.0658	0.4342	-0.234
Mof_O 	O 	0.25	0.5658	0.4342	-0.268
Mof_O 	O 	0.25	0.0658	0.9342	-0.22
Mof_O 	O 	0.5	0.1842	0.4342	-0.268
Mof_O 	O 	0.5	0.6842	0.9342	-0.254
Mof_O 	O 	1.46647e-32	0.1842	0.9342	-0.325
Mof_O 	O 	-3.95303e-33	0.6842	0.4342	-0.342
Mof_O 	O 	0.3158	0	0.0658	-0.31
Mof_O 	O 	0.3158	0.5	0.5658	-0.268
Mof_O 	O 	0.8158	0	0.5658	-0.34
Mof_O 	O 	0.8158	0.5	0.0658	-0.235
Mof_O 	O 	0.8158	0.25	0.6842	-0.268
Mof_O 	O 	0.8158	0.75	0.1842	-0.267
Mof_O 	O 	0.3158	0.25	0.1842	-0.269
Mof_O 	O 	0.3158	0.75	0.6842	-0.267
Mof_O 	O 	0.9342	0.75	0.5658	-0.253
Mof_O 	O 	0.9342	0.25	0.0658	-0.22
Mof_O 	O 	0.4342	0.75	0.0658	-0.234
Mof_O 	O 	0.4342	0.25	0.5658	-0.268
Mof_O 	O 	0.4342	0.5	0.1842	-0.268
Mof_O 	O 	0.4342	0	0.6842	-0.342
Mof_O 	O 	0.9342	0.5	0.6842	-0.254
Mof_O 	O 	0.9342	1.39525e-33	0.1842	-0.325
Mof_O 	O 	0.0658	0.3158	-0	-0.31
Mof_O 	O 	0.0658	0.8158	0.5	-0.235
Mof_O 	O 	0.5658	0.3158	0.5	-0.268
Mof_O 	O 	0.5658	0.8158	-0	-0.34
Mof_O 	O 	0.6842	0.8158	0.25	-0.268
Mof_O 	O 	0.6842	0.3158	0.75	-0.267
Mof_O 	O 	0.1842	0.8158	0.75	-0.267
Mof_O 	O 	0.1842	0.3158	0.25	-0.269
Mof_O 	O 	0.5658	0.9342	0.75	-0.253
Mof_O 	O 	0.5658	0.4342	0.25	-0.268
Mof_O 	O 	0.0658	0.9342	0.25	-0.22
Mof_O 	O 	0.0658	0.4342	0.75	-0.234
Mof_O 	O 	0.1842	0.4342	0.5	-0.268
Mof_O 	O 	0.1842	0.9342	-0	-0.325
Mof_O 	O 	0.6842	0.4342	-0	-0.342
Mof_O 	O 	0.6842	0.9342	0.5	-0.254
Mof_O 	O 	1.37274e-32	0.9342	0.6842	-0.324
Mof_O 	O 	6.27166e-33	0.4342	0.1842	-0.344
Mof_O 	O 	0.5	0.9342	0.1842	-0.254
Mof_O 	O 	0.5	0.4342	0.6842	-0.268
Mof_O 	O 	0.75	0.3158	0.1842	-0.268
Mof_O 	O 	0.75	0.8158	0.6842	-0.267
Mof_O 	O 	0.25	0.3158	0.6842	-0.268
Mof_O 	O 	0.25	0.8158	0.1842	-0.268
Mof_O 	O 	0.25	0.4342	0.0658	-0.235
Mof_O 	O 	0.25	0.9342	0.5658	-0.254
Mof_O 	O 	0.75	0.4342	0.5658	-0.267
Mof_O 	O 	0.75	0.9342	0.0658	-0.22
Mof_O 	O 	0.5	0.8158	0.5658	-0.267
Mof_O 	O 	0.5	0.3158	0.0658	-0.234
Mof_O 	O 	4.43247e-33	0.8158	0.0658	-0.309
Mof_O 	O 	2.12141e-33	0.3158	0.5658	-0.342
Mof_O 	O 	0.6842	1.1162e-32	0.9342	-0.324
Mof_O 	O 	0.6842	0.5	0.4342	-0.268
Mof_O 	O 	0.1842	0	0.4342	-0.344
Mof_O 	O 	0.1842	0.5	0.9342	-0.254
Mof_O 	O 	0.1842	0.75	0.3158	-0.268
Mof_O 	O 	0.1842	0.25	0.8158	-0.268
Mof_O 	O 	0.6842	0.75	0.8158	-0.267
Mof_O 	O 	0.6842	0.25	0.3158	-0.268
Mof_O 	O 	0.0658	0.25	0.4342	-0.235
Mof_O 	O 	0.0658	0.75	0.9342	-0.22
Mof_O 	O 	0.5658	0.25	0.9342	-0.254
Mof_O 	O 	0.5658	0.75	0.4342	-0.267
Mof_O 	O 	0.5658	0.5	0.8158	-0.267
Mof_O 	O 	0.5658	0	0.3158	-0.342
Mof_O 	O 	0.0658	0.5	0.3158	-0.234
Mof_O 	O 	0.0658	5.58102e-33	0.8158	-0.309
Mof_O 	O 	0.9342	0.6842	-0	-0.324
Mof_O 	O 	0.9342	0.1842	0.5	-0.254
Mof_O 	O 	0.4342	0.6842	0.5	-0.268
Mof_O 	O 	0.4342	0.1842	-0	-0.344
Mof_O 	O 	0.3158	0.1842	0.75	-0.268
Mof_O 	O 	0.3158	0.6842	0.25	-0.268
Mof_O 	O 	0.8158	0.1842	0.25	-0.268
Mof_O 	O 	0.8158	0.6842	0.75	-0.267
Mof_O 	O 	0.4342	0.0658	0.25	-0.235
Mof_O 	O 	0.4342	0.5658	0.75	-0.267
Mof_O 	O 	0.9342	0.0658	0.75	-0.22
Mof_O 	O 	0.9342	0.5658	0.25	-0.254
Mof_O 	O 	0.8158	0.5658	0.5	-0.267
Mof_O 	O 	0.8158	0.0658	-0	-0.309
Mof_O 	O 	0.3158	0.5658	-0	-0.342
Mof_O 	O 	0.3158	0.0658	0.5	-0.234
_end
