data_functionalizedCrystal
_audit_creation_method	'EQeq! by Chris Wilmer'
_symmetry_space_group_name_H-M	'P1'
_symmetry_Int_Tables_number	1
_symmetry_cell_setting	triclinic
loop_
_symmetry_equiv_pos_as_xyz
  x,y,z
_cell_length_a	11.688
_cell_length_b	10.2438
_cell_length_c	18.753
_cell_angle_alpha	90
_cell_angle_beta	127.408
_cell_angle_gamma	90
loop_
_atom_site_label
_atom_site_type_symbol
_atom_site_fract_x
_atom_site_fract_y
_atom_site_fract_z
_atom_site_charge
Mof_Mn	Mn	0.37545	0.08643	0.1298	0.892
Mof_Mn	Mn	0.57461	0.89962	0.31488	1.047
Mof_O 	O 	0.4432	0.2082	0.24617	-0.455
Mof_O 	O 	0.559	0.0774	0.3662	-0.412
Mof_O 	O 	0.59	0.9983	0.2187	-0.456
Mof_O 	O 	0.6772	0.0015	0.1416	-0.453
Mof_O 	O 	0.4568	0.2628	0.1082	-0.476
Mof_O 	O 	0.4785	0.2064	0.0023	-0.412
Mof_O 	O 	0.3452	0.9287	0.198	-0.419
Mof_O 	O 	0.1101	0.9012	0.1274	-0.336
Mof_O 	O 	0.3365	0.972	0.0217	-0.435
Mof_O 	O 	0.1188	0.8968	0.9666	-0.333
Mof_O 	O 	0.1577	0.1614	0.0578	-0.445
Mof_O 	O 	0.2019	0.3739	0.0908	-0.375
Mof_C 	C 	0.5075	0.1851	0.3289	0.352
Mof_C 	C 	0.6924	0.9908	0.2121	0.505
Mof_C 	C 	0.4818	0.2856	0.0522	0.414
Mof_C 	C 	0.2387	0.881	0.1904	0.346
Mof_C 	C 	0.2252	0.9003	0.9678	0.4
Mof_C 	C 	0.1197	0.2801	0.0504	0.277
Mof_C 	C 	0.831	0.985	0.284	-0.07
Mof_C 	C 	0.569	0.4005	0.0624	-0.098
Mof_C 	C 	0.976	0.33	0.991	0.078
Mof_Mn	Mn	0.62455	0.58643	0.3702	0.995
Mof_Mn	Mn	0.42539	0.39962	0.18512	0.993
Mof_O 	O 	0.5568	0.7082	0.25383	-0.455
Mof_O 	O 	0.441	0.5774	0.1338	-0.382
Mof_O 	O 	0.41	0.4983	0.2813	-0.485
Mof_O 	O 	0.3228	0.5015	0.3584	-0.413
Mof_O 	O 	0.5432	0.7628	0.3918	-0.477
Mof_O 	O 	0.5215	0.7064	0.4977	-0.398
Mof_O 	O 	0.6548	0.4287	0.302	-0.447
Mof_O 	O 	0.8899	0.4012	0.3726	-0.333
Mof_O 	O 	0.6635	0.472	0.4783	-0.46
Mof_O 	O 	0.8812	0.3968	0.5334	-0.351
Mof_O 	O 	0.8423	0.6614	0.4422	-0.455
Mof_O 	O 	0.7981	0.8739	0.4092	-0.386
Mof_C 	C 	0.4925	0.6851	0.1711	0.358
Mof_C 	C 	0.3076	0.4908	0.2879	0.456
Mof_C 	C 	0.5182	0.7856	0.4478	0.427
Mof_C 	C 	0.7613	0.381	0.3096	0.347
Mof_C 	C 	0.7748	0.4003	0.5322	0.372
Mof_C 	C 	0.8803	0.7801	0.4496	0.484
Mof_C 	C 	0.169	0.485	0.216	-0.148
Mof_C 	C 	0.431	0.9005	0.4376	-0.055
Mof_C 	C 	0.024	0.83	0.509	-0.116
Mof_Mn	Mn	0.62455	0.91357	0.8702	1.084
Mof_Mn	Mn	0.42539	0.10038	0.68512	0.958
Mof_O 	O 	0.5568	0.7918	0.75383	-0.447
Mof_O 	O 	0.441	0.9226	0.6338	-0.337
Mof_O 	O 	0.41	0.0017	0.7813	-0.49
Mof_O 	O 	0.3228	0.9985	0.8584	-0.296
Mof_O 	O 	0.5432	0.7372	0.8918	-0.47
Mof_O 	O 	0.5215	0.7936	0.9977	-0.341
Mof_O 	O 	0.6548	0.0713	0.802	-0.465
Mof_O 	O 	0.8899	0.0988	0.8726	-0.313
Mof_O 	O 	0.6635	0.028	0.9783	-0.422
Mof_O 	O 	0.8812	0.1032	0.0334	-0.35
Mof_O 	O 	0.8423	0.8386	0.9422	-0.425
Mof_O 	O 	0.7981	0.6261	0.9092	-0.4
Mof_C 	C 	0.4925	0.8149	0.6711	0.362
Mof_C 	C 	0.3076	0.0092	0.7879	0.369
Mof_C 	C 	0.5182	0.7144	0.9478	0.416
Mof_C 	C 	0.7613	0.119	0.8096	0.346
Mof_C 	C 	0.7748	0.0997	0.0322	0.308
Mof_C 	C 	0.8803	0.7199	0.9496	0.535
Mof_C 	C 	0.169	0.015	0.716	-0.148
Mof_C 	C 	0.431	0.5995	0.9376	-0.062
Mof_C 	C 	0.024	0.67	0.009	-0.194
Mof_Mn	Mn	0.37545	0.41357	0.6298	0.985
Mof_Mn	Mn	0.57461	0.60038	0.81488	1.01
Mof_O 	O 	0.4432	0.2918	0.74617	-0.448
Mof_O 	O 	0.559	0.4226	0.8662	-0.366
Mof_O 	O 	0.59	0.5017	0.7187	-0.475
Mof_O 	O 	0.6772	0.4985	0.6416	-0.389
Mof_O 	O 	0.4568	0.2372	0.6082	-0.479
Mof_O 	O 	0.4785	0.2936	0.5023	-0.409
Mof_O 	O 	0.3452	0.5713	0.698	-0.453
Mof_O 	O 	0.1101	0.5988	0.6274	-0.376
Mof_O 	O 	0.3365	0.528	0.5217	-0.464
Mof_O 	O 	0.1188	0.6032	0.4666	-0.394
Mof_O 	O 	0.1577	0.3386	0.5578	-0.458
Mof_O 	O 	0.2019	0.1261	0.5908	-0.394
Mof_C 	C 	0.5075	0.3149	0.8289	0.363
Mof_C 	C 	0.6924	0.5092	0.7121	0.433
Mof_C 	C 	0.4818	0.2144	0.5522	0.42
Mof_C 	C 	0.2387	0.619	0.6904	0.361
Mof_C 	C 	0.2252	0.5997	0.4678	0.365
Mof_C 	C 	0.1197	0.2199	0.5504	0.34
Mof_C 	C 	0.831	0.515	0.784	-0.074
Mof_C 	C 	0.569	0.0995	0.5624	-0.111
Mof_C 	C 	0.976	0.17	0.491	-0.012
Mof_Mn	Mn	0.5	0	-0	0.866
Mof_Mn	Mn	0.5	0.5	0.5	1.033
Mof_Mn	Mn	-0	0	-0	0.765
Mof_Mn	Mn	4.83515e-33	0.5	0.5	0.936
_end
