data_functionalizedCrystal
_audit_creation_method	'EQeq! by Chris Wilmer'
_symmetry_space_group_name_H-M	'P1'
_symmetry_Int_Tables_number	1
_symmetry_cell_setting	triclinic
loop_
_symmetry_equiv_pos_as_xyz
  x,y,z
_cell_length_a	13.4487
_cell_length_b	17.921
_cell_length_c	19.9026
_cell_angle_alpha	90
_cell_angle_beta	90.9833
_cell_angle_gamma	90
loop_
_atom_site_label
_atom_site_type_symbol
_atom_site_fract_x
_atom_site_fract_y
_atom_site_fract_z
_atom_site_charge
Mof_U 	U 	0.34904	0.97817	0.22905	0.045
Mof_U 	U 	0.65281	0.00175	0.27448	0.044
Mof_U 	U 	0.37856	0.73814	0.37729	0.079
Mof_U 	U 	0.62354	0.24835	0.12274	0.084
Mof_U 	U 	0.3478	0.00519	0.50941	0.043
Mof_U 	U 	0.34884	0.00755	0.01181	0.043
Mof_P 	P 	0.143	0.03242	0.11849	0.519
Mof_P 	P 	0.7747	0.07791	0.12828	0.514
Mof_P 	P 	0.8587	0.95831	0.38796	0.504
Mof_P 	P 	0.4938	0.06105	0.12838	0.47
Mof_P 	P 	0.5092	0.92391	0.37924	0.471
Mof_P 	P 	0.227	0.90482	0.37479	0.495
Mof_O 	O 	0.481	0.975	0.4381	-0.125
Mof_F 	F 	0.4601	0.2803	0.1408	-0.338
Mof_O 	O 	0.9617	0.9999	0.3956	-0.263
Mof_O 	O 	0.3781	0.0542	0.1272	-0.119
Mof_O 	O 	0.626	0.9324	0.3801	-0.115
Mof_O 	O 	0.2012	0.985	0.1685	-0.126
Mof_O 	O 	0.5208	0.0191	0.0634	-0.124
Mof_O 	O 	0.8003	0.0031	0.3354	-0.126
Mof_O 	O 	0.2614	0.9721	0.4154	-0.138
Mof_O 	O 	0.1951	0.0376	0.0516	-0.135
Mof_O 	O 	0.5244	0.0167	0.1919	-0.124
Mof_O 	O 	0.4794	0.9576	0.3108	-0.124
Mof_O 	O 	0.0417	0.9888	0.1058	-0.366
Mof_O 	O 	0.2543	0.915	0.3019	-0.134
Mof_O 	O 	0.2644	0.8317	0.4027	-0.138
Mof_O 	O 	0.8786	0.8795	0.3654	-0.128
Mof_O 	O 	0.808	0.962	0.455	-0.133
Mof_O 	O 	0.7489	0.0623	0.2011	-0.132
Mof_O 	O 	0.7434	0.0116	0.085	-0.139
Mof_O 	O 	0.1191	0.1082	0.1469	-0.14
Mof_O 	O 	0.8917	0.0801	0.1239	-0.316
Mof_F 	F 	0.543	0.7062	0.3665	-0.325
Mof_O 	O 	0.5287	0.1398	0.1289	-0.113
Mof_O 	O 	0.4769	0.8458	0.3898	-0.113
Mof_O 	O 	0.7351	0.1518	0.1036	-0.134
Mof_O 	O 	0.1098	0.9052	0.38	-0.278
Mof_H 	H 	0.9886	0.012	0.1059	0.312
Mof_H 	H 	0.0859	0.8463	0.375	0.286
Mof_H 	H 	0.0282	0.9771	0.3869	0.238
Mof_H 	H 	0.9326	0.1265	0.1192	0.298
Mof_U 	U 	0.15096	0.47817	0.27095	0.045
Mof_U 	U 	0.84719	0.50175	0.22552	0.045
Mof_U 	U 	0.12144	0.23814	0.12271	0.079
Mof_U 	U 	0.87646	0.74835	0.37726	0.084
Mof_U 	U 	0.1522	0.50519	0.99059	0.042
Mof_U 	U 	0.15116	0.50755	0.48819	0.043
Mof_P 	P 	0.357	0.53242	0.38151	0.523
Mof_P 	P 	0.7253	0.57791	0.37172	0.514
Mof_P 	P 	0.6413	0.45831	0.11204	0.504
Mof_P 	P 	0.0062	0.56105	0.37162	0.471
Mof_P 	P 	0.9908	0.42391	0.12076	0.468
Mof_P 	P 	0.273	0.40482	0.12521	0.495
Mof_O 	O 	0.019	0.475	0.0619	-0.123
Mof_F 	F 	0.0399	0.7803	0.3592	-0.338
Mof_O 	O 	0.5383	0.4999	0.1044	-0.262
Mof_O 	O 	0.1219	0.5542	0.3728	-0.119
Mof_O 	O 	0.874	0.4324	0.1199	-0.115
Mof_O 	O 	0.2988	0.485	0.3315	-0.128
Mof_O 	O 	0.9792	0.5191	0.4366	-0.124
Mof_O 	O 	0.6997	0.5031	0.1646	-0.126
Mof_O 	O 	0.2386	0.4721	0.0846	-0.137
Mof_O 	O 	0.3049	0.5376	0.4484	-0.135
Mof_O 	O 	0.9756	0.5167	0.3081	-0.124
Mof_O 	O 	0.0206	0.4576	0.1892	-0.123
Mof_O 	O 	0.4583	0.4888	0.3942	-0.373
Mof_O 	O 	0.2457	0.415	0.1981	-0.134
Mof_O 	O 	0.2356	0.3317	0.0973	-0.138
Mof_O 	O 	0.6214	0.3795	0.1346	-0.128
Mof_O 	O 	0.692	0.462	0.045	-0.133
Mof_O 	O 	0.7511	0.5623	0.2989	-0.132
Mof_O 	O 	0.7566	0.5116	0.415	-0.139
Mof_O 	O 	0.3809	0.6082	0.3531	-0.141
Mof_O 	O 	0.6083	0.5801	0.3761	-0.316
Mof_F 	F 	0.957	0.2062	0.1335	-0.326
Mof_O 	O 	0.9713	0.6398	0.3711	-0.113
Mof_O 	O 	0.0231	0.3458	0.1102	-0.112
Mof_O 	O 	0.7649	0.6518	0.3964	-0.134
Mof_O 	O 	0.3902	0.4052	0.12	-0.278
Mof_H 	H 	0.5114	0.512	0.3941	0.317
Mof_H 	H 	0.4141	0.3463	0.125	0.286
Mof_H 	H 	0.4718	0.4771	0.1131	0.237
Mof_H 	H 	0.5674	0.6265	0.3808	0.298
Mof_U 	U 	0.65096	0.02183	0.77095	0.046
Mof_U 	U 	0.34719	0.99825	0.72552	0.045
Mof_U 	U 	0.62144	0.26186	0.62271	0.079
Mof_U 	U 	0.37646	0.75165	0.87726	0.084
Mof_U 	U 	0.6522	0.99481	0.49059	0.043
Mof_U 	U 	0.65116	0.99245	0.98819	0.043
Mof_P 	P 	0.857	0.96758	0.88151	0.519
Mof_P 	P 	0.2253	0.92209	0.87172	0.514
Mof_P 	P 	0.1413	0.04169	0.61204	0.504
Mof_P 	P 	0.5062	0.93895	0.87162	0.47
Mof_P 	P 	0.4908	0.07609	0.62076	0.471
Mof_P 	P 	0.773	0.09518	0.62521	0.495
Mof_O 	O 	0.519	0.025	0.5619	-0.125
Mof_F 	F 	0.5399	0.7197	0.8592	-0.338
Mof_O 	O 	0.0383	0.0001	0.6044	-0.263
Mof_O 	O 	0.6219	0.9458	0.8728	-0.119
Mof_O 	O 	0.374	0.0676	0.6199	-0.115
Mof_O 	O 	0.7988	0.015	0.8315	-0.126
Mof_O 	O 	0.4792	0.9809	0.9366	-0.124
Mof_O 	O 	0.1997	0.9969	0.6646	-0.126
Mof_O 	O 	0.7386	0.0279	0.5846	-0.138
Mof_O 	O 	0.8049	0.9624	0.9484	-0.135
Mof_O 	O 	0.4756	0.9833	0.8081	-0.124
Mof_O 	O 	0.5206	0.0424	0.6892	-0.124
Mof_O 	O 	0.9583	0.0112	0.8942	-0.366
Mof_O 	O 	0.7457	0.085	0.6981	-0.134
Mof_O 	O 	0.7356	0.1683	0.5973	-0.138
Mof_O 	O 	0.1214	0.1205	0.6346	-0.128
Mof_O 	O 	0.192	0.038	0.545	-0.133
Mof_O 	O 	0.2511	0.9377	0.7989	-0.132
Mof_O 	O 	0.2566	0.9884	0.915	-0.139
Mof_O 	O 	0.8809	0.8918	0.8531	-0.14
Mof_O 	O 	0.1083	0.9199	0.8761	-0.316
Mof_F 	F 	0.457	0.2938	0.6335	-0.325
Mof_O 	O 	0.4713	0.8602	0.8711	-0.113
Mof_O 	O 	0.5231	0.1542	0.6102	-0.113
Mof_O 	O 	0.2649	0.8482	0.8964	-0.134
Mof_O 	O 	0.8902	0.0948	0.62	-0.278
Mof_H 	H 	0.0114	0.988	0.8941	0.312
Mof_H 	H 	0.9141	0.1537	0.625	0.286
Mof_H 	H 	0.9718	0.0229	0.6131	0.238
Mof_H 	H 	0.0674	0.8735	0.8808	0.298
Mof_U 	U 	0.84904	0.52183	0.72905	0.045
Mof_U 	U 	0.15281	0.49825	0.77448	0.045
Mof_U 	U 	0.87856	0.76186	0.87729	0.079
Mof_U 	U 	0.12354	0.25165	0.62274	0.084
Mof_U 	U 	0.8478	0.49481	0.00941	0.042
Mof_U 	U 	0.84884	0.49245	0.51181	0.043
Mof_P 	P 	0.643	0.46758	0.61849	0.523
Mof_P 	P 	0.2747	0.42209	0.62828	0.514
Mof_P 	P 	0.3587	0.54169	0.88796	0.504
Mof_P 	P 	0.9938	0.43895	0.62838	0.471
Mof_P 	P 	0.0092	0.57609	0.87924	0.468
Mof_P 	P 	0.727	0.59518	0.87479	0.495
Mof_O 	O 	0.981	0.525	0.9381	-0.123
Mof_F 	F 	0.9601	0.2197	0.6408	-0.338
Mof_O 	O 	0.4617	0.5001	0.8956	-0.262
Mof_O 	O 	0.8781	0.4458	0.6272	-0.119
Mof_O 	O 	0.126	0.5676	0.8801	-0.115
Mof_O 	O 	0.7012	0.515	0.6685	-0.128
Mof_O 	O 	0.0208	0.4809	0.5634	-0.124
Mof_O 	O 	0.3003	0.4969	0.8354	-0.126
Mof_O 	O 	0.7614	0.5279	0.9154	-0.137
Mof_O 	O 	0.6951	0.4624	0.5516	-0.135
Mof_O 	O 	0.0244	0.4833	0.6919	-0.124
Mof_O 	O 	0.9794	0.5424	0.8108	-0.123
Mof_O 	O 	0.5417	0.5112	0.6058	-0.373
Mof_O 	O 	0.7543	0.585	0.8019	-0.134
Mof_O 	O 	0.7644	0.6683	0.9027	-0.138
Mof_O 	O 	0.3786	0.6205	0.8654	-0.128
Mof_O 	O 	0.308	0.538	0.955	-0.133
Mof_O 	O 	0.2489	0.4377	0.7011	-0.132
Mof_O 	O 	0.2434	0.4884	0.585	-0.139
Mof_O 	O 	0.6191	0.3918	0.6469	-0.141
Mof_O 	O 	0.3917	0.4199	0.6239	-0.316
Mof_F 	F 	0.043	0.7938	0.8665	-0.326
Mof_O 	O 	0.0287	0.3602	0.6289	-0.113
Mof_O 	O 	0.9769	0.6542	0.8898	-0.112
Mof_O 	O 	0.2351	0.3482	0.6036	-0.134
Mof_O 	O 	0.6098	0.5948	0.88	-0.278
Mof_H 	H 	0.4886	0.488	0.6059	0.317
Mof_H 	H 	0.5859	0.6537	0.875	0.286
Mof_H 	H 	0.5282	0.5229	0.8869	0.237
Mof_H 	H 	0.4326	0.3735	0.6192	0.298
_end
