# CIF file generated by openbabel 3.1.0, see https://openbabel.org
data_I
_chemical_name_common 'image0'
_cell_length_a 14.836
_cell_length_b 6.6844
_cell_length_c 4.363
_cell_angle_alpha 90
_cell_angle_beta 93.28
_cell_angle_gamma 90
_space_group_name_H-M_alt 'P 1'
_space_group_name_Hall 'P 1'
loop_
    _symmetry_equiv_pos_as_xyz
    x,y,z
loop_
    _atom_site_label
    _atom_site_type_symbol
    _atom_site_fract_x
    _atom_site_fract_y
    _atom_site_fract_z
    _atom_site_occupancy
    O1       O        0.15880    0.18970    0.78520    1.000
    H1       H        0.03430    0.12270    0.22800    1.000
    O2       O        0.65880    0.68970    0.78520    1.000
    H2       H        0.53430    0.62270    0.22800    1.000
    O3       O        0.84120    0.18970    0.21480    1.000
    H3       H        0.96570    0.12270    0.77200    1.000
    O4       O        0.34120    0.68970    0.21480    1.000
    H4       H        0.46570    0.62270    0.77200    1.000
    O5       O        0.84120    0.81030    0.21480    1.000
    H5       H        0.96570    0.87730    0.77200    1.000
    O6       O        0.34120    0.31030    0.21480    1.000
    H6       H        0.46570    0.37730    0.77200    1.000
    O7       O        0.15880    0.81030    0.78520    1.000
    H7       H        0.03430    0.87730    0.22800    1.000
    O8       O        0.65880    0.31030    0.78520    1.000
    H8       H        0.53430    0.37730    0.22800    1.000
    Cu1      Cu       0.25000    0.25000    0.50000    1.000
    Cu2      Cu       0.75000    0.25000    0.50000    1.000
    Cu3      Cu       0.75000    0.75000    0.50000    1.000
    Cu4      Cu       0.25000    0.75000    0.50000    1.000
    P1       P        0.14930    0.00000    0.97170    1.000
    O9       O        0.21740    0.00000    0.25670    1.000
    C1       C        0.03870    0.00000    0.12050    1.000
    P2       P        0.64930    0.50000    0.97170    1.000
    O10      O        0.71740    0.50000    0.25670    1.000
    C2       C        0.53870    0.50000    0.12050    1.000
    P3       P        0.85070    0.00000    0.02830    1.000
    O11      O        0.78260    0.00000    0.74330    1.000
    C3       C        0.96130    0.00000    0.87950    1.000
    P4       P        0.35070    0.50000    0.02830    1.000
    O12      O        0.28260    0.50000    0.74330    1.000
    C4       C        0.46130    0.50000    0.87950    1.000
