data_functionalizedCrystal
_audit_creation_method	'EQeq! by Chris Wilmer'
_symmetry_space_group_name_H-M	'P1'
_symmetry_Int_Tables_number	1
_symmetry_cell_setting	triclinic
loop_
_symmetry_equiv_pos_as_xyz
  x,y,z
_cell_length_a	8.6931
_cell_length_b	14.4394
_cell_length_c	12.6492
_cell_angle_alpha	90
_cell_angle_beta	96.418
_cell_angle_gamma	90
loop_
_atom_site_label
_atom_site_type_symbol
_atom_site_fract_x
_atom_site_fract_y
_atom_site_fract_z
_atom_site_charge
Mof_Zn	Zn	0.14035	0.37305	0.95441	1.249
Mof_Zn	Zn	0.61942	0.4899	0.64352	1.243
Mof_P 	P 	0.88563	0.51266	0.84665	0.582
Mof_P 	P 	0.10577	0.15091	0.95339	0.57
Mof_P 	P 	0.37419	0.46126	0.80659	0.585
Mof_O 	O 	0.8085	0.51334	0.73352	-0.416
Mof_O 	O 	0.1906	0.0843	0.03184	-0.444
Mof_O 	O 	0.4626	0.4317	0.7167	-0.426
Mof_O 	O 	0.9438	0.11301	0.91492	-0.423
Mof_O 	O 	0.9484	0.41763	0.87677	-0.422
Mof_O 	O 	0.7775	0.54981	0.92432	-0.395
Mof_O 	O 	0.0946	0.24755	0.9972	-0.401
Mof_O 	O 	0.2927	0.3807	0.8503	-0.388
Mof_O 	O 	0.0236	0.58382	0.85501	-0.505
Mof_H 	H 	0.0863	0.5682	0.8145	0.336
Mof_O 	O 	0.2008	0.16081	0.85532	-0.453
Mof_H 	H 	0.2109	0.1097	0.8286	0.31
Mof_O 	O 	0.2326	0.5189	0.7463	-0.162
Mof_O 	O 	0.4623	0.5345	0.8822	-0.135
Mof_O 	O 	0.2934	0.5466	0.8007	-0.19
Mof_O 	O 	0.5092	0.4583	0.9069	-0.115
Mof_Zn	Zn	0.35965	0.87305	0.54559	1.249
Mof_Zn	Zn	0.88058	0.9899	0.85648	1.24
Mof_P 	P 	0.61437	0.01266	0.65335	0.583
Mof_P 	P 	0.39423	0.65091	0.54661	0.574
Mof_P 	P 	0.12581	0.96126	0.69341	0.59
Mof_O 	O 	0.6915	0.01334	0.76648	-0.413
Mof_O 	O 	0.3094	0.5843	0.46816	-0.442
Mof_O 	O 	0.0374	0.9317	0.7833	-0.426
Mof_O 	O 	0.5562	0.61301	0.58508	-0.43
Mof_O 	O 	0.5516	0.91763	0.62323	-0.425
Mof_O 	O 	0.7225	0.04981	0.57568	-0.393
Mof_O 	O 	0.4054	0.74755	0.5028	-0.4
Mof_O 	O 	0.2073	0.8807	0.6497	-0.387
Mof_O 	O 	0.4764	0.08382	0.64499	-0.504
Mof_H 	H 	0.4137	0.0682	0.6855	0.336
Mof_O 	O 	0.2992	0.66081	0.64468	-0.453
Mof_H 	H 	0.2891	0.6097	0.6714	0.31
Mof_O 	O 	0.2674	0.0189	0.7537	-0.162
Mof_O 	O 	0.0377	0.0345	0.6178	-0.136
Mof_O 	O 	0.2066	0.0466	0.6993	-0.192
Mof_O 	O 	0.9908	0.9583	0.5931	-0.118
Mof_Zn	Zn	0.85965	0.62695	0.04559	1.248
Mof_Zn	Zn	0.38058	0.5101	0.35648	1.242
Mof_P 	P 	0.11437	0.48734	0.15335	0.582
Mof_P 	P 	0.89423	0.84909	0.04661	0.57
Mof_P 	P 	0.62581	0.53874	0.19341	0.585
Mof_O 	O 	0.1915	0.48666	0.26648	-0.416
Mof_O 	O 	0.8094	0.9157	0.96816	-0.444
Mof_O 	O 	0.5374	0.5683	0.2833	-0.426
Mof_O 	O 	0.0562	0.88699	0.08508	-0.423
Mof_O 	O 	0.0516	0.58237	0.12323	-0.422
Mof_O 	O 	0.2225	0.45019	0.07568	-0.395
Mof_O 	O 	0.9054	0.75245	0.0028	-0.401
Mof_O 	O 	0.7073	0.6193	0.1497	-0.388
Mof_O 	O 	0.9764	0.41618	0.14499	-0.505
Mof_H 	H 	0.9137	0.4318	0.1855	0.336
Mof_O 	O 	0.7992	0.83919	0.14468	-0.453
Mof_H 	H 	0.7891	0.8903	0.1714	0.31
Mof_O 	O 	0.7674	0.4811	0.2537	-0.162
Mof_O 	O 	0.5377	0.4655	0.1178	-0.135
Mof_O 	O 	0.7066	0.4534	0.1993	-0.19
Mof_O 	O 	0.4908	0.5417	0.0931	-0.115
Mof_Zn	Zn	0.64035	0.12695	0.45441	1.249
Mof_Zn	Zn	0.11942	0.0101	0.14352	1.24
Mof_P 	P 	0.38563	0.98734	0.34665	0.583
Mof_P 	P 	0.60577	0.34909	0.45339	0.574
Mof_P 	P 	0.87419	0.03874	0.30659	0.59
Mof_O 	O 	0.3085	0.98666	0.23352	-0.413
Mof_O 	O 	0.6906	0.4157	0.53184	-0.442
Mof_O 	O 	0.9626	0.0683	0.2167	-0.426
Mof_O 	O 	0.4438	0.38699	0.41492	-0.43
Mof_O 	O 	0.4484	0.08237	0.37677	-0.425
Mof_O 	O 	0.2775	0.95019	0.42432	-0.393
Mof_O 	O 	0.5946	0.25245	0.4972	-0.4
Mof_O 	O 	0.7927	0.1193	0.3503	-0.387
Mof_O 	O 	0.5236	0.91618	0.35501	-0.504
Mof_H 	H 	0.5863	0.9318	0.3145	0.336
Mof_O 	O 	0.7008	0.33919	0.35532	-0.453
Mof_H 	H 	0.7109	0.3903	0.3286	0.31
Mof_O 	O 	0.7326	0.9811	0.2463	-0.162
Mof_O 	O 	0.9623	0.9655	0.3822	-0.136
Mof_O 	O 	0.7934	0.9534	0.3007	-0.192
Mof_O 	O 	0.0092	0.0417	0.4069	-0.118
_end
