data_functionalizedCrystal
_audit_creation_method	'EQeq! by Chris Wilmer'
_symmetry_space_group_name_H-M	'P1'
_symmetry_Int_Tables_number	1
_symmetry_cell_setting	triclinic
loop_
_symmetry_equiv_pos_as_xyz
  x,y,z
_cell_length_a	14.552
_cell_length_b	15.639
_cell_length_c	16.764
_cell_angle_alpha	90
_cell_angle_beta	90
_cell_angle_gamma	90
loop_
_atom_site_label
_atom_site_type_symbol
_atom_site_fract_x
_atom_site_fract_y
_atom_site_fract_z
_atom_site_charge
Mof_Zn	Zn	0.65608	0.47633	0.21036	1.209
Mof_Zn	Zn	0.91323	0.97403	0.26238	1.205
Mof_Zn	Zn	0.15608	0.02367	0.78964	1.209
Mof_Zn	Zn	0.41323	0.52597	0.73762	1.207
Mof_H 	H 	0.7348	0.7123	0.3843	0.105
Mof_H 	H 	0.8081	0.7101	0.2332	0.092
Mof_H 	H 	0.549	0.5037	0.9659	0.089
Mof_H 	H 	0.5638	0.3344	0.9276	0.103
Mof_H 	H 	0.7732	0.3161	0.1454	0.031
Mof_H 	H 	0.9019	0.252	0.2178	0.062
Mof_H 	H 	0.8013	0.4415	0.3453	-0.001
Mof_H 	H 	0.9954	0.2994	0.3438	0.094
Mof_H 	H 	0.9577	0.3767	0.3933	0.086
Mof_H 	H 	0.9026	0.3466	0.5222	0.066
Mof_H 	H 	0.8651	0.2498	0.6213	0.06
Mof_H 	H 	0.8627	0.0603	0.4618	0.047
Mof_H 	H 	0.8978	0.1577	0.3606	0.053
Mof_H 	H 	0.8394	0.0237	0.5922	0.071
Mof_H 	H 	0.7796	0.0919	0.637	0.068
Mof_H 	H 	0.9938	0.1481	0.8372	0.026
Mof_H 	H 	0.8533	0.1704	0.7603	0.043
Mof_H 	H 	0.0083	0.0014	0.6474	-0.005
Mof_H 	H 	0.9852	0.8911	0.4299	0.026
Mof_H 	H 	0.1089	0.9525	0.5091	0.064
Mof_H 	H 	0.0759	0.0921	0.3149	0.007
Mof_H 	H 	0.2361	0.0715	0.4759	0.092
Mof_H 	H 	0.2216	0.125	0.3979	0.085
Mof_H 	H 	0.1375	0.1096	0.5959	0.06
Mof_H 	H 	0.0948	0.2242	0.675	0.047
Mof_H 	H 	0.1216	0.381	0.4874	0.053
Mof_H 	H 	0.1604	0.2656	0.4072	0.068
Mof_H 	H 	0.028	0.3762	0.6742	0.064
Mof_H 	H 	0.0653	0.4393	0.609	0.07
Mof_H 	H 	0.2929	0.3922	0.8346	0.023
Mof_H 	H 	0.1428	0.3365	0.7928	0.036
Mof_H 	H 	0.2318	0.4974	0.6295	-0.005
Mof_H 	H 	0.2348	0.7877	0.6157	0.105
Mof_H 	H 	0.3081	0.7899	0.7668	0.093
Mof_H 	H 	0.049	0.9963	0.0341	0.083
Mof_H 	H 	0.0638	0.1656	0.0724	0.108
Mof_H 	H 	0.2732	0.1839	0.8546	0.03
Mof_H 	H 	0.4019	0.248	0.7822	0.062
Mof_H 	H 	0.3013	0.0585	0.6547	-0.002
Mof_H 	H 	0.4954	0.2006	0.6562	0.094
Mof_H 	H 	0.4577	0.1233	0.6067	0.085
Mof_H 	H 	0.4026	0.1534	0.4778	0.066
Mof_H 	H 	0.3651	0.2502	0.3787	0.06
Mof_H 	H 	0.3627	0.4397	0.5382	0.047
Mof_H 	H 	0.3978	0.3423	0.6394	0.053
Mof_H 	H 	0.3394	0.4763	0.4078	0.071
Mof_H 	H 	0.2796	0.4081	0.363	0.068
Mof_H 	H 	0.4938	0.3519	0.1628	0.027
Mof_H 	H 	0.3533	0.3296	0.2397	0.043
Mof_H 	H 	0.5083	0.4986	0.3526	-0.001
Mof_H 	H 	0.4852	0.6089	0.5701	0.029
Mof_H 	H 	0.6089	0.5475	0.4909	0.063
Mof_H 	H 	0.5759	0.4079	0.6851	0.007
Mof_H 	H 	0.7361	0.4285	0.5241	0.092
Mof_H 	H 	0.7216	0.375	0.6021	0.085
Mof_H 	H 	0.6375	0.3904	0.4041	0.06
Mof_H 	H 	0.5948	0.2758	0.325	0.047
Mof_H 	H 	0.6216	0.119	0.5126	0.053
Mof_H 	H 	0.6604	0.2344	0.5928	0.068
Mof_H 	H 	0.528	0.1238	0.3258	0.064
Mof_H 	H 	0.5653	0.0607	0.391	0.07
Mof_H 	H 	0.7929	0.1078	0.1654	0.024
Mof_H 	H 	0.6428	0.1635	0.2072	0.037
Mof_H 	H 	0.7318	0.0026	0.3705	-0.005
Mof_C 	C 	0.7006	0.6086	0.31	0.362
Mof_C 	C 	0.7444	0.6909	0.3332	-0.144
Mof_C 	C 	0.7968	0.7345	0.2829	-0.108
Mof_C 	C 	0.8389	0.8191	0.2995	0.323
Mof_C 	C 	0.6142	0.4271	0.0524	0.336
Mof_C 	C 	0.5661	0.4473	0.975	-0.115
Mof_C 	C 	0.5468	0.3911	0.9198	-0.131
Mof_C 	C 	0.4986	0.4152	0.8453	0.337
Mof_C 	C 	0.7949	0.3335	0.195	0.012
Mof_C 	C 	0.8657	0.2974	0.2349	-0.026
Mof_C 	C 	0.8096	0.402	0.3044	0.088
Mof_C 	C 	0.9406	0.3232	0.3681	-0.154
Mof_C 	C 	0.9066	0.262	0.4318	0.083
Mof_C 	C 	0.8953	0.2891	0.5096	-0.085
Mof_C 	C 	0.8731	0.2308	0.5692	-0.06
Mof_C 	C 	0.8628	0.1455	0.552	0.06
Mof_C 	C 	0.8713	0.1178	0.474	-0.064
Mof_C 	C 	0.8928	0.1763	0.4131	-0.073
Mof_C 	C 	0.8404	0.0803	0.616	-0.119
Mof_C 	C 	0.9789	0.1213	0.7894	0.002
Mof_C 	C 	0.9012	0.1336	0.7473	-0.009
Mof_C 	C 	0.9873	0.0402	0.6852	0.099
Mof_C 	C 	0.019	0.9396	0.4168	0.019
Mof_C 	C 	0.0872	0.9728	0.4605	-0.023
Mof_C 	C 	0.0683	0.0496	0.3532	0.077
Mof_C 	C 	0.1909	0.1027	0.4449	-0.155
Mof_C 	C 	0.1564	0.1763	0.4937	0.088
Mof_C 	C 	0.1347	0.1642	0.574	-0.083
Mof_C 	C 	0.1092	0.2328	0.6216	-0.053
Mof_C 	C 	0.1051	0.3151	0.5887	0.055
Mof_C 	C 	0.1246	0.3265	0.5094	-0.058
Mof_C 	C 	0.1491	0.2572	0.4613	-0.088
Mof_C 	C 	0.081	0.3904	0.6418	-0.119
Mof_C 	C 	0.262	0.4066	0.788	0.003
Mof_C 	C 	0.179	0.3755	0.7651	-0.002
Mof_C 	C 	0.229	0.4645	0.6756	0.098
Mof_C 	C 	0.2006	0.8914	0.69	0.362
Mof_C 	C 	0.2444	0.8091	0.6668	-0.143
Mof_C 	C 	0.2968	0.7655	0.7171	-0.107
Mof_C 	C 	0.3389	0.6809	0.7005	0.323
Mof_C 	C 	0.1142	0.0729	0.9476	0.327
Mof_C 	C 	0.0661	0.0527	0.025	-0.098
Mof_C 	C 	0.0468	0.1089	0.0802	-0.142
Mof_C 	C 	0.9986	0.0848	0.1547	0.343
Mof_C 	C 	0.2949	0.1665	0.805	0.012
Mof_C 	C 	0.3657	0.2026	0.7651	-0.026
Mof_C 	C 	0.3096	0.098	0.6956	0.088
Mof_C 	C 	0.4406	0.1768	0.6319	-0.154
Mof_C 	C 	0.4066	0.238	0.5682	0.083
Mof_C 	C 	0.3953	0.2109	0.4904	-0.085
Mof_C 	C 	0.3731	0.2692	0.4308	-0.06
Mof_C 	C 	0.3628	0.3545	0.448	0.06
Mof_C 	C 	0.3713	0.3822	0.526	-0.064
Mof_C 	C 	0.3928	0.3237	0.5869	-0.073
Mof_C 	C 	0.3404	0.4197	0.384	-0.12
Mof_C 	C 	0.4789	0.3787	0.2106	-0
Mof_C 	C 	0.4012	0.3664	0.2527	-0.007
Mof_C 	C 	0.4873	0.4598	0.3148	0.093
Mof_C 	C 	0.519	0.5604	0.5832	0.015
Mof_C 	C 	0.5872	0.5272	0.5395	-0.023
Mof_C 	C 	0.5683	0.4504	0.6468	0.079
Mof_C 	C 	0.6909	0.3973	0.5551	-0.155
Mof_C 	C 	0.6564	0.3237	0.5063	0.088
Mof_C 	C 	0.6347	0.3358	0.426	-0.083
Mof_C 	C 	0.6092	0.2672	0.3784	-0.053
Mof_C 	C 	0.6051	0.1849	0.4113	0.055
Mof_C 	C 	0.6246	0.1735	0.4906	-0.058
Mof_C 	C 	0.6491	0.2428	0.5387	-0.088
Mof_C 	C 	0.581	0.1096	0.3582	-0.119
Mof_C 	C 	0.762	0.0934	0.212	0.004
Mof_C 	C 	0.679	0.1245	0.2349	-0.002
Mof_C 	C 	0.729	0.0355	0.3244	0.099
Mof_N 	N 	0.76	0.4001	0.2395	-0.269
Mof_N 	N 	0.8733	0.341	0.3052	-0.101
Mof_N 	N 	0.0331	0.0623	0.7497	-0.268
Mof_N 	N 	0.9063	0.081	0.6812	-0.105
Mof_N 	N 	0.0066	0.9885	0.3491	-0.264
Mof_N 	N 	0.1188	0.0429	0.4193	-0.098
Mof_N 	N 	0.2931	0.4632	0.73063	-0.263
Mof_N 	N 	0.1589	0.4124	0.6939	-0.107
Mof_N 	N 	0.26	0.0999	0.7605	-0.27
Mof_N 	N 	0.3733	0.159	0.6948	-0.101
Mof_N 	N 	0.5331	0.4377	0.2503	-0.264
Mof_N 	N 	0.4063	0.419	0.3188	-0.104
Mof_N 	N 	0.5066	0.5115	0.6509	-0.265
Mof_N 	N 	0.6188	0.4571	0.5807	-0.098
Mof_N 	N 	0.7931	0.0368	0.26937	-0.262
Mof_N 	N 	0.6589	0.0876	0.3061	-0.107
Mof_O 	O 	0.6964	0.59167	0.23663	-0.47
Mof_O 	O 	0.675	0.5584	0.3623	-0.333
Mof_O 	O 	0.8778	0.85459	0.2395	-0.45
Mof_O 	O 	0.8321	0.85418	0.36623	-0.315
Mof_O 	O 	0.6271	0.4924	0.09722	-0.459
Mof_O 	O 	0.6347	0.3528	0.0706	-0.302
Mof_O 	O 	0.4653	0.4919	0.84172	-0.451
Mof_O 	O 	0.4937	0.36209	0.7913	-0.32
Mof_O 	O 	0.1964	0.90833	0.76337	-0.468
Mof_O 	O 	0.175	0.9416	0.6377	-0.331
Mof_O 	O 	0.3778	0.64541	0.7605	-0.449
Mof_O 	O 	0.3321	0.64582	0.63377	-0.315
Mof_O 	O 	0.1271	0.0076	0.90278	-0.46
Mof_O 	O 	0.1347	0.1472	0.9294	-0.302
Mof_O 	O 	0.9653	0.0081	0.15828	-0.449
Mof_O 	O 	0.9937	0.13791	0.2087	-0.321
Mof_Zn	Zn	0.84392	0.52367	0.71036	1.21
Mof_Zn	Zn	0.58677	0.02597	0.76238	1.207
Mof_Zn	Zn	0.34392	0.97633	0.28964	1.21
Mof_Zn	Zn	0.08677	0.47403	0.23762	1.207
Mof_H 	H 	0.7652	0.2877	0.8843	0.105
Mof_H 	H 	0.6919	0.2899	0.7332	0.093
Mof_H 	H 	0.951	0.4963	0.4659	0.089
Mof_H 	H 	0.9362	0.6656	0.4276	0.104
Mof_H 	H 	0.7268	0.6839	0.6454	0.03
Mof_H 	H 	0.5981	0.748	0.7178	0.062
Mof_H 	H 	0.6987	0.5585	0.8453	-0.001
Mof_H 	H 	0.5046	0.7006	0.8438	0.095
Mof_H 	H 	0.5423	0.6233	0.8933	0.087
Mof_H 	H 	0.5974	0.6534	0.0222	0.069
Mof_H 	H 	0.6349	0.7502	0.1213	0.057
Mof_H 	H 	0.6373	0.9397	0.9618	0.045
Mof_H 	H 	0.6022	0.8423	0.8606	0.055
Mof_H 	H 	0.6606	0.9763	0.0922	0.068
Mof_H 	H 	0.7204	0.9081	0.137	0.066
Mof_H 	H 	0.5062	0.8519	0.3372	0.027
Mof_H 	H 	0.6467	0.8296	0.2603	0.042
Mof_H 	H 	0.4917	0.9986	0.1474	-0.002
Mof_H 	H 	0.5148	0.1089	0.9299	0.025
Mof_H 	H 	0.3911	0.0475	0.0091	0.073
Mof_H 	H 	0.4241	0.9079	0.8149	0.006
Mof_H 	H 	0.2639	0.9285	0.9759	0.095
Mof_H 	H 	0.2784	0.875	0.8979	0.087
Mof_H 	H 	0.3625	0.8904	0.0959	0.061
Mof_H 	H 	0.4052	0.7758	0.175	0.046
Mof_H 	H 	0.3784	0.619	0.9874	0.054
Mof_H 	H 	0.3396	0.7344	0.9072	0.068
Mof_H 	H 	0.472	0.6238	0.1742	0.064
Mof_H 	H 	0.4347	0.5607	0.109	0.07
Mof_H 	H 	0.2071	0.6078	0.3346	0.023
Mof_H 	H 	0.3572	0.6635	0.2928	0.037
Mof_H 	H 	0.2682	0.5026	0.1295	-0.005
Mof_H 	H 	0.2652	0.2123	0.1157	0.106
Mof_H 	H 	0.1919	0.2101	0.2668	0.092
Mof_H 	H 	0.451	0.0037	0.5341	0.087
Mof_H 	H 	0.4362	0.8344	0.5724	0.105
Mof_H 	H 	0.2268	0.8161	0.3546	0.03
Mof_H 	H 	0.0981	0.752	0.2822	0.062
Mof_H 	H 	0.1987	0.9415	0.1547	-0.002
Mof_H 	H 	0.0046	0.7994	0.1562	0.094
Mof_H 	H 	0.0423	0.8767	0.1067	0.085
Mof_H 	H 	0.0974	0.8466	0.9778	0.066
Mof_H 	H 	0.1349	0.7498	0.8787	0.061
Mof_H 	H 	0.1373	0.5603	0.0382	0.048
Mof_H 	H 	0.1022	0.6577	0.1394	0.052
Mof_H 	H 	0.1606	0.5237	0.9078	0.071
Mof_H 	H 	0.2204	0.5919	0.863	0.069
Mof_H 	H 	0.0062	0.6481	0.6628	0.027
Mof_H 	H 	0.1467	0.6704	0.7397	0.043
Mof_H 	H 	0.9917	0.5014	0.8526	-0.002
Mof_H 	H 	0.0148	0.3911	0.0701	0.029
Mof_H 	H 	0.8911	0.4525	0.9909	0.062
Mof_H 	H 	0.9241	0.5921	0.1851	0.007
Mof_H 	H 	0.7639	0.5715	0.0241	0.093
Mof_H 	H 	0.7784	0.625	0.1021	0.086
Mof_H 	H 	0.8625	0.6096	0.9041	0.062
Mof_H 	H 	0.9052	0.7242	0.825	0.045
Mof_H 	H 	0.8784	0.881	0.0126	0.046
Mof_H 	H 	0.8396	0.7656	0.0928	0.072
Mof_H 	H 	0.972	0.8762	0.8258	0.063
Mof_H 	H 	0.9347	0.9393	0.891	0.069
Mof_H 	H 	0.7071	0.8922	0.6654	0.023
Mof_H 	H 	0.8572	0.8365	0.7072	0.037
Mof_H 	H 	0.7682	0.9974	0.8705	-0.005
Mof_C 	C 	0.7994	0.3914	0.81	0.362
Mof_C 	C 	0.7556	0.3091	0.8332	-0.143
Mof_C 	C 	0.7032	0.2655	0.7829	-0.108
Mof_C 	C 	0.6611	0.1809	0.7995	0.323
Mof_C 	C 	0.8858	0.5729	0.5524	0.334
Mof_C 	C 	0.9339	0.5527	0.475	-0.111
Mof_C 	C 	0.9532	0.6089	0.4198	-0.133
Mof_C 	C 	0.0014	0.5848	0.3453	0.338
Mof_C 	C 	0.7051	0.6665	0.695	0.012
Mof_C 	C 	0.6343	0.7026	0.7349	-0.026
Mof_C 	C 	0.6904	0.598	0.8044	0.088
Mof_C 	C 	0.5594	0.6768	0.8681	-0.157
Mof_C 	C 	0.5934	0.738	0.9318	0.089
Mof_C 	C 	0.6047	0.7109	0.0096	-0.093
Mof_C 	C 	0.6269	0.7692	0.0692	-0.053
Mof_C 	C 	0.6372	0.8545	0.052	0.052
Mof_C 	C 	0.6287	0.8822	0.974	-0.056
Mof_C 	C 	0.6072	0.8237	0.9131	-0.079
Mof_C 	C 	0.6596	0.9197	0.116	-0.115
Mof_C 	C 	0.5211	0.8787	0.2894	-0.001
Mof_C 	C 	0.5988	0.8664	0.2473	-0.008
Mof_C 	C 	0.5127	0.9598	0.1852	0.093
Mof_C 	C 	0.481	0.0604	0.9168	0.023
Mof_C 	C 	0.4128	0.0272	0.9605	-0.041
Mof_C 	C 	0.4317	0.9504	0.8532	0.083
Mof_C 	C 	0.3091	0.8973	0.9449	-0.158
Mof_C 	C 	0.3436	0.8237	0.9937	0.092
Mof_C 	C 	0.3653	0.8358	0.074	-0.087
Mof_C 	C 	0.3908	0.7672	0.1216	-0.051
Mof_C 	C 	0.3949	0.6849	0.0887	0.055
Mof_C 	C 	0.3754	0.6735	0.0094	-0.06
Mof_C 	C 	0.3509	0.7428	0.9613	-0.088
Mof_C 	C 	0.419	0.6096	0.1418	-0.119
Mof_C 	C 	0.238	0.5934	0.288	0.003
Mof_C 	C 	0.321	0.6245	0.2651	-0.002
Mof_C 	C 	0.271	0.5355	0.1756	0.098
Mof_C 	C 	0.2994	0.1086	0.19	0.362
Mof_C 	C 	0.2556	0.1909	0.1668	-0.144
Mof_C 	C 	0.2032	0.2345	0.2171	-0.107
Mof_C 	C 	0.1611	0.3191	0.2005	0.323
Mof_C 	C 	0.3858	0.9271	0.4476	0.334
Mof_C 	C 	0.4339	0.9473	0.525	-0.109
Mof_C 	C 	0.4532	0.8911	0.5802	-0.133
Mof_C 	C 	0.5014	0.9152	0.6547	0.338
Mof_C 	C 	0.2051	0.8335	0.305	0.012
Mof_C 	C 	0.1343	0.7974	0.2651	-0.026
Mof_C 	C 	0.1904	0.902	0.1956	0.088
Mof_C 	C 	0.0594	0.8232	0.1319	-0.152
Mof_C 	C 	0.0934	0.762	0.0682	0.078
Mof_C 	C 	0.1047	0.7891	0.9904	-0.08
Mof_C 	C 	0.1269	0.7308	0.9308	-0.063
Mof_C 	C 	0.1372	0.6455	0.948	0.063
Mof_C 	C 	0.1287	0.6178	0.026	-0.068
Mof_C 	C 	0.1072	0.6763	0.0869	-0.07
Mof_C 	C 	0.1596	0.5803	0.884	-0.121
Mof_C 	C 	0.0211	0.6213	0.7106	0
Mof_C 	C 	0.0988	0.6336	0.7527	-0.008
Mof_C 	C 	0.0127	0.5402	0.8148	0.094
Mof_C 	C 	0.981	0.4396	0.0832	0.015
Mof_C 	C 	0.9128	0.4728	0.0395	-0.021
Mof_C 	C 	0.9317	0.5496	0.1468	0.078
Mof_C 	C 	0.8091	0.6027	0.0551	-0.157
Mof_C 	C 	0.8436	0.6763	0.0063	0.092
Mof_C 	C 	0.8653	0.6642	0.926	-0.087
Mof_C 	C 	0.8908	0.7328	0.8784	-0.048
Mof_C 	C 	0.8949	0.8151	0.9113	0.049
Mof_C 	C 	0.8754	0.8265	0.9906	-0.045
Mof_C 	C 	0.8509	0.7572	0.0387	-0.098
Mof_C 	C 	0.919	0.8904	0.8582	-0.115
Mof_C 	C 	0.738	0.9066	0.712	0.003
Mof_C 	C 	0.821	0.8755	0.7349	-0.002
Mof_C 	C 	0.771	0.9645	0.8244	0.099
Mof_N 	N 	0.74	0.5999	0.7395	-0.269
Mof_N 	N 	0.6267	0.659	0.8052	-0.101
Mof_N 	N 	0.4669	0.9377	0.2497	-0.265
Mof_N 	N 	0.5937	0.919	0.1812	-0.105
Mof_N 	N 	0.4934	0.0115	0.8491	-0.268
Mof_N 	N 	0.3812	0.9571	0.9193	-0.093
Mof_N 	N 	0.2069	0.5368	0.23063	-0.263
Mof_N 	N 	0.3411	0.5876	0.1939	-0.107
Mof_N 	N 	0.24	0.9001	0.2605	-0.27
Mof_N 	N 	0.1267	0.841	0.1948	-0.101
Mof_N 	N 	0.9669	0.5623	0.7503	-0.265
Mof_N 	N 	0.0937	0.581	0.8188	-0.104
Mof_N 	N 	0.9934	0.4885	0.1509	-0.265
Mof_N 	N 	0.8812	0.5429	0.0807	-0.098
Mof_N 	N 	0.7069	0.9632	0.76937	-0.263
Mof_N 	N 	0.8411	0.9124	0.8061	-0.107
Mof_O 	O 	0.8036	0.40833	0.73663	-0.47
Mof_O 	O 	0.825	0.4416	0.8623	-0.333
Mof_O 	O 	0.6222	0.14541	0.7395	-0.449
Mof_O 	O 	0.6679	0.14582	0.86623	-0.316
Mof_O 	O 	0.8729	0.5076	0.59722	-0.459
Mof_O 	O 	0.8653	0.6472	0.5706	-0.303
Mof_O 	O 	0.0347	0.5081	0.34172	-0.451
Mof_O 	O 	0.0063	0.63791	0.2913	-0.32
Mof_O 	O 	0.3036	0.09167	0.26337	-0.47
Mof_O 	O 	0.325	0.0584	0.1377	-0.332
Mof_O 	O 	0.1222	0.35459	0.2605	-0.449
Mof_O 	O 	0.1679	0.35418	0.13377	-0.315
Mof_O 	O 	0.3729	0.9924	0.40278	-0.458
Mof_O 	O 	0.3653	0.8528	0.4294	-0.302
Mof_O 	O 	0.5347	0.9919	0.65828	-0.45
Mof_O 	O 	0.5063	0.86209	0.7087	-0.32
_end
