data_functionalizedCrystal
_audit_creation_method	'EQeq! by Chris Wilmer'
_symmetry_space_group_name_H-M	'P1'
_symmetry_Int_Tables_number	1
_symmetry_cell_setting	triclinic
loop_
_symmetry_equiv_pos_as_xyz
  x,y,z
_cell_length_a	30.685
_cell_length_b	15.5835
_cell_length_c	22.0529
_cell_angle_alpha	90
_cell_angle_beta	132.984
_cell_angle_gamma	90
loop_
_atom_site_label
_atom_site_type_symbol
_atom_site_fract_x
_atom_site_fract_y
_atom_site_fract_z
_atom_site_charge
Mof_W 	W 	0.05303	0.13553	0.44942	0.911
Mof_W 	W 	0.92419	0.02375	0.29015	1.266
Mof_W 	W 	0.12807	0.02384	0.40901	1.3
Mof_W 	W 	0.92342	0.24729	0.29039	1.379
Mof_W 	W 	0.13024	0.24694	0.40873	1.327
Mof_Ce	Ce	0.88972	0.64227	0.32851	2.034
Mof_Ce	Ce	0.83092	0.62693	0.98638	1.786
Mof_N 	N 	0.842	0.5032	0.2453	-0.202
Mof_N 	N 	0.1323	0.7666	0.5343	-0.2
Mof_C 	C 	0.174	0.8237	0.5977	-0.134
Mof_C 	C 	0.7641	0.3782	0.1351	-0.132
Mof_H 	H 	0.7372	0.3363	0.0973	0.027
Mof_C 	C 	0.032	0.711	0.4231	0.111
Mof_C 	C 	0.8298	0.492	0.176	-0.126
Mof_C 	C 	0.7896	0.4268	0.1169	0.039
Mof_H 	H 	0.7817	0.4189	0.0684	-0.041
Mof_C 	C 	0.0745	0.7831	0.4873	-0.084
Mof_C 	C 	0.2385	0.7982	0.6464	0.47
Mof_C 	C 	0.838	0.4628	0.3468	0.411
Mof_C 	C 	0.8588	0.556	0.1632	0.456
Mof_C 	C 	0.0559	0.8548	0.4986	0.003
Mof_H 	H 	0.0155	0.8649	0.4658	-0.12
Mof_C 	C 	0.7755	0.3867	0.2056	0.023
Mof_H 	H 	0.7556	0.354	0.2156	-0.025
Mof_C 	C 	0.0976	0.9134	0.5594	-0.106
Mof_H 	H 	0.0849	0.9631	0.5667	-0.014
Mof_C 	C 	0.8192	0.448	0.264	-0.115
Mof_C 	C 	0.1571	0.8986	0.6085	0.016
Mof_H 	H 	0.1853	0.9384	0.6481	-0.006
Mof_O 	O 	0.2778	0.8449	0.7047	-0.546
Mof_O 	O 	0.2455	0.7331	0.6245	-0.608
Mof_O 	O 	0.9793	0.7206	0.3819	-0.385
Mof_O 	O 	0.0574	0.6494	0.4218	-0.724
Mof_O 	O 	0.8508	0.5476	0.101	-0.627
Mof_O 	O 	0.8885	0.6155	0.2162	-0.713
Mof_O 	O 	0.8243	0.4058	0.3719	-0.547
Mof_O 	O 	0.8656	0.5317	0.3832	-0.578
Mof_O 	O 	0.1341	0.256	0.3261	-0.49
Mof_O 	O 	0.1028	0.0544	0.4628	-0.482
Mof_O 	O 	0.1601	0.1386	0.4311	-0.491
Mof_O 	O 	0.9947	0.0516	0.401	-0.302
Mof_O 	O 	0.968	0.9349	0.2954	-0.36
Mof_O 	O 	0.1026	0.2164	0.46	-0.506
Mof_O 	O 	0.9959	0.2232	0.3994	-0.333
Mof_O 	O 	0.8953	0.1417	0.2806	-0.503
Mof_O 	O 	0.9637	0.066	0.229	-1.238
Mof_O 	O 	0.9506	0.136	0.1668	-1.195
Mof_O 	O 	0.9859	0.141	0.298	-1.06
Mof_O 	O 	0.1314	0.015	0.326	-0.508
Mof_O 	O 	0.034	0.338	0.2063	-0.57
Mof_O 	O 	0.077	0.341	0.3585	-0.543
Mof_O 	O 	0.0738	0.928	0.3547	-0.542
Mof_O 	O 	0.0361	0.205	0.269	-1.353
Mof_W 	W 	0.55303	0.63553	0.44942	1.484
Mof_W 	W 	0.42419	0.52375	0.29015	1.423
Mof_W 	W 	0.62807	0.52384	0.40901	1.47
Mof_W 	W 	0.42342	0.74729	0.29039	1.553
Mof_W 	W 	0.63024	0.74694	0.40873	1.497
Mof_Ce	Ce	0.38972	0.14227	0.32851	1.837
Mof_Ce	Ce	0.33092	0.12693	0.98638	1.664
Mof_N 	N 	0.342	0.0032	0.2453	-0.202
Mof_N 	N 	0.6323	0.2666	0.5343	-0.192
Mof_C 	C 	0.674	0.3237	0.5977	-0.144
Mof_C 	C 	0.2641	0.8782	0.1351	-0.138
Mof_H 	H 	0.2372	0.8363	0.0973	0.037
Mof_C 	C 	0.532	0.211	0.4231	0.453
Mof_C 	C 	0.3298	0.992	0.176	-0.139
Mof_C 	C 	0.2896	0.9268	0.1169	0.045
Mof_H 	H 	0.2817	0.9189	0.0684	-0.042
Mof_C 	C 	0.5745	0.2831	0.4873	-0.144
Mof_C 	C 	0.7385	0.2982	0.6464	0.476
Mof_C 	C 	0.338	0.9628	0.3468	0.4
Mof_C 	C 	0.3588	0.056	0.1632	0.444
Mof_C 	C 	0.5559	0.3548	0.4986	0.059
Mof_H 	H 	0.5155	0.3649	0.4658	-0.047
Mof_C 	C 	0.2755	0.8867	0.2056	0.026
Mof_H 	H 	0.2556	0.854	0.2156	-0.023
Mof_C 	C 	0.5976	0.4134	0.5594	-0.121
Mof_H 	H 	0.5849	0.4631	0.5667	0.009
Mof_C 	C 	0.3192	0.948	0.264	-0.123
Mof_C 	C 	0.6571	0.3986	0.6085	0.028
Mof_H 	H 	0.6853	0.4384	0.6481	-0.017
Mof_O 	O 	0.7778	0.3449	0.7047	-0.565
Mof_O 	O 	0.7455	0.2331	0.6245	-0.608
Mof_O 	O 	0.4793	0.2206	0.3819	-0.708
Mof_O 	O 	0.5574	0.1494	0.4218	-0.84
Mof_O 	O 	0.3508	0.0476	0.101	-0.677
Mof_O 	O 	0.3885	0.1155	0.2162	-0.821
Mof_O 	O 	0.3243	0.9058	0.3719	-0.538
Mof_O 	O 	0.3656	0.0317	0.3832	-0.597
Mof_O 	O 	0.6341	0.756	0.3261	-0.51
Mof_O 	O 	0.6028	0.5544	0.4628	-0.526
Mof_O 	O 	0.6601	0.6386	0.4311	-0.516
Mof_O 	O 	0.4947	0.5516	0.401	-0.519
Mof_O 	O 	0.468	0.4349	0.2954	-0.578
Mof_O 	O 	0.6026	0.7164	0.46	-0.535
Mof_O 	O 	0.4959	0.7232	0.3994	-0.54
Mof_O 	O 	0.3953	0.6417	0.2806	-0.522
Mof_O 	O 	0.4637	0.566	0.229	-1.888
Mof_O 	O 	0.4506	0.636	0.1668	-1.823
Mof_O 	O 	0.4859	0.641	0.298	-1.686
Mof_O 	O 	0.6314	0.515	0.326	-0.531
Mof_O 	O 	0.534	0.838	0.2063	-0.592
Mof_O 	O 	0.577	0.841	0.3585	-0.58
Mof_O 	O 	0.5738	0.428	0.3547	-0.594
Mof_O 	O 	0.5361	0.705	0.269	-1.84
Mof_W 	W 	0.94697	0.13553	0.05058	1.791
Mof_W 	W 	0.07581	0.02375	0.20985	1.285
Mof_W 	W 	0.87193	0.02384	0.09099	1.333
Mof_W 	W 	0.07658	0.24729	0.20961	1.407
Mof_W 	W 	0.86976	0.24694	0.09127	1.365
Mof_Ce	Ce	0.11028	0.64227	0.17149	1.78
Mof_Ce	Ce	0.16908	0.62693	0.51362	1.718
Mof_N 	N 	0.158	0.5032	0.2547	-0.199
Mof_N 	N 	0.8677	0.7666	0.9657	-0.191
Mof_C 	C 	0.826	0.8237	0.9023	-0.156
Mof_C 	C 	0.2359	0.3782	0.3649	-0.139
Mof_H 	H 	0.2628	0.3363	0.4027	0.025
Mof_C 	C 	0.968	0.711	0.0769	0.813
Mof_C 	C 	0.1702	0.492	0.324	-0.141
Mof_C 	C 	0.2104	0.4268	0.3831	0.043
Mof_H 	H 	0.2183	0.4189	0.4316	-0.049
Mof_C 	C 	0.9255	0.7831	0.0127	-0.168
Mof_C 	C 	0.7615	0.7982	0.8536	0.48
Mof_C 	C 	0.162	0.4628	0.1532	0.399
Mof_C 	C 	0.1412	0.556	0.3368	0.445
Mof_C 	C 	0.9441	0.8548	0.0014	0.162
Mof_H 	H 	0.9845	0.8649	0.0342	0.036
Mof_C 	C 	0.2245	0.3867	0.2944	0.025
Mof_H 	H 	0.2444	0.354	0.2844	-0.027
Mof_C 	C 	0.9024	0.9134	0.9406	-0.185
Mof_H 	H 	0.9151	0.9631	0.9333	0.061
Mof_C 	C 	0.1808	0.448	0.236	-0.127
Mof_C 	C 	0.8429	0.8986	0.8915	0.072
Mof_H 	H 	0.8147	0.9384	0.8519	-0.028
Mof_O 	O 	0.7222	0.8449	0.7953	-0.551
Mof_O 	O 	0.7545	0.7331	0.8755	-0.622
Mof_O 	O 	0.0207	0.7206	0.1181	-0.948
Mof_O 	O 	0.9426	0.6494	0.0782	-0.755
Mof_O 	O 	0.1492	0.5476	0.399	-0.666
Mof_O 	O 	0.1115	0.6155	0.2838	-0.759
Mof_O 	O 	0.1757	0.4058	0.1281	-0.551
Mof_O 	O 	0.1344	0.5317	0.1168	-0.609
Mof_O 	O 	0.8659	0.256	0.1739	-0.496
Mof_O 	O 	0.8972	0.0544	0.0372	-0.533
Mof_O 	O 	0.8399	0.1386	0.0689	-0.512
Mof_O 	O 	0.0053	0.0516	0.099	-0.695
Mof_O 	O 	0.032	0.9349	0.2046	-0.566
Mof_O 	O 	0.8974	0.2164	0.04	-0.539
Mof_O 	O 	0.0041	0.2232	0.1006	-0.709
Mof_O 	O 	0.1047	0.1417	0.2194	-0.508
Mof_O 	O 	0.0363	0.066	0.271	-1.394
Mof_O 	O 	0.0494	0.136	0.3332	-1.366
Mof_O 	O 	0.0141	0.141	0.202	-1.32
Mof_O 	O 	0.8686	0.015	0.174	-0.518
Mof_O 	O 	0.966	0.338	0.2937	-0.384
Mof_O 	O 	0.923	0.341	0.1415	-0.395
Mof_O 	O 	0.9262	0.928	0.1453	-0.403
Mof_O 	O 	0.9639	0.205	0.231	-1.21
Mof_W 	W 	0.44697	0.63553	0.05058	1.494
Mof_W 	W 	0.57581	0.52375	0.20985	1.423
Mof_W 	W 	0.37193	0.52384	0.09099	1.481
Mof_W 	W 	0.57658	0.74729	0.20961	1.554
Mof_W 	W 	0.36976	0.74694	0.09127	1.506
Mof_Ce	Ce	0.61028	0.14227	0.17149	1.848
Mof_Ce	Ce	0.66908	0.12693	0.51362	1.707
Mof_N 	N 	0.658	0.0032	0.2547	-0.202
Mof_N 	N 	0.3677	0.2666	0.9657	-0.197
Mof_C 	C 	0.326	0.3237	0.9023	-0.148
Mof_C 	C 	0.7359	0.8782	0.3649	-0.141
Mof_H 	H 	0.7628	0.8363	0.4027	0.028
Mof_C 	C 	0.468	0.211	0.0769	0.454
Mof_C 	C 	0.6702	0.992	0.324	-0.143
Mof_C 	C 	0.7104	0.9268	0.3831	0.044
Mof_H 	H 	0.7183	0.9189	0.4316	-0.05
Mof_C 	C 	0.4255	0.2831	0.0127	-0.137
Mof_C 	C 	0.2615	0.2982	0.8536	0.467
Mof_C 	C 	0.662	0.9628	0.1532	0.402
Mof_C 	C 	0.6412	0.056	0.3368	0.448
Mof_C 	C 	0.4441	0.3548	0.0014	0.093
Mof_H 	H 	0.4845	0.3649	0.0342	-0.054
Mof_C 	C 	0.7245	0.8867	0.2944	0.024
Mof_H 	H 	0.7444	0.854	0.2844	-0.026
Mof_C 	C 	0.4024	0.4134	0.9406	-0.159
Mof_H 	H 	0.4151	0.4631	0.9333	0.018
Mof_C 	C 	0.6808	0.948	0.236	-0.123
Mof_C 	C 	0.3429	0.3986	0.8915	0.043
Mof_H 	H 	0.3147	0.4384	0.8519	-0.021
Mof_O 	O 	0.2222	0.3449	0.7953	-0.538
Mof_O 	O 	0.2545	0.2331	0.8755	-0.601
Mof_O 	O 	0.5207	0.2206	0.1181	-0.707
Mof_O 	O 	0.4426	0.1494	0.0782	-0.828
Mof_O 	O 	0.6492	0.0476	0.399	-0.691
Mof_O 	O 	0.6115	0.1155	0.2838	-0.825
Mof_O 	O 	0.6757	0.9058	0.1281	-0.542
Mof_O 	O 	0.6344	0.0317	0.1168	-0.596
Mof_O 	O 	0.3659	0.756	0.1739	-0.509
Mof_O 	O 	0.3972	0.5544	0.0372	-0.521
Mof_O 	O 	0.3399	0.6386	0.0689	-0.512
Mof_O 	O 	0.5053	0.5516	0.099	-0.517
Mof_O 	O 	0.532	0.4349	0.2046	-0.578
Mof_O 	O 	0.3974	0.7164	0.04	-0.531
Mof_O 	O 	0.5041	0.7232	0.1006	-0.537
Mof_O 	O 	0.6047	0.6417	0.2194	-0.523
Mof_O 	O 	0.5363	0.566	0.271	-1.887
Mof_O 	O 	0.5494	0.636	0.3332	-1.821
Mof_O 	O 	0.5141	0.641	0.202	-1.687
Mof_O 	O 	0.3686	0.515	0.174	-0.529
Mof_O 	O 	0.466	0.838	0.2937	-0.594
Mof_O 	O 	0.423	0.841	0.1415	-0.578
Mof_O 	O 	0.4262	0.428	0.1453	-0.592
Mof_O 	O 	0.4639	0.705	0.231	-1.84
Mof_W 	W 	0.94697	0.86447	0.55058	1.786
Mof_W 	W 	0.07581	0.97625	0.70985	1.282
Mof_W 	W 	0.87193	0.97616	0.59099	1.326
Mof_W 	W 	0.07658	0.75271	0.70961	1.402
Mof_W 	W 	0.86976	0.75306	0.59127	1.356
Mof_Ce	Ce	0.11028	0.35773	0.67149	1.756
Mof_Ce	Ce	0.16908	0.37307	0.01362	1.793
Mof_N 	N 	0.158	0.4968	0.7547	-0.198
Mof_N 	N 	0.8677	0.2334	0.4657	-0.183
Mof_C 	C 	0.826	0.1763	0.4023	-0.142
Mof_C 	C 	0.2359	0.6218	0.8649	-0.14
Mof_H 	H 	0.2628	0.6637	0.9027	0.02
Mof_C 	C 	0.968	0.289	0.5769	0.816
Mof_C 	C 	0.1702	0.508	0.824	-0.145
Mof_C 	C 	0.2104	0.5732	0.8831	0.044
Mof_H 	H 	0.2183	0.5811	0.9316	-0.054
Mof_C 	C 	0.9255	0.2169	0.5127	-0.174
Mof_C 	C 	0.7615	0.2018	0.3536	0.48
Mof_C 	C 	0.162	0.5372	0.6532	0.396
Mof_C 	C 	0.1412	0.444	0.8368	0.449
Mof_C 	C 	0.9441	0.1452	0.5014	0.111
Mof_H 	H 	0.9845	0.1351	0.5342	0.047
Mof_C 	C 	0.2245	0.6133	0.7944	0.024
Mof_H 	H 	0.2444	0.646	0.7844	-0.028
Mof_C 	C 	0.9024	0.0866	0.4406	-0.123
Mof_H 	H 	0.9151	0.0369	0.4333	0.047
Mof_C 	C 	0.1808	0.552	0.736	-0.127
Mof_C 	C 	0.8429	0.1014	0.3915	0.044
Mof_H 	H 	0.8147	0.0616	0.3519	-0.016
Mof_O 	O 	0.7222	0.1551	0.2953	-0.551
Mof_O 	O 	0.7545	0.2669	0.3755	-0.626
Mof_O 	O 	0.0207	0.2794	0.6181	-0.954
Mof_O 	O 	0.9426	0.3506	0.5782	-0.768
Mof_O 	O 	0.1492	0.4524	0.899	-0.681
Mof_O 	O 	0.1115	0.3845	0.7838	-0.757
Mof_O 	O 	0.1757	0.5942	0.6281	-0.546
Mof_O 	O 	0.1344	0.4683	0.6168	-0.613
Mof_O 	O 	0.8659	0.744	0.6739	-0.496
Mof_O 	O 	0.8972	0.9456	0.5372	-0.537
Mof_O 	O 	0.8399	0.8614	0.5689	-0.515
Mof_O 	O 	0.0053	0.9484	0.599	-0.704
Mof_O 	O 	0.032	0.0651	0.7046	-0.568
Mof_O 	O 	0.8974	0.7836	0.54	-0.542
Mof_O 	O 	0.0041	0.7768	0.6006	-0.719
Mof_O 	O 	0.1047	0.8583	0.7194	-0.509
Mof_O 	O 	0.0363	0.934	0.771	-1.387
Mof_O 	O 	0.0494	0.864	0.8332	-1.359
Mof_O 	O 	0.0141	0.859	0.702	-1.316
Mof_O 	O 	0.8686	0.985	0.674	-0.517
Mof_O 	O 	0.966	0.662	0.7937	-0.386
Mof_O 	O 	0.923	0.659	0.6415	-0.396
Mof_O 	O 	0.9262	0.072	0.6453	-0.405
Mof_O 	O 	0.9639	0.795	0.731	-1.204
Mof_W 	W 	0.44697	0.36447	0.55058	1.483
Mof_W 	W 	0.57581	0.47625	0.70985	1.42
Mof_W 	W 	0.37193	0.47616	0.59099	1.472
Mof_W 	W 	0.57658	0.25271	0.70961	1.551
Mof_W 	W 	0.36976	0.25306	0.59127	1.496
Mof_Ce	Ce	0.61028	0.85773	0.67149	1.836
Mof_Ce	Ce	0.66908	0.87307	0.01362	1.76
Mof_N 	N 	0.658	0.9968	0.7547	-0.2
Mof_N 	N 	0.3677	0.7334	0.4657	-0.192
Mof_C 	C 	0.326	0.6763	0.4023	-0.138
Mof_C 	C 	0.7359	0.1218	0.8649	-0.144
Mof_H 	H 	0.7628	0.1637	0.9027	0.022
Mof_C 	C 	0.468	0.789	0.5769	0.453
Mof_C 	C 	0.6702	0.008	0.824	-0.15
Mof_C 	C 	0.7104	0.0732	0.8831	0.046
Mof_H 	H 	0.7183	0.0811	0.9316	-0.057
Mof_C 	C 	0.4255	0.7169	0.5127	-0.142
Mof_C 	C 	0.2615	0.7018	0.3536	0.467
Mof_C 	C 	0.662	0.0372	0.6532	0.398
Mof_C 	C 	0.6412	0.944	0.8368	0.454
Mof_C 	C 	0.4441	0.6452	0.5014	0.057
Mof_H 	H 	0.4845	0.6351	0.5342	-0.046
Mof_C 	C 	0.7245	0.1133	0.7944	0.024
Mof_H 	H 	0.7444	0.146	0.7844	-0.028
Mof_C 	C 	0.4024	0.5866	0.4406	-0.117
Mof_H 	H 	0.4151	0.5369	0.4333	0.008
Mof_C 	C 	0.6808	0.052	0.736	-0.125
Mof_C 	C 	0.3429	0.6014	0.3915	0.024
Mof_H 	H 	0.3147	0.5616	0.3519	-0.013
Mof_O 	O 	0.2222	0.6551	0.2953	-0.539
Mof_O 	O 	0.2545	0.7669	0.3755	-0.603
Mof_O 	O 	0.5207	0.7794	0.6181	-0.708
Mof_O 	O 	0.4426	0.8506	0.5782	-0.838
Mof_O 	O 	0.6492	0.9524	0.899	-0.705
Mof_O 	O 	0.6115	0.8845	0.7838	-0.827
Mof_O 	O 	0.6757	0.0942	0.6281	-0.538
Mof_O 	O 	0.6344	0.9683	0.6168	-0.596
Mof_O 	O 	0.3659	0.244	0.6739	-0.51
Mof_O 	O 	0.3972	0.4456	0.5372	-0.525
Mof_O 	O 	0.3399	0.3614	0.5689	-0.515
Mof_O 	O 	0.5053	0.4484	0.599	-0.519
Mof_O 	O 	0.532	0.5651	0.7046	-0.578
Mof_O 	O 	0.3974	0.2836	0.54	-0.535
Mof_O 	O 	0.5041	0.2768	0.6006	-0.54
Mof_O 	O 	0.6047	0.3583	0.7194	-0.523
Mof_O 	O 	0.5363	0.434	0.771	-1.884
Mof_O 	O 	0.5494	0.364	0.8332	-1.817
Mof_O 	O 	0.5141	0.359	0.702	-1.683
Mof_O 	O 	0.3686	0.485	0.674	-0.528
Mof_O 	O 	0.466	0.162	0.7937	-0.594
Mof_O 	O 	0.423	0.159	0.6415	-0.579
Mof_O 	O 	0.4262	0.572	0.6453	-0.593
Mof_O 	O 	0.4639	0.295	0.731	-1.837
Mof_W 	W 	0.05303	0.86447	0.94942	0.906
Mof_W 	W 	0.92419	0.97625	0.79015	1.264
Mof_W 	W 	0.12807	0.97616	0.90901	1.293
Mof_W 	W 	0.92342	0.75271	0.79039	1.375
Mof_W 	W 	0.13024	0.75306	0.90873	1.32
Mof_Ce	Ce	0.88972	0.35773	0.82851	2.01
Mof_Ce	Ce	0.83092	0.37307	0.48638	1.86
Mof_N 	N 	0.842	0.4968	0.7453	-0.201
Mof_N 	N 	0.1323	0.2334	0.0343	-0.192
Mof_C 	C 	0.174	0.1763	0.0977	-0.121
Mof_C 	C 	0.7641	0.6218	0.6351	-0.133
Mof_H 	H 	0.7372	0.6637	0.5973	0.022
Mof_C 	C 	0.032	0.289	0.9231	0.115
Mof_C 	C 	0.8298	0.508	0.676	-0.13
Mof_C 	C 	0.7896	0.5732	0.6169	0.04
Mof_H 	H 	0.7817	0.5811	0.5684	-0.047
Mof_C 	C 	0.0745	0.2169	0.9873	-0.09
Mof_C 	C 	0.2385	0.2018	0.1464	0.47
Mof_C 	C 	0.838	0.5372	0.8468	0.408
Mof_C 	C 	0.8588	0.444	0.6632	0.46
Mof_C 	C 	0.0559	0.1452	0.9986	-0.043
Mof_H 	H 	0.0155	0.1351	0.9658	-0.109
Mof_C 	C 	0.7755	0.6133	0.7056	0.022
Mof_H 	H 	0.7556	0.646	0.7156	-0.026
Mof_C 	C 	0.0976	0.0866	0.0594	-0.049
Mof_H 	H 	0.0849	0.0369	0.0667	-0.026
Mof_C 	C 	0.8192	0.552	0.764	-0.116
Mof_C 	C 	0.1571	0.1014	0.1085	-0.01
Mof_H 	H 	0.1853	0.0616	0.1481	0.004
Mof_O 	O 	0.2778	0.1551	0.2047	-0.546
Mof_O 	O 	0.2455	0.2669	0.1245	-0.612
Mof_O 	O 	0.9793	0.2794	0.8819	-0.391
Mof_O 	O 	0.0574	0.3506	0.9218	-0.736
Mof_O 	O 	0.8508	0.4524	0.601	-0.643
Mof_O 	O 	0.8885	0.3845	0.7162	-0.712
Mof_O 	O 	0.8243	0.5942	0.8719	-0.542
Mof_O 	O 	0.8656	0.4683	0.8832	-0.582
Mof_O 	O 	0.1341	0.744	0.8261	-0.489
Mof_O 	O 	0.1028	0.9456	0.9628	-0.486
Mof_O 	O 	0.1601	0.8614	0.9311	-0.494
Mof_O 	O 	0.9947	0.9484	0.901	-0.31
Mof_O 	O 	0.968	0.0651	0.7954	-0.362
Mof_O 	O 	0.1026	0.7836	0.96	-0.509
Mof_O 	O 	0.9959	0.7768	0.8994	-0.343
Mof_O 	O 	0.8953	0.8583	0.7806	-0.503
Mof_O 	O 	0.9637	0.934	0.729	-1.231
Mof_O 	O 	0.9506	0.864	0.6668	-1.188
Mof_O 	O 	0.9859	0.859	0.798	-1.057
Mof_O 	O 	0.1314	0.985	0.826	-0.507
Mof_O 	O 	0.034	0.662	0.7063	-0.572
Mof_O 	O 	0.077	0.659	0.8585	-0.544
Mof_O 	O 	0.0738	0.072	0.8547	-0.542
Mof_O 	O 	0.0361	0.795	0.769	-1.347
Mof_W 	W 	0.55303	0.36447	0.94942	1.474
Mof_W 	W 	0.42419	0.47625	0.79015	1.42
Mof_W 	W 	0.62807	0.47616	0.90901	1.46
Mof_W 	W 	0.42342	0.25271	0.79039	1.55
Mof_W 	W 	0.63024	0.25306	0.90873	1.488
Mof_Ce	Ce	0.38972	0.85773	0.82851	1.825
Mof_Ce	Ce	0.33092	0.87307	0.48638	1.71
Mof_N 	N 	0.342	0.9968	0.7453	-0.2
Mof_N 	N 	0.6323	0.7334	0.0343	-0.187
Mof_C 	C 	0.674	0.6763	0.0977	-0.134
Mof_C 	C 	0.2641	0.1218	0.6351	-0.142
Mof_H 	H 	0.2372	0.1637	0.5973	0.031
Mof_C 	C 	0.532	0.789	0.9231	0.453
Mof_C 	C 	0.3298	0.008	0.676	-0.145
Mof_C 	C 	0.2896	0.0732	0.6169	0.046
Mof_H 	H 	0.2817	0.0811	0.5684	-0.05
Mof_C 	C 	0.5745	0.7169	0.9873	-0.149
Mof_C 	C 	0.7385	0.7018	0.1464	0.476
Mof_C 	C 	0.338	0.0372	0.8468	0.397
Mof_C 	C 	0.3588	0.944	0.6632	0.45
Mof_C 	C 	0.5559	0.6452	0.9986	0.023
Mof_H 	H 	0.5155	0.6351	0.9658	-0.039
Mof_C 	C 	0.2755	0.1133	0.7056	0.026
Mof_H 	H 	0.2556	0.146	0.7156	-0.025
Mof_C 	C 	0.5976	0.5866	0.0594	-0.079
Mof_H 	H 	0.5849	0.5369	0.0667	-0
Mof_C 	C 	0.3192	0.052	0.764	-0.124
Mof_C 	C 	0.6571	0.6014	0.1085	0.01
Mof_H 	H 	0.6853	0.5616	0.1481	-0.009
Mof_O 	O 	0.7778	0.6551	0.2047	-0.566
Mof_O 	O 	0.7455	0.7669	0.1245	-0.61
Mof_O 	O 	0.4793	0.7794	0.8819	-0.708
Mof_O 	O 	0.5574	0.8506	0.9218	-0.85
Mof_O 	O 	0.3508	0.9524	0.601	-0.689
Mof_O 	O 	0.3885	0.8845	0.7162	-0.822
Mof_O 	O 	0.3243	0.0942	0.8719	-0.535
Mof_O 	O 	0.3656	0.9683	0.8832	-0.598
Mof_O 	O 	0.6341	0.244	0.8261	-0.51
Mof_O 	O 	0.6028	0.4456	0.9628	-0.529
Mof_O 	O 	0.6601	0.3614	0.9311	-0.52
Mof_O 	O 	0.4947	0.4484	0.901	-0.521
Mof_O 	O 	0.468	0.5651	0.7954	-0.578
Mof_O 	O 	0.6026	0.2836	0.96	-0.539
Mof_O 	O 	0.4959	0.2768	0.8994	-0.542
Mof_O 	O 	0.3953	0.3583	0.7806	-0.523
Mof_O 	O 	0.4637	0.434	0.729	-1.884
Mof_O 	O 	0.4506	0.364	0.6668	-1.818
Mof_O 	O 	0.4859	0.359	0.798	-1.683
Mof_O 	O 	0.6314	0.485	0.826	-0.531
Mof_O 	O 	0.534	0.162	0.7063	-0.593
Mof_O 	O 	0.577	0.159	0.8585	-0.581
Mof_O 	O 	0.5738	0.572	0.8547	-0.595
Mof_O 	O 	0.5361	0.295	0.769	-1.836
Mof_W 	W 	1.13296e-33	0.91075	0.25	1.348
Mof_W 	W 	1.13296e-33	0.3581	0.25	1.37
Mof_K 	K 	1.13296e-33	0.6361	0.25	2.636
Mof_O 	O 	1.13296e-33	0.4629	0.25	-0.891
Mof_O 	O 	1.13296e-33	0.801	0.25	-0.905
Mof_B 	B 	1.13296e-33	0.136	0.25	6.574
Mof_W 	W 	0.5	0.41075	0.25	1.951
Mof_W 	W 	0.5	0.8581	0.25	1.971
Mof_K 	K 	0.5	0.1361	0.25	3.568
Mof_O 	O 	0.5	0.9629	0.25	-1.001
Mof_O 	O 	0.5	0.301	0.25	-1.018
Mof_B 	B 	0.5	0.636	0.25	9.673
Mof_W 	W 	3.39888e-33	0.08925	0.75	1.339
Mof_W 	W 	3.39888e-33	0.6419	0.75	1.361
Mof_K 	K 	3.39888e-33	0.3639	0.75	2.587
Mof_O 	O 	3.39888e-33	0.5371	0.75	-0.889
Mof_O 	O 	3.39888e-33	0.199	0.75	-0.902
Mof_B 	B 	3.39888e-33	0.864	0.75	6.541
Mof_W 	W 	0.5	0.58925	0.75	1.95
Mof_W 	W 	0.5	0.1419	0.75	1.97
Mof_K 	K 	0.5	0.8639	0.75	3.55
Mof_O 	O 	0.5	0.0371	0.75	-1.002
Mof_O 	O 	0.5	0.699	0.75	-1.017
Mof_B 	B 	0.5	0.364	0.75	9.656
_end
