data_functionalizedCrystal
_audit_creation_method	'EQeq! by Chris Wilmer'
_symmetry_space_group_name_H-M	'P1'
_symmetry_Int_Tables_number	1
_symmetry_cell_setting	triclinic
loop_
_symmetry_equiv_pos_as_xyz
  x,y,z
_cell_length_a	21.23
_cell_length_b	21.23
_cell_length_c	6.029
_cell_angle_alpha	90
_cell_angle_beta	90
_cell_angle_gamma	90
loop_
_atom_site_label
_atom_site_type_symbol
_atom_site_fract_x
_atom_site_fract_y
_atom_site_fract_z
_atom_site_charge
Mof_Cd	Cd	0.32981	0.76936	0.96341	0.422
Mof_O 	O 	0.4002	0.8567	0.9749	-0.271
Mof_O 	O 	0.404	0.8009	0.6589	-0.266
Mof_O 	O 	0.3128	0.7674	0.3422	-0.337
Mof_H 	H 	0.347	0.797	0.34	0.167
Mof_N 	N 	0.6354	0.0009	0.4955	-0.119
Mof_N 	N 	0.6632	0.9922	0.2865	-0.087
Mof_N 	N 	0.7026	0.0799	0.4603	-0.139
Mof_C 	C 	0.4249	0.8448	0.783	0.294
Mof_C 	C 	0.4821	0.8821	0.707	-0.121
Mof_C 	C 	0.5104	0.9224	0.847	0.07
Mof_H 	H 	0.4966	0.9237	0.9929	0.017
Mof_C 	C 	0.5615	0.9641	0.781	-0.168
Mof_H 	H 	0.5776	0.9938	0.8798	0.103
Mof_C 	C 	0.5856	0.9584	0.567	0.165
Mof_C 	C 	0.5539	0.9185	0.427	-0.18
Mof_H 	H 	0.5654	0.9172	0.2787	0.11
Mof_C 	C 	0.5055	0.8802	0.499	0.087
Mof_H 	H 	0.4881	0.8517	0.3992	0.02
Mof_C 	C 	0.6586	0.0505	0.595	0.098
Mof_H 	H 	0.6472	0.064	0.7358	0.018
Mof_C 	C 	0.7029	0.041	0.274	0.086
Mof_H 	H 	0.7285	0.0483	0.151	0.027
Mof_Cd	Cd	0.17019	0.73064	0.96341	0.422
Mof_O 	O 	0.0998	0.6433	0.9749	-0.271
Mof_O 	O 	0.096	0.6991	0.6589	-0.266
Mof_O 	O 	0.1872	0.7326	0.3422	-0.337
Mof_H 	H 	0.153	0.703	0.34	0.167
Mof_N 	N 	0.8646	0.4991	0.4955	-0.119
Mof_N 	N 	0.8368	0.5078	0.2865	-0.087
Mof_N 	N 	0.7974	0.4201	0.4603	-0.139
Mof_C 	C 	0.0751	0.6552	0.783	0.294
Mof_C 	C 	0.0179	0.6179	0.707	-0.121
Mof_C 	C 	0.9896	0.5776	0.847	0.07
Mof_H 	H 	0.0034	0.5763	0.9929	0.017
Mof_C 	C 	0.9385	0.5359	0.781	-0.169
Mof_H 	H 	0.9224	0.5062	0.8798	0.104
Mof_C 	C 	0.9144	0.5416	0.567	0.166
Mof_C 	C 	0.9461	0.5815	0.427	-0.18
Mof_H 	H 	0.9346	0.5828	0.2787	0.11
Mof_C 	C 	0.9945	0.6198	0.499	0.087
Mof_H 	H 	0.0119	0.6483	0.3992	0.02
Mof_C 	C 	0.8414	0.4495	0.595	0.098
Mof_H 	H 	0.8528	0.436	0.7358	0.018
Mof_C 	C 	0.7971	0.459	0.274	0.086
Mof_H 	H 	0.7715	0.4517	0.151	0.027
Mof_Cd	Cd	0.23064	0.82981	0.46341	0.427
Mof_O 	O 	0.1433	0.9002	0.4749	-0.268
Mof_O 	O 	0.1991	0.904	0.1589	-0.263
Mof_O 	O 	0.2326	0.8128	0.8422	-0.339
Mof_H 	H 	0.203	0.847	0.84	0.166
Mof_N 	N 	0.9991	0.1354	0.9955	-0.114
Mof_N 	N 	0.0078	0.1632	0.7865	-0.087
Mof_N 	N 	0.9201	0.2026	0.9603	-0.135
Mof_C 	C 	0.1552	0.9249	0.283	0.29
Mof_C 	C 	0.1179	0.9821	0.207	-0.111
Mof_C 	C 	0.0776	0.0104	0.347	0.06
Mof_H 	H 	0.0763	0.9966	0.4929	0.022
Mof_C 	C 	0.0359	0.0615	0.281	-0.16
Mof_H 	H 	0.0062	0.0776	0.3798	0.1
Mof_C 	C 	0.0416	0.0856	0.067	0.156
Mof_C 	C 	0.0815	0.0539	0.927	-0.169
Mof_H 	H 	0.0828	0.0654	0.7787	0.106
Mof_C 	C 	0.1198	0.0055	0.999	0.076
Mof_H 	H 	0.1483	0.9881	0.8992	0.022
Mof_C 	C 	0.9495	0.1586	0.095	0.089
Mof_H 	H 	0.936	0.1472	0.2358	0.02
Mof_C 	C 	0.959	0.2029	0.774	0.087
Mof_H 	H 	0.9517	0.2285	0.651	0.028
Mof_Cd	Cd	0.26936	0.67019	0.46341	0.427
Mof_O 	O 	0.3567	0.5998	0.4749	-0.268
Mof_O 	O 	0.3009	0.596	0.1589	-0.264
Mof_O 	O 	0.2674	0.6872	0.8422	-0.339
Mof_H 	H 	0.297	0.653	0.84	0.166
Mof_N 	N 	0.5009	0.3646	0.9955	-0.115
Mof_N 	N 	0.4922	0.3368	0.7865	-0.087
Mof_N 	N 	0.5799	0.2974	0.9603	-0.135
Mof_C 	C 	0.3448	0.5751	0.283	0.291
Mof_C 	C 	0.3821	0.5179	0.207	-0.114
Mof_C 	C 	0.4224	0.4896	0.347	0.064
Mof_H 	H 	0.4237	0.5034	0.4929	0.02
Mof_C 	C 	0.4641	0.4385	0.281	-0.163
Mof_H 	H 	0.4938	0.4224	0.3798	0.101
Mof_C 	C 	0.4584	0.4144	0.067	0.159
Mof_C 	C 	0.4185	0.4461	0.927	-0.171
Mof_H 	H 	0.4172	0.4346	0.7787	0.107
Mof_C 	C 	0.3802	0.4945	0.999	0.079
Mof_H 	H 	0.3517	0.5119	0.8992	0.022
Mof_C 	C 	0.5505	0.3414	0.095	0.09
Mof_H 	H 	0.564	0.3528	0.2358	0.019
Mof_C 	C 	0.541	0.2971	0.774	0.087
Mof_H 	H 	0.5483	0.2715	0.651	0.028
Mof_Cd	Cd	0.67019	0.23064	0.03659	0.422
Mof_O 	O 	0.5998	0.1433	0.0251	-0.271
Mof_O 	O 	0.596	0.1991	0.3411	-0.266
Mof_O 	O 	0.6872	0.2326	0.6578	-0.337
Mof_H 	H 	0.653	0.203	0.66	0.167
Mof_N 	N 	0.3646	0.9991	0.5045	-0.119
Mof_N 	N 	0.3368	0.0078	0.7135	-0.087
Mof_N 	N 	0.2974	0.9201	0.5397	-0.139
Mof_C 	C 	0.5751	0.1552	0.217	0.294
Mof_C 	C 	0.5179	0.1179	0.293	-0.121
Mof_C 	C 	0.4896	0.0776	0.153	0.07
Mof_H 	H 	0.5034	0.0763	0.0071	0.017
Mof_C 	C 	0.4385	0.0359	0.219	-0.168
Mof_H 	H 	0.4224	0.0062	0.1202	0.103
Mof_C 	C 	0.4144	0.0416	0.433	0.165
Mof_C 	C 	0.4461	0.0815	0.573	-0.18
Mof_H 	H 	0.4346	0.0828	0.7213	0.11
Mof_C 	C 	0.4945	0.1198	0.501	0.087
Mof_H 	H 	0.5119	0.1483	0.6008	0.02
Mof_C 	C 	0.3414	0.9495	0.405	0.098
Mof_H 	H 	0.3528	0.936	0.2642	0.018
Mof_C 	C 	0.2971	0.959	0.726	0.086
Mof_H 	H 	0.2715	0.9517	0.849	0.027
Mof_Cd	Cd	0.82981	0.26936	0.03659	0.422
Mof_O 	O 	0.9002	0.3567	0.0251	-0.271
Mof_O 	O 	0.904	0.3009	0.3411	-0.266
Mof_O 	O 	0.8128	0.2674	0.6578	-0.337
Mof_H 	H 	0.847	0.297	0.66	0.167
Mof_N 	N 	0.1354	0.5009	0.5045	-0.119
Mof_N 	N 	0.1632	0.4922	0.7135	-0.087
Mof_N 	N 	0.2026	0.5799	0.5397	-0.139
Mof_C 	C 	0.9249	0.3448	0.217	0.294
Mof_C 	C 	0.9821	0.3821	0.293	-0.121
Mof_C 	C 	0.0104	0.4224	0.153	0.07
Mof_H 	H 	0.9966	0.4237	0.0071	0.017
Mof_C 	C 	0.0615	0.4641	0.219	-0.169
Mof_H 	H 	0.0776	0.4938	0.1202	0.104
Mof_C 	C 	0.0856	0.4584	0.433	0.166
Mof_C 	C 	0.0539	0.4185	0.573	-0.18
Mof_H 	H 	0.0654	0.4172	0.7213	0.11
Mof_C 	C 	0.0055	0.3802	0.501	0.087
Mof_H 	H 	0.9881	0.3517	0.6008	0.02
Mof_C 	C 	0.1586	0.5505	0.405	0.098
Mof_H 	H 	0.1472	0.564	0.2642	0.018
Mof_C 	C 	0.2029	0.541	0.726	0.086
Mof_H 	H 	0.2285	0.5483	0.849	0.027
Mof_Cd	Cd	0.76936	0.17019	0.53659	0.427
Mof_O 	O 	0.8567	0.0998	0.5251	-0.268
Mof_O 	O 	0.8009	0.096	0.8411	-0.263
Mof_O 	O 	0.7674	0.1872	0.1578	-0.339
Mof_H 	H 	0.797	0.153	0.16	0.166
Mof_N 	N 	0.0009	0.8646	0.0045	-0.114
Mof_N 	N 	0.9922	0.8368	0.2135	-0.087
Mof_N 	N 	0.0799	0.7974	0.0397	-0.135
Mof_C 	C 	0.8448	0.0751	0.717	0.29
Mof_C 	C 	0.8821	0.0179	0.793	-0.111
Mof_C 	C 	0.9224	0.9896	0.653	0.06
Mof_H 	H 	0.9237	0.0034	0.5071	0.022
Mof_C 	C 	0.9641	0.9385	0.719	-0.16
Mof_H 	H 	0.9938	0.9224	0.6202	0.1
Mof_C 	C 	0.9584	0.9144	0.933	0.156
Mof_C 	C 	0.9185	0.9461	0.073	-0.169
Mof_H 	H 	0.9172	0.9346	0.2213	0.106
Mof_C 	C 	0.8802	0.9945	0.001	0.076
Mof_H 	H 	0.8517	0.0119	0.1008	0.022
Mof_C 	C 	0.0505	0.8414	0.905	0.089
Mof_H 	H 	0.064	0.8528	0.7642	0.02
Mof_C 	C 	0.041	0.7971	0.226	0.087
Mof_H 	H 	0.0483	0.7715	0.349	0.028
Mof_Cd	Cd	0.73064	0.32981	0.53659	0.427
Mof_O 	O 	0.6433	0.4002	0.5251	-0.268
Mof_O 	O 	0.6991	0.404	0.8411	-0.264
Mof_O 	O 	0.7326	0.3128	0.1578	-0.339
Mof_H 	H 	0.703	0.347	0.16	0.166
Mof_N 	N 	0.4991	0.6354	0.0045	-0.115
Mof_N 	N 	0.5078	0.6632	0.2135	-0.087
Mof_N 	N 	0.4201	0.7026	0.0397	-0.135
Mof_C 	C 	0.6552	0.4249	0.717	0.291
Mof_C 	C 	0.6179	0.4821	0.793	-0.114
Mof_C 	C 	0.5776	0.5104	0.653	0.064
Mof_H 	H 	0.5763	0.4966	0.5071	0.02
Mof_C 	C 	0.5359	0.5615	0.719	-0.163
Mof_H 	H 	0.5062	0.5776	0.6202	0.101
Mof_C 	C 	0.5416	0.5856	0.933	0.159
Mof_C 	C 	0.5815	0.5539	0.073	-0.171
Mof_H 	H 	0.5828	0.5654	0.2213	0.107
Mof_C 	C 	0.6198	0.5055	0.001	0.079
Mof_H 	H 	0.6483	0.4881	0.1008	0.022
Mof_C 	C 	0.4495	0.6586	0.905	0.09
Mof_H 	H 	0.436	0.6472	0.7642	0.019
Mof_C 	C 	0.459	0.7029	0.226	0.087
Mof_H 	H 	0.4517	0.7285	0.349	0.028
_end
