data_functionalizedCrystal
_audit_creation_method	'EQeq! by Chris Wilmer'
_symmetry_space_group_name_H-M	'P1'
_symmetry_Int_Tables_number	1
_symmetry_cell_setting	triclinic
loop_
_symmetry_equiv_pos_as_xyz
  x,y,z
_cell_length_a	13.686
_cell_length_b	18.252
_cell_length_c	14.906
_cell_angle_alpha	90
_cell_angle_beta	101.07
_cell_angle_gamma	90
loop_
_atom_site_label
_atom_site_type_symbol
_atom_site_fract_x
_atom_site_fract_y
_atom_site_fract_z
_atom_site_charge
Mof_Cd	Cd	0.65877	0.79047	0.57456	0.512
Mof_O 	O 	0.80129	0.8213	0.49927	-0.258
Mof_O 	O 	0.65773	0.87914	0.46233	-0.237
Mof_O 	O 	0.50311	0.23507	0.98676	-0.251
Mof_O 	O 	0.48083	0.15527	0.0925	-0.262
Mof_O 	O 	0.61999	0.09049	0.26465	-0.267
Mof_O 	O 	0.72661	0.11252	0.17079	-0.256
Mof_O 	O 	0.09896	0.23726	0.70914	-0.296
Mof_O 	O 	0.25681	0.23101	0.69809	-0.251
Mof_C 	C 	0.748	0.87126	0.45668	0.292
Mof_C 	C 	0.792	0.92442	0.3985	-0.039
Mof_C 	C 	0.8931	0.92445	0.398	-0.038
Mof_H 	H 	0.936	0.891	0.4355	0.07
Mof_C 	C 	0.7305	0.97477	0.3448	-0.009
Mof_H 	H 	0.6614	0.9754	0.3461	0.077
Mof_C 	C 	0.9318	0.97341	0.3426	0.008
Mof_H 	H 	0.0011	0.9733	0.3421	0.019
Mof_C 	C 	0.8693	0.0226	0.288	-0.038
Mof_H 	H 	0.896	0.0554	0.2495	0.068
Mof_C 	C 	0.7685	0.02419	0.28927	-0.046
Mof_C 	C 	0.6999	0.08083	0.23579	0.31
Mof_C 	C 	0.4486	0.19303	0.0218	0.298
Mof_C 	C 	0.2757	0.14253	0.0155	-0.001
Mof_H 	H 	0.2964	0.1232	0.0753	0.056
Mof_C 	C 	0.3422	0.18236	0.97496	-0.061
Mof_C 	C 	0.1791	0.13091	0.9688	-0.057
Mof_H 	H 	0.1336	0.1043	0.9972	0.058
Mof_C 	C 	0.3114	0.20885	0.8872	0.016
Mof_H 	H 	0.3565	0.2363	0.8594	0.063
Mof_C 	C 	0.1483	0.15783	0.8808	0.006
Mof_H 	H 	0.0819	0.1504	0.8492	0.04
Mof_C 	C 	0.2162	0.19608	0.83924	-0.076
Mof_C 	C 	0.189	0.22306	0.74344	0.3
Mof_Cd	Cd	0.15877	0.29047	0.57456	0.507
Mof_O 	O 	0.30129	0.3213	0.49927	-0.261
Mof_O 	O 	0.15773	0.37914	0.46233	-0.243
Mof_O 	O 	0.00311	0.73507	0.98676	-0.275
Mof_O 	O 	0.98083	0.65527	0.0925	-0.255
Mof_O 	O 	0.11999	0.59049	0.26465	-0.273
Mof_O 	O 	0.22661	0.61252	0.17079	-0.261
Mof_O 	O 	0.59896	0.73726	0.70914	-0.291
Mof_O 	O 	0.75681	0.73101	0.69809	-0.25
Mof_C 	C 	0.248	0.37126	0.45668	0.301
Mof_C 	C 	0.292	0.42442	0.3985	-0.064
Mof_C 	C 	0.3931	0.42445	0.398	0.004
Mof_H 	H 	0.436	0.391	0.4355	0.05
Mof_C 	C 	0.2305	0.47477	0.3448	0.012
Mof_H 	H 	0.1614	0.4754	0.3461	0.067
Mof_C 	C 	0.4318	0.47341	0.3426	-0.066
Mof_H 	H 	0.5011	0.4733	0.3421	0.058
Mof_C 	C 	0.3693	0.5226	0.288	0.004
Mof_H 	H 	0.396	0.5554	0.2495	0.049
Mof_C 	C 	0.2685	0.52419	0.28927	-0.07
Mof_C 	C 	0.1999	0.58083	0.23579	0.317
Mof_C 	C 	0.9486	0.69303	0.0218	0.327
Mof_C 	C 	0.7757	0.64253	0.0155	0.012
Mof_H 	H 	0.7964	0.6232	0.0753	0.053
Mof_C 	C 	0.8422	0.68236	0.97496	-0.073
Mof_C 	C 	0.6791	0.63091	0.9688	-0.064
Mof_H 	H 	0.6336	0.6043	0.9972	0.064
Mof_C 	C 	0.8114	0.70885	0.8872	0.024
Mof_H 	H 	0.8565	0.7363	0.8594	0.064
Mof_C 	C 	0.6483	0.65783	0.8808	0.011
Mof_H 	H 	0.5819	0.6504	0.8492	0.043
Mof_C 	C 	0.7162	0.69608	0.83924	-0.079
Mof_C 	C 	0.689	0.72306	0.74344	0.3
Mof_Cd	Cd	0.34123	0.79047	0.92544	0.512
Mof_O 	O 	0.19871	0.8213	0.00073	-0.264
Mof_O 	O 	0.34227	0.87914	0.03767	-0.241
Mof_O 	O 	0.49689	0.23507	0.51324	-0.254
Mof_O 	O 	0.51917	0.15527	0.4075	-0.263
Mof_O 	O 	0.38001	0.09049	0.23535	-0.271
Mof_O 	O 	0.27339	0.11252	0.32921	-0.262
Mof_O 	O 	0.90104	0.23726	0.79086	-0.281
Mof_O 	O 	0.74319	0.23101	0.80191	-0.251
Mof_C 	C 	0.252	0.87126	0.04332	0.308
Mof_C 	C 	0.208	0.92442	0.1015	-0.084
Mof_C 	C 	0.1069	0.92445	0.102	0.042
Mof_H 	H 	0.064	0.891	0.0645	0.031
Mof_C 	C 	0.2695	0.97477	0.1552	0.031
Mof_H 	H 	0.3386	0.9754	0.1539	0.064
Mof_C 	C 	0.0682	0.97341	0.1574	-0.138
Mof_H 	H 	0.9989	0.9733	0.1579	0.097
Mof_C 	C 	0.1307	0.0226	0.212	0.043
Mof_H 	H 	0.104	0.0554	0.2505	0.031
Mof_C 	C 	0.2315	0.02419	0.21073	-0.091
Mof_C 	C 	0.3001	0.08083	0.26421	0.325
Mof_C 	C 	0.5514	0.19303	0.4782	0.303
Mof_C 	C 	0.7243	0.14253	0.4845	0.008
Mof_H 	H 	0.7036	0.1232	0.4247	0.054
Mof_C 	C 	0.6578	0.18236	0.52504	-0.067
Mof_C 	C 	0.8209	0.13091	0.5312	-0.061
Mof_H 	H 	0.8664	0.1043	0.5028	0.066
Mof_C 	C 	0.6886	0.20885	0.6128	0.018
Mof_H 	H 	0.6435	0.2363	0.6406	0.062
Mof_C 	C 	0.8517	0.15783	0.6192	0.008
Mof_H 	H 	0.9181	0.1504	0.6508	0.05
Mof_C 	C 	0.7838	0.19608	0.66076	-0.074
Mof_C 	C 	0.811	0.22306	0.75656	0.297
Mof_Cd	Cd	0.84123	0.29047	0.92544	0.515
Mof_O 	O 	0.69871	0.3213	0.00073	-0.261
Mof_O 	O 	0.84227	0.37914	0.03767	-0.234
Mof_O 	O 	0.99689	0.73507	0.51324	-0.229
Mof_O 	O 	0.01917	0.65527	0.4075	-0.265
Mof_O 	O 	0.88001	0.59049	0.23535	-0.259
Mof_O 	O 	0.77339	0.61252	0.32921	-0.257
Mof_O 	O 	0.40104	0.73726	0.79086	-0.291
Mof_O 	O 	0.24319	0.73101	0.80191	-0.253
Mof_C 	C 	0.752	0.37126	0.04332	0.298
Mof_C 	C 	0.708	0.42442	0.1015	-0.059
Mof_C 	C 	0.6069	0.42445	0.102	0
Mof_H 	H 	0.564	0.391	0.0645	0.051
Mof_C 	C 	0.7695	0.47477	0.1552	0.008
Mof_H 	H 	0.8386	0.4754	0.1539	0.074
Mof_C 	C 	0.5682	0.47341	0.1574	-0.063
Mof_H 	H 	0.4989	0.4733	0.1579	0.057
Mof_C 	C 	0.6307	0.5226	0.212	0
Mof_H 	H 	0.604	0.5554	0.2505	0.05
Mof_C 	C 	0.7315	0.52419	0.21073	-0.065
Mof_C 	C 	0.8001	0.58083	0.26421	0.315
Mof_C 	C 	0.0514	0.69303	0.4782	0.275
Mof_C 	C 	0.2243	0.64253	0.4845	0.003
Mof_H 	H 	0.2036	0.6232	0.4247	0.056
Mof_C 	C 	0.1578	0.68236	0.52504	-0.06
Mof_C 	C 	0.3209	0.63091	0.5312	-0.059
Mof_H 	H 	0.3664	0.6043	0.5028	0.062
Mof_C 	C 	0.1886	0.70885	0.6128	0.014
Mof_H 	H 	0.1435	0.7363	0.6406	0.059
Mof_C 	C 	0.3517	0.65783	0.6192	0.006
Mof_H 	H 	0.4181	0.6504	0.6508	0.045
Mof_C 	C 	0.2838	0.69608	0.66076	-0.075
Mof_C 	C 	0.311	0.72306	0.75656	0.299
Mof_Cd	Cd	0.34123	0.20953	0.42544	0.511
Mof_O 	O 	0.19871	0.1787	0.50073	-0.264
Mof_O 	O 	0.34227	0.12086	0.53767	-0.241
Mof_O 	O 	0.49689	0.76493	0.01324	-0.255
Mof_O 	O 	0.51917	0.84473	0.9075	-0.264
Mof_O 	O 	0.38001	0.90951	0.73535	-0.271
Mof_O 	O 	0.27339	0.88748	0.82921	-0.262
Mof_O 	O 	0.90104	0.76274	0.29086	-0.281
Mof_O 	O 	0.74319	0.76899	0.30191	-0.251
Mof_C 	C 	0.252	0.12874	0.54332	0.307
Mof_C 	C 	0.208	0.07558	0.6015	-0.083
Mof_C 	C 	0.1069	0.07555	0.602	0.04
Mof_H 	H 	0.064	0.109	0.5645	0.032
Mof_C 	C 	0.2695	0.02523	0.6552	0.03
Mof_H 	H 	0.3386	0.0246	0.6539	0.064
Mof_C 	C 	0.0682	0.02659	0.6574	-0.134
Mof_H 	H 	0.9989	0.0267	0.6579	0.095
Mof_C 	C 	0.1307	0.9774	0.712	0.041
Mof_H 	H 	0.104	0.9446	0.7505	0.032
Mof_C 	C 	0.2315	0.97581	0.71073	-0.089
Mof_C 	C 	0.3001	0.91917	0.76421	0.324
Mof_C 	C 	0.5514	0.80697	0.9782	0.305
Mof_C 	C 	0.7243	0.85747	0.9845	0.011
Mof_H 	H 	0.7036	0.8768	0.9247	0.053
Mof_C 	C 	0.6578	0.81764	0.02504	-0.07
Mof_C 	C 	0.8209	0.86909	0.0312	-0.063
Mof_H 	H 	0.8664	0.8957	0.0028	0.067
Mof_C 	C 	0.6886	0.79115	0.1128	0.02
Mof_H 	H 	0.6435	0.7637	0.1406	0.061
Mof_C 	C 	0.8517	0.84217	0.1192	0.009
Mof_H 	H 	0.9181	0.8496	0.1508	0.05
Mof_C 	C 	0.7838	0.80392	0.16076	-0.075
Mof_C 	C 	0.811	0.77694	0.25656	0.297
Mof_Cd	Cd	0.84123	0.70953	0.42544	0.515
Mof_O 	O 	0.69871	0.6787	0.50073	-0.26
Mof_O 	O 	0.84227	0.62086	0.53767	-0.234
Mof_O 	O 	0.99689	0.26493	0.01324	-0.232
Mof_O 	O 	0.01917	0.34473	0.9075	-0.266
Mof_O 	O 	0.88001	0.40951	0.73535	-0.26
Mof_O 	O 	0.77339	0.38748	0.82921	-0.257
Mof_O 	O 	0.40104	0.26274	0.29086	-0.292
Mof_O 	O 	0.24319	0.26899	0.30191	-0.254
Mof_C 	C 	0.752	0.62874	0.54332	0.298
Mof_C 	C 	0.708	0.57558	0.6015	-0.059
Mof_C 	C 	0.6069	0.57555	0.602	-0
Mof_H 	H 	0.564	0.609	0.5645	0.051
Mof_C 	C 	0.7695	0.52523	0.6552	0.008
Mof_H 	H 	0.8386	0.5246	0.6539	0.074
Mof_C 	C 	0.5682	0.52659	0.6574	-0.063
Mof_H 	H 	0.4989	0.5267	0.6579	0.057
Mof_C 	C 	0.6307	0.4774	0.712	0
Mof_H 	H 	0.604	0.4446	0.7505	0.05
Mof_C 	C 	0.7315	0.47581	0.71073	-0.065
Mof_C 	C 	0.8001	0.41917	0.76421	0.315
Mof_C 	C 	0.0514	0.30697	0.9782	0.281
Mof_C 	C 	0.2243	0.35747	0.9845	0.013
Mof_H 	H 	0.2036	0.3768	0.9247	0.052
Mof_C 	C 	0.1578	0.31764	0.02504	-0.07
Mof_C 	C 	0.3209	0.36909	0.0312	-0.068
Mof_H 	H 	0.3664	0.3957	0.0028	0.064
Mof_C 	C 	0.1886	0.29115	0.1128	0.02
Mof_H 	H 	0.1435	0.2637	0.1406	0.057
Mof_C 	C 	0.3517	0.34217	0.1192	0.012
Mof_H 	H 	0.4181	0.3496	0.1508	0.043
Mof_C 	C 	0.2838	0.30392	0.16076	-0.08
Mof_C 	C 	0.311	0.27694	0.25656	0.3
Mof_Cd	Cd	0.65877	0.20953	0.07456	0.51
Mof_O 	O 	0.80129	0.1787	0.99927	-0.257
Mof_O 	O 	0.65773	0.12086	0.96233	-0.237
Mof_O 	O 	0.50311	0.76493	0.48676	-0.254
Mof_O 	O 	0.48083	0.84473	0.5925	-0.263
Mof_O 	O 	0.61999	0.90951	0.76465	-0.267
Mof_O 	O 	0.72661	0.88748	0.67079	-0.256
Mof_O 	O 	0.09896	0.76274	0.20914	-0.296
Mof_O 	O 	0.25681	0.76899	0.19809	-0.252
Mof_C 	C 	0.748	0.12874	0.95668	0.292
Mof_C 	C 	0.792	0.07558	0.8985	-0.04
Mof_C 	C 	0.8931	0.07555	0.898	-0.036
Mof_H 	H 	0.936	0.109	0.9355	0.069
Mof_C 	C 	0.7305	0.02523	0.8448	-0.008
Mof_H 	H 	0.6614	0.0246	0.8461	0.077
Mof_C 	C 	0.9318	0.02659	0.8426	0.004
Mof_H 	H 	0.0011	0.0267	0.8421	0.021
Mof_C 	C 	0.8693	0.9774	0.788	-0.036
Mof_H 	H 	0.896	0.9446	0.7495	0.067
Mof_C 	C 	0.7685	0.97581	0.78927	-0.047
Mof_C 	C 	0.6999	0.91917	0.73579	0.31
Mof_C 	C 	0.4486	0.80697	0.5218	0.303
Mof_C 	C 	0.2757	0.85747	0.5155	0.01
Mof_H 	H 	0.2964	0.8768	0.5753	0.053
Mof_C 	C 	0.3422	0.81764	0.47496	-0.069
Mof_C 	C 	0.1791	0.86909	0.4688	-0.065
Mof_H 	H 	0.1336	0.8957	0.4972	0.06
Mof_C 	C 	0.3114	0.79115	0.3872	0.021
Mof_H 	H 	0.3565	0.7637	0.3594	0.061
Mof_C 	C 	0.1483	0.84217	0.3808	0.011
Mof_H 	H 	0.0819	0.8496	0.3492	0.038
Mof_C 	C 	0.2162	0.80392	0.33924	-0.08
Mof_C 	C 	0.189	0.77694	0.24344	0.301
Mof_Cd	Cd	0.15877	0.70953	0.07456	0.506
Mof_O 	O 	0.30129	0.6787	0.99927	-0.26
Mof_O 	O 	0.15773	0.62086	0.96233	-0.242
Mof_O 	O 	0.00311	0.26493	0.48676	-0.278
Mof_O 	O 	0.98083	0.34473	0.5925	-0.256
Mof_O 	O 	0.11999	0.40951	0.76465	-0.272
Mof_O 	O 	0.22661	0.38748	0.67079	-0.26
Mof_O 	O 	0.59896	0.26274	0.20914	-0.291
Mof_O 	O 	0.75681	0.26899	0.19809	-0.25
Mof_C 	C 	0.248	0.62874	0.95668	0.301
Mof_C 	C 	0.292	0.57558	0.8985	-0.063
Mof_C 	C 	0.3931	0.57555	0.898	0.003
Mof_H 	H 	0.436	0.609	0.9355	0.05
Mof_C 	C 	0.2305	0.52523	0.8448	0.012
Mof_H 	H 	0.1614	0.5246	0.8461	0.067
Mof_C 	C 	0.4318	0.52659	0.8426	-0.066
Mof_H 	H 	0.5011	0.5267	0.8421	0.058
Mof_C 	C 	0.3693	0.4774	0.788	0.004
Mof_H 	H 	0.396	0.4446	0.7495	0.049
Mof_C 	C 	0.2685	0.47581	0.78927	-0.069
Mof_C 	C 	0.1999	0.41917	0.73579	0.317
Mof_C 	C 	0.9486	0.30697	0.5218	0.33
Mof_C 	C 	0.7757	0.35747	0.5155	0.015
Mof_H 	H 	0.7964	0.3768	0.5753	0.052
Mof_C 	C 	0.8422	0.31764	0.47496	-0.075
Mof_C 	C 	0.6791	0.36909	0.4688	-0.067
Mof_H 	H 	0.6336	0.3957	0.4972	0.064
Mof_C 	C 	0.8114	0.29115	0.3872	0.026
Mof_H 	H 	0.8565	0.2637	0.3594	0.064
Mof_C 	C 	0.6483	0.34217	0.3808	0.012
Mof_H 	H 	0.5819	0.3496	0.3492	0.043
Mof_C 	C 	0.7162	0.30392	0.33924	-0.08
Mof_C 	C 	0.689	0.27694	0.24344	0.3
Mof_Cd	Cd	0.5	0.17252	0.25	0.515
Mof_Cd	Cd	1.21693e-33	0.67252	0.25	0.493
Mof_Cd	Cd	0.5	0.82748	0.75	0.516
Mof_Cd	Cd	3.65079e-33	0.32748	0.75	0.494
_end
