# CIF file generated by openbabel 3.1.0, see https://openbabel.org
data_I
_chemical_name_common 'image0'
_cell_length_a 16.901
_cell_length_b 16.901
_cell_length_c 14.082
_cell_angle_alpha 90
_cell_angle_beta 90
_cell_angle_gamma 120
_space_group_name_H-M_alt 'P 1'
_space_group_name_Hall 'P 1'
loop_
    _symmetry_equiv_pos_as_xyz
    x,y,z
loop_
    _atom_site_label
    _atom_site_type_symbol
    _atom_site_fract_x
    _atom_site_fract_y
    _atom_site_fract_z
    _atom_site_occupancy
    O1       O        0.77900    0.35450    0.18160    1.000
    N1       N        0.11140    0.60470    0.41160    1.000
    N2       N        0.22750    0.66690    0.51600    1.000
    C1       C        0.96720    0.50800    0.32960    1.000
    H1       H        0.93550    0.50800    0.38350    1.000
    C2       C        0.06150    0.55590    0.32930    1.000
    C3       C        0.19070    0.61220    0.44290    1.000
    H2       H        0.21700    0.58100    0.41470    1.000
    C4       C        0.16780    0.69940    0.53450    1.000
    C5       C        0.17210    0.75900    0.60580    1.000
    H3       H        0.22010    0.78410    0.64910    1.000
    C6       C        0.10360    0.77920    0.60960    1.000
    H4       H        0.10480    0.81860    0.65650    1.000
    C7       C        0.03070    0.74130    0.54370    1.000
    H5       H        0.98460    0.75600    0.54840    1.000
    C8       C        0.02640    0.68270    0.47190    1.000
    H6       H        0.97950    0.65900    0.42720    1.000
    C9       C        0.09480    0.66200    0.47070    1.000
    O2       O        0.64550    0.42450    0.18160    1.000
    N3       N        0.39530    0.50670    0.41160    1.000
    N4       N        0.33310    0.56060    0.51600    1.000
    C10      C        0.49200    0.45920    0.32960    1.000
    H7       H        0.49200    0.42750    0.38350    1.000
    C11      C        0.44410    0.50560    0.32930    1.000
    C12      C        0.38780    0.57850    0.44290    1.000
    H8       H        0.41900    0.63600    0.41470    1.000
    C13      C        0.30060    0.46840    0.53450    1.000
    C14      C        0.24100    0.41310    0.60580    1.000
    H9       H        0.21590    0.43600    0.64910    1.000
    C15      C        0.22080    0.32440    0.60960    1.000
    H10      H        0.18140    0.28620    0.65650    1.000
    C16      C        0.25870    0.28940    0.54370    1.000
    H11      H        0.24400    0.22860    0.54840    1.000
    C17      C        0.31730    0.34370    0.47190    1.000
    H12      H        0.34100    0.32050    0.42720    1.000
    C18      C        0.33800    0.43280    0.47070    1.000
    O3       O        0.57550    0.22100    0.18160    1.000
    N5       N        0.49330    0.88860    0.41160    1.000
    N6       N        0.43940    0.77250    0.51600    1.000
    C19      C        0.54080    0.03280    0.32960    1.000
    H13      H        0.57250    0.06450    0.38350    1.000
    C20      C        0.49440    0.93850    0.32930    1.000
    C21      C        0.42150    0.80930    0.44290    1.000
    H14      H        0.36400    0.78300    0.41470    1.000
    C22      C        0.53160    0.83220    0.53450    1.000
    C23      C        0.58690    0.82790    0.60580    1.000
    H15      H        0.56400    0.77990    0.64910    1.000
    C24      C        0.67560    0.89640    0.60960    1.000
    H16      H        0.71380    0.89520    0.65650    1.000
    C25      C        0.71060    0.96930    0.54370    1.000
    H17      H        0.77140    0.01540    0.54840    1.000
    C26      C        0.65630    0.97360    0.47190    1.000
    H18      H        0.67950    0.02050    0.42720    1.000
    C27      C        0.56720    0.90520    0.47070    1.000
    O4       O        0.64550    0.22100    0.31840    1.000
    N7       N        0.39530    0.88860    0.08840    1.000
    N8       N        0.33310    0.77250    0.98400    1.000
    C28      C        0.49200    0.03280    0.17040    1.000
    H19      H        0.49200    0.06450    0.11650    1.000
    C29      C        0.44410    0.93850    0.17070    1.000
    C30      C        0.38780    0.80930    0.05710    1.000
    H20      H        0.41900    0.78300    0.08530    1.000
    C31      C        0.30060    0.83220    0.96550    1.000
    C32      C        0.24100    0.82790    0.89420    1.000
    H21      H        0.21590    0.77990    0.85090    1.000
    C33      C        0.22080    0.89640    0.89040    1.000
    H22      H        0.18140    0.89520    0.84350    1.000
    C34      C        0.25870    0.96930    0.95630    1.000
    H23      H        0.24400    0.01540    0.95160    1.000
    C35      C        0.31730    0.97360    0.02810    1.000
    H24      H        0.34100    0.02050    0.07280    1.000
    C36      C        0.33800    0.90520    0.02930    1.000
    O5       O        0.57550    0.35450    0.31840    1.000
    N9       N        0.49330    0.60470    0.08840    1.000
    N10      N        0.43940    0.66690    0.98400    1.000
    C37      C        0.54080    0.50800    0.17040    1.000
    H25      H        0.57250    0.50800    0.11650    1.000
    C38      C        0.49440    0.55590    0.17070    1.000
    C39      C        0.42150    0.61220    0.05710    1.000
    H26      H        0.36400    0.58100    0.08530    1.000
    C40      C        0.53160    0.69940    0.96550    1.000
    C41      C        0.58690    0.75900    0.89420    1.000
    H27      H        0.56400    0.78410    0.85090    1.000
    C42      C        0.67560    0.77920    0.89040    1.000
    H28      H        0.71380    0.81860    0.84350    1.000
    C43      C        0.71060    0.74130    0.95630    1.000
    H29      H        0.77140    0.75600    0.95160    1.000
    C44      C        0.65630    0.68270    0.02810    1.000
    H30      H        0.67950    0.65900    0.07280    1.000
    C45      C        0.56720    0.66200    0.02930    1.000
    O6       O        0.77900    0.42450    0.31840    1.000
    N11      N        0.11140    0.50670    0.08840    1.000
    N12      N        0.22750    0.56060    0.98400    1.000
    C46      C        0.96720    0.45920    0.17040    1.000
    H31      H        0.93550    0.42750    0.11650    1.000
    C47      C        0.06150    0.50560    0.17070    1.000
    C48      C        0.19070    0.57850    0.05710    1.000
    H32      H        0.21700    0.63600    0.08530    1.000
    C49      C        0.16780    0.46840    0.96550    1.000
    C50      C        0.17210    0.41310    0.89420    1.000
    H33      H        0.22010    0.43600    0.85090    1.000
    C51      C        0.10360    0.32440    0.89040    1.000
    H34      H        0.10480    0.28620    0.84350    1.000
    C52      C        0.03070    0.28940    0.95630    1.000
    H35      H        0.98460    0.22860    0.95160    1.000
    C53      C        0.02640    0.34370    0.02810    1.000
    H36      H        0.97950    0.32050    0.07280    1.000
    C54      C        0.09480    0.43280    0.02930    1.000
    O7       O        0.22100    0.64550    0.81840    1.000
    N13      N        0.88860    0.39530    0.58840    1.000
    N14      N        0.77250    0.33310    0.48400    1.000
    C55      C        0.03280    0.49200    0.67040    1.000
    H37      H        0.06450    0.49200    0.61650    1.000
    C56      C        0.93850    0.44410    0.67070    1.000
    C57      C        0.80930    0.38780    0.55710    1.000
    H38      H        0.78300    0.41900    0.58530    1.000
    C58      C        0.83220    0.30060    0.46550    1.000
    C59      C        0.82790    0.24100    0.39420    1.000
    H39      H        0.77990    0.21590    0.35090    1.000
    C60      C        0.89640    0.22080    0.39040    1.000
    H40      H        0.89520    0.18140    0.34350    1.000
    C61      C        0.96930    0.25870    0.45630    1.000
    H41      H        0.01540    0.24400    0.45160    1.000
    C62      C        0.97360    0.31730    0.52810    1.000
    H42      H        0.02050    0.34100    0.57280    1.000
    C63      C        0.90520    0.33800    0.52930    1.000
    O8       O        0.35450    0.57550    0.81840    1.000
    N15      N        0.60470    0.49330    0.58840    1.000
    N16      N        0.66690    0.43940    0.48400    1.000
    C64      C        0.50800    0.54080    0.67040    1.000
    H43      H        0.50800    0.57250    0.61650    1.000
    C65      C        0.55590    0.49440    0.67070    1.000
    C66      C        0.61220    0.42150    0.55710    1.000
    H44      H        0.58100    0.36400    0.58530    1.000
    C67      C        0.69940    0.53160    0.46550    1.000
    C68      C        0.75900    0.58690    0.39420    1.000
    H45      H        0.78410    0.56400    0.35090    1.000
    C69      C        0.77920    0.67560    0.39040    1.000
    H46      H        0.81860    0.71380    0.34350    1.000
    C70      C        0.74130    0.71060    0.45630    1.000
    H47      H        0.75600    0.77140    0.45160    1.000
    C71      C        0.68270    0.65630    0.52810    1.000
    H48      H        0.65900    0.67950    0.57280    1.000
    C72      C        0.66200    0.56720    0.52930    1.000
    O9       O        0.42450    0.77900    0.81840    1.000
    N17      N        0.50670    0.11140    0.58840    1.000
    N18      N        0.56060    0.22750    0.48400    1.000
    C73      C        0.45920    0.96720    0.67040    1.000
    H49      H        0.42750    0.93550    0.61650    1.000
    C74      C        0.50560    0.06150    0.67070    1.000
    C75      C        0.57850    0.19070    0.55710    1.000
    H50      H        0.63600    0.21700    0.58530    1.000
    C76      C        0.46840    0.16780    0.46550    1.000
    C77      C        0.41310    0.17210    0.39420    1.000
    H51      H        0.43600    0.22010    0.35090    1.000
    C78      C        0.32440    0.10360    0.39040    1.000
    H52      H        0.28620    0.10480    0.34350    1.000
    C79      C        0.28940    0.03070    0.45630    1.000
    H53      H        0.22860    0.98460    0.45160    1.000
    C80      C        0.34370    0.02640    0.52810    1.000
    H54      H        0.32050    0.97950    0.57280    1.000
    C81      C        0.43280    0.09480    0.52930    1.000
    O10      O        0.35450    0.77900    0.68160    1.000
    N19      N        0.60470    0.11140    0.91160    1.000
    N20      N        0.66690    0.22750    0.01600    1.000
    C82      C        0.50800    0.96720    0.82960    1.000
    H55      H        0.50800    0.93550    0.88350    1.000
    C83      C        0.55590    0.06150    0.82930    1.000
    C84      C        0.61220    0.19070    0.94290    1.000
    H56      H        0.58100    0.21700    0.91470    1.000
    C85      C        0.69940    0.16780    0.03450    1.000
    C86      C        0.75900    0.17210    0.10580    1.000
    H57      H        0.78410    0.22010    0.14910    1.000
    C87      C        0.77920    0.10360    0.10960    1.000
    H58      H        0.81860    0.10480    0.15650    1.000
    C88      C        0.74130    0.03070    0.04370    1.000
    H59      H        0.75600    0.98460    0.04840    1.000
    C89      C        0.68270    0.02640    0.97190    1.000
    H60      H        0.65900    0.97950    0.92720    1.000
    C90      C        0.66200    0.09480    0.97070    1.000
    O11      O        0.42450    0.64550    0.68160    1.000
    N21      N        0.50670    0.39530    0.91160    1.000
    N22      N        0.56060    0.33310    0.01600    1.000
    C91      C        0.45920    0.49200    0.82960    1.000
    H61      H        0.42750    0.49200    0.88350    1.000
    C92      C        0.50560    0.44410    0.82930    1.000
    C93      C        0.57850    0.38780    0.94290    1.000
    H62      H        0.63600    0.41900    0.91470    1.000
    C94      C        0.46840    0.30060    0.03450    1.000
    C95      C        0.41310    0.24100    0.10580    1.000
    H63      H        0.43600    0.21590    0.14910    1.000
    C96      C        0.32440    0.22080    0.10960    1.000
    H64      H        0.28620    0.18140    0.15650    1.000
    C97      C        0.28940    0.25870    0.04370    1.000
    H65      H        0.22860    0.24400    0.04840    1.000
    C98      C        0.34370    0.31730    0.97190    1.000
    H66      H        0.32050    0.34100    0.92720    1.000
    C99      C        0.43280    0.33800    0.97070    1.000
    O12      O        0.22100    0.57550    0.68160    1.000
    N23      N        0.88860    0.49330    0.91160    1.000
    N24      N        0.77250    0.43940    0.01600    1.000
    C100     C        0.03280    0.54080    0.82960    1.000
    H67      H        0.06450    0.57250    0.88350    1.000
    C101     C        0.93850    0.49440    0.82930    1.000
    C102     C        0.80930    0.42150    0.94290    1.000
    H68      H        0.78300    0.36400    0.91470    1.000
    C103     C        0.83220    0.53160    0.03450    1.000
    C104     C        0.82790    0.58690    0.10580    1.000
    H69      H        0.77990    0.56400    0.14910    1.000
    C105     C        0.89640    0.67560    0.10960    1.000
    H70      H        0.89520    0.71380    0.15650    1.000
    C106     C        0.96930    0.71060    0.04370    1.000
    H71      H        0.01540    0.77140    0.04840    1.000
    C107     C        0.97360    0.65630    0.97190    1.000
    H72      H        0.02050    0.67950    0.92720    1.000
    C108     C        0.90520    0.56720    0.97070    1.000
    Co1      Co       0.66667    0.33333    0.10379    1.000
    Co2      Co       0.66667    0.33333    0.39621    1.000
    Co3      Co       0.33333    0.66667    0.89621    1.000
    Co4      Co       0.33333    0.66667    0.60379    1.000
    C109     C        0.81690    0.40845    0.25000    1.000
    C110     C        0.92000    0.46000    0.25000    1.000
    C111     C        0.10870    0.55435    0.25000    1.000
    H73      H        0.17230    0.58615    0.25000    1.000
    C112     C        0.59155    0.40845    0.25000    1.000
    C113     C        0.54000    0.46000    0.25000    1.000
    C114     C        0.44565    0.55435    0.25000    1.000
    H74      H        0.41385    0.58615    0.25000    1.000
    C115     C        0.59155    0.18310    0.25000    1.000
    C116     C        0.54000    0.08000    0.25000    1.000
    C117     C        0.44565    0.89130    0.25000    1.000
    H75      H        0.41385    0.82770    0.25000    1.000
    C118     C        0.18310    0.59155    0.75000    1.000
    C119     C        0.08000    0.54000    0.75000    1.000
    C120     C        0.89130    0.44565    0.75000    1.000
    H76      H        0.82770    0.41385    0.75000    1.000
    C121     C        0.40845    0.59155    0.75000    1.000
    C122     C        0.46000    0.54000    0.75000    1.000
    C123     C        0.55435    0.44565    0.75000    1.000
    H77      H        0.58615    0.41385    0.75000    1.000
    C124     C        0.40845    0.81690    0.75000    1.000
    C125     C        0.46000    0.92000    0.75000    1.000
    C126     C        0.55435    0.10870    0.75000    1.000
    H78      H        0.58615    0.17230    0.75000    1.000
