data_functionalizedCrystal
_audit_creation_method	'EQeq! by Chris Wilmer'
_symmetry_space_group_name_H-M	'P1'
_symmetry_Int_Tables_number	1
_symmetry_cell_setting	triclinic
loop_
_symmetry_equiv_pos_as_xyz
  x,y,z
_cell_length_a	17.2841
_cell_length_b	17.2841
_cell_length_c	20.9702
_cell_angle_alpha	90
_cell_angle_beta	90
_cell_angle_gamma	90
loop_
_atom_site_label
_atom_site_type_symbol
_atom_site_fract_x
_atom_site_fract_y
_atom_site_fract_z
_atom_site_charge
Mof_Cd	Cd	0.19721	0.7556	0.00234	0.315
Mof_N 	N 	0.7912	0.6318	0.9437	-0.162
Mof_N 	N 	0.6555	0.3098	0.7742	-0.152
Mof_N 	N 	0.1372	0.1701	0.0854	-0.141
Mof_N 	N 	0.83	0.3816	0.2188	-0.155
Mof_O 	O 	0.8017	0.6982	0.8495	-0.223
Mof_O 	O 	0.7973	0.5587	0.0308	-0.238
Mof_O 	O 	0.6603	0.2377	0.8648	-0.212
Mof_O 	O 	0.6443	0.382	0.6855	-0.231
Mof_O 	O 	0.0733	0.1588	0.9941	-0.213
Mof_O 	O 	0.201	0.1772	0.1795	-0.23
Mof_O 	O 	0.7587	0.3664	0.1279	-0.21
Mof_O 	O 	0.9023	0.4042	0.3049	-0.23
Mof_C 	C 	0.9056	0.7073	0.9827	0.153
Mof_C 	C 	0.9419	0.761	0.0269	-0.198
Mof_H 	H 	0.9101	0.7864	0.0559	0.097
Mof_C 	C 	0.0169	0.7762	0.0288	0.107
Mof_H 	H 	0.0359	0.8148	0.0555	-0.009
Mof_N 	N 	0.0654	0.735	0.9915	-0.175
Mof_C 	C 	0.0394	0.6849	0.9571	0.128
Mof_H 	H 	0.0755	0.6551	0.9353	-0.004
Mof_C 	C 	0.957	0.6658	0.946	-0.179
Mof_H 	H 	0.9412	0.6288	0.9165	0.111
Mof_C 	C 	0.8179	0.6993	0.9787	-0.122
Mof_H 	H 	0.7972	0.6971	0.0216	0.074
Mof_H 	H 	0.7972	0.7453	0.9584	0.091
Mof_C 	C 	0.7853	0.6387	0.8779	0.21
Mof_C 	C 	0.7566	0.5697	0.8415	-0.053
Mof_C 	C 	0.7433	0.5722	0.7752	-0.023
Mof_H 	H 	0.753	0.618	0.7534	0.063
Mof_C 	C 	0.7172	0.5113	0.7424	-0.028
Mof_H 	H 	0.7103	0.5142	0.6985	0.061
Mof_C 	C 	0.7005	0.4433	0.7756	-0.05
Mof_C 	C 	0.6647	0.3758	0.7413	0.206
Mof_C 	C 	0.6717	0.2998	0.8355	0.192
Mof_C 	C 	0.7013	0.3692	0.8724	-0.037
Mof_C 	C 	0.7195	0.3638	0.9335	-0.047
Mof_H 	H 	0.715	0.3157	0.953	0.078
Mof_C 	C 	0.7445	0.4249	0.9697	0.009
Mof_H 	H 	0.7542	0.419	0.0131	0.053
Mof_C 	C 	0.755	0.4954	0.9403	-0.067
Mof_C 	C 	0.7826	0.5664	0.9734	0.234
Mof_C 	C 	0.7401	0.5025	0.8751	0.037
Mof_C 	C 	0.7137	0.4341	0.8404	0.02
Mof_C 	C 	0.6269	0.2444	0.7386	-0.184
Mof_H 	H 	0.6506	0.1974	0.7547	0.106
Mof_H 	H 	0.6416	0.25	0.6941	0.099
Mof_C 	C 	0.5385	0.2374	0.7433	0.227
Mof_C 	C 	0.5021	0.1981	0.7011	-0.254
Mof_H 	H 	0.5318	0.1739	0.6699	0.122
Mof_C 	C 	0.424	0.1884	0.6977	0.128
Mof_H 	H 	0.4029	0.1609	0.6638	-0.002
Mof_N 	N 	0.3775	0.2177	0.7419	-0.179
Mof_C 	C 	0.4057	0.2645	0.7886	0.09
Mof_H 	H 	0.3758	0.288	0.82	0.008
Mof_C 	C 	0.4879	0.2726	0.7828	-0.204
Mof_H 	H 	0.5099	0.308	0.8108	0.12
Mof_C 	C 	0.2006	0.0473	0.0439	0.215
Mof_C 	C 	0.2241	0.0175	0.9911	-0.239
Mof_H 	H 	0.2412	0.0495	0.9583	0.118
Mof_C 	C 	0.2239	0.9378	0.9826	0.136
Mof_H 	H 	0.246	0.9174	0.9458	-0.015
Mof_N 	N 	0.192	0.8874	0.027	-0.189
Mof_C 	C 	0.1703	0.9214	0.0785	0.151
Mof_H 	H 	0.1515	0.8905	0.1114	-0.012
Mof_C 	C 	0.1725	0.0006	0.0889	-0.249
Mof_H 	H 	0.1545	0.0211	0.1271	0.141
Mof_C 	C 	0.2033	0.136	0.0534	-0.173
Mof_H 	H 	0.2494	0.1486	0.0777	0.103
Mof_H 	H 	0.2086	0.1602	0.0118	0.094
Mof_C 	C 	0.0732	0.1834	0.0486	0.189
Mof_C 	C 	0.0066	0.2278	0.0751	-0.033
Mof_C 	C 	0.9408	0.2374	0.038	-0.061
Mof_H 	H 	0.936	0.2166	0.9973	0.088
Mof_C 	C 	0.8804	0.2823	0.0678	-0.004
Mof_H 	H 	0.8362	0.2934	0.0442	0.06
Mof_C 	C 	0.8848	0.3087	0.1274	-0.055
Mof_C 	C 	0.8209	0.3561	0.158	0.195
Mof_C 	C 	0.896	0.372	0.2528	0.211
Mof_C 	C 	0.9596	0.3263	0.2254	-0.066
Mof_C 	C 	0.0257	0.3113	0.2631	-0.009
Mof_H 	H 	0.0286	0.3302	0.3046	0.053
Mof_C 	C 	0.0865	0.2681	0.2378	-0.044
Mof_H 	H 	0.1305	0.258	0.262	0.082
Mof_C 	C 	0.0801	0.2406	0.1762	-0.033
Mof_C 	C 	0.1443	0.1922	0.1486	0.21
Mof_C 	C 	0.0153	0.2542	0.1395	0.013
Mof_C 	C 	0.9521	0.298	0.1643	0.038
Mof_C 	C 	0.7647	0.4184	0.2496	-0.121
Mof_H 	H 	0.7646	0.4047	0.2944	0.08
Mof_H 	H 	0.7172	0.3989	0.2308	0.089
Mof_C 	C 	0.7661	0.5085	0.2432	0.116
Mof_C 	C 	0.7874	0.5472	0.1953	-0.055
Mof_H 	H 	0.8043	0.5231	0.1582	0.081
Mof_C 	C 	0.7847	0.6224	0.2001	-0.175
Mof_H 	H 	0.7986	0.6487	0.1632	0.054
Mof_N 	N 	0.7669	0.6646	0.2451	-0.148
Mof_C 	C 	0.7324	0.6284	0.2967	0.048
Mof_C 	C 	0.7321	0.5479	0.2931	-0.17
Mof_H 	H 	0.7081	0.5199	0.3253	0.097
Mof_C 	C 	0.498	0.2844	0.7095	0.009
Mof_C 	C 	0.4209	0.2848	0.7017	0.002
Mof_C 	C 	0.4353	0.174	0.7715	0.046
Mof_C 	C 	0.5187	0.1839	0.7694	-0.033
Mof_C 	C 	0.7465	0.5505	0.1955	-0.041
Mof_C 	C 	0.7478	0.6262	0.1907	0.199
Mof_C 	C 	0.7973	0.6347	0.2895	0.05
Mof_C 	C 	0.7991	0.5537	0.2949	0.022
Mof_Cd	Cd	0.80279	0.2444	0.50234	0.328
Mof_N 	N 	0.2088	0.3682	0.4437	-0.155
Mof_N 	N 	0.3445	0.6902	0.2742	-0.152
Mof_N 	N 	0.8628	0.8299	0.5854	-0.141
Mof_N 	N 	0.17	0.6184	0.7188	-0.153
Mof_O 	O 	0.1983	0.3018	0.3495	-0.222
Mof_O 	O 	0.2027	0.4413	0.5308	-0.225
Mof_O 	O 	0.3397	0.7623	0.3648	-0.214
Mof_O 	O 	0.3557	0.618	0.1855	-0.232
Mof_O 	O 	0.9267	0.8412	0.4941	-0.228
Mof_O 	O 	0.799	0.8228	0.6795	-0.23
Mof_O 	O 	0.2413	0.6336	0.6279	-0.209
Mof_O 	O 	0.0977	0.5958	0.8049	-0.229
Mof_C 	C 	0.0944	0.2927	0.4827	0.149
Mof_C 	C 	0.0581	0.239	0.5269	-0.193
Mof_H 	H 	0.0899	0.2136	0.5559	0.097
Mof_C 	C 	0.9831	0.2238	0.5288	0.118
Mof_H 	H 	0.9641	0.1852	0.5555	-0.011
Mof_N 	N 	0.9346	0.265	0.4915	-0.184
Mof_C 	C 	0.9606	0.3151	0.4571	0.126
Mof_H 	H 	0.9245	0.3449	0.4353	-0.005
Mof_C 	C 	0.043	0.3342	0.446	-0.18
Mof_H 	H 	0.0588	0.3712	0.4165	0.111
Mof_C 	C 	0.1821	0.3007	0.4787	-0.142
Mof_H 	H 	0.2028	0.3029	0.5216	0.086
Mof_H 	H 	0.2028	0.2547	0.4584	0.095
Mof_C 	C 	0.2147	0.3613	0.3779	0.206
Mof_C 	C 	0.2434	0.4303	0.3415	-0.047
Mof_C 	C 	0.2567	0.4278	0.2752	-0.029
Mof_H 	H 	0.247	0.382	0.2534	0.065
Mof_C 	C 	0.2828	0.4887	0.2424	-0.021
Mof_H 	H 	0.2897	0.4858	0.1985	0.059
Mof_C 	C 	0.2995	0.5567	0.2756	-0.056
Mof_C 	C 	0.3353	0.6242	0.2413	0.208
Mof_C 	C 	0.3283	0.7002	0.3355	0.197
Mof_C 	C 	0.2987	0.6308	0.3724	-0.053
Mof_C 	C 	0.2805	0.6362	0.4335	-0.02
Mof_H 	H 	0.285	0.6843	0.453	0.065
Mof_C 	C 	0.2555	0.5751	0.4697	-0.032
Mof_H 	H 	0.2458	0.581	0.5131	0.073
Mof_C 	C 	0.245	0.5046	0.4403	-0.048
Mof_C 	C 	0.2174	0.4336	0.4734	0.214
Mof_C 	C 	0.2599	0.4975	0.3751	0.024
Mof_C 	C 	0.2863	0.5659	0.3404	0.032
Mof_C 	C 	0.3731	0.7556	0.2386	-0.183
Mof_H 	H 	0.3494	0.8026	0.2547	0.106
Mof_H 	H 	0.3584	0.75	0.1941	0.099
Mof_C 	C 	0.4615	0.7626	0.2433	0.228
Mof_C 	C 	0.4979	0.8019	0.2011	-0.254
Mof_H 	H 	0.4682	0.8261	0.1699	0.122
Mof_C 	C 	0.576	0.8116	0.1977	0.129
Mof_H 	H 	0.5971	0.8391	0.1638	-0.003
Mof_N 	N 	0.6225	0.7823	0.2419	-0.179
Mof_C 	C 	0.5943	0.7355	0.2886	0.09
Mof_H 	H 	0.6242	0.712	0.32	0.007
Mof_C 	C 	0.5121	0.7274	0.2828	-0.203
Mof_H 	H 	0.4901	0.692	0.3108	0.119
Mof_C 	C 	0.7994	0.9527	0.5439	0.242
Mof_C 	C 	0.7759	0.9825	0.4911	-0.267
Mof_H 	H 	0.7588	0.9505	0.4583	0.125
Mof_C 	C 	0.7761	0.0622	0.4826	0.137
Mof_H 	H 	0.754	0.0826	0.4458	-0.018
Mof_N 	N 	0.808	0.1126	0.527	-0.187
Mof_C 	C 	0.8297	0.0786	0.5785	0.162
Mof_H 	H 	0.8485	0.1095	0.6114	-0.015
Mof_C 	C 	0.8275	0.9994	0.5889	-0.266
Mof_H 	H 	0.8455	0.9789	0.6271	0.147
Mof_C 	C 	0.7967	0.864	0.5534	-0.186
Mof_H 	H 	0.7506	0.8514	0.5777	0.108
Mof_H 	H 	0.7914	0.8398	0.5118	0.101
Mof_C 	C 	0.9268	0.8166	0.5486	0.207
Mof_C 	C 	0.9934	0.7722	0.5751	-0.047
Mof_C 	C 	0.0592	0.7626	0.538	-0.03
Mof_H 	H 	0.064	0.7834	0.4973	0.071
Mof_C 	C 	0.1196	0.7177	0.5678	-0.02
Mof_H 	H 	0.1638	0.7066	0.5442	0.068
Mof_C 	C 	0.1152	0.6913	0.6274	-0.045
Mof_C 	C 	0.1791	0.6439	0.658	0.192
Mof_C 	C 	0.104	0.628	0.7528	0.209
Mof_C 	C 	0.0404	0.6737	0.7254	-0.062
Mof_C 	C 	0.9743	0.6887	0.7631	-0.012
Mof_H 	H 	0.9714	0.6698	0.8046	0.054
Mof_C 	C 	0.9135	0.7319	0.7378	-0.04
Mof_H 	H 	0.8695	0.742	0.762	0.08
Mof_C 	C 	0.9199	0.7594	0.6762	-0.038
Mof_C 	C 	0.8557	0.8078	0.6486	0.212
Mof_C 	C 	0.9847	0.7458	0.6395	0.022
Mof_C 	C 	0.0479	0.702	0.6643	0.032
Mof_C 	C 	0.2353	0.5816	0.7496	-0.121
Mof_H 	H 	0.2354	0.5953	0.7944	0.08
Mof_H 	H 	0.2828	0.6011	0.7308	0.089
Mof_C 	C 	0.2339	0.4915	0.7432	0.117
Mof_C 	C 	0.2126	0.4528	0.6953	-0.056
Mof_H 	H 	0.1957	0.4769	0.6582	0.082
Mof_C 	C 	0.2153	0.3776	0.7001	-0.177
Mof_H 	H 	0.2014	0.3513	0.6632	0.054
Mof_N 	N 	0.2331	0.3354	0.7451	-0.148
Mof_C 	C 	0.2676	0.3716	0.7967	0.049
Mof_C 	C 	0.2679	0.4521	0.7931	-0.171
Mof_H 	H 	0.2919	0.4801	0.8253	0.097
Mof_C 	C 	0.502	0.7156	0.2095	0.009
Mof_C 	C 	0.5791	0.7152	0.2017	0.001
Mof_C 	C 	0.5647	0.826	0.2715	0.045
Mof_C 	C 	0.4813	0.8161	0.2694	-0.034
Mof_C 	C 	0.2535	0.4495	0.6955	-0.039
Mof_C 	C 	0.2522	0.3738	0.6907	0.2
Mof_C 	C 	0.2027	0.3653	0.7895	0.05
Mof_C 	C 	0.2009	0.4463	0.7949	0.023
Mof_Cd	Cd	0.2444	0.19721	0.75234	0.329
Mof_N 	N 	0.3682	0.7912	0.6937	-0.155
Mof_N 	N 	0.6902	0.6555	0.5242	-0.152
Mof_N 	N 	0.8299	0.1372	0.8354	-0.143
Mof_N 	N 	0.6184	0.83	0.9688	-0.144
Mof_O 	O 	0.3018	0.8017	0.5995	-0.222
Mof_O 	O 	0.4413	0.7973	0.7808	-0.225
Mof_O 	O 	0.7623	0.6603	0.6148	-0.214
Mof_O 	O 	0.618	0.6443	0.4355	-0.231
Mof_O 	O 	0.8412	0.0733	0.7441	-0.229
Mof_O 	O 	0.8228	0.201	0.9295	-0.231
Mof_O 	O 	0.6336	0.7587	0.8779	-0.207
Mof_O 	O 	0.5958	0.9023	0.0549	-0.224
Mof_C 	C 	0.2927	0.9056	0.7327	0.149
Mof_C 	C 	0.239	0.9419	0.7769	-0.194
Mof_H 	H 	0.2136	0.9101	0.8059	0.097
Mof_C 	C 	0.2238	0.0169	0.7788	0.119
Mof_H 	H 	0.1852	0.0359	0.8055	-0.01
Mof_N 	N 	0.265	0.0654	0.7415	-0.184
Mof_C 	C 	0.3151	0.0394	0.7071	0.126
Mof_H 	H 	0.3449	0.0755	0.6853	-0.005
Mof_C 	C 	0.3342	0.957	0.696	-0.18
Mof_H 	H 	0.3712	0.9412	0.6665	0.111
Mof_C 	C 	0.3007	0.8179	0.7287	-0.143
Mof_H 	H 	0.3029	0.7972	0.7716	0.087
Mof_H 	H 	0.2547	0.7972	0.7084	0.095
Mof_C 	C 	0.3613	0.7853	0.6279	0.206
Mof_C 	C 	0.4303	0.7566	0.5915	-0.047
Mof_C 	C 	0.4278	0.7433	0.5252	-0.029
Mof_H 	H 	0.382	0.753	0.5034	0.065
Mof_C 	C 	0.4887	0.7172	0.4924	-0.022
Mof_H 	H 	0.4858	0.7103	0.4485	0.059
Mof_C 	C 	0.5567	0.7005	0.5256	-0.056
Mof_C 	C 	0.6242	0.6647	0.4913	0.208
Mof_C 	C 	0.7002	0.6717	0.5855	0.197
Mof_C 	C 	0.6308	0.7013	0.6224	-0.053
Mof_C 	C 	0.6362	0.7195	0.6835	-0.021
Mof_H 	H 	0.6843	0.715	0.703	0.065
Mof_C 	C 	0.5751	0.7445	0.7197	-0.032
Mof_H 	H 	0.581	0.7542	0.7631	0.073
Mof_C 	C 	0.5046	0.755	0.6903	-0.048
Mof_C 	C 	0.4336	0.7826	0.7234	0.214
Mof_C 	C 	0.4975	0.7401	0.6251	0.025
Mof_C 	C 	0.5659	0.7137	0.5904	0.031
Mof_C 	C 	0.7556	0.6269	0.4886	-0.183
Mof_H 	H 	0.8026	0.6506	0.5047	0.106
Mof_H 	H 	0.75	0.6416	0.4441	0.099
Mof_C 	C 	0.7626	0.5385	0.4933	0.227
Mof_C 	C 	0.8019	0.5021	0.4511	-0.253
Mof_H 	H 	0.8261	0.5318	0.4199	0.122
Mof_C 	C 	0.8116	0.424	0.4477	0.128
Mof_H 	H 	0.8391	0.4029	0.4138	-0.002
Mof_N 	N 	0.7823	0.3775	0.4919	-0.179
Mof_C 	C 	0.7355	0.4057	0.5386	0.09
Mof_H 	H 	0.712	0.3758	0.57	0.007
Mof_C 	C 	0.7274	0.4879	0.5328	-0.203
Mof_H 	H 	0.692	0.5099	0.5608	0.119
Mof_C 	C 	0.9527	0.2006	0.7939	0.243
Mof_C 	C 	0.9825	0.2241	0.7411	-0.267
Mof_H 	H 	0.9505	0.2412	0.7083	0.125
Mof_C 	C 	0.0622	0.2239	0.7326	0.137
Mof_H 	H 	0.0826	0.246	0.6958	-0.018
Mof_N 	N 	0.1126	0.192	0.777	-0.187
Mof_C 	C 	0.0786	0.1703	0.8285	0.163
Mof_H 	H 	0.1095	0.1515	0.8614	-0.015
Mof_C 	C 	0.9994	0.1725	0.8389	-0.266
Mof_H 	H 	0.9789	0.1545	0.8771	0.147
Mof_C 	C 	0.864	0.2033	0.8034	-0.185
Mof_H 	H 	0.8514	0.2494	0.8277	0.108
Mof_H 	H 	0.8398	0.2086	0.7618	0.101
Mof_C 	C 	0.8166	0.0732	0.7986	0.211
Mof_C 	C 	0.7722	0.0066	0.8251	-0.058
Mof_C 	C 	0.7626	0.9408	0.788	-0.019
Mof_H 	H 	0.7834	0.936	0.7473	0.067
Mof_C 	C 	0.7177	0.8804	0.8178	-0.032
Mof_H 	H 	0.7066	0.8362	0.7942	0.072
Mof_C 	C 	0.6913	0.8848	0.8774	-0.03
Mof_C 	C 	0.6439	0.8209	0.908	0.187
Mof_C 	C 	0.628	0.896	0.0028	0.177
Mof_C 	C 	0.6737	0.9596	0.9754	-0.011
Mof_C 	C 	0.6887	0.0257	0.0131	-0.083
Mof_H 	H 	0.6698	0.0286	0.0546	0.077
Mof_C 	C 	0.7319	0.0865	0.9878	0.031
Mof_H 	H 	0.742	0.1305	0.012	0.049
Mof_C 	C 	0.7594	0.0801	0.9262	-0.07
Mof_C 	C 	0.8078	0.1443	0.8986	0.223
Mof_C 	C 	0.7458	0.0153	0.8895	0.046
Mof_C 	C 	0.702	0.9521	0.9143	0.004
Mof_C 	C 	0.5816	0.7647	0.9996	-0.107
Mof_H 	H 	0.5953	0.7646	0.0444	0.07
Mof_H 	H 	0.6011	0.7172	0.9808	0.087
Mof_C 	C 	0.4915	0.7661	0.9932	0.129
Mof_C 	C 	0.4528	0.7874	0.9453	-0.055
Mof_H 	H 	0.4769	0.8043	0.9082	0.082
Mof_C 	C 	0.3776	0.7847	0.9501	-0.179
Mof_H 	H 	0.3513	0.7986	0.9132	0.055
Mof_N 	N 	0.3354	0.7669	0.9951	-0.138
Mof_C 	C 	0.3716	0.7324	0.0467	0.05
Mof_C 	C 	0.4521	0.7321	0.0431	-0.185
Mof_H 	H 	0.4801	0.7081	0.0753	0.1
Mof_C 	C 	0.7156	0.498	0.4595	0.009
Mof_C 	C 	0.7152	0.4209	0.4517	0.002
Mof_C 	C 	0.826	0.4353	0.5215	0.045
Mof_C 	C 	0.8161	0.5187	0.5194	-0.034
Mof_C 	C 	0.4495	0.7465	0.9455	-0.042
Mof_C 	C 	0.3738	0.7478	0.9407	0.204
Mof_C 	C 	0.3653	0.7973	0.0395	0.039
Mof_C 	C 	0.4463	0.7991	0.0449	0.022
Mof_Cd	Cd	0.7556	0.80279	0.25234	0.328
Mof_N 	N 	0.6318	0.2088	0.1937	-0.152
Mof_N 	N 	0.3098	0.3445	0.0242	-0.17
Mof_N 	N 	0.1701	0.8628	0.3354	-0.141
Mof_N 	N 	0.3816	0.17	0.4688	-0.153
Mof_O 	O 	0.6982	0.1983	0.0995	-0.22
Mof_O 	O 	0.5587	0.2027	0.2808	-0.224
Mof_O 	O 	0.2377	0.3397	0.1148	-0.217
Mof_O 	O 	0.382	0.3557	0.9355	-0.238
Mof_O 	O 	0.1588	0.9267	0.2441	-0.228
Mof_O 	O 	0.1772	0.799	0.4295	-0.23
Mof_O 	O 	0.3664	0.2413	0.3779	-0.209
Mof_O 	O 	0.4042	0.0977	0.5549	-0.23
Mof_C 	C 	0.7073	0.0944	0.2327	0.148
Mof_C 	C 	0.761	0.0581	0.2769	-0.192
Mof_H 	H 	0.7864	0.0899	0.3059	0.096
Mof_C 	C 	0.7762	0.9831	0.2788	0.117
Mof_H 	H 	0.8148	0.9641	0.3055	-0.01
Mof_N 	N 	0.735	0.9346	0.2415	-0.184
Mof_C 	C 	0.6849	0.9606	0.2071	0.124
Mof_H 	H 	0.6551	0.9245	0.1853	-0.005
Mof_C 	C 	0.6658	0.043	0.196	-0.179
Mof_H 	H 	0.6288	0.0588	0.1665	0.11
Mof_C 	C 	0.6993	0.1821	0.2287	-0.143
Mof_H 	H 	0.6971	0.2028	0.2716	0.087
Mof_H 	H 	0.7453	0.2028	0.2084	0.095
Mof_C 	C 	0.6387	0.2147	0.1279	0.197
Mof_C 	C 	0.5697	0.2434	0.0915	-0.022
Mof_C 	C 	0.5722	0.2567	0.0252	-0.083
Mof_H 	H 	0.618	0.247	0.0034	0.079
Mof_C 	C 	0.5113	0.2828	0.9924	0.047
Mof_H 	H 	0.5142	0.2897	0.9485	0.037
Mof_C 	C 	0.4433	0.2995	0.0256	-0.107
Mof_C 	C 	0.3758	0.3353	0.9913	0.241
Mof_C 	C 	0.2998	0.3283	0.0855	0.206
Mof_C 	C 	0.3692	0.2987	0.1224	-0.074
Mof_C 	C 	0.3638	0.2805	0.1835	-0.003
Mof_H 	H 	0.3157	0.285	0.203	0.059
Mof_C 	C 	0.4249	0.2555	0.2197	-0.047
Mof_H 	H 	0.419	0.2458	0.2631	0.078
Mof_C 	C 	0.4954	0.245	0.1903	-0.035
Mof_C 	C 	0.5664	0.2174	0.2234	0.209
Mof_C 	C 	0.5025	0.2599	0.1251	0.003
Mof_C 	C 	0.4341	0.2863	0.0904	0.06
Mof_C 	C 	0.2444	0.3731	0.9886	-0.157
Mof_H 	H 	0.1974	0.3494	0.0047	0.091
Mof_H 	H 	0.25	0.3584	0.9441	0.092
Mof_C 	C 	0.2374	0.4615	0.9933	0.246
Mof_C 	C 	0.1981	0.4979	0.9511	-0.251
Mof_H 	H 	0.1739	0.4682	0.9199	0.122
Mof_C 	C 	0.1884	0.576	0.9477	0.131
Mof_H 	H 	0.1609	0.5971	0.9138	-0.002
Mof_N 	N 	0.2177	0.6225	0.9919	-0.171
Mof_C 	C 	0.2645	0.5943	0.0386	0.083
Mof_H 	H 	0.288	0.6242	0.07	0.008
Mof_C 	C 	0.2726	0.5121	0.0328	-0.214
Mof_H 	H 	0.308	0.4901	0.0608	0.12
Mof_C 	C 	0.0473	0.7994	0.2939	0.243
Mof_C 	C 	0.0175	0.7759	0.2411	-0.268
Mof_H 	H 	0.0495	0.7588	0.2083	0.124
Mof_C 	C 	0.9378	0.7761	0.2326	0.137
Mof_H 	H 	0.9174	0.754	0.1958	-0.018
Mof_N 	N 	0.8874	0.808	0.277	-0.187
Mof_C 	C 	0.9214	0.8297	0.3285	0.163
Mof_H 	H 	0.8905	0.8485	0.3614	-0.016
Mof_C 	C 	0.0006	0.8275	0.3389	-0.266
Mof_H 	H 	0.0211	0.8455	0.3771	0.147
Mof_C 	C 	0.136	0.7967	0.3034	-0.186
Mof_H 	H 	0.1486	0.7506	0.3277	0.108
Mof_H 	H 	0.1602	0.7914	0.2618	0.101
Mof_C 	C 	0.1834	0.9268	0.2986	0.207
Mof_C 	C 	0.2278	0.9934	0.3251	-0.047
Mof_C 	C 	0.2374	0.0592	0.288	-0.03
Mof_H 	H 	0.2166	0.064	0.2473	0.071
Mof_C 	C 	0.2823	0.1196	0.3178	-0.02
Mof_H 	H 	0.2934	0.1638	0.2942	0.068
Mof_C 	C 	0.3087	0.1152	0.3774	-0.045
Mof_C 	C 	0.3561	0.1791	0.408	0.192
Mof_C 	C 	0.372	0.104	0.5028	0.209
Mof_C 	C 	0.3263	0.0404	0.4754	-0.063
Mof_C 	C 	0.3113	0.9743	0.5131	-0.012
Mof_H 	H 	0.3302	0.9714	0.5546	0.054
Mof_C 	C 	0.2681	0.9135	0.4878	-0.04
Mof_H 	H 	0.258	0.8695	0.512	0.08
Mof_C 	C 	0.2406	0.9199	0.4262	-0.038
Mof_C 	C 	0.1922	0.8557	0.3986	0.212
Mof_C 	C 	0.2542	0.9847	0.3895	0.022
Mof_C 	C 	0.298	0.0479	0.4143	0.032
Mof_C 	C 	0.4184	0.2353	0.4996	-0.121
Mof_H 	H 	0.4047	0.2354	0.5444	0.08
Mof_H 	H 	0.3989	0.2828	0.4808	0.089
Mof_C 	C 	0.5085	0.2339	0.4932	0.117
Mof_C 	C 	0.5472	0.2126	0.4453	-0.056
Mof_H 	H 	0.5231	0.1957	0.4082	0.081
Mof_C 	C 	0.6224	0.2153	0.4501	-0.176
Mof_H 	H 	0.6487	0.2014	0.4132	0.054
Mof_N 	N 	0.6646	0.2331	0.4951	-0.147
Mof_C 	C 	0.6284	0.2676	0.5467	0.048
Mof_C 	C 	0.5479	0.2679	0.5431	-0.17
Mof_H 	H 	0.5199	0.2919	0.5753	0.097
Mof_C 	C 	0.2844	0.502	0.9595	0.006
Mof_C 	C 	0.2848	0.5791	0.9517	0.008
Mof_C 	C 	0.174	0.5647	0.0215	0.04
Mof_C 	C 	0.1839	0.4813	0.0194	-0.051
Mof_C 	C 	0.5505	0.2535	0.4455	-0.04
Mof_C 	C 	0.6262	0.2522	0.4407	0.2
Mof_C 	C 	0.6347	0.2027	0.5395	0.05
Mof_C 	C 	0.5537	0.2009	0.5449	0.022
_end
