# CIF file generated by openbabel 3.1.0, see https://openbabel.org
data_I
_chemical_name_common 'image0'
_cell_length_a 27.6968
_cell_length_b 27.6968
_cell_length_c 3.5351
_cell_angle_alpha 90
_cell_angle_beta 90
_cell_angle_gamma 90
_space_group_name_H-M_alt 'P 1'
_space_group_name_Hall 'P 1'
loop_
    _symmetry_equiv_pos_as_xyz
    x,y,z
loop_
    _atom_site_label
    _atom_site_type_symbol
    _atom_site_fract_x
    _atom_site_fract_y
    _atom_site_fract_z
    _atom_site_occupancy
    Zn1      Zn       0.28507    0.21393    0.83940    1.000
    N1       N        0.26070    0.14530    0.76900    1.000
    C1       C        0.28150    0.10810    0.92700    1.000
    H1       H        0.31190    0.10950    0.03690    1.000
    N2       N        0.25450    0.06720    0.91500    1.000
    C2       C        0.21540    0.12880    0.63870    1.000
    O1       O        0.27270    0.85820    0.62400    1.000
    C3       C        0.17910    0.15340    0.45200    1.000
    H2       H        0.18250    0.18590    0.39270    1.000
    O2       O        0.34050    0.85880    0.31000    1.000
    C4       C        0.13750    0.12840    0.35400    1.000
    C5       C        0.09960    0.15030    0.16600    1.000
    H3       H        0.10190    0.18280    0.10440    1.000
    C6       C        0.05800    0.12500    0.06600    1.000
    H4       H        0.03310    0.14030    0.93670    1.000
    C7       C        0.05460    0.07650    0.16400    1.000
    H5       H        0.02690    0.05910    0.10340    1.000
    C8       C        0.09230    0.05370    0.35300    1.000
    H6       H        0.08980    0.02120    0.41490    1.000
    C9       C        0.13410    0.07950    0.45120    1.000
    C10      C        0.17030    0.05430    0.63700    1.000
    H7       H        0.16700    0.02170    0.69540    1.000
    C11      C        0.21180    0.07990    0.73300    1.000
    C12      C        0.24590    0.94600    0.31100    1.000
    H8       H        0.22230    0.92490    0.39950    1.000
    C13      C        0.29420    0.93230    0.31400    1.000
    C14      C        0.32940    0.96380    0.18200    1.000
    H9       H        0.36170    0.95460    0.18410    1.000
    C15      C        0.31630    0.00920    0.04800    1.000
    H10      H        0.33990    0.03030    0.95990    1.000
    C16      C        0.26800    0.02290    0.04540    1.000
    C17      C        0.23280    0.99130    0.17700    1.000
    H11      H        0.20050    0.00050    0.17530    1.000
    C18      C        0.30220    0.88060    0.44500    1.000
    O3       O        0.28610    0.24890    0.35400    1.000
    H12      H        0.30930    0.23660    0.22940    1.000
    O4       O        0.34220    0.87000    0.62000    1.000
    Zn2      Zn       0.71493    0.78607    0.83940    1.000
    N3       N        0.73930    0.85470    0.76900    1.000
    C19      C        0.71850    0.89190    0.92700    1.000
    H13      H        0.68810    0.89050    0.03690    1.000
    N4       N        0.74550    0.93280    0.91500    1.000
    C20      C        0.78460    0.87120    0.63870    1.000
    O5       O        0.72730    0.14180    0.62400    1.000
    C21      C        0.82090    0.84660    0.45200    1.000
    H14      H        0.81750    0.81410    0.39270    1.000
    O6       O        0.65950    0.14120    0.31000    1.000
    C22      C        0.86250    0.87160    0.35400    1.000
    C23      C        0.90040    0.84970    0.16600    1.000
    H15      H        0.89810    0.81720    0.10440    1.000
    C24      C        0.94200    0.87500    0.06600    1.000
    H16      H        0.96690    0.85970    0.93670    1.000
    C25      C        0.94540    0.92350    0.16400    1.000
    H17      H        0.97310    0.94090    0.10340    1.000
    C26      C        0.90770    0.94630    0.35300    1.000
    H18      H        0.91020    0.97880    0.41490    1.000
    C27      C        0.86590    0.92050    0.45120    1.000
    C28      C        0.82970    0.94570    0.63700    1.000
    H19      H        0.83300    0.97830    0.69540    1.000
    C29      C        0.78820    0.92010    0.73300    1.000
    C30      C        0.75410    0.05400    0.31100    1.000
    H20      H        0.77770    0.07510    0.39950    1.000
    C31      C        0.70580    0.06770    0.31400    1.000
    C32      C        0.67060    0.03620    0.18200    1.000
    H21      H        0.63830    0.04540    0.18410    1.000
    C33      C        0.68370    0.99080    0.04800    1.000
    H22      H        0.66010    0.96970    0.95990    1.000
    C34      C        0.73200    0.97710    0.04540    1.000
    C35      C        0.76720    0.00870    0.17700    1.000
    H23      H        0.79950    0.99950    0.17530    1.000
    C36      C        0.69780    0.11940    0.44500    1.000
    O7       O        0.71390    0.75110    0.35400    1.000
    H24      H        0.69070    0.76340    0.22940    1.000
    O8       O        0.65780    0.13000    0.62000    1.000
    Zn3      Zn       0.71393    0.21493    0.66060    1.000
    N5       N        0.64530    0.23930    0.73100    1.000
    C37      C        0.60810    0.21850    0.57300    1.000
    H25      H        0.60950    0.18810    0.46310    1.000
    N6       N        0.56720    0.24550    0.58500    1.000
    C38      C        0.62880    0.28460    0.86130    1.000
    O9       O        0.35820    0.22730    0.87600    1.000
    C39      C        0.65340    0.32090    0.04800    1.000
    H26      H        0.68590    0.31750    0.10730    1.000
    O10      O        0.35880    0.15950    0.19000    1.000
    C40      C        0.62840    0.36250    0.14600    1.000
    C41      C        0.65030    0.40040    0.33400    1.000
    H27      H        0.68280    0.39810    0.39560    1.000
    C42      C        0.62500    0.44200    0.43400    1.000
    H28      H        0.64030    0.46690    0.56330    1.000
    C43      C        0.57650    0.44540    0.33600    1.000
    H29      H        0.55910    0.47310    0.39660    1.000
    C44      C        0.55370    0.40770    0.14700    1.000
    H30      H        0.52120    0.41020    0.08510    1.000
    C45      C        0.57950    0.36590    0.04880    1.000
    C46      C        0.55430    0.32970    0.86300    1.000
    H31      H        0.52170    0.33300    0.80460    1.000
    C47      C        0.57990    0.28820    0.76700    1.000
    C48      C        0.44600    0.25410    0.18900    1.000
    H32      H        0.42490    0.27770    0.10050    1.000
    C49      C        0.43230    0.20580    0.18600    1.000
    C50      C        0.46380    0.17060    0.31800    1.000
    H33      H        0.45460    0.13830    0.31590    1.000
    C51      C        0.50920    0.18370    0.45200    1.000
    H34      H        0.53030    0.16010    0.54010    1.000
    C52      C        0.52290    0.23200    0.45460    1.000
    C53      C        0.49130    0.26720    0.32300    1.000
    H35      H        0.50050    0.29950    0.32470    1.000
    C54      C        0.38060    0.19780    0.05500    1.000
    O11      O        0.74890    0.21390    0.14600    1.000
    H36      H        0.73660    0.19070    0.27060    1.000
    O12      O        0.37000    0.15780    0.88000    1.000
    Zn4      Zn       0.28607    0.78507    0.66060    1.000
    N7       N        0.35470    0.76070    0.73100    1.000
    C55      C        0.39190    0.78150    0.57300    1.000
    H37      H        0.39050    0.81190    0.46310    1.000
    N8       N        0.43280    0.75450    0.58500    1.000
    C56      C        0.37120    0.71540    0.86130    1.000
    O13      O        0.64180    0.77270    0.87600    1.000
    C57      C        0.34660    0.67910    0.04800    1.000
    H38      H        0.31410    0.68250    0.10730    1.000
    O14      O        0.64120    0.84050    0.19000    1.000
    C58      C        0.37160    0.63750    0.14600    1.000
    C59      C        0.34970    0.59960    0.33400    1.000
    H39      H        0.31720    0.60190    0.39560    1.000
    C60      C        0.37500    0.55800    0.43400    1.000
    H40      H        0.35970    0.53310    0.56330    1.000
    C61      C        0.42350    0.55460    0.33600    1.000
    H41      H        0.44090    0.52690    0.39660    1.000
    C62      C        0.44630    0.59230    0.14700    1.000
    H42      H        0.47880    0.58980    0.08510    1.000
    C63      C        0.42050    0.63410    0.04880    1.000
    C64      C        0.44570    0.67030    0.86300    1.000
    H43      H        0.47830    0.66700    0.80460    1.000
    C65      C        0.42010    0.71180    0.76700    1.000
    C66      C        0.55400    0.74590    0.18900    1.000
    H44      H        0.57510    0.72230    0.10050    1.000
    C67      C        0.56770    0.79420    0.18600    1.000
    C68      C        0.53620    0.82940    0.31800    1.000
    H45      H        0.54540    0.86170    0.31590    1.000
    C69      C        0.49080    0.81630    0.45200    1.000
    H46      H        0.46970    0.83990    0.54010    1.000
    C70      C        0.47710    0.76800    0.45460    1.000
    C71      C        0.50870    0.73280    0.32300    1.000
    H47      H        0.49950    0.70050    0.32470    1.000
    C72      C        0.61940    0.80220    0.05500    1.000
    O15      O        0.25110    0.78610    0.14600    1.000
    H48      H        0.26340    0.80930    0.27060    1.000
    O16      O        0.63000    0.84220    0.88000    1.000
    Zn5      Zn       0.78507    0.71393    0.33940    1.000
    N9       N        0.76070    0.64530    0.26900    1.000
    C73      C        0.78150    0.60810    0.42700    1.000
    H49      H        0.81190    0.60950    0.53690    1.000
    N10      N        0.75450    0.56720    0.41500    1.000
    C74      C        0.71540    0.62880    0.13870    1.000
    O17      O        0.77270    0.35820    0.12400    1.000
    C75      C        0.67910    0.65340    0.95200    1.000
    H50      H        0.68250    0.68590    0.89270    1.000
    O18      O        0.84050    0.35880    0.81000    1.000
    C76      C        0.63750    0.62840    0.85400    1.000
    C77      C        0.59960    0.65030    0.66600    1.000
    H51      H        0.60190    0.68280    0.60440    1.000
    C78      C        0.55800    0.62500    0.56600    1.000
    H52      H        0.53310    0.64030    0.43670    1.000
    C79      C        0.55460    0.57650    0.66400    1.000
    H53      H        0.52690    0.55910    0.60340    1.000
    C80      C        0.59230    0.55370    0.85300    1.000
    H54      H        0.58980    0.52120    0.91490    1.000
    C81      C        0.63410    0.57950    0.95120    1.000
    C82      C        0.67030    0.55430    0.13700    1.000
    H55      H        0.66700    0.52170    0.19540    1.000
    C83      C        0.71180    0.57990    0.23300    1.000
    C84      C        0.74590    0.44600    0.81100    1.000
    H56      H        0.72230    0.42490    0.89950    1.000
    C85      C        0.79420    0.43230    0.81400    1.000
    C86      C        0.82940    0.46380    0.68200    1.000
    H57      H        0.86170    0.45460    0.68410    1.000
    C87      C        0.81630    0.50920    0.54800    1.000
    H58      H        0.83990    0.53030    0.45990    1.000
    C88      C        0.76800    0.52290    0.54540    1.000
    C89      C        0.73280    0.49130    0.67700    1.000
    H59      H        0.70050    0.50050    0.67530    1.000
    C90      C        0.80220    0.38060    0.94500    1.000
    O19      O        0.78610    0.74890    0.85400    1.000
    H60      H        0.80930    0.73660    0.72940    1.000
    O20      O        0.84220    0.37000    0.12000    1.000
    Zn6      Zn       0.21493    0.28607    0.33940    1.000
    N11      N        0.23930    0.35470    0.26900    1.000
    C91      C        0.21850    0.39190    0.42700    1.000
    H61      H        0.18810    0.39050    0.53690    1.000
    N12      N        0.24550    0.43280    0.41500    1.000
    C92      C        0.28460    0.37120    0.13870    1.000
    O21      O        0.22730    0.64180    0.12400    1.000
    C93      C        0.32090    0.34660    0.95200    1.000
    H62      H        0.31750    0.31410    0.89270    1.000
    O22      O        0.15950    0.64120    0.81000    1.000
    C94      C        0.36250    0.37160    0.85400    1.000
    C95      C        0.40040    0.34970    0.66600    1.000
    H63      H        0.39810    0.31720    0.60440    1.000
    C96      C        0.44200    0.37500    0.56600    1.000
    H64      H        0.46690    0.35970    0.43670    1.000
    C97      C        0.44540    0.42350    0.66400    1.000
    H65      H        0.47310    0.44090    0.60340    1.000
    C98      C        0.40770    0.44630    0.85300    1.000
    H66      H        0.41020    0.47880    0.91490    1.000
    C99      C        0.36590    0.42050    0.95120    1.000
    C100     C        0.32970    0.44570    0.13700    1.000
    H67      H        0.33300    0.47830    0.19540    1.000
    C101     C        0.28820    0.42010    0.23300    1.000
    C102     C        0.25410    0.55400    0.81100    1.000
    H68      H        0.27770    0.57510    0.89950    1.000
    C103     C        0.20580    0.56770    0.81400    1.000
    C104     C        0.17060    0.53620    0.68200    1.000
    H69      H        0.13830    0.54540    0.68410    1.000
    C105     C        0.18370    0.49080    0.54800    1.000
    H70      H        0.16010    0.46970    0.45990    1.000
    C106     C        0.23200    0.47710    0.54540    1.000
    C107     C        0.26720    0.50870    0.67700    1.000
    H71      H        0.29950    0.49950    0.67530    1.000
    C108     C        0.19780    0.61940    0.94500    1.000
    O23      O        0.21390    0.25110    0.85400    1.000
    H72      H        0.19070    0.26340    0.72940    1.000
    O24      O        0.15780    0.63000    0.12000    1.000
    Zn7      Zn       0.21393    0.71493    0.16060    1.000
    N13      N        0.14530    0.73930    0.23100    1.000
    C109     C        0.10810    0.71850    0.07300    1.000
    H73      H        0.10950    0.68810    0.96310    1.000
    N14      N        0.06720    0.74550    0.08500    1.000
    C110     C        0.12880    0.78460    0.36130    1.000
    O25      O        0.85820    0.72730    0.37600    1.000
    C111     C        0.15340    0.82090    0.54800    1.000
    H74      H        0.18590    0.81750    0.60730    1.000
    O26      O        0.85880    0.65950    0.69000    1.000
    C112     C        0.12840    0.86250    0.64600    1.000
    C113     C        0.15030    0.90040    0.83400    1.000
    H75      H        0.18280    0.89810    0.89560    1.000
    C114     C        0.12500    0.94200    0.93400    1.000
    H76      H        0.14030    0.96690    0.06330    1.000
    C115     C        0.07650    0.94540    0.83600    1.000
    H77      H        0.05910    0.97310    0.89660    1.000
    C116     C        0.05370    0.90770    0.64700    1.000
    H78      H        0.02120    0.91020    0.58510    1.000
    C117     C        0.07950    0.86590    0.54880    1.000
    C118     C        0.05430    0.82970    0.36300    1.000
    H79      H        0.02170    0.83300    0.30460    1.000
    C119     C        0.07990    0.78820    0.26700    1.000
    C120     C        0.94600    0.75410    0.68900    1.000
    H80      H        0.92490    0.77770    0.60050    1.000
    C121     C        0.93230    0.70580    0.68600    1.000
    C122     C        0.96380    0.67060    0.81800    1.000
    H81      H        0.95460    0.63830    0.81590    1.000
    C123     C        0.00920    0.68370    0.95200    1.000
    H82      H        0.03030    0.66010    0.04010    1.000
    C124     C        0.02290    0.73200    0.95460    1.000
    C125     C        0.99130    0.76720    0.82300    1.000
    H83      H        0.00050    0.79950    0.82470    1.000
    C126     C        0.88060    0.69780    0.55500    1.000
    O27      O        0.24890    0.71390    0.64600    1.000
    H84      H        0.23660    0.69070    0.77060    1.000
    O28      O        0.87000    0.65780    0.38000    1.000
    Zn8      Zn       0.78607    0.28507    0.16060    1.000
    N15      N        0.85470    0.26070    0.23100    1.000
    C127     C        0.89190    0.28150    0.07300    1.000
    H85      H        0.89050    0.31190    0.96310    1.000
    N16      N        0.93280    0.25450    0.08500    1.000
    C128     C        0.87120    0.21540    0.36130    1.000
    O29      O        0.14180    0.27270    0.37600    1.000
    C129     C        0.84660    0.17910    0.54800    1.000
    H86      H        0.81410    0.18250    0.60730    1.000
    O30      O        0.14120    0.34050    0.69000    1.000
    C130     C        0.87160    0.13750    0.64600    1.000
    C131     C        0.84970    0.09960    0.83400    1.000
    H87      H        0.81720    0.10190    0.89560    1.000
    C132     C        0.87500    0.05800    0.93400    1.000
    H88      H        0.85970    0.03310    0.06330    1.000
    C133     C        0.92350    0.05460    0.83600    1.000
    H89      H        0.94090    0.02690    0.89660    1.000
    C134     C        0.94630    0.09230    0.64700    1.000
    H90      H        0.97880    0.08980    0.58510    1.000
    C135     C        0.92050    0.13410    0.54880    1.000
    C136     C        0.94570    0.17030    0.36300    1.000
    H91      H        0.97830    0.16700    0.30460    1.000
    C137     C        0.92010    0.21180    0.26700    1.000
    C138     C        0.05400    0.24590    0.68900    1.000
    H92      H        0.07510    0.22230    0.60050    1.000
    C139     C        0.06770    0.29420    0.68600    1.000
    C140     C        0.03620    0.32940    0.81800    1.000
    H93      H        0.04540    0.36170    0.81590    1.000
    C141     C        0.99080    0.31630    0.95200    1.000
    H94      H        0.96970    0.33990    0.04010    1.000
    C142     C        0.97710    0.26800    0.95460    1.000
    C143     C        0.00870    0.23280    0.82300    1.000
    H95      H        0.99950    0.20050    0.82470    1.000
    C144     C        0.11940    0.30220    0.55500    1.000
    O31      O        0.75110    0.28610    0.64600    1.000
    H96      H        0.76340    0.30930    0.77060    1.000
    O32      O        0.13000    0.34220    0.38000    1.000
