data_functionalizedCrystal
_audit_creation_method	'EQeq! by Chris Wilmer'
_symmetry_space_group_name_H-M	'P1'
_symmetry_Int_Tables_number	1
_symmetry_cell_setting	triclinic
loop_
_symmetry_equiv_pos_as_xyz
  x,y,z
_cell_length_a	26.956
_cell_length_b	26.956
_cell_length_c	26.956
_cell_angle_alpha	90
_cell_angle_beta	90
_cell_angle_gamma	90
loop_
_atom_site_label
_atom_site_type_symbol
_atom_site_fract_x
_atom_site_fract_y
_atom_site_fract_z
_atom_site_charge
Mof_O 	O 	0.44749	0.0504	0.14882	-0.434
Mof_O 	O 	0.44842	0.04913	0.23091	-0.437
Mof_C 	C 	0.2942	0.1453	0.1973	0.038
Mof_C 	C 	0.4304	0.0619	0.1902	0.383
Mof_C 	C 	0.3598	0.1065	0.1492	0.041
Mof_H 	H 	0.373	0.0979	0.1185	0.015
Mof_C 	C 	0.3197	0.1297	0.2411	-0.122
Mof_H 	H 	0.3064	0.1369	0.2721	0.073
Mof_C 	C 	0.315	0.1338	0.1514	-0.12
Mof_H 	H 	0.2996	0.144	0.1224	0.06
Mof_C 	C 	0.3639	0.1042	0.2378	0.047
Mof_H 	H 	0.3803	0.0947	0.2666	0.025
Mof_C 	C 	0.2165	0.1695	0.2414	-0.11
Mof_H 	H 	0.2208	0.1425	0.2625	0.064
Mof_C 	C 	0.3843	0.0924	0.1921	-0.133
Mof_C 	C 	0.2493	0.177	0.2023	0.037
Mof_O 	O 	0.55251	0.9496	0.14882	-0.39
Mof_O 	O 	0.55158	0.95087	0.23091	-0.393
Mof_C 	C 	0.7058	0.8547	0.1973	0.038
Mof_C 	C 	0.5696	0.9381	0.1902	0.379
Mof_C 	C 	0.6402	0.8935	0.1492	0.038
Mof_H 	H 	0.627	0.9021	0.1185	0.033
Mof_C 	C 	0.6803	0.8703	0.2411	-0.104
Mof_H 	H 	0.6936	0.8631	0.2721	0.075
Mof_C 	C 	0.685	0.8662	0.1514	-0.104
Mof_H 	H 	0.7004	0.856	0.1224	0.067
Mof_C 	C 	0.6361	0.8958	0.2378	0.042
Mof_H 	H 	0.6197	0.9053	0.2666	0.04
Mof_C 	C 	0.7835	0.8305	0.2414	-0.116
Mof_H 	H 	0.7792	0.8575	0.2625	0.078
Mof_C 	C 	0.6157	0.9076	0.1921	-0.11
Mof_C 	C 	0.7507	0.823	0.2023	0.052
Mof_O 	O 	0.55251	0.0504	0.85118	-0.42
Mof_O 	O 	0.55158	0.04913	0.76909	-0.435
Mof_C 	C 	0.7058	0.1453	0.8027	0.04
Mof_C 	C 	0.5696	0.0619	0.8098	0.381
Mof_C 	C 	0.6402	0.1065	0.8508	0.042
Mof_H 	H 	0.627	0.0979	0.8815	0.033
Mof_C 	C 	0.6803	0.1297	0.7589	-0.116
Mof_H 	H 	0.6936	0.1369	0.7279	0.074
Mof_C 	C 	0.685	0.1338	0.8486	-0.113
Mof_H 	H 	0.7004	0.144	0.8776	0.076
Mof_C 	C 	0.6361	0.1042	0.7622	0.045
Mof_H 	H 	0.6197	0.0947	0.7334	0.027
Mof_C 	C 	0.7835	0.1695	0.7586	-0.114
Mof_H 	H 	0.7792	0.1425	0.7375	0.07
Mof_C 	C 	0.6157	0.0924	0.8079	-0.126
Mof_C 	C 	0.7507	0.177	0.7977	0.049
Mof_O 	O 	0.44749	0.9496	0.85118	-0.378
Mof_O 	O 	0.44842	0.95087	0.76909	-0.392
Mof_C 	C 	0.2942	0.8547	0.8027	0.038
Mof_C 	C 	0.4304	0.9381	0.8098	0.376
Mof_C 	C 	0.3598	0.8935	0.8508	0.037
Mof_H 	H 	0.373	0.9021	0.8815	0.048
Mof_C 	C 	0.3197	0.8703	0.7589	-0.102
Mof_H 	H 	0.3064	0.8631	0.7279	0.074
Mof_C 	C 	0.315	0.8662	0.8486	-0.099
Mof_H 	H 	0.2996	0.856	0.8776	0.077
Mof_C 	C 	0.3639	0.8958	0.7622	0.039
Mof_H 	H 	0.3803	0.9053	0.7334	0.041
Mof_C 	C 	0.2165	0.8305	0.7586	-0.115
Mof_H 	H 	0.2208	0.8575	0.7375	0.077
Mof_C 	C 	0.3843	0.9076	0.8079	-0.104
Mof_C 	C 	0.2493	0.823	0.7977	0.054
Mof_O 	O 	0.14882	0.44749	0.0504	-0.433
Mof_O 	O 	0.23091	0.44842	0.04913	-0.436
Mof_C 	C 	0.1973	0.2942	0.1453	0.039
Mof_C 	C 	0.1902	0.4304	0.0619	0.384
Mof_C 	C 	0.1492	0.3598	0.1065	0.042
Mof_H 	H 	0.1185	0.373	0.0979	0.016
Mof_C 	C 	0.2411	0.3197	0.1297	-0.121
Mof_H 	H 	0.2721	0.3064	0.1369	0.074
Mof_C 	C 	0.1514	0.315	0.1338	-0.119
Mof_H 	H 	0.1224	0.2996	0.144	0.06
Mof_C 	C 	0.2378	0.3639	0.1042	0.047
Mof_H 	H 	0.2666	0.3803	0.0947	0.025
Mof_C 	C 	0.2414	0.2165	0.1695	-0.11
Mof_H 	H 	0.2625	0.2208	0.1425	0.064
Mof_C 	C 	0.1921	0.3843	0.0924	-0.133
Mof_C 	C 	0.2023	0.2493	0.177	0.037
Mof_O 	O 	0.14882	0.55251	0.9496	-0.39
Mof_O 	O 	0.23091	0.55158	0.95087	-0.393
Mof_C 	C 	0.1973	0.7058	0.8547	0.038
Mof_C 	C 	0.1902	0.5696	0.9381	0.379
Mof_C 	C 	0.1492	0.6402	0.8935	0.038
Mof_H 	H 	0.1185	0.627	0.9021	0.033
Mof_C 	C 	0.2411	0.6803	0.8703	-0.104
Mof_H 	H 	0.2721	0.6936	0.8631	0.075
Mof_C 	C 	0.1514	0.685	0.8662	-0.104
Mof_H 	H 	0.1224	0.7004	0.856	0.067
Mof_C 	C 	0.2378	0.6361	0.8958	0.042
Mof_H 	H 	0.2666	0.6197	0.9053	0.04
Mof_C 	C 	0.2414	0.7835	0.8305	-0.116
Mof_H 	H 	0.2625	0.7792	0.8575	0.078
Mof_C 	C 	0.1921	0.6157	0.9076	-0.11
Mof_C 	C 	0.2023	0.7507	0.823	0.052
Mof_O 	O 	0.85118	0.55251	0.0504	-0.42
Mof_O 	O 	0.76909	0.55158	0.04913	-0.435
Mof_C 	C 	0.8027	0.7058	0.1453	0.04
Mof_C 	C 	0.8098	0.5696	0.0619	0.381
Mof_C 	C 	0.8508	0.6402	0.1065	0.042
Mof_H 	H 	0.8815	0.627	0.0979	0.033
Mof_C 	C 	0.7589	0.6803	0.1297	-0.116
Mof_H 	H 	0.7279	0.6936	0.1369	0.074
Mof_C 	C 	0.8486	0.685	0.1338	-0.113
Mof_H 	H 	0.8776	0.7004	0.144	0.076
Mof_C 	C 	0.7622	0.6361	0.1042	0.045
Mof_H 	H 	0.7334	0.6197	0.0947	0.027
Mof_C 	C 	0.7586	0.7835	0.1695	-0.114
Mof_H 	H 	0.7375	0.7792	0.1425	0.07
Mof_C 	C 	0.8079	0.6157	0.0924	-0.126
Mof_C 	C 	0.7977	0.7507	0.177	0.049
Mof_O 	O 	0.85118	0.44749	0.9496	-0.378
Mof_O 	O 	0.76909	0.44842	0.95087	-0.392
Mof_C 	C 	0.8027	0.2942	0.8547	0.038
Mof_C 	C 	0.8098	0.4304	0.9381	0.376
Mof_C 	C 	0.8508	0.3598	0.8935	0.037
Mof_H 	H 	0.8815	0.373	0.9021	0.048
Mof_C 	C 	0.7589	0.3197	0.8703	-0.102
Mof_H 	H 	0.7279	0.3064	0.8631	0.074
Mof_C 	C 	0.8486	0.315	0.8662	-0.099
Mof_H 	H 	0.8776	0.2996	0.856	0.077
Mof_C 	C 	0.7622	0.3639	0.8958	0.039
Mof_H 	H 	0.7334	0.3803	0.9053	0.041
Mof_C 	C 	0.7586	0.2165	0.8305	-0.115
Mof_H 	H 	0.7375	0.2208	0.8575	0.077
Mof_C 	C 	0.8079	0.3843	0.9076	-0.104
Mof_C 	C 	0.7977	0.2493	0.823	0.054
Mof_O 	O 	0.0504	0.14882	0.44749	-0.433
Mof_O 	O 	0.04913	0.23091	0.44842	-0.436
Mof_C 	C 	0.1453	0.1973	0.2942	0.039
Mof_C 	C 	0.0619	0.1902	0.4304	0.384
Mof_C 	C 	0.1065	0.1492	0.3598	0.042
Mof_H 	H 	0.0979	0.1185	0.373	0.016
Mof_C 	C 	0.1297	0.2411	0.3197	-0.121
Mof_H 	H 	0.1369	0.2721	0.3064	0.074
Mof_C 	C 	0.1338	0.1514	0.315	-0.119
Mof_H 	H 	0.144	0.1224	0.2996	0.06
Mof_C 	C 	0.1042	0.2378	0.3639	0.047
Mof_H 	H 	0.0947	0.2666	0.3803	0.025
Mof_C 	C 	0.1695	0.2414	0.2165	-0.11
Mof_H 	H 	0.1425	0.2625	0.2208	0.064
Mof_C 	C 	0.0924	0.1921	0.3843	-0.133
Mof_C 	C 	0.177	0.2023	0.2493	0.037
Mof_O 	O 	0.9496	0.14882	0.55251	-0.39
Mof_O 	O 	0.95087	0.23091	0.55158	-0.393
Mof_C 	C 	0.8547	0.1973	0.7058	0.038
Mof_C 	C 	0.9381	0.1902	0.5696	0.379
Mof_C 	C 	0.8935	0.1492	0.6402	0.038
Mof_H 	H 	0.9021	0.1185	0.627	0.033
Mof_C 	C 	0.8703	0.2411	0.6803	-0.104
Mof_H 	H 	0.8631	0.2721	0.6936	0.075
Mof_C 	C 	0.8662	0.1514	0.685	-0.104
Mof_H 	H 	0.856	0.1224	0.7004	0.067
Mof_C 	C 	0.8958	0.2378	0.6361	0.042
Mof_H 	H 	0.9053	0.2666	0.6197	0.04
Mof_C 	C 	0.8305	0.2414	0.7835	-0.116
Mof_H 	H 	0.8575	0.2625	0.7792	0.078
Mof_C 	C 	0.9076	0.1921	0.6157	-0.11
Mof_C 	C 	0.823	0.2023	0.7507	0.052
Mof_O 	O 	0.0504	0.85118	0.55251	-0.42
Mof_O 	O 	0.04913	0.76909	0.55158	-0.435
Mof_C 	C 	0.1453	0.8027	0.7058	0.04
Mof_C 	C 	0.0619	0.8098	0.5696	0.381
Mof_C 	C 	0.1065	0.8508	0.6402	0.042
Mof_H 	H 	0.0979	0.8815	0.627	0.033
Mof_C 	C 	0.1297	0.7589	0.6803	-0.116
Mof_H 	H 	0.1369	0.7279	0.6936	0.074
Mof_C 	C 	0.1338	0.8486	0.685	-0.113
Mof_H 	H 	0.144	0.8776	0.7004	0.076
Mof_C 	C 	0.1042	0.7622	0.6361	0.045
Mof_H 	H 	0.0947	0.7334	0.6197	0.027
Mof_C 	C 	0.1695	0.7586	0.7835	-0.114
Mof_H 	H 	0.1425	0.7375	0.7792	0.07
Mof_C 	C 	0.0924	0.8079	0.6157	-0.126
Mof_C 	C 	0.177	0.7977	0.7507	0.049
Mof_O 	O 	0.9496	0.85118	0.44749	-0.378
Mof_O 	O 	0.95087	0.76909	0.44842	-0.392
Mof_C 	C 	0.8547	0.8027	0.2942	0.038
Mof_C 	C 	0.9381	0.8098	0.4304	0.376
Mof_C 	C 	0.8935	0.8508	0.3598	0.037
Mof_H 	H 	0.9021	0.8815	0.373	0.048
Mof_C 	C 	0.8703	0.7589	0.3197	-0.102
Mof_H 	H 	0.8631	0.7279	0.3064	0.074
Mof_C 	C 	0.8662	0.8486	0.315	-0.099
Mof_H 	H 	0.856	0.8776	0.2996	0.077
Mof_C 	C 	0.8958	0.7622	0.3639	0.039
Mof_H 	H 	0.9053	0.7334	0.3803	0.041
Mof_C 	C 	0.8305	0.7586	0.2165	-0.115
Mof_H 	H 	0.8575	0.7375	0.2208	0.077
Mof_C 	C 	0.9076	0.8079	0.3843	-0.104
Mof_C 	C 	0.823	0.7977	0.2493	0.054
Mof_O 	O 	0.55251	0.9496	0.85118	-0.378
Mof_O 	O 	0.55158	0.95087	0.76909	-0.392
Mof_C 	C 	0.7058	0.8547	0.8027	0.039
Mof_C 	C 	0.5696	0.9381	0.8098	0.376
Mof_C 	C 	0.6402	0.8935	0.8508	0.038
Mof_H 	H 	0.627	0.9021	0.8815	0.049
Mof_C 	C 	0.6803	0.8703	0.7589	-0.101
Mof_H 	H 	0.6936	0.8631	0.7279	0.074
Mof_C 	C 	0.685	0.8662	0.8486	-0.098
Mof_H 	H 	0.7004	0.856	0.8776	0.08
Mof_C 	C 	0.6361	0.8958	0.7622	0.039
Mof_H 	H 	0.6197	0.9053	0.7334	0.042
Mof_C 	C 	0.7835	0.8305	0.7586	-0.117
Mof_H 	H 	0.7792	0.8575	0.7375	0.08
Mof_C 	C 	0.6157	0.9076	0.8079	-0.103
Mof_C 	C 	0.7507	0.823	0.7977	0.059
Mof_O 	O 	0.44749	0.0504	0.85118	-0.421
Mof_O 	O 	0.44842	0.04913	0.76909	-0.435
Mof_C 	C 	0.2942	0.1453	0.8027	0.04
Mof_C 	C 	0.4304	0.0619	0.8098	0.381
Mof_C 	C 	0.3598	0.1065	0.8508	0.041
Mof_H 	H 	0.373	0.0979	0.8815	0.031
Mof_C 	C 	0.3197	0.1297	0.7589	-0.117
Mof_H 	H 	0.3064	0.1369	0.7279	0.074
Mof_C 	C 	0.315	0.1338	0.8486	-0.114
Mof_H 	H 	0.2996	0.144	0.8776	0.073
Mof_C 	C 	0.3639	0.1042	0.7622	0.045
Mof_H 	H 	0.3803	0.0947	0.7334	0.027
Mof_C 	C 	0.2165	0.1695	0.7586	-0.112
Mof_H 	H 	0.2208	0.1425	0.7375	0.066
Mof_C 	C 	0.3843	0.0924	0.8079	-0.127
Mof_C 	C 	0.2493	0.177	0.7977	0.044
Mof_O 	O 	0.44749	0.9496	0.14882	-0.391
Mof_O 	O 	0.44842	0.95087	0.23091	-0.393
Mof_C 	C 	0.2942	0.8547	0.1973	0.037
Mof_C 	C 	0.4304	0.9381	0.1902	0.379
Mof_C 	C 	0.3598	0.8935	0.1492	0.037
Mof_H 	H 	0.373	0.9021	0.1185	0.032
Mof_C 	C 	0.3197	0.8703	0.2411	-0.105
Mof_H 	H 	0.3064	0.8631	0.2721	0.075
Mof_C 	C 	0.315	0.8662	0.1514	-0.105
Mof_H 	H 	0.2996	0.856	0.1224	0.064
Mof_C 	C 	0.3639	0.8958	0.2378	0.041
Mof_H 	H 	0.3803	0.9053	0.2666	0.04
Mof_C 	C 	0.2165	0.8305	0.2414	-0.113
Mof_H 	H 	0.2208	0.8575	0.2625	0.074
Mof_C 	C 	0.3843	0.9076	0.1921	-0.11
Mof_C 	C 	0.2493	0.823	0.2023	0.047
Mof_O 	O 	0.55251	0.0504	0.14882	-0.433
Mof_O 	O 	0.55158	0.04913	0.23091	-0.436
Mof_C 	C 	0.7058	0.1453	0.1973	0.04
Mof_C 	C 	0.5696	0.0619	0.1902	0.384
Mof_C 	C 	0.6402	0.1065	0.1492	0.043
Mof_H 	H 	0.627	0.0979	0.1185	0.017
Mof_C 	C 	0.6803	0.1297	0.2411	-0.12
Mof_H 	H 	0.6936	0.1369	0.2721	0.075
Mof_C 	C 	0.685	0.1338	0.1514	-0.118
Mof_H 	H 	0.7004	0.144	0.1224	0.062
Mof_C 	C 	0.6361	0.1042	0.2378	0.047
Mof_H 	H 	0.6197	0.0947	0.2666	0.025
Mof_C 	C 	0.7835	0.1695	0.2414	-0.113
Mof_H 	H 	0.7792	0.1425	0.2625	0.067
Mof_C 	C 	0.6157	0.0924	0.1921	-0.133
Mof_C 	C 	0.7507	0.177	0.2023	0.042
Mof_O 	O 	0.85118	0.55251	0.9496	-0.378
Mof_O 	O 	0.76909	0.55158	0.95087	-0.392
Mof_C 	C 	0.8027	0.7058	0.8547	0.039
Mof_C 	C 	0.8098	0.5696	0.9381	0.376
Mof_C 	C 	0.8508	0.6402	0.8935	0.038
Mof_H 	H 	0.8815	0.627	0.9021	0.049
Mof_C 	C 	0.7589	0.6803	0.8703	-0.101
Mof_H 	H 	0.7279	0.6936	0.8631	0.074
Mof_C 	C 	0.8486	0.685	0.8662	-0.098
Mof_H 	H 	0.8776	0.7004	0.856	0.08
Mof_C 	C 	0.7622	0.6361	0.8958	0.039
Mof_H 	H 	0.7334	0.6197	0.9053	0.042
Mof_C 	C 	0.7586	0.7835	0.8305	-0.117
Mof_H 	H 	0.7375	0.7792	0.8575	0.08
Mof_C 	C 	0.8079	0.6157	0.9076	-0.103
Mof_C 	C 	0.7977	0.7507	0.823	0.059
Mof_O 	O 	0.85118	0.44749	0.0504	-0.421
Mof_O 	O 	0.76909	0.44842	0.04913	-0.435
Mof_C 	C 	0.8027	0.2942	0.1453	0.04
Mof_C 	C 	0.8098	0.4304	0.0619	0.381
Mof_C 	C 	0.8508	0.3598	0.1065	0.041
Mof_H 	H 	0.8815	0.373	0.0979	0.031
Mof_C 	C 	0.7589	0.3197	0.1297	-0.117
Mof_H 	H 	0.7279	0.3064	0.1369	0.074
Mof_C 	C 	0.8486	0.315	0.1338	-0.114
Mof_H 	H 	0.8776	0.2996	0.144	0.073
Mof_C 	C 	0.7622	0.3639	0.1042	0.045
Mof_H 	H 	0.7334	0.3803	0.0947	0.027
Mof_C 	C 	0.7586	0.2165	0.1695	-0.112
Mof_H 	H 	0.7375	0.2208	0.1425	0.066
Mof_C 	C 	0.8079	0.3843	0.0924	-0.127
Mof_C 	C 	0.7977	0.2493	0.177	0.044
Mof_O 	O 	0.14882	0.44749	0.9496	-0.391
Mof_O 	O 	0.23091	0.44842	0.95087	-0.393
Mof_C 	C 	0.1973	0.2942	0.8547	0.037
Mof_C 	C 	0.1902	0.4304	0.9381	0.379
Mof_C 	C 	0.1492	0.3598	0.8935	0.037
Mof_H 	H 	0.1185	0.373	0.9021	0.032
Mof_C 	C 	0.2411	0.3197	0.8703	-0.105
Mof_H 	H 	0.2721	0.3064	0.8631	0.075
Mof_C 	C 	0.1514	0.315	0.8662	-0.105
Mof_H 	H 	0.1224	0.2996	0.856	0.064
Mof_C 	C 	0.2378	0.3639	0.8958	0.041
Mof_H 	H 	0.2666	0.3803	0.9053	0.04
Mof_C 	C 	0.2414	0.2165	0.8305	-0.113
Mof_H 	H 	0.2625	0.2208	0.8575	0.074
Mof_C 	C 	0.1921	0.3843	0.9076	-0.11
Mof_C 	C 	0.2023	0.2493	0.823	0.047
Mof_O 	O 	0.14882	0.55251	0.0504	-0.433
Mof_O 	O 	0.23091	0.55158	0.04913	-0.436
Mof_C 	C 	0.1973	0.7058	0.1453	0.04
Mof_C 	C 	0.1902	0.5696	0.0619	0.384
Mof_C 	C 	0.1492	0.6402	0.1065	0.043
Mof_H 	H 	0.1185	0.627	0.0979	0.017
Mof_C 	C 	0.2411	0.6803	0.1297	-0.12
Mof_H 	H 	0.2721	0.6936	0.1369	0.075
Mof_C 	C 	0.1514	0.685	0.1338	-0.118
Mof_H 	H 	0.1224	0.7004	0.144	0.062
Mof_C 	C 	0.2378	0.6361	0.1042	0.047
Mof_H 	H 	0.2666	0.6197	0.0947	0.025
Mof_C 	C 	0.2414	0.7835	0.1695	-0.113
Mof_H 	H 	0.2625	0.7792	0.1425	0.067
Mof_C 	C 	0.1921	0.6157	0.0924	-0.133
Mof_C 	C 	0.2023	0.7507	0.177	0.042
Mof_O 	O 	0.9496	0.85118	0.55251	-0.378
Mof_O 	O 	0.95087	0.76909	0.55158	-0.392
Mof_C 	C 	0.8547	0.8027	0.7058	0.039
Mof_C 	C 	0.9381	0.8098	0.5696	0.376
Mof_C 	C 	0.8935	0.8508	0.6402	0.038
Mof_H 	H 	0.9021	0.8815	0.627	0.049
Mof_C 	C 	0.8703	0.7589	0.6803	-0.101
Mof_H 	H 	0.8631	0.7279	0.6936	0.074
Mof_C 	C 	0.8662	0.8486	0.685	-0.098
Mof_H 	H 	0.856	0.8776	0.7004	0.08
Mof_C 	C 	0.8958	0.7622	0.6361	0.039
Mof_H 	H 	0.9053	0.7334	0.6197	0.042
Mof_C 	C 	0.8305	0.7586	0.7835	-0.117
Mof_H 	H 	0.8575	0.7375	0.7792	0.08
Mof_C 	C 	0.9076	0.8079	0.6157	-0.103
Mof_C 	C 	0.823	0.7977	0.7507	0.059
Mof_O 	O 	0.0504	0.85118	0.44749	-0.421
Mof_O 	O 	0.04913	0.76909	0.44842	-0.435
Mof_C 	C 	0.1453	0.8027	0.2942	0.04
Mof_C 	C 	0.0619	0.8098	0.4304	0.381
Mof_C 	C 	0.1065	0.8508	0.3598	0.041
Mof_H 	H 	0.0979	0.8815	0.373	0.031
Mof_C 	C 	0.1297	0.7589	0.3197	-0.117
Mof_H 	H 	0.1369	0.7279	0.3064	0.074
Mof_C 	C 	0.1338	0.8486	0.315	-0.114
Mof_H 	H 	0.144	0.8776	0.2996	0.073
Mof_C 	C 	0.1042	0.7622	0.3639	0.045
Mof_H 	H 	0.0947	0.7334	0.3803	0.027
Mof_C 	C 	0.1695	0.7586	0.2165	-0.112
Mof_H 	H 	0.1425	0.7375	0.2208	0.066
Mof_C 	C 	0.0924	0.8079	0.3843	-0.127
Mof_C 	C 	0.177	0.7977	0.2493	0.044
Mof_O 	O 	0.9496	0.14882	0.44749	-0.391
Mof_O 	O 	0.95087	0.23091	0.44842	-0.393
Mof_C 	C 	0.8547	0.1973	0.2942	0.037
Mof_C 	C 	0.9381	0.1902	0.4304	0.379
Mof_C 	C 	0.8935	0.1492	0.3598	0.037
Mof_H 	H 	0.9021	0.1185	0.373	0.032
Mof_C 	C 	0.8703	0.2411	0.3197	-0.105
Mof_H 	H 	0.8631	0.2721	0.3064	0.075
Mof_C 	C 	0.8662	0.1514	0.315	-0.105
Mof_H 	H 	0.856	0.1224	0.2996	0.064
Mof_C 	C 	0.8958	0.2378	0.3639	0.041
Mof_H 	H 	0.9053	0.2666	0.3803	0.04
Mof_C 	C 	0.8305	0.2414	0.2165	-0.113
Mof_H 	H 	0.8575	0.2625	0.2208	0.074
Mof_C 	C 	0.9076	0.1921	0.3843	-0.11
Mof_C 	C 	0.823	0.2023	0.2493	0.047
Mof_O 	O 	0.0504	0.14882	0.55251	-0.433
Mof_O 	O 	0.04913	0.23091	0.55158	-0.436
Mof_C 	C 	0.1453	0.1973	0.7058	0.04
Mof_C 	C 	0.0619	0.1902	0.5696	0.384
Mof_C 	C 	0.1065	0.1492	0.6402	0.043
Mof_H 	H 	0.0979	0.1185	0.627	0.017
Mof_C 	C 	0.1297	0.2411	0.6803	-0.12
Mof_H 	H 	0.1369	0.2721	0.6936	0.075
Mof_C 	C 	0.1338	0.1514	0.685	-0.118
Mof_H 	H 	0.144	0.1224	0.7004	0.062
Mof_C 	C 	0.1042	0.2378	0.6361	0.047
Mof_H 	H 	0.0947	0.2666	0.6197	0.025
Mof_C 	C 	0.1695	0.2414	0.7835	-0.113
Mof_H 	H 	0.1425	0.2625	0.7792	0.067
Mof_C 	C 	0.0924	0.1921	0.6157	-0.133
Mof_C 	C 	0.177	0.2023	0.7507	0.042
Mof_Cu	Cu	0.5	0	0.14396	0.874
Mof_Cu	Cu	0.5	2.57759e-33	0.2402	0.883
Mof_Cu	Cu	0.5	1.03104e-32	0.85604	0.88
Mof_Cu	Cu	0.5	1.03104e-32	0.7598	0.882
Mof_Cu	Cu	0.14396	0.5	-0	0.874
Mof_Cu	Cu	0.2402	0.5	-0	0.883
Mof_Cu	Cu	0.85604	0.5	-0	0.88
Mof_Cu	Cu	0.7598	0.5	-0	0.882
Mof_Cu	Cu	7.02988e-33	0.14396	0.5	0.874
Mof_Cu	Cu	1.21851e-32	0.2402	0.5	0.883
Mof_Cu	Cu	1.73402e-32	0.85604	0.5	0.88
Mof_Cu	Cu	1.73402e-32	0.7598	0.5	0.882
Mof_O 	O 	0.94749	0.5504	0.64882	-0.383
Mof_O 	O 	0.94842	0.54913	0.73091	-0.391
Mof_C 	C 	0.7942	0.6453	0.6973	0.034
Mof_C 	C 	0.9304	0.5619	0.6902	0.374
Mof_C 	C 	0.8598	0.6065	0.6492	0.033
Mof_H 	H 	0.873	0.5979	0.6185	0.039
Mof_C 	C 	0.8197	0.6297	0.7411	-0.103
Mof_H 	H 	0.8064	0.6369	0.7721	0.072
Mof_C 	C 	0.815	0.6338	0.6514	-0.102
Mof_H 	H 	0.7996	0.644	0.6224	0.068
Mof_C 	C 	0.8639	0.6042	0.7378	0.036
Mof_H 	H 	0.8803	0.5947	0.7666	0.041
Mof_C 	C 	0.7165	0.6695	0.7414	-0.118
Mof_H 	H 	0.7208	0.6425	0.7625	0.073
Mof_C 	C 	0.8843	0.5924	0.6921	-0.106
Mof_C 	C 	0.7493	0.677	0.7023	0.052
Mof_O 	O 	0.05251	0.4496	0.64882	-0.428
Mof_O 	O 	0.05158	0.45087	0.73091	-0.435
Mof_C 	C 	0.2058	0.3547	0.6973	0.042
Mof_C 	C 	0.0696	0.4381	0.6902	0.385
Mof_C 	C 	0.1402	0.3935	0.6492	0.045
Mof_H 	H 	0.127	0.4021	0.6185	0.026
Mof_C 	C 	0.1803	0.3703	0.7411	-0.116
Mof_H 	H 	0.1936	0.3631	0.7721	0.075
Mof_C 	C 	0.185	0.3662	0.6514	-0.114
Mof_H 	H 	0.2004	0.356	0.6224	0.071
Mof_C 	C 	0.1361	0.3958	0.7378	0.048
Mof_H 	H 	0.1197	0.4053	0.7666	0.028
Mof_C 	C 	0.2835	0.3305	0.7414	-0.113
Mof_H 	H 	0.2792	0.3575	0.7625	0.072
Mof_C 	C 	0.1157	0.4076	0.6921	-0.128
Mof_C 	C 	0.2507	0.323	0.7023	0.046
Mof_O 	O 	0.05251	0.5504	0.35118	-0.428
Mof_O 	O 	0.05158	0.54913	0.26909	-0.437
Mof_C 	C 	0.2058	0.6453	0.3027	0.043
Mof_C 	C 	0.0696	0.5619	0.3098	0.386
Mof_C 	C 	0.1402	0.6065	0.3508	0.046
Mof_H 	H 	0.127	0.5979	0.3815	0.026
Mof_C 	C 	0.1803	0.6297	0.2589	-0.118
Mof_H 	H 	0.1936	0.6369	0.2279	0.076
Mof_C 	C 	0.185	0.6338	0.3486	-0.115
Mof_H 	H 	0.2004	0.644	0.3776	0.071
Mof_C 	C 	0.1361	0.6042	0.2622	0.05
Mof_H 	H 	0.1197	0.5947	0.2334	0.026
Mof_C 	C 	0.2835	0.6695	0.2586	-0.112
Mof_H 	H 	0.2792	0.6425	0.2375	0.071
Mof_C 	C 	0.1157	0.5924	0.3079	-0.13
Mof_C 	C 	0.2507	0.677	0.2977	0.046
Mof_O 	O 	0.94749	0.4496	0.35118	-0.384
Mof_O 	O 	0.94842	0.45087	0.26909	-0.393
Mof_C 	C 	0.7942	0.3547	0.3027	0.036
Mof_C 	C 	0.9304	0.4381	0.3098	0.375
Mof_C 	C 	0.8598	0.3935	0.3508	0.035
Mof_H 	H 	0.873	0.4021	0.3815	0.038
Mof_C 	C 	0.8197	0.3703	0.2589	-0.106
Mof_H 	H 	0.8064	0.3631	0.2279	0.074
Mof_C 	C 	0.815	0.3662	0.3486	-0.104
Mof_H 	H 	0.7996	0.356	0.3776	0.069
Mof_C 	C 	0.8639	0.3958	0.2622	0.039
Mof_H 	H 	0.8803	0.4053	0.2334	0.039
Mof_C 	C 	0.7165	0.3305	0.2586	-0.113
Mof_H 	H 	0.7208	0.3575	0.2375	0.072
Mof_C 	C 	0.8843	0.4076	0.3079	-0.109
Mof_C 	C 	0.7493	0.323	0.2977	0.049
Mof_O 	O 	0.64882	0.94749	0.5504	-0.383
Mof_O 	O 	0.73091	0.94842	0.54913	-0.391
Mof_C 	C 	0.6973	0.7942	0.6453	0.034
Mof_C 	C 	0.6902	0.9304	0.5619	0.374
Mof_C 	C 	0.6492	0.8598	0.6065	0.033
Mof_H 	H 	0.6185	0.873	0.5979	0.039
Mof_C 	C 	0.7411	0.8197	0.6297	-0.103
Mof_H 	H 	0.7721	0.8064	0.6369	0.072
Mof_C 	C 	0.6514	0.815	0.6338	-0.102
Mof_H 	H 	0.6224	0.7996	0.644	0.068
Mof_C 	C 	0.7378	0.8639	0.6042	0.036
Mof_H 	H 	0.7666	0.8803	0.5947	0.041
Mof_C 	C 	0.7414	0.7165	0.6695	-0.118
Mof_H 	H 	0.7625	0.7208	0.6425	0.073
Mof_C 	C 	0.6921	0.8843	0.5924	-0.106
Mof_C 	C 	0.7023	0.7493	0.677	0.052
Mof_O 	O 	0.64882	0.05251	0.4496	-0.428
Mof_O 	O 	0.73091	0.05158	0.45087	-0.435
Mof_C 	C 	0.6973	0.2058	0.3547	0.042
Mof_C 	C 	0.6902	0.0696	0.4381	0.385
Mof_C 	C 	0.6492	0.1402	0.3935	0.045
Mof_H 	H 	0.6185	0.127	0.4021	0.026
Mof_C 	C 	0.7411	0.1803	0.3703	-0.116
Mof_H 	H 	0.7721	0.1936	0.3631	0.075
Mof_C 	C 	0.6514	0.185	0.3662	-0.114
Mof_H 	H 	0.6224	0.2004	0.356	0.071
Mof_C 	C 	0.7378	0.1361	0.3958	0.048
Mof_H 	H 	0.7666	0.1197	0.4053	0.028
Mof_C 	C 	0.7414	0.2835	0.3305	-0.113
Mof_H 	H 	0.7625	0.2792	0.3575	0.072
Mof_C 	C 	0.6921	0.1157	0.4076	-0.128
Mof_C 	C 	0.7023	0.2507	0.323	0.046
Mof_O 	O 	0.35118	0.05251	0.5504	-0.428
Mof_O 	O 	0.26909	0.05158	0.54913	-0.437
Mof_C 	C 	0.3027	0.2058	0.6453	0.043
Mof_C 	C 	0.3098	0.0696	0.5619	0.386
Mof_C 	C 	0.3508	0.1402	0.6065	0.046
Mof_H 	H 	0.3815	0.127	0.5979	0.026
Mof_C 	C 	0.2589	0.1803	0.6297	-0.118
Mof_H 	H 	0.2279	0.1936	0.6369	0.076
Mof_C 	C 	0.3486	0.185	0.6338	-0.115
Mof_H 	H 	0.3776	0.2004	0.644	0.071
Mof_C 	C 	0.2622	0.1361	0.6042	0.05
Mof_H 	H 	0.2334	0.1197	0.5947	0.026
Mof_C 	C 	0.2586	0.2835	0.6695	-0.112
Mof_H 	H 	0.2375	0.2792	0.6425	0.071
Mof_C 	C 	0.3079	0.1157	0.5924	-0.13
Mof_C 	C 	0.2977	0.2507	0.677	0.046
Mof_O 	O 	0.35118	0.94749	0.4496	-0.384
Mof_O 	O 	0.26909	0.94842	0.45087	-0.393
Mof_C 	C 	0.3027	0.7942	0.3547	0.036
Mof_C 	C 	0.3098	0.9304	0.4381	0.375
Mof_C 	C 	0.3508	0.8598	0.3935	0.035
Mof_H 	H 	0.3815	0.873	0.4021	0.038
Mof_C 	C 	0.2589	0.8197	0.3703	-0.106
Mof_H 	H 	0.2279	0.8064	0.3631	0.074
Mof_C 	C 	0.3486	0.815	0.3662	-0.104
Mof_H 	H 	0.3776	0.7996	0.356	0.069
Mof_C 	C 	0.2622	0.8639	0.3958	0.039
Mof_H 	H 	0.2334	0.8803	0.4053	0.039
Mof_C 	C 	0.2586	0.7165	0.3305	-0.113
Mof_H 	H 	0.2375	0.7208	0.3575	0.072
Mof_C 	C 	0.3079	0.8843	0.4076	-0.109
Mof_C 	C 	0.2977	0.7493	0.323	0.049
Mof_O 	O 	0.5504	0.64882	0.94749	-0.383
Mof_O 	O 	0.54913	0.73091	0.94842	-0.391
Mof_C 	C 	0.6453	0.6973	0.7942	0.034
Mof_C 	C 	0.5619	0.6902	0.9304	0.374
Mof_C 	C 	0.6065	0.6492	0.8598	0.033
Mof_H 	H 	0.5979	0.6185	0.873	0.039
Mof_C 	C 	0.6297	0.7411	0.8197	-0.103
Mof_H 	H 	0.6369	0.7721	0.8064	0.072
Mof_C 	C 	0.6338	0.6514	0.815	-0.102
Mof_H 	H 	0.644	0.6224	0.7996	0.068
Mof_C 	C 	0.6042	0.7378	0.8639	0.036
Mof_H 	H 	0.5947	0.7666	0.8803	0.041
Mof_C 	C 	0.6695	0.7414	0.7165	-0.118
Mof_H 	H 	0.6425	0.7625	0.7208	0.073
Mof_C 	C 	0.5924	0.6921	0.8843	-0.106
Mof_C 	C 	0.677	0.7023	0.7493	0.052
Mof_O 	O 	0.4496	0.64882	0.05251	-0.428
Mof_O 	O 	0.45087	0.73091	0.05158	-0.435
Mof_C 	C 	0.3547	0.6973	0.2058	0.042
Mof_C 	C 	0.4381	0.6902	0.0696	0.385
Mof_C 	C 	0.3935	0.6492	0.1402	0.045
Mof_H 	H 	0.4021	0.6185	0.127	0.026
Mof_C 	C 	0.3703	0.7411	0.1803	-0.116
Mof_H 	H 	0.3631	0.7721	0.1936	0.075
Mof_C 	C 	0.3662	0.6514	0.185	-0.114
Mof_H 	H 	0.356	0.6224	0.2004	0.071
Mof_C 	C 	0.3958	0.7378	0.1361	0.048
Mof_H 	H 	0.4053	0.7666	0.1197	0.028
Mof_C 	C 	0.3305	0.7414	0.2835	-0.113
Mof_H 	H 	0.3575	0.7625	0.2792	0.072
Mof_C 	C 	0.4076	0.6921	0.1157	-0.128
Mof_C 	C 	0.323	0.7023	0.2507	0.046
Mof_O 	O 	0.5504	0.35118	0.05251	-0.428
Mof_O 	O 	0.54913	0.26909	0.05158	-0.437
Mof_C 	C 	0.6453	0.3027	0.2058	0.043
Mof_C 	C 	0.5619	0.3098	0.0696	0.386
Mof_C 	C 	0.6065	0.3508	0.1402	0.046
Mof_H 	H 	0.5979	0.3815	0.127	0.026
Mof_C 	C 	0.6297	0.2589	0.1803	-0.118
Mof_H 	H 	0.6369	0.2279	0.1936	0.076
Mof_C 	C 	0.6338	0.3486	0.185	-0.115
Mof_H 	H 	0.644	0.3776	0.2004	0.071
Mof_C 	C 	0.6042	0.2622	0.1361	0.05
Mof_H 	H 	0.5947	0.2334	0.1197	0.026
Mof_C 	C 	0.6695	0.2586	0.2835	-0.112
Mof_H 	H 	0.6425	0.2375	0.2792	0.071
Mof_C 	C 	0.5924	0.3079	0.1157	-0.13
Mof_C 	C 	0.677	0.2977	0.2507	0.046
Mof_O 	O 	0.4496	0.35118	0.94749	-0.384
Mof_O 	O 	0.45087	0.26909	0.94842	-0.393
Mof_C 	C 	0.3547	0.3027	0.7942	0.036
Mof_C 	C 	0.4381	0.3098	0.9304	0.375
Mof_C 	C 	0.3935	0.3508	0.8598	0.035
Mof_H 	H 	0.4021	0.3815	0.873	0.038
Mof_C 	C 	0.3703	0.2589	0.8197	-0.106
Mof_H 	H 	0.3631	0.2279	0.8064	0.074
Mof_C 	C 	0.3662	0.3486	0.815	-0.104
Mof_H 	H 	0.356	0.3776	0.7996	0.069
Mof_C 	C 	0.3958	0.2622	0.8639	0.039
Mof_H 	H 	0.4053	0.2334	0.8803	0.039
Mof_C 	C 	0.3305	0.2586	0.7165	-0.113
Mof_H 	H 	0.3575	0.2375	0.7208	0.072
Mof_C 	C 	0.4076	0.3079	0.8843	-0.109
Mof_C 	C 	0.323	0.2977	0.7493	0.049
Mof_O 	O 	0.05251	0.4496	0.35118	-0.428
Mof_O 	O 	0.05158	0.45087	0.26909	-0.438
Mof_C 	C 	0.2058	0.3547	0.3027	0.044
Mof_C 	C 	0.0696	0.4381	0.3098	0.386
Mof_C 	C 	0.1402	0.3935	0.3508	0.046
Mof_H 	H 	0.127	0.4021	0.3815	0.026
Mof_C 	C 	0.1803	0.3703	0.2589	-0.118
Mof_H 	H 	0.1936	0.3631	0.2279	0.077
Mof_C 	C 	0.185	0.3662	0.3486	-0.116
Mof_H 	H 	0.2004	0.356	0.3776	0.071
Mof_C 	C 	0.1361	0.3958	0.2622	0.05
Mof_H 	H 	0.1197	0.4053	0.2334	0.026
Mof_C 	C 	0.2835	0.3305	0.2586	-0.11
Mof_H 	H 	0.2792	0.3575	0.2375	0.07
Mof_C 	C 	0.1157	0.4076	0.3079	-0.13
Mof_C 	C 	0.2507	0.323	0.2977	0.045
Mof_O 	O 	0.94749	0.5504	0.35118	-0.384
Mof_O 	O 	0.94842	0.54913	0.26909	-0.393
Mof_C 	C 	0.7942	0.6453	0.3027	0.035
Mof_C 	C 	0.9304	0.5619	0.3098	0.375
Mof_C 	C 	0.8598	0.6065	0.3508	0.035
Mof_H 	H 	0.873	0.5979	0.3815	0.038
Mof_C 	C 	0.8197	0.6297	0.2589	-0.106
Mof_H 	H 	0.8064	0.6369	0.2279	0.073
Mof_C 	C 	0.815	0.6338	0.3486	-0.104
Mof_H 	H 	0.7996	0.644	0.3776	0.069
Mof_C 	C 	0.8639	0.6042	0.2622	0.038
Mof_H 	H 	0.8803	0.5947	0.2334	0.039
Mof_C 	C 	0.7165	0.6695	0.2586	-0.115
Mof_H 	H 	0.7208	0.6425	0.2375	0.072
Mof_C 	C 	0.8843	0.5924	0.3079	-0.108
Mof_C 	C 	0.7493	0.677	0.2977	0.05
Mof_O 	O 	0.94749	0.4496	0.64882	-0.383
Mof_O 	O 	0.94842	0.45087	0.73091	-0.391
Mof_C 	C 	0.7942	0.3547	0.6973	0.035
Mof_C 	C 	0.9304	0.4381	0.6902	0.374
Mof_C 	C 	0.8598	0.3935	0.6492	0.034
Mof_H 	H 	0.873	0.4021	0.6185	0.038
Mof_C 	C 	0.8197	0.3703	0.7411	-0.104
Mof_H 	H 	0.8064	0.3631	0.7721	0.072
Mof_C 	C 	0.815	0.3662	0.6514	-0.103
Mof_H 	H 	0.7996	0.356	0.6224	0.069
Mof_C 	C 	0.8639	0.3958	0.7378	0.037
Mof_H 	H 	0.8803	0.4053	0.7666	0.041
Mof_C 	C 	0.7165	0.3305	0.7414	-0.116
Mof_H 	H 	0.7208	0.3575	0.7625	0.073
Mof_C 	C 	0.8843	0.4076	0.6921	-0.107
Mof_C 	C 	0.7493	0.323	0.7023	0.05
Mof_O 	O 	0.05251	0.5504	0.64882	-0.427
Mof_O 	O 	0.05158	0.54913	0.73091	-0.435
Mof_C 	C 	0.2058	0.6453	0.6973	0.041
Mof_C 	C 	0.0696	0.5619	0.6902	0.385
Mof_C 	C 	0.1402	0.6065	0.6492	0.044
Mof_H 	H 	0.127	0.5979	0.6185	0.026
Mof_C 	C 	0.1803	0.6297	0.7411	-0.115
Mof_H 	H 	0.1936	0.6369	0.7721	0.075
Mof_C 	C 	0.185	0.6338	0.6514	-0.113
Mof_H 	H 	0.2004	0.644	0.6224	0.07
Mof_C 	C 	0.1361	0.6042	0.7378	0.048
Mof_H 	H 	0.1197	0.5947	0.7666	0.028
Mof_C 	C 	0.2835	0.6695	0.7414	-0.115
Mof_H 	H 	0.2792	0.6425	0.7625	0.072
Mof_C 	C 	0.1157	0.5924	0.6921	-0.128
Mof_C 	C 	0.2507	0.677	0.7023	0.048
Mof_O 	O 	0.35118	0.05251	0.4496	-0.428
Mof_O 	O 	0.26909	0.05158	0.45087	-0.438
Mof_C 	C 	0.3027	0.2058	0.3547	0.044
Mof_C 	C 	0.3098	0.0696	0.4381	0.386
Mof_C 	C 	0.3508	0.1402	0.3935	0.046
Mof_H 	H 	0.3815	0.127	0.4021	0.026
Mof_C 	C 	0.2589	0.1803	0.3703	-0.118
Mof_H 	H 	0.2279	0.1936	0.3631	0.077
Mof_C 	C 	0.3486	0.185	0.3662	-0.116
Mof_H 	H 	0.3776	0.2004	0.356	0.071
Mof_C 	C 	0.2622	0.1361	0.3958	0.05
Mof_H 	H 	0.2334	0.1197	0.4053	0.026
Mof_C 	C 	0.2586	0.2835	0.3305	-0.11
Mof_H 	H 	0.2375	0.2792	0.3575	0.07
Mof_C 	C 	0.3079	0.1157	0.4076	-0.13
Mof_C 	C 	0.2977	0.2507	0.323	0.045
Mof_O 	O 	0.35118	0.94749	0.5504	-0.384
Mof_O 	O 	0.26909	0.94842	0.54913	-0.393
Mof_C 	C 	0.3027	0.7942	0.6453	0.035
Mof_C 	C 	0.3098	0.9304	0.5619	0.375
Mof_C 	C 	0.3508	0.8598	0.6065	0.035
Mof_H 	H 	0.3815	0.873	0.5979	0.038
Mof_C 	C 	0.2589	0.8197	0.6297	-0.106
Mof_H 	H 	0.2279	0.8064	0.6369	0.073
Mof_C 	C 	0.3486	0.815	0.6338	-0.104
Mof_H 	H 	0.3776	0.7996	0.644	0.069
Mof_C 	C 	0.2622	0.8639	0.6042	0.038
Mof_H 	H 	0.2334	0.8803	0.5947	0.039
Mof_C 	C 	0.2586	0.7165	0.6695	-0.115
Mof_H 	H 	0.2375	0.7208	0.6425	0.072
Mof_C 	C 	0.3079	0.8843	0.5924	-0.108
Mof_C 	C 	0.2977	0.7493	0.677	0.05
Mof_O 	O 	0.64882	0.94749	0.4496	-0.383
Mof_O 	O 	0.73091	0.94842	0.45087	-0.391
Mof_C 	C 	0.6973	0.7942	0.3547	0.035
Mof_C 	C 	0.6902	0.9304	0.4381	0.374
Mof_C 	C 	0.6492	0.8598	0.3935	0.034
Mof_H 	H 	0.6185	0.873	0.4021	0.038
Mof_C 	C 	0.7411	0.8197	0.3703	-0.104
Mof_H 	H 	0.7721	0.8064	0.3631	0.072
Mof_C 	C 	0.6514	0.815	0.3662	-0.103
Mof_H 	H 	0.6224	0.7996	0.356	0.069
Mof_C 	C 	0.7378	0.8639	0.3958	0.037
Mof_H 	H 	0.7666	0.8803	0.4053	0.041
Mof_C 	C 	0.7414	0.7165	0.3305	-0.116
Mof_H 	H 	0.7625	0.7208	0.3575	0.073
Mof_C 	C 	0.6921	0.8843	0.4076	-0.107
Mof_C 	C 	0.7023	0.7493	0.323	0.05
Mof_O 	O 	0.64882	0.05251	0.5504	-0.427
Mof_O 	O 	0.73091	0.05158	0.54913	-0.435
Mof_C 	C 	0.6973	0.2058	0.6453	0.041
Mof_C 	C 	0.6902	0.0696	0.5619	0.385
Mof_C 	C 	0.6492	0.1402	0.6065	0.044
Mof_H 	H 	0.6185	0.127	0.5979	0.026
Mof_C 	C 	0.7411	0.1803	0.6297	-0.115
Mof_H 	H 	0.7721	0.1936	0.6369	0.075
Mof_C 	C 	0.6514	0.185	0.6338	-0.113
Mof_H 	H 	0.6224	0.2004	0.644	0.07
Mof_C 	C 	0.7378	0.1361	0.6042	0.048
Mof_H 	H 	0.7666	0.1197	0.5947	0.028
Mof_C 	C 	0.7414	0.2835	0.6695	-0.115
Mof_H 	H 	0.7625	0.2792	0.6425	0.072
Mof_C 	C 	0.6921	0.1157	0.5924	-0.128
Mof_C 	C 	0.7023	0.2507	0.677	0.048
Mof_O 	O 	0.4496	0.35118	0.05251	-0.428
Mof_O 	O 	0.45087	0.26909	0.05158	-0.438
Mof_C 	C 	0.3547	0.3027	0.2058	0.044
Mof_C 	C 	0.4381	0.3098	0.0696	0.386
Mof_C 	C 	0.3935	0.3508	0.1402	0.046
Mof_H 	H 	0.4021	0.3815	0.127	0.026
Mof_C 	C 	0.3703	0.2589	0.1803	-0.118
Mof_H 	H 	0.3631	0.2279	0.1936	0.077
Mof_C 	C 	0.3662	0.3486	0.185	-0.116
Mof_H 	H 	0.356	0.3776	0.2004	0.071
Mof_C 	C 	0.3958	0.2622	0.1361	0.05
Mof_H 	H 	0.4053	0.2334	0.1197	0.026
Mof_C 	C 	0.3305	0.2586	0.2835	-0.11
Mof_H 	H 	0.3575	0.2375	0.2792	0.07
Mof_C 	C 	0.4076	0.3079	0.1157	-0.13
Mof_C 	C 	0.323	0.2977	0.2507	0.045
Mof_O 	O 	0.5504	0.35118	0.94749	-0.384
Mof_O 	O 	0.54913	0.26909	0.94842	-0.393
Mof_C 	C 	0.6453	0.3027	0.7942	0.035
Mof_C 	C 	0.5619	0.3098	0.9304	0.375
Mof_C 	C 	0.6065	0.3508	0.8598	0.035
Mof_H 	H 	0.5979	0.3815	0.873	0.038
Mof_C 	C 	0.6297	0.2589	0.8197	-0.106
Mof_H 	H 	0.6369	0.2279	0.8064	0.073
Mof_C 	C 	0.6338	0.3486	0.815	-0.104
Mof_H 	H 	0.644	0.3776	0.7996	0.069
Mof_C 	C 	0.6042	0.2622	0.8639	0.038
Mof_H 	H 	0.5947	0.2334	0.8803	0.039
Mof_C 	C 	0.6695	0.2586	0.7165	-0.115
Mof_H 	H 	0.6425	0.2375	0.7208	0.072
Mof_C 	C 	0.5924	0.3079	0.8843	-0.108
Mof_C 	C 	0.677	0.2977	0.7493	0.05
Mof_O 	O 	0.4496	0.64882	0.94749	-0.383
Mof_O 	O 	0.45087	0.73091	0.94842	-0.391
Mof_C 	C 	0.3547	0.6973	0.7942	0.035
Mof_C 	C 	0.4381	0.6902	0.9304	0.374
Mof_C 	C 	0.3935	0.6492	0.8598	0.034
Mof_H 	H 	0.4021	0.6185	0.873	0.038
Mof_C 	C 	0.3703	0.7411	0.8197	-0.104
Mof_H 	H 	0.3631	0.7721	0.8064	0.072
Mof_C 	C 	0.3662	0.6514	0.815	-0.103
Mof_H 	H 	0.356	0.6224	0.7996	0.069
Mof_C 	C 	0.3958	0.7378	0.8639	0.037
Mof_H 	H 	0.4053	0.7666	0.8803	0.041
Mof_C 	C 	0.3305	0.7414	0.7165	-0.116
Mof_H 	H 	0.3575	0.7625	0.7208	0.073
Mof_C 	C 	0.4076	0.6921	0.8843	-0.107
Mof_C 	C 	0.323	0.7023	0.7493	0.05
Mof_O 	O 	0.5504	0.64882	0.05251	-0.427
Mof_O 	O 	0.54913	0.73091	0.05158	-0.435
Mof_C 	C 	0.6453	0.6973	0.2058	0.041
Mof_C 	C 	0.5619	0.6902	0.0696	0.385
Mof_C 	C 	0.6065	0.6492	0.1402	0.044
Mof_H 	H 	0.5979	0.6185	0.127	0.026
Mof_C 	C 	0.6297	0.7411	0.1803	-0.115
Mof_H 	H 	0.6369	0.7721	0.1936	0.075
Mof_C 	C 	0.6338	0.6514	0.185	-0.113
Mof_H 	H 	0.644	0.6224	0.2004	0.07
Mof_C 	C 	0.6042	0.7378	0.1361	0.048
Mof_H 	H 	0.5947	0.7666	0.1197	0.028
Mof_C 	C 	0.6695	0.7414	0.2835	-0.115
Mof_H 	H 	0.6425	0.7625	0.2792	0.072
Mof_C 	C 	0.5924	0.6921	0.1157	-0.128
Mof_C 	C 	0.677	0.7023	0.2507	0.048
Mof_Cu	Cu	7.56965e-33	0.5	0.64396	0.877
Mof_Cu	Cu	7.93049e-33	0.5	0.7402	0.883
Mof_Cu	Cu	6.49012e-33	0.5	0.35604	0.877
Mof_Cu	Cu	6.12928e-33	0.5	0.2598	0.882
Mof_Cu	Cu	0.64396	5.15518e-33	0.5	0.877
Mof_Cu	Cu	0.7402	5.15518e-33	0.5	0.883
Mof_Cu	Cu	0.35604	5.15518e-33	0.5	0.877
Mof_Cu	Cu	0.2598	5.15518e-33	0.5	0.882
Mof_Cu	Cu	0.5	0.64396	-0	0.877
Mof_Cu	Cu	0.5	0.7402	-0	0.883
Mof_Cu	Cu	0.5	0.35604	-0	0.877
Mof_Cu	Cu	0.5	0.2598	-0	0.882
_end
