data_functionalizedCrystal
_audit_creation_method	'EQeq! by Chris Wilmer'
_symmetry_space_group_name_H-M	'P1'
_symmetry_Int_Tables_number	1
_symmetry_cell_setting	triclinic
loop_
_symmetry_equiv_pos_as_xyz
  x,y,z
_cell_length_a	13.598
_cell_length_b	15.095
_cell_length_c	15.251
_cell_angle_alpha	90
_cell_angle_beta	93.613
_cell_angle_gamma	90
loop_
_atom_site_label
_atom_site_type_symbol
_atom_site_fract_x
_atom_site_fract_y
_atom_site_fract_z
_atom_site_charge
Mof_Cu	Cu	0.05454	0.81385	0.39589	0.854
Mof_C 	C 	0.317	0.1585	0.1221	0.09
Mof_H 	H 	0.3391	0.1429	0.0677	-0.031
Mof_C 	C 	0.2581	0.0998	0.1639	-0.157
Mof_H 	H 	0.2414	0.0456	0.1381	0.073
Mof_C 	C 	0.2241	0.1221	0.2443	0.075
Mof_C 	C 	0.2514	0.2027	0.2794	-0.151
Mof_H 	H 	0.2295	0.2202	0.3333	0.091
Mof_C 	C 	0.3107	0.2571	0.2349	0.084
Mof_H 	H 	0.3293	0.3111	0.2601	-0.007
Mof_C 	C 	0.1628	0.0619	0.2935	0.055
Mof_C 	C 	0.5802	0.1867	0.193	0.107
Mof_H 	H 	0.5563	0.15	0.1476	-0.034
Mof_C 	C 	0.6504	0.1539	0.253	-0.159
Mof_H 	H 	0.6749	0.0968	0.2471	0.089
Mof_C 	C 	0.6836	0.2066	0.3218	0.085
Mof_C 	C 	0.6451	0.2891	0.3265	-0.157
Mof_H 	H 	0.6648	0.3258	0.3733	0.095
Mof_C 	C 	0.578	0.3186	0.2635	0.103
Mof_H 	H 	0.5541	0.3762	0.2674	-0.01
Mof_C 	C 	0.7611	0.1727	0.3865	0.09
Mof_N 	N 	0.3436	0.2364	0.156	-0.24
Mof_N 	N 	0.1499	0.9764	0.2753	-0.073
Mof_N 	N 	0.0922	0.9479	0.3375	-0.118
Mof_N 	N 	0.0731	0.0141	0.3898	-0.175
Mof_N 	N 	0.1165	0.0869	0.3643	-0.09
Mof_N 	N 	0.5452	0.268	0.1967	-0.24
Mof_N 	N 	0.8079	0.0962	0.3778	-0.089
Mof_N 	N 	0.8696	0.0917	0.4482	-0.113
Mof_N 	N 	0.8606	0.1648	0.495	-0.156
Mof_N 	N 	0.7909	0.2171	0.458	-0.096
Mof_N 	N 	0.948	0.8829	0.4503	-0.237
Mof_N 	N 	0.8642	0.8637	0.4449	-0.035
Mof_N 	N 	0.782	0.8433	0.4391	-0.062
Mof_Cu	Cu	0.44546	0.31385	0.10411	0.859
Mof_C 	C 	0.183	0.6585	0.3779	0.089
Mof_H 	H 	0.1609	0.6429	0.4323	-0.02
Mof_C 	C 	0.2419	0.5998	0.3361	-0.147
Mof_H 	H 	0.2586	0.5456	0.3619	0.086
Mof_C 	C 	0.2759	0.6221	0.2557	0.069
Mof_C 	C 	0.2486	0.7027	0.2206	-0.143
Mof_H 	H 	0.2705	0.7202	0.1667	0.087
Mof_C 	C 	0.1893	0.7571	0.2651	0.082
Mof_H 	H 	0.1707	0.8111	0.2399	-0.008
Mof_C 	C 	0.3372	0.5619	0.2065	0.088
Mof_C 	C 	0.9198	0.6867	0.307	0.109
Mof_H 	H 	0.9437	0.65	0.3524	-0.014
Mof_C 	C 	0.8496	0.6539	0.247	-0.152
Mof_H 	H 	0.8251	0.5968	0.2529	0.098
Mof_C 	C 	0.8164	0.7066	0.1782	0.084
Mof_C 	C 	0.8549	0.7891	0.1735	-0.15
Mof_H 	H 	0.8352	0.8258	0.1267	0.093
Mof_C 	C 	0.922	0.8186	0.2365	0.103
Mof_H 	H 	0.9459	0.8762	0.2326	0.005
Mof_C 	C 	0.7389	0.6727	0.1135	0.091
Mof_N 	N 	0.1564	0.7364	0.344	-0.237
Mof_N 	N 	0.3501	0.4764	0.2247	-0.095
Mof_N 	N 	0.4078	0.4479	0.1625	-0.129
Mof_N 	N 	0.4269	0.5141	0.1102	-0.157
Mof_N 	N 	0.3835	0.5869	0.1357	-0.094
Mof_N 	N 	0.9548	0.768	0.3033	-0.226
Mof_N 	N 	0.6921	0.5962	0.1222	-0.085
Mof_N 	N 	0.6304	0.5917	0.0518	-0.121
Mof_N 	N 	0.6394	0.6648	0.005	-0.173
Mof_N 	N 	0.7091	0.7171	0.042	-0.103
Mof_N 	N 	0.552	0.3829	0.0497	-0.273
Mof_N 	N 	0.6358	0.3637	0.0551	-0.045
Mof_N 	N 	0.718	0.3433	0.0609	-0.077
Mof_Cu	Cu	0.94546	0.18615	0.60411	0.882
Mof_C 	C 	0.683	0.8415	0.8779	0.098
Mof_H 	H 	0.6609	0.8571	0.9323	0.001
Mof_C 	C 	0.7419	0.9002	0.8361	-0.135
Mof_H 	H 	0.7586	0.9544	0.8619	0.105
Mof_C 	C 	0.7759	0.8779	0.7557	0.073
Mof_C 	C 	0.7486	0.7973	0.7206	-0.136
Mof_H 	H 	0.7705	0.7798	0.6667	0.097
Mof_C 	C 	0.6893	0.7429	0.7651	0.091
Mof_H 	H 	0.6707	0.6889	0.7399	-0.002
Mof_C 	C 	0.8372	0.9381	0.7065	0.128
Mof_C 	C 	0.4198	0.8133	0.807	0.111
Mof_H 	H 	0.4437	0.85	0.8524	-0.015
Mof_C 	C 	0.3496	0.8461	0.747	-0.156
Mof_H 	H 	0.3251	0.9032	0.7529	0.105
Mof_C 	C 	0.3164	0.7934	0.6782	0.089
Mof_C 	C 	0.3549	0.7109	0.6735	-0.158
Mof_H 	H 	0.3352	0.6742	0.6267	0.094
Mof_C 	C 	0.422	0.6814	0.7365	0.105
Mof_H 	H 	0.4459	0.6238	0.7326	-0.011
Mof_C 	C 	0.2389	0.8273	0.6135	0.091
Mof_N 	N 	0.6564	0.7636	0.844	-0.228
Mof_N 	N 	0.8501	0.0236	0.7247	-0.11
Mof_N 	N 	0.9078	0.0521	0.6625	-0.133
Mof_N 	N 	0.9269	0.9859	0.6102	-0.118
Mof_N 	N 	0.8835	0.9131	0.6357	-0.084
Mof_N 	N 	0.4548	0.732	0.8033	-0.237
Mof_N 	N 	0.1921	0.9038	0.6222	-0.081
Mof_N 	N 	0.1304	0.9083	0.5518	-0.112
Mof_N 	N 	0.1394	0.8352	0.505	-0.161
Mof_N 	N 	0.2091	0.7829	0.542	-0.097
Mof_N 	N 	0.052	0.1171	0.5497	-0.28
Mof_N 	N 	0.1358	0.1363	0.5551	-0.044
Mof_N 	N 	0.218	0.1567	0.5609	-0.077
Mof_Cu	Cu	0.55454	0.68615	0.89589	0.878
Mof_C 	C 	0.817	0.3415	0.6221	0.099
Mof_H 	H 	0.8391	0.3571	0.5677	-0.01
Mof_C 	C 	0.7581	0.4002	0.6639	-0.145
Mof_H 	H 	0.7414	0.4544	0.6381	0.092
Mof_C 	C 	0.7241	0.3779	0.7443	0.08
Mof_C 	C 	0.7514	0.2973	0.7794	-0.144
Mof_H 	H 	0.7295	0.2798	0.8333	0.101
Mof_C 	C 	0.8107	0.2429	0.7349	0.093
Mof_H 	H 	0.8293	0.1889	0.7601	-0.001
Mof_C 	C 	0.6628	0.4381	0.7935	0.095
Mof_C 	C 	0.0802	0.3133	0.693	0.109
Mof_H 	H 	0.0563	0.35	0.6476	-0.035
Mof_C 	C 	0.1504	0.3461	0.753	-0.164
Mof_H 	H 	0.1749	0.4032	0.7471	0.097
Mof_C 	C 	0.1836	0.2934	0.8218	0.091
Mof_C 	C 	0.1451	0.2109	0.8265	-0.165
Mof_H 	H 	0.1648	0.1742	0.8733	0.096
Mof_C 	C 	0.078	0.1814	0.7635	0.105
Mof_H 	H 	0.0541	0.1238	0.7674	-0.025
Mof_C 	C 	0.2611	0.3273	0.8865	0.09
Mof_N 	N 	0.8436	0.2636	0.656	-0.231
Mof_N 	N 	0.6499	0.5236	0.7753	-0.089
Mof_N 	N 	0.5922	0.5521	0.8375	-0.122
Mof_N 	N 	0.5731	0.4859	0.8898	-0.139
Mof_N 	N 	0.6165	0.4131	0.8643	-0.081
Mof_N 	N 	0.0452	0.232	0.6967	-0.251
Mof_N 	N 	0.3079	0.4038	0.8778	-0.084
Mof_N 	N 	0.3696	0.4083	0.9482	-0.106
Mof_N 	N 	0.3606	0.3352	0.995	-0.144
Mof_N 	N 	0.2909	0.2829	0.958	-0.089
Mof_N 	N 	0.448	0.6171	0.9503	-0.249
Mof_N 	N 	0.3642	0.6363	0.9449	-0.035
Mof_N 	N 	0.282	0.6567	0.9391	-0.062
Mof_Cu	Cu	2.23509e-33	0	0.5	0.841
Mof_Cu	Cu	0.5	0.5	-0	0.854
_end
