# CIF file generated by openbabel 3.1.0, see https://openbabel.org
data_I
_chemical_name_common 'image0'
_cell_length_a 12.4042
_cell_length_b 18.9257
_cell_length_c 21.6698
_cell_angle_alpha 67.155
_cell_angle_beta 86.944
_cell_angle_gamma 84.896
_space_group_name_H-M_alt 'P 1'
_space_group_name_Hall 'P 1'
loop_
    _symmetry_equiv_pos_as_xyz
    x,y,z
loop_
    _atom_site_label
    _atom_site_type_symbol
    _atom_site_fract_x
    _atom_site_fract_y
    _atom_site_fract_z
    _atom_site_occupancy
    Nd1      Nd       0.26036    0.20340    0.26819    1.000
    Nd2      Nd       0.25934    0.30456    0.76803    1.000
    O1       O        0.41310    0.26220    0.20180    1.000
    O2       O        0.17340    0.30370    0.17168    1.000
    O3       O        0.28540    0.13320    0.19505    1.000
    O4       O        0.07930    0.30840    0.81510    1.000
    O5       O        0.31030    0.34180    0.85587    1.000
    O6       O        0.27770    0.18300    0.86538    1.000
    N1       N        0.13460    0.26030    0.34460    1.000
    N2       N        0.04960    0.23650    0.38770    1.000
    N3       N        0.03300    0.28140    0.42100    1.000
    N4       N        0.10700    0.33490    0.40190    1.000
    N5       N        0.30930    0.33110    0.27540    1.000
    N6       N        0.17370    0.07230    0.34610    1.000
    N7       N        0.20810    0.00140    0.39220    1.000
    N8       N        0.12350    0.95920    0.41000    1.000
    N9       N        0.03430    0.99790    0.37740    1.000
    N10      N        0.05870    0.18800    0.25140    1.000
    N11      N        0.36440    0.16970    0.38100    1.000
    N12      N        0.35890    0.19620    0.43030    1.000
    N13      N        0.43700    0.15980    0.47330    1.000
    N14      N        0.49600    0.10880    0.45200    1.000
    N15      N        0.41580    0.09260    0.30040    1.000
    N16      N        0.35890    0.42280    0.68510    1.000
    N17      N        0.45660    0.43360    0.65130    1.000
    N18      N        0.47120    0.50850    0.62280    1.000
    N19      N        0.38250    0.54850    0.63740    1.000
    N20      N        0.16540    0.44070    0.74110    1.000
    N21      N        0.39170    0.25170    0.69210    1.000
    N22      N        0.38590    0.22980    0.63930    1.000
    N23      N        0.48330    0.21090    0.62220    1.000
    N24      N        0.55700    0.22010    0.66160    1.000
    N25      N        0.46400    0.28650    0.79240    1.000
    N26      N        0.14370    0.33080    0.65990    1.000
    N27      N        0.11420    0.39240    0.60310    1.000
    N28      N        0.06910    0.36580    0.56290    1.000
    N29      N        0.06870    0.28700    0.59260    1.000
    N30      N        0.18280    0.18800    0.75640    1.000
    C1       C        0.16520    0.32010    0.35470    1.000
    C2       C        0.25470    0.36140    0.31550    1.000
    C3       C        0.28580    0.43180    0.31750    1.000
    H1       H        0.24940    0.45260    0.34700    1.000
    C4       C        0.36670    0.46780    0.27730    1.000
    H2       H        0.38480    0.51570    0.27690    1.000
    C5       C        0.42460    0.43650    0.23620    1.000
    C6       C        0.51270    0.46920    0.19570    1.000
    H3       H        0.53730    0.51540    0.19560    1.000
    C7       C        0.56360    0.43430    0.15610    1.000
    H4       H        0.62240    0.45770    0.12790    1.000
    C8       C        0.53170    0.36570    0.15600    1.000
    H5       H        0.56870    0.34390    0.12730    1.000
    C9       C        0.44640    0.32810    0.19700    1.000
    C10      C        0.39330    0.36700    0.23670    1.000
    C11      C        0.06740    0.06770    0.33780    1.000
    C12      C        0.00260    0.13100    0.29050    1.000
    C13      C        0.89060    0.13070    0.28860    1.000
    H6       H        0.85390    0.08770    0.31770    1.000
    C14      C        0.83540    0.19290    0.24440    1.000
    H7       H        0.75890    0.19370    0.24300    1.000
    C15      C        0.88840    0.25630    0.20050    1.000
    C16      C        0.83970    0.32370    0.15370    1.000
    H8       H        0.76320    0.32950    0.14950    1.000
    C17      C        0.90130    0.38140    0.11380    1.000
    H9       H        0.86620    0.42640    0.08180    1.000
    C18      C        0.01340    0.37680    0.11800    1.000
    H10      H        0.05310    0.41840    0.08960    1.000
    C19      C        0.06740    0.31120    0.16390    1.000
    C20      C        0.00340    0.25070    0.20610    1.000
    C21      C        0.44890    0.11620    0.39650    1.000
    C22      C        0.47930    0.07510    0.35270    1.000
    C23      C        0.56300    0.01700    0.36720    1.000
    H11      H        0.62340    0.01860    0.39530    1.000
    C24      C        0.58350    0.97770    0.32530    1.000
    H12      H        0.65600    0.94960    0.32630    1.000
    C25      C        0.51680    0.99490    0.26960    1.000
    C26      C        0.52750    0.95560    0.22600    1.000
    H13      H        0.58170    0.91460    0.23270    1.000
    C27      C        0.45800    0.97780    0.17360    1.000
    H14      H        0.46560    0.95150    0.14400    1.000
    C28      C        0.37730    0.03660    0.16170    1.000
    H15      H        0.33190    0.05000    0.12430    1.000
    C29      C        0.36220    0.07630    0.20400    1.000
    C30      C        0.43340    0.05440    0.25820    1.000
    C31      C        0.31630    0.49320    0.67490    1.000
    C32      C        0.21210    0.50470    0.70580    1.000
    C33      C        0.16410    0.57740    0.69920    1.000
    H16      H        0.19970    0.62240    0.67390    1.000
    C34      C        0.06770    0.58280    0.72880    1.000
    H17      H        0.03540    0.63180    0.72460    1.000
    C35      C        0.01450    0.51670    0.76590    1.000
    C36      C        0.91500    0.51510    0.79930    1.000
    H18      H        0.87790    0.56200    0.79750    1.000
    C37      C        0.87000    0.44740    0.83450    1.000
    H19      H        0.80130    0.44820    0.85590    1.000
    C38      C        0.92350    0.37550    0.84000    1.000
    H20      H        0.89040    0.32910    0.86470    1.000
    C39      C        0.02320    0.37350    0.80950    1.000
    C40      C        0.06840    0.44450    0.77080    1.000
    C41      C        0.49890    0.24490    0.70280    1.000
    C42      C        0.53970    0.26260    0.75720    1.000
    C43      C        0.64910    0.25730    0.77010    1.000
    H21      H        0.70130    0.24100    0.74380    1.000
    C44      C        0.68150    0.27600    0.82160    1.000
    H22      H        0.75600    0.27120    0.83160    1.000
    C45      C        0.60400    0.30200    0.85890    1.000
    C46      C        0.62910    0.32290    0.91280    1.000
    H23      H        0.70200    0.31890    0.92590    1.000
    C47      C        0.54860    0.34840    0.94510    1.000
    H24      H        0.56620    0.36130    0.98140    1.000
    C48      C        0.43980    0.35660    0.92710    1.000
    H25      H        0.38580    0.37640    0.95020    1.000
    C49      C        0.41090    0.33590    0.87570    1.000
    C50      C        0.49540    0.30700    0.84230    1.000
    C51      C        0.11420    0.26860    0.65200    1.000
    C52      C        0.13410    0.19010    0.70330    1.000
    C53      C        0.10610    0.12510    0.69410    1.000
    H26      H        0.07130    0.13000    0.65450    1.000
    C54      C        0.12930    0.05500    0.74250    1.000
    H27      H        0.11210    0.01030    0.73630    1.000
    C55      C        0.17890    0.04740    0.80210    1.000
    C56      C        0.20410    0.97820    0.85620    1.000
    H28      H        0.18660    0.93110    0.85450    1.000
    C57      C        0.25340    0.97750    0.91120    1.000
    H29      H        0.27130    0.92990    0.94700    1.000
    C58      C        0.27790    0.04610    0.91560    1.000
    H30      H        0.31120    0.04420    0.95470    1.000
    C59      C        0.25480    0.11640    0.86450    1.000
    C60      C        0.20320    0.11740    0.80680    1.000
    K1       K        0.30643    0.25360    0.06544    1.000
    K2       K        0.12530    0.18489    0.96863    1.000
    K3       K        0.38755    0.88743    0.43567    1.000
    K4       K        0.91448    0.20985    0.54283    1.000
    K5       K        0.97537    0.44792    0.43381    1.000
    K6       K        0.24770    0.22130    0.53510    1.000
    K7       K        0.27640    0.27190    0.51080    1.000
    O7       O        0.35760    0.16590    0.98330    1.000
    C61      C        0.46790    0.13650    0.99220    1.000
    H31      H        0.51300    0.17720    0.99060    1.000
    H32      H        0.49110    0.11880    0.95630    1.000
    H33      H        0.47550    0.09340    0.03560    1.000
    O8       O        0.17120    0.32620    0.95490    1.000
    C62      C        0.12060    0.39890    0.94850    1.000
    H34      H        0.07550    0.41930    0.90870    1.000
    H35      H        0.17610    0.43440    0.94410    1.000
    H36      H        0.07520    0.39310    0.98840    1.000
    O9       O        0.24330    0.80930    0.52900    1.000
    C63      C        0.19290    0.84750    0.57070    1.000
    O10      O        0.81820    0.36570    0.50780    1.000
    C64      C        0.70800    0.35600    0.52180    1.000
    H37      H        0.66840    0.40630    0.51130    1.000
    H38      H        0.68090    0.33070    0.49460    1.000
    H39      H        0.69750    0.32410    0.56940    1.000
    O11      O        0.99200    0.06040    0.99520    1.000
    Nd3      Nd       0.73964    0.79660    0.73181    1.000
    Nd4      Nd       0.74066    0.69544    0.23197    1.000
    O12      O        0.58690    0.73780    0.79820    1.000
    O13      O        0.82660    0.69630    0.82832    1.000
    O14      O        0.71460    0.86680    0.80495    1.000
    O15      O        0.92070    0.69160    0.18490    1.000
    O16      O        0.68970    0.65820    0.14413    1.000
    O17      O        0.72230    0.81700    0.13462    1.000
    N31      N        0.86540    0.73970    0.65540    1.000
    N32      N        0.95040    0.76350    0.61230    1.000
    N33      N        0.96700    0.71860    0.57900    1.000
    N34      N        0.89300    0.66510    0.59810    1.000
    N35      N        0.69070    0.66890    0.72460    1.000
    N36      N        0.82630    0.92770    0.65390    1.000
    N37      N        0.79190    0.99860    0.60780    1.000
    N38      N        0.87650    0.04080    0.59000    1.000
    N39      N        0.96570    0.00210    0.62260    1.000
    N40      N        0.94130    0.81200    0.74860    1.000
    N41      N        0.63560    0.83030    0.61900    1.000
    N42      N        0.64110    0.80380    0.56970    1.000
    N43      N        0.56300    0.84020    0.52670    1.000
    N44      N        0.50400    0.89120    0.54800    1.000
    N45      N        0.58420    0.90740    0.69960    1.000
    N46      N        0.64110    0.57720    0.31490    1.000
    N47      N        0.54340    0.56640    0.34870    1.000
    N48      N        0.52880    0.49150    0.37720    1.000
    N49      N        0.61750    0.45150    0.36260    1.000
    N50      N        0.83460    0.55930    0.25890    1.000
    N51      N        0.60830    0.74830    0.30790    1.000
    N52      N        0.61410    0.77020    0.36070    1.000
    N53      N        0.51670    0.78910    0.37780    1.000
    N54      N        0.44300    0.77990    0.33840    1.000
    N55      N        0.53600    0.71350    0.20760    1.000
    N56      N        0.85630    0.66920    0.34010    1.000
    N57      N        0.88580    0.60760    0.39690    1.000
    N58      N        0.93090    0.63420    0.43710    1.000
    N59      N        0.93130    0.71300    0.40740    1.000
    N60      N        0.81720    0.81200    0.24360    1.000
    C65      C        0.83480    0.67990    0.64530    1.000
    C66      C        0.74530    0.63860    0.68450    1.000
    C67      C        0.71420    0.56820    0.68250    1.000
    H40      H        0.75060    0.54740    0.65300    1.000
    C68      C        0.63330    0.53220    0.72270    1.000
    H41      H        0.61520    0.48430    0.72310    1.000
    C69      C        0.57540    0.56350    0.76380    1.000
    C70      C        0.48730    0.53080    0.80430    1.000
    H42      H        0.46270    0.48460    0.80440    1.000
    C71      C        0.43640    0.56570    0.84390    1.000
    H43      H        0.37760    0.54230    0.87210    1.000
    C72      C        0.46830    0.63430    0.84400    1.000
    H44      H        0.43130    0.65610    0.87270    1.000
    C73      C        0.55360    0.67190    0.80300    1.000
    C74      C        0.60670    0.63300    0.76330    1.000
    C75      C        0.93260    0.93230    0.66220    1.000
    C76      C        0.99740    0.86900    0.70950    1.000
    C77      C        0.10940    0.86930    0.71140    1.000
    H45      H        0.14610    0.91230    0.68230    1.000
    C78      C        0.16460    0.80710    0.75560    1.000
    H46      H        0.24110    0.80630    0.75700    1.000
    C79      C        0.11160    0.74370    0.79950    1.000
    C80      C        0.16030    0.67630    0.84630    1.000
    H47      H        0.23680    0.67050    0.85050    1.000
    C81      C        0.09870    0.61860    0.88620    1.000
    H48      H        0.13380    0.57360    0.91820    1.000
    C82      C        0.98660    0.62320    0.88200    1.000
    H49      H        0.94690    0.58160    0.91040    1.000
    C83      C        0.93260    0.68880    0.83610    1.000
    C84      C        0.99660    0.74930    0.79390    1.000
    C85      C        0.55110    0.88380    0.60350    1.000
    C86      C        0.52070    0.92490    0.64730    1.000
    C87      C        0.43700    0.98300    0.63280    1.000
    H50      H        0.37660    0.98140    0.60470    1.000
    C88      C        0.41650    0.02230    0.67470    1.000
    H51      H        0.34400    0.05040    0.67370    1.000
    C89      C        0.48320    0.00510    0.73040    1.000
    C90      C        0.47250    0.04440    0.77400    1.000
    H52      H        0.41830    0.08540    0.76730    1.000
    C91      C        0.54200    0.02220    0.82640    1.000
    H53      H        0.53440    0.04850    0.85600    1.000
    C92      C        0.62270    0.96340    0.83830    1.000
    H54      H        0.66810    0.95000    0.87570    1.000
    C93      C        0.63780    0.92370    0.79600    1.000
    C94      C        0.56660    0.94560    0.74180    1.000
    C95      C        0.68370    0.50680    0.32510    1.000
    C96      C        0.78790    0.49530    0.29420    1.000
    C97      C        0.83590    0.42260    0.30080    1.000
    H55      H        0.80030    0.37760    0.32610    1.000
    C98      C        0.93230    0.41720    0.27120    1.000
    H56      H        0.96460    0.36820    0.27540    1.000
    C99      C        0.98550    0.48330    0.23410    1.000
    C100     C        0.08500    0.48490    0.20070    1.000
    H57      H        0.12210    0.43800    0.20250    1.000
    C101     C        0.13000    0.55260    0.16550    1.000
    H58      H        0.19870    0.55180    0.14410    1.000
    C102     C        0.07650    0.62450    0.16000    1.000
    H59      H        0.10960    0.67090    0.13530    1.000
    C103     C        0.97680    0.62650    0.19050    1.000
    C104     C        0.93160    0.55550    0.22920    1.000
    C105     C        0.50110    0.75510    0.29720    1.000
    C106     C        0.46030    0.73740    0.24280    1.000
    C107     C        0.35090    0.74270    0.22990    1.000
    H60      H        0.29870    0.75900    0.25620    1.000
    C108     C        0.31850    0.72400    0.17840    1.000
    H61      H        0.24400    0.72880    0.16840    1.000
    C109     C        0.39600    0.69800    0.14110    1.000
    C110     C        0.37090    0.67710    0.08720    1.000
    H62      H        0.29800    0.68110    0.07410    1.000
    C111     C        0.45140    0.65160    0.05490    1.000
    H63      H        0.43380    0.63870    0.01860    1.000
    C112     C        0.56020    0.64340    0.07290    1.000
    H64      H        0.61420    0.62360    0.04980    1.000
    C113     C        0.58910    0.66410    0.12430    1.000
    C114     C        0.50460    0.69300    0.15770    1.000
    C115     C        0.88580    0.73140    0.34800    1.000
    C116     C        0.86590    0.80990    0.29670    1.000
    C117     C        0.89390    0.87490    0.30590    1.000
    H65      H        0.92870    0.87000    0.34550    1.000
    C118     C        0.87070    0.94500    0.25750    1.000
    H66      H        0.88790    0.98970    0.26370    1.000
    C119     C        0.82110    0.95260    0.19790    1.000
    C120     C        0.79590    0.02180    0.14380    1.000
    H67      H        0.81340    0.06890    0.14550    1.000
    C121     C        0.74660    0.02250    0.08880    1.000
    H68      H        0.72870    0.07010    0.05300    1.000
    C122     C        0.72210    0.95390    0.08440    1.000
    H69      H        0.68880    0.95580    0.04530    1.000
    C123     C        0.74520    0.88360    0.13550    1.000
    C124     C        0.79680    0.88260    0.19320    1.000
    K8       K        0.69357    0.74640    0.93456    1.000
    K9       K        0.87470    0.81511    0.03137    1.000
    K10      K        0.61245    0.11257    0.56433    1.000
    K11      K        0.08552    0.79015    0.45717    1.000
    K12      K        0.02463    0.55208    0.56619    1.000
    K13      K        0.75230    0.77870    0.46490    1.000
    K14      K        0.72360    0.72810    0.48920    1.000
    O18      O        0.64240    0.83410    0.01670    1.000
    C125     C        0.53210    0.86350    0.00780    1.000
    H70      H        0.48700    0.82280    0.00940    1.000
    H71      H        0.50890    0.88120    0.04370    1.000
    H72      H        0.52450    0.90660    0.96440    1.000
    O19      O        0.82880    0.67380    0.04510    1.000
    C126     C        0.87940    0.60110    0.05150    1.000
    H73      H        0.92450    0.58070    0.09130    1.000
    H74      H        0.82390    0.56560    0.05590    1.000
    H75      H        0.92480    0.60690    0.01160    1.000
    O20      O        0.75670    0.19070    0.47100    1.000
    C127     C        0.80710    0.15250    0.42930    1.000
    O21      O        0.18180    0.63430    0.49220    1.000
    C128     C        0.29200    0.64400    0.47820    1.000
    H76      H        0.33160    0.59370    0.48870    1.000
    H77      H        0.31910    0.66930    0.50540    1.000
    H78      H        0.30250    0.67590    0.43060    1.000
    O22      O        0.00800    0.93960    0.00480    1.000
    C129     C        0.00000    0.00000    0.00000    1.000
