# CIF file generated by openbabel 3.1.0, see https://openbabel.org
data_I
_chemical_name_common 'CIGXIA_clean5b'
_cell_length_a 51.8593
_cell_length_b 51.8593
_cell_length_c 51.8593
_cell_angle_alpha 60
_cell_angle_beta 60
_cell_angle_gamma 60
_space_group_name_H-M_alt 'P 1'
_space_group_name_Hall 'P 1'
loop_
    _symmetry_equiv_pos_as_xyz
    x,y,z
loop_
    _atom_site_label
    _atom_site_type_symbol
    _atom_site_fract_x
    _atom_site_fract_y
    _atom_site_fract_z
    _atom_site_occupancy
    Fe1      Fe       0.74605    0.40830    0.89070    1.000
    Fe2      Fe       0.32040    0.66463    0.90422    1.000
    O1       O        0.76148    0.57960    0.80449    1.000
    O2       O        0.73977    0.64480    0.78277    1.000
    O3       O        0.55891    0.50515    0.94315    1.000
    O4       O        0.44692    0.50294    0.00361    1.000
    O5       O        0.53294    0.47830    0.94822    1.000
    O6       O        0.72999    0.48575    0.86729    1.000
    O7       O        0.67745    0.46755    0.90275    1.000
    O8       O        0.75690    0.44227    0.85386    1.000
    O9       O        0.78959    0.39214    0.88763    1.000
    O10      O        0.73620    0.37165    0.92464    1.000
    O11      O        0.70413    0.42312    0.89082    1.000
    O12      O        0.28130    0.65536    0.98068    1.000
    O13      O        0.30249    0.59420    0.00054    1.000
    O14      O        0.30972    0.68141    0.93474    1.000
    O15      O        0.34765    0.56744    0.97160    1.000
    O16      O        0.33260    0.65270    0.87001    1.000
    O17      O        0.36294    0.64991    0.90239    1.000
    C1       C        0.37880    0.53959    0.01730    1.000
    C2       C        0.34653    0.56028    0.02232    1.000
    C3       C        0.33096    0.57457    0.99691    1.000
    C4       C        0.76403    0.52116    0.81069    1.000
    C5       C        0.76922    0.48951    0.81663    1.000
    C6       C        0.75051    0.47145    0.84758    1.000
    C7       C        0.64876    0.41990    0.89750    1.000
    C8       C        0.59137    0.43677    0.91815    1.000
    C9       C        0.64825    0.44538    0.90079    1.000
    C10      C        0.58962    0.46329    0.92120    1.000
    C11      C        0.61855    0.46721    0.91227    1.000
    C12      C        0.62086    0.41470    0.90679    1.000
    C13      C        0.55842    0.48382    0.93810    1.000
    C14      C        0.62293    0.38413    0.90850    1.000
    C15      C        0.67862    0.44572    0.89726    1.000
    C16      C        0.70667    0.32335    0.00835    1.000
    C17      C        0.68809    0.30301    0.02847    1.000
    C18      C        0.29698    0.67445    0.96451    1.000
    Fe3      Fe       0.40830    0.74605    0.95494    1.000
    Fe4      Fe       0.66463    0.32040    0.11076    1.000
    O18      O        0.57960    0.76148    0.85443    1.000
    O19      O        0.64480    0.73977    0.83266    1.000
    O20      O        0.50515    0.55891    0.99279    1.000
    O21      O        0.50294    0.44692    0.04653    1.000
    O22      O        0.47830    0.53294    0.04053    1.000
    O23      O        0.48575    0.72999    0.91698    1.000
    O24      O        0.46755    0.67745    0.95224    1.000
    O25      O        0.44227    0.75690    0.94697    1.000
    O26      O        0.39214    0.78959    0.93064    1.000
    O27      O        0.37165    0.73620    0.96751    1.000
    O28      O        0.42312    0.70413    0.98193    1.000
    O29      O        0.65536    0.28130    0.08267    1.000
    O30      O        0.59420    0.30249    0.10277    1.000
    O31      O        0.68141    0.30972    0.07413    1.000
    O32      O        0.56744    0.34765    0.11331    1.000
    O33      O        0.65270    0.33260    0.14470    1.000
    O34      O        0.64991    0.36294    0.08477    1.000
    C19      C        0.53959    0.37880    0.06431    1.000
    C20      C        0.56028    0.34653    0.07087    1.000
    C21      C        0.57457    0.33096    0.09756    1.000
    C22      C        0.52116    0.76403    0.90412    1.000
    C23      C        0.48951    0.76922    0.92464    1.000
    C24      C        0.47145    0.75051    0.93046    1.000
    C25      C        0.41990    0.64876    0.03384    1.000
    C26      C        0.43677    0.59137    0.05371    1.000
    C27      C        0.44538    0.64825    0.00558    1.000
    C28      C        0.46329    0.58962    0.02589    1.000
    C29      C        0.46721    0.61855    0.00198    1.000
    C30      C        0.41470    0.62086    0.05765    1.000
    C31      C        0.48382    0.55842    0.01966    1.000
    C32      C        0.38413    0.62293    0.08445    1.000
    C33      C        0.44572    0.67862    0.97840    1.000
    C34      C        0.32335    0.70667    0.96163    1.000
    C35      C        0.30301    0.68809    0.98044    1.000
    C36      C        0.67445    0.29698    0.06406    1.000
    Fe5      Fe       0.89070    0.95494    0.74605    1.000
    Fe6      Fe       0.90422    0.11076    0.32040    1.000
    O35      O        0.80449    0.85443    0.76148    1.000
    O36      O        0.78277    0.83266    0.73977    1.000
    O37      O        0.94315    0.99279    0.55891    1.000
    O38      O        0.00361    0.04653    0.44692    1.000
    O39      O        0.94822    0.04053    0.53294    1.000
    O40      O        0.86729    0.91698    0.72999    1.000
    O41      O        0.90275    0.95224    0.67745    1.000
    O42      O        0.85386    0.94697    0.75690    1.000
    O43      O        0.88763    0.93064    0.78959    1.000
    O44      O        0.92464    0.96751    0.73620    1.000
    O45      O        0.89082    0.98193    0.70413    1.000
    O46      O        0.98068    0.08267    0.28130    1.000
    O47      O        0.00054    0.10277    0.30249    1.000
    O48      O        0.93474    0.07413    0.30972    1.000
    O49      O        0.97160    0.11331    0.34765    1.000
    O50      O        0.87001    0.14470    0.33260    1.000
    O51      O        0.90239    0.08477    0.36294    1.000
    C37      C        0.01730    0.06431    0.37880    1.000
    C38      C        0.02232    0.07087    0.34653    1.000
    C39      C        0.99691    0.09756    0.33096    1.000
    C40      C        0.81069    0.90412    0.76403    1.000
    C41      C        0.81663    0.92464    0.76922    1.000
    C42      C        0.84758    0.93046    0.75051    1.000
    C43      C        0.89750    0.03384    0.64876    1.000
    C44      C        0.91815    0.05371    0.59137    1.000
    C45      C        0.90079    0.00558    0.64825    1.000
    C46      C        0.92120    0.02589    0.58962    1.000
    C47      C        0.91227    0.00198    0.61855    1.000
    C48      C        0.90679    0.05765    0.62086    1.000
    C49      C        0.93810    0.01966    0.55842    1.000
    C50      C        0.90850    0.08445    0.62293    1.000
    C51      C        0.89726    0.97840    0.67862    1.000
    C52      C        0.00835    0.96163    0.70667    1.000
    C53      C        0.02847    0.98044    0.68809    1.000
    C54      C        0.96451    0.06406    0.29698    1.000
    Fe7      Fe       0.95494    0.89070    0.40830    1.000
    Fe8      Fe       0.11076    0.90422    0.66463    1.000
    O52      O        0.85443    0.80449    0.57960    1.000
    O53      O        0.83266    0.78277    0.64480    1.000
    O54      O        0.99279    0.94315    0.50515    1.000
    O55      O        0.04653    0.00361    0.50294    1.000
    O56      O        0.04053    0.94822    0.47830    1.000
    O57      O        0.91698    0.86729    0.48575    1.000
    O58      O        0.95224    0.90275    0.46755    1.000
    O59      O        0.94697    0.85386    0.44227    1.000
    O60      O        0.93064    0.88763    0.39214    1.000
    O61      O        0.96751    0.92464    0.37165    1.000
    O62      O        0.98193    0.89082    0.42312    1.000
    O63      O        0.08267    0.98068    0.65536    1.000
    O64      O        0.10277    0.00054    0.59420    1.000
    O65      O        0.07413    0.93474    0.68141    1.000
    O66      O        0.11331    0.97160    0.56744    1.000
    O67      O        0.14470    0.87001    0.65270    1.000
    O68      O        0.08477    0.90239    0.64991    1.000
    C55      C        0.06431    0.01730    0.53959    1.000
    C56      C        0.07087    0.02232    0.56028    1.000
    C57      C        0.09756    0.99691    0.57457    1.000
    C58      C        0.90412    0.81069    0.52116    1.000
    C59      C        0.92464    0.81663    0.48951    1.000
    C60      C        0.93046    0.84758    0.47145    1.000
    C61      C        0.03384    0.89750    0.41990    1.000
    C62      C        0.05371    0.91815    0.43677    1.000
    C63      C        0.00558    0.90079    0.44538    1.000
    C64      C        0.02589    0.92120    0.46329    1.000
    C65      C        0.00198    0.91227    0.46721    1.000
    C66      C        0.05765    0.90679    0.41470    1.000
    C67      C        0.01966    0.93810    0.48382    1.000
    C68      C        0.08445    0.90850    0.38413    1.000
    C69      C        0.97840    0.89726    0.44572    1.000
    C70      C        0.96163    0.00835    0.32335    1.000
    C71      C        0.98044    0.02847    0.30301    1.000
    C72      C        0.06406    0.96451    0.67445    1.000
    Fe9      Fe       0.89070    0.74605    0.40830    1.000
    Fe10     Fe       0.90422    0.32040    0.66463    1.000
    O69      O        0.80449    0.76148    0.57960    1.000
    O70      O        0.78277    0.73977    0.64480    1.000
    O71      O        0.94315    0.55891    0.50515    1.000
    O72      O        0.00361    0.44692    0.50294    1.000
    O73      O        0.94822    0.53294    0.47830    1.000
    O74      O        0.86729    0.72999    0.48575    1.000
    O75      O        0.90275    0.67745    0.46755    1.000
    O76      O        0.85386    0.75690    0.44227    1.000
    O77      O        0.88763    0.78959    0.39214    1.000
    O78      O        0.92464    0.73620    0.37165    1.000
    O79      O        0.89082    0.70413    0.42312    1.000
    O80      O        0.98068    0.28130    0.65536    1.000
    O81      O        0.00054    0.30249    0.59420    1.000
    O82      O        0.93474    0.30972    0.68141    1.000
    O83      O        0.97160    0.34765    0.56744    1.000
    O84      O        0.87001    0.33260    0.65270    1.000
    O85      O        0.90239    0.36294    0.64991    1.000
    C73      C        0.01730    0.37880    0.53959    1.000
    C74      C        0.02232    0.34653    0.56028    1.000
    C75      C        0.99691    0.33096    0.57457    1.000
    C76      C        0.81069    0.76403    0.52116    1.000
    C77      C        0.81663    0.76922    0.48951    1.000
    C78      C        0.84758    0.75051    0.47145    1.000
    C79      C        0.89750    0.64876    0.41990    1.000
    C80      C        0.91815    0.59137    0.43677    1.000
    C81      C        0.90079    0.64825    0.44538    1.000
    C82      C        0.92120    0.58962    0.46329    1.000
    C83      C        0.91227    0.61855    0.46721    1.000
    C84      C        0.90679    0.62086    0.41470    1.000
    C85      C        0.93810    0.55842    0.48382    1.000
    C86      C        0.90850    0.62293    0.38413    1.000
    C87      C        0.89726    0.67862    0.44572    1.000
    C88      C        0.00835    0.70667    0.32335    1.000
    C89      C        0.02847    0.68809    0.30301    1.000
    C90      C        0.96451    0.29698    0.67445    1.000
    Fe11     Fe       0.95494    0.40830    0.74605    1.000
    Fe12     Fe       0.11076    0.66463    0.32040    1.000
    O86      O        0.85443    0.57960    0.76148    1.000
    O87      O        0.83266    0.64480    0.73977    1.000
    O88      O        0.99279    0.50515    0.55891    1.000
    O89      O        0.04653    0.50294    0.44692    1.000
    O90      O        0.04053    0.47830    0.53294    1.000
    O91      O        0.91698    0.48575    0.72999    1.000
    O92      O        0.95224    0.46755    0.67745    1.000
    O93      O        0.94697    0.44227    0.75690    1.000
    O94      O        0.93064    0.39214    0.78959    1.000
    O95      O        0.96751    0.37165    0.73620    1.000
    O96      O        0.98193    0.42312    0.70413    1.000
    O97      O        0.08267    0.65536    0.28130    1.000
    O98      O        0.10277    0.59420    0.30249    1.000
    O99      O        0.07413    0.68141    0.30972    1.000
    O100     O        0.11331    0.56744    0.34765    1.000
    O101     O        0.14470    0.65270    0.33260    1.000
    O102     O        0.08477    0.64991    0.36294    1.000
    C91      C        0.06431    0.53959    0.37880    1.000
    C92      C        0.07087    0.56028    0.34653    1.000
    C93      C        0.09756    0.57457    0.33096    1.000
    C94      C        0.90412    0.52116    0.76403    1.000
    C95      C        0.92464    0.48951    0.76922    1.000
    C96      C        0.93046    0.47145    0.75051    1.000
    C97      C        0.03384    0.41990    0.64876    1.000
    C98      C        0.05371    0.43677    0.59137    1.000
    C99      C        0.00558    0.44538    0.64825    1.000
    C100     C        0.02589    0.46329    0.58962    1.000
    C101     C        0.00198    0.46721    0.61855    1.000
    C102     C        0.05765    0.41470    0.62086    1.000
    C103     C        0.01966    0.48382    0.55842    1.000
    C104     C        0.08445    0.38413    0.62293    1.000
    C105     C        0.97840    0.44572    0.67862    1.000
    C106     C        0.96163    0.32335    0.70667    1.000
    C107     C        0.98044    0.30301    0.68809    1.000
    C108     C        0.06406    0.67445    0.29698    1.000
    Fe13     Fe       0.74605    0.89070    0.95494    1.000
    Fe14     Fe       0.32040    0.90422    0.11076    1.000
    O103     O        0.76148    0.80449    0.85443    1.000
    O104     O        0.73977    0.78277    0.83266    1.000
    O105     O        0.55891    0.94315    0.99279    1.000
    O106     O        0.44692    0.00361    0.04653    1.000
    O107     O        0.53294    0.94822    0.04053    1.000
    O108     O        0.72999    0.86729    0.91698    1.000
    O109     O        0.67745    0.90275    0.95224    1.000
    O110     O        0.75690    0.85386    0.94697    1.000
    O111     O        0.78959    0.88763    0.93064    1.000
    O112     O        0.73620    0.92464    0.96751    1.000
    O113     O        0.70413    0.89082    0.98193    1.000
    O114     O        0.28130    0.98068    0.08267    1.000
    O115     O        0.30249    0.00054    0.10277    1.000
    O116     O        0.30972    0.93474    0.07413    1.000
    O117     O        0.34765    0.97160    0.11331    1.000
    O118     O        0.33260    0.87001    0.14470    1.000
    O119     O        0.36294    0.90239    0.08477    1.000
    C109     C        0.37880    0.01730    0.06431    1.000
    C110     C        0.34653    0.02232    0.07087    1.000
    C111     C        0.33096    0.99691    0.09756    1.000
    C112     C        0.76403    0.81069    0.90412    1.000
    C113     C        0.76922    0.81663    0.92464    1.000
    C114     C        0.75051    0.84758    0.93046    1.000
    C115     C        0.64876    0.89750    0.03384    1.000
    C116     C        0.59137    0.91815    0.05371    1.000
    C117     C        0.64825    0.90079    0.00558    1.000
    C118     C        0.58962    0.92120    0.02589    1.000
    C119     C        0.61855    0.91227    0.00198    1.000
    C120     C        0.62086    0.90679    0.05765    1.000
    C121     C        0.55842    0.93810    0.01966    1.000
    C122     C        0.62293    0.90850    0.08445    1.000
    C123     C        0.67862    0.89726    0.97840    1.000
    C124     C        0.70667    0.00835    0.96163    1.000
    C125     C        0.68809    0.02847    0.98044    1.000
    C126     C        0.29698    0.96451    0.06406    1.000
    Fe15     Fe       0.40830    0.95494    0.89070    1.000
    Fe16     Fe       0.66463    0.11076    0.90422    1.000
    O120     O        0.57960    0.85443    0.80449    1.000
    O121     O        0.64480    0.83266    0.78277    1.000
    O122     O        0.50515    0.99279    0.94315    1.000
    O123     O        0.50294    0.04653    0.00361    1.000
    O124     O        0.47830    0.04053    0.94822    1.000
    O125     O        0.48575    0.91698    0.86729    1.000
    O126     O        0.46755    0.95224    0.90275    1.000
    O127     O        0.44227    0.94697    0.85386    1.000
    O128     O        0.39214    0.93064    0.88763    1.000
    O129     O        0.37165    0.96751    0.92464    1.000
    O130     O        0.42312    0.98193    0.89082    1.000
    O131     O        0.65536    0.08267    0.98068    1.000
    O132     O        0.59420    0.10277    0.00054    1.000
    O133     O        0.68141    0.07413    0.93474    1.000
    O134     O        0.56744    0.11331    0.97160    1.000
    O135     O        0.65270    0.14470    0.87001    1.000
    O136     O        0.64991    0.08477    0.90239    1.000
    C127     C        0.53959    0.06431    0.01730    1.000
    C128     C        0.56028    0.07087    0.02232    1.000
    C129     C        0.57457    0.09756    0.99691    1.000
    C130     C        0.52116    0.90412    0.81069    1.000
    C131     C        0.48951    0.92464    0.81663    1.000
    C132     C        0.47145    0.93046    0.84758    1.000
    C133     C        0.41990    0.03384    0.89750    1.000
    C134     C        0.43677    0.05371    0.91815    1.000
    C135     C        0.44538    0.00558    0.90079    1.000
    C136     C        0.46329    0.02589    0.92120    1.000
    C137     C        0.46721    0.00198    0.91227    1.000
    C138     C        0.41470    0.05765    0.90679    1.000
    C139     C        0.48382    0.01966    0.93810    1.000
    C140     C        0.38413    0.08445    0.90850    1.000
    C141     C        0.44572    0.97840    0.89726    1.000
    C142     C        0.32335    0.96163    0.00835    1.000
    C143     C        0.30301    0.98044    0.02847    1.000
    C144     C        0.67445    0.06406    0.96451    1.000
    Fe17     Fe       0.40830    0.89070    0.74605    1.000
    Fe18     Fe       0.66463    0.90422    0.32040    1.000
    O137     O        0.57960    0.80449    0.76148    1.000
    O138     O        0.64480    0.78277    0.73977    1.000
    O139     O        0.50515    0.94315    0.55891    1.000
    O140     O        0.50294    0.00361    0.44692    1.000
    O141     O        0.47830    0.94822    0.53294    1.000
    O142     O        0.48575    0.86729    0.72999    1.000
    O143     O        0.46755    0.90275    0.67745    1.000
    O144     O        0.44227    0.85386    0.75690    1.000
    O145     O        0.39214    0.88763    0.78959    1.000
    O146     O        0.37165    0.92464    0.73620    1.000
    O147     O        0.42312    0.89082    0.70413    1.000
    O148     O        0.65536    0.98068    0.28130    1.000
    O149     O        0.59420    0.00054    0.30249    1.000
    O150     O        0.68141    0.93474    0.30972    1.000
    O151     O        0.56744    0.97160    0.34765    1.000
    O152     O        0.65270    0.87001    0.33260    1.000
    O153     O        0.64991    0.90239    0.36294    1.000
    C145     C        0.53959    0.01730    0.37880    1.000
    C146     C        0.56028    0.02232    0.34653    1.000
    C147     C        0.57457    0.99691    0.33096    1.000
    C148     C        0.52116    0.81069    0.76403    1.000
    C149     C        0.48951    0.81663    0.76922    1.000
    C150     C        0.47145    0.84758    0.75051    1.000
    C151     C        0.41990    0.89750    0.64876    1.000
    C152     C        0.43677    0.91815    0.59137    1.000
    C153     C        0.44538    0.90079    0.64825    1.000
    C154     C        0.46329    0.92120    0.58962    1.000
    C155     C        0.46721    0.91227    0.61855    1.000
    C156     C        0.41470    0.90679    0.62086    1.000
    C157     C        0.48382    0.93810    0.55842    1.000
    C158     C        0.38413    0.90850    0.62293    1.000
    C159     C        0.44572    0.89726    0.67862    1.000
    C160     C        0.32335    0.00835    0.70667    1.000
    C161     C        0.30301    0.02847    0.68809    1.000
    C162     C        0.67445    0.96451    0.29698    1.000
    Fe19     Fe       0.74605    0.95494    0.40830    1.000
    Fe20     Fe       0.32040    0.11076    0.66463    1.000
    O154     O        0.76148    0.85443    0.57960    1.000
    O155     O        0.73977    0.83266    0.64480    1.000
    O156     O        0.55891    0.99279    0.50515    1.000
    O157     O        0.44692    0.04653    0.50294    1.000
    O158     O        0.53294    0.04053    0.47830    1.000
    O159     O        0.72999    0.91698    0.48575    1.000
    O160     O        0.67745    0.95224    0.46755    1.000
    O161     O        0.75690    0.94697    0.44227    1.000
    O162     O        0.78959    0.93064    0.39214    1.000
    O163     O        0.73620    0.96751    0.37165    1.000
    O164     O        0.70413    0.98193    0.42312    1.000
    O165     O        0.28130    0.08267    0.65536    1.000
    O166     O        0.30249    0.10277    0.59420    1.000
    O167     O        0.30972    0.07413    0.68141    1.000
    O168     O        0.34765    0.11331    0.56744    1.000
    O169     O        0.33260    0.14470    0.65270    1.000
    O170     O        0.36294    0.08477    0.64991    1.000
    C163     C        0.37880    0.06431    0.53959    1.000
    C164     C        0.34653    0.07087    0.56028    1.000
    C165     C        0.33096    0.09756    0.57457    1.000
    C166     C        0.76403    0.90412    0.52116    1.000
    C167     C        0.76922    0.92464    0.48951    1.000
    C168     C        0.75051    0.93046    0.47145    1.000
    C169     C        0.64876    0.03384    0.41990    1.000
    C170     C        0.59137    0.05371    0.43677    1.000
    C171     C        0.64825    0.00558    0.44538    1.000
    C172     C        0.58962    0.02589    0.46329    1.000
    C173     C        0.61855    0.00198    0.46721    1.000
    C174     C        0.62086    0.05765    0.41470    1.000
    C175     C        0.55842    0.01966    0.48382    1.000
    C176     C        0.62293    0.08445    0.38413    1.000
    C177     C        0.67862    0.97840    0.44572    1.000
    C178     C        0.70667    0.96163    0.32335    1.000
    C179     C        0.68809    0.98044    0.30301    1.000
    C180     C        0.29698    0.06406    0.67445    1.000
    Fe21     Fe       0.95494    0.74605    0.89070    1.000
    Fe22     Fe       0.11076    0.32040    0.90422    1.000
    O171     O        0.85443    0.76148    0.80449    1.000
    O172     O        0.83266    0.73977    0.78277    1.000
    O173     O        0.99279    0.55891    0.94315    1.000
    O174     O        0.04653    0.44692    0.00361    1.000
    O175     O        0.04053    0.53294    0.94822    1.000
    O176     O        0.91698    0.72999    0.86729    1.000
    O177     O        0.95224    0.67745    0.90275    1.000
    O178     O        0.94697    0.75690    0.85386    1.000
    O179     O        0.93064    0.78959    0.88763    1.000
    O180     O        0.96751    0.73620    0.92464    1.000
    O181     O        0.98193    0.70413    0.89082    1.000
    O182     O        0.08267    0.28130    0.98068    1.000
    O183     O        0.10277    0.30249    0.00054    1.000
    O184     O        0.07413    0.30972    0.93474    1.000
    O185     O        0.11331    0.34765    0.97160    1.000
    O186     O        0.14470    0.33260    0.87001    1.000
    O187     O        0.08477    0.36294    0.90239    1.000
    C181     C        0.06431    0.37880    0.01730    1.000
    C182     C        0.07087    0.34653    0.02232    1.000
    C183     C        0.09756    0.33096    0.99691    1.000
    C184     C        0.90412    0.76403    0.81069    1.000
    C185     C        0.92464    0.76922    0.81663    1.000
    C186     C        0.93046    0.75051    0.84758    1.000
    C187     C        0.03384    0.64876    0.89750    1.000
    C188     C        0.05371    0.59137    0.91815    1.000
    C189     C        0.00558    0.64825    0.90079    1.000
    C190     C        0.02589    0.58962    0.92120    1.000
    C191     C        0.00198    0.61855    0.91227    1.000
    C192     C        0.05765    0.62086    0.90679    1.000
    C193     C        0.01966    0.55842    0.93810    1.000
    C194     C        0.08445    0.62293    0.90850    1.000
    C195     C        0.97840    0.67862    0.89726    1.000
    C196     C        0.96163    0.70667    0.00835    1.000
    C197     C        0.98044    0.68809    0.02847    1.000
    C198     C        0.06406    0.29698    0.96451    1.000
    Fe23     Fe       0.89070    0.40830    0.95494    1.000
    Fe24     Fe       0.90422    0.66463    0.11076    1.000
    O188     O        0.80449    0.57960    0.85443    1.000
    O189     O        0.78277    0.64480    0.83266    1.000
    O190     O        0.94315    0.50515    0.99279    1.000
    O191     O        0.00361    0.50294    0.04653    1.000
    O192     O        0.94822    0.47830    0.04053    1.000
    O193     O        0.86729    0.48575    0.91698    1.000
    O194     O        0.90275    0.46755    0.95224    1.000
    O195     O        0.85386    0.44227    0.94697    1.000
    O196     O        0.88763    0.39214    0.93064    1.000
    O197     O        0.92464    0.37165    0.96751    1.000
    O198     O        0.89082    0.42312    0.98193    1.000
    O199     O        0.98068    0.65536    0.08267    1.000
    O200     O        0.00054    0.59420    0.10277    1.000
    O201     O        0.93474    0.68141    0.07413    1.000
    O202     O        0.97160    0.56744    0.11331    1.000
    O203     O        0.87001    0.65270    0.14470    1.000
    O204     O        0.90239    0.64991    0.08477    1.000
    C199     C        0.01730    0.53959    0.06431    1.000
    C200     C        0.02232    0.56028    0.07087    1.000
    C201     C        0.99691    0.57457    0.09756    1.000
    C202     C        0.81069    0.52116    0.90412    1.000
    C203     C        0.81663    0.48951    0.92464    1.000
    C204     C        0.84758    0.47145    0.93046    1.000
    C205     C        0.89750    0.41990    0.03384    1.000
    C206     C        0.91815    0.43677    0.05371    1.000
    C207     C        0.90079    0.44538    0.00558    1.000
    C208     C        0.92120    0.46329    0.02589    1.000
    C209     C        0.91227    0.46721    0.00198    1.000
    C210     C        0.90679    0.41470    0.05765    1.000
    C211     C        0.93810    0.48382    0.01966    1.000
    C212     C        0.90850    0.38413    0.08445    1.000
    C213     C        0.89726    0.44572    0.97840    1.000
    C214     C        0.00835    0.32335    0.96163    1.000
    C215     C        0.02847    0.30301    0.98044    1.000
    C216     C        0.96451    0.67445    0.06406    1.000
    Fe25     Fe       0.50395    0.84170    0.29506    1.000
    Fe26     Fe       0.92960    0.58537    0.13924    1.000
    O205     O        0.48852    0.67040    0.39557    1.000
    O206     O        0.51023    0.60520    0.41734    1.000
    O207     O        0.69109    0.74485    0.25721    1.000
    O208     O        0.80308    0.74706    0.20347    1.000
    O209     O        0.71706    0.77170    0.20947    1.000
    O210     O        0.52001    0.76425    0.33302    1.000
    O211     O        0.57255    0.78245    0.29776    1.000
    O212     O        0.49310    0.80773    0.30303    1.000
    O213     O        0.46041    0.85786    0.31936    1.000
    O214     O        0.51380    0.87835    0.28249    1.000
    O215     O        0.54587    0.82688    0.26807    1.000
    O216     O        0.96870    0.59464    0.16733    1.000
    O217     O        0.94751    0.65580    0.14723    1.000
    O218     O        0.94028    0.56859    0.17587    1.000
    O219     O        0.90235    0.68256    0.13669    1.000
    O220     O        0.91740    0.59730    0.10530    1.000
    O221     O        0.88706    0.60009    0.16523    1.000
    C217     C        0.87120    0.71041    0.18569    1.000
    C218     C        0.90347    0.68972    0.17913    1.000
    C219     C        0.91904    0.67543    0.15244    1.000
    C220     C        0.48597    0.72884    0.34588    1.000
    C221     C        0.48078    0.76049    0.32536    1.000
    C222     C        0.49949    0.77855    0.31954    1.000
    C223     C        0.60124    0.83010    0.21616    1.000
    C224     C        0.65863    0.81323    0.19629    1.000
    C225     C        0.60175    0.80462    0.24442    1.000
    C226     C        0.66038    0.78671    0.22411    1.000
    C227     C        0.63145    0.78279    0.24802    1.000
    C228     C        0.62914    0.83530    0.19235    1.000
    C229     C        0.69158    0.76618    0.23034    1.000
    C230     C        0.62707    0.86587    0.16555    1.000
    C231     C        0.57138    0.80428    0.27160    1.000
    C232     C        0.54333    0.92665    0.28837    1.000
    C233     C        0.56191    0.94699    0.26956    1.000
    C234     C        0.95302    0.57555    0.18594    1.000
    Fe27     Fe       0.84170    0.50395    0.35930    1.000
    Fe28     Fe       0.58537    0.92960    0.34578    1.000
    O222     O        0.67040    0.48852    0.44551    1.000
    O223     O        0.60520    0.51023    0.46723    1.000
    O224     O        0.74485    0.69109    0.30685    1.000
    O225     O        0.74706    0.80308    0.24639    1.000
    O226     O        0.77170    0.71706    0.30178    1.000
    O227     O        0.76425    0.52001    0.38271    1.000
    O228     O        0.78245    0.57255    0.34725    1.000
    O229     O        0.80773    0.49310    0.39614    1.000
    O230     O        0.85786    0.46041    0.36237    1.000
    O231     O        0.87835    0.51380    0.32536    1.000
    O232     O        0.82688    0.54587    0.35918    1.000
    O233     O        0.59464    0.96870    0.26932    1.000
    O234     O        0.65580    0.94751    0.24946    1.000
    O235     O        0.56859    0.94028    0.31526    1.000
    O236     O        0.68256    0.90235    0.27840    1.000
    O237     O        0.59730    0.91740    0.37999    1.000
    O238     O        0.60009    0.88706    0.34761    1.000
    C235     C        0.71041    0.87120    0.23270    1.000
    C236     C        0.68972    0.90347    0.22768    1.000
    C237     C        0.67543    0.91904    0.25309    1.000
    C238     C        0.72884    0.48597    0.43931    1.000
    C239     C        0.76049    0.48078    0.43337    1.000
    C240     C        0.77855    0.49949    0.40242    1.000
    C241     C        0.83010    0.60124    0.35250    1.000
    C242     C        0.81323    0.65863    0.33185    1.000
    C243     C        0.80462    0.60175    0.34921    1.000
    C244     C        0.78671    0.66038    0.32880    1.000
    C245     C        0.78279    0.63145    0.33773    1.000
    C246     C        0.83530    0.62914    0.34321    1.000
    C247     C        0.76618    0.69158    0.31190    1.000
    C248     C        0.86587    0.62707    0.34150    1.000
    C249     C        0.80428    0.57138    0.35274    1.000
    C250     C        0.92665    0.54333    0.24165    1.000
    C251     C        0.94699    0.56191    0.22153    1.000
    C252     C        0.57555    0.95302    0.28549    1.000
    Fe29     Fe       0.35930    0.29506    0.84170    1.000
    Fe30     Fe       0.34578    0.13924    0.58537    1.000
    O239     O        0.44551    0.39557    0.67040    1.000
    O240     O        0.46723    0.41734    0.60520    1.000
    O241     O        0.30685    0.25721    0.74485    1.000
    O242     O        0.24639    0.20347    0.74706    1.000
    O243     O        0.30178    0.20947    0.77170    1.000
    O244     O        0.38271    0.33302    0.76425    1.000
    O245     O        0.34725    0.29776    0.78245    1.000
    O246     O        0.39614    0.30303    0.80773    1.000
    O247     O        0.36237    0.31936    0.85786    1.000
    O248     O        0.32536    0.28249    0.87835    1.000
    O249     O        0.35918    0.26807    0.82688    1.000
    O250     O        0.26932    0.16733    0.59464    1.000
    O251     O        0.24946    0.14723    0.65580    1.000
    O252     O        0.31526    0.17587    0.56859    1.000
    O253     O        0.27840    0.13669    0.68256    1.000
    O254     O        0.37999    0.10530    0.59730    1.000
    O255     O        0.34761    0.16523    0.60009    1.000
    C253     C        0.23270    0.18569    0.71041    1.000
    C254     C        0.22768    0.17913    0.68972    1.000
    C255     C        0.25309    0.15244    0.67543    1.000
    C256     C        0.43931    0.34588    0.72884    1.000
    C257     C        0.43337    0.32536    0.76049    1.000
    C258     C        0.40242    0.31954    0.77855    1.000
    C259     C        0.35250    0.21616    0.83010    1.000
    C260     C        0.33185    0.19629    0.81323    1.000
    C261     C        0.34921    0.24442    0.80462    1.000
    C262     C        0.32880    0.22411    0.78671    1.000
    C263     C        0.33773    0.24802    0.78279    1.000
    C264     C        0.34321    0.19235    0.83530    1.000
    C265     C        0.31190    0.23034    0.76618    1.000
    C266     C        0.34150    0.16555    0.86587    1.000
    C267     C        0.35274    0.27160    0.80428    1.000
    C268     C        0.24165    0.28837    0.92665    1.000
    C269     C        0.22153    0.26956    0.94699    1.000
    C270     C        0.28549    0.18594    0.57555    1.000
    Fe31     Fe       0.29506    0.35930    0.50395    1.000
    Fe32     Fe       0.13924    0.34578    0.92960    1.000
    O256     O        0.39557    0.44551    0.48852    1.000
    O257     O        0.41734    0.46723    0.51023    1.000
    O258     O        0.25721    0.30685    0.69109    1.000
    O259     O        0.20347    0.24639    0.80308    1.000
    O260     O        0.20947    0.30178    0.71706    1.000
    O261     O        0.33302    0.38271    0.52001    1.000
    O262     O        0.29776    0.34725    0.57255    1.000
    O263     O        0.30303    0.39614    0.49310    1.000
    O264     O        0.31936    0.36237    0.46041    1.000
    O265     O        0.28249    0.32536    0.51380    1.000
    O266     O        0.26807    0.35918    0.54587    1.000
    O267     O        0.16733    0.26932    0.96870    1.000
    O268     O        0.14723    0.24946    0.94751    1.000
    O269     O        0.17587    0.31526    0.94028    1.000
    O270     O        0.13669    0.27840    0.90235    1.000
    O271     O        0.10530    0.37999    0.91740    1.000
    O272     O        0.16523    0.34761    0.88706    1.000
    C271     C        0.18569    0.23270    0.87120    1.000
    C272     C        0.17913    0.22768    0.90347    1.000
    C273     C        0.15244    0.25309    0.91904    1.000
    C274     C        0.34588    0.43931    0.48597    1.000
    C275     C        0.32536    0.43337    0.48078    1.000
    C276     C        0.31954    0.40242    0.49949    1.000
    C277     C        0.21616    0.35250    0.60124    1.000
    C278     C        0.19629    0.33185    0.65863    1.000
    C279     C        0.24442    0.34921    0.60175    1.000
    C280     C        0.22411    0.32880    0.66038    1.000
    C281     C        0.24802    0.33773    0.63145    1.000
    C282     C        0.19235    0.34321    0.62914    1.000
    C283     C        0.23034    0.31190    0.69158    1.000
    C284     C        0.16555    0.34150    0.62707    1.000
    C285     C        0.27160    0.35274    0.57138    1.000
    C286     C        0.28837    0.24165    0.54333    1.000
    C287     C        0.26956    0.22153    0.56191    1.000
    C288     C        0.18594    0.28549    0.95302    1.000
    Fe33     Fe       0.35930    0.50395    0.29506    1.000
    Fe34     Fe       0.34578    0.92960    0.13924    1.000
    O273     O        0.44551    0.48852    0.39557    1.000
    O274     O        0.46723    0.51023    0.41734    1.000
    O275     O        0.30685    0.69109    0.25721    1.000
    O276     O        0.24639    0.80308    0.20347    1.000
    O277     O        0.30178    0.71706    0.20947    1.000
    O278     O        0.38271    0.52001    0.33302    1.000
    O279     O        0.34725    0.57255    0.29776    1.000
    O280     O        0.39614    0.49310    0.30303    1.000
    O281     O        0.36237    0.46041    0.31936    1.000
    O282     O        0.32536    0.51380    0.28249    1.000
    O283     O        0.35918    0.54587    0.26807    1.000
    O284     O        0.26932    0.96870    0.16733    1.000
    O285     O        0.24946    0.94751    0.14723    1.000
    O286     O        0.31526    0.94028    0.17587    1.000
    O287     O        0.27840    0.90235    0.13669    1.000
    O288     O        0.37999    0.91740    0.10530    1.000
    O289     O        0.34761    0.88706    0.16523    1.000
    C289     C        0.23270    0.87120    0.18569    1.000
    C290     C        0.22768    0.90347    0.17913    1.000
    C291     C        0.25309    0.91904    0.15244    1.000
    C292     C        0.43931    0.48597    0.34588    1.000
    C293     C        0.43337    0.48078    0.32536    1.000
    C294     C        0.40242    0.49949    0.31954    1.000
    C295     C        0.35250    0.60124    0.21616    1.000
    C296     C        0.33185    0.65863    0.19629    1.000
    C297     C        0.34921    0.60175    0.24442    1.000
    C298     C        0.32880    0.66038    0.22411    1.000
    C299     C        0.33773    0.63145    0.24802    1.000
    C300     C        0.34321    0.62914    0.19235    1.000
    C301     C        0.31190    0.69158    0.23034    1.000
    C302     C        0.34150    0.62707    0.16555    1.000
    C303     C        0.35274    0.57138    0.27160    1.000
    C304     C        0.24165    0.54333    0.28837    1.000
    C305     C        0.22153    0.56191    0.26956    1.000
    C306     C        0.28549    0.95302    0.18594    1.000
    Fe35     Fe       0.29506    0.84170    0.35930    1.000
    Fe36     Fe       0.13924    0.58537    0.34578    1.000
    O290     O        0.39557    0.67040    0.44551    1.000
    O291     O        0.41734    0.60520    0.46723    1.000
    O292     O        0.25721    0.74485    0.30685    1.000
    O293     O        0.20347    0.74706    0.24639    1.000
    O294     O        0.20947    0.77170    0.30178    1.000
    O295     O        0.33302    0.76425    0.38271    1.000
    O296     O        0.29776    0.78245    0.34725    1.000
    O297     O        0.30303    0.80773    0.39614    1.000
    O298     O        0.31936    0.85786    0.36237    1.000
    O299     O        0.28249    0.87835    0.32536    1.000
    O300     O        0.26807    0.82688    0.35918    1.000
    O301     O        0.16733    0.59464    0.26932    1.000
    O302     O        0.14723    0.65580    0.24946    1.000
    O303     O        0.17587    0.56859    0.31526    1.000
    O304     O        0.13669    0.68256    0.27840    1.000
    O305     O        0.10530    0.59730    0.37999    1.000
    O306     O        0.16523    0.60009    0.34761    1.000
    C307     C        0.18569    0.71041    0.23270    1.000
    C308     C        0.17913    0.68972    0.22768    1.000
    C309     C        0.15244    0.67543    0.25309    1.000
    C310     C        0.34588    0.72884    0.43931    1.000
    C311     C        0.32536    0.76049    0.43337    1.000
    C312     C        0.31954    0.77855    0.40242    1.000
    C313     C        0.21616    0.83010    0.35250    1.000
    C314     C        0.19629    0.81323    0.33185    1.000
    C315     C        0.24442    0.80462    0.34921    1.000
    C316     C        0.22411    0.78671    0.32880    1.000
    C317     C        0.24802    0.78279    0.33773    1.000
    C318     C        0.19235    0.83530    0.34321    1.000
    C319     C        0.23034    0.76618    0.31190    1.000
    C320     C        0.16555    0.86587    0.34150    1.000
    C321     C        0.27160    0.80428    0.35274    1.000
    C322     C        0.28837    0.92665    0.24165    1.000
    C323     C        0.26956    0.94699    0.22153    1.000
    C324     C        0.18594    0.57555    0.28549    1.000
    Fe37     Fe       0.50395    0.35930    0.84170    1.000
    Fe38     Fe       0.92960    0.34578    0.58537    1.000
    O307     O        0.48852    0.44551    0.67040    1.000
    O308     O        0.51023    0.46723    0.60520    1.000
    O309     O        0.69109    0.30685    0.74485    1.000
    O310     O        0.80308    0.24639    0.74706    1.000
    O311     O        0.71706    0.30178    0.77170    1.000
    O312     O        0.52001    0.38271    0.76425    1.000
    O313     O        0.57255    0.34725    0.78245    1.000
    O314     O        0.49310    0.39614    0.80773    1.000
    O315     O        0.46041    0.36237    0.85786    1.000
    O316     O        0.51380    0.32536    0.87835    1.000
    O317     O        0.54587    0.35918    0.82688    1.000
    O318     O        0.96870    0.26932    0.59464    1.000
    O319     O        0.94751    0.24946    0.65580    1.000
    O320     O        0.94028    0.31526    0.56859    1.000
    O321     O        0.90235    0.27840    0.68256    1.000
    O322     O        0.91740    0.37999    0.59730    1.000
    O323     O        0.88706    0.34761    0.60009    1.000
    C325     C        0.87120    0.23270    0.71041    1.000
    C326     C        0.90347    0.22768    0.68972    1.000
    C327     C        0.91904    0.25309    0.67543    1.000
    C328     C        0.48597    0.43931    0.72884    1.000
    C329     C        0.48078    0.43337    0.76049    1.000
    C330     C        0.49949    0.40242    0.77855    1.000
    C331     C        0.60124    0.35250    0.83010    1.000
    C332     C        0.65863    0.33185    0.81323    1.000
    C333     C        0.60175    0.34921    0.80462    1.000
    C334     C        0.66038    0.32880    0.78671    1.000
    C335     C        0.63145    0.33773    0.78279    1.000
    C336     C        0.62914    0.34321    0.83530    1.000
    C337     C        0.69158    0.31190    0.76618    1.000
    C338     C        0.62707    0.34150    0.86587    1.000
    C339     C        0.57138    0.35274    0.80428    1.000
    C340     C        0.54333    0.24165    0.92665    1.000
    C341     C        0.56191    0.22153    0.94699    1.000
    C342     C        0.95302    0.28549    0.57555    1.000
    Fe39     Fe       0.84170    0.29506    0.50395    1.000
    Fe40     Fe       0.58537    0.13924    0.92960    1.000
    O324     O        0.67040    0.39557    0.48852    1.000
    O325     O        0.60520    0.41734    0.51023    1.000
    O326     O        0.74485    0.25721    0.69109    1.000
    O327     O        0.74706    0.20347    0.80308    1.000
    O328     O        0.77170    0.20947    0.71706    1.000
    O329     O        0.76425    0.33302    0.52001    1.000
    O330     O        0.78245    0.29776    0.57255    1.000
    O331     O        0.80773    0.30303    0.49310    1.000
    O332     O        0.85786    0.31936    0.46041    1.000
    O333     O        0.87835    0.28249    0.51380    1.000
    O334     O        0.82688    0.26807    0.54587    1.000
    O335     O        0.59464    0.16733    0.96870    1.000
    O336     O        0.65580    0.14723    0.94751    1.000
    O337     O        0.56859    0.17587    0.94028    1.000
    O338     O        0.68256    0.13669    0.90235    1.000
    O339     O        0.59730    0.10530    0.91740    1.000
    O340     O        0.60009    0.16523    0.88706    1.000
    C343     C        0.71041    0.18569    0.87120    1.000
    C344     C        0.68972    0.17913    0.90347    1.000
    C345     C        0.67543    0.15244    0.91904    1.000
    C346     C        0.72884    0.34588    0.48597    1.000
    C347     C        0.76049    0.32536    0.48078    1.000
    C348     C        0.77855    0.31954    0.49949    1.000
    C349     C        0.83010    0.21616    0.60124    1.000
    C350     C        0.81323    0.19629    0.65863    1.000
    C351     C        0.80462    0.24442    0.60175    1.000
    C352     C        0.78671    0.22411    0.66038    1.000
    C353     C        0.78279    0.24802    0.63145    1.000
    C354     C        0.83530    0.19235    0.62914    1.000
    C355     C        0.76618    0.23034    0.69158    1.000
    C356     C        0.86587    0.16555    0.62707    1.000
    C357     C        0.80428    0.27160    0.57138    1.000
    C358     C        0.92665    0.28837    0.54333    1.000
    C359     C        0.94699    0.26956    0.56191    1.000
    C360     C        0.57555    0.18594    0.95302    1.000
    Fe41     Fe       0.84170    0.35930    0.29506    1.000
    Fe42     Fe       0.58537    0.34578    0.13924    1.000
    O341     O        0.67040    0.44551    0.39557    1.000
    O342     O        0.60520    0.46723    0.41734    1.000
    O343     O        0.74485    0.30685    0.25721    1.000
    O344     O        0.74706    0.24639    0.20347    1.000
    O345     O        0.77170    0.30178    0.20947    1.000
    O346     O        0.76425    0.38271    0.33302    1.000
    O347     O        0.78245    0.34725    0.29776    1.000
    O348     O        0.80773    0.39614    0.30303    1.000
    O349     O        0.85786    0.36237    0.31936    1.000
    O350     O        0.87835    0.32536    0.28249    1.000
    O351     O        0.82688    0.35918    0.26807    1.000
    O352     O        0.59464    0.26932    0.16733    1.000
    O353     O        0.65580    0.24946    0.14723    1.000
    O354     O        0.56859    0.31526    0.17587    1.000
    O355     O        0.68256    0.27840    0.13669    1.000
    O356     O        0.59730    0.37999    0.10530    1.000
    O357     O        0.60009    0.34761    0.16523    1.000
    C361     C        0.71041    0.23270    0.18569    1.000
    C362     C        0.68972    0.22768    0.17913    1.000
    C363     C        0.67543    0.25309    0.15244    1.000
    C364     C        0.72884    0.43931    0.34588    1.000
    C365     C        0.76049    0.43337    0.32536    1.000
    C366     C        0.77855    0.40242    0.31954    1.000
    C367     C        0.83010    0.35250    0.21616    1.000
    C368     C        0.81323    0.33185    0.19629    1.000
    C369     C        0.80462    0.34921    0.24442    1.000
    C370     C        0.78671    0.32880    0.22411    1.000
    C371     C        0.78279    0.33773    0.24802    1.000
    C372     C        0.83530    0.34321    0.19235    1.000
    C373     C        0.76618    0.31190    0.23034    1.000
    C374     C        0.86587    0.34150    0.16555    1.000
    C375     C        0.80428    0.35274    0.27160    1.000
    C376     C        0.92665    0.24165    0.28837    1.000
    C377     C        0.94699    0.22153    0.26956    1.000
    C378     C        0.57555    0.28549    0.18594    1.000
    Fe43     Fe       0.50395    0.29506    0.35930    1.000
    Fe44     Fe       0.92960    0.13924    0.34578    1.000
    O358     O        0.48852    0.39557    0.44551    1.000
    O359     O        0.51023    0.41734    0.46723    1.000
    O360     O        0.69109    0.25721    0.30685    1.000
    O361     O        0.80308    0.20347    0.24639    1.000
    O362     O        0.71706    0.20947    0.30178    1.000
    O363     O        0.52001    0.33302    0.38271    1.000
    O364     O        0.57255    0.29776    0.34725    1.000
    O365     O        0.49310    0.30303    0.39614    1.000
    O366     O        0.46041    0.31936    0.36237    1.000
    O367     O        0.51380    0.28249    0.32536    1.000
    O368     O        0.54587    0.26807    0.35918    1.000
    O369     O        0.96870    0.16733    0.26932    1.000
    O370     O        0.94751    0.14723    0.24946    1.000
    O371     O        0.94028    0.17587    0.31526    1.000
    O372     O        0.90235    0.13669    0.27840    1.000
    O373     O        0.91740    0.10530    0.37999    1.000
    O374     O        0.88706    0.16523    0.34761    1.000
    C379     C        0.87120    0.18569    0.23270    1.000
    C380     C        0.90347    0.17913    0.22768    1.000
    C381     C        0.91904    0.15244    0.25309    1.000
    C382     C        0.48597    0.34588    0.43931    1.000
    C383     C        0.48078    0.32536    0.43337    1.000
    C384     C        0.49949    0.31954    0.40242    1.000
    C385     C        0.60124    0.21616    0.35250    1.000
    C386     C        0.65863    0.19629    0.33185    1.000
    C387     C        0.60175    0.24442    0.34921    1.000
    C388     C        0.66038    0.22411    0.32880    1.000
    C389     C        0.63145    0.24802    0.33773    1.000
    C390     C        0.62914    0.19235    0.34321    1.000
    C391     C        0.69158    0.23034    0.31190    1.000
    C392     C        0.62707    0.16555    0.34150    1.000
    C393     C        0.57138    0.27160    0.35274    1.000
    C394     C        0.54333    0.28837    0.24165    1.000
    C395     C        0.56191    0.26956    0.22153    1.000
    C396     C        0.95302    0.18594    0.28549    1.000
    Fe45     Fe       0.29506    0.50395    0.84170    1.000
    Fe46     Fe       0.13924    0.92960    0.58537    1.000
    O375     O        0.39557    0.48852    0.67040    1.000
    O376     O        0.41734    0.51023    0.60520    1.000
    O377     O        0.25721    0.69109    0.74485    1.000
    O378     O        0.20347    0.80308    0.74706    1.000
    O379     O        0.20947    0.71706    0.77170    1.000
    O380     O        0.33302    0.52001    0.76425    1.000
    O381     O        0.29776    0.57255    0.78245    1.000
    O382     O        0.30303    0.49310    0.80773    1.000
    O383     O        0.31936    0.46041    0.85786    1.000
    O384     O        0.28249    0.51380    0.87835    1.000
    O385     O        0.26807    0.54587    0.82688    1.000
    O386     O        0.16733    0.96870    0.59464    1.000
    O387     O        0.14723    0.94751    0.65580    1.000
    O388     O        0.17587    0.94028    0.56859    1.000
    O389     O        0.13669    0.90235    0.68256    1.000
    O390     O        0.10530    0.91740    0.59730    1.000
    O391     O        0.16523    0.88706    0.60009    1.000
    C397     C        0.18569    0.87120    0.71041    1.000
    C398     C        0.17913    0.90347    0.68972    1.000
    C399     C        0.15244    0.91904    0.67543    1.000
    C400     C        0.34588    0.48597    0.72884    1.000
    C401     C        0.32536    0.48078    0.76049    1.000
    C402     C        0.31954    0.49949    0.77855    1.000
    C403     C        0.21616    0.60124    0.83010    1.000
    C404     C        0.19629    0.65863    0.81323    1.000
    C405     C        0.24442    0.60175    0.80462    1.000
    C406     C        0.22411    0.66038    0.78671    1.000
    C407     C        0.24802    0.63145    0.78279    1.000
    C408     C        0.19235    0.62914    0.83530    1.000
    C409     C        0.23034    0.69158    0.76618    1.000
    C410     C        0.16555    0.62707    0.86587    1.000
    C411     C        0.27160    0.57138    0.80428    1.000
    C412     C        0.28837    0.54333    0.92665    1.000
    C413     C        0.26956    0.56191    0.94699    1.000
    C414     C        0.18594    0.95302    0.57555    1.000
    Fe47     Fe       0.35930    0.84170    0.50395    1.000
    Fe48     Fe       0.34578    0.58537    0.92960    1.000
    O392     O        0.44551    0.67040    0.48852    1.000
    O393     O        0.46723    0.60520    0.51023    1.000
    O394     O        0.30685    0.74485    0.69109    1.000
    O395     O        0.24639    0.74706    0.80308    1.000
    O396     O        0.30178    0.77170    0.71706    1.000
    O397     O        0.38271    0.76425    0.52001    1.000
    O398     O        0.34725    0.78245    0.57255    1.000
    O399     O        0.39614    0.80773    0.49310    1.000
    O400     O        0.36237    0.85786    0.46041    1.000
    O401     O        0.32536    0.87835    0.51380    1.000
    O402     O        0.35918    0.82688    0.54587    1.000
    O403     O        0.26932    0.59464    0.96870    1.000
    O404     O        0.24946    0.65580    0.94751    1.000
    O405     O        0.31526    0.56859    0.94028    1.000
    O406     O        0.27840    0.68256    0.90235    1.000
    O407     O        0.37999    0.59730    0.91740    1.000
    O408     O        0.34761    0.60009    0.88706    1.000
    C415     C        0.23270    0.71041    0.87120    1.000
    C416     C        0.22768    0.68972    0.90347    1.000
    C417     C        0.25309    0.67543    0.91904    1.000
    C418     C        0.43931    0.72884    0.48597    1.000
    C419     C        0.43337    0.76049    0.48078    1.000
    C420     C        0.40242    0.77855    0.49949    1.000
    C421     C        0.35250    0.83010    0.60124    1.000
    C422     C        0.33185    0.81323    0.65863    1.000
    C423     C        0.34921    0.80462    0.60175    1.000
    C424     C        0.32880    0.78671    0.66038    1.000
    C425     C        0.33773    0.78279    0.63145    1.000
    C426     C        0.34321    0.83530    0.62914    1.000
    C427     C        0.31190    0.76618    0.69158    1.000
    C428     C        0.34150    0.86587    0.62707    1.000
    C429     C        0.35274    0.80428    0.57138    1.000
    C430     C        0.24165    0.92665    0.54333    1.000
    C431     C        0.22153    0.94699    0.56191    1.000
    C432     C        0.28549    0.57555    0.95302    1.000
    Fe49     Fe       0.50395    0.84170    0.35930    1.000
    Fe50     Fe       0.92960    0.58537    0.34578    1.000
    O409     O        0.48852    0.67040    0.44551    1.000
    O410     O        0.51023    0.60520    0.46723    1.000
    O411     O        0.69109    0.74485    0.30685    1.000
    O412     O        0.80308    0.74706    0.24639    1.000
    O413     O        0.71706    0.77169    0.30178    1.000
    O414     O        0.52001    0.76425    0.38271    1.000
    O415     O        0.57255    0.78245    0.34725    1.000
    O416     O        0.49310    0.80773    0.39614    1.000
    O417     O        0.46041    0.85786    0.36237    1.000
    O418     O        0.51380    0.87835    0.32536    1.000
    O419     O        0.54587    0.82688    0.35918    1.000
    O420     O        0.96870    0.59464    0.26932    1.000
    O421     O        0.94751    0.65580    0.24946    1.000
    O422     O        0.94028    0.56859    0.31526    1.000
    O423     O        0.90235    0.68256    0.27840    1.000
    O424     O        0.91740    0.59730    0.37999    1.000
    O425     O        0.88706    0.60009    0.34761    1.000
    C433     C        0.87120    0.71041    0.23270    1.000
    C434     C        0.90347    0.68972    0.22768    1.000
    C435     C        0.91904    0.67543    0.25309    1.000
    C436     C        0.48597    0.72884    0.43931    1.000
    C437     C        0.48078    0.76049    0.43337    1.000
    C438     C        0.49949    0.77855    0.40242    1.000
    C439     C        0.60124    0.83010    0.35250    1.000
    C440     C        0.65863    0.81323    0.33185    1.000
    C441     C        0.60175    0.80462    0.34921    1.000
    C442     C        0.66038    0.78671    0.32880    1.000
    C443     C        0.63145    0.78279    0.33773    1.000
    C444     C        0.62914    0.83530    0.34321    1.000
    C445     C        0.69158    0.76618    0.31190    1.000
    C446     C        0.62707    0.86587    0.34150    1.000
    C447     C        0.57138    0.80428    0.35274    1.000
    C448     C        0.54333    0.92665    0.24165    1.000
    C449     C        0.56191    0.94699    0.22153    1.000
    C450     C        0.95302    0.57555    0.28549    1.000
    Fe51     Fe       0.84170    0.50395    0.29506    1.000
    Fe52     Fe       0.58537    0.92960    0.13924    1.000
    O426     O        0.67040    0.48852    0.39557    1.000
    O427     O        0.60520    0.51023    0.41734    1.000
    O428     O        0.74485    0.69109    0.25721    1.000
    O429     O        0.74706    0.80308    0.20347    1.000
    O430     O        0.77169    0.71706    0.20947    1.000
    O431     O        0.76425    0.52001    0.33302    1.000
    O432     O        0.78245    0.57255    0.29776    1.000
    O433     O        0.80773    0.49310    0.30303    1.000
    O434     O        0.85786    0.46041    0.31936    1.000
    O435     O        0.87835    0.51380    0.28249    1.000
    O436     O        0.82688    0.54587    0.26807    1.000
    O437     O        0.59464    0.96870    0.16733    1.000
    O438     O        0.65580    0.94751    0.14723    1.000
    O439     O        0.56859    0.94028    0.17587    1.000
    O440     O        0.68256    0.90235    0.13669    1.000
    O441     O        0.59730    0.91740    0.10530    1.000
    O442     O        0.60009    0.88706    0.16523    1.000
    C451     C        0.71041    0.87120    0.18569    1.000
    C452     C        0.68972    0.90347    0.17913    1.000
    C453     C        0.67543    0.91904    0.15244    1.000
    C454     C        0.72884    0.48597    0.34588    1.000
    C455     C        0.76049    0.48078    0.32536    1.000
    C456     C        0.77855    0.49949    0.31954    1.000
    C457     C        0.83010    0.60124    0.21616    1.000
    C458     C        0.81323    0.65863    0.19629    1.000
    C459     C        0.80462    0.60175    0.24442    1.000
    C460     C        0.78671    0.66038    0.22411    1.000
    C461     C        0.78279    0.63145    0.24802    1.000
    C462     C        0.83530    0.62914    0.19235    1.000
    C463     C        0.76618    0.69158    0.23034    1.000
    C464     C        0.86587    0.62707    0.16555    1.000
    C465     C        0.80428    0.57138    0.27160    1.000
    C466     C        0.92665    0.54333    0.28837    1.000
    C467     C        0.94699    0.56191    0.26956    1.000
    C468     C        0.57555    0.95302    0.18594    1.000
    Fe53     Fe       0.35930    0.29506    0.50395    1.000
    Fe54     Fe       0.34578    0.13924    0.92960    1.000
    O443     O        0.44551    0.39557    0.48852    1.000
    O444     O        0.46723    0.41734    0.51023    1.000
    O445     O        0.30685    0.25721    0.69109    1.000
    O446     O        0.24639    0.20347    0.80308    1.000
    O447     O        0.30178    0.20947    0.71706    1.000
    O448     O        0.38271    0.33302    0.52001    1.000
    O449     O        0.34725    0.29776    0.57255    1.000
    O450     O        0.39614    0.30303    0.49310    1.000
    O451     O        0.36237    0.31936    0.46041    1.000
    O452     O        0.32536    0.28249    0.51380    1.000
    O453     O        0.35918    0.26807    0.54587    1.000
    O454     O        0.26932    0.16733    0.96870    1.000
    O455     O        0.24946    0.14723    0.94751    1.000
    O456     O        0.31526    0.17587    0.94028    1.000
    O457     O        0.27840    0.13669    0.90235    1.000
    O458     O        0.37999    0.10530    0.91740    1.000
    O459     O        0.34761    0.16523    0.88706    1.000
    C469     C        0.23270    0.18569    0.87120    1.000
    C470     C        0.22768    0.17913    0.90347    1.000
    C471     C        0.25309    0.15244    0.91904    1.000
    C472     C        0.43931    0.34588    0.48597    1.000
    C473     C        0.43337    0.32536    0.48078    1.000
    C474     C        0.40242    0.31954    0.49949    1.000
    C475     C        0.35250    0.21616    0.60124    1.000
    C476     C        0.33185    0.19629    0.65863    1.000
    C477     C        0.34921    0.24442    0.60175    1.000
    C478     C        0.32880    0.22411    0.66038    1.000
    C479     C        0.33773    0.24802    0.63145    1.000
    C480     C        0.34321    0.19235    0.62914    1.000
    C481     C        0.31190    0.23034    0.69158    1.000
    C482     C        0.34150    0.16555    0.62707    1.000
    C483     C        0.35274    0.27160    0.57138    1.000
    C484     C        0.24165    0.28837    0.54333    1.000
    C485     C        0.22153    0.26956    0.56191    1.000
    C486     C        0.28549    0.18594    0.95302    1.000
    Fe55     Fe       0.29506    0.35930    0.84170    1.000
    Fe56     Fe       0.13924    0.34578    0.58537    1.000
    O460     O        0.39557    0.44551    0.67040    1.000
    O461     O        0.41734    0.46723    0.60520    1.000
    O462     O        0.25721    0.30685    0.74485    1.000
    O463     O        0.20347    0.24639    0.74706    1.000
    O464     O        0.20947    0.30178    0.77169    1.000
    O465     O        0.33302    0.38271    0.76425    1.000
    O466     O        0.29776    0.34725    0.78245    1.000
    O467     O        0.30303    0.39614    0.80773    1.000
    O468     O        0.31936    0.36237    0.85786    1.000
    O469     O        0.28249    0.32536    0.87835    1.000
    O470     O        0.26807    0.35918    0.82688    1.000
    O471     O        0.16733    0.26932    0.59464    1.000
    O472     O        0.14723    0.24946    0.65580    1.000
    O473     O        0.17587    0.31526    0.56859    1.000
    O474     O        0.13669    0.27840    0.68256    1.000
    O475     O        0.10530    0.37999    0.59730    1.000
    O476     O        0.16523    0.34761    0.60009    1.000
    C487     C        0.18569    0.23270    0.71041    1.000
    C488     C        0.17913    0.22768    0.68972    1.000
    C489     C        0.15244    0.25309    0.67543    1.000
    C490     C        0.34588    0.43931    0.72884    1.000
    C491     C        0.32536    0.43337    0.76049    1.000
    C492     C        0.31954    0.40242    0.77855    1.000
    C493     C        0.21616    0.35250    0.83010    1.000
    C494     C        0.19629    0.33185    0.81323    1.000
    C495     C        0.24442    0.34921    0.80462    1.000
    C496     C        0.22411    0.32880    0.78671    1.000
    C497     C        0.24802    0.33773    0.78279    1.000
    C498     C        0.19235    0.34321    0.83530    1.000
    C499     C        0.23034    0.31190    0.76618    1.000
    C500     C        0.16555    0.34150    0.86587    1.000
    C501     C        0.27160    0.35274    0.80428    1.000
    C502     C        0.28837    0.24165    0.92665    1.000
    C503     C        0.26956    0.22153    0.94699    1.000
    C504     C        0.18594    0.28549    0.57555    1.000
    Fe57     Fe       0.35930    0.50395    0.84170    1.000
    Fe58     Fe       0.34578    0.92960    0.58537    1.000
    O477     O        0.44551    0.48852    0.67040    1.000
    O478     O        0.46723    0.51023    0.60520    1.000
    O479     O        0.30685    0.69109    0.74485    1.000
    O480     O        0.24639    0.80308    0.74706    1.000
    O481     O        0.30178    0.71706    0.77169    1.000
    O482     O        0.38271    0.52001    0.76425    1.000
    O483     O        0.34725    0.57255    0.78245    1.000
    O484     O        0.39614    0.49310    0.80773    1.000
    O485     O        0.36237    0.46041    0.85786    1.000
    O486     O        0.32536    0.51380    0.87835    1.000
    O487     O        0.35918    0.54587    0.82688    1.000
    O488     O        0.26932    0.96870    0.59464    1.000
    O489     O        0.24946    0.94751    0.65580    1.000
    O490     O        0.31526    0.94028    0.56859    1.000
    O491     O        0.27840    0.90235    0.68256    1.000
    O492     O        0.37999    0.91740    0.59730    1.000
    O493     O        0.34761    0.88706    0.60009    1.000
    C505     C        0.23270    0.87120    0.71041    1.000
    C506     C        0.22768    0.90347    0.68972    1.000
    C507     C        0.25309    0.91904    0.67543    1.000
    C508     C        0.43931    0.48597    0.72884    1.000
    C509     C        0.43337    0.48078    0.76049    1.000
    C510     C        0.40242    0.49949    0.77855    1.000
    C511     C        0.35250    0.60124    0.83010    1.000
    C512     C        0.33185    0.65863    0.81323    1.000
    C513     C        0.34921    0.60175    0.80462    1.000
    C514     C        0.32880    0.66038    0.78671    1.000
    C515     C        0.33773    0.63145    0.78279    1.000
    C516     C        0.34321    0.62914    0.83530    1.000
    C517     C        0.31190    0.69158    0.76618    1.000
    C518     C        0.34150    0.62707    0.86587    1.000
    C519     C        0.35274    0.57138    0.80428    1.000
    C520     C        0.24165    0.54333    0.92665    1.000
    C521     C        0.22153    0.56191    0.94699    1.000
    C522     C        0.28549    0.95302    0.57555    1.000
    Fe59     Fe       0.29506    0.84170    0.50395    1.000
    Fe60     Fe       0.13924    0.58537    0.92960    1.000
    O494     O        0.39557    0.67040    0.48852    1.000
    O495     O        0.41734    0.60520    0.51023    1.000
    O496     O        0.25721    0.74485    0.69109    1.000
    O497     O        0.20347    0.74706    0.80308    1.000
    O498     O        0.20947    0.77169    0.71706    1.000
    O499     O        0.33302    0.76425    0.52001    1.000
    O500     O        0.29776    0.78245    0.57255    1.000
    O501     O        0.30303    0.80773    0.49310    1.000
    O502     O        0.31936    0.85786    0.46041    1.000
    O503     O        0.28249    0.87835    0.51380    1.000
    O504     O        0.26807    0.82688    0.54587    1.000
    O505     O        0.16733    0.59464    0.96870    1.000
    O506     O        0.14723    0.65580    0.94751    1.000
    O507     O        0.17587    0.56859    0.94028    1.000
    O508     O        0.13669    0.68256    0.90235    1.000
    O509     O        0.10530    0.59730    0.91740    1.000
    O510     O        0.16523    0.60009    0.88706    1.000
    C523     C        0.18569    0.71041    0.87120    1.000
    C524     C        0.17913    0.68972    0.90347    1.000
    C525     C        0.15244    0.67543    0.91904    1.000
    C526     C        0.34588    0.72884    0.48597    1.000
    C527     C        0.32536    0.76049    0.48078    1.000
    C528     C        0.31954    0.77855    0.49949    1.000
    C529     C        0.21616    0.83010    0.60124    1.000
    C530     C        0.19629    0.81323    0.65863    1.000
    C531     C        0.24442    0.80462    0.60175    1.000
    C532     C        0.22411    0.78671    0.66038    1.000
    C533     C        0.24802    0.78279    0.63145    1.000
    C534     C        0.19235    0.83530    0.62914    1.000
    C535     C        0.23034    0.76618    0.69158    1.000
    C536     C        0.16555    0.86587    0.62707    1.000
    C537     C        0.27160    0.80428    0.57138    1.000
    C538     C        0.28837    0.92665    0.54333    1.000
    C539     C        0.26956    0.94699    0.56191    1.000
    C540     C        0.18594    0.57555    0.95302    1.000
    Fe61     Fe       0.50395    0.35930    0.29506    1.000
    Fe62     Fe       0.92960    0.34578    0.13924    1.000
    O511     O        0.48852    0.44551    0.39557    1.000
    O512     O        0.51023    0.46723    0.41734    1.000
    O513     O        0.69109    0.30685    0.25721    1.000
    O514     O        0.80308    0.24639    0.20347    1.000
    O515     O        0.71706    0.30178    0.20947    1.000
    O516     O        0.52001    0.38271    0.33302    1.000
    O517     O        0.57255    0.34725    0.29776    1.000
    O518     O        0.49310    0.39614    0.30303    1.000
    O519     O        0.46041    0.36237    0.31936    1.000
    O520     O        0.51380    0.32536    0.28249    1.000
    O521     O        0.54587    0.35918    0.26807    1.000
    O522     O        0.96870    0.26932    0.16733    1.000
    O523     O        0.94751    0.24946    0.14723    1.000
    O524     O        0.94028    0.31526    0.17587    1.000
    O525     O        0.90235    0.27840    0.13669    1.000
    O526     O        0.91740    0.37999    0.10530    1.000
    O527     O        0.88706    0.34761    0.16523    1.000
    C541     C        0.87120    0.23270    0.18569    1.000
    C542     C        0.90347    0.22768    0.17913    1.000
    C543     C        0.91904    0.25309    0.15244    1.000
    C544     C        0.48597    0.43931    0.34588    1.000
    C545     C        0.48078    0.43337    0.32536    1.000
    C546     C        0.49949    0.40242    0.31954    1.000
    C547     C        0.60124    0.35250    0.21616    1.000
    C548     C        0.65863    0.33185    0.19629    1.000
    C549     C        0.60175    0.34921    0.24442    1.000
    C550     C        0.66038    0.32880    0.22411    1.000
    C551     C        0.63145    0.33773    0.24802    1.000
    C552     C        0.62914    0.34321    0.19235    1.000
    C553     C        0.69158    0.31190    0.23034    1.000
    C554     C        0.62707    0.34150    0.16555    1.000
    C555     C        0.57138    0.35274    0.27160    1.000
    C556     C        0.54333    0.24165    0.28837    1.000
    C557     C        0.56191    0.22153    0.26956    1.000
    C558     C        0.95302    0.28549    0.18594    1.000
    Fe63     Fe       0.84170    0.29506    0.35930    1.000
    Fe64     Fe       0.58537    0.13924    0.34578    1.000
    O528     O        0.67040    0.39557    0.44551    1.000
    O529     O        0.60520    0.41734    0.46723    1.000
    O530     O        0.74485    0.25721    0.30685    1.000
    O531     O        0.74706    0.20347    0.24639    1.000
    O532     O        0.77169    0.20947    0.30178    1.000
    O533     O        0.76425    0.33302    0.38271    1.000
    O534     O        0.78245    0.29776    0.34725    1.000
    O535     O        0.80773    0.30303    0.39614    1.000
    O536     O        0.85786    0.31936    0.36237    1.000
    O537     O        0.87835    0.28249    0.32536    1.000
    O538     O        0.82688    0.26807    0.35918    1.000
    O539     O        0.59464    0.16733    0.26932    1.000
    O540     O        0.65580    0.14723    0.24946    1.000
    O541     O        0.56859    0.17587    0.31526    1.000
    O542     O        0.68256    0.13669    0.27840    1.000
    O543     O        0.59730    0.10530    0.37999    1.000
    O544     O        0.60009    0.16523    0.34761    1.000
    C559     C        0.71041    0.18569    0.23270    1.000
    C560     C        0.68972    0.17913    0.22768    1.000
    C561     C        0.67543    0.15244    0.25309    1.000
    C562     C        0.72884    0.34588    0.43931    1.000
    C563     C        0.76049    0.32536    0.43337    1.000
    C564     C        0.77855    0.31954    0.40242    1.000
    C565     C        0.83010    0.21616    0.35250    1.000
    C566     C        0.81323    0.19629    0.33185    1.000
    C567     C        0.80462    0.24442    0.34921    1.000
    C568     C        0.78671    0.22411    0.32880    1.000
    C569     C        0.78279    0.24802    0.33773    1.000
    C570     C        0.83530    0.19235    0.34321    1.000
    C571     C        0.76618    0.23034    0.31190    1.000
    C572     C        0.86587    0.16555    0.34150    1.000
    C573     C        0.80428    0.27160    0.35274    1.000
    C574     C        0.92665    0.28837    0.24165    1.000
    C575     C        0.94699    0.26956    0.22153    1.000
    C576     C        0.57555    0.18594    0.28549    1.000
    Fe65     Fe       0.84170    0.35930    0.50395    1.000
    Fe66     Fe       0.58537    0.34578    0.92960    1.000
    O545     O        0.67040    0.44551    0.48852    1.000
    O546     O        0.60520    0.46723    0.51023    1.000
    O547     O        0.74485    0.30685    0.69109    1.000
    O548     O        0.74706    0.24639    0.80308    1.000
    O549     O        0.77169    0.30178    0.71706    1.000
    O550     O        0.76425    0.38271    0.52001    1.000
    O551     O        0.78245    0.34725    0.57255    1.000
    O552     O        0.80773    0.39614    0.49310    1.000
    O553     O        0.85786    0.36237    0.46041    1.000
    O554     O        0.87835    0.32536    0.51380    1.000
    O555     O        0.82688    0.35918    0.54587    1.000
    O556     O        0.59464    0.26932    0.96870    1.000
    O557     O        0.65580    0.24946    0.94751    1.000
    O558     O        0.56859    0.31526    0.94028    1.000
    O559     O        0.68256    0.27840    0.90235    1.000
    O560     O        0.59730    0.37999    0.91740    1.000
    O561     O        0.60009    0.34761    0.88706    1.000
    C577     C        0.71041    0.23270    0.87120    1.000
    C578     C        0.68972    0.22768    0.90347    1.000
    C579     C        0.67543    0.25309    0.91904    1.000
    C580     C        0.72884    0.43931    0.48597    1.000
    C581     C        0.76049    0.43337    0.48078    1.000
    C582     C        0.77855    0.40242    0.49949    1.000
    C583     C        0.83010    0.35250    0.60124    1.000
    C584     C        0.81323    0.33185    0.65863    1.000
    C585     C        0.80462    0.34921    0.60175    1.000
    C586     C        0.78671    0.32880    0.66038    1.000
    C587     C        0.78279    0.33773    0.63145    1.000
    C588     C        0.83530    0.34321    0.62914    1.000
    C589     C        0.76618    0.31190    0.69158    1.000
    C590     C        0.86587    0.34150    0.62707    1.000
    C591     C        0.80428    0.35274    0.57138    1.000
    C592     C        0.92665    0.24165    0.54333    1.000
    C593     C        0.94699    0.22153    0.56191    1.000
    C594     C        0.57555    0.28549    0.95302    1.000
    Fe67     Fe       0.50395    0.29506    0.84170    1.000
    Fe68     Fe       0.92960    0.13924    0.58537    1.000
    O562     O        0.48852    0.39557    0.67040    1.000
    O563     O        0.51023    0.41734    0.60520    1.000
    O564     O        0.69109    0.25721    0.74485    1.000
    O565     O        0.80308    0.20347    0.74706    1.000
    O566     O        0.71706    0.20947    0.77169    1.000
    O567     O        0.52001    0.33302    0.76425    1.000
    O568     O        0.57255    0.29776    0.78245    1.000
    O569     O        0.49310    0.30303    0.80773    1.000
    O570     O        0.46041    0.31936    0.85786    1.000
    O571     O        0.51380    0.28249    0.87835    1.000
    O572     O        0.54587    0.26807    0.82688    1.000
    O573     O        0.96870    0.16733    0.59464    1.000
    O574     O        0.94751    0.14723    0.65580    1.000
    O575     O        0.94028    0.17587    0.56859    1.000
    O576     O        0.90235    0.13669    0.68256    1.000
    O577     O        0.91740    0.10530    0.59730    1.000
    O578     O        0.88706    0.16523    0.60009    1.000
    C595     C        0.87120    0.18569    0.71041    1.000
    C596     C        0.90347    0.17913    0.68972    1.000
    C597     C        0.91904    0.15244    0.67543    1.000
    C598     C        0.48597    0.34588    0.72884    1.000
    C599     C        0.48078    0.32536    0.76049    1.000
    C600     C        0.49949    0.31954    0.77855    1.000
    C601     C        0.60124    0.21616    0.83010    1.000
    C602     C        0.65863    0.19629    0.81323    1.000
    C603     C        0.60175    0.24442    0.80462    1.000
    C604     C        0.66038    0.22411    0.78671    1.000
    C605     C        0.63145    0.24802    0.78279    1.000
    C606     C        0.62914    0.19235    0.83530    1.000
    C607     C        0.69158    0.23034    0.76618    1.000
    C608     C        0.62707    0.16555    0.86587    1.000
    C609     C        0.57138    0.27160    0.80428    1.000
    C610     C        0.54333    0.28837    0.92665    1.000
    C611     C        0.56191    0.26956    0.94699    1.000
    C612     C        0.95302    0.18594    0.57555    1.000
    Fe69     Fe       0.29506    0.50395    0.35930    1.000
    Fe70     Fe       0.13924    0.92960    0.34578    1.000
    O579     O        0.39557    0.48852    0.44551    1.000
    O580     O        0.41734    0.51023    0.46723    1.000
    O581     O        0.25721    0.69109    0.30685    1.000
    O582     O        0.20347    0.80308    0.24639    1.000
    O583     O        0.20947    0.71706    0.30178    1.000
    O584     O        0.33302    0.52001    0.38271    1.000
    O585     O        0.29776    0.57255    0.34725    1.000
    O586     O        0.30303    0.49310    0.39614    1.000
    O587     O        0.31936    0.46041    0.36237    1.000
    O588     O        0.28249    0.51380    0.32536    1.000
    O589     O        0.26807    0.54587    0.35918    1.000
    O590     O        0.16733    0.96870    0.26932    1.000
    O591     O        0.14723    0.94751    0.24946    1.000
    O592     O        0.17587    0.94028    0.31526    1.000
    O593     O        0.13669    0.90235    0.27840    1.000
    O594     O        0.10530    0.91740    0.37999    1.000
    O595     O        0.16523    0.88706    0.34761    1.000
    C613     C        0.18569    0.87120    0.23270    1.000
    C614     C        0.17913    0.90347    0.22768    1.000
    C615     C        0.15244    0.91904    0.25309    1.000
    C616     C        0.34588    0.48597    0.43931    1.000
    C617     C        0.32536    0.48078    0.43337    1.000
    C618     C        0.31954    0.49949    0.40242    1.000
    C619     C        0.21616    0.60124    0.35250    1.000
    C620     C        0.19629    0.65863    0.33185    1.000
    C621     C        0.24442    0.60175    0.34921    1.000
    C622     C        0.22411    0.66038    0.32880    1.000
    C623     C        0.24802    0.63145    0.33773    1.000
    C624     C        0.19235    0.62914    0.34321    1.000
    C625     C        0.23034    0.69158    0.31190    1.000
    C626     C        0.16555    0.62707    0.34150    1.000
    C627     C        0.27160    0.57138    0.35274    1.000
    C628     C        0.28837    0.54333    0.24165    1.000
    C629     C        0.26956    0.56191    0.22153    1.000
    C630     C        0.18594    0.95302    0.28549    1.000
    Fe71     Fe       0.35930    0.84170    0.29506    1.000
    Fe72     Fe       0.34578    0.58537    0.13924    1.000
    O596     O        0.44551    0.67040    0.39557    1.000
    O597     O        0.46723    0.60520    0.41734    1.000
    O598     O        0.30685    0.74485    0.25721    1.000
    O599     O        0.24639    0.74706    0.20347    1.000
    O600     O        0.30178    0.77169    0.20947    1.000
    O601     O        0.38271    0.76425    0.33302    1.000
    O602     O        0.34725    0.78245    0.29776    1.000
    O603     O        0.39614    0.80773    0.30303    1.000
    O604     O        0.36237    0.85786    0.31936    1.000
    O605     O        0.32536    0.87835    0.28249    1.000
    O606     O        0.35918    0.82688    0.26807    1.000
    O607     O        0.26932    0.59464    0.16733    1.000
    O608     O        0.24946    0.65580    0.14723    1.000
    O609     O        0.31526    0.56859    0.17587    1.000
    O610     O        0.27840    0.68256    0.13669    1.000
    O611     O        0.37999    0.59730    0.10530    1.000
    O612     O        0.34761    0.60009    0.16523    1.000
    C631     C        0.23270    0.71041    0.18569    1.000
    C632     C        0.22768    0.68972    0.17913    1.000
    C633     C        0.25309    0.67543    0.15244    1.000
    C634     C        0.43931    0.72884    0.34588    1.000
    C635     C        0.43337    0.76049    0.32536    1.000
    C636     C        0.40242    0.77855    0.31954    1.000
    C637     C        0.35250    0.83010    0.21616    1.000
    C638     C        0.33185    0.81323    0.19629    1.000
    C639     C        0.34921    0.80462    0.24442    1.000
    C640     C        0.32880    0.78671    0.22411    1.000
    C641     C        0.33773    0.78279    0.24802    1.000
    C642     C        0.34321    0.83530    0.19235    1.000
    C643     C        0.31190    0.76618    0.23034    1.000
    C644     C        0.34150    0.86587    0.16555    1.000
    C645     C        0.35274    0.80428    0.27160    1.000
    C646     C        0.24165    0.92665    0.28837    1.000
    C647     C        0.22153    0.94699    0.26956    1.000
    C648     C        0.28549    0.57555    0.18594    1.000
    Fe73     Fe       0.74605    0.40830    0.95494    1.000
    Fe74     Fe       0.32040    0.66463    0.11076    1.000
    O613     O        0.76148    0.57960    0.85443    1.000
    O614     O        0.73977    0.64480    0.83266    1.000
    O615     O        0.55891    0.50515    0.99279    1.000
    O616     O        0.44692    0.50294    0.04653    1.000
    O617     O        0.53294    0.47831    0.04053    1.000
    O618     O        0.72999    0.48575    0.91698    1.000
    O619     O        0.67745    0.46755    0.95224    1.000
    O620     O        0.75690    0.44227    0.94697    1.000
    O621     O        0.78959    0.39214    0.93064    1.000
    O622     O        0.73620    0.37165    0.96751    1.000
    O623     O        0.70413    0.42312    0.98193    1.000
    O624     O        0.28130    0.65536    0.08267    1.000
    O625     O        0.30249    0.59420    0.10277    1.000
    O626     O        0.30972    0.68141    0.07413    1.000
    O627     O        0.34765    0.56744    0.11331    1.000
    O628     O        0.33260    0.65270    0.14470    1.000
    O629     O        0.36294    0.64991    0.08477    1.000
    C649     C        0.37880    0.53959    0.06431    1.000
    C650     C        0.34653    0.56028    0.07087    1.000
    C651     C        0.33096    0.57457    0.09756    1.000
    C652     C        0.76403    0.52116    0.90412    1.000
    C653     C        0.76922    0.48951    0.92464    1.000
    C654     C        0.75051    0.47145    0.93046    1.000
    C655     C        0.64876    0.41990    0.03384    1.000
    C656     C        0.59137    0.43677    0.05371    1.000
    C657     C        0.64825    0.44538    0.00558    1.000
    C658     C        0.58962    0.46329    0.02589    1.000
    C659     C        0.61855    0.46721    0.00198    1.000
    C660     C        0.62086    0.41470    0.05765    1.000
    C661     C        0.55842    0.48382    0.01966    1.000
    C662     C        0.62293    0.38413    0.08445    1.000
    C663     C        0.67862    0.44572    0.97840    1.000
    C664     C        0.70667    0.32335    0.96163    1.000
    C665     C        0.68809    0.30301    0.98044    1.000
    C666     C        0.29698    0.67445    0.06406    1.000
    Fe75     Fe       0.40830    0.74605    0.89070    1.000
    Fe76     Fe       0.66463    0.32040    0.90422    1.000
    O630     O        0.57960    0.76148    0.80449    1.000
    O631     O        0.64480    0.73977    0.78277    1.000
    O632     O        0.50515    0.55891    0.94315    1.000
    O633     O        0.50294    0.44692    0.00361    1.000
    O634     O        0.47831    0.53294    0.94822    1.000
    O635     O        0.48575    0.72999    0.86729    1.000
    O636     O        0.46755    0.67745    0.90275    1.000
    O637     O        0.44227    0.75690    0.85386    1.000
    O638     O        0.39214    0.78959    0.88763    1.000
    O639     O        0.37165    0.73620    0.92464    1.000
    O640     O        0.42312    0.70413    0.89082    1.000
    O641     O        0.65536    0.28130    0.98068    1.000
    O642     O        0.59420    0.30249    0.00054    1.000
    O643     O        0.68141    0.30972    0.93474    1.000
    O644     O        0.56744    0.34765    0.97160    1.000
    O645     O        0.65270    0.33260    0.87001    1.000
    O646     O        0.64991    0.36294    0.90239    1.000
    C667     C        0.53959    0.37880    0.01730    1.000
    C668     C        0.56028    0.34653    0.02232    1.000
    C669     C        0.57457    0.33096    0.99691    1.000
    C670     C        0.52116    0.76403    0.81069    1.000
    C671     C        0.48951    0.76922    0.81663    1.000
    C672     C        0.47145    0.75051    0.84758    1.000
    C673     C        0.41990    0.64876    0.89750    1.000
    C674     C        0.43677    0.59137    0.91815    1.000
    C675     C        0.44538    0.64825    0.90079    1.000
    C676     C        0.46329    0.58962    0.92120    1.000
    C677     C        0.46721    0.61855    0.91227    1.000
    C678     C        0.41470    0.62086    0.90679    1.000
    C679     C        0.48382    0.55842    0.93810    1.000
    C680     C        0.38413    0.62293    0.90850    1.000
    C681     C        0.44572    0.67862    0.89726    1.000
    C682     C        0.32335    0.70667    0.00835    1.000
    C683     C        0.30301    0.68809    0.02847    1.000
    C684     C        0.67445    0.29698    0.96451    1.000
    Fe77     Fe       0.89070    0.95494    0.40830    1.000
    Fe78     Fe       0.90422    0.11076    0.66463    1.000
    O647     O        0.80449    0.85443    0.57960    1.000
    O648     O        0.78277    0.83266    0.64480    1.000
    O649     O        0.94315    0.99279    0.50515    1.000
    O650     O        0.00361    0.04653    0.50294    1.000
    O651     O        0.94822    0.04053    0.47831    1.000
    O652     O        0.86729    0.91698    0.48575    1.000
    O653     O        0.90275    0.95224    0.46755    1.000
    O654     O        0.85386    0.94697    0.44227    1.000
    O655     O        0.88763    0.93064    0.39214    1.000
    O656     O        0.92464    0.96751    0.37165    1.000
    O657     O        0.89082    0.98193    0.42312    1.000
    O658     O        0.98068    0.08267    0.65536    1.000
    O659     O        0.00054    0.10277    0.59420    1.000
    O660     O        0.93474    0.07413    0.68141    1.000
    O661     O        0.97160    0.11331    0.56744    1.000
    O662     O        0.87001    0.14470    0.65270    1.000
    O663     O        0.90239    0.08477    0.64991    1.000
    C685     C        0.01730    0.06431    0.53959    1.000
    C686     C        0.02232    0.07087    0.56028    1.000
    C687     C        0.99691    0.09756    0.57457    1.000
    C688     C        0.81069    0.90412    0.52116    1.000
    C689     C        0.81663    0.92464    0.48951    1.000
    C690     C        0.84758    0.93046    0.47145    1.000
    C691     C        0.89750    0.03384    0.41990    1.000
    C692     C        0.91815    0.05371    0.43677    1.000
    C693     C        0.90079    0.00558    0.44538    1.000
    C694     C        0.92120    0.02589    0.46329    1.000
    C695     C        0.91227    0.00198    0.46721    1.000
    C696     C        0.90679    0.05765    0.41470    1.000
    C697     C        0.93810    0.01966    0.48382    1.000
    C698     C        0.90850    0.08445    0.38413    1.000
    C699     C        0.89726    0.97840    0.44572    1.000
    C700     C        0.00835    0.96163    0.32335    1.000
    C701     C        0.02847    0.98044    0.30301    1.000
    C702     C        0.96451    0.06406    0.67445    1.000
    Fe79     Fe       0.95494    0.89070    0.74605    1.000
    Fe80     Fe       0.11076    0.90422    0.32040    1.000
    O664     O        0.85443    0.80449    0.76148    1.000
    O665     O        0.83266    0.78277    0.73977    1.000
    O666     O        0.99279    0.94315    0.55891    1.000
    O667     O        0.04653    0.00361    0.44692    1.000
    O668     O        0.04053    0.94822    0.53294    1.000
    O669     O        0.91698    0.86729    0.72999    1.000
    O670     O        0.95224    0.90275    0.67745    1.000
    O671     O        0.94697    0.85386    0.75690    1.000
    O672     O        0.93064    0.88763    0.78959    1.000
    O673     O        0.96751    0.92464    0.73620    1.000
    O674     O        0.98193    0.89082    0.70413    1.000
    O675     O        0.08267    0.98068    0.28130    1.000
    O676     O        0.10277    0.00054    0.30249    1.000
    O677     O        0.07413    0.93474    0.30972    1.000
    O678     O        0.11331    0.97160    0.34765    1.000
    O679     O        0.14470    0.87001    0.33260    1.000
    O680     O        0.08477    0.90239    0.36294    1.000
    C703     C        0.06431    0.01730    0.37880    1.000
    C704     C        0.07087    0.02232    0.34653    1.000
    C705     C        0.09756    0.99691    0.33096    1.000
    C706     C        0.90412    0.81069    0.76403    1.000
    C707     C        0.92464    0.81663    0.76922    1.000
    C708     C        0.93046    0.84758    0.75051    1.000
    C709     C        0.03384    0.89750    0.64876    1.000
    C710     C        0.05371    0.91815    0.59137    1.000
    C711     C        0.00558    0.90079    0.64825    1.000
    C712     C        0.02589    0.92120    0.58962    1.000
    C713     C        0.00198    0.91227    0.61855    1.000
    C714     C        0.05765    0.90679    0.62086    1.000
    C715     C        0.01966    0.93810    0.55842    1.000
    C716     C        0.08445    0.90850    0.62293    1.000
    C717     C        0.97840    0.89726    0.67862    1.000
    C718     C        0.96163    0.00835    0.70667    1.000
    C719     C        0.98044    0.02847    0.68809    1.000
    C720     C        0.06406    0.96451    0.29698    1.000
    Fe81     Fe       0.89070    0.74605    0.95494    1.000
    Fe82     Fe       0.90422    0.32040    0.11076    1.000
    O681     O        0.80449    0.76148    0.85443    1.000
    O682     O        0.78277    0.73977    0.83266    1.000
    O683     O        0.94315    0.55891    0.99279    1.000
    O684     O        0.00361    0.44692    0.04653    1.000
    O685     O        0.94822    0.53294    0.04053    1.000
    O686     O        0.86729    0.72999    0.91698    1.000
    O687     O        0.90275    0.67745    0.95224    1.000
    O688     O        0.85386    0.75690    0.94697    1.000
    O689     O        0.88763    0.78959    0.93064    1.000
    O690     O        0.92464    0.73620    0.96751    1.000
    O691     O        0.89082    0.70413    0.98193    1.000
    O692     O        0.98068    0.28130    0.08267    1.000
    O693     O        0.00054    0.30249    0.10277    1.000
    O694     O        0.93474    0.30972    0.07413    1.000
    O695     O        0.97160    0.34765    0.11331    1.000
    O696     O        0.87001    0.33260    0.14470    1.000
    O697     O        0.90239    0.36294    0.08477    1.000
    C721     C        0.01730    0.37880    0.06431    1.000
    C722     C        0.02232    0.34653    0.07087    1.000
    C723     C        0.99691    0.33096    0.09756    1.000
    C724     C        0.81069    0.76403    0.90412    1.000
    C725     C        0.81663    0.76922    0.92464    1.000
    C726     C        0.84758    0.75051    0.93046    1.000
    C727     C        0.89750    0.64876    0.03384    1.000
    C728     C        0.91815    0.59137    0.05371    1.000
    C729     C        0.90079    0.64825    0.00558    1.000
    C730     C        0.92120    0.58962    0.02589    1.000
    C731     C        0.91227    0.61855    0.00198    1.000
    C732     C        0.90679    0.62086    0.05765    1.000
    C733     C        0.93810    0.55842    0.01966    1.000
    C734     C        0.90850    0.62293    0.08445    1.000
    C735     C        0.89726    0.67862    0.97840    1.000
    C736     C        0.00835    0.70667    0.96163    1.000
    C737     C        0.02847    0.68809    0.98044    1.000
    C738     C        0.96451    0.29698    0.06406    1.000
    Fe83     Fe       0.95494    0.40830    0.89070    1.000
    Fe84     Fe       0.11076    0.66463    0.90422    1.000
    O698     O        0.85443    0.57960    0.80449    1.000
    O699     O        0.83266    0.64480    0.78277    1.000
    O700     O        0.99279    0.50515    0.94315    1.000
    O701     O        0.04653    0.50294    0.00361    1.000
    O702     O        0.04053    0.47831    0.94822    1.000
    O703     O        0.91698    0.48575    0.86729    1.000
    O704     O        0.95224    0.46755    0.90275    1.000
    O705     O        0.94697    0.44227    0.85386    1.000
    O706     O        0.93064    0.39214    0.88763    1.000
    O707     O        0.96751    0.37165    0.92464    1.000
    O708     O        0.98193    0.42312    0.89082    1.000
    O709     O        0.08267    0.65536    0.98068    1.000
    O710     O        0.10277    0.59420    0.00054    1.000
    O711     O        0.07413    0.68141    0.93474    1.000
    O712     O        0.11331    0.56744    0.97160    1.000
    O713     O        0.14470    0.65270    0.87001    1.000
    O714     O        0.08477    0.64991    0.90239    1.000
    C739     C        0.06431    0.53959    0.01730    1.000
    C740     C        0.07087    0.56028    0.02232    1.000
    C741     C        0.09756    0.57457    0.99691    1.000
    C742     C        0.90412    0.52116    0.81069    1.000
    C743     C        0.92464    0.48951    0.81663    1.000
    C744     C        0.93046    0.47145    0.84758    1.000
    C745     C        0.03384    0.41990    0.89750    1.000
    C746     C        0.05371    0.43677    0.91815    1.000
    C747     C        0.00558    0.44538    0.90079    1.000
    C748     C        0.02589    0.46329    0.92120    1.000
    C749     C        0.00198    0.46721    0.91227    1.000
    C750     C        0.05765    0.41470    0.90679    1.000
    C751     C        0.01966    0.48382    0.93810    1.000
    C752     C        0.08445    0.38413    0.90850    1.000
    C753     C        0.97840    0.44572    0.89726    1.000
    C754     C        0.96163    0.32335    0.00835    1.000
    C755     C        0.98044    0.30301    0.02847    1.000
    C756     C        0.06406    0.67445    0.96451    1.000
    Fe85     Fe       0.74605    0.89070    0.40830    1.000
    Fe86     Fe       0.32040    0.90422    0.66463    1.000
    O715     O        0.76148    0.80449    0.57960    1.000
    O716     O        0.73977    0.78277    0.64480    1.000
    O717     O        0.55891    0.94315    0.50515    1.000
    O718     O        0.44692    0.00361    0.50294    1.000
    O719     O        0.53294    0.94822    0.47831    1.000
    O720     O        0.72999    0.86729    0.48575    1.000
    O721     O        0.67745    0.90275    0.46755    1.000
    O722     O        0.75690    0.85386    0.44227    1.000
    O723     O        0.78959    0.88763    0.39214    1.000
    O724     O        0.73620    0.92464    0.37165    1.000
    O725     O        0.70413    0.89082    0.42312    1.000
    O726     O        0.28130    0.98068    0.65536    1.000
    O727     O        0.30249    0.00054    0.59420    1.000
    O728     O        0.30972    0.93474    0.68141    1.000
    O729     O        0.34765    0.97160    0.56744    1.000
    O730     O        0.33260    0.87001    0.65270    1.000
    O731     O        0.36294    0.90239    0.64991    1.000
    C757     C        0.37880    0.01730    0.53959    1.000
    C758     C        0.34653    0.02232    0.56028    1.000
    C759     C        0.33096    0.99691    0.57457    1.000
    C760     C        0.76403    0.81069    0.52116    1.000
    C761     C        0.76922    0.81663    0.48951    1.000
    C762     C        0.75051    0.84758    0.47145    1.000
    C763     C        0.64876    0.89750    0.41990    1.000
    C764     C        0.59137    0.91815    0.43677    1.000
    C765     C        0.64825    0.90079    0.44538    1.000
    C766     C        0.58962    0.92120    0.46329    1.000
    C767     C        0.61855    0.91227    0.46721    1.000
    C768     C        0.62086    0.90679    0.41470    1.000
    C769     C        0.55842    0.93810    0.48382    1.000
    C770     C        0.62293    0.90850    0.38413    1.000
    C771     C        0.67862    0.89726    0.44572    1.000
    C772     C        0.70667    0.00835    0.32335    1.000
    C773     C        0.68809    0.02847    0.30301    1.000
    C774     C        0.29698    0.96451    0.67445    1.000
    Fe87     Fe       0.40830    0.95494    0.74605    1.000
    Fe88     Fe       0.66463    0.11076    0.32040    1.000
    O732     O        0.57960    0.85443    0.76148    1.000
    O733     O        0.64480    0.83266    0.73977    1.000
    O734     O        0.50515    0.99279    0.55891    1.000
    O735     O        0.50294    0.04653    0.44692    1.000
    O736     O        0.47831    0.04053    0.53294    1.000
    O737     O        0.48575    0.91698    0.72999    1.000
    O738     O        0.46755    0.95224    0.67745    1.000
    O739     O        0.44227    0.94697    0.75690    1.000
    O740     O        0.39214    0.93064    0.78959    1.000
    O741     O        0.37165    0.96751    0.73620    1.000
    O742     O        0.42312    0.98193    0.70413    1.000
    O743     O        0.65536    0.08267    0.28130    1.000
    O744     O        0.59420    0.10277    0.30249    1.000
    O745     O        0.68141    0.07413    0.30972    1.000
    O746     O        0.56744    0.11331    0.34765    1.000
    O747     O        0.65270    0.14470    0.33260    1.000
    O748     O        0.64991    0.08477    0.36294    1.000
    C775     C        0.53959    0.06431    0.37880    1.000
    C776     C        0.56028    0.07087    0.34653    1.000
    C777     C        0.57457    0.09756    0.33096    1.000
    C778     C        0.52116    0.90412    0.76403    1.000
    C779     C        0.48951    0.92464    0.76922    1.000
    C780     C        0.47145    0.93046    0.75051    1.000
    C781     C        0.41990    0.03384    0.64876    1.000
    C782     C        0.43677    0.05371    0.59137    1.000
    C783     C        0.44538    0.00558    0.64825    1.000
    C784     C        0.46329    0.02589    0.58962    1.000
    C785     C        0.46721    0.00198    0.61855    1.000
    C786     C        0.41470    0.05765    0.62086    1.000
    C787     C        0.48382    0.01966    0.55842    1.000
    C788     C        0.38413    0.08445    0.62293    1.000
    C789     C        0.44572    0.97840    0.67862    1.000
    C790     C        0.32335    0.96163    0.70667    1.000
    C791     C        0.30301    0.98044    0.68809    1.000
    C792     C        0.67445    0.06406    0.29698    1.000
    Fe89     Fe       0.40830    0.89070    0.95494    1.000
    Fe90     Fe       0.66463    0.90422    0.11076    1.000
    O749     O        0.57960    0.80449    0.85443    1.000
    O750     O        0.64480    0.78277    0.83266    1.000
    O751     O        0.50515    0.94315    0.99279    1.000
    O752     O        0.50294    0.00361    0.04653    1.000
    O753     O        0.47831    0.94822    0.04053    1.000
    O754     O        0.48575    0.86729    0.91698    1.000
    O755     O        0.46755    0.90275    0.95224    1.000
    O756     O        0.44227    0.85386    0.94697    1.000
    O757     O        0.39214    0.88763    0.93064    1.000
    O758     O        0.37165    0.92464    0.96751    1.000
    O759     O        0.42312    0.89082    0.98193    1.000
    O760     O        0.65536    0.98068    0.08267    1.000
    O761     O        0.59420    0.00054    0.10277    1.000
    O762     O        0.68141    0.93474    0.07413    1.000
    O763     O        0.56744    0.97160    0.11331    1.000
    O764     O        0.65270    0.87001    0.14470    1.000
    O765     O        0.64991    0.90239    0.08477    1.000
    C793     C        0.53959    0.01730    0.06431    1.000
    C794     C        0.56028    0.02232    0.07087    1.000
    C795     C        0.57457    0.99691    0.09756    1.000
    C796     C        0.52116    0.81069    0.90412    1.000
    C797     C        0.48951    0.81663    0.92464    1.000
    C798     C        0.47145    0.84758    0.93046    1.000
    C799     C        0.41990    0.89750    0.03384    1.000
    C800     C        0.43677    0.91815    0.05371    1.000
    C801     C        0.44538    0.90079    0.00558    1.000
    C802     C        0.46329    0.92120    0.02589    1.000
    C803     C        0.46721    0.91227    0.00198    1.000
    C804     C        0.41470    0.90679    0.05765    1.000
    C805     C        0.48382    0.93810    0.01966    1.000
    C806     C        0.38413    0.90850    0.08445    1.000
    C807     C        0.44572    0.89726    0.97840    1.000
    C808     C        0.32335    0.00835    0.96163    1.000
    C809     C        0.30301    0.02847    0.98044    1.000
    C810     C        0.67445    0.96451    0.06406    1.000
    Fe91     Fe       0.74605    0.95494    0.89070    1.000
    Fe92     Fe       0.32040    0.11076    0.90422    1.000
    O766     O        0.76148    0.85443    0.80449    1.000
    O767     O        0.73977    0.83266    0.78277    1.000
    O768     O        0.55891    0.99279    0.94315    1.000
    O769     O        0.44692    0.04653    0.00361    1.000
    O770     O        0.53294    0.04053    0.94822    1.000
    O771     O        0.72999    0.91698    0.86729    1.000
    O772     O        0.67745    0.95224    0.90275    1.000
    O773     O        0.75690    0.94697    0.85386    1.000
    O774     O        0.78959    0.93064    0.88763    1.000
    O775     O        0.73620    0.96751    0.92464    1.000
    O776     O        0.70413    0.98193    0.89082    1.000
    O777     O        0.28130    0.08267    0.98068    1.000
    O778     O        0.30249    0.10277    0.00054    1.000
    O779     O        0.30972    0.07413    0.93474    1.000
    O780     O        0.34765    0.11331    0.97160    1.000
    O781     O        0.33260    0.14470    0.87001    1.000
    O782     O        0.36294    0.08477    0.90239    1.000
    C811     C        0.37880    0.06431    0.01730    1.000
    C812     C        0.34653    0.07087    0.02232    1.000
    C813     C        0.33096    0.09756    0.99691    1.000
    C814     C        0.76403    0.90412    0.81069    1.000
    C815     C        0.76922    0.92464    0.81663    1.000
    C816     C        0.75051    0.93046    0.84758    1.000
    C817     C        0.64876    0.03384    0.89750    1.000
    C818     C        0.59137    0.05371    0.91815    1.000
    C819     C        0.64825    0.00558    0.90079    1.000
    C820     C        0.58962    0.02589    0.92120    1.000
    C821     C        0.61855    0.00198    0.91227    1.000
    C822     C        0.62086    0.05765    0.90679    1.000
    C823     C        0.55842    0.01966    0.93810    1.000
    C824     C        0.62293    0.08445    0.90850    1.000
    C825     C        0.67862    0.97840    0.89726    1.000
    C826     C        0.70667    0.96163    0.00835    1.000
    C827     C        0.68809    0.98044    0.02847    1.000
    C828     C        0.29698    0.06406    0.96451    1.000
    Fe93     Fe       0.95494    0.74605    0.40830    1.000
    Fe94     Fe       0.11076    0.32040    0.66463    1.000
    O783     O        0.85443    0.76148    0.57960    1.000
    O784     O        0.83266    0.73977    0.64480    1.000
    O785     O        0.99279    0.55891    0.50515    1.000
    O786     O        0.04653    0.44692    0.50294    1.000
    O787     O        0.04053    0.53294    0.47831    1.000
    O788     O        0.91698    0.72999    0.48575    1.000
    O789     O        0.95224    0.67745    0.46755    1.000
    O790     O        0.94697    0.75690    0.44227    1.000
    O791     O        0.93064    0.78959    0.39214    1.000
    O792     O        0.96751    0.73620    0.37165    1.000
    O793     O        0.98193    0.70413    0.42312    1.000
    O794     O        0.08267    0.28130    0.65536    1.000
    O795     O        0.10277    0.30249    0.59420    1.000
    O796     O        0.07413    0.30972    0.68141    1.000
    O797     O        0.11331    0.34765    0.56744    1.000
    O798     O        0.14470    0.33260    0.65270    1.000
    O799     O        0.08477    0.36294    0.64991    1.000
    C829     C        0.06431    0.37880    0.53959    1.000
    C830     C        0.07087    0.34653    0.56028    1.000
    C831     C        0.09756    0.33096    0.57457    1.000
    C832     C        0.90412    0.76403    0.52116    1.000
    C833     C        0.92464    0.76922    0.48951    1.000
    C834     C        0.93046    0.75051    0.47145    1.000
    C835     C        0.03384    0.64876    0.41990    1.000
    C836     C        0.05371    0.59137    0.43677    1.000
    C837     C        0.00558    0.64825    0.44538    1.000
    C838     C        0.02589    0.58962    0.46329    1.000
    C839     C        0.00198    0.61855    0.46721    1.000
    C840     C        0.05765    0.62086    0.41470    1.000
    C841     C        0.01966    0.55842    0.48382    1.000
    C842     C        0.08445    0.62293    0.38413    1.000
    C843     C        0.97840    0.67862    0.44572    1.000
    C844     C        0.96163    0.70667    0.32335    1.000
    C845     C        0.98044    0.68809    0.30301    1.000
    C846     C        0.06406    0.29698    0.67445    1.000
    Fe95     Fe       0.89070    0.40830    0.74605    1.000
    Fe96     Fe       0.90422    0.66463    0.32040    1.000
    O800     O        0.80449    0.57960    0.76148    1.000
    O801     O        0.78277    0.64480    0.73977    1.000
    O802     O        0.94315    0.50515    0.55891    1.000
    O803     O        0.00361    0.50294    0.44692    1.000
    O804     O        0.94822    0.47831    0.53294    1.000
    O805     O        0.86729    0.48575    0.72999    1.000
    O806     O        0.90275    0.46755    0.67745    1.000
    O807     O        0.85386    0.44227    0.75690    1.000
    O808     O        0.88763    0.39214    0.78959    1.000
    O809     O        0.92464    0.37165    0.73620    1.000
    O810     O        0.89082    0.42312    0.70413    1.000
    O811     O        0.98068    0.65536    0.28130    1.000
    O812     O        0.00054    0.59420    0.30249    1.000
    O813     O        0.93474    0.68141    0.30972    1.000
    O814     O        0.97160    0.56744    0.34765    1.000
    O815     O        0.87001    0.65270    0.33260    1.000
    O816     O        0.90239    0.64991    0.36294    1.000
    C847     C        0.01730    0.53959    0.37880    1.000
    C848     C        0.02232    0.56028    0.34653    1.000
    C849     C        0.99691    0.57457    0.33096    1.000
    C850     C        0.81069    0.52116    0.76403    1.000
    C851     C        0.81663    0.48951    0.76922    1.000
    C852     C        0.84758    0.47145    0.75051    1.000
    C853     C        0.89750    0.41990    0.64876    1.000
    C854     C        0.91815    0.43677    0.59137    1.000
    C855     C        0.90079    0.44538    0.64825    1.000
    C856     C        0.92120    0.46329    0.58962    1.000
    C857     C        0.91227    0.46721    0.61855    1.000
    C858     C        0.90679    0.41470    0.62086    1.000
    C859     C        0.93810    0.48382    0.55842    1.000
    C860     C        0.90850    0.38413    0.62293    1.000
    C861     C        0.89726    0.44572    0.67862    1.000
    C862     C        0.00835    0.32335    0.70667    1.000
    C863     C        0.02847    0.30301    0.68809    1.000
    C864     C        0.96451    0.67445    0.29698    1.000
    Fe97     Fe       0.75288    0.61219    0.81746    1.000
    Fe98     Fe       0.70527    0.47422    0.91026    1.000
    O817     O        0.73245    0.43027    0.91864    1.000
    C865     C        0.83981    0.38415    0.88802    1.000
    C866     C        0.80425    0.38923    0.90326    1.000
    C867     C        0.67905    0.29310    0.01392    1.000
    C868     C        0.71581    0.33431    0.97494    1.000
    C869     C        0.73081    0.36043    0.95438    1.000
    Fe99     Fe       0.61219    0.75288    0.81746    1.000
    Fe100    Fe       0.47422    0.70527    0.91026    1.000
    O818     O        0.43027    0.73245    0.91864    1.000
    C870     C        0.38415    0.83981    0.88802    1.000
    C871     C        0.38923    0.80425    0.90326    1.000
    C872     C        0.29310    0.67905    0.01392    1.000
    C873     C        0.33431    0.71581    0.97494    1.000
    C874     C        0.36043    0.73081    0.95438    1.000
    Fe101    Fe       0.81746    0.81746    0.75288    1.000
    Fe102    Fe       0.91026    0.91026    0.70527    1.000
    O819     O        0.91864    0.91864    0.73245    1.000
    C875     C        0.88802    0.88802    0.83981    1.000
    C876     C        0.90326    0.90326    0.80425    1.000
    C877     C        0.01392    0.01392    0.67905    1.000
    C878     C        0.97494    0.97494    0.71581    1.000
    C879     C        0.95438    0.95438    0.73081    1.000
    Fe103    Fe       0.81746    0.81746    0.61219    1.000
    Fe104    Fe       0.91026    0.91026    0.47422    1.000
    O820     O        0.91864    0.91864    0.43027    1.000
    C880     C        0.88802    0.88802    0.38415    1.000
    C881     C        0.90326    0.90326    0.38923    1.000
    C882     C        0.01392    0.01392    0.29310    1.000
    C883     C        0.97494    0.97494    0.33431    1.000
    C884     C        0.95438    0.95438    0.36043    1.000
    Fe105    Fe       0.81746    0.75288    0.61219    1.000
    Fe106    Fe       0.91026    0.70527    0.47422    1.000
    O821     O        0.91864    0.73245    0.43027    1.000
    C885     C        0.88802    0.83981    0.38415    1.000
    C886     C        0.90326    0.80425    0.38923    1.000
    C887     C        0.01392    0.67905    0.29310    1.000
    C888     C        0.97494    0.71581    0.33431    1.000
    C889     C        0.95438    0.73081    0.36043    1.000
    Fe107    Fe       0.81746    0.61219    0.75288    1.000
    Fe108    Fe       0.91026    0.47422    0.70527    1.000
    O822     O        0.91864    0.43027    0.73245    1.000
    C890     C        0.88802    0.38415    0.83981    1.000
    C891     C        0.90326    0.38923    0.80425    1.000
    C892     C        0.01392    0.29310    0.67905    1.000
    C893     C        0.97494    0.33431    0.71581    1.000
    C894     C        0.95438    0.36043    0.73081    1.000
    Fe109    Fe       0.75288    0.81746    0.81746    1.000
    Fe110    Fe       0.70527    0.91026    0.91026    1.000
    O823     O        0.73245    0.91864    0.91864    1.000
    C895     C        0.83981    0.88802    0.88802    1.000
    C896     C        0.80425    0.90326    0.90326    1.000
    C897     C        0.67905    0.01392    0.01392    1.000
    C898     C        0.71581    0.97494    0.97494    1.000
    C899     C        0.73081    0.95438    0.95438    1.000
    Fe111    Fe       0.61219    0.81746    0.81746    1.000
    Fe112    Fe       0.47422    0.91026    0.91026    1.000
    O824     O        0.43027    0.91864    0.91864    1.000
    C900     C        0.38415    0.88802    0.88802    1.000
    C901     C        0.38923    0.90326    0.90326    1.000
    C902     C        0.29310    0.01392    0.01392    1.000
    C903     C        0.33431    0.97494    0.97494    1.000
    C904     C        0.36043    0.95438    0.95438    1.000
    Fe113    Fe       0.61219    0.81746    0.75288    1.000
    Fe114    Fe       0.47422    0.91026    0.70527    1.000
    O825     O        0.43027    0.91864    0.73245    1.000
    C905     C        0.38415    0.88802    0.83981    1.000
    C906     C        0.38923    0.90326    0.80425    1.000
    C907     C        0.29310    0.01392    0.67905    1.000
    C908     C        0.33431    0.97494    0.71581    1.000
    C909     C        0.36043    0.95438    0.73081    1.000
    Fe115    Fe       0.75288    0.81746    0.61219    1.000
    Fe116    Fe       0.70527    0.91026    0.47422    1.000
    O826     O        0.73245    0.91864    0.43027    1.000
    C910     C        0.83981    0.88802    0.38415    1.000
    C911     C        0.80425    0.90326    0.38923    1.000
    C912     C        0.67905    0.01392    0.29310    1.000
    C913     C        0.71581    0.97494    0.33431    1.000
    C914     C        0.73081    0.95438    0.36043    1.000
    Fe117    Fe       0.81746    0.75288    0.81746    1.000
    Fe118    Fe       0.91026    0.70527    0.91026    1.000
    O827     O        0.91864    0.73245    0.91864    1.000
    C915     C        0.88802    0.83981    0.88802    1.000
    C916     C        0.90326    0.80425    0.90326    1.000
    C917     C        0.01392    0.67905    0.01392    1.000
    C918     C        0.97494    0.71581    0.97494    1.000
    C919     C        0.95438    0.73081    0.95438    1.000
    Fe119    Fe       0.81746    0.61219    0.81746    1.000
    Fe120    Fe       0.91026    0.47422    0.91026    1.000
    O828     O        0.91864    0.43027    0.91864    1.000
    C920     C        0.88802    0.38415    0.88802    1.000
    C921     C        0.90326    0.38923    0.90326    1.000
    C922     C        0.01392    0.29310    0.01392    1.000
    C923     C        0.97494    0.33431    0.97494    1.000
    C924     C        0.95438    0.36043    0.95438    1.000
    Fe121    Fe       0.49712    0.63781    0.43254    1.000
    Fe122    Fe       0.54473    0.77578    0.33974    1.000
    O829     O        0.51755    0.81973    0.33136    1.000
    C925     C        0.41019    0.86585    0.36198    1.000
    C926     C        0.44575    0.86077    0.34674    1.000
    C927     C        0.57095    0.95690    0.23608    1.000
    C928     C        0.53419    0.91569    0.27506    1.000
    C929     C        0.51919    0.88957    0.29562    1.000
    Fe123    Fe       0.63781    0.49712    0.43254    1.000
    Fe124    Fe       0.77578    0.54473    0.33974    1.000
    O830     O        0.81973    0.51755    0.33136    1.000
    C930     C        0.86585    0.41019    0.36198    1.000
    C931     C        0.86077    0.44575    0.34674    1.000
    C932     C        0.95690    0.57095    0.23608    1.000
    C933     C        0.91569    0.53419    0.27506    1.000
    C934     C        0.88957    0.51919    0.29562    1.000
    Fe125    Fe       0.43254    0.43254    0.63781    1.000
    Fe126    Fe       0.33974    0.33974    0.77578    1.000
    O831     O        0.33136    0.33136    0.81973    1.000
    C935     C        0.36198    0.36198    0.86585    1.000
    C936     C        0.34674    0.34674    0.86077    1.000
    C937     C        0.23608    0.23608    0.95690    1.000
    C938     C        0.27506    0.27506    0.91569    1.000
    C939     C        0.29562    0.29562    0.88957    1.000
    Fe127    Fe       0.43254    0.43254    0.49712    1.000
    Fe128    Fe       0.33974    0.33974    0.54473    1.000
    O832     O        0.33136    0.33136    0.51755    1.000
    C940     C        0.36198    0.36198    0.41019    1.000
    C941     C        0.34674    0.34674    0.44575    1.000
    C942     C        0.23608    0.23608    0.57095    1.000
    C943     C        0.27506    0.27506    0.53419    1.000
    C944     C        0.29562    0.29562    0.51919    1.000
    Fe129    Fe       0.43254    0.49712    0.43254    1.000
    Fe130    Fe       0.33974    0.54473    0.33974    1.000
    O833     O        0.33136    0.51755    0.33136    1.000
    C945     C        0.36198    0.41019    0.36198    1.000
    C946     C        0.34674    0.44575    0.34674    1.000
    C947     C        0.23608    0.57095    0.23608    1.000
    C948     C        0.27506    0.53419    0.27506    1.000
    C949     C        0.29562    0.51919    0.29562    1.000
    Fe131    Fe       0.43254    0.63781    0.43254    1.000
    Fe132    Fe       0.33974    0.77578    0.33974    1.000
    O834     O        0.33136    0.81973    0.33136    1.000
    C950     C        0.36198    0.86585    0.36198    1.000
    C951     C        0.34674    0.86077    0.34674    1.000
    C952     C        0.23608    0.95690    0.23608    1.000
    C953     C        0.27506    0.91569    0.27506    1.000
    C954     C        0.29562    0.88957    0.29562    1.000
    Fe133    Fe       0.49712    0.43254    0.63781    1.000
    Fe134    Fe       0.54473    0.33974    0.77578    1.000
    O835     O        0.51755    0.33136    0.81973    1.000
    C955     C        0.41019    0.36198    0.86585    1.000
    C956     C        0.44575    0.34674    0.86077    1.000
    C957     C        0.57095    0.23608    0.95690    1.000
    C958     C        0.53419    0.27506    0.91569    1.000
    C959     C        0.51919    0.29562    0.88957    1.000
    Fe135    Fe       0.63781    0.43254    0.49712    1.000
    Fe136    Fe       0.77578    0.33974    0.54473    1.000
    O836     O        0.81973    0.33136    0.51755    1.000
    C960     C        0.86585    0.36198    0.41019    1.000
    C961     C        0.86077    0.34674    0.44575    1.000
    C962     C        0.95690    0.23608    0.57095    1.000
    C963     C        0.91569    0.27506    0.53419    1.000
    C964     C        0.88957    0.29562    0.51919    1.000
    Fe137    Fe       0.63781    0.43254    0.43254    1.000
    Fe138    Fe       0.77578    0.33974    0.33974    1.000
    O837     O        0.81973    0.33136    0.33136    1.000
    C965     C        0.86585    0.36198    0.36198    1.000
    C966     C        0.86077    0.34674    0.34674    1.000
    C967     C        0.95690    0.23608    0.23608    1.000
    C968     C        0.91569    0.27506    0.27506    1.000
    C969     C        0.88957    0.29562    0.29562    1.000
    Fe139    Fe       0.49712    0.43254    0.43254    1.000
    Fe140    Fe       0.54473    0.33974    0.33974    1.000
    O838     O        0.51755    0.33136    0.33136    1.000
    C970     C        0.41019    0.36198    0.36198    1.000
    C971     C        0.44575    0.34674    0.34674    1.000
    C972     C        0.57095    0.23608    0.23608    1.000
    C973     C        0.53419    0.27506    0.27506    1.000
    C974     C        0.51919    0.29562    0.29562    1.000
    Fe141    Fe       0.43254    0.49712    0.63781    1.000
    Fe142    Fe       0.33974    0.54473    0.77578    1.000
    O839     O        0.33136    0.51755    0.81973    1.000
    C975     C        0.36198    0.41019    0.86585    1.000
    C976     C        0.34674    0.44575    0.86077    1.000
    C977     C        0.23608    0.57095    0.95690    1.000
    C978     C        0.27506    0.53419    0.91569    1.000
    C979     C        0.29562    0.51919    0.88957    1.000
    Fe143    Fe       0.43254    0.63781    0.49712    1.000
    Fe144    Fe       0.33974    0.77578    0.54473    1.000
    O840     O        0.33136    0.81973    0.51755    1.000
    C980     C        0.36198    0.86585    0.41019    1.000
    C981     C        0.34674    0.86077    0.44575    1.000
    C982     C        0.23608    0.95690    0.57095    1.000
    C983     C        0.27506    0.91569    0.53419    1.000
    C984     C        0.29562    0.88957    0.51919    1.000
    C985     C        0.43198    0.51002    0.02900    1.000
    C986     C        0.39576    0.52884    0.03770    1.000
    C987     C        0.33106    0.57012    0.04941    1.000
    C988     C        0.51002    0.43198    0.02900    1.000
    C989     C        0.52884    0.39576    0.03770    1.000
    C990     C        0.57012    0.33106    0.04941    1.000
    C991     C        0.02900    0.02900    0.43198    1.000
    C992     C        0.03770    0.03770    0.39576    1.000
    C993     C        0.04941    0.04941    0.33106    1.000
    C994     C        0.02900    0.02900    0.51002    1.000
    C995     C        0.03770    0.03770    0.52884    1.000
    C996     C        0.04941    0.04941    0.57012    1.000
    C997     C        0.02900    0.43198    0.51002    1.000
    C998     C        0.03770    0.39576    0.52884    1.000
    C999     C        0.04941    0.33106    0.57012    1.000
    C1000    C        0.02900    0.51002    0.43198    1.000
    C1001    C        0.03770    0.52884    0.39576    1.000
    C1002    C        0.04941    0.57012    0.33106    1.000
    C1003    C        0.43198    0.02900    0.02900    1.000
    C1004    C        0.39576    0.03770    0.03770    1.000
    C1005    C        0.33106    0.04941    0.04941    1.000
    C1006    C        0.51002    0.02900    0.02900    1.000
    C1007    C        0.52884    0.03770    0.03770    1.000
    C1008    C        0.57012    0.04941    0.04941    1.000
    C1009    C        0.51002    0.02900    0.43198    1.000
    C1010    C        0.52884    0.03770    0.39576    1.000
    C1011    C        0.57012    0.04941    0.33106    1.000
    C1012    C        0.43198    0.02900    0.51002    1.000
    C1013    C        0.39576    0.03770    0.52884    1.000
    C1014    C        0.33106    0.04941    0.57012    1.000
    C1015    C        0.02900    0.43198    0.02900    1.000
    C1016    C        0.03770    0.39576    0.03770    1.000
    C1017    C        0.04941    0.33106    0.04941    1.000
    C1018    C        0.02900    0.51002    0.02900    1.000
    C1019    C        0.03770    0.52884    0.03770    1.000
    C1020    C        0.04941    0.57012    0.04941    1.000
    C1021    C        0.81802    0.73998    0.22100    1.000
    C1022    C        0.85424    0.72116    0.21230    1.000
    C1023    C        0.91894    0.67988    0.20059    1.000
    C1024    C        0.73998    0.81802    0.22100    1.000
    C1025    C        0.72116    0.85424    0.21230    1.000
    C1026    C        0.67988    0.91894    0.20059    1.000
    C1027    C        0.22100    0.22100    0.73998    1.000
    C1028    C        0.21230    0.21230    0.72116    1.000
    C1029    C        0.20059    0.20059    0.67988    1.000
    C1030    C        0.22100    0.22100    0.81802    1.000
    C1031    C        0.21230    0.21230    0.85424    1.000
    C1032    C        0.20059    0.20059    0.91894    1.000
    C1033    C        0.22100    0.81802    0.22100    1.000
    C1034    C        0.21230    0.85424    0.21230    1.000
    C1035    C        0.20059    0.91894    0.20059    1.000
    C1036    C        0.22100    0.73998    0.22100    1.000
    C1037    C        0.21230    0.72116    0.21230    1.000
    C1038    C        0.20059    0.67988    0.20059    1.000
    C1039    C        0.81802    0.22100    0.73998    1.000
    C1040    C        0.85424    0.21230    0.72116    1.000
    C1041    C        0.91894    0.20059    0.67988    1.000
    C1042    C        0.73998    0.22100    0.81802    1.000
    C1043    C        0.72116    0.21230    0.85424    1.000
    C1044    C        0.67988    0.20059    0.91894    1.000
    C1045    C        0.73998    0.22100    0.22100    1.000
    C1046    C        0.72116    0.21230    0.21230    1.000
    C1047    C        0.67988    0.20059    0.20059    1.000
    C1048    C        0.81802    0.22100    0.22100    1.000
    C1049    C        0.85424    0.21230    0.21230    1.000
    C1050    C        0.91894    0.20059    0.20059    1.000
    C1051    C        0.22100    0.81802    0.73998    1.000
    C1052    C        0.21230    0.85424    0.72116    1.000
    C1053    C        0.20059    0.91894    0.67988    1.000
    C1054    C        0.22100    0.73998    0.81802    1.000
    C1055    C        0.21230    0.72116    0.85424    1.000
    C1056    C        0.20059    0.67988    0.91894    1.000
    Fe145    Fe       0.53058    0.53058    0.96942    1.000
    O841     O        0.50411    0.50411    0.99589    1.000
    Fe146    Fe       0.96942    0.96942    0.53058    1.000
    O842     O        0.99589    0.99589    0.50411    1.000
    Fe147    Fe       0.96942    0.53058    0.53058    1.000
    O843     O        0.99589    0.50411    0.50411    1.000
    Fe148    Fe       0.53058    0.96942    0.96942    1.000
    O844     O        0.50411    0.99589    0.99589    1.000
    Fe149    Fe       0.53058    0.96942    0.53058    1.000
    O845     O        0.50411    0.99589    0.50411    1.000
    Fe150    Fe       0.96942    0.53058    0.96942    1.000
    O846     O        0.99589    0.50411    0.99589    1.000
    Fe151    Fe       0.71942    0.71942    0.28058    1.000
    O847     O        0.74589    0.74589    0.25411    1.000
    Fe152    Fe       0.28058    0.28058    0.71942    1.000
    O848     O        0.25411    0.25411    0.74589    1.000
    Fe153    Fe       0.28058    0.71942    0.28058    1.000
    O849     O        0.25411    0.74589    0.25411    1.000
    Fe154    Fe       0.71942    0.28058    0.71942    1.000
    O850     O        0.74589    0.25411    0.74589    1.000
    Fe155    Fe       0.71942    0.28058    0.28058    1.000
    O851     O        0.74589    0.25411    0.25411    1.000
    Fe156    Fe       0.28058    0.71942    0.71942    1.000
    O852     O        0.25411    0.74589    0.74589    1.000
    Fe157    Fe       0.49086    0.49086    0.97698    1.000
    C1057    C        0.70338    0.70338    0.75018    1.000
    Fe158    Fe       0.49086    0.49086    0.04130    1.000
    C1058    C        0.70338    0.70338    0.84306    1.000
    Fe159    Fe       0.97698    0.04130    0.49086    1.000
    C1059    C        0.75018    0.84306    0.70338    1.000
    Fe160    Fe       0.04130    0.97698    0.49086    1.000
    C1060    C        0.84306    0.75018    0.70338    1.000
    Fe161    Fe       0.97698    0.49086    0.49086    1.000
    C1061    C        0.75018    0.70338    0.70338    1.000
    Fe162    Fe       0.04130    0.49086    0.49086    1.000
    C1062    C        0.84306    0.70338    0.70338    1.000
    Fe163    Fe       0.49086    0.97698    0.04130    1.000
    C1063    C        0.70338    0.75018    0.84306    1.000
    Fe164    Fe       0.49086    0.04130    0.97698    1.000
    C1064    C        0.70338    0.84306    0.75018    1.000
    Fe165    Fe       0.49086    0.97698    0.49086    1.000
    C1065    C        0.70338    0.75018    0.70338    1.000
    Fe166    Fe       0.49086    0.04130    0.49086    1.000
    C1066    C        0.70338    0.84306    0.70338    1.000
    Fe167    Fe       0.04130    0.49086    0.97698    1.000
    C1067    C        0.84306    0.70338    0.75018    1.000
    Fe168    Fe       0.97698    0.49086    0.04130    1.000
    C1068    C        0.75018    0.70338    0.84306    1.000
    Fe169    Fe       0.75914    0.75914    0.20870    1.000
    C1069    C        0.54662    0.54662    0.40694    1.000
    Fe170    Fe       0.75914    0.75914    0.27302    1.000
    C1070    C        0.54662    0.54662    0.49982    1.000
    Fe171    Fe       0.27302    0.20870    0.75914    1.000
    C1071    C        0.49982    0.40694    0.54662    1.000
    Fe172    Fe       0.20870    0.27302    0.75914    1.000
    C1072    C        0.40694    0.49982    0.54662    1.000
    Fe173    Fe       0.27302    0.75914    0.20870    1.000
    C1073    C        0.49982    0.54662    0.40694    1.000
    Fe174    Fe       0.20870    0.75914    0.27302    1.000
    C1074    C        0.40694    0.54662    0.49982    1.000
    Fe175    Fe       0.75914    0.27302    0.75914    1.000
    C1075    C        0.54662    0.49982    0.54662    1.000
    Fe176    Fe       0.75914    0.20870    0.75914    1.000
    C1076    C        0.54662    0.40694    0.54662    1.000
    Fe177    Fe       0.75914    0.27302    0.20870    1.000
    C1077    C        0.54662    0.49982    0.40694    1.000
    Fe178    Fe       0.75914    0.20870    0.27302    1.000
    C1078    C        0.54662    0.40694    0.49982    1.000
    Fe179    Fe       0.20870    0.75914    0.75914    1.000
    C1079    C        0.40694    0.54662    0.54662    1.000
    Fe180    Fe       0.27302    0.75914    0.75914    1.000
    C1080    C        0.49982    0.54662    0.54662    1.000
    Fe181    Fe       0.27736    0.62500    0.97264    1.000
    O853     O        0.31454    0.62500    0.93546    1.000
    Fe182    Fe       0.62500    0.27736    0.12500    1.000
    O854     O        0.62500    0.31454    0.12500    1.000
    Fe183    Fe       0.97264    0.12500    0.27736    1.000
    O855     O        0.93546    0.12500    0.31454    1.000
    Fe184    Fe       0.12500    0.97264    0.62500    1.000
    O856     O        0.12500    0.93546    0.62500    1.000
    Fe185    Fe       0.97264    0.27736    0.62500    1.000
    O857     O        0.93546    0.31454    0.62500    1.000
    Fe186    Fe       0.12500    0.62500    0.27736    1.000
    O858     O        0.12500    0.62500    0.31454    1.000
    Fe187    Fe       0.27736    0.97264    0.12500    1.000
    O859     O        0.31454    0.93546    0.12500    1.000
    Fe188    Fe       0.62500    0.12500    0.97264    1.000
    O860     O        0.62500    0.12500    0.93546    1.000
    Fe189    Fe       0.62500    0.97264    0.27736    1.000
    O861     O        0.62500    0.93546    0.31454    1.000
    Fe190    Fe       0.27736    0.12500    0.62500    1.000
    O862     O        0.31454    0.12500    0.62500    1.000
    Fe191    Fe       0.12500    0.27736    0.97264    1.000
    O863     O        0.12500    0.31454    0.93546    1.000
    Fe192    Fe       0.97264    0.62500    0.12500    1.000
    O864     O        0.93546    0.62500    0.12500    1.000
    Fe193    Fe       0.97264    0.62500    0.27736    1.000
    O865     O        0.93546    0.62500    0.31454    1.000
    Fe194    Fe       0.62500    0.97264    0.12500    1.000
    O866     O        0.62500    0.93546    0.12500    1.000
    Fe195    Fe       0.27736    0.12500    0.97264    1.000
    O867     O        0.31454    0.12500    0.93546    1.000
    Fe196    Fe       0.12500    0.27736    0.62500    1.000
    O868     O        0.12500    0.31454    0.62500    1.000
    Fe197    Fe       0.27736    0.97264    0.62500    1.000
    O869     O        0.31454    0.93546    0.62500    1.000
    Fe198    Fe       0.12500    0.62500    0.97264    1.000
    O870     O        0.12500    0.62500    0.93546    1.000
    Fe199    Fe       0.97264    0.27736    0.12500    1.000
    O871     O        0.93546    0.31454    0.12500    1.000
    Fe200    Fe       0.62500    0.12500    0.27736    1.000
    O872     O        0.62500    0.12500    0.31454    1.000
    Fe201    Fe       0.62500    0.27736    0.97264    1.000
    O873     O        0.62500    0.31454    0.93546    1.000
    Fe202    Fe       0.97264    0.12500    0.62500    1.000
    O874     O        0.93546    0.12500    0.62500    1.000
    Fe203    Fe       0.12500    0.97264    0.27736    1.000
    O875     O        0.12500    0.93546    0.31454    1.000
    Fe204    Fe       0.27736    0.62500    0.12500    1.000
    O876     O        0.31454    0.62500    0.12500    1.000
    O877     O        0.79594    0.61218    0.79594    1.000
    O878     O        0.61218    0.79594    0.79594    1.000
    O879     O        0.79594    0.79594    0.79594    1.000
    O880     O        0.79594    0.79594    0.61218    1.000
    O881     O        0.45406    0.63782    0.45406    1.000
    O882     O        0.63782    0.45406    0.45406    1.000
    O883     O        0.45406    0.45406    0.63782    1.000
    O884     O        0.45406    0.45406    0.45406    1.000
    C1081    C        0.85632    0.38400    0.85632    1.000
    C1082    C        0.78315    0.56767    0.78315    1.000
    C1083    C        0.78495    0.53705    0.78495    1.000
    C1084    C        0.79543    0.47409    0.79543    1.000
    C1085    C        0.38400    0.85632    0.90335    1.000
    C1086    C        0.56767    0.78315    0.86604    1.000
    C1087    C        0.53705    0.78495    0.89304    1.000
    C1088    C        0.47409    0.79543    0.93505    1.000
    C1089    C        0.85632    0.90335    0.85632    1.000
    C1090    C        0.78315    0.86604    0.78315    1.000
    C1091    C        0.78495    0.89304    0.78495    1.000
    C1092    C        0.79543    0.93505    0.79543    1.000
    C1093    C        0.90335    0.85632    0.38400    1.000
    C1094    C        0.86604    0.78315    0.56767    1.000
    C1095    C        0.89304    0.78495    0.53705    1.000
    C1096    C        0.93505    0.79543    0.47409    1.000
    C1097    C        0.85632    0.85632    0.38400    1.000
    C1098    C        0.78315    0.78315    0.56767    1.000
    C1099    C        0.78495    0.78495    0.53705    1.000
    C1100    C        0.79543    0.79543    0.47409    1.000
    C1101    C        0.90335    0.38400    0.85632    1.000
    C1102    C        0.86604    0.56767    0.78315    1.000
    C1103    C        0.89304    0.53705    0.78495    1.000
    C1104    C        0.93505    0.47409    0.79543    1.000
    C1105    C        0.85632    0.85632    0.90335    1.000
    C1106    C        0.78315    0.78315    0.86604    1.000
    C1107    C        0.78495    0.78495    0.89304    1.000
    C1108    C        0.79543    0.79543    0.93505    1.000
    C1109    C        0.38400    0.90335    0.85632    1.000
    C1110    C        0.56767    0.86604    0.78315    1.000
    C1111    C        0.53705    0.89304    0.78495    1.000
    C1112    C        0.47409    0.93505    0.79543    1.000
    C1113    C        0.38400    0.85632    0.85632    1.000
    C1114    C        0.56767    0.78315    0.78315    1.000
    C1115    C        0.53705    0.78495    0.78495    1.000
    C1116    C        0.47409    0.79543    0.79543    1.000
    C1117    C        0.85632    0.90335    0.38400    1.000
    C1118    C        0.78315    0.86604    0.56767    1.000
    C1119    C        0.78495    0.89304    0.53705    1.000
    C1120    C        0.79543    0.93505    0.47409    1.000
    C1121    C        0.90335    0.85632    0.85632    1.000
    C1122    C        0.86604    0.78315    0.78315    1.000
    C1123    C        0.89304    0.78495    0.78495    1.000
    C1124    C        0.93505    0.79543    0.79543    1.000
    C1125    C        0.85632    0.38400    0.90335    1.000
    C1126    C        0.78315    0.56767    0.86604    1.000
    C1127    C        0.78495    0.53705    0.89304    1.000
    C1128    C        0.79543    0.47409    0.93505    1.000
    C1129    C        0.39368    0.86600    0.34665    1.000
    C1130    C        0.46685    0.68233    0.38396    1.000
    C1131    C        0.46505    0.71295    0.35696    1.000
    C1132    C        0.45457    0.77591    0.31495    1.000
    C1133    C        0.86600    0.39368    0.39368    1.000
    C1134    C        0.68233    0.46685    0.46685    1.000
    C1135    C        0.71295    0.46505    0.46505    1.000
    C1136    C        0.77591    0.45457    0.45457    1.000
    C1137    C        0.39368    0.34665    0.86600    1.000
    C1138    C        0.46685    0.38396    0.68233    1.000
    C1139    C        0.46505    0.35696    0.71295    1.000
    C1140    C        0.45457    0.31495    0.77591    1.000
    C1141    C        0.34665    0.39368    0.39368    1.000
    C1142    C        0.38396    0.46685    0.46685    1.000
    C1143    C        0.35696    0.46505    0.46505    1.000
    C1144    C        0.31495    0.45457    0.45457    1.000
    C1145    C        0.39368    0.39368    0.34665    1.000
    C1146    C        0.46685    0.46685    0.38396    1.000
    C1147    C        0.46505    0.46505    0.35696    1.000
    C1148    C        0.45457    0.45457    0.31495    1.000
    C1149    C        0.34665    0.86600    0.39368    1.000
    C1150    C        0.38396    0.68233    0.46685    1.000
    C1151    C        0.35696    0.71295    0.46505    1.000
    C1152    C        0.31495    0.77591    0.45457    1.000
    C1153    C        0.39368    0.39368    0.86600    1.000
    C1154    C        0.46685    0.46685    0.68233    1.000
    C1155    C        0.46505    0.46505    0.71295    1.000
    C1156    C        0.45457    0.45457    0.77591    1.000
    C1157    C        0.86600    0.34665    0.39368    1.000
    C1158    C        0.68233    0.38396    0.46685    1.000
    C1159    C        0.71295    0.35696    0.46505    1.000
    C1160    C        0.77591    0.31495    0.45457    1.000
    C1161    C        0.86600    0.39368    0.34665    1.000
    C1162    C        0.68233    0.46685    0.38396    1.000
    C1163    C        0.71295    0.46505    0.35696    1.000
    C1164    C        0.77591    0.45457    0.31495    1.000
    C1165    C        0.39368    0.34665    0.39368    1.000
    C1166    C        0.46685    0.38396    0.46685    1.000
    C1167    C        0.46505    0.35696    0.46505    1.000
    C1168    C        0.45457    0.31495    0.45457    1.000
    C1169    C        0.34665    0.39368    0.86600    1.000
    C1170    C        0.38396    0.46685    0.68233    1.000
    C1171    C        0.35696    0.46505    0.71295    1.000
    C1172    C        0.31495    0.45457    0.77591    1.000
    C1173    C        0.39368    0.86600    0.39368    1.000
    C1174    C        0.46685    0.68233    0.46685    1.000
    C1175    C        0.46505    0.71295    0.46505    1.000
    C1176    C        0.45457    0.77591    0.45457    1.000
    C1177    C        0.73494    0.68746    0.73494    1.000
    C1178    C        0.75349    0.65678    0.75349    1.000
    C1179    C        0.68746    0.73494    0.84266    1.000
    C1180    C        0.65678    0.75349    0.83623    1.000
    C1181    C        0.73494    0.84266    0.73494    1.000
    C1182    C        0.75349    0.83623    0.75349    1.000
    C1183    C        0.84266    0.73494    0.68746    1.000
    C1184    C        0.83623    0.75349    0.65678    1.000
    C1185    C        0.73494    0.73494    0.68746    1.000
    C1186    C        0.75349    0.75349    0.65678    1.000
    C1187    C        0.84266    0.68746    0.73494    1.000
    C1188    C        0.83623    0.65678    0.75349    1.000
    C1189    C        0.73494    0.73494    0.84266    1.000
    C1190    C        0.75349    0.75349    0.83623    1.000
    C1191    C        0.68746    0.84266    0.73494    1.000
    C1192    C        0.65678    0.83623    0.75349    1.000
    C1193    C        0.68746    0.73494    0.73494    1.000
    C1194    C        0.65678    0.75349    0.75349    1.000
    C1195    C        0.73494    0.84266    0.68746    1.000
    C1196    C        0.75349    0.83623    0.65678    1.000
    C1197    C        0.84266    0.73494    0.73494    1.000
    C1198    C        0.83623    0.75349    0.75349    1.000
    C1199    C        0.73494    0.68746    0.84266    1.000
    C1200    C        0.75349    0.65678    0.83623    1.000
    C1201    C        0.51506    0.56254    0.40734    1.000
    C1202    C        0.49651    0.59322    0.41377    1.000
    C1203    C        0.56254    0.51506    0.51506    1.000
    C1204    C        0.59322    0.49651    0.49651    1.000
    C1205    C        0.51506    0.40734    0.56254    1.000
    C1206    C        0.49651    0.41377    0.59322    1.000
    C1207    C        0.40734    0.51506    0.51506    1.000
    C1208    C        0.41377    0.49651    0.49651    1.000
    C1209    C        0.51506    0.51506    0.40734    1.000
    C1210    C        0.49651    0.49651    0.41377    1.000
    C1211    C        0.40734    0.56254    0.51506    1.000
    C1212    C        0.41377    0.59322    0.49651    1.000
    C1213    C        0.51506    0.51506    0.56254    1.000
    C1214    C        0.49651    0.49651    0.59322    1.000
    C1215    C        0.56254    0.40734    0.51506    1.000
    C1216    C        0.59322    0.41377    0.49651    1.000
    C1217    C        0.56254    0.51506    0.40734    1.000
    C1218    C        0.59322    0.49651    0.41377    1.000
    C1219    C        0.51506    0.40734    0.51506    1.000
    C1220    C        0.49651    0.41377    0.49651    1.000
    C1221    C        0.40734    0.51506    0.56254    1.000
    C1222    C        0.41377    0.49651    0.59322    1.000
    C1223    C        0.51506    0.56254    0.51506    1.000
    C1224    C        0.49651    0.59322    0.49651    1.000
    H1       H        0.39138    0.53276    0.99640    1.000
    H2       H        0.74478    0.53281    0.82747    1.000
    H3       H        0.67125    0.40270    0.88953    1.000
    H4       H        0.56977    0.43236    0.92626    1.000
    H5       H        0.61801    0.48631    0.91592    1.000
    H6       H        0.71267    0.33223    0.01888    1.000
    H7       H        0.53276    0.39138    0.07947    1.000
    H8       H        0.53281    0.74478    0.89494    1.000
    H9       H        0.40270    0.67125    0.03652    1.000
    H10      H        0.43236    0.56977    0.07160    1.000
    H11      H        0.48631    0.61801    0.97976    1.000
    H12      H        0.33223    0.71267    0.93622    1.000
    H13      H        0.99640    0.07947    0.39138    1.000
    H14      H        0.82747    0.89494    0.74478    1.000
    H15      H        0.88953    0.03652    0.67125    1.000
    H16      H        0.92626    0.07160    0.56977    1.000
    H17      H        0.91592    0.97976    0.61801    1.000
    H18      H        0.01888    0.93622    0.71267    1.000
    H19      H        0.07947    0.99640    0.53276    1.000
    H20      H        0.89494    0.82747    0.53281    1.000
    H21      H        0.03652    0.88953    0.40270    1.000
    H22      H        0.07160    0.92626    0.43236    1.000
    H23      H        0.97976    0.91592    0.48631    1.000
    H24      H        0.93622    0.01888    0.33223    1.000
    H25      H        0.99640    0.39138    0.53276    1.000
    H26      H        0.82747    0.74478    0.53281    1.000
    H27      H        0.88953    0.67125    0.40270    1.000
    H28      H        0.92626    0.56977    0.43236    1.000
    H29      H        0.91592    0.61801    0.48631    1.000
    H30      H        0.01888    0.71267    0.33223    1.000
    H31      H        0.07947    0.53276    0.39138    1.000
    H32      H        0.89494    0.53281    0.74478    1.000
    H33      H        0.03652    0.40270    0.67125    1.000
    H34      H        0.07160    0.43236    0.56977    1.000
    H35      H        0.97976    0.48631    0.61801    1.000
    H36      H        0.93622    0.33223    0.71267    1.000
    H37      H        0.39138    0.99640    0.07947    1.000
    H38      H        0.74478    0.82747    0.89494    1.000
    H39      H        0.67125    0.88953    0.03652    1.000
    H40      H        0.56977    0.92626    0.07160    1.000
    H41      H        0.61801    0.91592    0.97976    1.000
    H42      H        0.71267    0.01888    0.93622    1.000
    H43      H        0.53276    0.07947    0.99640    1.000
    H44      H        0.53281    0.89494    0.82747    1.000
    H45      H        0.40270    0.03652    0.88953    1.000
    H46      H        0.43236    0.07160    0.92626    1.000
    H47      H        0.48631    0.97976    0.91592    1.000
    H48      H        0.33223    0.93622    0.01888    1.000
    H49      H        0.53276    0.99640    0.39138    1.000
    H50      H        0.53281    0.82747    0.74478    1.000
    H51      H        0.40270    0.88953    0.67125    1.000
    H52      H        0.43236    0.92626    0.56977    1.000
    H53      H        0.48631    0.91592    0.61801    1.000
    H54      H        0.33223    0.01888    0.71267    1.000
    H55      H        0.39138    0.07947    0.53276    1.000
    H56      H        0.74478    0.89494    0.53281    1.000
    H57      H        0.67125    0.03652    0.40270    1.000
    H58      H        0.56977    0.07160    0.43236    1.000
    H59      H        0.61801    0.97976    0.48631    1.000
    H60      H        0.71267    0.93622    0.33223    1.000
    H61      H        0.07947    0.39138    0.99640    1.000
    H62      H        0.89494    0.74478    0.82747    1.000
    H63      H        0.03652    0.67125    0.88953    1.000
    H64      H        0.07160    0.56977    0.92626    1.000
    H65      H        0.97976    0.61801    0.91592    1.000
    H66      H        0.93622    0.71267    0.01888    1.000
    H67      H        0.99640    0.53276    0.07947    1.000
    H68      H        0.82747    0.53281    0.89494    1.000
    H69      H        0.88953    0.40270    0.03652    1.000
    H70      H        0.92626    0.43236    0.07160    1.000
    H71      H        0.91592    0.48631    0.97976    1.000
    H72      H        0.01888    0.33223    0.93622    1.000
    H73      H        0.85862    0.71724    0.17053    1.000
    H74      H        0.50522    0.71719    0.35506    1.000
    H75      H        0.57875    0.84730    0.21348    1.000
    H76      H        0.68023    0.81764    0.17840    1.000
    H77      H        0.63199    0.76369    0.27024    1.000
    H78      H        0.53733    0.91777    0.31378    1.000
    H79      H        0.71724    0.85862    0.25360    1.000
    H80      H        0.71719    0.50522    0.42253    1.000
    H81      H        0.84730    0.57875    0.36047    1.000
    H82      H        0.81764    0.68023    0.32374    1.000
    H83      H        0.76369    0.63199    0.33408    1.000
    H84      H        0.91777    0.53733    0.23112    1.000
    H85      H        0.25360    0.17053    0.71724    1.000
    H86      H        0.42253    0.35506    0.71719    1.000
    H87      H        0.36047    0.21348    0.84730    1.000
    H88      H        0.32374    0.17840    0.81764    1.000
    H89      H        0.33408    0.27024    0.76369    1.000
    H90      H        0.23112    0.31378    0.91777    1.000
    H91      H        0.17053    0.25360    0.85862    1.000
    H92      H        0.35506    0.42253    0.50522    1.000
    H93      H        0.21348    0.36047    0.57875    1.000
    H94      H        0.17840    0.32374    0.68023    1.000
    H95      H        0.27024    0.33408    0.63199    1.000
    H96      H        0.31378    0.23112    0.53733    1.000
    H97      H        0.25360    0.85862    0.17053    1.000
    H98      H        0.42253    0.50522    0.35506    1.000
    H99      H        0.36047    0.57875    0.21348    1.000
    H100     H        0.32374    0.68023    0.17840    1.000
    H101     H        0.33408    0.63199    0.27024    1.000
    H102     H        0.23112    0.53733    0.31378    1.000
    H103     H        0.17053    0.71724    0.25360    1.000
    H104     H        0.35506    0.71719    0.42253    1.000
    H105     H        0.21348    0.84730    0.36047    1.000
    H106     H        0.17840    0.81764    0.32374    1.000
    H107     H        0.27024    0.76369    0.33408    1.000
    H108     H        0.31378    0.91777    0.23112    1.000
    H109     H        0.85862    0.25360    0.71724    1.000
    H110     H        0.50522    0.42253    0.71719    1.000
    H111     H        0.57875    0.36047    0.84730    1.000
    H112     H        0.68023    0.32374    0.81764    1.000
    H113     H        0.63199    0.33408    0.76369    1.000
    H114     H        0.53733    0.23112    0.91777    1.000
    H115     H        0.71724    0.17053    0.85862    1.000
    H116     H        0.71719    0.35506    0.50522    1.000
    H117     H        0.84730    0.21348    0.57875    1.000
    H118     H        0.81764    0.17840    0.68023    1.000
    H119     H        0.76369    0.27024    0.63199    1.000
    H120     H        0.91777    0.31378    0.53733    1.000
    H121     H        0.71724    0.25360    0.17053    1.000
    H122     H        0.71719    0.42253    0.35506    1.000
    H123     H        0.84730    0.36047    0.21348    1.000
    H124     H        0.81764    0.32374    0.17840    1.000
    H125     H        0.76369    0.33408    0.27024    1.000
    H126     H        0.91777    0.23112    0.31378    1.000
    H127     H        0.85862    0.17053    0.25360    1.000
    H128     H        0.50522    0.35506    0.42253    1.000
    H129     H        0.57875    0.21348    0.36047    1.000
    H130     H        0.68023    0.17840    0.32374    1.000
    H131     H        0.63199    0.27024    0.33408    1.000
    H132     H        0.53733    0.31378    0.23112    1.000
    H133     H        0.17053    0.85862    0.71724    1.000
    H134     H        0.35506    0.50522    0.71719    1.000
    H135     H        0.21348    0.57875    0.84730    1.000
    H136     H        0.17840    0.68023    0.81764    1.000
    H137     H        0.27024    0.63199    0.76369    1.000
    H138     H        0.31378    0.53733    0.91777    1.000
    H139     H        0.25360    0.71724    0.85862    1.000
    H140     H        0.42253    0.71719    0.50522    1.000
    H141     H        0.36047    0.84730    0.57875    1.000
    H142     H        0.32374    0.81764    0.68023    1.000
    H143     H        0.33408    0.76369    0.63199    1.000
    H144     H        0.23112    0.91777    0.53733    1.000
    H145     H        0.85862    0.71724    0.25360    1.000
    H146     H        0.50522    0.71719    0.42253    1.000
    H147     H        0.57875    0.84730    0.36047    1.000
    H148     H        0.68023    0.81764    0.32374    1.000
    H149     H        0.63199    0.76369    0.33408    1.000
    H150     H        0.53733    0.91777    0.23112    1.000
    H151     H        0.71724    0.85862    0.17053    1.000
    H152     H        0.71719    0.50522    0.35506    1.000
    H153     H        0.84730    0.57875    0.21348    1.000
    H154     H        0.81764    0.68023    0.17840    1.000
    H155     H        0.76369    0.63199    0.27024    1.000
    H156     H        0.91777    0.53733    0.31378    1.000
    H157     H        0.25360    0.17053    0.85862    1.000
    H158     H        0.42253    0.35506    0.50522    1.000
    H159     H        0.36047    0.21348    0.57875    1.000
    H160     H        0.32374    0.17840    0.68023    1.000
    H161     H        0.33408    0.27024    0.63199    1.000
    H162     H        0.23112    0.31378    0.53733    1.000
    H163     H        0.17053    0.25360    0.71724    1.000
    H164     H        0.35506    0.42253    0.71719    1.000
    H165     H        0.21348    0.36047    0.84730    1.000
    H166     H        0.17840    0.32374    0.81764    1.000
    H167     H        0.27024    0.33408    0.76369    1.000
    H168     H        0.31378    0.23112    0.91777    1.000
    H169     H        0.25360    0.85862    0.71724    1.000
    H170     H        0.42253    0.50522    0.71719    1.000
    H171     H        0.36047    0.57875    0.84730    1.000
    H172     H        0.32374    0.68023    0.81764    1.000
    H173     H        0.33408    0.63199    0.76369    1.000
    H174     H        0.23112    0.53733    0.91777    1.000
    H175     H        0.17053    0.71724    0.85862    1.000
    H176     H        0.35506    0.71719    0.50522    1.000
    H177     H        0.21348    0.84730    0.57875    1.000
    H178     H        0.17840    0.81764    0.68023    1.000
    H179     H        0.27024    0.76369    0.63199    1.000
    H180     H        0.31378    0.91777    0.53733    1.000
    H181     H        0.85862    0.25360    0.17053    1.000
    H182     H        0.50522    0.42253    0.35506    1.000
    H183     H        0.57875    0.36047    0.21348    1.000
    H184     H        0.68023    0.32374    0.17840    1.000
    H185     H        0.63199    0.33408    0.27024    1.000
    H186     H        0.53733    0.23112    0.31378    1.000
    H187     H        0.71724    0.17053    0.25360    1.000
    H188     H        0.71719    0.35506    0.42253    1.000
    H189     H        0.84730    0.21348    0.36047    1.000
    H190     H        0.81764    0.17840    0.32374    1.000
    H191     H        0.76369    0.27024    0.33408    1.000
    H192     H        0.91777    0.31378    0.23112    1.000
    H193     H        0.71724    0.25360    0.85862    1.000
    H194     H        0.71719    0.42253    0.50522    1.000
    H195     H        0.84730    0.36047    0.57875    1.000
    H196     H        0.81764    0.32374    0.68023    1.000
    H197     H        0.76369    0.33408    0.63199    1.000
    H198     H        0.91777    0.23112    0.53733    1.000
    H199     H        0.85862    0.17053    0.71724    1.000
    H200     H        0.50522    0.35506    0.71719    1.000
    H201     H        0.57875    0.21348    0.84730    1.000
    H202     H        0.68023    0.17840    0.81764    1.000
    H203     H        0.63199    0.27024    0.76369    1.000
    H204     H        0.53733    0.31378    0.91777    1.000
    H205     H        0.17053    0.85862    0.25360    1.000
    H206     H        0.35506    0.50522    0.42253    1.000
    H207     H        0.21348    0.57875    0.36047    1.000
    H208     H        0.17840    0.68023    0.32374    1.000
    H209     H        0.27024    0.63199    0.33408    1.000
    H210     H        0.31378    0.53733    0.23112    1.000
    H211     H        0.25360    0.71724    0.17053    1.000
    H212     H        0.42253    0.71719    0.35506    1.000
    H213     H        0.36047    0.84730    0.21348    1.000
    H214     H        0.32374    0.81764    0.17840    1.000
    H215     H        0.33408    0.76369    0.27024    1.000
    H216     H        0.23112    0.91777    0.31378    1.000
    H217     H        0.39138    0.53276    0.07947    1.000
    H218     H        0.74478    0.53281    0.89494    1.000
    H219     H        0.67125    0.40270    0.03652    1.000
    H220     H        0.56977    0.43236    0.07160    1.000
    H221     H        0.61801    0.48631    0.97976    1.000
    H222     H        0.71267    0.33223    0.93622    1.000
    H223     H        0.53276    0.39138    0.99640    1.000
    H224     H        0.53281    0.74478    0.82747    1.000
    H225     H        0.40270    0.67125    0.88953    1.000
    H226     H        0.43236    0.56977    0.92626    1.000
    H227     H        0.48631    0.61801    0.91592    1.000
    H228     H        0.33223    0.71267    0.01888    1.000
    H229     H        0.99640    0.07947    0.53276    1.000
    H230     H        0.82747    0.89494    0.53281    1.000
    H231     H        0.88953    0.03652    0.40270    1.000
    H232     H        0.92626    0.07160    0.43236    1.000
    H233     H        0.91592    0.97976    0.48631    1.000
    H234     H        0.01888    0.93622    0.33223    1.000
    H235     H        0.07947    0.99640    0.39138    1.000
    H236     H        0.89494    0.82747    0.74478    1.000
    H237     H        0.03652    0.88953    0.67125    1.000
    H238     H        0.07160    0.92626    0.56977    1.000
    H239     H        0.97976    0.91592    0.61801    1.000
    H240     H        0.93622    0.01888    0.71267    1.000
    H241     H        0.99640    0.39138    0.07947    1.000
    H242     H        0.82747    0.74478    0.89494    1.000
    H243     H        0.88953    0.67125    0.03652    1.000
    H244     H        0.92626    0.56977    0.07160    1.000
    H245     H        0.91592    0.61801    0.97976    1.000
    H246     H        0.01888    0.71267    0.93622    1.000
    H247     H        0.07947    0.53276    0.99640    1.000
    H248     H        0.89494    0.53281    0.82747    1.000
    H249     H        0.03652    0.40270    0.88953    1.000
    H250     H        0.07160    0.43236    0.92626    1.000
    H251     H        0.97976    0.48631    0.91592    1.000
    H252     H        0.93622    0.33223    0.01888    1.000
    H253     H        0.39138    0.99640    0.53276    1.000
    H254     H        0.74478    0.82747    0.53281    1.000
    H255     H        0.67125    0.88953    0.40270    1.000
    H256     H        0.56977    0.92626    0.43236    1.000
    H257     H        0.61801    0.91592    0.48631    1.000
    H258     H        0.71267    0.01888    0.33223    1.000
    H259     H        0.53276    0.07947    0.39138    1.000
    H260     H        0.53281    0.89494    0.74478    1.000
    H261     H        0.40270    0.03652    0.67125    1.000
    H262     H        0.43236    0.07160    0.56977    1.000
    H263     H        0.48631    0.97976    0.61801    1.000
    H264     H        0.33223    0.93622    0.71267    1.000
    H265     H        0.53276    0.99640    0.07947    1.000
    H266     H        0.53281    0.82747    0.89494    1.000
    H267     H        0.40270    0.88953    0.03652    1.000
    H268     H        0.43236    0.92626    0.07160    1.000
    H269     H        0.48631    0.91592    0.97976    1.000
    H270     H        0.33223    0.01888    0.93622    1.000
    H271     H        0.39138    0.07947    0.99640    1.000
    H272     H        0.74478    0.89494    0.82747    1.000
    H273     H        0.67125    0.03652    0.88953    1.000
    H274     H        0.56977    0.07160    0.92626    1.000
    H275     H        0.61801    0.97976    0.91592    1.000
    H276     H        0.71267    0.93622    0.01888    1.000
    H277     H        0.07947    0.39138    0.53276    1.000
    H278     H        0.89494    0.74478    0.53281    1.000
    H279     H        0.03652    0.67125    0.40270    1.000
    H280     H        0.07160    0.56977    0.43236    1.000
    H281     H        0.97976    0.61801    0.48631    1.000
    H282     H        0.93622    0.71267    0.33223    1.000
    H283     H        0.99640    0.53276    0.39138    1.000
    H284     H        0.82747    0.53281    0.74478    1.000
    H285     H        0.88953    0.40270    0.67125    1.000
    H286     H        0.92626    0.43236    0.56977    1.000
    H287     H        0.91592    0.48631    0.61801    1.000
    H288     H        0.01888    0.33223    0.71267    1.000
    H289     H        0.66364    0.27900    0.02868    1.000
    H290     H        0.27900    0.66364    0.02868    1.000
    H291     H        0.02868    0.02868    0.66364    1.000
    H292     H        0.02868    0.02868    0.27900    1.000
    H293     H        0.02868    0.66364    0.27900    1.000
    H294     H        0.02868    0.27900    0.66364    1.000
    H295     H        0.66364    0.02868    0.02868    1.000
    H296     H        0.27900    0.02868    0.02868    1.000
    H297     H        0.27900    0.02868    0.66364    1.000
    H298     H        0.66364    0.02868    0.27900    1.000
    H299     H        0.02868    0.66364    0.02868    1.000
    H300     H        0.02868    0.27900    0.02868    1.000
    H301     H        0.58636    0.97100    0.22132    1.000
    H302     H        0.97100    0.58636    0.22132    1.000
    H303     H        0.22132    0.22132    0.97100    1.000
    H304     H        0.22132    0.22132    0.58636    1.000
    H305     H        0.22132    0.58636    0.22132    1.000
    H306     H        0.22132    0.97100    0.22132    1.000
    H307     H        0.58636    0.22132    0.97100    1.000
    H308     H        0.97100    0.22132    0.58636    1.000
    H309     H        0.97100    0.22132    0.22132    1.000
    H310     H        0.58636    0.22132    0.22132    1.000
    H311     H        0.22132    0.58636    0.97100    1.000
    H312     H        0.22132    0.97100    0.58636    1.000
    H313     H        0.30719    0.58672    0.05305    1.000
    H314     H        0.58672    0.30719    0.05305    1.000
    H315     H        0.05305    0.05305    0.30719    1.000
    H316     H        0.05305    0.05305    0.58672    1.000
    H317     H        0.05305    0.30719    0.58672    1.000
    H318     H        0.05305    0.58672    0.30719    1.000
    H319     H        0.30719    0.05305    0.05305    1.000
    H320     H        0.58672    0.05305    0.05305    1.000
    H321     H        0.58672    0.05305    0.30719    1.000
    H322     H        0.30719    0.05305    0.58672    1.000
    H323     H        0.05305    0.30719    0.05305    1.000
    H324     H        0.05305    0.58672    0.05305    1.000
    H325     H        0.94281    0.66328    0.19695    1.000
    H326     H        0.66328    0.94281    0.19695    1.000
    H327     H        0.19695    0.19695    0.66328    1.000
    H328     H        0.19695    0.19695    0.94281    1.000
    H329     H        0.19695    0.94281    0.19695    1.000
    H330     H        0.19695    0.66328    0.19695    1.000
    H331     H        0.94281    0.19695    0.66328    1.000
    H332     H        0.66328    0.19695    0.94281    1.000
    H333     H        0.66328    0.19695    0.19695    1.000
    H334     H        0.94281    0.19695    0.19695    1.000
    H335     H        0.19695    0.94281    0.66328    1.000
    H336     H        0.19695    0.66328    0.94281    1.000
    H337     H        0.69189    0.69189    0.77478    1.000
    H338     H        0.69189    0.69189    0.84144    1.000
    H339     H        0.77478    0.84144    0.69189    1.000
    H340     H        0.84144    0.77478    0.69189    1.000
    H341     H        0.77478    0.69189    0.69189    1.000
    H342     H        0.84144    0.69189    0.69189    1.000
    H343     H        0.69189    0.77478    0.84144    1.000
    H344     H        0.69189    0.84144    0.77478    1.000
    H345     H        0.69189    0.77478    0.69189    1.000
    H346     H        0.69189    0.84144    0.69189    1.000
    H347     H        0.84144    0.69189    0.77478    1.000
    H348     H        0.77478    0.69189    0.84144    1.000
    H349     H        0.55811    0.55811    0.40856    1.000
    H350     H        0.55811    0.55811    0.47522    1.000
    H351     H        0.47522    0.40856    0.55811    1.000
    H352     H        0.40856    0.47522    0.55811    1.000
    H353     H        0.47522    0.55811    0.40856    1.000
    H354     H        0.40856    0.55811    0.47522    1.000
    H355     H        0.55811    0.47522    0.55811    1.000
    H356     H        0.55811    0.40856    0.55811    1.000
    H357     H        0.55811    0.47522    0.40856    1.000
    H358     H        0.55811    0.40856    0.47522    1.000
    H359     H        0.40856    0.55811    0.55811    1.000
    H360     H        0.47522    0.55811    0.55811    1.000
    H361     H        0.84382    0.38541    0.84382    1.000
    H362     H        0.80050    0.44940    0.80050    1.000
    H363     H        0.38541    0.84382    0.92695    1.000
    H364     H        0.44940    0.80050    0.94959    1.000
    H365     H        0.84382    0.92695    0.84382    1.000
    H366     H        0.80050    0.94959    0.80050    1.000
    H367     H        0.92695    0.84382    0.38541    1.000
    H368     H        0.94959    0.80050    0.44940    1.000
    H369     H        0.84382    0.84382    0.38541    1.000
    H370     H        0.80050    0.80050    0.44940    1.000
    H371     H        0.92695    0.38541    0.84382    1.000
    H372     H        0.94959    0.44940    0.80050    1.000
    H373     H        0.84382    0.84382    0.92695    1.000
    H374     H        0.80050    0.80050    0.94959    1.000
    H375     H        0.38541    0.92695    0.84382    1.000
    H376     H        0.44940    0.94959    0.80050    1.000
    H377     H        0.38541    0.84382    0.84382    1.000
    H378     H        0.44940    0.80050    0.80050    1.000
    H379     H        0.84382    0.92695    0.38541    1.000
    H380     H        0.80050    0.94959    0.44940    1.000
    H381     H        0.92695    0.84382    0.84382    1.000
    H382     H        0.94959    0.80050    0.80050    1.000
    H383     H        0.84382    0.38541    0.92695    1.000
    H384     H        0.80050    0.44940    0.94959    1.000
    H385     H        0.40618    0.86459    0.32305    1.000
    H386     H        0.44950    0.80060    0.30041    1.000
    H387     H        0.86459    0.40618    0.40618    1.000
    H388     H        0.80060    0.44950    0.44950    1.000
    H389     H        0.40618    0.32305    0.86459    1.000
    H390     H        0.44950    0.30041    0.80060    1.000
    H391     H        0.32305    0.40618    0.40618    1.000
    H392     H        0.30041    0.44950    0.44950    1.000
    H393     H        0.40618    0.40618    0.32305    1.000
    H394     H        0.44950    0.44950    0.30041    1.000
    H395     H        0.32305    0.86459    0.40618    1.000
    H396     H        0.30041    0.80060    0.44950    1.000
    H397     H        0.40618    0.40618    0.86459    1.000
    H398     H        0.44950    0.44950    0.80060    1.000
    H399     H        0.86459    0.32305    0.40618    1.000
    H400     H        0.80060    0.30041    0.44950    1.000
    H401     H        0.86459    0.40618    0.32305    1.000
    H402     H        0.80060    0.44950    0.30041    1.000
    H403     H        0.40618    0.32305    0.40618    1.000
    H404     H        0.44950    0.30041    0.44950    1.000
    H405     H        0.32305    0.40618    0.86459    1.000
    H406     H        0.30041    0.44950    0.80060    1.000
    H407     H        0.40618    0.86459    0.40618    1.000
    H408     H        0.44950    0.80060    0.44950    1.000
