data_functionalizedCrystal
_audit_creation_method	'EQeq! by Chris Wilmer'
_symmetry_space_group_name_H-M	'P1'
_symmetry_Int_Tables_number	1
_symmetry_cell_setting	triclinic
loop_
_symmetry_equiv_pos_as_xyz
  x,y,z
_cell_length_a	10.0089
_cell_length_b	22.0259
_cell_length_c	11.7311
_cell_angle_alpha	90
_cell_angle_beta	104.961
_cell_angle_gamma	90
loop_
_atom_site_label
_atom_site_type_symbol
_atom_site_fract_x
_atom_site_fract_y
_atom_site_fract_z
_atom_site_charge
Mof_Zn	Zn	0.67262	0.70046	0.05965	1.191
Mof_Zn	Zn	0.26347	0.67444	0.37911	1.21
Mof_Zn	Zn	0.08336	0.67577	0.74963	1.209
Mof_Zn	Zn	0.70648	0.55194	0.19946	1.204
Mof_Zn	Zn	0.60952	0.82486	0.84626	1.17
Mof_C 	C 	0.8834	0.6794	0.9071	0.104
Mof_H 	H 	0.9157	0.6435	0.9464	-0.015
Mof_N 	N 	0.9312	0.7037	0.8195	-0.282
Mof_O 	O 	0.6275	0.6073	0.9771	-0.483
Mof_C 	C 	0.2287	0.7987	0.4256	0.339
Mof_O 	O 	0.3194	0.3594	0.9961	-0.524
Mof_N 	N 	0.0652	0.6553	0.2988	-0.28
Mof_O 	O 	0.1762	0.5715	0.8908	-0.318
Mof_C 	C 	0.9761	0.6915	0.2268	0.111
Mof_H 	H 	0.9944	0.7316	0.2111	-0.019
Mof_O 	O 	0.0291	0.7156	0.5938	-0.551
Mof_N 	N 	0.5581	0.6719	0.1831	-0.214
Mof_N 	N 	0.4722	0.3818	0.6838	-0.008
Mof_O 	O 	0.2702	0.2849	0.8637	-0.478
Mof_C 	C 	0.461	0.6984	0.2258	0.109
Mof_H 	H 	0.4388	0.7395	0.2165	0.003
Mof_O 	O 	0.2519	0.7631	0.3505	-0.451
Mof_N 	N 	0.8713	0.6072	0.2226	-0.247
Mof_O 	O 	0.3576	0.6464	0.5437	-0.437
Mof_N 	N 	0.0748	0.3992	0.4746	-0.003
Mof_O 	O 	0.6235	0.5144	0.0452	-0.46
Mof_O 	O 	0.5199	0.3485	0.7696	-0.125
Mof_C 	C 	0.6033	0.554	0.9654	0.401
Mof_O 	O 	0.0858	0.5915	0.7026	-0.451
Mof_C 	C 	0.2116	0.9903	0.3553	-0.021
Mof_H 	H 	0.2053	0.0317	0.3392	0.056
Mof_N 	N 	0.2706	0.7112	0.8266	-0.285
Mof_N 	N 	0.4583	0.7668	0.855	-0.248
Mof_N 	N 	0.8582	0.6636	0.1805	-0.214
Mof_C 	C 	0.2495	0.9081	0.4904	-0.011
Mof_H 	H 	0.2677	0.8944	0.5679	0.062
Mof_C 	C 	0.2075	0.386	0.8015	-0.076
Mof_C 	C 	0.476	0.4474	0.7094	0.104
Mof_C 	C 	0.1155	0.4147	0.6039	0.091
Mof_C 	C 	0.5335	0.5298	0.8402	-0.043
Mof_C 	C 	0.1381	0.5559	0.7872	0.333
Mof_O 	O 	0.284	0.5646	0.4413	-0.334
Mof_C 	C 	0.5266	0.4684	0.8194	-0.076
Mof_H 	H 	0.5571	0.4414	0.8816	0.106
Mof_N 	N 	0.7663	0.7619	0.8541	-0.248
Mof_C 	C 	0.146	0.4909	0.7511	-0.047
Mof_C 	C 	0.1056	0.4749	0.632	-0.065
Mof_H 	H 	0.0732	0.5038	0.5737	0.094
Mof_N 	N 	0.4782	0.7221	0.9399	-0.224
Mof_C 	C 	0.362	0.6913	0.9203	0.121
Mof_H 	H 	0.3467	0.6593	0.9672	-0.024
Mof_C 	C 	0.2678	0.3388	0.8954	0.428
Mof_N 	N 	0.3995	0.6597	0.2831	-0.276
Mof_C 	C 	0.4186	0.486	0.6145	-0.077
Mof_H 	H 	0.3806	0.4704	0.5395	0.09
Mof_C 	C 	0.1969	0.4462	0.8336	0.015
Mof_H 	H 	0.2249	0.4567	0.913	0.054
Mof_C 	C 	0.1939	0.8856	0.2863	-0.056
Mof_H 	H 	0.1767	0.8582	0.2238	0.086
Mof_N 	N 	0.7846	0.7136	0.9292	-0.22
Mof_C 	C 	0.2268	0.8657	0.4	-0.043
Mof_C 	C 	0.1633	0.3698	0.6855	-0.046
Mof_H 	H 	0.1655	0.3295	0.6623	0.086
Mof_O 	O 	0.0947	0.3473	0.4481	-0.124
Mof_N 	N 	0.555	0.6125	0.2125	-0.236
Mof_O 	O 	0.2969	0.9932	0.6727	-0.414
Mof_C 	C 	0.2463	0.9681	0.4705	-0.023
Mof_O 	O 	0.4307	0.3637	0.5843	-0.131
Mof_O 	O 	0.2376	0.0674	0.5438	-0.3
Mof_C 	C 	0.1868	0.9472	0.2662	0.083
Mof_C 	C 	0.4787	0.5708	0.7474	-0.013
Mof_H 	H 	0.4817	0.6124	0.7612	0.05
Mof_C 	C 	0.2634	0.0154	0.5683	0.275
Mof_C 	C 	0.994	0.6039	0.2935	0.123
Mof_H 	H 	0.0286	0.5692	0.3362	-0.014
Mof_O 	O 	0.217	0.782	0.5258	-0.328
Mof_C 	C 	0.4197	0.5478	0.6346	-0.039
Mof_C 	C 	0.4645	0.607	0.2737	0.116
Mof_H 	H 	0.4464	0.5707	0.3074	-0.025
Mof_O 	O 	0.1332	0.0227	0.1234	-0.154
Mof_N 	N 	0.1442	0.9698	0.1427	0.013
Mof_O 	O 	0.1245	0.9317	0.0656	-0.121
Mof_C 	C 	0.3522	0.589	0.5352	0.295
Mof_O 	O 	0.0241	0.4372	0.4066	-0.131
Mof_C 	C 	0.8591	0.7531	0.792	0.114
Mof_H 	H 	0.8711	0.78	0.7342	-0.023
Mof_O 	O 	0.461	0.9054	0.8287	-0.769
Mof_C 	C 	0.3303	0.7595	0.7897	0.107
Mof_H 	H 	0.2873	0.7843	0.7268	-0.012
Mof_H 	H 	0.046	0.68	0.625	0.026
Mof_H 	H 	0.0909	0.7367	0.5721	0.273
Mof_H 	H 	0.5298	0.8915	0.8827	0.228
Mof_H 	H 	0.461	0.9282	0.7773	0.391
Mof_Zn	Zn	0.32738	0.20046	0.94035	1.191
Mof_Zn	Zn	0.73653	0.17444	0.62089	1.209
Mof_Zn	Zn	0.91664	0.17577	0.25037	1.208
Mof_Zn	Zn	0.29352	0.05194	0.80054	1.198
Mof_Zn	Zn	0.39048	0.32486	0.15374	1.169
Mof_C 	C 	0.1166	0.1794	0.0929	0.104
Mof_H 	H 	0.0843	0.1435	0.0536	-0.016
Mof_N 	N 	0.0688	0.2037	0.1805	-0.282
Mof_O 	O 	0.3725	0.1073	0.0229	-0.49
Mof_C 	C 	0.7713	0.2987	0.5744	0.34
Mof_O 	O 	0.6806	0.8594	0.0039	-0.523
Mof_N 	N 	0.9348	0.1553	0.7012	-0.28
Mof_O 	O 	0.8238	0.0715	0.1092	-0.319
Mof_C 	C 	0.0239	0.1915	0.7732	0.111
Mof_H 	H 	0.0056	0.2316	0.7889	-0.019
Mof_O 	O 	0.9709	0.2156	0.4062	-0.551
Mof_N 	N 	0.4419	0.1719	0.8169	-0.213
Mof_N 	N 	0.5278	0.8818	0.3162	-0.001
Mof_O 	O 	0.7298	0.7849	0.1363	-0.478
Mof_C 	C 	0.539	0.1984	0.7742	0.109
Mof_H 	H 	0.5612	0.2395	0.7835	0.003
Mof_O 	O 	0.7481	0.2631	0.6495	-0.451
Mof_N 	N 	0.1287	0.1072	0.7774	-0.249
Mof_O 	O 	0.6424	0.1464	0.4563	-0.443
Mof_N 	N 	0.9252	0.8992	0.5254	-0
Mof_O 	O 	0.3765	0.0144	0.9548	-0.479
Mof_O 	O 	0.4801	0.8485	0.2304	-0.124
Mof_C 	C 	0.3967	0.054	0.0346	0.423
Mof_O 	O 	0.9142	0.0915	0.2974	-0.45
Mof_C 	C 	0.7884	0.4903	0.6447	-0.07
Mof_H 	H 	0.7947	0.5317	0.6608	0.088
Mof_N 	N 	0.7294	0.2112	0.1734	-0.285
Mof_N 	N 	0.5417	0.2668	0.145	-0.248
Mof_N 	N 	0.1418	0.1636	0.8195	-0.214
Mof_C 	C 	0.7505	0.4081	0.5096	-0.002
Mof_H 	H 	0.7323	0.3944	0.4321	0.057
Mof_C 	C 	0.7925	0.886	0.1985	-0.079
Mof_C 	C 	0.524	0.9474	0.2906	0.054
Mof_C 	C 	0.8845	0.9147	0.3961	0.073
Mof_C 	C 	0.4665	0.0298	0.1598	-0.116
Mof_C 	C 	0.8619	0.0559	0.2128	0.312
Mof_O 	O 	0.716	0.0646	0.5587	-0.348
Mof_C 	C 	0.4734	0.9684	0.1806	0.011
Mof_H 	H 	0.4429	0.9414	0.1184	0.082
Mof_N 	N 	0.2337	0.2619	0.1459	-0.248
Mof_C 	C 	0.854	0.9909	0.2489	-0.038
Mof_C 	C 	0.8944	0.9749	0.368	-0.011
Mof_H 	H 	0.9268	0.0038	0.4263	0.055
Mof_N 	N 	0.5218	0.2221	0.0601	-0.225
Mof_C 	C 	0.638	0.1913	0.0797	0.121
Mof_H 	H 	0.6533	0.1593	0.0328	-0.025
Mof_C 	C 	0.7322	0.8388	0.1046	0.43
Mof_N 	N 	0.6005	0.1597	0.7169	-0.277
Mof_C 	C 	0.5814	0.986	0.3855	0.007
Mof_H 	H 	0.6194	0.9704	0.4605	0.069
Mof_C 	C 	0.8031	0.9462	0.1664	0.015
Mof_H 	H 	0.7751	0.9567	0.087	0.061
Mof_C 	C 	0.8061	0.3856	0.7137	-0.062
Mof_H 	H 	0.8233	0.3582	0.7762	0.088
Mof_N 	N 	0.2154	0.2136	0.0708	-0.22
Mof_C 	C 	0.7732	0.3657	0.6	-0.044
Mof_C 	C 	0.8367	0.8698	0.3145	-0.035
Mof_H 	H 	0.8345	0.8295	0.3377	0.082
Mof_O 	O 	0.9053	0.8473	0.5519	-0.123
Mof_N 	N 	0.445	0.1125	0.7875	-0.238
Mof_O 	O 	0.7031	0.4932	0.3273	-0.454
Mof_C 	C 	0.7537	0.4681	0.5295	-0.044
Mof_O 	O 	0.5693	0.8637	0.4157	-0.13
Mof_O 	O 	0.7624	0.5674	0.4562	-0.313
Mof_C 	C 	0.8132	0.4472	0.7338	0.097
Mof_C 	C 	0.5213	0.0708	0.2526	0.041
Mof_H 	H 	0.5183	0.1124	0.2388	0.031
Mof_C 	C 	0.7366	0.5154	0.4317	0.335
Mof_C 	C 	0.006	0.1039	0.7065	0.124
Mof_H 	H 	0.9714	0.0692	0.6638	-0.018
Mof_O 	O 	0.783	0.282	0.4742	-0.328
Mof_C 	C 	0.5803	0.0478	0.3654	-0.111
Mof_C 	C 	0.5355	0.107	0.7263	0.116
Mof_H 	H 	0.5536	0.0707	0.6926	-0.031
Mof_O 	O 	0.8668	0.5227	0.8766	-0.132
Mof_N 	N 	0.8558	0.4698	0.8573	-0.005
Mof_O 	O 	0.8755	0.4317	0.9344	-0.126
Mof_C 	C 	0.6478	0.089	0.4648	0.318
Mof_O 	O 	0.9759	0.9372	0.5934	-0.12
Mof_C 	C 	0.1409	0.2531	0.208	0.113
Mof_H 	H 	0.1289	0.28	0.2658	-0.024
Mof_O 	O 	0.539	0.4054	0.1713	-0.77
Mof_C 	C 	0.6697	0.2595	0.2103	0.107
Mof_H 	H 	0.7127	0.2843	0.2732	-0.012
Mof_H 	H 	0.954	0.18	0.375	0.025
Mof_H 	H 	0.9091	0.2367	0.4279	0.273
Mof_H 	H 	0.4702	0.3915	0.1173	0.224
Mof_H 	H 	0.539	0.4282	0.2227	0.386
_end
