data_functionalizedCrystal
_audit_creation_method	'EQeq! by Chris Wilmer'
_symmetry_space_group_name_H-M	'P1'
_symmetry_Int_Tables_number	1
_symmetry_cell_setting	triclinic
loop_
_symmetry_equiv_pos_as_xyz
  x,y,z
_cell_length_a	30.5301
_cell_length_b	15.903
_cell_length_c	29.9686
_cell_angle_alpha	90
_cell_angle_beta	107.986
_cell_angle_gamma	90
loop_
_atom_site_label
_atom_site_type_symbol
_atom_site_fract_x
_atom_site_fract_y
_atom_site_fract_z
_atom_site_charge
Mof_U 	U 	0.22628	0.73009	0.77263	-0.01
Mof_U 	U 	0.23849	0.67059	0.57186	0.019
Mof_U 	U 	0.42283	0.66355	0.76361	0.018
Mof_U 	U 	0.47956	0.97535	0.5756	0.015
Mof_O 	O 	0.1461	0.7736	0.7207	-0.193
Mof_O 	O 	0.1856	0.6845	0.6931	-0.185
Mof_O 	O 	0.0363	0.603	0.4938	-0.177
Mof_O 	O 	0.0433	0.522	0.5558	-0.183
Mof_O 	O 	0.1662	0.6094	0.574	-0.171
Mof_O 	O 	0.2276	0.5681	0.6302	-0.156
Mof_O 	O 	0.049	0.6211	0.7071	-0.426
Mof_O 	O 	0.0109	0.576	0.6353	-0.21
Mof_O 	O 	0.2931	0.7537	0.5525	-0.166
Mof_O 	O 	0.3155	0.7593	0.4886	-0.171
Mof_O 	O 	0.4468	0.7326	0.706	-0.176
Mof_O 	O 	0.5094	0.7163	0.6852	-0.173
Mof_O 	O 	0.3102	0.6231	0.6252	-0.156
Mof_O 	O 	0.3675	0.621	0.6905	-0.156
Mof_O 	O 	0.4331	0.9783	0.6292	-0.158
Mof_O 	O 	0.41	0.8934	0.5703	-0.177
Mof_O 	O 	0.4147	0.611	0.8375	-0.177
Mof_O 	O 	0.3596	0.5784	0.7733	-0.157
Mof_O 	O 	0.3114	0.4884	0.9852	-0.177
Mof_O 	O 	0.3543	0.5992	0.9889	-0.185
Mof_O 	O 	0.3038	0.6887	0.8162	-0.189
Mof_O 	O 	0.2741	0.7727	0.8558	-0.195
Mof_O 	O 	0.4742	0.5778	0.0024	-0.21
Mof_O 	O 	0.4463	0.5212	0.9397	-0.212
Mof_C 	C 	0.098	0.6546	0.6148	0.054
Mof_C 	C 	0.1131	0.7294	0.64	-0.07
Mof_C 	C 	0.0989	0.8074	0.6213	0.029
Mof_H 	H 	0.1075	0.8565	0.64	0.051
Mof_C 	C 	0.0717	0.8131	0.5745	-0.076
Mof_H 	H 	0.0623	0.8669	0.5613	0.098
Mof_C 	C 	0.0584	0.7435	0.5476	0.03
Mof_H 	H 	0.0421	0.7488	0.5152	0.052
Mof_C 	C 	0.0689	0.6637	0.568	-0.06
Mof_C 	C 	0.1491	0.7274	0.687	0.274
Mof_C 	C 	0.0492	0.5908	0.5377	0.294
Mof_C 	C 	0.1127	0.573	0.6386	0.079
Mof_C 	C 	0.1541	0.5351	0.6384	-0.069
Mof_C 	C 	0.1705	0.4633	0.6671	0.025
Mof_H 	H 	0.1991	0.4388	0.6678	0.063
Mof_C 	C 	0.1456	0.4289	0.6936	-0.081
Mof_H 	H 	0.1558	0.379	0.7112	0.083
Mof_C 	C 	0.1057	0.4681	0.6943	0.049
Mof_H 	H 	0.0886	0.4456	0.7132	0.049
Mof_C 	C 	0.0896	0.5407	0.6675	-0.106
Mof_C 	C 	0.1834	0.5716	0.613	0.277
Mof_C 	C 	0.0465	0.5822	0.67	0.394
Mof_C 	C 	0.3933	0.733	0.605	0.059
Mof_C 	C 	0.371	0.7125	0.558	-0.051
Mof_C 	C 	0.3925	0.6639	0.5325	0.024
Mof_H 	H 	0.3769	0.6508	0.5006	0.06
Mof_C 	C 	0.4363	0.6347	0.5535	-0.062
Mof_H 	H 	0.4509	0.6013	0.536	0.089
Mof_C 	C 	0.4589	0.653	0.5988	0.019
Mof_H 	H 	0.489	0.6315	0.613	0.074
Mof_C 	C 	0.4381	0.7034	0.625	-0.055
Mof_C 	C 	0.3238	0.744	0.5315	0.285
Mof_C 	C 	0.4663	0.7188	0.6757	0.292
Mof_C 	C 	0.3709	0.7903	0.6316	0.058
Mof_C 	C 	0.3439	0.7559	0.656	-0.041
Mof_C 	C 	0.3221	0.8054	0.6816	0.008
Mof_H 	H 	0.3042	0.7801	0.6989	0.064
Mof_C 	C 	0.3273	0.8935	0.6812	-0.057
Mof_H 	H 	0.3117	0.9287	0.6969	0.068
Mof_C 	C 	0.3549	0.9276	0.658	0.016
Mof_H 	H 	0.3592	0.9868	0.6587	0.066
Mof_C 	C 	0.3775	0.877	0.633	-0.057
Mof_C 	C 	0.3397	0.6615	0.6576	0.277
Mof_C 	C 	0.4085	0.9179	0.6098	0.284
Mof_C 	C 	0.3504	0.566	0.89	0.034
Mof_C 	C 	0.3489	0.5346	0.8456	-0.041
Mof_C 	C 	0.3225	0.4667	0.8261	-0.006
Mof_H 	H 	0.3211	0.4487	0.7954	0.074
Mof_C 	C 	0.2979	0.4238	0.8508	-0.043
Mof_H 	H 	0.2799	0.3761	0.8374	0.069
Mof_C 	C 	0.2998	0.4514	0.8954	-0.008
Mof_H 	H 	0.2838	0.4213	0.9129	0.075
Mof_C 	C 	0.3247	0.5221	0.9144	-0.047
Mof_C 	C 	0.3758	0.5773	0.8183	0.273
Mof_C 	C 	0.3259	0.5472	0.9635	0.264
Mof_C 	C 	0.3741	0.6475	0.9088	0.1
Mof_C 	C 	0.3513	0.7235	0.8944	-0.089
Mof_C 	C 	0.3693	0.7979	0.9143	0.052
Mof_H 	H 	0.3525	0.8484	0.9045	0.045
Mof_C 	C 	0.4124	0.8012	0.9492	-0.093
Mof_H 	H 	0.4255	0.8534	0.9621	0.106
Mof_C 	C 	0.4352	0.7269	0.9643	0.069
Mof_H 	H 	0.4639	0.7276	0.9885	0.039
Mof_C 	C 	0.4166	0.6511	0.9446	-0.12
Mof_C 	C 	0.3065	0.7275	0.8544	0.29
Mof_C 	C 	0.4432	0.5822	0.9647	0.336
Mof_O 	O 	0.012	0.7788	0.8016	-0.315
Mof_O 	O 	0.9553	0.5994	0.7015	-0.451
Mof_Dy	Dy	0.98533	0.66536	0.73986	1.115
Mof_O 	O 	0.9686	0.5243	0.722	-0.081
Mof_U 	U 	0.72628	0.23009	0.77263	-0.011
Mof_U 	U 	0.73849	0.17059	0.57186	0.018
Mof_U 	U 	0.92283	0.16355	0.76361	0.017
Mof_U 	U 	0.97956	0.47535	0.5756	0.015
Mof_O 	O 	0.6461	0.2736	0.7207	-0.194
Mof_O 	O 	0.6856	0.1845	0.6931	-0.186
Mof_O 	O 	0.5363	0.103	0.4938	-0.179
Mof_O 	O 	0.5433	0.022	0.5558	-0.184
Mof_O 	O 	0.6662	0.1094	0.574	-0.172
Mof_O 	O 	0.7276	0.0681	0.6302	-0.157
Mof_O 	O 	0.549	0.1211	0.7071	-0.427
Mof_O 	O 	0.5109	0.076	0.6353	-0.211
Mof_O 	O 	0.7931	0.2537	0.5525	-0.166
Mof_O 	O 	0.8155	0.2593	0.4886	-0.171
Mof_O 	O 	0.9468	0.2326	0.706	-0.176
Mof_O 	O 	0.0094	0.2163	0.6852	-0.173
Mof_O 	O 	0.8102	0.1231	0.6252	-0.156
Mof_O 	O 	0.8675	0.121	0.6905	-0.156
Mof_O 	O 	0.9331	0.4783	0.6292	-0.158
Mof_O 	O 	0.91	0.3934	0.5703	-0.177
Mof_O 	O 	0.9147	0.111	0.8375	-0.177
Mof_O 	O 	0.8596	0.0784	0.7733	-0.157
Mof_O 	O 	0.8114	0.9884	0.9852	-0.177
Mof_O 	O 	0.8543	0.0992	0.9889	-0.185
Mof_O 	O 	0.8038	0.1887	0.8162	-0.189
Mof_O 	O 	0.7741	0.2727	0.8558	-0.195
Mof_O 	O 	0.9742	0.0778	0.0024	-0.21
Mof_O 	O 	0.9463	0.0212	0.9397	-0.212
Mof_C 	C 	0.598	0.1546	0.6148	0.054
Mof_C 	C 	0.6131	0.2294	0.64	-0.07
Mof_C 	C 	0.5989	0.3074	0.6213	0.029
Mof_H 	H 	0.6075	0.3565	0.64	0.051
Mof_C 	C 	0.5717	0.3131	0.5745	-0.076
Mof_H 	H 	0.5623	0.3669	0.5613	0.098
Mof_C 	C 	0.5584	0.2435	0.5476	0.03
Mof_H 	H 	0.5421	0.2488	0.5152	0.052
Mof_C 	C 	0.5689	0.1637	0.568	-0.06
Mof_C 	C 	0.6491	0.2274	0.687	0.274
Mof_C 	C 	0.5492	0.0908	0.5377	0.294
Mof_C 	C 	0.6127	0.073	0.6386	0.079
Mof_C 	C 	0.6541	0.0351	0.6384	-0.069
Mof_C 	C 	0.6705	0.9633	0.6671	0.025
Mof_H 	H 	0.6991	0.9388	0.6678	0.063
Mof_C 	C 	0.6456	0.9289	0.6936	-0.081
Mof_H 	H 	0.6558	0.879	0.7112	0.083
Mof_C 	C 	0.6057	0.9681	0.6943	0.048
Mof_H 	H 	0.5886	0.9456	0.7132	0.049
Mof_C 	C 	0.5896	0.0407	0.6675	-0.106
Mof_C 	C 	0.6834	0.0716	0.613	0.277
Mof_C 	C 	0.5465	0.0822	0.67	0.394
Mof_C 	C 	0.8933	0.233	0.605	0.059
Mof_C 	C 	0.871	0.2125	0.558	-0.051
Mof_C 	C 	0.8925	0.1639	0.5325	0.024
Mof_H 	H 	0.8769	0.1508	0.5006	0.06
Mof_C 	C 	0.9363	0.1347	0.5535	-0.062
Mof_H 	H 	0.9509	0.1013	0.536	0.089
Mof_C 	C 	0.9589	0.153	0.5988	0.019
Mof_H 	H 	0.989	0.1315	0.613	0.074
Mof_C 	C 	0.9381	0.2034	0.625	-0.055
Mof_C 	C 	0.8238	0.244	0.5315	0.285
Mof_C 	C 	0.9663	0.2188	0.6757	0.292
Mof_C 	C 	0.8709	0.2903	0.6316	0.058
Mof_C 	C 	0.8439	0.2559	0.656	-0.041
Mof_C 	C 	0.8221	0.3054	0.6816	0.008
Mof_H 	H 	0.8042	0.2801	0.6989	0.064
Mof_C 	C 	0.8273	0.3935	0.6812	-0.057
Mof_H 	H 	0.8117	0.4287	0.6969	0.068
Mof_C 	C 	0.8549	0.4276	0.658	0.016
Mof_H 	H 	0.8592	0.4868	0.6587	0.066
Mof_C 	C 	0.8775	0.377	0.633	-0.057
Mof_C 	C 	0.8397	0.1615	0.6576	0.277
Mof_C 	C 	0.9085	0.4179	0.6098	0.284
Mof_C 	C 	0.8504	0.066	0.89	0.034
Mof_C 	C 	0.8489	0.0346	0.8456	-0.041
Mof_C 	C 	0.8225	0.9667	0.8261	-0.006
Mof_H 	H 	0.8211	0.9487	0.7954	0.074
Mof_C 	C 	0.7979	0.9238	0.8508	-0.043
Mof_H 	H 	0.7799	0.8761	0.8374	0.069
Mof_C 	C 	0.7998	0.9514	0.8954	-0.008
Mof_H 	H 	0.7838	0.9213	0.9129	0.075
Mof_C 	C 	0.8247	0.0221	0.9144	-0.047
Mof_C 	C 	0.8758	0.0773	0.8183	0.273
Mof_C 	C 	0.8259	0.0472	0.9635	0.264
Mof_C 	C 	0.8741	0.1475	0.9088	0.099
Mof_C 	C 	0.8513	0.2235	0.8944	-0.089
Mof_C 	C 	0.8693	0.2979	0.9143	0.052
Mof_H 	H 	0.8525	0.3484	0.9045	0.045
Mof_C 	C 	0.9124	0.3012	0.9492	-0.093
Mof_H 	H 	0.9255	0.3534	0.9621	0.105
Mof_C 	C 	0.9352	0.2269	0.9643	0.068
Mof_H 	H 	0.9639	0.2276	0.9885	0.039
Mof_C 	C 	0.9166	0.1511	0.9446	-0.12
Mof_C 	C 	0.8065	0.2275	0.8544	0.29
Mof_C 	C 	0.9432	0.0822	0.9647	0.336
Mof_O 	O 	0.512	0.2788	0.8016	-0.315
Mof_O 	O 	0.4553	0.0994	0.7015	-0.451
Mof_Dy	Dy	0.48533	0.16536	0.73986	1.114
Mof_O 	O 	0.4686	0.0243	0.722	-0.081
Mof_U 	U 	0.77372	0.73009	0.72737	-0.011
Mof_U 	U 	0.76151	0.67059	0.92814	0.018
Mof_U 	U 	0.57717	0.66355	0.73639	0.017
Mof_U 	U 	0.52044	0.97535	0.9244	0.014
Mof_O 	O 	0.8539	0.7736	0.7793	-0.194
Mof_O 	O 	0.8144	0.6845	0.8069	-0.186
Mof_O 	O 	0.9637	0.603	0.0062	-0.178
Mof_O 	O 	0.9567	0.522	0.9442	-0.184
Mof_O 	O 	0.8338	0.6094	0.926	-0.172
Mof_O 	O 	0.7724	0.5681	0.8698	-0.157
Mof_O 	O 	0.951	0.6211	0.7929	-0.427
Mof_O 	O 	0.9891	0.576	0.8647	-0.211
Mof_O 	O 	0.7069	0.7537	0.9475	-0.166
Mof_O 	O 	0.6845	0.7593	0.0114	-0.171
Mof_O 	O 	0.5532	0.7326	0.794	-0.176
Mof_O 	O 	0.4906	0.7163	0.8148	-0.173
Mof_O 	O 	0.6898	0.6231	0.8748	-0.156
Mof_O 	O 	0.6325	0.621	0.8095	-0.156
Mof_O 	O 	0.5669	0.9783	0.8708	-0.158
Mof_O 	O 	0.59	0.8934	0.9297	-0.177
Mof_O 	O 	0.5853	0.611	0.6625	-0.177
Mof_O 	O 	0.6404	0.5784	0.7267	-0.157
Mof_O 	O 	0.6886	0.4884	0.5148	-0.177
Mof_O 	O 	0.6457	0.5992	0.5111	-0.184
Mof_O 	O 	0.6962	0.6887	0.6838	-0.189
Mof_O 	O 	0.7259	0.7727	0.6442	-0.195
Mof_O 	O 	0.5258	0.5778	0.4976	-0.21
Mof_O 	O 	0.5537	0.5212	0.5603	-0.212
Mof_C 	C 	0.902	0.6546	0.8852	0.054
Mof_C 	C 	0.8869	0.7294	0.86	-0.07
Mof_C 	C 	0.9011	0.8074	0.8787	0.029
Mof_H 	H 	0.8925	0.8565	0.86	0.051
Mof_C 	C 	0.9283	0.8131	0.9255	-0.076
Mof_H 	H 	0.9377	0.8669	0.9387	0.098
Mof_C 	C 	0.9416	0.7435	0.9524	0.03
Mof_H 	H 	0.9579	0.7488	0.9848	0.052
Mof_C 	C 	0.9311	0.6637	0.932	-0.06
Mof_C 	C 	0.8509	0.7274	0.813	0.274
Mof_C 	C 	0.9508	0.5908	0.9623	0.294
Mof_C 	C 	0.8873	0.573	0.8614	0.079
Mof_C 	C 	0.8459	0.5351	0.8616	-0.07
Mof_C 	C 	0.8295	0.4633	0.8329	0.025
Mof_H 	H 	0.8009	0.4388	0.8322	0.063
Mof_C 	C 	0.8544	0.4289	0.8064	-0.081
Mof_H 	H 	0.8442	0.379	0.7888	0.083
Mof_C 	C 	0.8943	0.4681	0.8057	0.049
Mof_H 	H 	0.9114	0.4456	0.7868	0.049
Mof_C 	C 	0.9104	0.5407	0.8325	-0.106
Mof_C 	C 	0.8166	0.5716	0.887	0.277
Mof_C 	C 	0.9535	0.5822	0.83	0.394
Mof_C 	C 	0.6067	0.733	0.895	0.059
Mof_C 	C 	0.629	0.7125	0.942	-0.051
Mof_C 	C 	0.6075	0.6639	0.9675	0.024
Mof_H 	H 	0.6231	0.6508	0.9994	0.06
Mof_C 	C 	0.5637	0.6347	0.9465	-0.062
Mof_H 	H 	0.5491	0.6013	0.964	0.089
Mof_C 	C 	0.5411	0.653	0.9012	0.019
Mof_H 	H 	0.511	0.6315	0.887	0.074
Mof_C 	C 	0.5619	0.7034	0.875	-0.055
Mof_C 	C 	0.6762	0.744	0.9685	0.285
Mof_C 	C 	0.5337	0.7188	0.8243	0.292
Mof_C 	C 	0.6291	0.7903	0.8684	0.058
Mof_C 	C 	0.6561	0.7559	0.844	-0.041
Mof_C 	C 	0.6779	0.8054	0.8184	0.008
Mof_H 	H 	0.6958	0.7801	0.8011	0.064
Mof_C 	C 	0.6727	0.8935	0.8188	-0.057
Mof_H 	H 	0.6883	0.9287	0.8031	0.068
Mof_C 	C 	0.6451	0.9276	0.842	0.016
Mof_H 	H 	0.6408	0.9868	0.8413	0.066
Mof_C 	C 	0.6225	0.877	0.867	-0.057
Mof_C 	C 	0.6603	0.6615	0.8424	0.277
Mof_C 	C 	0.5915	0.9179	0.8902	0.284
Mof_C 	C 	0.6496	0.566	0.61	0.034
Mof_C 	C 	0.6511	0.5346	0.6544	-0.041
Mof_C 	C 	0.6775	0.4667	0.6739	-0.006
Mof_H 	H 	0.6789	0.4487	0.7046	0.074
Mof_C 	C 	0.7021	0.4238	0.6492	-0.043
Mof_H 	H 	0.7201	0.3761	0.6626	0.069
Mof_C 	C 	0.7002	0.4514	0.6046	-0.008
Mof_H 	H 	0.7162	0.4213	0.5871	0.075
Mof_C 	C 	0.6753	0.5221	0.5856	-0.047
Mof_C 	C 	0.6242	0.5773	0.6817	0.273
Mof_C 	C 	0.6741	0.5472	0.5365	0.264
Mof_C 	C 	0.6259	0.6475	0.5912	0.1
Mof_C 	C 	0.6487	0.7235	0.6056	-0.089
Mof_C 	C 	0.6307	0.7979	0.5857	0.052
Mof_H 	H 	0.6475	0.8484	0.5955	0.045
Mof_C 	C 	0.5876	0.8012	0.5508	-0.093
Mof_H 	H 	0.5745	0.8534	0.5379	0.106
Mof_C 	C 	0.5648	0.7269	0.5357	0.069
Mof_H 	H 	0.5361	0.7276	0.5115	0.039
Mof_C 	C 	0.5834	0.6511	0.5554	-0.12
Mof_C 	C 	0.6935	0.7275	0.6456	0.29
Mof_C 	C 	0.5568	0.5822	0.5353	0.336
Mof_O 	O 	0.988	0.7788	0.6984	-0.315
Mof_O 	O 	0.0447	0.5994	0.7985	-0.451
Mof_Dy	Dy	0.01467	0.66536	0.76014	1.114
Mof_O 	O 	0.0314	0.5243	0.778	-0.081
Mof_U 	U 	0.27372	0.23009	0.72737	-0.011
Mof_U 	U 	0.26151	0.17059	0.92814	0.018
Mof_U 	U 	0.07717	0.16355	0.73639	0.017
Mof_U 	U 	0.02044	0.47535	0.9244	0.015
Mof_O 	O 	0.3539	0.2736	0.7793	-0.194
Mof_O 	O 	0.3144	0.1845	0.8069	-0.186
Mof_O 	O 	0.4637	0.103	0.0062	-0.179
Mof_O 	O 	0.4567	0.022	0.9442	-0.184
Mof_O 	O 	0.3338	0.1094	0.926	-0.172
Mof_O 	O 	0.2724	0.0681	0.8698	-0.157
Mof_O 	O 	0.451	0.1211	0.7929	-0.427
Mof_O 	O 	0.4891	0.076	0.8647	-0.211
Mof_O 	O 	0.2069	0.2537	0.9475	-0.166
Mof_O 	O 	0.1845	0.2593	0.0114	-0.171
Mof_O 	O 	0.0532	0.2326	0.794	-0.176
Mof_O 	O 	0.9906	0.2163	0.8148	-0.173
Mof_O 	O 	0.1898	0.1231	0.8748	-0.156
Mof_O 	O 	0.1325	0.121	0.8095	-0.156
Mof_O 	O 	0.0669	0.4783	0.8708	-0.158
Mof_O 	O 	0.09	0.3934	0.9297	-0.177
Mof_O 	O 	0.0853	0.111	0.6625	-0.177
Mof_O 	O 	0.1404	0.0784	0.7267	-0.157
Mof_O 	O 	0.1886	0.9884	0.5148	-0.177
Mof_O 	O 	0.1457	0.0992	0.5111	-0.184
Mof_O 	O 	0.1962	0.1887	0.6838	-0.189
Mof_O 	O 	0.2259	0.2727	0.6442	-0.195
Mof_O 	O 	0.0258	0.0778	0.4976	-0.21
Mof_O 	O 	0.0537	0.0212	0.5603	-0.212
Mof_C 	C 	0.402	0.1546	0.8852	0.054
Mof_C 	C 	0.3869	0.2294	0.86	-0.07
Mof_C 	C 	0.4011	0.3074	0.8787	0.029
Mof_H 	H 	0.3925	0.3565	0.86	0.051
Mof_C 	C 	0.4283	0.3131	0.9255	-0.076
Mof_H 	H 	0.4377	0.3669	0.9387	0.098
Mof_C 	C 	0.4416	0.2435	0.9524	0.03
Mof_H 	H 	0.4579	0.2488	0.9848	0.052
Mof_C 	C 	0.4311	0.1637	0.932	-0.06
Mof_C 	C 	0.3509	0.2274	0.813	0.274
Mof_C 	C 	0.4508	0.0908	0.9623	0.294
Mof_C 	C 	0.3873	0.073	0.8614	0.079
Mof_C 	C 	0.3459	0.0351	0.8616	-0.069
Mof_C 	C 	0.3295	0.9633	0.8329	0.025
Mof_H 	H 	0.3009	0.9388	0.8322	0.063
Mof_C 	C 	0.3544	0.9289	0.8064	-0.081
Mof_H 	H 	0.3442	0.879	0.7888	0.083
Mof_C 	C 	0.3943	0.9681	0.8057	0.048
Mof_H 	H 	0.4114	0.9456	0.7868	0.049
Mof_C 	C 	0.4104	0.0407	0.8325	-0.106
Mof_C 	C 	0.3166	0.0716	0.887	0.277
Mof_C 	C 	0.4535	0.0822	0.83	0.394
Mof_C 	C 	0.1067	0.233	0.895	0.059
Mof_C 	C 	0.129	0.2125	0.942	-0.051
Mof_C 	C 	0.1075	0.1639	0.9675	0.024
Mof_H 	H 	0.1231	0.1508	0.9994	0.06
Mof_C 	C 	0.0637	0.1347	0.9465	-0.062
Mof_H 	H 	0.0491	0.1013	0.964	0.089
Mof_C 	C 	0.0411	0.153	0.9012	0.019
Mof_H 	H 	0.011	0.1315	0.887	0.074
Mof_C 	C 	0.0619	0.2034	0.875	-0.055
Mof_C 	C 	0.1762	0.244	0.9685	0.285
Mof_C 	C 	0.0337	0.2188	0.8243	0.292
Mof_C 	C 	0.1291	0.2903	0.8684	0.058
Mof_C 	C 	0.1561	0.2559	0.844	-0.041
Mof_C 	C 	0.1779	0.3054	0.8184	0.008
Mof_H 	H 	0.1958	0.2801	0.8011	0.064
Mof_C 	C 	0.1727	0.3935	0.8188	-0.057
Mof_H 	H 	0.1883	0.4287	0.8031	0.068
Mof_C 	C 	0.1451	0.4276	0.842	0.016
Mof_H 	H 	0.1408	0.4868	0.8413	0.066
Mof_C 	C 	0.1225	0.377	0.867	-0.057
Mof_C 	C 	0.1603	0.1615	0.8424	0.277
Mof_C 	C 	0.0915	0.4179	0.8902	0.284
Mof_C 	C 	0.1496	0.066	0.61	0.034
Mof_C 	C 	0.1511	0.0346	0.6544	-0.041
Mof_C 	C 	0.1775	0.9667	0.6739	-0.006
Mof_H 	H 	0.1789	0.9487	0.7046	0.074
Mof_C 	C 	0.2021	0.9238	0.6492	-0.043
Mof_H 	H 	0.2201	0.8761	0.6626	0.069
Mof_C 	C 	0.2002	0.9514	0.6046	-0.008
Mof_H 	H 	0.2162	0.9213	0.5871	0.075
Mof_C 	C 	0.1753	0.0221	0.5856	-0.046
Mof_C 	C 	0.1242	0.0773	0.6817	0.273
Mof_C 	C 	0.1741	0.0472	0.5365	0.264
Mof_C 	C 	0.1259	0.1475	0.5912	0.1
Mof_C 	C 	0.1487	0.2235	0.6056	-0.089
Mof_C 	C 	0.1307	0.2979	0.5857	0.052
Mof_H 	H 	0.1475	0.3484	0.5955	0.045
Mof_C 	C 	0.0876	0.3012	0.5508	-0.093
Mof_H 	H 	0.0745	0.3534	0.5379	0.106
Mof_C 	C 	0.0648	0.2269	0.5357	0.069
Mof_H 	H 	0.0361	0.2276	0.5115	0.039
Mof_C 	C 	0.0834	0.1511	0.5554	-0.12
Mof_C 	C 	0.1935	0.2275	0.6456	0.29
Mof_C 	C 	0.0568	0.0822	0.5353	0.336
Mof_O 	O 	0.488	0.2788	0.6984	-0.315
Mof_O 	O 	0.5447	0.0994	0.7985	-0.451
Mof_Dy	Dy	0.51467	0.16536	0.76014	1.114
Mof_O 	O 	0.5314	0.0243	0.778	-0.081
Mof_U 	U 	0.77372	0.26991	0.22737	-0.011
Mof_U 	U 	0.76151	0.32941	0.42814	0.018
Mof_U 	U 	0.57717	0.33645	0.23639	0.017
Mof_U 	U 	0.52044	0.02465	0.4244	0.014
Mof_O 	O 	0.8539	0.2264	0.2793	-0.194
Mof_O 	O 	0.8144	0.3155	0.3069	-0.186
Mof_O 	O 	0.9637	0.397	0.5062	-0.178
Mof_O 	O 	0.9567	0.478	0.4442	-0.184
Mof_O 	O 	0.8338	0.3906	0.426	-0.172
Mof_O 	O 	0.7724	0.4319	0.3698	-0.157
Mof_O 	O 	0.951	0.3789	0.2929	-0.427
Mof_O 	O 	0.9891	0.424	0.3647	-0.211
Mof_O 	O 	0.7069	0.2463	0.4475	-0.166
Mof_O 	O 	0.6845	0.2407	0.5114	-0.171
Mof_O 	O 	0.5532	0.2674	0.294	-0.176
Mof_O 	O 	0.4906	0.2837	0.3148	-0.173
Mof_O 	O 	0.6898	0.3769	0.3748	-0.156
Mof_O 	O 	0.6325	0.379	0.3095	-0.156
Mof_O 	O 	0.5669	0.0217	0.3708	-0.158
Mof_O 	O 	0.59	0.1066	0.4297	-0.177
Mof_O 	O 	0.5853	0.389	0.1625	-0.177
Mof_O 	O 	0.6404	0.4216	0.2267	-0.157
Mof_O 	O 	0.6886	0.5116	0.0148	-0.177
Mof_O 	O 	0.6457	0.4008	0.0111	-0.185
Mof_O 	O 	0.6962	0.3113	0.1838	-0.189
Mof_O 	O 	0.7259	0.2273	0.1442	-0.195
Mof_O 	O 	0.5258	0.4222	0.9976	-0.21
Mof_O 	O 	0.5537	0.4788	0.0603	-0.212
Mof_C 	C 	0.902	0.3454	0.3852	0.054
Mof_C 	C 	0.8869	0.2706	0.36	-0.07
Mof_C 	C 	0.9011	0.1926	0.3787	0.029
Mof_H 	H 	0.8925	0.1435	0.36	0.051
Mof_C 	C 	0.9283	0.1869	0.4255	-0.076
Mof_H 	H 	0.9377	0.1331	0.4387	0.098
Mof_C 	C 	0.9416	0.2565	0.4524	0.03
Mof_H 	H 	0.9579	0.2512	0.4848	0.052
Mof_C 	C 	0.9311	0.3363	0.432	-0.06
Mof_C 	C 	0.8509	0.2726	0.313	0.274
Mof_C 	C 	0.9508	0.4092	0.4623	0.294
Mof_C 	C 	0.8873	0.427	0.3614	0.079
Mof_C 	C 	0.8459	0.4649	0.3616	-0.069
Mof_C 	C 	0.8295	0.5367	0.3329	0.025
Mof_H 	H 	0.8009	0.5612	0.3322	0.063
Mof_C 	C 	0.8544	0.5711	0.3064	-0.081
Mof_H 	H 	0.8442	0.621	0.2888	0.083
Mof_C 	C 	0.8943	0.5319	0.3057	0.049
Mof_H 	H 	0.9114	0.5544	0.2868	0.049
Mof_C 	C 	0.9104	0.4593	0.3325	-0.106
Mof_C 	C 	0.8166	0.4284	0.387	0.277
Mof_C 	C 	0.9535	0.4178	0.33	0.394
Mof_C 	C 	0.6067	0.267	0.395	0.059
Mof_C 	C 	0.629	0.2875	0.442	-0.051
Mof_C 	C 	0.6075	0.3361	0.4675	0.024
Mof_H 	H 	0.6231	0.3492	0.4994	0.06
Mof_C 	C 	0.5637	0.3653	0.4465	-0.062
Mof_H 	H 	0.5491	0.3987	0.464	0.089
Mof_C 	C 	0.5411	0.347	0.4012	0.019
Mof_H 	H 	0.511	0.3685	0.387	0.074
Mof_C 	C 	0.5619	0.2966	0.375	-0.055
Mof_C 	C 	0.6762	0.256	0.4685	0.285
Mof_C 	C 	0.5337	0.2812	0.3243	0.292
Mof_C 	C 	0.6291	0.2097	0.3684	0.058
Mof_C 	C 	0.6561	0.2441	0.344	-0.041
Mof_C 	C 	0.6779	0.1946	0.3184	0.008
Mof_H 	H 	0.6958	0.2199	0.3011	0.064
Mof_C 	C 	0.6727	0.1065	0.3188	-0.057
Mof_H 	H 	0.6883	0.0713	0.3031	0.068
Mof_C 	C 	0.6451	0.0724	0.342	0.016
Mof_H 	H 	0.6408	0.0132	0.3413	0.066
Mof_C 	C 	0.6225	0.123	0.367	-0.057
Mof_C 	C 	0.6603	0.3385	0.3424	0.277
Mof_C 	C 	0.5915	0.0821	0.3902	0.284
Mof_C 	C 	0.6496	0.434	0.11	0.034
Mof_C 	C 	0.6511	0.4654	0.1544	-0.041
Mof_C 	C 	0.6775	0.5333	0.1739	-0.006
Mof_H 	H 	0.6789	0.5513	0.2046	0.074
Mof_C 	C 	0.7021	0.5762	0.1492	-0.043
Mof_H 	H 	0.7201	0.6239	0.1626	0.069
Mof_C 	C 	0.7002	0.5486	0.1046	-0.008
Mof_H 	H 	0.7162	0.5787	0.0871	0.075
Mof_C 	C 	0.6753	0.4779	0.0856	-0.047
Mof_C 	C 	0.6242	0.4227	0.1817	0.273
Mof_C 	C 	0.6741	0.4528	0.0365	0.264
Mof_C 	C 	0.6259	0.3525	0.0912	0.1
Mof_C 	C 	0.6487	0.2765	0.1056	-0.089
Mof_C 	C 	0.6307	0.2021	0.0857	0.052
Mof_H 	H 	0.6475	0.1516	0.0955	0.045
Mof_C 	C 	0.5876	0.1988	0.0508	-0.093
Mof_H 	H 	0.5745	0.1466	0.0379	0.106
Mof_C 	C 	0.5648	0.2731	0.0357	0.069
Mof_H 	H 	0.5361	0.2724	0.0115	0.039
Mof_C 	C 	0.5834	0.3489	0.0554	-0.12
Mof_C 	C 	0.6935	0.2725	0.1456	0.29
Mof_C 	C 	0.5568	0.4178	0.0353	0.336
Mof_O 	O 	0.988	0.2212	0.1984	-0.315
Mof_O 	O 	0.0447	0.4006	0.2985	-0.451
Mof_Dy	Dy	0.01467	0.33464	0.26014	1.115
Mof_O 	O 	0.0314	0.4757	0.278	-0.081
Mof_U 	U 	0.27372	0.76991	0.22737	-0.011
Mof_U 	U 	0.26151	0.82941	0.42814	0.018
Mof_U 	U 	0.07717	0.83645	0.23639	0.017
Mof_U 	U 	0.02044	0.52465	0.4244	0.015
Mof_O 	O 	0.3539	0.7264	0.2793	-0.194
Mof_O 	O 	0.3144	0.8155	0.3069	-0.186
Mof_O 	O 	0.4637	0.897	0.5062	-0.179
Mof_O 	O 	0.4567	0.978	0.4442	-0.184
Mof_O 	O 	0.3338	0.8906	0.426	-0.172
Mof_O 	O 	0.2724	0.9319	0.3698	-0.157
Mof_O 	O 	0.451	0.8789	0.2929	-0.427
Mof_O 	O 	0.4891	0.924	0.3647	-0.211
Mof_O 	O 	0.2069	0.7463	0.4475	-0.166
Mof_O 	O 	0.1845	0.7407	0.5114	-0.171
Mof_O 	O 	0.0532	0.7674	0.294	-0.176
Mof_O 	O 	0.9906	0.7837	0.3148	-0.173
Mof_O 	O 	0.1898	0.8769	0.3748	-0.156
Mof_O 	O 	0.1325	0.879	0.3095	-0.156
Mof_O 	O 	0.0669	0.5217	0.3708	-0.158
Mof_O 	O 	0.09	0.6066	0.4297	-0.177
Mof_O 	O 	0.0853	0.889	0.1625	-0.177
Mof_O 	O 	0.1404	0.9216	0.2267	-0.157
Mof_O 	O 	0.1886	0.0116	0.0148	-0.177
Mof_O 	O 	0.1457	0.9008	0.0111	-0.185
Mof_O 	O 	0.1962	0.8113	0.1838	-0.189
Mof_O 	O 	0.2259	0.7273	0.1442	-0.195
Mof_O 	O 	0.0258	0.9222	0.9976	-0.21
Mof_O 	O 	0.0537	0.9788	0.0603	-0.212
Mof_C 	C 	0.402	0.8454	0.3852	0.054
Mof_C 	C 	0.3869	0.7706	0.36	-0.07
Mof_C 	C 	0.4011	0.6926	0.3787	0.029
Mof_H 	H 	0.3925	0.6435	0.36	0.051
Mof_C 	C 	0.4283	0.6869	0.4255	-0.076
Mof_H 	H 	0.4377	0.6331	0.4387	0.098
Mof_C 	C 	0.4416	0.7565	0.4524	0.03
Mof_H 	H 	0.4579	0.7512	0.4848	0.052
Mof_C 	C 	0.4311	0.8363	0.432	-0.06
Mof_C 	C 	0.3509	0.7726	0.313	0.274
Mof_C 	C 	0.4508	0.9092	0.4623	0.294
Mof_C 	C 	0.3873	0.927	0.3614	0.079
Mof_C 	C 	0.3459	0.9649	0.3616	-0.069
Mof_C 	C 	0.3295	0.0367	0.3329	0.025
Mof_H 	H 	0.3009	0.0612	0.3322	0.063
Mof_C 	C 	0.3544	0.0711	0.3064	-0.081
Mof_H 	H 	0.3442	0.121	0.2888	0.083
Mof_C 	C 	0.3943	0.0319	0.3057	0.048
Mof_H 	H 	0.4114	0.0544	0.2868	0.049
Mof_C 	C 	0.4104	0.9593	0.3325	-0.106
Mof_C 	C 	0.3166	0.9284	0.387	0.277
Mof_C 	C 	0.4535	0.9178	0.33	0.394
Mof_C 	C 	0.1067	0.767	0.395	0.059
Mof_C 	C 	0.129	0.7875	0.442	-0.051
Mof_C 	C 	0.1075	0.8361	0.4675	0.024
Mof_H 	H 	0.1231	0.8492	0.4994	0.06
Mof_C 	C 	0.0637	0.8653	0.4465	-0.062
Mof_H 	H 	0.0491	0.8987	0.464	0.089
Mof_C 	C 	0.0411	0.847	0.4012	0.019
Mof_H 	H 	0.011	0.8685	0.387	0.074
Mof_C 	C 	0.0619	0.7966	0.375	-0.055
Mof_C 	C 	0.1762	0.756	0.4685	0.285
Mof_C 	C 	0.0337	0.7812	0.3243	0.292
Mof_C 	C 	0.1291	0.7097	0.3684	0.058
Mof_C 	C 	0.1561	0.7441	0.344	-0.041
Mof_C 	C 	0.1779	0.6946	0.3184	0.008
Mof_H 	H 	0.1958	0.7199	0.3011	0.064
Mof_C 	C 	0.1727	0.6065	0.3188	-0.057
Mof_H 	H 	0.1883	0.5713	0.3031	0.068
Mof_C 	C 	0.1451	0.5724	0.342	0.016
Mof_H 	H 	0.1408	0.5132	0.3413	0.066
Mof_C 	C 	0.1225	0.623	0.367	-0.057
Mof_C 	C 	0.1603	0.8385	0.3424	0.277
Mof_C 	C 	0.0915	0.5821	0.3902	0.284
Mof_C 	C 	0.1496	0.934	0.11	0.034
Mof_C 	C 	0.1511	0.9654	0.1544	-0.041
Mof_C 	C 	0.1775	0.0333	0.1739	-0.006
Mof_H 	H 	0.1789	0.0513	0.2046	0.074
Mof_C 	C 	0.2021	0.0762	0.1492	-0.043
Mof_H 	H 	0.2201	0.1239	0.1626	0.069
Mof_C 	C 	0.2002	0.0486	0.1046	-0.008
Mof_H 	H 	0.2162	0.0787	0.0871	0.075
Mof_C 	C 	0.1753	0.9779	0.0856	-0.047
Mof_C 	C 	0.1242	0.9227	0.1817	0.273
Mof_C 	C 	0.1741	0.9528	0.0365	0.264
Mof_C 	C 	0.1259	0.8525	0.0912	0.099
Mof_C 	C 	0.1487	0.7765	0.1056	-0.089
Mof_C 	C 	0.1307	0.7021	0.0857	0.052
Mof_H 	H 	0.1475	0.6516	0.0955	0.045
Mof_C 	C 	0.0876	0.6988	0.0508	-0.093
Mof_H 	H 	0.0745	0.6466	0.0379	0.105
Mof_C 	C 	0.0648	0.7731	0.0357	0.068
Mof_H 	H 	0.0361	0.7724	0.0115	0.039
Mof_C 	C 	0.0834	0.8489	0.0554	-0.12
Mof_C 	C 	0.1935	0.7725	0.1456	0.29
Mof_C 	C 	0.0568	0.9178	0.0353	0.336
Mof_O 	O 	0.488	0.7212	0.1984	-0.315
Mof_O 	O 	0.5447	0.9006	0.2985	-0.451
Mof_Dy	Dy	0.51467	0.83464	0.26014	1.114
Mof_O 	O 	0.5314	0.9757	0.278	-0.081
Mof_U 	U 	0.22628	0.26991	0.27263	-0.011
Mof_U 	U 	0.23849	0.32941	0.07186	0.018
Mof_U 	U 	0.42283	0.33645	0.26361	0.017
Mof_U 	U 	0.47956	0.02465	0.0756	0.014
Mof_O 	O 	0.1461	0.2264	0.2207	-0.194
Mof_O 	O 	0.1856	0.3155	0.1931	-0.186
Mof_O 	O 	0.0363	0.397	0.9938	-0.178
Mof_O 	O 	0.0433	0.478	0.0558	-0.184
Mof_O 	O 	0.1662	0.3906	0.074	-0.172
Mof_O 	O 	0.2276	0.4319	0.1302	-0.157
Mof_O 	O 	0.049	0.3789	0.2071	-0.427
Mof_O 	O 	0.0109	0.424	0.1353	-0.211
Mof_O 	O 	0.2931	0.2463	0.0525	-0.166
Mof_O 	O 	0.3155	0.2407	0.9886	-0.171
Mof_O 	O 	0.4468	0.2674	0.206	-0.176
Mof_O 	O 	0.5094	0.2837	0.1852	-0.173
Mof_O 	O 	0.3102	0.3769	0.1252	-0.156
Mof_O 	O 	0.3675	0.379	0.1905	-0.156
Mof_O 	O 	0.4331	0.0217	0.1292	-0.158
Mof_O 	O 	0.41	0.1066	0.0703	-0.177
Mof_O 	O 	0.4147	0.389	0.3375	-0.177
Mof_O 	O 	0.3596	0.4216	0.2733	-0.157
Mof_O 	O 	0.3114	0.5116	0.4852	-0.177
Mof_O 	O 	0.3543	0.4008	0.4889	-0.184
Mof_O 	O 	0.3038	0.3113	0.3162	-0.189
Mof_O 	O 	0.2741	0.2273	0.3558	-0.195
Mof_O 	O 	0.4742	0.4222	0.5024	-0.21
Mof_O 	O 	0.4463	0.4788	0.4397	-0.212
Mof_C 	C 	0.098	0.3454	0.1148	0.054
Mof_C 	C 	0.1131	0.2706	0.14	-0.07
Mof_C 	C 	0.0989	0.1926	0.1213	0.029
Mof_H 	H 	0.1075	0.1435	0.14	0.051
Mof_C 	C 	0.0717	0.1869	0.0745	-0.076
Mof_H 	H 	0.0623	0.1331	0.0613	0.098
Mof_C 	C 	0.0584	0.2565	0.0476	0.03
Mof_H 	H 	0.0421	0.2512	0.0152	0.052
Mof_C 	C 	0.0689	0.3363	0.068	-0.06
Mof_C 	C 	0.1491	0.2726	0.187	0.274
Mof_C 	C 	0.0492	0.4092	0.0377	0.294
Mof_C 	C 	0.1127	0.427	0.1386	0.079
Mof_C 	C 	0.1541	0.4649	0.1384	-0.07
Mof_C 	C 	0.1705	0.5367	0.1671	0.025
Mof_H 	H 	0.1991	0.5612	0.1678	0.063
Mof_C 	C 	0.1456	0.5711	0.1936	-0.081
Mof_H 	H 	0.1558	0.621	0.2112	0.083
Mof_C 	C 	0.1057	0.5319	0.1943	0.049
Mof_H 	H 	0.0886	0.5544	0.2132	0.049
Mof_C 	C 	0.0896	0.4593	0.1675	-0.106
Mof_C 	C 	0.1834	0.4284	0.113	0.277
Mof_C 	C 	0.0465	0.4178	0.17	0.394
Mof_C 	C 	0.3933	0.267	0.105	0.059
Mof_C 	C 	0.371	0.2875	0.058	-0.051
Mof_C 	C 	0.3925	0.3361	0.0325	0.024
Mof_H 	H 	0.3769	0.3492	0.0006	0.06
Mof_C 	C 	0.4363	0.3653	0.0535	-0.062
Mof_H 	H 	0.4509	0.3987	0.036	0.089
Mof_C 	C 	0.4589	0.347	0.0988	0.019
Mof_H 	H 	0.489	0.3685	0.113	0.074
Mof_C 	C 	0.4381	0.2966	0.125	-0.055
Mof_C 	C 	0.3238	0.256	0.0315	0.285
Mof_C 	C 	0.4663	0.2812	0.1757	0.292
Mof_C 	C 	0.3709	0.2097	0.1316	0.058
Mof_C 	C 	0.3439	0.2441	0.156	-0.041
Mof_C 	C 	0.3221	0.1946	0.1816	0.008
Mof_H 	H 	0.3042	0.2199	0.1989	0.064
Mof_C 	C 	0.3273	0.1065	0.1812	-0.057
Mof_H 	H 	0.3117	0.0713	0.1969	0.068
Mof_C 	C 	0.3549	0.0724	0.158	0.016
Mof_H 	H 	0.3592	0.0132	0.1587	0.066
Mof_C 	C 	0.3775	0.123	0.133	-0.057
Mof_C 	C 	0.3397	0.3385	0.1576	0.277
Mof_C 	C 	0.4085	0.0821	0.1098	0.284
Mof_C 	C 	0.3504	0.434	0.39	0.034
Mof_C 	C 	0.3489	0.4654	0.3456	-0.041
Mof_C 	C 	0.3225	0.5333	0.3261	-0.006
Mof_H 	H 	0.3211	0.5513	0.2954	0.074
Mof_C 	C 	0.2979	0.5762	0.3508	-0.043
Mof_H 	H 	0.2799	0.6239	0.3374	0.069
Mof_C 	C 	0.2998	0.5486	0.3954	-0.008
Mof_H 	H 	0.2838	0.5787	0.4129	0.075
Mof_C 	C 	0.3247	0.4779	0.4144	-0.047
Mof_C 	C 	0.3758	0.4227	0.3183	0.273
Mof_C 	C 	0.3259	0.4528	0.4635	0.264
Mof_C 	C 	0.3741	0.3525	0.4088	0.1
Mof_C 	C 	0.3513	0.2765	0.3944	-0.089
Mof_C 	C 	0.3693	0.2021	0.4143	0.052
Mof_H 	H 	0.3525	0.1516	0.4045	0.045
Mof_C 	C 	0.4124	0.1988	0.4492	-0.093
Mof_H 	H 	0.4255	0.1466	0.4621	0.106
Mof_C 	C 	0.4352	0.2731	0.4643	0.069
Mof_H 	H 	0.4639	0.2724	0.4885	0.039
Mof_C 	C 	0.4166	0.3489	0.4446	-0.12
Mof_C 	C 	0.3065	0.2725	0.3544	0.29
Mof_C 	C 	0.4432	0.4178	0.4647	0.336
Mof_O 	O 	0.012	0.2212	0.3016	-0.315
Mof_O 	O 	0.9553	0.4006	0.2015	-0.451
Mof_Dy	Dy	0.98533	0.33464	0.23986	1.114
Mof_O 	O 	0.9686	0.4757	0.222	-0.081
Mof_U 	U 	0.72628	0.76991	0.27263	-0.011
Mof_U 	U 	0.73849	0.82941	0.07186	0.018
Mof_U 	U 	0.92283	0.83645	0.26361	0.017
Mof_U 	U 	0.97956	0.52465	0.0756	0.015
Mof_O 	O 	0.6461	0.7264	0.2207	-0.194
Mof_O 	O 	0.6856	0.8155	0.1931	-0.186
Mof_O 	O 	0.5363	0.897	0.9938	-0.179
Mof_O 	O 	0.5433	0.978	0.0558	-0.184
Mof_O 	O 	0.6662	0.8906	0.074	-0.172
Mof_O 	O 	0.7276	0.9319	0.1302	-0.157
Mof_O 	O 	0.549	0.8789	0.2071	-0.427
Mof_O 	O 	0.5109	0.924	0.1353	-0.211
Mof_O 	O 	0.7931	0.7463	0.0525	-0.166
Mof_O 	O 	0.8155	0.7407	0.9886	-0.171
Mof_O 	O 	0.9468	0.7674	0.206	-0.176
Mof_O 	O 	0.0094	0.7837	0.1852	-0.173
Mof_O 	O 	0.8102	0.8769	0.1252	-0.156
Mof_O 	O 	0.8675	0.879	0.1905	-0.156
Mof_O 	O 	0.9331	0.5217	0.1292	-0.158
Mof_O 	O 	0.91	0.6066	0.0703	-0.177
Mof_O 	O 	0.9147	0.889	0.3375	-0.177
Mof_O 	O 	0.8596	0.9216	0.2733	-0.157
Mof_O 	O 	0.8114	0.0116	0.4852	-0.177
Mof_O 	O 	0.8543	0.9008	0.4889	-0.184
Mof_O 	O 	0.8038	0.8113	0.3162	-0.189
Mof_O 	O 	0.7741	0.7273	0.3558	-0.195
Mof_O 	O 	0.9742	0.9222	0.5024	-0.21
Mof_O 	O 	0.9463	0.9788	0.4397	-0.212
Mof_C 	C 	0.598	0.8454	0.1148	0.054
Mof_C 	C 	0.6131	0.7706	0.14	-0.07
Mof_C 	C 	0.5989	0.6926	0.1213	0.029
Mof_H 	H 	0.6075	0.6435	0.14	0.051
Mof_C 	C 	0.5717	0.6869	0.0745	-0.076
Mof_H 	H 	0.5623	0.6331	0.0613	0.098
Mof_C 	C 	0.5584	0.7565	0.0476	0.03
Mof_H 	H 	0.5421	0.7512	0.0152	0.052
Mof_C 	C 	0.5689	0.8363	0.068	-0.06
Mof_C 	C 	0.6491	0.7726	0.187	0.274
Mof_C 	C 	0.5492	0.9092	0.0377	0.294
Mof_C 	C 	0.6127	0.927	0.1386	0.079
Mof_C 	C 	0.6541	0.9649	0.1384	-0.069
Mof_C 	C 	0.6705	0.0367	0.1671	0.025
Mof_H 	H 	0.6991	0.0612	0.1678	0.063
Mof_C 	C 	0.6456	0.0711	0.1936	-0.081
Mof_H 	H 	0.6558	0.121	0.2112	0.083
Mof_C 	C 	0.6057	0.0319	0.1943	0.048
Mof_H 	H 	0.5886	0.0544	0.2132	0.049
Mof_C 	C 	0.5896	0.9593	0.1675	-0.106
Mof_C 	C 	0.6834	0.9284	0.113	0.277
Mof_C 	C 	0.5465	0.9178	0.17	0.394
Mof_C 	C 	0.8933	0.767	0.105	0.059
Mof_C 	C 	0.871	0.7875	0.058	-0.051
Mof_C 	C 	0.8925	0.8361	0.0325	0.024
Mof_H 	H 	0.8769	0.8492	0.0006	0.06
Mof_C 	C 	0.9363	0.8653	0.0535	-0.062
Mof_H 	H 	0.9509	0.8987	0.036	0.089
Mof_C 	C 	0.9589	0.847	0.0988	0.019
Mof_H 	H 	0.989	0.8685	0.113	0.074
Mof_C 	C 	0.9381	0.7966	0.125	-0.055
Mof_C 	C 	0.8238	0.756	0.0315	0.285
Mof_C 	C 	0.9663	0.7812	0.1757	0.292
Mof_C 	C 	0.8709	0.7097	0.1316	0.058
Mof_C 	C 	0.8439	0.7441	0.156	-0.041
Mof_C 	C 	0.8221	0.6946	0.1816	0.008
Mof_H 	H 	0.8042	0.7199	0.1989	0.064
Mof_C 	C 	0.8273	0.6065	0.1812	-0.057
Mof_H 	H 	0.8117	0.5713	0.1969	0.068
Mof_C 	C 	0.8549	0.5724	0.158	0.016
Mof_H 	H 	0.8592	0.5132	0.1587	0.066
Mof_C 	C 	0.8775	0.623	0.133	-0.057
Mof_C 	C 	0.8397	0.8385	0.1576	0.277
Mof_C 	C 	0.9085	0.5821	0.1098	0.284
Mof_C 	C 	0.8504	0.934	0.39	0.034
Mof_C 	C 	0.8489	0.9654	0.3456	-0.041
Mof_C 	C 	0.8225	0.0333	0.3261	-0.006
Mof_H 	H 	0.8211	0.0513	0.2954	0.074
Mof_C 	C 	0.7979	0.0762	0.3508	-0.043
Mof_H 	H 	0.7799	0.1239	0.3374	0.069
Mof_C 	C 	0.7998	0.0486	0.3954	-0.008
Mof_H 	H 	0.7838	0.0787	0.4129	0.075
Mof_C 	C 	0.8247	0.9779	0.4144	-0.046
Mof_C 	C 	0.8758	0.9227	0.3183	0.273
Mof_C 	C 	0.8259	0.9528	0.4635	0.264
Mof_C 	C 	0.8741	0.8525	0.4088	0.1
Mof_C 	C 	0.8513	0.7765	0.3944	-0.089
Mof_C 	C 	0.8693	0.7021	0.4143	0.052
Mof_H 	H 	0.8525	0.6516	0.4045	0.045
Mof_C 	C 	0.9124	0.6988	0.4492	-0.093
Mof_H 	H 	0.9255	0.6466	0.4621	0.106
Mof_C 	C 	0.9352	0.7731	0.4643	0.069
Mof_H 	H 	0.9639	0.7724	0.4885	0.039
Mof_C 	C 	0.9166	0.8489	0.4446	-0.12
Mof_C 	C 	0.8065	0.7725	0.3544	0.29
Mof_C 	C 	0.9432	0.9178	0.4647	0.336
Mof_O 	O 	0.512	0.7212	0.3016	-0.315
Mof_O 	O 	0.4553	0.9006	0.2015	-0.451
Mof_Dy	Dy	0.48533	0.83464	0.23986	1.114
Mof_O 	O 	0.4686	0.9757	0.222	-0.081
_end
