# CIF file generated by openbabel 3.1.0, see https://openbabel.org
data_I
_chemical_name_common 'image0'
_cell_length_a 17.25
_cell_length_b 17.57
_cell_length_c 16.79
_cell_angle_alpha 90
_cell_angle_beta 90
_cell_angle_gamma 90
_space_group_name_H-M_alt 'P 1'
_space_group_name_Hall 'P 1'
loop_
    _symmetry_equiv_pos_as_xyz
    x,y,z
loop_
    _atom_site_label
    _atom_site_type_symbol
    _atom_site_fract_x
    _atom_site_fract_y
    _atom_site_fract_z
    _atom_site_occupancy
    N1       N        0.19320    0.29510    0.36580    1.000
    C1       C        0.20870    0.27840    0.29970    1.000
    N2       N        0.69320    0.79510    0.86580    1.000
    C2       C        0.70870    0.77840    0.79970    1.000
    N3       N        0.80680    0.70490    0.36580    1.000
    C3       C        0.79130    0.72160    0.29970    1.000
    N4       N        0.30680    0.20490    0.86580    1.000
    C4       C        0.29130    0.22160    0.79970    1.000
    N5       N        0.30680    0.79510    0.63420    1.000
    C5       C        0.29130    0.77840    0.70030    1.000
    N6       N        0.80680    0.29510    0.13420    1.000
    C6       C        0.79130    0.27840    0.20030    1.000
    N7       N        0.69320    0.20490    0.63420    1.000
    C7       C        0.70870    0.22160    0.70030    1.000
    N8       N        0.19320    0.70490    0.13420    1.000
    C8       C        0.20870    0.72160    0.20030    1.000
    N9       N        0.80680    0.70490    0.63420    1.000
    C9       C        0.79130    0.72160    0.70030    1.000
    N10      N        0.30680    0.20490    0.13420    1.000
    C10      C        0.29130    0.22160    0.20030    1.000
    N11      N        0.19320    0.29510    0.63420    1.000
    C11      C        0.20870    0.27840    0.70030    1.000
    N12      N        0.69320    0.79510    0.13420    1.000
    C12      C        0.70870    0.77840    0.20030    1.000
    N13      N        0.69320    0.20490    0.36580    1.000
    C13      C        0.70870    0.22160    0.29970    1.000
    N14      N        0.19320    0.70490    0.86580    1.000
    C14      C        0.20870    0.72160    0.79970    1.000
    N15      N        0.30680    0.79510    0.36580    1.000
    C15      C        0.29130    0.77840    0.29970    1.000
    N16      N        0.80680    0.29510    0.86580    1.000
    C16      C        0.79130    0.27840    0.79970    1.000
    N17      N        0.47640    0.29530    0.50000    1.000
    C17      C        0.40070    0.30560    0.50000    1.000
    N18      N        0.33740    0.28720    0.50000    1.000
    Cd1      Cd       0.20374    0.28802    0.50000    1.000
    N19      N        0.20060    0.15730    0.50000    1.000
    C18      C        0.20100    0.09420    0.50000    1.000
    N20      N        0.19920    0.01990    0.50000    1.000
    N21      N        0.29900    0.92280    0.50000    1.000
    C19      C        0.26160    0.97650    0.50000    1.000
    C20      C        0.50960    0.22680    0.50000    1.000
    N22      N        0.56810    0.19290    0.50000    1.000
    N23      N        0.97640    0.79530    0.00000    1.000
    C21      C        0.90070    0.80560    0.00000    1.000
    N24      N        0.83740    0.78720    0.00000    1.000
    Cd2      Cd       0.70374    0.78802    0.00000    1.000
    N25      N        0.70060    0.65730    0.00000    1.000
    C22      C        0.70100    0.59420    0.00000    1.000
    N26      N        0.69920    0.51990    0.00000    1.000
    N27      N        0.79900    0.42280    0.00000    1.000
    C23      C        0.76160    0.47650    0.00000    1.000
    C24      C        0.00960    0.72680    0.00000    1.000
    N28      N        0.06810    0.69290    0.00000    1.000
    N29      N        0.52360    0.70470    0.50000    1.000
    C25      C        0.59930    0.69440    0.50000    1.000
    N30      N        0.66260    0.71280    0.50000    1.000
    Cd3      Cd       0.79626    0.71198    0.50000    1.000
    N31      N        0.79940    0.84270    0.50000    1.000
    C26      C        0.79900    0.90580    0.50000    1.000
    N32      N        0.80080    0.98010    0.50000    1.000
    N33      N        0.70100    0.07720    0.50000    1.000
    C27      C        0.73840    0.02350    0.50000    1.000
    C28      C        0.49040    0.77320    0.50000    1.000
    N34      N        0.43190    0.80710    0.50000    1.000
    N35      N        0.02360    0.20470    0.00000    1.000
    C29      C        0.09930    0.19440    0.00000    1.000
    N36      N        0.16260    0.21280    0.00000    1.000
    Cd4      Cd       0.29626    0.21198    0.00000    1.000
    N37      N        0.29940    0.34270    0.00000    1.000
    C30      C        0.29900    0.40580    0.00000    1.000
    N38      N        0.30080    0.48010    0.00000    1.000
    N39      N        0.20100    0.57720    0.00000    1.000
    C31      C        0.23840    0.52350    0.00000    1.000
    C32      C        0.99040    0.27320    0.00000    1.000
    N40      N        0.93190    0.30710    0.00000    1.000
    N41      N        0.02360    0.79530    0.50000    1.000
    C33      C        0.09930    0.80560    0.50000    1.000
    N42      N        0.16260    0.78720    0.50000    1.000
    Cd5      Cd       0.29626    0.78802    0.50000    1.000
    N43      N        0.29940    0.65730    0.50000    1.000
    C34      C        0.29900    0.59420    0.50000    1.000
    N44      N        0.30080    0.51990    0.50000    1.000
    N45      N        0.20100    0.42280    0.50000    1.000
    C35      C        0.23840    0.47650    0.50000    1.000
    C36      C        0.99040    0.72680    0.50000    1.000
    N46      N        0.93190    0.69290    0.50000    1.000
    N47      N        0.52360    0.29530    0.00000    1.000
    C37      C        0.59930    0.30560    0.00000    1.000
    N48      N        0.66260    0.28720    0.00000    1.000
    Cd6      Cd       0.79626    0.28802    0.00000    1.000
    N49      N        0.79940    0.15730    0.00000    1.000
    C38      C        0.79900    0.09420    0.00000    1.000
    N50      N        0.80080    0.01990    0.00000    1.000
    N51      N        0.70100    0.92280    0.00000    1.000
    C39      C        0.73840    0.97650    0.00000    1.000
    C40      C        0.49040    0.22680    0.00000    1.000
    N52      N        0.43190    0.19290    0.00000    1.000
    N53      N        0.97640    0.20470    0.50000    1.000
    C41      C        0.90070    0.19440    0.50000    1.000
    N54      N        0.83740    0.21280    0.50000    1.000
    Cd7      Cd       0.70374    0.21198    0.50000    1.000
    N55      N        0.70060    0.34270    0.50000    1.000
    C42      C        0.70100    0.40580    0.50000    1.000
    N56      N        0.69920    0.48010    0.50000    1.000
    N57      N        0.79900    0.57720    0.50000    1.000
    C43      C        0.76160    0.52350    0.50000    1.000
    C44      C        0.00960    0.27320    0.50000    1.000
    N58      N        0.06810    0.30710    0.50000    1.000
    N59      N        0.47640    0.70470    0.00000    1.000
    C45      C        0.40070    0.69440    0.00000    1.000
    N60      N        0.33740    0.71280    0.00000    1.000
    Cd8      Cd       0.20374    0.71198    0.00000    1.000
    N61      N        0.20060    0.84270    0.00000    1.000
    C46      C        0.20100    0.90580    0.00000    1.000
    N62      N        0.19920    0.98010    0.00000    1.000
    N63      N        0.29900    0.07720    0.00000    1.000
    C47      C        0.26160    0.02350    0.00000    1.000
    C48      C        0.50960    0.77320    0.00000    1.000
    N64      N        0.56810    0.80710    0.00000    1.000
    N65      N        0.25000    0.25000    0.25000    1.000
    N66      N        0.75000    0.75000    0.25000    1.000
    N67      N        0.25000    0.75000    0.75000    1.000
    N68      N        0.75000    0.25000    0.75000    1.000
    N69      N        0.75000    0.75000    0.75000    1.000
    N70      N        0.25000    0.25000    0.75000    1.000
    N71      N        0.75000    0.25000    0.25000    1.000
    N72      N        0.25000    0.75000    0.25000    1.000
