data_functionalizedCrystal
_audit_creation_method	'EQeq! by Chris Wilmer'
_symmetry_space_group_name_H-M	'P1'
_symmetry_Int_Tables_number	1
_symmetry_cell_setting	triclinic
loop_
_symmetry_equiv_pos_as_xyz
  x,y,z
_cell_length_a	20.458
_cell_length_b	12.1157
_cell_length_c	16.971
_cell_angle_alpha	90
_cell_angle_beta	90
_cell_angle_gamma	90
loop_
_atom_site_label
_atom_site_type_symbol
_atom_site_fract_x
_atom_site_fract_y
_atom_site_fract_z
_atom_site_charge
Mof_Zn	Zn	0.9125	0.54354	0.44291	1.238
Mof_O 	O 	0.97623	0.4408	0.4029	-0.434
Mof_O 	O 	0.05703	0.5496	0.32304	-0.468
Mof_O 	O 	0.09417	0.4623	0.44514	-0.433
Mof_O 	O 	0.0591	0.728	0.2081	-0.506
Mof_O 	O 	0.07665	0.7048	0.0803	-0.491
Mof_O 	O 	0.32694	0.0356	0.1062	-0.446
Mof_O 	O 	0.30719	0.8783	0.0428	-0.289
Mof_P 	P 	0.04626	0.45137	0.37768	0.412
Mof_C 	C 	0.0687	0.3298	0.3228	-0.122
Mof_C 	C 	0.1056	0.3394	0.2546	0.061
Mof_H 	H 	0.116	0.4093	0.2356	0.007
Mof_C 	C 	0.1271	0.2474	0.2144	-0.153
Mof_H 	H 	0.1512	0.2563	0.1684	0.095
Mof_C 	C 	0.1137	0.1425	0.2412	0.097
Mof_C 	C 	0.1384	0.0444	0.1977	-0.055
Mof_C 	C 	0.1999	0.0441	0.1631	0.01
Mof_H 	H 	0.2265	0.1059	0.1686	0.051
Mof_C 	C 	0.223	0.9545	0.1206	-0.092
Mof_C 	C 	0.183	0.8636	0.1102	0.053
Mof_H 	H 	0.1969	0.8049	0.079	0.037
Mof_C 	C 	0.1222	0.8602	0.1462	-0.133
Mof_C 	C 	0.1006	0.9495	0.19	0.033
Mof_H 	H 	0.0601	0.946	0.2147	0.015
Mof_C 	C 	0.077	0.1329	0.3096	-0.149
Mof_H 	H 	0.0672	0.0631	0.329	0.078
Mof_C 	C 	0.0549	0.2248	0.3496	0.055
Mof_H 	H 	0.0304	0.2158	0.3952	0.006
Mof_C 	C 	0.2905	0.9552	0.0859	0.339
Mof_C 	C 	0.0825	0.7564	0.1437	0.43
Mof_Zn	Zn	0.5875	0.95646	0.94291	1.232
Mof_O 	O 	0.52377	0.0592	0.9029	-0.492
Mof_O 	O 	0.44297	0.9504	0.82304	-0.458
Mof_O 	O 	0.40583	0.0377	0.94514	-0.432
Mof_O 	O 	0.4409	0.772	0.7081	-0.486
Mof_O 	O 	0.42335	0.7952	0.5803	-0.477
Mof_O 	O 	0.17306	0.4644	0.6062	-0.445
Mof_O 	O 	0.19281	0.6217	0.5428	-0.293
Mof_P 	P 	0.45374	0.04863	0.87768	0.466
Mof_C 	C 	0.4313	0.1702	0.8228	-0.115
Mof_C 	C 	0.3944	0.1606	0.7546	0.066
Mof_H 	H 	0.384	0.0907	0.7356	0.009
Mof_C 	C 	0.3729	0.2526	0.7144	-0.148
Mof_H 	H 	0.3488	0.2437	0.6684	0.097
Mof_C 	C 	0.3863	0.3575	0.7412	0.101
Mof_C 	C 	0.3616	0.4556	0.6977	-0.044
Mof_C 	C 	0.3001	0.4559	0.6631	0.009
Mof_H 	H 	0.2735	0.3941	0.6686	0.052
Mof_C 	C 	0.277	0.5455	0.6206	-0.09
Mof_C 	C 	0.317	0.6364	0.6102	0.048
Mof_H 	H 	0.3031	0.6951	0.579	0.039
Mof_C 	C 	0.3778	0.6398	0.6462	-0.121
Mof_C 	C 	0.3994	0.5505	0.69	0.025
Mof_H 	H 	0.4399	0.554	0.7147	0.034
Mof_C 	C 	0.423	0.3671	0.8096	-0.142
Mof_H 	H 	0.4328	0.4369	0.829	0.089
Mof_C 	C 	0.4451	0.2752	0.8496	0.063
Mof_H 	H 	0.4696	0.2842	0.8952	0.023
Mof_C 	C 	0.2095	0.5448	0.5859	0.337
Mof_C 	C 	0.4175	0.7436	0.6437	0.428
Mof_Zn	Zn	0.0875	0.54354	0.05709	1.23
Mof_O 	O 	0.02377	0.4408	0.0971	-0.548
Mof_O 	O 	0.94297	0.5496	0.17696	-0.436
Mof_O 	O 	0.90583	0.4623	0.05486	-0.431
Mof_O 	O 	0.9409	0.728	0.2919	-0.456
Mof_O 	O 	0.92335	0.7048	0.4197	-0.46
Mof_O 	O 	0.67306	0.0356	0.3938	-0.444
Mof_O 	O 	0.69281	0.8783	0.4572	-0.288
Mof_P 	P 	0.95374	0.45137	0.12232	0.518
Mof_C 	C 	0.9313	0.3298	0.1772	-0.107
Mof_C 	C 	0.8944	0.3394	0.2454	0.071
Mof_H 	H 	0.884	0.4093	0.2644	0.01
Mof_C 	C 	0.8729	0.2474	0.2856	-0.142
Mof_H 	H 	0.8488	0.2563	0.3316	0.099
Mof_C 	C 	0.8863	0.1425	0.2588	0.105
Mof_C 	C 	0.8616	0.0444	0.3023	-0.034
Mof_C 	C 	0.8001	0.0441	0.3369	0.003
Mof_H 	H 	0.7735	0.1059	0.3314	0.054
Mof_C 	C 	0.777	0.9545	0.3794	-0.082
Mof_C 	C 	0.817	0.8636	0.3898	0.042
Mof_H 	H 	0.8031	0.8049	0.421	0.042
Mof_C 	C 	0.8778	0.8602	0.3538	-0.106
Mof_C 	C 	0.8994	0.9495	0.31	0.019
Mof_H 	H 	0.9399	0.946	0.2853	0.054
Mof_C 	C 	0.923	0.1329	0.1904	-0.134
Mof_H 	H 	0.9328	0.0631	0.171	0.099
Mof_C 	C 	0.9451	0.2248	0.1504	0.071
Mof_H 	H 	0.9696	0.2158	0.1048	0.039
Mof_C 	C 	0.7095	0.9552	0.4141	0.335
Mof_C 	C 	0.9175	0.7564	0.3563	0.423
Mof_Zn	Zn	0.4125	0.95646	0.55709	1.233
Mof_O 	O 	0.47623	0.0592	0.5971	-0.493
Mof_O 	O 	0.55703	0.9504	0.67696	-0.457
Mof_O 	O 	0.59417	0.0377	0.55486	-0.432
Mof_O 	O 	0.5591	0.772	0.7919	-0.486
Mof_O 	O 	0.57665	0.7952	0.9197	-0.478
Mof_O 	O 	0.82694	0.4644	0.8938	-0.442
Mof_O 	O 	0.80719	0.6217	0.9572	-0.285
Mof_P 	P 	0.54626	0.04863	0.62232	0.466
Mof_C 	C 	0.5687	0.1702	0.6772	-0.115
Mof_C 	C 	0.6056	0.1606	0.7454	0.066
Mof_H 	H 	0.616	0.0907	0.7644	0.009
Mof_C 	C 	0.6271	0.2526	0.7856	-0.147
Mof_H 	H 	0.6512	0.2437	0.8316	0.097
Mof_C 	C 	0.6137	0.3575	0.7588	0.101
Mof_C 	C 	0.6384	0.4556	0.8023	-0.043
Mof_C 	C 	0.6999	0.4559	0.8369	0.007
Mof_H 	H 	0.7265	0.3941	0.8314	0.052
Mof_C 	C 	0.723	0.5455	0.8794	-0.088
Mof_C 	C 	0.683	0.6364	0.8898	0.047
Mof_H 	H 	0.6969	0.6951	0.921	0.04
Mof_C 	C 	0.6222	0.6398	0.8538	-0.12
Mof_C 	C 	0.6006	0.5505	0.81	0.024
Mof_H 	H 	0.5601	0.554	0.7853	0.034
Mof_C 	C 	0.577	0.3671	0.6904	-0.141
Mof_H 	H 	0.5672	0.4369	0.671	0.089
Mof_C 	C 	0.5549	0.2752	0.6504	0.063
Mof_H 	H 	0.5304	0.2842	0.6048	0.023
Mof_C 	C 	0.7905	0.5448	0.9141	0.334
Mof_C 	C 	0.5825	0.7436	0.8563	0.428
Mof_Zn	Zn	0.0875	0.45646	0.55709	1.23
Mof_O 	O 	0.02377	0.5592	0.5971	-0.548
Mof_O 	O 	0.94297	0.4504	0.67696	-0.436
Mof_O 	O 	0.90583	0.5377	0.55486	-0.431
Mof_O 	O 	0.9409	0.272	0.7919	-0.457
Mof_O 	O 	0.92335	0.2952	0.9197	-0.461
Mof_O 	O 	0.67306	0.9644	0.8938	-0.446
Mof_O 	O 	0.69281	0.1217	0.9572	-0.288
Mof_P 	P 	0.95374	0.54863	0.62232	0.518
Mof_C 	C 	0.9313	0.6702	0.6772	-0.107
Mof_C 	C 	0.8944	0.6606	0.7454	0.071
Mof_H 	H 	0.884	0.5907	0.7644	0.01
Mof_C 	C 	0.8729	0.7526	0.7856	-0.142
Mof_H 	H 	0.8488	0.7437	0.8316	0.098
Mof_C 	C 	0.8863	0.8575	0.7588	0.104
Mof_C 	C 	0.8616	0.9556	0.8023	-0.035
Mof_C 	C 	0.8001	0.9559	0.8369	0.001
Mof_H 	H 	0.7735	0.8941	0.8314	0.054
Mof_C 	C 	0.777	0.0455	0.8794	-0.081
Mof_C 	C 	0.817	0.1364	0.8898	0.042
Mof_H 	H 	0.8031	0.1951	0.921	0.042
Mof_C 	C 	0.8778	0.1398	0.8538	-0.107
Mof_C 	C 	0.8994	0.0505	0.81	0.02
Mof_H 	H 	0.9399	0.054	0.7853	0.053
Mof_C 	C 	0.923	0.8671	0.6904	-0.134
Mof_H 	H 	0.9328	0.9369	0.671	0.099
Mof_C 	C 	0.9451	0.7752	0.6504	0.071
Mof_H 	H 	0.9696	0.7842	0.6048	0.039
Mof_C 	C 	0.7095	0.0448	0.9141	0.337
Mof_C 	C 	0.9175	0.2436	0.8563	0.424
Mof_Zn	Zn	0.4125	0.04354	0.05709	1.233
Mof_O 	O 	0.47623	0.9408	0.0971	-0.492
Mof_O 	O 	0.55703	0.0496	0.17696	-0.458
Mof_O 	O 	0.59417	0.9623	0.05486	-0.43
Mof_O 	O 	0.5591	0.228	0.2919	-0.486
Mof_O 	O 	0.57665	0.2048	0.4197	-0.477
Mof_O 	O 	0.82694	0.5356	0.3938	-0.442
Mof_O 	O 	0.80719	0.3783	0.4572	-0.284
Mof_P 	P 	0.54626	0.95137	0.12232	0.466
Mof_C 	C 	0.5687	0.8298	0.1772	-0.115
Mof_C 	C 	0.6056	0.8394	0.2454	0.066
Mof_H 	H 	0.616	0.9093	0.2644	0.009
Mof_C 	C 	0.6271	0.7474	0.2856	-0.147
Mof_H 	H 	0.6512	0.7563	0.3316	0.097
Mof_C 	C 	0.6137	0.6425	0.2588	0.1
Mof_C 	C 	0.6384	0.5444	0.3023	-0.043
Mof_C 	C 	0.6999	0.5441	0.3369	0.007
Mof_H 	H 	0.7265	0.6059	0.3314	0.053
Mof_C 	C 	0.723	0.4545	0.3794	-0.087
Mof_C 	C 	0.683	0.3636	0.3898	0.047
Mof_H 	H 	0.6969	0.3049	0.421	0.04
Mof_C 	C 	0.6222	0.3602	0.3538	-0.12
Mof_C 	C 	0.6006	0.4495	0.31	0.024
Mof_H 	H 	0.5601	0.446	0.2853	0.034
Mof_C 	C 	0.577	0.6329	0.1904	-0.141
Mof_H 	H 	0.5672	0.5631	0.171	0.089
Mof_C 	C 	0.5549	0.7248	0.1504	0.063
Mof_H 	H 	0.5304	0.7158	0.1048	0.023
Mof_C 	C 	0.7905	0.4552	0.4141	0.334
Mof_C 	C 	0.5825	0.2564	0.3563	0.428
Mof_Zn	Zn	0.9125	0.45646	0.94291	1.237
Mof_O 	O 	0.97623	0.5592	0.9029	-0.437
Mof_O 	O 	0.05703	0.4504	0.82304	-0.467
Mof_O 	O 	0.09417	0.5377	0.94514	-0.433
Mof_O 	O 	0.0591	0.272	0.7081	-0.506
Mof_O 	O 	0.07665	0.2952	0.5803	-0.492
Mof_O 	O 	0.32694	0.9644	0.6062	-0.445
Mof_O 	O 	0.30719	0.1217	0.5428	-0.29
Mof_P 	P 	0.04626	0.54863	0.87768	0.413
Mof_C 	C 	0.0687	0.6702	0.8228	-0.122
Mof_C 	C 	0.1056	0.6606	0.7546	0.061
Mof_H 	H 	0.116	0.5907	0.7356	0.007
Mof_C 	C 	0.1271	0.7526	0.7144	-0.153
Mof_H 	H 	0.1512	0.7437	0.6684	0.095
Mof_C 	C 	0.1137	0.8575	0.7412	0.097
Mof_C 	C 	0.1384	0.9556	0.6977	-0.055
Mof_C 	C 	0.1999	0.9559	0.6631	0.011
Mof_H 	H 	0.2265	0.8941	0.6686	0.05
Mof_C 	C 	0.223	0.0455	0.6206	-0.093
Mof_C 	C 	0.183	0.1364	0.6102	0.053
Mof_H 	H 	0.1969	0.1951	0.579	0.037
Mof_C 	C 	0.1222	0.1398	0.6462	-0.133
Mof_C 	C 	0.1006	0.0505	0.69	0.032
Mof_H 	H 	0.0601	0.054	0.7147	0.015
Mof_C 	C 	0.077	0.8671	0.8096	-0.149
Mof_H 	H 	0.0672	0.9369	0.829	0.078
Mof_C 	C 	0.0549	0.7752	0.8496	0.055
Mof_H 	H 	0.0304	0.7842	0.8952	0.006
Mof_C 	C 	0.2905	0.0448	0.5859	0.337
Mof_C 	C 	0.0825	0.2436	0.6437	0.43
Mof_Zn	Zn	0.5875	0.04354	0.44291	1.233
Mof_O 	O 	0.52377	0.9408	0.4029	-0.493
Mof_O 	O 	0.44297	0.0496	0.32304	-0.457
Mof_O 	O 	0.40583	0.9623	0.44514	-0.432
Mof_O 	O 	0.4409	0.228	0.2081	-0.486
Mof_O 	O 	0.42335	0.2048	0.0803	-0.477
Mof_O 	O 	0.17306	0.5356	0.1062	-0.445
Mof_O 	O 	0.19281	0.3783	0.0428	-0.293
Mof_P 	P 	0.45374	0.95137	0.37768	0.466
Mof_C 	C 	0.4313	0.8298	0.3228	-0.115
Mof_C 	C 	0.3944	0.8394	0.2546	0.066
Mof_H 	H 	0.384	0.9093	0.2356	0.009
Mof_C 	C 	0.3729	0.7474	0.2144	-0.148
Mof_H 	H 	0.3488	0.7563	0.1684	0.097
Mof_C 	C 	0.3863	0.6425	0.2412	0.101
Mof_C 	C 	0.3616	0.5444	0.1977	-0.044
Mof_C 	C 	0.3001	0.5441	0.1631	0.009
Mof_H 	H 	0.2735	0.6059	0.1686	0.052
Mof_C 	C 	0.277	0.4545	0.1206	-0.09
Mof_C 	C 	0.317	0.3636	0.1102	0.049
Mof_H 	H 	0.3031	0.3049	0.079	0.039
Mof_C 	C 	0.3778	0.3602	0.1462	-0.121
Mof_C 	C 	0.3994	0.4495	0.19	0.025
Mof_H 	H 	0.4399	0.446	0.2147	0.034
Mof_C 	C 	0.423	0.6329	0.3096	-0.142
Mof_H 	H 	0.4328	0.5631	0.329	0.089
Mof_C 	C 	0.4451	0.7248	0.3496	0.063
Mof_H 	H 	0.4696	0.7158	0.3952	0.023
Mof_C 	C 	0.2095	0.4552	0.0859	0.337
Mof_C 	C 	0.4175	0.2564	0.1437	0.428
Mof_Zn	Zn	2.27786e-33	0.61899	0.25	1.214
Mof_Zn	Zn	0.5	0.88101	0.75	1.236
Mof_Zn	Zn	8.33385e-33	0.38101	0.75	1.214
Mof_Zn	Zn	0.5	0.11899	0.25	1.236
_end
