data_functionalizedCrystal
_audit_creation_method	'EQeq! by Chris Wilmer'
_symmetry_space_group_name_H-M	'P1'
_symmetry_Int_Tables_number	1
_symmetry_cell_setting	triclinic
loop_
_symmetry_equiv_pos_as_xyz
  x,y,z
_cell_length_a	6.5603
_cell_length_b	15.9846
_cell_length_c	13.4441
_cell_angle_alpha	90
_cell_angle_beta	90
_cell_angle_gamma	90
loop_
_atom_site_label
_atom_site_type_symbol
_atom_site_fract_x
_atom_site_fract_y
_atom_site_fract_z
_atom_site_charge
Mof_O 	O 	0.67103	0.92167	0.32894	-1.836
Mof_O 	O 	0.32415	0.58019	0.6593	-7.231
Mof_C 	C 	0.31443	0.7808	0.45533	-0.3
Mof_C 	C 	0.31412	0.71188	0.51963	0.727
Mof_H 	H 	0.17045	0.80599	0.43035	0.068
Mof_H 	H 	0.17014	0.68583	0.54288	-0.279
Mof_O 	O 	0.17001	0.42137	0.82924	-7.405
Mof_O 	O 	0.82478	0.08084	0.15944	-2.453
Mof_C 	C 	0.81389	0.28106	0.95609	0.484
Mof_C 	C 	0.81433	0.21211	0.02018	-0.132
Mof_H 	H 	0.66997	0.30625	0.93116	-0.218
Mof_H 	H 	0.67067	0.18595	0.04338	-0.003
Mof_O 	O 	0.32219	0.08221	0.33171	-2.377
Mof_O 	O 	0.66786	0.4234	0.66193	-7.328
Mof_C 	C 	0.67963	0.22083	0.46092	-0.301
Mof_C 	C 	0.67966	0.28995	0.52495	0.694
Mof_H 	H 	0.82387	0.19573	0.43623	0.071
Mof_H 	H 	0.82375	0.31627	0.5484	-0.205
Mof_O 	O 	0.82201	0.58251	0.83135	-7.316
Mof_O 	O 	0.16814	0.92345	0.16185	-1.915
Mof_C 	C 	0.17957	0.7214	0.9602	0.365
Mof_C 	C 	0.1798	0.79032	0.02447	-0.218
Mof_H 	H 	0.32367	0.69653	0.93516	-0.166
Mof_H 	H 	0.32384	0.81644	0.0483	0.115
Mof_O 	O 	0.66783	0.0822	0.33109	-2.418
Mof_O 	O 	0.3228	0.42401	0.66023	-7.254
Mof_C 	C 	0.31128	0.22104	0.46067	-0.322
Mof_C 	C 	0.31109	0.29015	0.52475	0.672
Mof_H 	H 	0.16702	0.19604	0.43588	-0.025
Mof_H 	H 	0.1669	0.3167	0.54784	-0.301
Mof_O 	O 	0.16857	0.58292	0.82988	-7.406
Mof_O 	O 	0.8221	0.9239	0.16063	-1.867
Mof_C 	C 	0.8111	0.72149	0.96003	0.511
Mof_C 	C 	0.81118	0.79041	0.02433	-0.081
Mof_H 	H 	0.66679	0.69667	0.93499	-0.184
Mof_H 	H 	0.66716	0.81668	0.0479	0.099
Mof_O 	O 	0.32503	0.92179	0.32948	-1.778
Mof_O 	O 	0.67036	0.58076	0.65937	-7.287
Mof_C 	C 	0.68293	0.78079	0.45556	-0.274
Mof_C 	C 	0.68242	0.71173	0.51994	0.743
Mof_H 	H 	0.82749	0.80599	0.43057	0.16
Mof_H 	H 	0.82673	0.68567	0.54345	-0.178
Mof_O 	O 	0.82455	0.42236	0.82992	-7.329
Mof_O 	O 	0.17042	0.08071	0.15975	-2.516
Mof_C 	C 	0.18257	0.28125	0.95596	0.335
Mof_C 	C 	0.18273	0.21216	0.02013	-0.273
Mof_H 	H 	0.32689	0.30655	0.93093	-0.195
Mof_H 	H 	0.32701	0.18606	0.04347	0.014
Mof_Al	Al	0.74492	0.00313	0.24597	9.478
Mof_Al	Al	0.24402	0.5027	0.7461	31.472
Mof_Al	Al	0.24461	0.00306	0.24645	8.99
Mof_Al	Al	0.74482	0.50292	0.74655	31.939
Mof_O 	O 	0.99486	0.00467	0.29987	-4.536
Mof_O 	O 	0.49404	0.50392	0.79971	-14.037
Mof_O 	O 	0.49525	0.00479	0.19327	-4.624
Mof_O 	O 	0.99393	0.50371	0.69305	-14.024
Mof_C 	C 	0.49777	0.67774	0.55476	-1.668
Mof_C 	C 	0.49868	0.81729	0.42412	-0.106
Mof_C 	C 	0.49711	0.60849	0.6287	4.926
Mof_C 	C 	0.49825	0.89157	0.35713	1.44
Mof_C 	C 	0.99846	0.1781	0.05512	-0.224
Mof_C 	C 	0.99778	0.31763	0.92475	-1.437
Mof_C 	C 	0.99787	0.10874	0.12894	1.68
Mof_C 	C 	0.99711	0.39186	0.85769	5.024
Mof_C 	C 	0.49553	0.32474	0.55871	-1.713
Mof_C 	C 	0.49552	0.18493	0.42861	-0.271
Mof_C 	C 	0.49571	0.39517	0.63091	4.96
Mof_C 	C 	0.49518	0.11172	0.36008	1.476
Mof_C 	C 	0.9956	0.82489	0.05855	-0.071
Mof_C 	C 	0.99547	0.68558	0.92769	-1.391
Mof_C 	C 	0.99529	0.89519	0.13114	1.641
Mof_C 	C 	0.99566	0.61228	0.85908	5.003
Mof_H 	H 	0.99276	0.50377	0.62882	4.066
Mof_H 	H 	0.49297	0.50424	0.86374	3.976
Mof_H 	H 	0.49552	0.00573	0.12915	1.165
Mof_H 	H 	0.99484	0.00542	0.36402	1.179
_end
