# CIF file generated by openbabel 3.1.0, see https://openbabel.org
data_I
_chemical_name_common 'image0'
_cell_length_a 26.1243
_cell_length_b 26.1243
_cell_length_c 6.8752
_cell_angle_alpha 90
_cell_angle_beta 90
_cell_angle_gamma 120
_space_group_name_H-M_alt 'P 1'
_space_group_name_Hall 'P 1'
loop_
    _symmetry_equiv_pos_as_xyz
    x,y,z
loop_
    _atom_site_label
    _atom_site_type_symbol
    _atom_site_fract_x
    _atom_site_fract_y
    _atom_site_fract_z
    _atom_site_occupancy
    Fe1      Fe       0.38284    0.35180    0.14790    1.000
    O1       O        0.32708    0.29516    0.36190    1.000
    O2       O        0.30065    0.22525    0.59290    1.000
    O3       O        0.35544    0.27360    0.00590    1.000
    C1       C        0.31936    0.24711    0.42340    1.000
    C2       C        0.32668    0.20573    0.28720    1.000
    C3       C        0.34574    0.22231    0.09560    1.000
    C4       C        0.35073    0.18081    0.97680    1.000
    H1       H        0.36320    0.19310    0.83080    1.000
    O4       O        0.47040    0.35150    0.24900    1.000
    N1       N        0.51756    0.39191    0.21330    1.000
    N2       N        0.56100    0.43090    0.16350    1.000
    N3       N        0.50900    0.37320    0.33270    1.000
    O5       O        0.55910    0.40270    0.40200    1.000
    N4       N        0.46190    0.34810    0.28530    1.000
    N5       N        0.47110    0.36300    0.26830    1.000
    O6       O        0.56570    0.41870    0.14200    1.000
    Fe2      Fe       0.04951    0.68513    0.48123    1.000
    O7       O        0.99375    0.62849    0.69523    1.000
    O8       O        0.96732    0.55858    0.92623    1.000
    O9       O        0.02211    0.60693    0.33923    1.000
    C5       C        0.98603    0.58044    0.75673    1.000
    C6       C        0.99335    0.53906    0.62053    1.000
    C7       C        0.01241    0.55564    0.42893    1.000
    C8       C        0.01740    0.51414    0.31013    1.000
    H2       H        0.02987    0.52643    0.16413    1.000
    O10      O        0.13707    0.68483    0.58233    1.000
    N6       N        0.18423    0.72524    0.54663    1.000
    N7       N        0.22767    0.76423    0.49683    1.000
    N8       N        0.17567    0.70653    0.66603    1.000
    O11      O        0.22577    0.73603    0.73533    1.000
    N9       N        0.12857    0.68143    0.61863    1.000
    N10      N        0.13777    0.69633    0.60163    1.000
    O12      O        0.23237    0.75203    0.47533    1.000
    Fe3      Fe       0.71617    0.01847    0.81457    1.000
    O13      O        0.66041    0.96183    0.02857    1.000
    O14      O        0.63398    0.89192    0.25957    1.000
    O15      O        0.68877    0.94027    0.67257    1.000
    C9       C        0.65269    0.91378    0.09007    1.000
    C10      C        0.66001    0.87240    0.95387    1.000
    C11      C        0.67907    0.88898    0.76227    1.000
    C12      C        0.68406    0.84748    0.64347    1.000
    H3       H        0.69653    0.85977    0.49747    1.000
    O16      O        0.80373    0.01817    0.91567    1.000
    N11      N        0.85089    0.05858    0.87997    1.000
    N12      N        0.89433    0.09757    0.83017    1.000
    N13      N        0.84233    0.03987    0.99937    1.000
    O17      O        0.89243    0.06937    0.06867    1.000
    N14      N        0.79523    0.01477    0.95197    1.000
    N15      N        0.80443    0.02967    0.93497    1.000
    O18      O        0.89903    0.08537    0.80867    1.000
    Fe4      Fe       0.64820    0.03104    0.14790    1.000
    O19      O        0.70484    0.03192    0.36190    1.000
    O20      O        0.77475    0.07540    0.59290    1.000
    O21      O        0.72640    0.08184    0.00590    1.000
    C13      C        0.75289    0.07225    0.42340    1.000
    C14      C        0.79427    0.12095    0.28720    1.000
    C15      C        0.77769    0.12343    0.09560    1.000
    C16      C        0.81919    0.16992    0.97680    1.000
    H4       H        0.80690    0.17010    0.83080    1.000
    O22      O        0.64850    0.11890    0.24900    1.000
    N16      N        0.60809    0.12565    0.21330    1.000
    N17      N        0.56910    0.13010    0.16350    1.000
    N18      N        0.62680    0.13580    0.33270    1.000
    O23      O        0.59730    0.15640    0.40200    1.000
    N19      N        0.65190    0.11380    0.28530    1.000
    N20      N        0.63700    0.10810    0.26830    1.000
    O24      O        0.58130    0.14700    0.14200    1.000
    Fe5      Fe       0.31487    0.36437    0.48123    1.000
    O25      O        0.37151    0.36525    0.69523    1.000
    O26      O        0.44142    0.40873    0.92623    1.000
    O27      O        0.39307    0.41517    0.33923    1.000
    C17      C        0.41956    0.40558    0.75673    1.000
    C18      C        0.46094    0.45428    0.62053    1.000
    C19      C        0.44436    0.45676    0.42893    1.000
    C20      C        0.48586    0.50325    0.31013    1.000
    H5       H        0.47357    0.50343    0.16413    1.000
    O28      O        0.31517    0.45223    0.58233    1.000
    N21      N        0.27476    0.45898    0.54663    1.000
    N22      N        0.23577    0.46343    0.49683    1.000
    N23      N        0.29347    0.46913    0.66603    1.000
    O29      O        0.26397    0.48973    0.73533    1.000
    N24      N        0.31857    0.44713    0.61863    1.000
    N25      N        0.30367    0.44143    0.60163    1.000
    O30      O        0.24797    0.48033    0.47533    1.000
    Fe6      Fe       0.98153    0.69771    0.81457    1.000
    O31      O        0.03817    0.69859    0.02857    1.000
    O32      O        0.10808    0.74207    0.25957    1.000
    O33      O        0.05973    0.74851    0.67257    1.000
    C21      C        0.08622    0.73892    0.09007    1.000
    C22      C        0.12760    0.78762    0.95387    1.000
    C23      C        0.11102    0.79010    0.76227    1.000
    C24      C        0.15252    0.83659    0.64347    1.000
    H6       H        0.14023    0.83677    0.49747    1.000
    O34      O        0.98183    0.78557    0.91567    1.000
    N26      N        0.94142    0.79232    0.87997    1.000
    N27      N        0.90243    0.79677    0.83017    1.000
    N28      N        0.96013    0.80247    0.99937    1.000
    O35      O        0.93063    0.82307    0.06867    1.000
    N29      N        0.98523    0.78047    0.95197    1.000
    N30      N        0.97033    0.77477    0.93497    1.000
    O36      O        0.91463    0.81367    0.80867    1.000
    Fe7      Fe       0.96896    0.61716    0.14790    1.000
    O37      O        0.96808    0.67292    0.36190    1.000
    O38      O        0.92460    0.69935    0.59290    1.000
    O39      O        0.91816    0.64456    0.00590    1.000
    C25      C        0.92775    0.68064    0.42340    1.000
    C26      C        0.87905    0.67332    0.28720    1.000
    C27      C        0.87657    0.65426    0.09560    1.000
    C28      C        0.83008    0.64927    0.97680    1.000
    H7       H        0.82990    0.63680    0.83080    1.000
    O40      O        0.88110    0.52960    0.24900    1.000
    N31      N        0.87435    0.48244    0.21330    1.000
    N32      N        0.86990    0.43900    0.16350    1.000
    N33      N        0.86420    0.49100    0.33270    1.000
    O41      O        0.84360    0.44090    0.40200    1.000
    N34      N        0.88620    0.53810    0.28530    1.000
    N35      N        0.89190    0.52890    0.26830    1.000
    O42      O        0.85300    0.43430    0.14200    1.000
    Fe8      Fe       0.63563    0.95049    0.48123    1.000
    O43      O        0.63475    0.00625    0.69523    1.000
    O44      O        0.59127    0.03268    0.92623    1.000
    O45      O        0.58483    0.97789    0.33923    1.000
    C29      C        0.59442    0.01397    0.75673    1.000
    C30      C        0.54572    0.00665    0.62053    1.000
    C31      C        0.54324    0.98759    0.42893    1.000
    C32      C        0.49675    0.98260    0.31013    1.000
    H8       H        0.49657    0.97013    0.16413    1.000
    O46      O        0.54777    0.86293    0.58233    1.000
    N36      N        0.54102    0.81577    0.54663    1.000
    N37      N        0.53657    0.77233    0.49683    1.000
    N38      N        0.53087    0.82433    0.66603    1.000
    O47      O        0.51027    0.77423    0.73533    1.000
    N39      N        0.55287    0.87143    0.61863    1.000
    N40      N        0.55857    0.86223    0.60163    1.000
    O48      O        0.51967    0.76763    0.47533    1.000
    Fe9      Fe       0.30229    0.28383    0.81457    1.000
    O49      O        0.30141    0.33959    0.02857    1.000
    O50      O        0.25793    0.36602    0.25957    1.000
    O51      O        0.25149    0.31123    0.67257    1.000
    C33      C        0.26108    0.34731    0.09007    1.000
    C34      C        0.21238    0.33999    0.95387    1.000
    C35      C        0.20990    0.32093    0.76227    1.000
    C36      C        0.16341    0.31594    0.64347    1.000
    H9       H        0.16323    0.30347    0.49747    1.000
    O52      O        0.21443    0.19627    0.91567    1.000
    N41      N        0.20768    0.14911    0.87997    1.000
    N42      N        0.20323    0.10567    0.83017    1.000
    N43      N        0.19753    0.15767    0.99937    1.000
    O53      O        0.17693    0.10757    0.06867    1.000
    N44      N        0.21953    0.20477    0.95197    1.000
    N45      N        0.22523    0.19557    0.93497    1.000
    O54      O        0.18633    0.10097    0.80867    1.000
    Fe10     Fe       0.61716    0.64820    0.85210    1.000
    O55      O        0.67292    0.70484    0.63810    1.000
    O56      O        0.69935    0.77475    0.40710    1.000
    O57      O        0.64456    0.72640    0.99410    1.000
    C37      C        0.68064    0.75289    0.57660    1.000
    C38      C        0.67332    0.79427    0.71280    1.000
    C39      C        0.65426    0.77769    0.90440    1.000
    C40      C        0.64927    0.81919    0.02320    1.000
    H10      H        0.63680    0.80690    0.16920    1.000
    O58      O        0.52960    0.64850    0.75100    1.000
    N46      N        0.48244    0.60809    0.78670    1.000
    N47      N        0.43900    0.56910    0.83650    1.000
    N48      N        0.49100    0.62680    0.66730    1.000
    O59      O        0.44090    0.59730    0.59800    1.000
    N49      N        0.53810    0.65190    0.71470    1.000
    N50      N        0.52890    0.63700    0.73170    1.000
    O60      O        0.43430    0.58130    0.85800    1.000
    Fe11     Fe       0.28383    0.98153    0.18543    1.000
    O61      O        0.33959    0.03817    0.97143    1.000
    O62      O        0.36602    0.10808    0.74043    1.000
    O63      O        0.31123    0.05973    0.32743    1.000
    C41      C        0.34731    0.08622    0.90993    1.000
    C42      C        0.33999    0.12760    0.04613    1.000
    C43      C        0.32093    0.11102    0.23773    1.000
    C44      C        0.31594    0.15252    0.35653    1.000
    H11      H        0.30347    0.14023    0.50253    1.000
    O64      O        0.19627    0.98183    0.08433    1.000
    N51      N        0.14911    0.94142    0.12003    1.000
    N52      N        0.10567    0.90243    0.16983    1.000
    N53      N        0.15767    0.96013    0.00063    1.000
    O65      O        0.10757    0.93063    0.93133    1.000
    N54      N        0.20477    0.98523    0.04803    1.000
    N55      N        0.19557    0.97033    0.06503    1.000
    O66      O        0.10097    0.91463    0.19133    1.000
    Fe12     Fe       0.95049    0.31487    0.51877    1.000
    O67      O        0.00625    0.37151    0.30477    1.000
    O68      O        0.03268    0.44142    0.07377    1.000
    O69      O        0.97789    0.39307    0.66077    1.000
    C45      C        0.01397    0.41956    0.24327    1.000
    C46      C        0.00665    0.46094    0.37947    1.000
    C47      C        0.98759    0.44436    0.57107    1.000
    C48      C        0.98260    0.48586    0.68987    1.000
    H12      H        0.97013    0.47357    0.83587    1.000
    O70      O        0.86293    0.31517    0.41767    1.000
    N56      N        0.81577    0.27476    0.45337    1.000
    N57      N        0.77233    0.23577    0.50317    1.000
    N58      N        0.82433    0.29347    0.33397    1.000
    O71      O        0.77423    0.26397    0.26467    1.000
    N59      N        0.87143    0.31857    0.38137    1.000
    N60      N        0.86223    0.30367    0.39837    1.000
    O72      O        0.76763    0.24797    0.52467    1.000
    Fe13     Fe       0.35180    0.96896    0.85210    1.000
    O73      O        0.29516    0.96808    0.63810    1.000
    O74      O        0.22525    0.92460    0.40710    1.000
    O75      O        0.27360    0.91816    0.99410    1.000
    C49      C        0.24711    0.92775    0.57660    1.000
    C50      C        0.20573    0.87905    0.71280    1.000
    C51      C        0.22231    0.87657    0.90440    1.000
    C52      C        0.18081    0.83008    0.02320    1.000
    H13      H        0.19310    0.82990    0.16920    1.000
    O76      O        0.35150    0.88110    0.75100    1.000
    N61      N        0.39191    0.87435    0.78670    1.000
    N62      N        0.43090    0.86990    0.83650    1.000
    N63      N        0.37320    0.86420    0.66730    1.000
    O77      O        0.40270    0.84360    0.59800    1.000
    N64      N        0.34810    0.88620    0.71470    1.000
    N65      N        0.36300    0.89190    0.73170    1.000
    O78      O        0.41870    0.85300    0.85800    1.000
    Fe14     Fe       0.01847    0.30229    0.18543    1.000
    O79      O        0.96183    0.30141    0.97143    1.000
    O80      O        0.89192    0.25793    0.74043    1.000
    O81      O        0.94027    0.25149    0.32743    1.000
    C53      C        0.91378    0.26108    0.90993    1.000
    C54      C        0.87240    0.21238    0.04613    1.000
    C55      C        0.88898    0.20990    0.23773    1.000
    C56      C        0.84748    0.16341    0.35653    1.000
    H14      H        0.85977    0.16323    0.50253    1.000
    O82      O        0.01817    0.21443    0.08433    1.000
    N66      N        0.05858    0.20768    0.12003    1.000
    N67      N        0.09757    0.20323    0.16983    1.000
    N68      N        0.03987    0.19753    0.00063    1.000
    O83      O        0.06937    0.17693    0.93133    1.000
    N69      N        0.01477    0.21953    0.04803    1.000
    N70      N        0.02967    0.22523    0.06503    1.000
    O84      O        0.08537    0.18633    0.19133    1.000
    Fe15     Fe       0.68513    0.63563    0.51877    1.000
    O85      O        0.62849    0.63475    0.30477    1.000
    O86      O        0.55858    0.59127    0.07377    1.000
    O87      O        0.60693    0.58483    0.66077    1.000
    C57      C        0.58044    0.59442    0.24327    1.000
    C58      C        0.53906    0.54572    0.37947    1.000
    C59      C        0.55564    0.54324    0.57107    1.000
    C60      C        0.51414    0.49675    0.68987    1.000
    H15      H        0.52643    0.49657    0.83587    1.000
    O88      O        0.68483    0.54777    0.41767    1.000
    N71      N        0.72524    0.54102    0.45337    1.000
    N72      N        0.76423    0.53657    0.50317    1.000
    N73      N        0.70653    0.53087    0.33397    1.000
    O89      O        0.73603    0.51027    0.26467    1.000
    N74      N        0.68143    0.55287    0.38137    1.000
    N75      N        0.69633    0.55857    0.39837    1.000
    O90      O        0.75203    0.51967    0.52467    1.000
    Fe16     Fe       0.03104    0.38284    0.85210    1.000
    O91      O        0.03192    0.32708    0.63810    1.000
    O92      O        0.07540    0.30065    0.40710    1.000
    O93      O        0.08184    0.35544    0.99410    1.000
    C61      C        0.07225    0.31936    0.57660    1.000
    C62      C        0.12095    0.32668    0.71280    1.000
    C63      C        0.12343    0.34574    0.90440    1.000
    C64      C        0.16992    0.35073    0.02320    1.000
    H16      H        0.17010    0.36320    0.16920    1.000
    O94      O        0.11890    0.47040    0.75100    1.000
    N76      N        0.12565    0.51756    0.78670    1.000
    N77      N        0.13010    0.56100    0.83650    1.000
    N78      N        0.13580    0.50900    0.66730    1.000
    O95      O        0.15640    0.55910    0.59800    1.000
    N79      N        0.11380    0.46190    0.71470    1.000
    N80      N        0.10810    0.47110    0.73170    1.000
    O96      O        0.14700    0.56570    0.85800    1.000
    Fe17     Fe       0.69771    0.71617    0.18543    1.000
    O97      O        0.69859    0.66041    0.97143    1.000
    O98      O        0.74207    0.63398    0.74043    1.000
    O99      O        0.74851    0.68877    0.32743    1.000
    C65      C        0.73892    0.65269    0.90993    1.000
    C66      C        0.78762    0.66001    0.04613    1.000
    C67      C        0.79010    0.67907    0.23773    1.000
    C68      C        0.83659    0.68406    0.35653    1.000
    H17      H        0.83677    0.69653    0.50253    1.000
    O100     O        0.78557    0.80373    0.08433    1.000
    N81      N        0.79232    0.85089    0.12003    1.000
    N82      N        0.79677    0.89433    0.16983    1.000
    N83      N        0.80247    0.84233    0.00063    1.000
    O101     O        0.82307    0.89243    0.93133    1.000
    N84      N        0.78047    0.79523    0.04803    1.000
    N85      N        0.77477    0.80443    0.06503    1.000
    O102     O        0.81367    0.89903    0.19133    1.000
    Fe18     Fe       0.36437    0.04951    0.51877    1.000
    O103     O        0.36525    0.99375    0.30477    1.000
    O104     O        0.40873    0.96732    0.07377    1.000
    O105     O        0.41517    0.02211    0.66077    1.000
    C69      C        0.40558    0.98603    0.24327    1.000
    C70      C        0.45428    0.99335    0.37947    1.000
    C71      C        0.45676    0.01241    0.57107    1.000
    C72      C        0.50325    0.01740    0.68987    1.000
    H18      H        0.50343    0.02987    0.83587    1.000
    O106     O        0.45223    0.13707    0.41767    1.000
    N86      N        0.45898    0.18423    0.45337    1.000
    N87      N        0.46343    0.22767    0.50317    1.000
    N88      N        0.46913    0.17567    0.33397    1.000
    O107     O        0.48973    0.22577    0.26467    1.000
    N89      N        0.44713    0.12857    0.38137    1.000
    N90      N        0.44143    0.13777    0.39837    1.000
    O108     O        0.48033    0.23237    0.52467    1.000
