data_functionalizedCrystal
_audit_creation_method	'EQeq! by Chris Wilmer'
_symmetry_space_group_name_H-M	'P1'
_symmetry_Int_Tables_number	1
_symmetry_cell_setting	triclinic
loop_
_symmetry_equiv_pos_as_xyz
  x,y,z
_cell_length_a	15.1267
_cell_length_b	15.1267
_cell_length_c	12.0363
_cell_angle_alpha	90
_cell_angle_beta	90
_cell_angle_gamma	90
loop_
_atom_site_label
_atom_site_type_symbol
_atom_site_fract_x
_atom_site_fract_y
_atom_site_fract_z
_atom_site_charge
Mof_O 	O 	0.6013	0.2904	0.7559	-0.513
Mof_O 	O 	0.618	0.3771	0.6085	-0.516
Mof_C 	C 	0.5958	0.3627	0.7052	0.443
Mof_C 	C 	0.5467	0.4356	0.7604	-0.101
Mof_C 	C 	0.5476	0.4332	0.8794	-0.041
Mof_H 	H 	0.57318	0.38162	0.90735	0.069
Mof_O 	O 	0.1013	0.7904	0.2559	-0.525
Mof_O 	O 	0.118	0.8771	0.1085	-0.531
Mof_C 	C 	0.0958	0.8627	0.2052	0.448
Mof_C 	C 	0.0467	0.9356	0.2604	-0.108
Mof_C 	C 	0.0476	0.9332	0.3794	0.021
Mof_H 	H 	0.07318	0.88162	0.40735	0.033
Mof_O 	O 	0.8987	0.2096	0.2559	-0.525
Mof_O 	O 	0.882	0.1229	0.1085	-0.534
Mof_C 	C 	0.9042	0.1373	0.2052	0.449
Mof_C 	C 	0.9533	0.0644	0.2604	-0.117
Mof_C 	C 	0.9524	0.0668	0.3794	0.01
Mof_H 	H 	0.92682	0.11838	0.40735	0.036
Mof_O 	O 	0.3987	0.7096	0.7559	-0.511
Mof_O 	O 	0.382	0.6229	0.6085	-0.516
Mof_C 	C 	0.4042	0.6373	0.7052	0.443
Mof_C 	C 	0.4533	0.5644	0.7604	-0.1
Mof_C 	C 	0.4524	0.5668	0.8794	-0.041
Mof_H 	H 	0.42682	0.61838	0.90735	0.07
Mof_O 	O 	0.7096	0.1013	0.0059	-0.618
Mof_O 	O 	0.6229	0.118	0.8585	-0.565
Mof_C 	C 	0.6373	0.0958	0.9552	0.66
Mof_C 	C 	0.5644	0.0467	0.0104	-0.406
Mof_C 	C 	0.5668	0.0476	0.1294	0.154
Mof_H 	H 	0.61838	0.07318	0.15735	-0.019
Mof_O 	O 	0.2096	0.6013	0.5059	-0.523
Mof_O 	O 	0.1229	0.618	0.3585	-0.526
Mof_C 	C 	0.1373	0.5958	0.4552	0.456
Mof_C 	C 	0.0644	0.5467	0.5104	-0.138
Mof_C 	C 	0.0668	0.5476	0.6294	0.024
Mof_H 	H 	0.11838	0.57318	0.65735	0.031
Mof_O 	O 	0.7904	0.3987	0.5059	-0.521
Mof_O 	O 	0.8771	0.382	0.3585	-0.523
Mof_C 	C 	0.8627	0.4042	0.4552	0.454
Mof_C 	C 	0.9356	0.4533	0.5104	-0.129
Mof_C 	C 	0.9332	0.4524	0.6294	0.034
Mof_H 	H 	0.88162	0.42682	0.65735	0.029
Mof_O 	O 	0.2904	0.8987	0.0059	-0.615
Mof_O 	O 	0.3771	0.882	0.8585	-0.558
Mof_C 	C 	0.3627	0.9042	0.9552	0.662
Mof_C 	C 	0.4356	0.9533	0.0104	-0.39
Mof_C 	C 	0.4332	0.9524	0.1294	0.176
Mof_H 	H 	0.38162	0.92682	0.15735	-0.022
Mof_O 	O 	0.8987	0.2904	0.9941	-0.414
Mof_O 	O 	0.882	0.3771	0.1415	-0.469
Mof_C 	C 	0.9042	0.3627	0.0448	0.23
Mof_C 	C 	0.9533	0.4356	0.9896	0.179
Mof_C 	C 	0.9524	0.4332	0.8706	-0.157
Mof_H 	H 	0.92682	0.38162	0.84265	0.097
Mof_O 	O 	0.3987	0.7904	0.4941	-0.516
Mof_O 	O 	0.382	0.8771	0.6415	-0.505
Mof_C 	C 	0.4042	0.8627	0.5448	0.438
Mof_C 	C 	0.4533	0.9356	0.4896	-0.083
Mof_C 	C 	0.4524	0.9332	0.3706	-0.013
Mof_H 	H 	0.42682	0.88162	0.34265	0.045
Mof_O 	O 	0.6013	0.2096	0.4941	-0.52
Mof_O 	O 	0.618	0.1229	0.6415	-0.513
Mof_C 	C 	0.5958	0.1373	0.5448	0.44
Mof_C 	C 	0.5467	0.0644	0.4896	-0.103
Mof_C 	C 	0.5476	0.0668	0.3706	-0.034
Mof_H 	H 	0.57318	0.11838	0.34265	0.049
Mof_O 	O 	0.1013	0.7096	0.9941	-0.415
Mof_O 	O 	0.118	0.6229	0.1415	-0.472
Mof_C 	C 	0.0958	0.6373	0.0448	0.231
Mof_C 	C 	0.0467	0.5644	0.9896	0.169
Mof_C 	C 	0.0476	0.5668	0.8706	-0.168
Mof_H 	H 	0.07318	0.61838	0.84265	0.099
Mof_O 	O 	0.7904	0.1013	0.7441	-0.513
Mof_O 	O 	0.8771	0.118	0.8915	-0.49
Mof_C 	C 	0.8627	0.0958	0.7948	0.436
Mof_C 	C 	0.9356	0.0467	0.7396	-0.094
Mof_C 	C 	0.9332	0.0476	0.6206	-0.002
Mof_H 	H 	0.88162	0.07318	0.59265	0.039
Mof_O 	O 	0.2904	0.6013	0.2441	-0.53
Mof_O 	O 	0.3771	0.618	0.3915	-0.522
Mof_C 	C 	0.3627	0.5958	0.2948	0.459
Mof_C 	C 	0.4356	0.5467	0.2396	-0.149
Mof_C 	C 	0.4332	0.5476	0.1206	0.032
Mof_H 	H 	0.38162	0.57318	0.09265	0.011
Mof_O 	O 	0.7096	0.3987	0.2441	-0.528
Mof_O 	O 	0.6229	0.382	0.3915	-0.522
Mof_C 	C 	0.6373	0.4042	0.2948	0.458
Mof_C 	C 	0.5644	0.4533	0.2396	-0.149
Mof_C 	C 	0.5668	0.4524	0.1206	0.031
Mof_H 	H 	0.61838	0.42682	0.09265	0.012
Mof_O 	O 	0.2096	0.8987	0.7441	-0.509
Mof_O 	O 	0.1229	0.882	0.8915	-0.486
Mof_C 	C 	0.1373	0.9042	0.7948	0.435
Mof_C 	C 	0.0644	0.9533	0.7396	-0.083
Mof_C 	C 	0.0668	0.9524	0.6206	0.009
Mof_H 	H 	0.11838	0.92682	0.59265	0.039
Mof_V 	V 	0.69016	0.30984	0.5	1.807
Mof_V 	V 	0.19016	0.80984	-0	1.784
Mof_V 	V 	0.80984	0.19016	-0	1.784
Mof_V 	V 	0.30984	0.69016	0.5	1.808
Mof_V 	V 	0.69016	0.19016	0.75	1.81
Mof_V 	V 	0.19016	0.69016	0.25	1.805
Mof_V 	V 	0.80984	0.30984	0.25	1.805
Mof_V 	V 	0.30984	0.80984	0.75	1.81
Mof_O 	O 	0.7463	0.25	0.625	-0.824
Mof_H 	H 	0.806	0.25	0.625	0.254
Mof_O 	O 	0.2463	0.75	0.125	-0.831
Mof_H 	H 	0.306	0.75	0.125	0.249
Mof_O 	O 	0.7537	0.25	0.125	-0.831
Mof_H 	H 	0.694	0.25	0.125	0.248
Mof_O 	O 	0.2537	0.75	0.625	-0.824
Mof_H 	H 	0.194	0.75	0.625	0.254
Mof_O 	O 	0.75	0.2463	0.875	-0.808
Mof_H 	H 	0.75	0.306	0.875	0.259
Mof_O 	O 	0.25	0.7463	0.375	-0.824
Mof_H 	H 	0.25	0.806	0.375	0.256
Mof_O 	O 	0.75	0.2537	0.375	-0.824
Mof_H 	H 	0.75	0.194	0.375	0.254
Mof_O 	O 	0.25	0.7537	0.875	-0.808
Mof_H 	H 	0.25	0.694	0.875	0.258
Mof_C 	C 	0.5	0.5	0.703	0.057
Mof_C 	C 	0.5	0.5	0.9362	0.091
Mof_H 	H 	0.5	0.5	0.626	0.052
Mof_C 	C 	6.05629e-34	1.14572e-33	0.203	0.034
Mof_C 	C 	1.30136e-33	0	0.4362	-0.034
Mof_H 	H 	3.75908e-34	0	0.126	0.037
Mof_C 	C 	0.5	0	0.953	0.409
Mof_C 	C 	0.5	1.14572e-33	0.1862	-0.138
Mof_H 	H 	0.5	0	0.876	-0.067
Mof_C 	C 	1.35148e-33	0.5	0.453	0.077
Mof_C 	C 	-7.11857e-33	0.5	0.6862	-0.054
Mof_H 	H 	5.70464e-33	0.5	0.376	0.036
Mof_C 	C 	-1.57836e-33	0.5	0.047	-0.31
Mof_C 	C 	-6.73789e-33	0.5	0.8138	0.112
Mof_H 	H 	1.51566e-33	0.5	0.124	0.164
Mof_C 	C 	0.5	0	0.547	0.025
Mof_C 	C 	0.5	2.29144e-33	0.3138	0.026
Mof_H 	H 	0.5	4.58289e-33	0.624	0.061
Mof_C 	C 	-2.20512e-33	0	0.797	0.013
Mof_C 	C 	1.68204e-33	0	0.5638	-0.023
Mof_H 	H 	2.60749e-33	0	0.874	0.068
Mof_C 	C 	0.5	0.5	0.297	0.097
Mof_C 	C 	0.5	0.5	0.0638	-0.09
Mof_H 	H 	0.5	0.5	0.374	0.037
_end
