data_functionalizedCrystal
_audit_creation_method	'EQeq! by Chris Wilmer'
_symmetry_space_group_name_H-M	'P1'
_symmetry_Int_Tables_number	1
_symmetry_cell_setting	triclinic
loop_
_symmetry_equiv_pos_as_xyz
  x,y,z
_cell_length_a	16.0633
_cell_length_b	24.2576
_cell_length_c	24.2576
_cell_angle_alpha	64.728
_cell_angle_beta	77.248
_cell_angle_gamma	102.752
loop_
_atom_site_label
_atom_site_type_symbol
_atom_site_fract_x
_atom_site_fract_y
_atom_site_fract_z
_atom_site_charge
Mof_Cu	Cu	0.53565	0.46045	0.03351	0.798
Mof_Cu	Cu	0.92189	0.50654	0.02076	0.916
Mof_Cu	Cu	0.41535	0.4727	0.50654	0.917
Mof_Cu	Cu	0.58465	0.5273	0.49346	0.917
Mof_Cu	Cu	0.46435	0.53955	0.96649	0.798
Mof_Cu	Cu	0.43084	0.96649	0.49396	0.798
Mof_Cu	Cu	0.05735	0.97924	0.5273	0.916
Mof_Cu	Cu	0.94265	0.02076	0.4727	0.916
Mof_Cu	Cu	0.07811	0.49346	0.97924	0.916
Mof_Cu	Cu	0.9248	0.49396	0.53955	0.798
Mof_Cu	Cu	0.56916	0.03351	0.50604	0.798
Mof_Cu	Cu	0.0752	0.50604	0.46045	0.798
Mof_H 	H 	0.7716	0.409	0.9336	0.02
Mof_H 	H 	0.0118	0.5576	0.2481	0.092
Mof_H 	H 	0.815	0.7661	0.424	0.094
Mof_H 	H 	0.4047	0.629	0.0083	-0.012
Mof_H 	H 	0.2243	0.6373	0.371	-0.012
Mof_H 	H 	0.9276	0.6268	0.5199	0.004
Mof_H 	H 	0.587	0.9917	0.6373	-0.012
Mof_H 	H 	0.0765	0.524	0.3291	0.004
Mof_H 	H 	0.7557	0.4977	0.5048	-0.006
Mof_H 	H 	0.5458	0.8057	0.4424	0.091
Mof_H 	H 	0.2137	0.7415	0.6863	0.093
Mof_H 	H 	0.3626	0.6574	0.409	0.02
Mof_H 	H 	0.4542	0.1943	0.5576	0.091
Mof_H 	H 	0.9664	0.5391	0.1714	0.018
Mof_H 	H 	0.761	0.576	0.1901	0.094
Mof_H 	H 	0.5953	0.371	0.9917	-0.012
Mof_H 	H 	0.4475	0.5199	0.8533	0.004
Mof_H 	H 	0.0495	0.2144	0.4335	0.02
Mof_H 	H 	0.258	0.9975	0.4977	-0.006
Mof_H 	H 	0.6547	0.2435	0.6185	0.094
Mof_H 	H 	0.2284	0.591	0.0664	0.02
Mof_H 	H 	0.7268	0.3815	0.862	0.095
Mof_H 	H 	0.3008	0.8533	0.6268	0.004
Mof_H 	H 	0.9235	0.476	0.6709	0.004
Mof_H 	H 	0.2599	0.2481	0.1943	0.091
Mof_H 	H 	0.7863	0.2585	0.3137	0.093
Mof_H 	H 	0.742	0.0025	0.5023	-0.006
Mof_H 	H 	0.413	0.0083	0.3627	-0.012
Mof_H 	H 	0.4732	0.1915	0.1239	0.024
Mof_H 	H 	0.0531	0.8626	0.6529	0.021
Mof_H 	H 	0.7395	0.4952	0.0025	-0.006
Mof_H 	H 	0.1905	0.4845	0.8626	0.021
Mof_H 	H 	0.2948	0.0664	0.3426	0.021
Mof_H 	H 	0.2817	0.6846	0.1915	0.024
Mof_H 	H 	0.7757	0.3627	0.629	-0.012
Mof_H 	H 	0.0724	0.3732	0.4801	0.004
Mof_H 	H 	0.003	0.2852	0.1349	0.024
Mof_H 	H 	0.5278	0.4278	0.2585	0.094
Mof_H 	H 	0.1379	0.1349	0.5799	0.019
Mof_H 	H 	0.997	0.7148	0.8651	0.024
Mof_H 	H 	0.9469	0.1374	0.3471	0.021
Mof_H 	H 	0.5944	0.6709	0.8531	0.004
Mof_H 	H 	0.0336	0.4609	0.8286	0.018
Mof_H 	H 	0.294	0.3471	0.5155	0.021
Mof_H 	H 	0.4273	0.2895	0.5391	0.02
Mof_H 	H 	0.517	0.5665	0.6479	0.02
Mof_H 	H 	0.5525	0.4801	0.1467	0.004
Mof_H 	H 	0.8622	0.8286	0.7105	0.021
Mof_H 	H 	0.4722	0.5722	0.7415	0.094
Mof_H 	H 	0.239	0.424	0.8099	0.094
Mof_H 	H 	0.6992	0.1467	0.3732	0.004
Mof_H 	H 	0.9505	0.7856	0.5665	0.02
Mof_H 	H 	0.8621	0.8651	0.4201	0.019
Mof_H 	H 	0.2822	0.4201	0.7148	0.019
Mof_H 	H 	0.7183	0.3154	0.8085	0.024
Mof_H 	H 	0.4112	0.138	0.2435	0.094
Mof_H 	H 	0.5727	0.7105	0.4609	0.02
Mof_H 	H 	0.3453	0.7565	0.3815	0.094
Mof_H 	H 	0.2605	0.5048	0.9975	-0.006
Mof_H 	H 	0.185	0.2339	0.576	0.094
Mof_H 	H 	0.5268	0.8085	0.8761	0.024
Mof_H 	H 	0.9511	0.1901	0.2339	0.091
Mof_H 	H 	0.4029	0.8761	0.3154	0.024
Mof_H 	H 	0.4475	0.8531	0.476	0.004
Mof_H 	H 	0.5971	0.1239	0.6846	0.024
Mof_H 	H 	0.6374	0.3426	0.591	0.02
Mof_H 	H 	0.5888	0.862	0.7565	0.094
Mof_H 	H 	0.5525	0.1469	0.524	0.004
Mof_H 	H 	0.9	0.6863	0.5722	0.094
Mof_H 	H 	0.706	0.6529	0.4845	0.021
Mof_H 	H 	0.8351	0.3521	0.2144	0.022
Mof_H 	H 	0.9882	0.4424	0.7519	0.092
Mof_H 	H 	0.1	0.3137	0.4278	0.094
Mof_H 	H 	0.2443	0.5023	0.4952	-0.006
Mof_H 	H 	0.483	0.4335	0.3521	0.02
Mof_H 	H 	0.1378	0.1714	0.2895	0.021
Mof_H 	H 	0.4056	0.3291	0.1469	0.004
Mof_H 	H 	0.7178	0.5799	0.2852	0.019
Mof_H 	H 	0.8095	0.5155	0.1374	0.021
Mof_H 	H 	0.1649	0.6479	0.7856	0.022
Mof_H 	H 	0.0489	0.8099	0.7661	0.091
Mof_H 	H 	0.7052	0.9336	0.6574	0.021
Mof_H 	H 	0.7401	0.7519	0.8057	0.091
Mof_H 	H 	0.2732	0.6185	0.138	0.095
Mof_C 	C 	0.14633	0.28358	0.50289	0.121
Mof_C 	C 	0.5256	0.71891	0.44621	0.077
Mof_C 	C 	0.56232	0.12209	0.56183	0.045
Mof_C 	C 	0.05225	0.1	0.51005	0.376
Mof_C 	C 	0.85859	0.31946	0.21809	0.08
Mof_C 	C 	0.5179	0.3904	0.5455	0.364
Mof_C 	C 	0.55182	0.33974	0.03268	0.108
Mof_C 	C 	0.70476	0.54722	0.22264	-0.166
Mof_C 	C 	0.22724	0.46292	0.4956	0.097
Mof_C 	C 	0.78792	0.37242	0.66026	0.109
Mof_C 	C 	0.46087	0.53755	0.68054	0.085
Mof_C 	C 	0.17694	0.34728	0.49966	-0.08
Mof_C 	C 	0.3573	0.1459	0.2532	-0.158
Mof_C 	C 	0.72284	0.4956	0.04148	0.096
Mof_C 	C 	0.6427	0.8541	0.7468	-0.158
Mof_C 	C 	0.23568	0.95852	0.53708	0.096
Mof_C 	C 	0.28656	0.10222	0.31194	0.082
Mof_C 	C 	0.4899	0.22341	0.56601	-0.159
Mof_C 	C 	0.82894	0.26329	0.27757	-0.159
Mof_C 	C 	0.95225	0.38995	0.1	0.369
Mof_C 	C 	0.4821	0.6096	0.4545	0.364
Mof_C 	C 	0.5884	0.10827	0.65667	0.053
Mof_C 	C 	0.94409	0.43399	0.78942	-0.162
Mof_C 	C 	0.2615	0.87444	0.61284	0.044
Mof_C 	C 	0.9366	0.4545	0.9359	0.367
Mof_C 	C 	0.29524	0.45278	0.77736	-0.166
Mof_C 	C 	0.92211	0.32834	0.16391	-0.133
Mof_C 	C 	0.92332	0.78191	0.53755	0.085
Mof_C 	C 	0.61294	0.48728	0.12556	0.045
Mof_C 	C 	0.44355	0.7915	0.41005	0.118
Mof_C 	C 	0.87122	0.82948	0.45012	0.083
Mof_C 	C 	0.05591	0.56601	0.21058	-0.162
Mof_C 	C 	0.87434	0.61284	0.51272	0.045
Mof_C 	C 	0.32134	0.45012	0.7204	0.082
Mof_C 	C 	0.1275	0.0641	0.3904	0.364
Mof_C 	C 	0.04174	0.7204	0.82948	0.073
Mof_C 	C 	0.4319	0.854	0.3968	-0.079
Mof_C 	C 	0.51987	0.76494	0.89173	0.053
Mof_C 	C 	0.4155	0.96732	0.37242	0.108
Mof_C 	C 	0.67866	0.54988	0.2796	0.082
Mof_C 	C 	0.7886	0.3991	0.8541	-0.161
Mof_C 	C 	0.6105	0.2532	0.6009	-0.159
Mof_C 	C 	0.15754	0.23014	0.54722	-0.166
Mof_C 	C 	0.5985	0.31194	0.58584	0.082
Mof_C 	C 	0.5623	0.51005	0.38995	0.374
Mof_C 	C 	0.12415	0.56183	0.31608	0.045
Mof_C 	C 	0.84246	0.76986	0.45278	-0.166
Mof_C 	C 	0.2114	0.6009	0.1459	-0.161
Mof_C 	C 	0.3895	0.7468	0.3991	-0.159
Mof_C 	C 	0.4703	0.67435	0.43645	-0.131
Mof_C 	C 	0.71344	0.89778	0.68806	0.082
Mof_C 	C 	0.07668	0.21809	0.46245	0.085
Mof_C 	C 	0.24507	0.65667	0.23506	0.053
Mof_C 	C 	0.43435	0.54086	0.73671	-0.163
Mof_C 	C 	0.74371	0.62848	0.49185	0.057
Mof_C 	C 	0.55977	0.68392	0.87791	0.045
Mof_C 	C 	0.19331	0.16512	0.28109	0.076
Mof_C 	C 	0.55645	0.2085	0.58995	0.118
Mof_C 	C 	0.88477	0.12033	0.37152	0.057
Mof_C 	C 	0.43768	0.87791	0.43817	0.045
Mof_C 	C 	0.3234	0.50034	0.84694	-0.08
Mof_C 	C 	0.10651	0.27757	0.45914	-0.163
Mof_C 	C 	0.40623	0.49225	0.67166	-0.138
Mof_C 	C 	0.90675	0.43645	0.8892	-0.133
Mof_C 	C 	0.8725	0.9359	0.6096	0.364
Mof_C 	C 	0.73351	0.78942	0.77659	-0.159
Mof_C 	C 	0.13725	0.78647	0.71642	0.117
Mof_C 	C 	0.12566	0.38716	0.48728	0.045
Mof_C 	C 	0.59377	0.50775	0.32834	-0.138
Mof_C 	C 	0.7385	0.12556	0.38716	0.044
Mof_C 	C 	0.79595	0.8892	0.67435	-0.13
Mof_C 	C 	0.97181	0.44621	0.83488	0.081
Mof_C 	C 	0.0726	0.77736	0.76986	-0.16
Mof_C 	C 	0.20405	0.1108	0.32565	-0.13
Mof_C 	C 	0.4116	0.89173	0.34333	0.053
Mof_C 	C 	0.95826	0.2796	0.17052	0.073
Mof_C 	C 	0.89349	0.72243	0.54086	-0.163
Mof_C 	C 	0.44818	0.66026	0.96732	0.108
Mof_C 	C 	0.25629	0.37152	0.50815	0.057
Mof_C 	C 	0.23556	0.49185	0.87967	0.057
Mof_C 	C 	0.11523	0.87967	0.62848	0.057
Mof_C 	C 	0.76432	0.04148	0.46292	0.096
Mof_C 	C 	0.5101	0.77659	0.43399	-0.159
Mof_C 	C 	0.5297	0.32565	0.56355	-0.131
Mof_C 	C 	0.86275	0.21353	0.28358	0.117
Mof_C 	C 	0.53913	0.46245	0.31946	0.085
Mof_C 	C 	0.82966	0.15306	0.34728	-0.079
Mof_C 	C 	0.09325	0.56355	0.1108	-0.133
Mof_C 	C 	0.1464	0.58995	0.20155	0.12
Mof_C 	C 	0.65205	0.79845	0.7915	0.118
Mof_C 	C 	0.44023	0.31608	0.12209	0.045
Mof_C 	C 	0.75493	0.34333	0.76494	0.053
Mof_C 	C 	0.27716	0.5044	0.95852	0.096
Mof_C 	C 	0.1713	0.6032	0.2508	-0.08
Mof_C 	C 	0.21208	0.62758	0.33974	0.109
Mof_C 	C 	0.26649	0.21058	0.22341	-0.159
Mof_C 	C 	0.85367	0.71642	0.49711	0.121
Mof_C 	C 	0.5845	0.03268	0.62758	0.108
Mof_C 	C 	0.07789	0.67166	0.83609	-0.133
Mof_C 	C 	0.14141	0.68054	0.78191	0.08
Mof_C 	C 	0.8536	0.41005	0.79845	0.12
Mof_C 	C 	0.38706	0.51272	0.87444	0.045
Mof_C 	C 	0.34795	0.20155	0.2085	0.118
Mof_C 	C 	0.80669	0.83488	0.71891	0.076
Mof_C 	C 	0.08602	0.16391	0.50775	-0.138
Mof_C 	C 	0.8287	0.3968	0.7492	-0.08
Mof_C 	C 	0.4377	0.48995	0.61005	0.374
Mof_C 	C 	0.81566	0.41416	0.89778	0.084
Mof_C 	C 	0.56565	0.45914	0.26329	-0.163
Mof_C 	C 	0.87585	0.43817	0.68392	0.045
Mof_C 	C 	0.6766	0.49966	0.15306	-0.08
Mof_C 	C 	0.0634	0.5455	0.0641	0.367
Mof_C 	C 	0.76444	0.50815	0.12033	0.057
Mof_C 	C 	0.35078	0.49711	0.78647	0.121
Mof_C 	C 	0.4744	0.28109	0.55379	0.077
Mof_C 	C 	0.77276	0.53708	0.5044	0.097
Mof_C 	C 	0.12878	0.17052	0.54988	0.083
Mof_C 	C 	0.04775	0.61005	0.9	0.369
Mof_C 	C 	0.5681	0.146	0.6032	-0.079
Mof_C 	C 	0.9274	0.22264	0.23014	-0.16
Mof_C 	C 	0.4015	0.68806	0.41416	0.082
Mof_C 	C 	0.48013	0.23506	0.10827	0.053
Mof_C 	C 	0.94775	0.9	0.48995	0.376
Mof_C 	C 	0.5779	0.7492	0.854	-0.079
Mof_C 	C 	0.18434	0.58584	0.10222	0.084
Mof_C 	C 	0.82306	0.65272	0.50034	-0.08
Mof_C 	C 	0.64922	0.50289	0.21353	0.121
Mof_C 	C 	0.4221	0.2508	0.146	-0.079
Mof_C 	C 	0.17106	0.73671	0.72243	-0.159
Mof_C 	C 	0.91398	0.83609	0.49225	-0.138
Mof_C 	C 	0.17034	0.84694	0.65272	-0.079
Mof_C 	C 	0.02819	0.55379	0.16512	0.081
Mof_I 	I 	0.48146	0.09392	0.43353	-0.439
Mof_I 	I 	0.91499	0.43353	0.47255	-0.44
Mof_I 	I 	0.61246	0.52745	0.90608	-0.44
Mof_I 	I 	0.38754	0.47255	0.09392	-0.44
Mof_I 	I 	0.51854	0.90608	0.56647	-0.439
Mof_I 	I 	0.08501	0.56647	0.52745	-0.44
Mof_N 	N 	0.59593	0.05092	0.66973	-0.132
Mof_N 	N 	0.42999	0.9358	0.42673	-0.24
Mof_N 	N 	0.40407	0.94908	0.33027	-0.132
Mof_N 	N 	0.85672	0.42673	0.63747	-0.24
Mof_N 	N 	0.73434	0.33027	0.72065	-0.132
Mof_N 	N 	0.57001	0.0642	0.57327	-0.24
Mof_N 	N 	0.26566	0.66973	0.27935	-0.132
Mof_N 	N 	0.29594	0.9302	0.55508	-0.234
Mof_N 	N 	0.14767	0.93504	0.57123	-0.186
Mof_N 	N 	0.85233	0.06496	0.42877	-0.186
Mof_N 	N 	0.2811	0.42877	0.50627	-0.186
Mof_N 	N 	0.70406	0.0698	0.44492	-0.234
Mof_N 	N 	0.45499	0.72065	0.94908	-0.132
Mof_N 	N 	0.54501	0.27935	0.05092	-0.132
Mof_N 	N 	0.63426	0.48528	0.0698	-0.235
Mof_N 	N 	0.85102	0.55508	0.51472	-0.234
Mof_N 	N 	0.78737	0.50627	0.06496	-0.187
Mof_N 	N 	0.36574	0.51472	0.9302	-0.235
Mof_N 	N 	0.7189	0.57123	0.49373	-0.186
Mof_N 	N 	0.14328	0.57327	0.36253	-0.24
Mof_N 	N 	0.50581	0.36253	0.0642	-0.24
Mof_N 	N 	0.14898	0.44492	0.48528	-0.234
Mof_N 	N 	0.21263	0.49373	0.93504	-0.187
Mof_N 	N 	0.49419	0.63747	0.9358	-0.24
Mof_O 	O 	0.00822	0.90651	0.51365	-0.41
Mof_O 	O 	0.58512	0.43748	0.53282	-0.398
Mof_O 	O 	0.95143	0.93512	0.60813	-0.4
Mof_O 	O 	0.37753	0.46638	0.59239	-0.397
Mof_O 	O 	0.62247	0.53362	0.40761	-0.397
Mof_O 	O 	0.44044	0.39187	0.54325	-0.401
Mof_O 	O 	0.11794	0.53282	0.0297	-0.398
Mof_O 	O 	0.10171	0.57984	0.90651	-0.407
Mof_O 	O 	0.14764	0.0297	0.43748	-0.397
Mof_O 	O 	0.85236	0.9703	0.56252	-0.397
Mof_O 	O 	0.04857	0.06488	0.39187	-0.4
Mof_O 	O 	0.98369	0.54325	0.06488	-0.403
Mof_O 	O 	0.55956	0.60813	0.45675	-0.401
Mof_O 	O 	0.47813	0.48635	0.42016	-0.408
Mof_O 	O 	0.89829	0.42016	0.09349	-0.407
Mof_O 	O 	0.08885	0.05877	0.53362	-0.396
Mof_O 	O 	0.96992	0.59239	0.94123	-0.394
Mof_O 	O 	0.99178	0.09349	0.48635	-0.41
Mof_O 	O 	0.88206	0.46718	0.9703	-0.398
Mof_O 	O 	0.41488	0.56252	0.46718	-0.398
Mof_O 	O 	0.91115	0.94123	0.46638	-0.396
Mof_O 	O 	0.52187	0.51365	0.57984	-0.408
Mof_O 	O 	0.01631	0.45675	0.93512	-0.403
Mof_O 	O 	0.03008	0.40761	0.05877	-0.394
_end
