# CIF file generated by openbabel 3.1.0, see https://openbabel.org
data_I
_chemical_name_common 'image0'
_cell_length_a 12.219
_cell_length_b 16.015
_cell_length_c 22.014
_cell_angle_alpha 90
_cell_angle_beta 99.223
_cell_angle_gamma 90
_space_group_name_H-M_alt 'P 1'
_space_group_name_Hall 'P 1'
loop_
    _symmetry_equiv_pos_as_xyz
    x,y,z
loop_
    _atom_site_label
    _atom_site_type_symbol
    _atom_site_fract_x
    _atom_site_fract_y
    _atom_site_fract_z
    _atom_site_occupancy
    Cu1      Cu       0.25800    0.66900    0.10889    1.000
    Cu2      Cu       0.96160    0.66350    0.24734    1.000
    Cu3      Cu       0.61120    0.50810    0.17476    1.000
    Cu4      Cu       0.58610    0.19800    0.19689    1.000
    Cu5      Cu       0.08010    0.59800    0.89341    1.000
    Cu6      Cu       0.30330    0.97960    0.12349    1.000
    Cu7      Cu       0.60530    0.20640    0.43022    1.000
    Cu8      Cu       0.02450    0.79920    0.45396    1.000
    Cu9      Cu       0.66590    0.90850    0.50148    1.000
    N1       N        0.14900    0.60980    0.98080    1.000
    C1       C        0.19000    0.63200    0.02910    1.000
    C2       C        0.30450    0.86140    0.11480    1.000
    C3       C        0.29500    0.79160    0.10970    1.000
    N2       N        0.15190    0.66690    0.17080    1.000
    C4       C        0.08200    0.66290    0.19910    1.000
    N3       N        0.99600    0.75600    0.37150    1.000
    C5       C        0.97700    0.72100    0.32460    1.000
    C6       C        0.39700    0.60760    0.13820    1.000
    C7       C        0.47400    0.57110    0.14910    1.000
    C8       C        0.82900    0.60300    0.22280    1.000
    C9       C        0.74900    0.56920    0.20510    1.000
    C10      C        0.59700    0.38930    0.17140    1.000
    C11      C        0.58200    0.31800    0.17400    1.000
    N4       N        0.73640    0.16040    0.17420    1.000
    C12      C        0.18700    0.63550    0.84560    1.000
    N5       N        0.15600    0.03010    0.11830    1.000
    C13      C        0.93300    0.55600    0.88490    1.000
    N6       N        0.47150    0.11680    0.15960    1.000
    C14      C        0.40900    0.06390    0.14710    1.000
    N7       N        0.59850    0.19570    0.28960    1.000
    C15      C        0.59700    0.20300    0.34320    1.000
    N8       N        0.74840    0.25630    0.47270    1.000
    C16      C        0.17000    0.77790    0.49920    1.000
    N9       N        0.81390    0.86980    0.49260    1.000
    C17      C        0.89800    0.84700    0.47950    1.000
    N10      N        0.48630    0.27560    0.46010    1.000
    C18      C        0.57500    0.82370    0.52470    1.000
    N11      N        0.60690    0.08870    0.46250    1.000
    C19      C        0.63100    0.02100    0.47950    1.000
    Cu10     Cu       0.74200    0.16900    0.89111    1.000
    Cu11     Cu       0.03840    0.16350    0.75266    1.000
    Cu12     Cu       0.38880    0.00810    0.82524    1.000
    Cu13     Cu       0.41390    0.69800    0.80311    1.000
    Cu14     Cu       0.91990    0.09800    0.10659    1.000
    Cu15     Cu       0.69670    0.47960    0.87651    1.000
    Cu16     Cu       0.39470    0.70640    0.56978    1.000
    Cu17     Cu       0.97550    0.29920    0.54604    1.000
    Cu18     Cu       0.33410    0.40850    0.49852    1.000
    N12      N        0.85100    0.10980    0.01920    1.000
    C20      C        0.81000    0.13200    0.97090    1.000
    C21      C        0.69550    0.36140    0.88520    1.000
    C22      C        0.70500    0.29160    0.89030    1.000
    N13      N        0.84810    0.16690    0.82920    1.000
    C23      C        0.91800    0.16290    0.80090    1.000
    N14      N        0.00400    0.25600    0.62850    1.000
    C24      C        0.02300    0.22100    0.67540    1.000
    C25      C        0.60300    0.10760    0.86180    1.000
    C26      C        0.52600    0.07110    0.85090    1.000
    C27      C        0.17100    0.10300    0.77720    1.000
    C28      C        0.25100    0.06920    0.79490    1.000
    C29      C        0.40300    0.88930    0.82860    1.000
    C30      C        0.41800    0.81800    0.82600    1.000
    N15      N        0.26360    0.66040    0.82580    1.000
    C31      C        0.81300    0.13550    0.15440    1.000
    N16      N        0.84400    0.53010    0.88170    1.000
    C32      C        0.06700    0.05600    0.11510    1.000
    N17      N        0.52850    0.61680    0.84040    1.000
    C33      C        0.59100    0.56390    0.85290    1.000
    N18      N        0.40150    0.69570    0.71040    1.000
    C34      C        0.40300    0.70300    0.65680    1.000
    N19      N        0.25160    0.75630    0.52730    1.000
    C35      C        0.83000    0.27790    0.50080    1.000
    N20      N        0.18610    0.36980    0.50740    1.000
    C36      C        0.10200    0.34700    0.52050    1.000
    N21      N        0.51370    0.77560    0.53990    1.000
    C37      C        0.42500    0.32370    0.47530    1.000
    N22      N        0.39310    0.58870    0.53750    1.000
    C38      C        0.36900    0.52100    0.52050    1.000
