data_functionalizedCrystal
_audit_creation_method	'EQeq! by Chris Wilmer'
_symmetry_space_group_name_H-M	'P1'
_symmetry_Int_Tables_number	1
_symmetry_cell_setting	triclinic
loop_
_symmetry_equiv_pos_as_xyz
  x,y,z
_cell_length_a	14.303
_cell_length_b	18.7159
_cell_length_c	17.0511
_cell_angle_alpha	90
_cell_angle_beta	102.118
_cell_angle_gamma	90
loop_
_atom_site_label
_atom_site_type_symbol
_atom_site_fract_x
_atom_site_fract_y
_atom_site_fract_z
_atom_site_charge
Mof_P 	P 	0.50998	0.66327	0.30974	0.462
Mof_P 	P 	0.72302	0.75539	0.50144	0.474
Mof_S 	S 	0.0073	0.5303	0.7036	0.194
Mof_C 	C 	0.7089	0.8136	0.2748	-0.072
Mof_H 	H 	0.6985	0.8459	0.3166	0.081
Mof_H 	H 	0.6762	0.833	0.2236	0.065
Mof_C 	C 	0.6848	0.6913	0.2235	-0.033
Mof_H 	H 	0.6512	0.7078	0.1712	0.055
Mof_H 	H 	0.6603	0.6444	0.2328	0.017
Mof_C 	C 	0.5639	0.7487	0.2893	-0.214
Mof_H 	H 	0.5293	0.7671	0.2383	0.116
Mof_H 	H 	0.557	0.7828	0.3305	0.111
Mof_C 	C 	0.799	0.6865	0.7371	-0.059
Mof_H 	H 	0.865	0.7024	0.7495	0.081
Mof_H 	H 	0.7986	0.6363	0.7227	0.062
Mof_C 	C 	0.7435	0.8052	0.6892	-0.078
Mof_H 	H 	0.7056	0.8318	0.6449	0.081
Mof_H 	H 	0.808	0.8241	0.6999	0.092
Mof_C 	C 	0.7877	0.7153	0.5947	-0.22
Mof_H 	H 	0.7912	0.6641	0.5866	0.096
Mof_H 	H 	0.8525	0.7336	0.6059	0.127
Mof_N 	N 	0.6679	0.7422	0.2869	-0.131
Mof_H 	H 	0.6993	0.7251	0.3353	0.126
Mof_N 	N 	0.7451	0.7282	0.6673	-0.129
Mof_H 	H 	0.6837	0.712	0.6559	0.127
Mof_O 	O 	0.4677	0.6299	0.2303	-0.283
Mof_O 	O 	0.4364	0.685	0.3594	-0.492
Mof_O 	O 	0.5882	0.6207	0.3635	-0.578
Mof_O 	O 	0.7416	0.8356	0.5061	-0.211
Mof_O 	O 	0.7665	0.7194	0.4379	-0.274
Mof_O 	O 	0.6178	0.7395	0.4963	-0.517
Mof_O 	O 	0.6292	0.5655	0.525	-0.659
Mof_O 	O 	0.994	0.6022	0.6704	-0.12
Mof_O 	O 	0.061	0.5454	0.7773	-0.2
Mof_P 	P 	0.00998	0.16327	0.80974	0.345
Mof_P 	P 	0.22302	0.25539	0.00144	0.323
Mof_S 	S 	0.5073	0.0303	0.2036	-0.355
Mof_C 	C 	0.2089	0.3136	0.7748	-0.07
Mof_H 	H 	0.1985	0.3459	0.8166	0.079
Mof_H 	H 	0.1762	0.333	0.7236	0.054
Mof_C 	C 	0.1848	0.1913	0.7235	-0.028
Mof_H 	H 	0.1512	0.2078	0.6712	0.05
Mof_H 	H 	0.1603	0.1444	0.7328	0.008
Mof_C 	C 	0.0639	0.2487	0.7893	-0.182
Mof_H 	H 	0.0293	0.2671	0.7383	0.077
Mof_H 	H 	0.057	0.2828	0.8305	0.093
Mof_C 	C 	0.299	0.1865	0.2371	-0.057
Mof_H 	H 	0.365	0.2024	0.2495	0.063
Mof_H 	H 	0.2986	0.1363	0.2227	0.06
Mof_C 	C 	0.2435	0.3052	0.1892	-0.078
Mof_H 	H 	0.2056	0.3318	0.1449	0.063
Mof_H 	H 	0.308	0.3241	0.1999	0.081
Mof_C 	C 	0.2877	0.2153	0.0947	-0.186
Mof_H 	H 	0.2912	0.1641	0.0866	0.071
Mof_H 	H 	0.3525	0.2336	0.1059	0.094
Mof_N 	N 	0.1679	0.2422	0.7869	-0.137
Mof_H 	H 	0.1993	0.2251	0.8353	0.13
Mof_N 	N 	0.2451	0.2282	0.1673	-0.134
Mof_H 	H 	0.1837	0.212	0.1559	0.126
Mof_O 	O 	0.9677	0.1299	0.7303	-0.207
Mof_O 	O 	0.9364	0.185	0.8594	-0.356
Mof_O 	O 	0.0882	0.1207	0.8635	-0.534
Mof_O 	O 	0.2416	0.3356	0.0061	-0.255
Mof_O 	O 	0.2665	0.2194	0.9379	-0.199
Mof_O 	O 	0.1178	0.2395	0.9963	-0.362
Mof_O 	O 	0.1292	0.0655	0.025	-0.65
Mof_O 	O 	0.494	0.1022	0.1704	-0.063
Mof_O 	O 	0.561	0.0454	0.2773	-0.075
Mof_P 	P 	0.49002	0.66327	0.69026	0.463
Mof_P 	P 	0.27698	0.75539	0.49856	0.47
Mof_S 	S 	0.9927	0.5303	0.2964	0.374
Mof_C 	C 	0.2911	0.8136	0.7252	-0.09
Mof_H 	H 	0.3015	0.8459	0.6834	0.082
Mof_H 	H 	0.3238	0.833	0.7764	0.075
Mof_C 	C 	0.3152	0.6913	0.7765	-0.053
Mof_H 	H 	0.3488	0.7078	0.8288	0.081
Mof_H 	H 	0.3397	0.6444	0.7672	0.032
Mof_C 	C 	0.4361	0.7487	0.7107	-0.216
Mof_H 	H 	0.4707	0.7671	0.7617	0.122
Mof_H 	H 	0.443	0.7828	0.6695	0.111
Mof_C 	C 	0.201	0.6865	0.2629	-0.042
Mof_H 	H 	0.135	0.7024	0.2505	0.044
Mof_H 	H 	0.2014	0.6363	0.2773	0.048
Mof_C 	C 	0.2565	0.8052	0.3108	-0.074
Mof_H 	H 	0.2944	0.8318	0.3551	0.078
Mof_H 	H 	0.192	0.8241	0.3001	0.083
Mof_C 	C 	0.2123	0.7153	0.4053	-0.208
Mof_H 	H 	0.2088	0.6641	0.4134	0.084
Mof_H 	H 	0.1475	0.7336	0.3941	0.101
Mof_N 	N 	0.3321	0.7422	0.7131	-0.125
Mof_H 	H 	0.3007	0.7251	0.6647	0.124
Mof_N 	N 	0.2549	0.7282	0.3327	-0.135
Mof_H 	H 	0.3163	0.712	0.3441	0.128
Mof_O 	O 	0.5323	0.6299	0.7697	-0.269
Mof_O 	O 	0.5636	0.685	0.6406	-0.491
Mof_O 	O 	0.4118	0.6207	0.6365	-0.577
Mof_O 	O 	0.2584	0.8356	0.4939	-0.225
Mof_O 	O 	0.2335	0.7194	0.5621	-0.289
Mof_O 	O 	0.3822	0.7395	0.5037	-0.516
Mof_O 	O 	0.3708	0.5655	0.475	-0.662
Mof_O 	O 	0.006	0.6022	0.3296	-0.286
Mof_O 	O 	0.939	0.5454	0.2227	-0.213
Mof_P 	P 	0.99002	0.16327	0.19026	0.579
Mof_P 	P 	0.77698	0.25539	0.99856	0.591
Mof_S 	S 	0.4927	0.0303	0.7964	-0.372
Mof_C 	C 	0.7911	0.3136	0.2252	-0.089
Mof_H 	H 	0.8015	0.3459	0.1834	0.07
Mof_H 	H 	0.8238	0.333	0.2764	0.075
Mof_C 	C 	0.8152	0.1913	0.2765	-0.057
Mof_H 	H 	0.8488	0.2078	0.3288	0.08
Mof_H 	H 	0.8397	0.1444	0.2672	0.037
Mof_C 	C 	0.9361	0.2487	0.2107	-0.244
Mof_H 	H 	0.9707	0.2671	0.2617	0.152
Mof_H 	H 	0.943	0.2828	0.1695	0.131
Mof_C 	C 	0.701	0.1865	0.7629	-0.055
Mof_H 	H 	0.635	0.2024	0.7505	0.064
Mof_H 	H 	0.7014	0.1363	0.7773	0.061
Mof_C 	C 	0.7565	0.3052	0.8108	-0.074
Mof_H 	H 	0.7944	0.3318	0.8551	0.088
Mof_H 	H 	0.692	0.3241	0.8001	0.085
Mof_C 	C 	0.7123	0.2153	0.9053	-0.23
Mof_H 	H 	0.7088	0.1641	0.9134	0.114
Mof_H 	H 	0.6475	0.2336	0.8941	0.126
Mof_N 	N 	0.8321	0.2422	0.2131	-0.121
Mof_H 	H 	0.8007	0.2251	0.1647	0.123
Mof_N 	N 	0.7549	0.2282	0.8327	-0.129
Mof_H 	H 	0.8163	0.212	0.8441	0.137
Mof_O 	O 	0.0323	0.1299	0.2697	-0.348
Mof_O 	O 	0.0636	0.185	0.1406	-0.509
Mof_O 	O 	0.9118	0.1207	0.1365	-0.548
Mof_O 	O 	0.7584	0.3356	0.9939	-0.195
Mof_O 	O 	0.7335	0.2194	0.0621	-0.354
Mof_O 	O 	0.8822	0.2395	0.0037	-0.526
Mof_O 	O 	0.8708	0.0655	0.975	-0.525
Mof_O 	O 	0.506	0.1022	0.8296	-0.04
Mof_O 	O 	0.439	0.0454	0.7227	-0.073
Mof_P 	P 	0.49002	0.33673	0.69026	0.461
Mof_P 	P 	0.27698	0.24461	0.49856	0.47
Mof_S 	S 	0.9927	0.4697	0.2964	0.374
Mof_C 	C 	0.2911	0.1864	0.7252	-0.086
Mof_H 	H 	0.3015	0.1541	0.6834	0.07
Mof_H 	H 	0.3238	0.167	0.7764	0.067
Mof_C 	C 	0.3152	0.3087	0.7765	-0.051
Mof_H 	H 	0.3488	0.2922	0.8288	0.078
Mof_H 	H 	0.3397	0.3556	0.7672	0.031
Mof_C 	C 	0.4361	0.2513	0.7107	-0.21
Mof_H 	H 	0.4707	0.2329	0.7617	0.113
Mof_H 	H 	0.443	0.2172	0.6695	0.104
Mof_C 	C 	0.201	0.3135	0.2629	-0.042
Mof_H 	H 	0.135	0.2976	0.2505	0.044
Mof_H 	H 	0.2014	0.3637	0.2773	0.048
Mof_C 	C 	0.2565	0.1948	0.3108	-0.07
Mof_H 	H 	0.2944	0.1682	0.3551	0.07
Mof_H 	H 	0.192	0.1759	0.3001	0.077
Mof_C 	C 	0.2123	0.2847	0.4053	-0.208
Mof_H 	H 	0.2088	0.3359	0.4134	0.084
Mof_H 	H 	0.1475	0.2664	0.3941	0.1
Mof_N 	N 	0.3321	0.2578	0.7131	-0.128
Mof_H 	H 	0.3007	0.2749	0.6647	0.124
Mof_N 	N 	0.2549	0.2718	0.3327	-0.136
Mof_H 	H 	0.3163	0.288	0.3441	0.128
Mof_O 	O 	0.5323	0.3701	0.7697	-0.269
Mof_O 	O 	0.5636	0.315	0.6406	-0.492
Mof_O 	O 	0.4118	0.3793	0.6365	-0.577
Mof_O 	O 	0.2584	0.1644	0.4939	-0.239
Mof_O 	O 	0.2335	0.2806	0.5621	-0.291
Mof_O 	O 	0.3822	0.2605	0.5037	-0.519
Mof_O 	O 	0.3708	0.4345	0.475	-0.662
Mof_O 	O 	0.006	0.3978	0.3296	-0.287
Mof_O 	O 	0.939	0.4546	0.2227	-0.213
Mof_P 	P 	0.99002	0.83673	0.19026	0.579
Mof_P 	P 	0.77698	0.74461	0.99856	0.594
Mof_S 	S 	0.4927	0.9697	0.7964	0.976
Mof_C 	C 	0.7911	0.6864	0.2252	-0.088
Mof_H 	H 	0.8015	0.6541	0.1834	0.07
Mof_H 	H 	0.8238	0.667	0.2764	0.075
Mof_C 	C 	0.8152	0.8087	0.2765	-0.058
Mof_H 	H 	0.8488	0.7922	0.3288	0.084
Mof_H 	H 	0.8397	0.8556	0.2672	0.046
Mof_C 	C 	0.9361	0.7513	0.2107	-0.244
Mof_H 	H 	0.9707	0.7329	0.2617	0.153
Mof_H 	H 	0.943	0.7172	0.1695	0.13
Mof_C 	C 	0.701	0.8135	0.7629	-0.053
Mof_H 	H 	0.635	0.7976	0.7505	0.065
Mof_H 	H 	0.7014	0.8637	0.7773	0.066
Mof_C 	C 	0.7565	0.6948	0.8108	-0.075
Mof_H 	H 	0.7944	0.6682	0.8551	0.088
Mof_H 	H 	0.692	0.6759	0.8001	0.085
Mof_C 	C 	0.7123	0.7847	0.9053	-0.235
Mof_H 	H 	0.7088	0.8359	0.9134	0.122
Mof_H 	H 	0.6475	0.7664	0.8941	0.134
Mof_N 	N 	0.8321	0.7578	0.2131	-0.121
Mof_H 	H 	0.8007	0.7749	0.1647	0.124
Mof_N 	N 	0.7549	0.7718	0.8327	-0.128
Mof_H 	H 	0.8163	0.788	0.8441	0.138
Mof_O 	O 	0.0323	0.8701	0.2697	-0.333
Mof_O 	O 	0.0636	0.815	0.1406	-0.508
Mof_O 	O 	0.9118	0.8793	0.1365	-0.535
Mof_O 	O 	0.7584	0.6644	0.9939	-0.195
Mof_O 	O 	0.7335	0.7806	0.0621	-0.349
Mof_O 	O 	0.8822	0.7605	0.0037	-0.529
Mof_O 	O 	0.8708	0.9345	0.975	-0.495
Mof_O 	O 	0.506	0.8978	0.8296	-0.338
Mof_O 	O 	0.439	0.9546	0.7227	-0.344
Mof_P 	P 	0.50998	0.33673	0.30974	0.462
Mof_P 	P 	0.72302	0.24461	0.50144	0.474
Mof_S 	S 	0.0073	0.4697	0.7036	0.195
Mof_C 	C 	0.7089	0.1864	0.2748	-0.068
Mof_H 	H 	0.6985	0.1541	0.3166	0.068
Mof_H 	H 	0.6762	0.167	0.2236	0.057
Mof_C 	C 	0.6848	0.3087	0.2235	-0.031
Mof_H 	H 	0.6512	0.2922	0.1712	0.052
Mof_H 	H 	0.6603	0.3556	0.2328	0.016
Mof_C 	C 	0.5639	0.2513	0.2893	-0.208
Mof_H 	H 	0.5293	0.2329	0.2383	0.107
Mof_H 	H 	0.557	0.2172	0.3305	0.104
Mof_C 	C 	0.799	0.3135	0.7371	-0.059
Mof_H 	H 	0.865	0.2976	0.7495	0.081
Mof_H 	H 	0.7986	0.3637	0.7227	0.062
Mof_C 	C 	0.7435	0.1948	0.6892	-0.073
Mof_H 	H 	0.7056	0.1682	0.6449	0.073
Mof_H 	H 	0.808	0.1759	0.6999	0.086
Mof_C 	C 	0.7877	0.2847	0.5947	-0.22
Mof_H 	H 	0.7912	0.3359	0.5866	0.096
Mof_H 	H 	0.8525	0.2664	0.6059	0.126
Mof_N 	N 	0.6679	0.2578	0.2869	-0.134
Mof_H 	H 	0.6993	0.2749	0.3353	0.126
Mof_N 	N 	0.7451	0.2718	0.6673	-0.13
Mof_H 	H 	0.6837	0.288	0.6559	0.127
Mof_O 	O 	0.4677	0.3701	0.2303	-0.284
Mof_O 	O 	0.4364	0.315	0.3594	-0.492
Mof_O 	O 	0.5882	0.3793	0.3635	-0.578
Mof_O 	O 	0.7416	0.1644	0.5061	-0.226
Mof_O 	O 	0.7665	0.2806	0.4379	-0.276
Mof_O 	O 	0.6178	0.2605	0.4963	-0.52
Mof_O 	O 	0.6292	0.4345	0.525	-0.659
Mof_O 	O 	0.994	0.3978	0.6704	-0.12
Mof_O 	O 	0.061	0.4546	0.7773	-0.2
Mof_P 	P 	0.00998	0.83673	0.80974	0.344
Mof_P 	P 	0.22302	0.74461	0.00144	0.324
Mof_S 	S 	0.5073	0.9697	0.2036	0.976
Mof_C 	C 	0.2089	0.6864	0.7748	-0.069
Mof_H 	H 	0.1985	0.6541	0.8166	0.079
Mof_H 	H 	0.1762	0.667	0.7236	0.054
Mof_C 	C 	0.1848	0.8087	0.7235	-0.029
Mof_H 	H 	0.1512	0.7922	0.6712	0.053
Mof_H 	H 	0.1603	0.8556	0.7328	0.017
Mof_C 	C 	0.0639	0.7513	0.7893	-0.181
Mof_H 	H 	0.0293	0.7329	0.7383	0.077
Mof_H 	H 	0.057	0.7172	0.8305	0.092
Mof_C 	C 	0.299	0.8135	0.2371	-0.054
Mof_H 	H 	0.365	0.7976	0.2495	0.065
Mof_H 	H 	0.2986	0.8637	0.2227	0.064
Mof_C 	C 	0.2435	0.6948	0.1892	-0.078
Mof_H 	H 	0.2056	0.6682	0.1449	0.063
Mof_H 	H 	0.308	0.6759	0.1999	0.082
Mof_C 	C 	0.2877	0.7847	0.0947	-0.191
Mof_H 	H 	0.2912	0.8359	0.0866	0.079
Mof_H 	H 	0.3525	0.7664	0.1059	0.101
Mof_N 	N 	0.1679	0.7578	0.7869	-0.137
Mof_H 	H 	0.1993	0.7749	0.8353	0.131
Mof_N 	N 	0.2451	0.7718	0.1673	-0.134
Mof_H 	H 	0.1837	0.788	0.1559	0.127
Mof_O 	O 	0.9677	0.8701	0.7303	-0.192
Mof_O 	O 	0.9364	0.815	0.8594	-0.354
Mof_O 	O 	0.0882	0.8793	0.8635	-0.52
Mof_O 	O 	0.2416	0.6644	0.0061	-0.255
Mof_O 	O 	0.2665	0.7806	0.9379	-0.193
Mof_O 	O 	0.1178	0.7605	0.9963	-0.363
Mof_O 	O 	0.1292	0.9345	0.025	-0.62
Mof_O 	O 	0.494	0.8978	0.1704	-0.357
Mof_O 	O 	0.561	0.9546	0.2773	-0.342
Mof_Nd	Nd	0.5	0.65277	0.5	2.498
Mof_Nd	Nd	1.41412e-33	0.15277	-0	1.96
Mof_Nd	Nd	0.5	0.34723	0.5	2.497
Mof_Nd	Nd	1.1313e-32	0.84723	-0	1.979
Mof_Nd	Nd	0.64316	0.5	0.39023	1.864
Mof_P 	P 	0.61953	0.5	0.57575	0.497
Mof_C 	C 	0.8856	0.5	0.7195	0.025
Mof_C 	C 	0.8693	0.5	0.7961	-0.044
Mof_H 	H 	0.9201	0.5	0.8403	0.11
Mof_C 	C 	0.7752	0.5	0.8063	-0.055
Mof_H 	H 	0.7625	0.5	0.8576	0.083
Mof_C 	C 	0.7	0.5	0.7392	0.005
Mof_H 	H 	0.6373	0.5	0.7463	0.035
Mof_C 	C 	0.7171	0.5	0.6611	-0.098
Mof_C 	C 	0.8117	0.5	0.6519	-0.015
Mof_H 	H 	0.8252	0.5	0.6009	0.032
Mof_O 	O 	0.5265	0.5	0.6024	-0.567
Mof_O 	O 	0.016	0.5	0.627	-0.283
Mof_Nd	Nd	0.14316	1.1313e-32	0.89023	1.84
Mof_P 	P 	0.11953	7.07061e-34	0.07575	0.468
Mof_C 	C 	0.3856	2.82824e-33	0.2195	-0.119
Mof_C 	C 	0.3693	2.82824e-33	0.2961	0.041
Mof_H 	H 	0.4201	5.65649e-33	0.3403	0.035
Mof_C 	C 	0.2752	2.82824e-33	0.3063	-0.132
Mof_H 	H 	0.2625	5.65649e-33	0.3576	0.083
Mof_C 	C 	0.2	2.82824e-33	0.2392	0.052
Mof_H 	H 	0.1373	5.65649e-33	0.2463	0.005
Mof_C 	C 	0.2171	1.41412e-33	0.1611	-0.146
Mof_C 	C 	0.3117	0	0.1519	0.062
Mof_H 	H 	0.3252	1.41412e-33	0.1009	-0.024
Mof_O 	O 	0.0265	1.41412e-33	0.1024	-0.592
Mof_O 	O 	0.516	1.41412e-33	0.127	-0.319
Mof_Nd	Nd	0.35684	0.5	0.60977	1.853
Mof_P 	P 	0.38047	0.5	0.42425	0.51
Mof_C 	C 	0.1144	0.5	0.2805	-0.187
Mof_C 	C 	0.1307	0.5	0.2039	0.09
Mof_H 	H 	0.0799	0.5	0.1597	-0.007
Mof_C 	C 	0.2248	0.5	0.1937	-0.164
Mof_H 	H 	0.2375	0.5	0.1424	0.091
Mof_C 	C 	0.3	0.5	0.2608	0.081
Mof_H 	H 	0.3627	0.5	0.2537	0.003
Mof_C 	C 	0.2829	0.5	0.3389	-0.163
Mof_C 	C 	0.1883	0.5	0.3481	0.106
Mof_H 	H 	0.1748	0.5	0.3991	-0.029
Mof_O 	O 	0.4735	0.5	0.3976	-0.57
Mof_O 	O 	0.984	0.5	0.373	-0.257
Mof_Nd	Nd	0.85684	1.41412e-33	0.10977	1.753
Mof_P 	P 	0.88047	1.1313e-32	0.92425	0.462
Mof_C 	C 	0.6144	1.1313e-32	0.7805	-0.101
Mof_C 	C 	0.6307	5.65649e-33	0.7039	0.024
Mof_H 	H 	0.5799	5.65649e-33	0.6597	0.04
Mof_C 	C 	0.7248	5.65649e-33	0.6937	-0.115
Mof_H 	H 	0.7375	5.65649e-33	0.6424	0.082
Mof_C 	C 	0.8	1.1313e-32	0.7608	0.034
Mof_H 	H 	0.8627	0	0.7537	0.023
Mof_C 	C 	0.7829	1.1313e-32	0.8389	-0.123
Mof_C 	C 	0.6883	1.1313e-32	0.8481	0.038
Mof_H 	H 	0.6748	0	0.8991	0.01
Mof_O 	O 	0.9735	2.2626e-32	0.8976	-0.479
Mof_O 	O 	0.484	1.1313e-32	0.873	-0.278
_end
