data_functionalizedCrystal
_audit_creation_method	'EQeq! by Chris Wilmer'
_symmetry_space_group_name_H-M	'P1'
_symmetry_Int_Tables_number	1
_symmetry_cell_setting	triclinic
loop_
_symmetry_equiv_pos_as_xyz
  x,y,z
_cell_length_a	9.1743
_cell_length_b	10.8488
_cell_length_c	11.3458
_cell_angle_alpha	113.479
_cell_angle_beta	98.726
_cell_angle_gamma	98.016
loop_
_atom_site_label
_atom_site_type_symbol
_atom_site_fract_x
_atom_site_fract_y
_atom_site_fract_z
_atom_site_charge
Mof_Zn	Zn	0.81965	0.38671	0.38601	1.196
Mof_O 	O 	0.7501	0.2181	0.4057	-0.482
Mof_O 	O 	0.7154	0.4061	0.2362	-0.497
Mof_O 	O 	0.5504	0.5227	0.3338	-0.466
Mof_O 	O 	0.5448	0.3028	0.4298	-0.489
Mof_N 	N 	0.9714	0.6289	0.6451	-0.233
Mof_C 	C 	0.4445	0.5635	0.111	-0.018
Mof_H 	H 	0.4074	0.606	0.1856	0.047
Mof_C 	C 	0.6211	0.2167	0.4326	0.375
Mof_N 	N 	0.7257	0.5907	0.607	-0.193
Mof_C 	C 	0.6078	0.4708	0.2386	0.382
Mof_C 	C 	0.6072	0.4223	0.0017	-0.016
Mof_H 	H 	0.6792	0.3701	0.0031	0.047
Mof_N 	N 	0.8425	0.5513	0.5587	-0.218
Mof_C 	C 	0.5577	0.1047	0.4673	-0.087
Mof_C 	C 	0.553	0.4855	0.1144	-0.086
Mof_C 	C 	0.6321	0.9963	0.4541	-0.019
Mof_H 	H 	0.7206	0.994	0.4235	0.05
Mof_C 	C 	0.9333	0.7197	0.7504	0.015
Mof_H 	H 	0.0002	0.7873	0.8261	0.011
Mof_C 	C 	0.4278	0.1071	0.5128	-0.014
Mof_H 	H 	0.3791	0.1789	0.5217	0.045
Mof_C 	C 	0.7823	0.696	0.7272	0.013
Mof_H 	H 	0.7261	0.7439	0.7844	0.027
Mof_Zn	Zn	0.18035	0.61329	0.61399	1.195
Mof_O 	O 	0.2499	0.7819	0.5943	-0.482
Mof_O 	O 	0.2846	0.5939	0.7638	-0.497
Mof_O 	O 	0.4496	0.4773	0.6662	-0.466
Mof_O 	O 	0.4552	0.6972	0.5702	-0.489
Mof_N 	N 	0.0286	0.3711	0.3549	-0.233
Mof_C 	C 	0.5555	0.4365	0.889	-0.018
Mof_H 	H 	0.5926	0.394	0.8144	0.047
Mof_C 	C 	0.3789	0.7833	0.5674	0.375
Mof_N 	N 	0.2743	0.4093	0.393	-0.193
Mof_C 	C 	0.3922	0.5292	0.7614	0.382
Mof_C 	C 	0.3928	0.5777	0.9983	-0.016
Mof_H 	H 	0.3208	0.6299	0.9969	0.047
Mof_N 	N 	0.1575	0.4487	0.4413	-0.218
Mof_C 	C 	0.4423	0.8953	0.5327	-0.087
Mof_C 	C 	0.447	0.5145	0.8856	-0.086
Mof_C 	C 	0.3679	0.0037	0.5459	-0.019
Mof_H 	H 	0.2794	0.006	0.5765	0.05
Mof_C 	C 	0.0667	0.2803	0.2496	0.015
Mof_H 	H 	0.9998	0.2127	0.1739	0.011
Mof_C 	C 	0.5722	0.8929	0.4872	-0.014
Mof_H 	H 	0.6209	0.8211	0.4783	0.045
Mof_C 	C 	0.2177	0.304	0.2728	0.013
Mof_H 	H 	0.2739	0.2561	0.2156	0.027
Mof_Zn	Zn	0.5	0.5	0.5	1.221
_end
