data_functionalizedCrystal
_audit_creation_method	'EQeq! by Chris Wilmer'
_symmetry_space_group_name_H-M	'P1'
_symmetry_Int_Tables_number	1
_symmetry_cell_setting	triclinic
loop_
_symmetry_equiv_pos_as_xyz
  x,y,z
_cell_length_a	9.0154
_cell_length_b	25.441
_cell_length_c	11.39
_cell_angle_alpha	90
_cell_angle_beta	104.41
_cell_angle_gamma	90
loop_
_atom_site_label
_atom_site_type_symbol
_atom_site_fract_x
_atom_site_fract_y
_atom_site_fract_z
_atom_site_charge
Mof_O 	O 	0.3395	0.15355	0.4374	-0.483
Mof_O 	O 	0.2931	0.06853	0.4527	-0.294
Mof_O 	O 	0.2416	0.26738	0.3844	-0.599
Mof_O 	O 	0.012	0.29082	0.27838	-0.483
Mof_N 	N 	0.396	0.04233	0.2567	-0.075
Mof_N 	N 	0.1008	0.31043	0.0747	-0.05
Mof_C 	C 	0.3415	0.10601	0.4055	0.427
Mof_C 	C 	0.4164	0.09654	0.3009	-0.266
Mof_H 	H 	0.3712	0.1208	0.2336	0.117
Mof_H 	H 	0.5272	0.1044	0.3284	0.124
Mof_C 	C 	0.2976	0.02619	0.1502	-0.018
Mof_H 	H 	0.2402	0.0483	0.0881	0.028
Mof_C 	C 	0.1502	0.28291	0.2875	0.45
Mof_C 	C 	0.2168	0.29099	0.1784	-0.29
Mof_H 	H 	0.3023	0.3165	0.1995	0.1
Mof_H 	H 	0.2581	0.2572	0.157	0.113
Mof_C 	C 	0.0623	0.36199	0.047	-0.146
Mof_H 	H 	0.1141	0.392	0.0868	0.069
Mof_O 	O 	0.8395	0.65355	0.4374	-0.413
Mof_O 	O 	0.7931	0.56853	0.4527	-0.258
Mof_O 	O 	0.7416	0.76738	0.3844	-0.557
Mof_O 	O 	0.512	0.79082	0.27838	-0.458
Mof_N 	N 	0.896	0.54233	0.2567	-0.125
Mof_N 	N 	0.6008	0.81043	0.0747	-0.081
Mof_C 	C 	0.8415	0.60601	0.4055	0.375
Mof_C 	C 	0.9164	0.59654	0.3009	-0.066
Mof_H 	H 	0.8712	0.6208	0.2336	0.088
Mof_H 	H 	0.0272	0.6044	0.3284	0.01
Mof_C 	C 	0.7976	0.52619	0.1502	0.013
Mof_H 	H 	0.7402	0.5483	0.0881	0.038
Mof_C 	C 	0.6502	0.78291	0.2875	0.439
Mof_C 	C 	0.7168	0.79099	0.1784	-0.278
Mof_H 	H 	0.8023	0.8165	0.1995	0.122
Mof_H 	H 	0.7581	0.7572	0.157	0.134
Mof_C 	C 	0.5623	0.86199	0.047	0.021
Mof_H 	H 	0.6141	0.892	0.0868	0.039
Mof_O 	O 	0.6605	0.15355	0.5626	-0.465
Mof_O 	O 	0.7069	0.06853	0.5473	-0.262
Mof_O 	O 	0.7584	0.26738	0.6156	-0.575
Mof_O 	O 	0.988	0.29082	0.72162	-0.384
Mof_N 	N 	0.604	0.04233	0.7433	-0.076
Mof_N 	N 	0.8992	0.31043	0.9253	-0.059
Mof_C 	C 	0.6585	0.10601	0.5945	0.429
Mof_C 	C 	0.5836	0.09654	0.6991	-0.257
Mof_H 	H 	0.6288	0.1208	0.7664	0.123
Mof_H 	H 	0.4728	0.1044	0.6716	0.113
Mof_C 	C 	0.7024	0.02619	0.8498	-0.01
Mof_H 	H 	0.7598	0.0483	0.9119	0.048
Mof_C 	C 	0.8498	0.28291	0.7125	0.432
Mof_C 	C 	0.7832	0.29099	0.8216	-0.255
Mof_H 	H 	0.6977	0.3165	0.8005	0.087
Mof_H 	H 	0.7419	0.2572	0.843	0.114
Mof_C 	C 	0.9377	0.36199	0.953	0.139
Mof_H 	H 	0.8859	0.392	0.9132	0.004
Mof_O 	O 	0.1605	0.65355	0.5626	-0.488
Mof_O 	O 	0.2069	0.56853	0.5473	-0.295
Mof_O 	O 	0.2584	0.76738	0.6156	-0.588
Mof_O 	O 	0.488	0.79082	0.72162	-0.453
Mof_N 	N 	0.104	0.54233	0.7433	-0.033
Mof_N 	N 	0.3992	0.81043	0.9253	-0.09
Mof_C 	C 	0.1585	0.60601	0.5945	0.46
Mof_C 	C 	0.0836	0.59654	0.6991	-0.448
Mof_H 	H 	0.1288	0.6208	0.7664	0.151
Mof_H 	H 	0.9728	0.6044	0.6716	0.229
Mof_C 	C 	0.2024	0.52619	0.8498	-0.014
Mof_H 	H 	0.2598	0.5483	0.9119	0.029
Mof_C 	C 	0.3498	0.78291	0.7125	0.423
Mof_C 	C 	0.2832	0.79099	0.8216	-0.252
Mof_H 	H 	0.1977	0.8165	0.8005	0.072
Mof_H 	H 	0.2419	0.7572	0.843	0.089
Mof_C 	C 	0.4377	0.86199	0.953	-0.028
Mof_H 	H 	0.3859	0.892	0.9132	0.036
Mof_O 	O 	0.6605	0.84645	0.5626	-0.465
Mof_O 	O 	0.7069	0.93147	0.5473	-0.258
Mof_O 	O 	0.7584	0.73262	0.6156	-0.575
Mof_O 	O 	0.988	0.70918	0.72162	-0.384
Mof_N 	N 	0.604	0.95767	0.7433	-0.076
Mof_N 	N 	0.8992	0.68957	0.9253	-0.059
Mof_C 	C 	0.6585	0.89399	0.5945	0.428
Mof_C 	C 	0.5836	0.90346	0.6991	-0.255
Mof_H 	H 	0.6288	0.8792	0.7664	0.122
Mof_H 	H 	0.4728	0.8956	0.6716	0.114
Mof_C 	C 	0.7024	0.97381	0.8498	0.018
Mof_H 	H 	0.7598	0.9517	0.9119	0.041
Mof_C 	C 	0.8498	0.71709	0.7125	0.433
Mof_C 	C 	0.7832	0.70901	0.8216	-0.255
Mof_H 	H 	0.6977	0.6835	0.8005	0.087
Mof_H 	H 	0.7419	0.7428	0.843	0.114
Mof_C 	C 	0.9377	0.63801	0.953	0.139
Mof_H 	H 	0.8859	0.608	0.9132	0.004
Mof_O 	O 	0.1605	0.34645	0.5626	-0.488
Mof_O 	O 	0.2069	0.43147	0.5473	-0.294
Mof_O 	O 	0.2584	0.23262	0.6156	-0.588
Mof_O 	O 	0.488	0.20918	0.72162	-0.453
Mof_N 	N 	0.104	0.45767	0.7433	-0.033
Mof_N 	N 	0.3992	0.18957	0.9253	-0.091
Mof_C 	C 	0.1585	0.39399	0.5945	0.46
Mof_C 	C 	0.0836	0.40346	0.6991	-0.448
Mof_H 	H 	0.1288	0.3792	0.7664	0.151
Mof_H 	H 	0.9728	0.3956	0.6716	0.229
Mof_C 	C 	0.2024	0.47381	0.8498	-0.014
Mof_H 	H 	0.2598	0.4517	0.9119	0.029
Mof_C 	C 	0.3498	0.21709	0.7125	0.423
Mof_C 	C 	0.2832	0.20901	0.8216	-0.252
Mof_H 	H 	0.1977	0.1835	0.8005	0.072
Mof_H 	H 	0.2419	0.2428	0.843	0.089
Mof_C 	C 	0.4377	0.13801	0.953	-0.028
Mof_H 	H 	0.3859	0.108	0.9132	0.035
Mof_O 	O 	0.3395	0.84645	0.4374	-0.484
Mof_O 	O 	0.2931	0.93147	0.4527	-0.291
Mof_O 	O 	0.2416	0.73262	0.3844	-0.599
Mof_O 	O 	0.012	0.70918	0.27838	-0.483
Mof_N 	N 	0.396	0.95767	0.2567	-0.076
Mof_N 	N 	0.1008	0.68957	0.0747	-0.05
Mof_C 	C 	0.3415	0.89399	0.4055	0.426
Mof_C 	C 	0.4164	0.90346	0.3009	-0.264
Mof_H 	H 	0.3712	0.8792	0.2336	0.116
Mof_H 	H 	0.5272	0.8956	0.3284	0.124
Mof_C 	C 	0.2976	0.97381	0.1502	0.01
Mof_H 	H 	0.2402	0.9517	0.0881	0.021
Mof_C 	C 	0.1502	0.71709	0.2875	0.45
Mof_C 	C 	0.2168	0.70901	0.1784	-0.29
Mof_H 	H 	0.3023	0.6835	0.1995	0.1
Mof_H 	H 	0.2581	0.7428	0.157	0.113
Mof_C 	C 	0.0623	0.63801	0.047	-0.146
Mof_H 	H 	0.1141	0.608	0.0868	0.069
Mof_O 	O 	0.8395	0.34645	0.4374	-0.413
Mof_O 	O 	0.7931	0.43147	0.4527	-0.258
Mof_O 	O 	0.7416	0.23262	0.3844	-0.557
Mof_O 	O 	0.512	0.20918	0.27838	-0.458
Mof_N 	N 	0.896	0.45767	0.2567	-0.125
Mof_N 	N 	0.6008	0.18957	0.0747	-0.081
Mof_C 	C 	0.8415	0.39399	0.4055	0.375
Mof_C 	C 	0.9164	0.40346	0.3009	-0.066
Mof_H 	H 	0.8712	0.3792	0.2336	0.088
Mof_H 	H 	0.0272	0.3956	0.3284	0.01
Mof_C 	C 	0.7976	0.47381	0.1502	0.013
Mof_H 	H 	0.7402	0.4517	0.0881	0.038
Mof_C 	C 	0.6502	0.21709	0.2875	0.439
Mof_C 	C 	0.7168	0.20901	0.1784	-0.278
Mof_H 	H 	0.8023	0.1835	0.1995	0.121
Mof_H 	H 	0.7581	0.2428	0.157	0.134
Mof_C 	C 	0.5623	0.13801	0.047	0.021
Mof_H 	H 	0.6141	0.108	0.0868	0.038
Mof_La	La	0.5	0.23472	0.5	2.074
Mof_La	La	2.9579e-33	0.73472	0.5	1.837
Mof_La	La	0.5	0.76528	0.5	2.074
Mof_La	La	2.24657e-17	0.26528	0.5	1.836
Mof_C 	C 	0.4551	0	0.3186	0.071
Mof_H 	H 	0.5279	2.49419e-33	0.3949	0.057
Mof_C 	C 	0.9551	0.5	0.3186	0.267
Mof_H 	H 	0.0279	0.5	0.3949	-0.073
Mof_C 	C 	0.5449	0	0.6814	0.071
Mof_H 	H 	0.4721	0	0.6051	0.05
Mof_C 	C 	0.0449	0.5	0.6814	-0.109
Mof_H 	H 	0.9721	0.5	0.6051	0.179
Mof_C 	C 	-9.97677e-33	0.28	-0	-0.016
Mof_H 	H 	-4.98839e-33	0.2427	-0	0.015
Mof_C 	C 	0.5	0.78	-0	0.088
Mof_H 	H 	0.5	0.7427	-0	0.01
Mof_C 	C 	-0	0.72	-0	-0.016
Mof_H 	H 	-0	0.7573	-0	0.015
Mof_C 	C 	0.5	0.22	-0	0.088
Mof_H 	H 	0.5	0.2573	-0	0.01
_end
