data_functionalizedCrystal
_audit_creation_method	'EQeq! by Chris Wilmer'
_symmetry_space_group_name_H-M	'P1'
_symmetry_Int_Tables_number	1
_symmetry_cell_setting	triclinic
loop_
_symmetry_equiv_pos_as_xyz
  x,y,z
_cell_length_a	12.0047
_cell_length_b	10.9563
_cell_length_c	21.0767
_cell_angle_alpha	90
_cell_angle_beta	106.389
_cell_angle_gamma	90
loop_
_atom_site_label
_atom_site_type_symbol
_atom_site_fract_x
_atom_site_fract_y
_atom_site_fract_z
_atom_site_charge
Mof_Cd	Cd	0.63605	0.68064	0.96029	0.47
Mof_Ca	Ca	0.35622	0.55455	0.87272	1.259
Mof_O 	O 	0.6272	0.7688	0.8651	-0.303
Mof_O 	O 	0.4381	0.7243	0.83504	-0.44
Mof_O 	O 	0.2204	0.8812	0.59088	-0.43
Mof_O 	O 	0.3097	0.7736	0.53028	-0.281
Mof_O 	O 	0.7319	0.8495	0.6589	-0.268
Mof_O 	O 	0.9634	0.9686	0.60697	-0.448
Mof_O 	O 	0.7819	0.0004	0.5495	-0.316
Mof_O 	O 	0.0417	0.6771	0.50671	-0.281
Mof_O 	O 	0.9441	0.8487	0.47812	-0.4
Mof_C 	C 	0.5283	0.7624	0.8236	0.348
Mof_C 	C 	0.5227	0.7997	0.75384	-0.058
Mof_C 	C 	0.4188	0.8068	0.7041	-0.018
Mof_H 	H 	0.3489	0.8005	0.7146	0.009
Mof_C 	C 	0.4182	0.8231	0.63906	-0.063
Mof_C 	C 	0.5231	0.8329	0.6232	-0.133
Mof_H 	H 	0.5234	0.8399	0.5793	0.1
Mof_C 	C 	0.6258	0.8322	0.6728	0.189
Mof_C 	C 	0.6273	0.8165	0.7382	-0.13
Mof_H 	H 	0.6973	0.817	0.7714	0.1
Mof_C 	C 	0.3078	0.8259	0.583	0.334
Mof_C 	C 	0.7656	0.7604	0.6213	0.245
Mof_C 	C 	0.8363	0.7986	0.5829	-0.185
Mof_C 	C 	0.8816	0.7111	0.5493	0.017
Mof_C 	C 	0.8574	0.5881	0.5546	-0.129
Mof_H 	H 	0.8903	0.5298	0.5333	0.098
Mof_C 	C 	0.7841	0.5526	0.5917	0.095
Mof_H 	H 	0.7657	0.4706	0.5939	0.016
Mof_C 	C 	0.7384	0.6383	0.6253	-0.231
Mof_H 	H 	0.6897	0.6142	0.6503	0.121
Mof_C 	C 	0.8628	0.932	0.5795	0.425
Mof_C 	C 	0.9596	0.747	0.5084	0.291
Mof_Cd	Cd	0.86395	0.18064	0.53971	0.47
Mof_Ca	Ca	0.14378	0.05455	0.62728	1.257
Mof_O 	O 	0.8728	0.2688	0.6349	-0.303
Mof_O 	O 	0.0619	0.2243	0.66496	-0.441
Mof_O 	O 	0.2796	0.3812	0.90912	-0.431
Mof_O 	O 	0.1903	0.2736	0.96972	-0.282
Mof_O 	O 	0.7681	0.3495	0.8411	-0.268
Mof_O 	O 	0.5366	0.4686	0.89303	-0.448
Mof_O 	O 	0.7181	0.5004	0.9505	-0.318
Mof_O 	O 	0.4583	0.1771	0.99329	-0.282
Mof_O 	O 	0.5559	0.3487	0.02188	-0.4
Mof_C 	C 	0.9717	0.2624	0.6764	0.349
Mof_C 	C 	0.9773	0.2997	0.74616	-0.058
Mof_C 	C 	0.0812	0.3068	0.7959	-0.018
Mof_H 	H 	0.1511	0.3005	0.7854	0.009
Mof_C 	C 	0.0818	0.3231	0.86094	-0.064
Mof_C 	C 	0.9769	0.3329	0.8768	-0.132
Mof_H 	H 	0.9766	0.3399	0.9207	0.099
Mof_C 	C 	0.8742	0.3322	0.8272	0.189
Mof_C 	C 	0.8727	0.3165	0.7618	-0.13
Mof_H 	H 	0.8027	0.317	0.7286	0.1
Mof_C 	C 	0.1922	0.3259	0.917	0.334
Mof_C 	C 	0.7344	0.2604	0.8787	0.246
Mof_C 	C 	0.6637	0.2986	0.9171	-0.186
Mof_C 	C 	0.6184	0.2111	0.9507	0.017
Mof_C 	C 	0.6426	0.0881	0.9454	-0.13
Mof_H 	H 	0.6097	0.0298	0.9667	0.098
Mof_C 	C 	0.7159	0.0526	0.9083	0.096
Mof_H 	H 	0.7343	0.9706	0.9061	0.016
Mof_C 	C 	0.7616	0.1383	0.8747	-0.231
Mof_H 	H 	0.8103	0.1142	0.8497	0.121
Mof_C 	C 	0.6372	0.432	0.9205	0.426
Mof_C 	C 	0.5404	0.247	0.9916	0.292
Mof_Cd	Cd	0.36395	0.31936	0.03971	0.47
Mof_Ca	Ca	0.64378	0.44545	0.12728	1.259
Mof_O 	O 	0.3728	0.2312	0.1349	-0.303
Mof_O 	O 	0.5619	0.2757	0.16496	-0.44
Mof_O 	O 	0.7796	0.1188	0.40912	-0.43
Mof_O 	O 	0.6903	0.2264	0.46972	-0.281
Mof_O 	O 	0.2681	0.1505	0.3411	-0.268
Mof_O 	O 	0.0366	0.0314	0.39303	-0.448
Mof_O 	O 	0.2181	0.9996	0.4505	-0.316
Mof_O 	O 	0.9583	0.3229	0.49329	-0.281
Mof_O 	O 	0.0559	0.1513	0.52188	-0.4
Mof_C 	C 	0.4717	0.2376	0.1764	0.348
Mof_C 	C 	0.4773	0.2003	0.24616	-0.058
Mof_C 	C 	0.5812	0.1932	0.2959	-0.018
Mof_H 	H 	0.6511	0.1995	0.2854	0.009
Mof_C 	C 	0.5818	0.1769	0.36094	-0.063
Mof_C 	C 	0.4769	0.1671	0.3768	-0.133
Mof_H 	H 	0.4766	0.1601	0.4207	0.1
Mof_C 	C 	0.3742	0.1678	0.3272	0.189
Mof_C 	C 	0.3727	0.1835	0.2618	-0.13
Mof_H 	H 	0.3027	0.183	0.2286	0.1
Mof_C 	C 	0.6922	0.1741	0.417	0.334
Mof_C 	C 	0.2344	0.2396	0.3787	0.245
Mof_C 	C 	0.1637	0.2014	0.4171	-0.185
Mof_C 	C 	0.1184	0.2889	0.4507	0.017
Mof_C 	C 	0.1426	0.4119	0.4454	-0.129
Mof_H 	H 	0.1097	0.4702	0.4667	0.098
Mof_C 	C 	0.2159	0.4474	0.4083	0.095
Mof_H 	H 	0.2343	0.5294	0.4061	0.016
Mof_C 	C 	0.2616	0.3617	0.3747	-0.231
Mof_H 	H 	0.3103	0.3858	0.3497	0.121
Mof_C 	C 	0.1372	0.068	0.4205	0.425
Mof_C 	C 	0.0404	0.253	0.4916	0.291
Mof_Cd	Cd	0.13605	0.81936	0.46029	0.47
Mof_Ca	Ca	0.85622	0.94545	0.37272	1.257
Mof_O 	O 	0.1272	0.7312	0.3651	-0.303
Mof_O 	O 	0.9381	0.7757	0.33504	-0.441
Mof_O 	O 	0.7204	0.6188	0.09088	-0.431
Mof_O 	O 	0.8097	0.7264	0.03028	-0.282
Mof_O 	O 	0.2319	0.6505	0.1589	-0.268
Mof_O 	O 	0.4634	0.5314	0.10697	-0.448
Mof_O 	O 	0.2819	0.4996	0.0495	-0.318
Mof_O 	O 	0.5417	0.8229	0.00671	-0.282
Mof_O 	O 	0.4441	0.6513	0.97812	-0.4
Mof_C 	C 	0.0283	0.7376	0.3236	0.349
Mof_C 	C 	0.0227	0.7003	0.25384	-0.058
Mof_C 	C 	0.9188	0.6932	0.2041	-0.018
Mof_H 	H 	0.8489	0.6995	0.2146	0.009
Mof_C 	C 	0.9182	0.6769	0.13906	-0.064
Mof_C 	C 	0.0231	0.6671	0.1232	-0.132
Mof_H 	H 	0.0234	0.6601	0.0793	0.099
Mof_C 	C 	0.1258	0.6678	0.1728	0.189
Mof_C 	C 	0.1273	0.6835	0.2382	-0.13
Mof_H 	H 	0.1973	0.683	0.2714	0.1
Mof_C 	C 	0.8078	0.6741	0.083	0.334
Mof_C 	C 	0.2656	0.7396	0.1213	0.246
Mof_C 	C 	0.3363	0.7014	0.0829	-0.186
Mof_C 	C 	0.3816	0.7889	0.0493	0.017
Mof_C 	C 	0.3574	0.9119	0.0546	-0.13
Mof_H 	H 	0.3903	0.9702	0.0333	0.098
Mof_C 	C 	0.2841	0.9474	0.0917	0.096
Mof_H 	H 	0.2657	0.0294	0.0939	0.016
Mof_C 	C 	0.2384	0.8617	0.1253	-0.231
Mof_H 	H 	0.1897	0.8858	0.1503	0.121
Mof_C 	C 	0.3628	0.568	0.0795	0.426
Mof_C 	C 	0.4596	0.753	0.0084	0.292
_end
