data_functionalizedCrystal
_audit_creation_method	'EQeq! by Chris Wilmer'
_symmetry_space_group_name_H-M	'P1'
_symmetry_Int_Tables_number	1
_symmetry_cell_setting	triclinic
loop_
_symmetry_equiv_pos_as_xyz
  x,y,z
_cell_length_a	8.257
_cell_length_b	13.163
_cell_length_c	14.238
_cell_angle_alpha	114.261
_cell_angle_beta	96.493
_cell_angle_gamma	101.699
loop_
_atom_site_label
_atom_site_type_symbol
_atom_site_fract_x
_atom_site_fract_y
_atom_site_fract_z
_atom_site_charge
Mof_Tb	Tb	0.26933	0.54978	0.49918	2.21
Mof_O 	O 	0.1967	0.4954	0.6281	-0.58
Mof_O 	O 	0.9296	0.4759	0.6416	-0.606
Mof_O 	O 	0.448	0.4784	0.3868	-0.631
Mof_O 	O 	0.5196	0.3154	0.3474	-0.525
Mof_O 	O 	0.1132	0.6727	0.5754	-0.607
Mof_O 	O 	0.8406	0.6541	0.5867	-0.548
Mof_N 	N 	0.1411	0.1951	0.8848	-0.218
Mof_C 	C 	0.0718	0.4613	0.6592	0.592
Mof_C 	C 	0.091	0.3948	0.7228	-0.321
Mof_C 	C 	0.2488	0.3944	0.7644	0.226
Mof_H 	H 	0.3448	0.4371	0.7552	-0.044
Mof_C 	C 	0.2661	0.3307	0.82	-0.306
Mof_H 	H 	0.3736	0.3306	0.8475	0.133
Mof_C 	C 	0.1262	0.268	0.8349	0.244
Mof_C 	C 	0.9686	0.2694	0.7939	-0.308
Mof_H 	H 	0.8724	0.227	0.8032	0.133
Mof_C 	C 	0.9522	0.3335	0.739	0.241
Mof_H 	H 	0.8448	0.3348	0.7126	-0.069
Mof_C 	C 	0.4485	0.3792	0.322	0.486
Mof_C 	C 	0.3641	0.332	0.2075	-0.238
Mof_C 	C 	0.3463	0.2173	0.1392	0.168
Mof_H 	H 	0.3853	0.17	0.1647	-0.017
Mof_C 	C 	0.2716	0.1728	0.0343	-0.252
Mof_H 	H 	0.2575	0.0949	0.9903	0.119
Mof_C 	C 	0.2168	0.2412	0.9925	0.213
Mof_C 	C 	0.2338	0.3557	0.0609	-0.264
Mof_H 	H 	0.1981	0.4038	0.0351	0.124
Mof_C 	C 	0.3031	0.3986	0.1666	0.183
Mof_H 	H 	0.3089	0.4748	0.2118	-0.038
Mof_C 	C 	0.9937	0.7124	0.6091	0.543
Mof_C 	C 	0.0349	0.8403	0.6801	-0.271
Mof_C 	C 	0.1954	0.9102	0.7061	0.205
Mof_H 	H 	0.2806	0.8795	0.6779	-0.045
Mof_C 	C 	0.2314	0.0259	0.7739	-0.282
Mof_H 	H 	0.3414	0.073	0.7913	0.123
Mof_C 	C 	0.1064	0.0735	0.8166	0.21
Mof_C 	C 	0.9432	0.0049	0.7904	-0.25
Mof_H 	H 	0.8578	0.0356	0.8183	0.116
Mof_C 	C 	0.9093	0.888	0.7207	0.168
Mof_H 	H 	0.7989	0.8408	0.701	-0.017
Mof_Tb	Tb	0.73067	0.45022	0.50082	2.21
Mof_O 	O 	0.8033	0.5046	0.3719	-0.58
Mof_O 	O 	0.0704	0.5241	0.3584	-0.606
Mof_O 	O 	0.552	0.5216	0.6132	-0.631
Mof_O 	O 	0.4804	0.6846	0.6526	-0.525
Mof_O 	O 	0.8868	0.3273	0.4246	-0.607
Mof_O 	O 	0.1594	0.3459	0.4133	-0.548
Mof_N 	N 	0.8589	0.8049	0.1152	-0.218
Mof_C 	C 	0.9282	0.5387	0.3408	0.592
Mof_C 	C 	0.909	0.6052	0.2772	-0.321
Mof_C 	C 	0.7512	0.6056	0.2356	0.226
Mof_H 	H 	0.6552	0.5629	0.2448	-0.044
Mof_C 	C 	0.7339	0.6693	0.18	-0.306
Mof_H 	H 	0.6264	0.6694	0.1525	0.133
Mof_C 	C 	0.8738	0.732	0.1651	0.244
Mof_C 	C 	0.0314	0.7306	0.2061	-0.308
Mof_H 	H 	0.1276	0.773	0.1968	0.133
Mof_C 	C 	0.0478	0.6665	0.261	0.241
Mof_H 	H 	0.1552	0.6652	0.2874	-0.069
Mof_C 	C 	0.5515	0.6208	0.678	0.486
Mof_C 	C 	0.6359	0.668	0.7925	-0.238
Mof_C 	C 	0.6537	0.7827	0.8608	0.168
Mof_H 	H 	0.6147	0.83	0.8353	-0.017
Mof_C 	C 	0.7284	0.8272	0.9657	-0.252
Mof_H 	H 	0.7425	0.9051	0.0097	0.119
Mof_C 	C 	0.7832	0.7588	0.0075	0.213
Mof_C 	C 	0.7662	0.6443	0.9391	-0.264
Mof_H 	H 	0.8019	0.5962	0.9649	0.124
Mof_C 	C 	0.6969	0.6014	0.8334	0.183
Mof_H 	H 	0.6911	0.5252	0.7882	-0.038
Mof_C 	C 	0.0063	0.2876	0.3909	0.543
Mof_C 	C 	0.9651	0.1597	0.3199	-0.271
Mof_C 	C 	0.8046	0.0898	0.2939	0.205
Mof_H 	H 	0.7194	0.1205	0.3221	-0.045
Mof_C 	C 	0.7686	0.9741	0.2261	-0.282
Mof_H 	H 	0.6586	0.927	0.2087	0.123
Mof_C 	C 	0.8936	0.9265	0.1834	0.21
Mof_C 	C 	0.0568	0.9951	0.2096	-0.25
Mof_H 	H 	0.1422	0.9644	0.1817	0.116
Mof_C 	C 	0.0907	0.112	0.2793	0.168
Mof_H 	H 	0.2011	0.1592	0.299	-0.017
_end
