data_functionalizedCrystal
_audit_creation_method	'EQeq! by Chris Wilmer'
_symmetry_space_group_name_H-M	'P1'
_symmetry_Int_Tables_number	1
_symmetry_cell_setting	triclinic
loop_
_symmetry_equiv_pos_as_xyz
  x,y,z
_cell_length_a	34.9643
_cell_length_b	34.9643
_cell_length_c	23.3985
_cell_angle_alpha	90
_cell_angle_beta	90
_cell_angle_gamma	120
loop_
_atom_site_label
_atom_site_type_symbol
_atom_site_fract_x
_atom_site_fract_y
_atom_site_fract_z
_atom_site_charge
Mof_O 	O 	0.36102	0.21971	0.60053	-0.419
Mof_O 	O 	0.39045	0.23457	0.68776	-0.414
Mof_C 	C 	0.38708	0.24441	0.6379	0.393
Mof_C 	C 	0.4184	0.29174	0.6209	-0.137
Mof_C 	C 	0.44702	0.32257	0.6599	0.086
Mof_H 	H 	0.4476	0.3143	0.6975	0.021
Mof_C 	C 	0.47478	0.36576	0.6428	-0.162
Mof_H 	H 	0.4938	0.3861	0.6695	0.106
Mof_C 	C 	0.47523	0.3797	0.5878	0.127
Mof_C 	C 	0.4465	0.34864	0.5485	-0.159
Mof_H 	H 	0.4464	0.357	0.5107	0.092
Mof_C 	C 	0.41803	0.30532	0.5653	0.08
Mof_H 	H 	0.3985	0.2851	0.5389	0.022
Mof_C 	C 	0.50423	0.42615	0.5695	-0.071
Mof_C 	C 	0.48584	0.44628	0.5361	-0.042
Mof_H 	H 	0.4565	0.4297	0.5248	0.047
Mof_C 	C 	0.6226	0.4113	0.6339	-0.005
Mof_C 	C 	0.5725	0.3821	0.5395	-0.016
Mof_O 	O 	0.02769	0.55304	0.93386	-0.419
Mof_O 	O 	0.05712	0.5679	0.02109	-0.414
Mof_C 	C 	0.05375	0.57774	0.97123	0.393
Mof_C 	C 	0.08507	0.62507	0.95423	-0.138
Mof_C 	C 	0.11369	0.6559	0.99323	0.086
Mof_H 	H 	0.11427	0.64763	0.03083	0.021
Mof_C 	C 	0.14145	0.69909	0.97613	-0.162
Mof_H 	H 	0.16047	0.71943	0.00283	0.105
Mof_C 	C 	0.1419	0.71303	0.92113	0.127
Mof_C 	C 	0.11317	0.68197	0.88183	-0.159
Mof_H 	H 	0.11307	0.69033	0.84403	0.092
Mof_C 	C 	0.0847	0.63865	0.89863	0.08
Mof_H 	H 	0.06517	0.61843	0.87223	0.022
Mof_C 	C 	0.1709	0.75948	0.90283	-0.071
Mof_C 	C 	0.15251	0.77961	0.86943	-0.042
Mof_H 	H 	0.12317	0.76303	0.85813	0.047
Mof_C 	C 	0.28927	0.74463	0.96723	-0.005
Mof_C 	C 	0.23917	0.71543	0.87283	-0.016
Mof_O 	O 	0.69435	0.88638	0.2672	-0.419
Mof_O 	O 	0.72378	0.90124	0.35443	-0.414
Mof_C 	C 	0.72041	0.91108	0.30457	0.392
Mof_C 	C 	0.75173	0.95841	0.28757	-0.137
Mof_C 	C 	0.78035	0.98924	0.32657	0.085
Mof_H 	H 	0.78093	0.98097	0.36417	0.021
Mof_C 	C 	0.80811	0.03243	0.30947	-0.161
Mof_H 	H 	0.82713	0.05277	0.33617	0.105
Mof_C 	C 	0.80856	0.04637	0.25447	0.126
Mof_C 	C 	0.77983	0.01531	0.21517	-0.16
Mof_H 	H 	0.77973	0.02367	0.17737	0.091
Mof_C 	C 	0.75136	0.97199	0.23197	0.079
Mof_H 	H 	0.73183	0.95177	0.20557	0.021
Mof_C 	C 	0.83756	0.09282	0.23617	-0.072
Mof_C 	C 	0.81917	0.11295	0.20277	-0.043
Mof_H 	H 	0.78983	0.09637	0.19147	0.046
Mof_C 	C 	0.95593	0.07797	0.30057	-0.006
Mof_C 	C 	0.90583	0.04877	0.20617	-0.017
Mof_O 	O 	0.78029	0.14131	0.60053	-0.42
Mof_O 	O 	0.76543	0.15588	0.68776	-0.415
Mof_C 	C 	0.75559	0.14267	0.6379	0.392
Mof_C 	C 	0.70826	0.12666	0.6209	-0.138
Mof_C 	C 	0.67743	0.12445	0.6599	0.085
Mof_H 	H 	0.6857	0.1333	0.6975	0.02
Mof_C 	C 	0.63424	0.10902	0.6428	-0.163
Mof_H 	H 	0.6139	0.1077	0.6695	0.105
Mof_C 	C 	0.6203	0.09553	0.5878	0.126
Mof_C 	C 	0.65136	0.09786	0.5485	-0.16
Mof_H 	H 	0.643	0.0894	0.5107	0.091
Mof_C 	C 	0.69468	0.11271	0.5653	0.079
Mof_H 	H 	0.7149	0.1134	0.5389	0.021
Mof_C 	C 	0.57385	0.07808	0.5695	-0.072
Mof_C 	C 	0.55372	0.03956	0.5361	-0.043
Mof_H 	H 	0.5703	0.0268	0.5248	0.046
Mof_C 	C 	0.5887	0.2113	0.6339	-0.006
Mof_C 	C 	0.6179	0.1904	0.5395	-0.017
Mof_O 	O 	0.44696	0.47464	0.93386	-0.42
Mof_O 	O 	0.4321	0.48921	0.02109	-0.415
Mof_C 	C 	0.42226	0.476	0.97123	0.392
Mof_C 	C 	0.37493	0.45999	0.95423	-0.138
Mof_C 	C 	0.3441	0.45778	0.99323	0.085
Mof_H 	H 	0.35237	0.46663	0.03083	0.02
Mof_C 	C 	0.30091	0.44235	0.97613	-0.163
Mof_H 	H 	0.28057	0.44103	0.00283	0.104
Mof_C 	C 	0.28697	0.42886	0.92113	0.126
Mof_C 	C 	0.31803	0.43119	0.88183	-0.16
Mof_H 	H 	0.30967	0.42273	0.84403	0.091
Mof_C 	C 	0.36135	0.44604	0.89863	0.079
Mof_H 	H 	0.38157	0.44673	0.87223	0.021
Mof_C 	C 	0.24052	0.41141	0.90283	-0.072
Mof_C 	C 	0.22039	0.37289	0.86943	-0.043
Mof_H 	H 	0.23697	0.36013	0.85813	0.046
Mof_C 	C 	0.25537	0.54463	0.96723	-0.006
Mof_C 	C 	0.28457	0.52373	0.87283	-0.017
Mof_O 	O 	0.11362	0.80798	0.2672	-0.42
Mof_O 	O 	0.09876	0.82255	0.35443	-0.415
Mof_C 	C 	0.08892	0.80934	0.30457	0.391
Mof_C 	C 	0.04159	0.79333	0.28757	-0.138
Mof_C 	C 	0.01076	0.79112	0.32657	0.084
Mof_H 	H 	0.01903	0.79997	0.36417	0.02
Mof_C 	C 	0.96757	0.77569	0.30947	-0.163
Mof_H 	H 	0.94723	0.77437	0.33617	0.104
Mof_C 	C 	0.95363	0.7622	0.25447	0.126
Mof_C 	C 	0.98469	0.76453	0.21517	-0.16
Mof_H 	H 	0.97633	0.75607	0.17737	0.091
Mof_C 	C 	0.02801	0.77938	0.23197	0.079
Mof_H 	H 	0.04823	0.78007	0.20557	0.021
Mof_C 	C 	0.90718	0.74475	0.23617	-0.072
Mof_C 	C 	0.88705	0.70623	0.20277	-0.043
Mof_H 	H 	0.90363	0.69347	0.19147	0.046
Mof_C 	C 	0.92203	0.87797	0.30057	-0.006
Mof_C 	C 	0.95123	0.85707	0.20617	-0.017
Mof_O 	O 	0.85869	0.63898	0.60053	-0.42
Mof_O 	O 	0.84412	0.60955	0.68776	-0.415
Mof_C 	C 	0.85733	0.61292	0.6379	0.392
Mof_C 	C 	0.87334	0.5816	0.6209	-0.138
Mof_C 	C 	0.87555	0.55298	0.6599	0.085
Mof_H 	H 	0.8667	0.5524	0.6975	0.02
Mof_C 	C 	0.89098	0.52522	0.6428	-0.163
Mof_H 	H 	0.8923	0.5062	0.6695	0.105
Mof_C 	C 	0.90447	0.52477	0.5878	0.126
Mof_C 	C 	0.90214	0.5535	0.5485	-0.16
Mof_H 	H 	0.9106	0.5536	0.5107	0.091
Mof_C 	C 	0.88729	0.58197	0.5653	0.079
Mof_H 	H 	0.8866	0.6015	0.5389	0.021
Mof_C 	C 	0.92192	0.49577	0.5695	-0.072
Mof_C 	C 	0.96044	0.51416	0.5361	-0.043
Mof_H 	H 	0.9732	0.5435	0.5248	0.046
Mof_C 	C 	0.7887	0.3774	0.6339	-0.006
Mof_C 	C 	0.8096	0.4275	0.5395	-0.017
Mof_O 	O 	0.52536	0.97231	0.93386	-0.42
Mof_O 	O 	0.51079	0.94288	0.02109	-0.415
Mof_C 	C 	0.524	0.94625	0.97123	0.392
Mof_C 	C 	0.54001	0.91493	0.95423	-0.139
Mof_C 	C 	0.54222	0.88631	0.99323	0.085
Mof_H 	H 	0.53337	0.88573	0.03083	0.02
Mof_C 	C 	0.55765	0.85855	0.97613	-0.163
Mof_H 	H 	0.55897	0.83953	0.00283	0.104
Mof_C 	C 	0.57114	0.8581	0.92113	0.126
Mof_C 	C 	0.56881	0.88683	0.88183	-0.16
Mof_H 	H 	0.57727	0.88693	0.84403	0.091
Mof_C 	C 	0.55396	0.9153	0.89863	0.079
Mof_H 	H 	0.55327	0.93483	0.87223	0.021
Mof_C 	C 	0.58859	0.8291	0.90283	-0.072
Mof_C 	C 	0.62711	0.84749	0.86943	-0.043
Mof_H 	H 	0.63987	0.87683	0.85813	0.046
Mof_C 	C 	0.45537	0.71073	0.96723	-0.006
Mof_C 	C 	0.47627	0.76083	0.87283	-0.017
Mof_O 	O 	0.19202	0.30565	0.2672	-0.42
Mof_O 	O 	0.17745	0.27622	0.35443	-0.415
Mof_C 	C 	0.19066	0.27959	0.30457	0.392
Mof_C 	C 	0.20667	0.24827	0.28757	-0.138
Mof_C 	C 	0.20888	0.21965	0.32657	0.085
Mof_H 	H 	0.20003	0.21907	0.36417	0.02
Mof_C 	C 	0.22431	0.19189	0.30947	-0.163
Mof_H 	H 	0.22563	0.17287	0.33617	0.105
Mof_C 	C 	0.2378	0.19144	0.25447	0.126
Mof_C 	C 	0.23547	0.22017	0.21517	-0.16
Mof_H 	H 	0.24393	0.22027	0.17737	0.091
Mof_C 	C 	0.22062	0.24864	0.23197	0.079
Mof_H 	H 	0.21993	0.26817	0.20557	0.021
Mof_C 	C 	0.25525	0.16244	0.23617	-0.072
Mof_C 	C 	0.29377	0.18083	0.20277	-0.043
Mof_H 	H 	0.30653	0.21017	0.19147	0.046
Mof_C 	C 	0.12203	0.04407	0.30057	-0.006
Mof_C 	C 	0.14293	0.09417	0.20617	-0.017
Mof_O 	O 	0.21971	0.36102	0.39947	-0.42
Mof_O 	O 	0.23457	0.39045	0.31224	-0.415
Mof_C 	C 	0.24441	0.38708	0.3621	0.392
Mof_C 	C 	0.29174	0.4184	0.3791	-0.138
Mof_C 	C 	0.32257	0.44702	0.3401	0.085
Mof_H 	H 	0.3143	0.4476	0.3025	0.02
Mof_C 	C 	0.36576	0.47478	0.3572	-0.163
Mof_H 	H 	0.3861	0.4938	0.3305	0.105
Mof_C 	C 	0.3797	0.47523	0.4122	0.126
Mof_C 	C 	0.34864	0.4465	0.4515	-0.16
Mof_H 	H 	0.357	0.4464	0.4893	0.091
Mof_C 	C 	0.30532	0.41803	0.4347	0.079
Mof_H 	H 	0.2851	0.3985	0.4611	0.021
Mof_C 	C 	0.42615	0.50423	0.4305	-0.072
Mof_C 	C 	0.44628	0.48584	0.4639	-0.043
Mof_H 	H 	0.4297	0.4565	0.4752	0.046
Mof_C 	C 	0.4113	0.6226	0.3661	-0.006
Mof_C 	C 	0.3821	0.5725	0.4605	-0.017
Mof_O 	O 	0.88638	0.69435	0.7328	-0.42
Mof_O 	O 	0.90124	0.72378	0.64557	-0.415
Mof_C 	C 	0.91108	0.72041	0.69543	0.391
Mof_C 	C 	0.95841	0.75173	0.71243	-0.138
Mof_C 	C 	0.98924	0.78035	0.67343	0.084
Mof_H 	H 	0.98097	0.78093	0.63583	0.02
Mof_C 	C 	0.03243	0.80811	0.69053	-0.162
Mof_H 	H 	0.05277	0.82713	0.66383	0.104
Mof_C 	C 	0.04637	0.80856	0.74553	0.126
Mof_C 	C 	0.01531	0.77983	0.78483	-0.16
Mof_H 	H 	0.02367	0.77973	0.82263	0.091
Mof_C 	C 	0.97199	0.75136	0.76803	0.079
Mof_H 	H 	0.95177	0.73183	0.79443	0.021
Mof_C 	C 	0.09282	0.83756	0.76383	-0.072
Mof_C 	C 	0.11295	0.81917	0.79723	-0.043
Mof_H 	H 	0.09637	0.78983	0.80853	0.046
Mof_C 	C 	0.07797	0.95593	0.69943	-0.006
Mof_C 	C 	0.04877	0.90583	0.79383	-0.017
Mof_O 	O 	0.55304	0.02769	0.06614	-0.42
Mof_O 	O 	0.5679	0.05712	0.97891	-0.415
Mof_C 	C 	0.57774	0.05375	0.02877	0.392
Mof_C 	C 	0.62507	0.08507	0.04577	-0.139
Mof_C 	C 	0.6559	0.11369	0.00677	0.085
Mof_H 	H 	0.64763	0.11427	0.96917	0.02
Mof_C 	C 	0.69909	0.14145	0.02387	-0.163
Mof_H 	H 	0.71943	0.16047	0.99717	0.104
Mof_C 	C 	0.71303	0.1419	0.07887	0.126
Mof_C 	C 	0.68197	0.11317	0.11817	-0.16
Mof_H 	H 	0.69033	0.11307	0.15597	0.091
Mof_C 	C 	0.63865	0.0847	0.10137	0.079
Mof_H 	H 	0.61843	0.06517	0.12777	0.021
Mof_C 	C 	0.75948	0.1709	0.09717	-0.072
Mof_C 	C 	0.77961	0.15251	0.13057	-0.043
Mof_H 	H 	0.76303	0.12317	0.14187	0.046
Mof_C 	C 	0.74463	0.28927	0.03277	-0.006
Mof_C 	C 	0.71543	0.23917	0.12717	-0.017
Mof_O 	O 	0.14131	0.78029	0.39947	-0.42
Mof_O 	O 	0.15588	0.76543	0.31224	-0.415
Mof_C 	C 	0.14267	0.75559	0.3621	0.392
Mof_C 	C 	0.12666	0.70826	0.3791	-0.138
Mof_C 	C 	0.12445	0.67743	0.3401	0.085
Mof_H 	H 	0.1333	0.6857	0.3025	0.02
Mof_C 	C 	0.10902	0.63424	0.3572	-0.163
Mof_H 	H 	0.1077	0.6139	0.3305	0.105
Mof_C 	C 	0.09553	0.6203	0.4122	0.126
Mof_C 	C 	0.09786	0.65136	0.4515	-0.16
Mof_H 	H 	0.0894	0.643	0.4893	0.091
Mof_C 	C 	0.11271	0.69468	0.4347	0.079
Mof_H 	H 	0.1134	0.7149	0.4611	0.021
Mof_C 	C 	0.07808	0.57385	0.4305	-0.072
Mof_C 	C 	0.03956	0.55372	0.4639	-0.043
Mof_H 	H 	0.0268	0.5703	0.4752	0.046
Mof_C 	C 	0.2113	0.5887	0.3661	-0.006
Mof_C 	C 	0.1904	0.6179	0.4605	-0.017
Mof_O 	O 	0.80798	0.11362	0.7328	-0.42
Mof_O 	O 	0.82255	0.09876	0.64557	-0.415
Mof_C 	C 	0.80934	0.08892	0.69543	0.391
Mof_C 	C 	0.79333	0.04159	0.71243	-0.138
Mof_C 	C 	0.79112	0.01076	0.67343	0.084
Mof_H 	H 	0.79997	0.01903	0.63583	0.02
Mof_C 	C 	0.77569	0.96757	0.69053	-0.163
Mof_H 	H 	0.77437	0.94723	0.66383	0.104
Mof_C 	C 	0.7622	0.95363	0.74553	0.126
Mof_C 	C 	0.76453	0.98469	0.78483	-0.16
Mof_H 	H 	0.75607	0.97633	0.82263	0.091
Mof_C 	C 	0.77938	0.02801	0.76803	0.079
Mof_H 	H 	0.78007	0.04823	0.79443	0.021
Mof_C 	C 	0.74475	0.90718	0.76383	-0.072
Mof_C 	C 	0.70623	0.88705	0.79723	-0.043
Mof_H 	H 	0.69347	0.90363	0.80853	0.046
Mof_C 	C 	0.87797	0.92203	0.69943	-0.006
Mof_C 	C 	0.85707	0.95123	0.79383	-0.017
Mof_O 	O 	0.47464	0.44696	0.06614	-0.42
Mof_O 	O 	0.48921	0.4321	0.97891	-0.415
Mof_C 	C 	0.476	0.42226	0.02877	0.392
Mof_C 	C 	0.45999	0.37493	0.04577	-0.138
Mof_C 	C 	0.45778	0.3441	0.00677	0.085
Mof_H 	H 	0.46663	0.35237	0.96917	0.02
Mof_C 	C 	0.44235	0.30091	0.02387	-0.163
Mof_H 	H 	0.44103	0.28057	0.99717	0.104
Mof_C 	C 	0.42886	0.28697	0.07887	0.126
Mof_C 	C 	0.43119	0.31803	0.11817	-0.16
Mof_H 	H 	0.42273	0.30967	0.15597	0.091
Mof_C 	C 	0.44604	0.36135	0.10137	0.079
Mof_H 	H 	0.44673	0.38157	0.12777	0.021
Mof_C 	C 	0.41141	0.24052	0.09717	-0.072
Mof_C 	C 	0.37289	0.22039	0.13057	-0.043
Mof_H 	H 	0.36013	0.23697	0.14187	0.046
Mof_C 	C 	0.54463	0.25537	0.03277	-0.006
Mof_C 	C 	0.52373	0.28457	0.12717	-0.017
Mof_O 	O 	0.63898	0.85869	0.39947	-0.42
Mof_O 	O 	0.60955	0.84412	0.31224	-0.415
Mof_C 	C 	0.61292	0.85733	0.3621	0.392
Mof_C 	C 	0.5816	0.87334	0.3791	-0.138
Mof_C 	C 	0.55298	0.87555	0.3401	0.085
Mof_H 	H 	0.5524	0.8667	0.3025	0.02
Mof_C 	C 	0.52522	0.89098	0.3572	-0.163
Mof_H 	H 	0.5062	0.8923	0.3305	0.105
Mof_C 	C 	0.52477	0.90447	0.4122	0.126
Mof_C 	C 	0.5535	0.90214	0.4515	-0.16
Mof_H 	H 	0.5536	0.9106	0.4893	0.091
Mof_C 	C 	0.58197	0.88729	0.4347	0.079
Mof_H 	H 	0.6015	0.8866	0.4611	0.021
Mof_C 	C 	0.49577	0.92192	0.4305	-0.072
Mof_C 	C 	0.51416	0.96044	0.4639	-0.043
Mof_H 	H 	0.5435	0.9732	0.4752	0.046
Mof_C 	C 	0.3774	0.7887	0.3661	-0.006
Mof_C 	C 	0.4275	0.8096	0.4605	-0.017
Mof_O 	O 	0.30565	0.19202	0.7328	-0.42
Mof_O 	O 	0.27622	0.17745	0.64557	-0.415
Mof_C 	C 	0.27959	0.19066	0.69543	0.392
Mof_C 	C 	0.24827	0.20667	0.71243	-0.138
Mof_C 	C 	0.21965	0.20888	0.67343	0.085
Mof_H 	H 	0.21907	0.20003	0.63583	0.02
Mof_C 	C 	0.19189	0.22431	0.69053	-0.163
Mof_H 	H 	0.17287	0.22563	0.66383	0.105
Mof_C 	C 	0.19144	0.2378	0.74553	0.126
Mof_C 	C 	0.22017	0.23547	0.78483	-0.16
Mof_H 	H 	0.22027	0.24393	0.82263	0.091
Mof_C 	C 	0.24864	0.22062	0.76803	0.079
Mof_H 	H 	0.26817	0.21993	0.79443	0.021
Mof_C 	C 	0.16244	0.25525	0.76383	-0.072
Mof_C 	C 	0.18083	0.29377	0.79723	-0.043
Mof_H 	H 	0.21017	0.30653	0.80853	0.046
Mof_C 	C 	0.04407	0.12203	0.69943	-0.006
Mof_C 	C 	0.09417	0.14293	0.79383	-0.017
Mof_O 	O 	0.97231	0.52536	0.06614	-0.42
Mof_O 	O 	0.94288	0.51079	0.97891	-0.415
Mof_C 	C 	0.94625	0.524	0.02877	0.392
Mof_C 	C 	0.91493	0.54001	0.04577	-0.139
Mof_C 	C 	0.88631	0.54222	0.00677	0.085
Mof_H 	H 	0.88573	0.53337	0.96917	0.02
Mof_C 	C 	0.85855	0.55765	0.02387	-0.163
Mof_H 	H 	0.83953	0.55897	0.99717	0.104
Mof_C 	C 	0.8581	0.57114	0.07887	0.126
Mof_C 	C 	0.88683	0.56881	0.11817	-0.16
Mof_H 	H 	0.88693	0.57727	0.15597	0.091
Mof_C 	C 	0.9153	0.55396	0.10137	0.079
Mof_H 	H 	0.93483	0.55327	0.12777	0.021
Mof_C 	C 	0.8291	0.58859	0.09717	-0.072
Mof_C 	C 	0.84749	0.62711	0.13057	-0.043
Mof_H 	H 	0.87683	0.63987	0.14187	0.046
Mof_C 	C 	0.71073	0.45537	0.03277	-0.006
Mof_C 	C 	0.76083	0.47627	0.12717	-0.017
Mof_O 	O 	0.63898	0.78029	0.39947	-0.42
Mof_O 	O 	0.60955	0.76543	0.31224	-0.415
Mof_C 	C 	0.61292	0.75559	0.3621	0.392
Mof_C 	C 	0.5816	0.70826	0.3791	-0.138
Mof_C 	C 	0.55298	0.67743	0.3401	0.085
Mof_H 	H 	0.5524	0.6857	0.3025	0.02
Mof_C 	C 	0.52522	0.63424	0.3572	-0.163
Mof_H 	H 	0.5062	0.6139	0.3305	0.105
Mof_C 	C 	0.52477	0.6203	0.4122	0.126
Mof_C 	C 	0.5535	0.65136	0.4515	-0.16
Mof_H 	H 	0.5536	0.643	0.4893	0.091
Mof_C 	C 	0.58197	0.69468	0.4347	0.079
Mof_H 	H 	0.6015	0.7149	0.4611	0.021
Mof_C 	C 	0.49577	0.57385	0.4305	-0.072
Mof_C 	C 	0.51416	0.55372	0.4639	-0.043
Mof_H 	H 	0.5435	0.5703	0.4752	0.046
Mof_C 	C 	0.3774	0.5887	0.3661	-0.006
Mof_C 	C 	0.4275	0.6179	0.4605	-0.017
Mof_O 	O 	0.30565	0.11362	0.7328	-0.42
Mof_O 	O 	0.27622	0.09876	0.64557	-0.415
Mof_C 	C 	0.27959	0.08892	0.69543	0.391
Mof_C 	C 	0.24827	0.04159	0.71243	-0.138
Mof_C 	C 	0.21965	0.01076	0.67343	0.084
Mof_H 	H 	0.21907	0.01903	0.63583	0.02
Mof_C 	C 	0.19189	0.96757	0.69053	-0.162
Mof_H 	H 	0.17287	0.94723	0.66383	0.104
Mof_C 	C 	0.19144	0.95363	0.74553	0.126
Mof_C 	C 	0.22017	0.98469	0.78483	-0.16
Mof_H 	H 	0.22027	0.97633	0.82263	0.091
Mof_C 	C 	0.24864	0.02801	0.76803	0.079
Mof_H 	H 	0.26817	0.04823	0.79443	0.021
Mof_C 	C 	0.16244	0.90718	0.76383	-0.072
Mof_C 	C 	0.18083	0.88705	0.79723	-0.043
Mof_H 	H 	0.21017	0.90363	0.80853	0.046
Mof_C 	C 	0.04407	0.92203	0.69943	-0.006
Mof_C 	C 	0.09417	0.95123	0.79383	-0.017
Mof_O 	O 	0.97231	0.44696	0.06614	-0.42
Mof_O 	O 	0.94288	0.4321	0.97891	-0.415
Mof_C 	C 	0.94625	0.42226	0.02877	0.392
Mof_C 	C 	0.91493	0.37493	0.04577	-0.139
Mof_C 	C 	0.88631	0.3441	0.00677	0.085
Mof_H 	H 	0.88573	0.35237	0.96917	0.02
Mof_C 	C 	0.85855	0.30091	0.02387	-0.163
Mof_H 	H 	0.83953	0.28057	0.99717	0.104
Mof_C 	C 	0.8581	0.28697	0.07887	0.126
Mof_C 	C 	0.88683	0.31803	0.11817	-0.16
Mof_H 	H 	0.88693	0.30967	0.15597	0.091
Mof_C 	C 	0.9153	0.36135	0.10137	0.079
Mof_H 	H 	0.93483	0.38157	0.12777	0.021
Mof_C 	C 	0.8291	0.24052	0.09717	-0.072
Mof_C 	C 	0.84749	0.22039	0.13057	-0.043
Mof_H 	H 	0.87683	0.23697	0.14187	0.046
Mof_C 	C 	0.71073	0.25537	0.03277	-0.006
Mof_C 	C 	0.76083	0.28457	0.12717	-0.017
Mof_O 	O 	0.21971	0.85869	0.39947	-0.42
Mof_O 	O 	0.23457	0.84412	0.31224	-0.415
Mof_C 	C 	0.24441	0.85733	0.3621	0.392
Mof_C 	C 	0.29174	0.87334	0.3791	-0.138
Mof_C 	C 	0.32257	0.87555	0.3401	0.085
Mof_H 	H 	0.3143	0.8667	0.3025	0.02
Mof_C 	C 	0.36576	0.89098	0.3572	-0.163
Mof_H 	H 	0.3861	0.8923	0.3305	0.105
Mof_C 	C 	0.3797	0.90447	0.4122	0.126
Mof_C 	C 	0.34864	0.90214	0.4515	-0.16
Mof_H 	H 	0.357	0.9106	0.4893	0.091
Mof_C 	C 	0.30532	0.88729	0.4347	0.079
Mof_H 	H 	0.2851	0.8866	0.4611	0.021
Mof_C 	C 	0.42615	0.92192	0.4305	-0.072
Mof_C 	C 	0.44628	0.96044	0.4639	-0.043
Mof_H 	H 	0.4297	0.9732	0.4752	0.046
Mof_C 	C 	0.4113	0.7887	0.3661	-0.006
Mof_C 	C 	0.3821	0.8096	0.4605	-0.017
Mof_O 	O 	0.88638	0.19202	0.7328	-0.42
Mof_O 	O 	0.90124	0.17745	0.64557	-0.415
Mof_C 	C 	0.91108	0.19066	0.69543	0.391
Mof_C 	C 	0.95841	0.20667	0.71243	-0.138
Mof_C 	C 	0.98924	0.20888	0.67343	0.084
Mof_H 	H 	0.98097	0.20003	0.63583	0.02
Mof_C 	C 	0.03243	0.22431	0.69053	-0.163
Mof_H 	H 	0.05277	0.22563	0.66383	0.104
Mof_C 	C 	0.04637	0.2378	0.74553	0.126
Mof_C 	C 	0.01531	0.23547	0.78483	-0.16
Mof_H 	H 	0.02367	0.24393	0.82263	0.091
Mof_C 	C 	0.97199	0.22062	0.76803	0.079
Mof_H 	H 	0.95177	0.21993	0.79443	0.021
Mof_C 	C 	0.09282	0.25525	0.76383	-0.072
Mof_C 	C 	0.11295	0.29377	0.79723	-0.043
Mof_H 	H 	0.09637	0.30653	0.80853	0.046
Mof_C 	C 	0.07797	0.12203	0.69943	-0.006
Mof_C 	C 	0.04877	0.14293	0.79383	-0.017
Mof_O 	O 	0.55304	0.52536	0.06614	-0.42
Mof_O 	O 	0.5679	0.51079	0.97891	-0.415
Mof_C 	C 	0.57774	0.524	0.02877	0.392
Mof_C 	C 	0.62507	0.54001	0.04577	-0.138
Mof_C 	C 	0.6559	0.54222	0.00677	0.085
Mof_H 	H 	0.64763	0.53337	0.96917	0.02
Mof_C 	C 	0.69909	0.55765	0.02387	-0.163
Mof_H 	H 	0.71943	0.55897	0.99717	0.104
Mof_C 	C 	0.71303	0.57114	0.07887	0.126
Mof_C 	C 	0.68197	0.56881	0.11817	-0.16
Mof_H 	H 	0.69033	0.57727	0.15597	0.091
Mof_C 	C 	0.63865	0.55396	0.10137	0.079
Mof_H 	H 	0.61843	0.55327	0.12777	0.021
Mof_C 	C 	0.75948	0.58859	0.09717	-0.072
Mof_C 	C 	0.77961	0.62711	0.13057	-0.043
Mof_H 	H 	0.76303	0.63987	0.14187	0.046
Mof_C 	C 	0.74463	0.45537	0.03277	-0.006
Mof_C 	C 	0.71543	0.47627	0.12717	-0.017
Mof_O 	O 	0.14131	0.36102	0.39947	-0.42
Mof_O 	O 	0.15588	0.39045	0.31224	-0.415
Mof_C 	C 	0.14267	0.38708	0.3621	0.392
Mof_C 	C 	0.12666	0.4184	0.3791	-0.138
Mof_C 	C 	0.12445	0.44702	0.3401	0.085
Mof_H 	H 	0.1333	0.4476	0.3025	0.02
Mof_C 	C 	0.10902	0.47478	0.3572	-0.163
Mof_H 	H 	0.1077	0.4938	0.3305	0.105
Mof_C 	C 	0.09553	0.47523	0.4122	0.126
Mof_C 	C 	0.09786	0.4465	0.4515	-0.16
Mof_H 	H 	0.0894	0.4464	0.4893	0.091
Mof_C 	C 	0.11271	0.41803	0.4347	0.079
Mof_H 	H 	0.1134	0.3985	0.4611	0.021
Mof_C 	C 	0.07808	0.50423	0.4305	-0.072
Mof_C 	C 	0.03956	0.48584	0.4639	-0.043
Mof_H 	H 	0.0268	0.4565	0.4752	0.046
Mof_C 	C 	0.2113	0.6226	0.3661	-0.006
Mof_C 	C 	0.1904	0.5725	0.4605	-0.017
Mof_O 	O 	0.80798	0.69435	0.7328	-0.42
Mof_O 	O 	0.82255	0.72378	0.64557	-0.415
Mof_C 	C 	0.80934	0.72041	0.69543	0.392
Mof_C 	C 	0.79333	0.75173	0.71243	-0.138
Mof_C 	C 	0.79112	0.78035	0.67343	0.085
Mof_H 	H 	0.79997	0.78093	0.63583	0.02
Mof_C 	C 	0.77569	0.80811	0.69053	-0.163
Mof_H 	H 	0.77437	0.82713	0.66383	0.105
Mof_C 	C 	0.7622	0.80856	0.74553	0.126
Mof_C 	C 	0.76453	0.77983	0.78483	-0.16
Mof_H 	H 	0.75607	0.77973	0.82263	0.091
Mof_C 	C 	0.77938	0.75136	0.76803	0.079
Mof_H 	H 	0.78007	0.73183	0.79443	0.021
Mof_C 	C 	0.74475	0.83756	0.76383	-0.072
Mof_C 	C 	0.70623	0.81917	0.79723	-0.043
Mof_H 	H 	0.69347	0.78983	0.80853	0.046
Mof_C 	C 	0.87797	0.95593	0.69943	-0.006
Mof_C 	C 	0.85707	0.90583	0.79383	-0.017
Mof_O 	O 	0.47464	0.02769	0.06614	-0.42
Mof_O 	O 	0.48921	0.05712	0.97891	-0.415
Mof_C 	C 	0.476	0.05375	0.02877	0.392
Mof_C 	C 	0.45999	0.08507	0.04577	-0.139
Mof_C 	C 	0.45778	0.11369	0.00677	0.085
Mof_H 	H 	0.46663	0.11427	0.96917	0.02
Mof_C 	C 	0.44235	0.14145	0.02387	-0.163
Mof_H 	H 	0.44103	0.16047	0.99717	0.104
Mof_C 	C 	0.42886	0.1419	0.07887	0.126
Mof_C 	C 	0.43119	0.11317	0.11817	-0.16
Mof_H 	H 	0.42273	0.11307	0.15597	0.091
Mof_C 	C 	0.44604	0.0847	0.10137	0.079
Mof_H 	H 	0.44673	0.06517	0.12777	0.021
Mof_C 	C 	0.41141	0.1709	0.09717	-0.072
Mof_C 	C 	0.37289	0.15251	0.13057	-0.043
Mof_H 	H 	0.36013	0.12317	0.14187	0.046
Mof_C 	C 	0.54463	0.28927	0.03277	-0.006
Mof_C 	C 	0.52373	0.23917	0.12717	-0.017
Mof_O 	O 	0.78029	0.63898	0.60053	-0.42
Mof_O 	O 	0.76543	0.60955	0.68776	-0.415
Mof_C 	C 	0.75559	0.61292	0.6379	0.392
Mof_C 	C 	0.70826	0.5816	0.6209	-0.138
Mof_C 	C 	0.67743	0.55298	0.6599	0.085
Mof_H 	H 	0.6857	0.5524	0.6975	0.02
Mof_C 	C 	0.63424	0.52522	0.6428	-0.163
Mof_H 	H 	0.6139	0.5062	0.6695	0.105
Mof_C 	C 	0.6203	0.52477	0.5878	0.126
Mof_C 	C 	0.65136	0.5535	0.5485	-0.16
Mof_H 	H 	0.643	0.5536	0.5107	0.091
Mof_C 	C 	0.69468	0.58197	0.5653	0.079
Mof_H 	H 	0.7149	0.6015	0.5389	0.021
Mof_C 	C 	0.57385	0.49577	0.5695	-0.072
Mof_C 	C 	0.55372	0.51416	0.5361	-0.043
Mof_H 	H 	0.5703	0.5435	0.5248	0.046
Mof_C 	C 	0.5887	0.3774	0.6339	-0.006
Mof_C 	C 	0.6179	0.4275	0.5395	-0.017
Mof_O 	O 	0.44696	0.97231	0.93386	-0.42
Mof_O 	O 	0.4321	0.94288	0.02109	-0.415
Mof_C 	C 	0.42226	0.94625	0.97123	0.392
Mof_C 	C 	0.37493	0.91493	0.95423	-0.139
Mof_C 	C 	0.3441	0.88631	0.99323	0.085
Mof_H 	H 	0.35237	0.88573	0.03083	0.02
Mof_C 	C 	0.30091	0.85855	0.97613	-0.163
Mof_H 	H 	0.28057	0.83953	0.00283	0.104
Mof_C 	C 	0.28697	0.8581	0.92113	0.126
Mof_C 	C 	0.31803	0.88683	0.88183	-0.16
Mof_H 	H 	0.30967	0.88693	0.84403	0.091
Mof_C 	C 	0.36135	0.9153	0.89863	0.079
Mof_H 	H 	0.38157	0.93483	0.87223	0.021
Mof_C 	C 	0.24052	0.8291	0.90283	-0.072
Mof_C 	C 	0.22039	0.84749	0.86943	-0.043
Mof_H 	H 	0.23697	0.87683	0.85813	0.046
Mof_C 	C 	0.25537	0.71073	0.96723	-0.006
Mof_C 	C 	0.28457	0.76083	0.87283	-0.017
Mof_O 	O 	0.11362	0.30565	0.2672	-0.42
Mof_O 	O 	0.09876	0.27622	0.35443	-0.415
Mof_C 	C 	0.08892	0.27959	0.30457	0.391
Mof_C 	C 	0.04159	0.24827	0.28757	-0.138
Mof_C 	C 	0.01076	0.21965	0.32657	0.084
Mof_H 	H 	0.01903	0.21907	0.36417	0.02
Mof_C 	C 	0.96757	0.19189	0.30947	-0.162
Mof_H 	H 	0.94723	0.17287	0.33617	0.104
Mof_C 	C 	0.95363	0.19144	0.25447	0.126
Mof_C 	C 	0.98469	0.22017	0.21517	-0.16
Mof_H 	H 	0.97633	0.22027	0.17737	0.091
Mof_C 	C 	0.02801	0.24864	0.23197	0.079
Mof_H 	H 	0.04823	0.26817	0.20557	0.021
Mof_C 	C 	0.90718	0.16244	0.23617	-0.072
Mof_C 	C 	0.88705	0.18083	0.20277	-0.043
Mof_H 	H 	0.90363	0.21017	0.19147	0.046
Mof_C 	C 	0.92203	0.04407	0.30057	-0.006
Mof_C 	C 	0.95123	0.09417	0.20617	-0.017
Mof_O 	O 	0.85869	0.21971	0.60053	-0.42
Mof_O 	O 	0.84412	0.23457	0.68776	-0.415
Mof_C 	C 	0.85733	0.24441	0.6379	0.392
Mof_C 	C 	0.87334	0.29174	0.6209	-0.138
Mof_C 	C 	0.87555	0.32257	0.6599	0.085
Mof_H 	H 	0.8667	0.3143	0.6975	0.02
Mof_C 	C 	0.89098	0.36576	0.6428	-0.163
Mof_H 	H 	0.8923	0.3861	0.6695	0.105
Mof_C 	C 	0.90447	0.3797	0.5878	0.126
Mof_C 	C 	0.90214	0.34864	0.5485	-0.16
Mof_H 	H 	0.9106	0.357	0.5107	0.091
Mof_C 	C 	0.88729	0.30532	0.5653	0.079
Mof_H 	H 	0.8866	0.2851	0.5389	0.021
Mof_C 	C 	0.92192	0.42615	0.5695	-0.072
Mof_C 	C 	0.96044	0.44628	0.5361	-0.043
Mof_H 	H 	0.9732	0.4297	0.5248	0.046
Mof_C 	C 	0.7887	0.4113	0.6339	-0.006
Mof_C 	C 	0.8096	0.3821	0.5395	-0.017
Mof_O 	O 	0.52536	0.55304	0.93386	-0.42
Mof_O 	O 	0.51079	0.5679	0.02109	-0.415
Mof_C 	C 	0.524	0.57774	0.97123	0.392
Mof_C 	C 	0.54001	0.62507	0.95423	-0.138
Mof_C 	C 	0.54222	0.6559	0.99323	0.085
Mof_H 	H 	0.53337	0.64763	0.03083	0.02
Mof_C 	C 	0.55765	0.69909	0.97613	-0.163
Mof_H 	H 	0.55897	0.71943	0.00283	0.104
Mof_C 	C 	0.57114	0.71303	0.92113	0.126
Mof_C 	C 	0.56881	0.68197	0.88183	-0.16
Mof_H 	H 	0.57727	0.69033	0.84403	0.091
Mof_C 	C 	0.55396	0.63865	0.89863	0.079
Mof_H 	H 	0.55327	0.61843	0.87223	0.021
Mof_C 	C 	0.58859	0.75948	0.90283	-0.072
Mof_C 	C 	0.62711	0.77961	0.86943	-0.043
Mof_H 	H 	0.63987	0.76303	0.85813	0.046
Mof_C 	C 	0.45537	0.74463	0.96723	-0.006
Mof_C 	C 	0.47627	0.71543	0.87283	-0.017
Mof_O 	O 	0.19202	0.88638	0.2672	-0.42
Mof_O 	O 	0.17745	0.90124	0.35443	-0.415
Mof_C 	C 	0.19066	0.91108	0.30457	0.391
Mof_C 	C 	0.20667	0.95841	0.28757	-0.138
Mof_C 	C 	0.20888	0.98924	0.32657	0.084
Mof_H 	H 	0.20003	0.98097	0.36417	0.02
Mof_C 	C 	0.22431	0.03243	0.30947	-0.163
Mof_H 	H 	0.22563	0.05277	0.33617	0.104
Mof_C 	C 	0.2378	0.04637	0.25447	0.126
Mof_C 	C 	0.23547	0.01531	0.21517	-0.16
Mof_H 	H 	0.24393	0.02367	0.17737	0.091
Mof_C 	C 	0.22062	0.97199	0.23197	0.079
Mof_H 	H 	0.21993	0.95177	0.20557	0.021
Mof_C 	C 	0.25525	0.09282	0.23617	-0.072
Mof_C 	C 	0.29377	0.11295	0.20277	-0.043
Mof_H 	H 	0.30653	0.09637	0.19147	0.046
Mof_C 	C 	0.12203	0.07797	0.30057	-0.006
Mof_C 	C 	0.14293	0.04877	0.20617	-0.017
Mof_O 	O 	0.36102	0.14131	0.60053	-0.42
Mof_O 	O 	0.39045	0.15588	0.68776	-0.415
Mof_C 	C 	0.38708	0.14267	0.6379	0.392
Mof_C 	C 	0.4184	0.12666	0.6209	-0.138
Mof_C 	C 	0.44702	0.12445	0.6599	0.085
Mof_H 	H 	0.4476	0.1333	0.6975	0.02
Mof_C 	C 	0.47478	0.10902	0.6428	-0.163
Mof_H 	H 	0.4938	0.1077	0.6695	0.105
Mof_C 	C 	0.47523	0.09553	0.5878	0.126
Mof_C 	C 	0.4465	0.09786	0.5485	-0.16
Mof_H 	H 	0.4464	0.0894	0.5107	0.091
Mof_C 	C 	0.41803	0.11271	0.5653	0.079
Mof_H 	H 	0.3985	0.1134	0.5389	0.021
Mof_C 	C 	0.50423	0.07808	0.5695	-0.072
Mof_C 	C 	0.48584	0.03956	0.5361	-0.043
Mof_H 	H 	0.4565	0.0268	0.5248	0.046
Mof_C 	C 	0.6226	0.2113	0.6339	-0.006
Mof_C 	C 	0.5725	0.1904	0.5395	-0.017
Mof_O 	O 	0.02769	0.47464	0.93386	-0.42
Mof_O 	O 	0.05712	0.48921	0.02109	-0.415
Mof_C 	C 	0.05375	0.476	0.97123	0.392
Mof_C 	C 	0.08507	0.45999	0.95423	-0.139
Mof_C 	C 	0.11369	0.45778	0.99323	0.085
Mof_H 	H 	0.11427	0.46663	0.03083	0.02
Mof_C 	C 	0.14145	0.44235	0.97613	-0.163
Mof_H 	H 	0.16047	0.44103	0.00283	0.104
Mof_C 	C 	0.1419	0.42886	0.92113	0.126
Mof_C 	C 	0.11317	0.43119	0.88183	-0.16
Mof_H 	H 	0.11307	0.42273	0.84403	0.091
Mof_C 	C 	0.0847	0.44604	0.89863	0.079
Mof_H 	H 	0.06517	0.44673	0.87223	0.021
Mof_C 	C 	0.1709	0.41141	0.90283	-0.072
Mof_C 	C 	0.15251	0.37289	0.86943	-0.043
Mof_H 	H 	0.12317	0.36013	0.85813	0.046
Mof_C 	C 	0.28927	0.54463	0.96723	-0.006
Mof_C 	C 	0.23917	0.52373	0.87283	-0.017
Mof_O 	O 	0.69435	0.80798	0.2672	-0.42
Mof_O 	O 	0.72378	0.82255	0.35443	-0.415
Mof_C 	C 	0.72041	0.80934	0.30457	0.392
Mof_C 	C 	0.75173	0.79333	0.28757	-0.138
Mof_C 	C 	0.78035	0.79112	0.32657	0.085
Mof_H 	H 	0.78093	0.79997	0.36417	0.02
Mof_C 	C 	0.80811	0.77569	0.30947	-0.163
Mof_H 	H 	0.82713	0.77437	0.33617	0.105
Mof_C 	C 	0.80856	0.7622	0.25447	0.126
Mof_C 	C 	0.77983	0.76453	0.21517	-0.16
Mof_H 	H 	0.77973	0.75607	0.17737	0.091
Mof_C 	C 	0.75136	0.77938	0.23197	0.079
Mof_H 	H 	0.73183	0.78007	0.20557	0.021
Mof_C 	C 	0.83756	0.74475	0.23617	-0.072
Mof_C 	C 	0.81917	0.70623	0.20277	-0.043
Mof_H 	H 	0.78983	0.69347	0.19147	0.046
Mof_C 	C 	0.95593	0.87797	0.30057	-0.006
Mof_C 	C 	0.90583	0.85707	0.20617	-0.017
Mof_Cu	Cu	0.3502	0.1751	0.71849	0.905
Mof_Cu	Cu	0.01687	0.50843	0.05182	0.905
Mof_Cu	Cu	0.68353	0.84177	0.38516	0.905
Mof_Cu	Cu	0.8249	0.1751	0.71849	0.905
Mof_Cu	Cu	0.49157	0.50843	0.05182	0.905
Mof_Cu	Cu	0.15823	0.84177	0.38516	0.905
Mof_Cu	Cu	0.8249	0.6498	0.71849	0.905
Mof_Cu	Cu	0.49157	0.98313	0.05182	0.905
Mof_Cu	Cu	0.15823	0.31647	0.38516	0.905
Mof_Cu	Cu	0.1751	0.3502	0.28151	0.905
Mof_Cu	Cu	0.84177	0.68353	0.61484	0.905
Mof_Cu	Cu	0.50843	0.01687	0.94818	0.905
Mof_Cu	Cu	0.1751	0.8249	0.28151	0.905
Mof_Cu	Cu	0.84177	0.15823	0.61484	0.905
Mof_Cu	Cu	0.50843	0.49157	0.94818	0.905
Mof_Cu	Cu	0.6498	0.8249	0.28151	0.905
Mof_Cu	Cu	0.31647	0.15823	0.61484	0.905
Mof_Cu	Cu	0.98313	0.49157	0.94818	0.905
Mof_O 	O 	0.56719	0.43281	0.6198	-0.222
Mof_C 	C 	0.51001	0.48999	0.5195	0.009
Mof_C 	C 	0.54805	0.45195	0.5857	0.141
Mof_C 	C 	0.58843	0.41157	0.5919	0.105
Mof_O 	O 	0.23386	0.76614	0.95313	-0.222
Mof_C 	C 	0.17668	0.82332	0.85283	0.009
Mof_C 	C 	0.21472	0.78528	0.91903	0.141
Mof_C 	C 	0.2551	0.7449	0.92523	0.104
Mof_O 	O 	0.90052	0.09948	0.28647	-0.222
Mof_C 	C 	0.84334	0.15666	0.18617	0.009
Mof_C 	C 	0.88138	0.11862	0.25237	0.141
Mof_C 	C 	0.92176	0.07824	0.25857	0.104
Mof_O 	O 	0.56719	0.13438	0.6198	-0.222
Mof_C 	C 	0.51001	0.02002	0.5195	0.009
Mof_C 	C 	0.54805	0.0961	0.5857	0.141
Mof_C 	C 	0.58843	0.17686	0.5919	0.105
Mof_O 	O 	0.23386	0.46771	0.95313	-0.222
Mof_C 	C 	0.17668	0.35335	0.85283	0.009
Mof_C 	C 	0.21472	0.42943	0.91903	0.141
Mof_C 	C 	0.2551	0.51019	0.92523	0.105
Mof_O 	O 	0.90052	0.80105	0.28647	-0.222
Mof_C 	C 	0.84334	0.68669	0.18617	0.009
Mof_C 	C 	0.88138	0.76277	0.25237	0.141
Mof_C 	C 	0.92176	0.84353	0.25857	0.105
Mof_O 	O 	0.86562	0.43281	0.6198	-0.222
Mof_C 	C 	0.97998	0.48999	0.5195	0.009
Mof_C 	C 	0.9039	0.45195	0.5857	0.141
Mof_C 	C 	0.82314	0.41157	0.5919	0.105
Mof_O 	O 	0.53229	0.76614	0.95313	-0.222
Mof_C 	C 	0.64665	0.82332	0.85283	0.009
Mof_C 	C 	0.57057	0.78528	0.91903	0.141
Mof_C 	C 	0.48981	0.7449	0.92523	0.105
Mof_O 	O 	0.19895	0.09948	0.28647	-0.222
Mof_C 	C 	0.31331	0.15666	0.18617	0.009
Mof_C 	C 	0.23723	0.11862	0.25237	0.141
Mof_C 	C 	0.15647	0.07824	0.25857	0.105
Mof_O 	O 	0.43281	0.56719	0.3802	-0.222
Mof_C 	C 	0.48999	0.51001	0.4805	0.009
Mof_C 	C 	0.45195	0.54805	0.4143	0.141
Mof_C 	C 	0.41157	0.58843	0.4081	0.105
Mof_O 	O 	0.09948	0.90052	0.71353	-0.222
Mof_C 	C 	0.15666	0.84334	0.81383	0.009
Mof_C 	C 	0.11862	0.88138	0.74763	0.141
Mof_C 	C 	0.07824	0.92176	0.74143	0.104
Mof_O 	O 	0.76614	0.23386	0.04687	-0.222
Mof_C 	C 	0.82332	0.17668	0.14717	0.009
Mof_C 	C 	0.78528	0.21472	0.08097	0.141
Mof_C 	C 	0.7449	0.2551	0.07477	0.104
Mof_O 	O 	0.13438	0.56719	0.3802	-0.222
Mof_C 	C 	0.02002	0.51001	0.4805	0.009
Mof_C 	C 	0.0961	0.54805	0.4143	0.141
Mof_C 	C 	0.17686	0.58843	0.4081	0.105
Mof_O 	O 	0.80105	0.90052	0.71353	-0.222
Mof_C 	C 	0.68669	0.84334	0.81383	0.009
Mof_C 	C 	0.76277	0.88138	0.74763	0.141
Mof_C 	C 	0.84353	0.92176	0.74143	0.105
Mof_O 	O 	0.46771	0.23386	0.04687	-0.222
Mof_C 	C 	0.35335	0.17668	0.14717	0.009
Mof_C 	C 	0.42943	0.21472	0.08097	0.141
Mof_C 	C 	0.51019	0.2551	0.07477	0.105
Mof_O 	O 	0.43281	0.86562	0.3802	-0.222
Mof_C 	C 	0.48999	0.97998	0.4805	0.009
Mof_C 	C 	0.45195	0.9039	0.4143	0.141
Mof_C 	C 	0.41157	0.82314	0.4081	0.105
Mof_O 	O 	0.09948	0.19895	0.71353	-0.222
Mof_C 	C 	0.15666	0.31331	0.81383	0.009
Mof_C 	C 	0.11862	0.23723	0.74763	0.141
Mof_C 	C 	0.07824	0.15647	0.74143	0.105
Mof_O 	O 	0.76614	0.53229	0.04687	-0.222
Mof_C 	C 	0.82332	0.64665	0.14717	0.009
Mof_C 	C 	0.78528	0.57057	0.08097	0.141
Mof_C 	C 	0.7449	0.48981	0.07477	0.105
_end
