# CIF file generated by openbabel 3.1.0, see https://openbabel.org
data_I
_chemical_name_common 'image0'
_cell_length_a 13.89
_cell_length_b 14.33
_cell_length_c 19.017
_cell_angle_alpha 68.31
_cell_angle_beta 75.83
_cell_angle_gamma 84.36
_space_group_name_H-M_alt 'P 1'
_space_group_name_Hall 'P 1'
loop_
    _symmetry_equiv_pos_as_xyz
    x,y,z
loop_
    _atom_site_label
    _atom_site_type_symbol
    _atom_site_fract_x
    _atom_site_fract_y
    _atom_site_fract_z
    _atom_site_occupancy
    Ni1      Ni       0.42223    0.62370    0.21767    1.000
    Ni2      Ni       0.17112    0.86447    0.61185    1.000
    O1       O        0.72025    0.42460    0.77468    1.000
    O2       O        0.70500    0.58530    0.72910    1.000
    O3       O        0.36221    0.77089    0.18956    1.000
    O4       O        0.36136    0.67571    0.31043    1.000
    O5       O        0.14110    0.72463    0.69702    1.000
    O6       O        0.02526    0.79244    0.63331    1.000
    O7       O        0.21985    0.80999    0.52025    1.000
    O8       O        0.18047    0.96775    0.49519    1.000
    O9       O        0.02605    0.37970    0.88059    1.000
    O10      O        0.22812    0.10168    0.19544    1.000
    N1       N        0.47471    0.60800    0.11171    1.000
    N2       N        0.50230    0.64210    0.98469    1.000
    N3       N        0.46991    0.86800    0.62385    1.000
    N4       N        0.31412    0.89114    0.60915    1.000
    N5       N        0.55860    0.69180    0.20500    1.000
    N6       N        0.68170    0.74960    0.23090    1.000
    N7       N        0.97410    0.95650    0.25845    1.000
    N8       N        0.88572    0.05910    0.31471    1.000
    C1       C        0.62750    0.50120    0.13100    1.000
    H1       H        0.61660    0.48780    0.18400    1.000
    C2       C        0.56280    0.56090    0.08836    1.000
    C3       C        0.57960    0.58250    0.00910    1.000
    C4       C        0.66270    0.54380    0.96980    1.000
    H2       H        0.67430    0.55850    0.91650    1.000
    C5       C        0.72620    0.48330    0.01290    1.000
    H3       H        0.78190    0.45610    0.98840    1.000
    C6       C        0.70920    0.46160    0.09270    1.000
    H4       H        0.75340    0.42010    0.12050    1.000
    C7       C        0.43990    0.65650    0.04794    1.000
    C8       C        0.34860    0.71810    0.04420    1.000
    H5       H        0.31640    0.71700    0.09530    1.000
    H6       H        0.30480    0.69140    0.02450    1.000
    H7       H        0.36520    0.78600    0.01040    1.000
    C9       C        0.48930    0.68470    0.90441    1.000
    H8       H        0.41890    0.68990    0.90520    1.000
    H9       H        0.51910    0.63960    0.87740    1.000
    C10      C        0.53620    0.78890    0.85970    1.000
    H10      H        0.50810    0.83340    0.88770    1.000
    H11      H        0.60700    0.78330    0.85740    1.000
    C11      C        0.51980    0.83500    0.77740    1.000
    H12      H        0.44940    0.84860    0.78010    1.000
    H13      H        0.55410    0.89870    0.75140    1.000
    C12      C        0.55500    0.77020    0.72980    1.000
    H14      H        0.51050    0.71350    0.75010    1.000
    H15      H        0.61990    0.74370    0.73810    1.000
    C13      C        0.56300    0.81780    0.64201    1.000
    H16      H        0.61620    0.86640    0.61900    1.000
    H17      H        0.57940    0.76620    0.61930    1.000
    C14      C        0.45180    0.96960    0.60275    1.000
    C15      C        0.51100    0.05100    0.58960    1.000
    H18      H        0.57580    0.04120    0.59620    1.000
    C16      C        0.47040    0.14450    0.56670    1.000
    H19      H        0.50790    0.19940    0.55860    1.000
    C17      C        0.37320    0.16050    0.55490    1.000
    H20      H        0.34850    0.22560    0.53700    1.000
    C18      C        0.31460    0.08100    0.56960    1.000
    H21      H        0.24950    0.09140    0.56350    1.000
    C19      C        0.35400    0.98470    0.59354    1.000
    C20      C        0.38600    0.82400    0.62580    1.000
    C21      C        0.37820    0.71600    0.64360    1.000
    H22      H        0.32630    0.70440    0.62250    1.000
    H23      H        0.36320    0.68160    0.69890    1.000
    H24      H        0.44010    0.69120    0.62100    1.000
    C22      C        0.57490    0.82660    0.07030    1.000
    H25      H        0.51960    0.80800    0.05920    1.000
    C23      C        0.63150    0.90560    0.01690    1.000
    H26      H        0.61570    0.93900    0.96890    1.000
    C24      C        0.70950    0.93560    0.03280    1.000
    H27      H        0.74790    0.98830    0.99470    1.000
    C25      C        0.73440    0.89180    0.10240    1.000
    H28      H        0.78560    0.91620    0.11420    1.000
    C26      C        0.67930    0.80780    0.15590    1.000
    C27      C        0.59980    0.77460    0.14040    1.000
    C28      C        0.61150    0.67840    0.25530    1.000
    C29      C        0.59770    0.59520    0.33420    1.000
    H29      H        0.52980    0.57390    0.35180    1.000
    H30      H        0.61440    0.61940    0.37050    1.000
    H31      H        0.64020    0.53940    0.33030    1.000
    C30      C        0.74650    0.77030    0.27590    1.000
    H32      H        0.77180    0.83810    0.24950    1.000
    H33      H        0.70760    0.76500    0.32710    1.000
    C31      C        0.82790    0.70040    0.28350    1.000
    H34      H        0.85600    0.69240    0.23400    1.000
    H35      H        0.80440    0.63550    0.32130    1.000
    C32      C        0.91140    0.73920    0.31040    1.000
    H36      H        0.88250    0.78370    0.33810    1.000
    H37      H        0.94250    0.68290    0.34460    1.000
    C33      C        0.98770    0.79490    0.23720    1.000
    H38      H        0.03630    0.74720    0.22390    1.000
    H39      H        0.95470    0.82570    0.19460    1.000
    C34      C        0.04080    0.87570    0.24710    1.000
    H40      H        0.07090    0.84540    0.29150    1.000
    H41      H        0.09360    0.90340    0.20140    1.000
    C35      C        0.98310    0.92680    0.39600    1.000
    H42      H        0.97560    0.96910    0.42620    1.000
    H43      H        0.05190    0.90890    0.38290    1.000
    H44      H        0.94480    0.86700    0.42570    1.000
    C36      C        0.94760    0.98150    0.32360    1.000
    C37      C        0.92510    0.02410    0.20380    1.000
    C38      C        0.92740    0.03670    0.12680    1.000
    H45      H        0.96520    0.99480    0.10290    1.000
    C39      C        0.87160    0.11270    0.08880    1.000
    H46      H        0.87260    0.12500    0.03710    1.000
    C40      C        0.81390    0.17170    0.12540    1.000
    H47      H        0.77420    0.22090    0.09810    1.000
    C41      C        0.81150    0.16210    0.20170    1.000
    H48      H        0.77290    0.20390    0.22510    1.000
    C42      C        0.87050    0.08570    0.24004    1.000
    C43      C        0.75200    0.50950    0.75530    1.000
    C44      C        0.85490    0.52310    0.76280    1.000
    C45      C        0.89810    0.44600    0.81446    1.000
    H49      H        0.86500    0.38550    0.84240    1.000
    C46      C        0.99000    0.45820    0.82497    1.000
    C47      C        0.04140    0.54730    0.78130    1.000
    H50      H        0.10400    0.55500    0.78770    1.000
    C48      C        0.99920    0.62460    0.72814    1.000
    C49      C        0.90540    0.61290    0.71895    1.000
    H51      H        0.87650    0.66470    0.68380    1.000
    C50      C        0.05740    0.71950    0.68268    1.000
    C51      C        0.11660    0.39600    0.89700    1.000
    H52      H        0.17220    0.39520    0.85480    1.000
    H53      H        0.11460    0.46090    0.90250    1.000
    C52      C        0.12920    0.31330    0.97180    1.000
    H54      H        0.19610    0.31550    0.97790    1.000
    H55      H        0.12100    0.24890    0.96820    1.000
    C53      C        0.34420    0.75930    0.26041    1.000
    C54      C        0.30340    0.84570    0.28540    1.000
    C55      C        0.28660    0.93750    0.23080    1.000
    H56      H        0.30280    0.94620    0.17830    1.000
    C56      C        0.24600    0.01600    0.25380    1.000
    C57      C        0.22470    0.00480    0.33208    1.000
    H57      H        0.19950    0.05860    0.34750    1.000
    C58      C        0.24150    0.91240    0.38675    1.000
    C59      C        0.28060    0.83310    0.36399    1.000
    H58      H        0.29170    0.77140    0.40090    1.000
    C60      C        0.21210    0.89670    0.47157    1.000
    C61      C        0.18370    0.18550    0.21616    1.000
    H59      H        0.22830    0.21110    0.23680    1.000
    H60      H        0.12200    0.16600    0.25500    1.000
    C62      C        0.16450    0.26420    0.14179    1.000
    H61      H        0.22260    0.26880    0.10020    1.000
    H62      H        0.15500    0.32880    0.14810    1.000
    C63      C        0.07480    0.24260    0.11840    1.000
    H63      H        0.01650    0.23890    0.15960    1.000
    H64      H        0.08390    0.17750    0.11280    1.000
    C64      C        0.05640    0.32170    0.04220    1.000
    H65      H        0.98960    0.31400    0.03800    1.000
    H66      H        0.06090    0.38810    0.04350    1.000
    Ni3      Ni       0.57777    0.37630    0.78233    1.000
    Ni4      Ni       0.82888    0.13553    0.38815    1.000
    O11      O        0.27975    0.57540    0.22532    1.000
    O12      O        0.29500    0.41470    0.27090    1.000
    O13      O        0.63779    0.22911    0.81044    1.000
    O14      O        0.63864    0.32429    0.68957    1.000
    O15      O        0.85890    0.27537    0.30298    1.000
    O16      O        0.97474    0.20756    0.36669    1.000
    O17      O        0.78015    0.19001    0.47975    1.000
    O18      O        0.81953    0.03225    0.50481    1.000
    O19      O        0.97395    0.62030    0.11941    1.000
    O20      O        0.77188    0.89832    0.80456    1.000
    N9       N        0.52529    0.39200    0.88829    1.000
    N10      N        0.49770    0.35790    0.01531    1.000
    N11      N        0.53009    0.13200    0.37615    1.000
    N12      N        0.68588    0.10886    0.39085    1.000
    N13      N        0.44140    0.30820    0.79500    1.000
    N14      N        0.31830    0.25040    0.76910    1.000
    N15      N        0.02590    0.04350    0.74155    1.000
    N16      N        0.11428    0.94090    0.68529    1.000
    C65      C        0.37250    0.49880    0.86900    1.000
    H67      H        0.38340    0.51220    0.81600    1.000
    C66      C        0.43720    0.43910    0.91164    1.000
    C67      C        0.42040    0.41750    0.99090    1.000
    C68      C        0.33730    0.45620    0.03020    1.000
    H68      H        0.32570    0.44150    0.08350    1.000
    C69      C        0.27380    0.51670    0.98710    1.000
    H69      H        0.21810    0.54390    0.01160    1.000
    C70      C        0.29080    0.53840    0.90730    1.000
    H70      H        0.24660    0.57990    0.87950    1.000
    C71      C        0.56010    0.34350    0.95206    1.000
    C72      C        0.65140    0.28190    0.95580    1.000
    H71      H        0.68360    0.28300    0.90470    1.000
    H72      H        0.69520    0.30860    0.97550    1.000
    H73      H        0.63480    0.21400    0.98960    1.000
    C73      C        0.51070    0.31530    0.09559    1.000
    H74      H        0.58110    0.31010    0.09480    1.000
    H75      H        0.48090    0.36040    0.12260    1.000
    C74      C        0.46380    0.21110    0.14030    1.000
    H76      H        0.49190    0.16660    0.11230    1.000
    H77      H        0.39300    0.21670    0.14260    1.000
    C75      C        0.48020    0.16500    0.22260    1.000
    H78      H        0.55060    0.15140    0.21990    1.000
    H79      H        0.44590    0.10130    0.24860    1.000
    C76      C        0.44500    0.22980    0.27020    1.000
    H80      H        0.48950    0.28650    0.24990    1.000
    H81      H        0.38010    0.25630    0.26190    1.000
    C77      C        0.43700    0.18220    0.35799    1.000
    H82      H        0.38380    0.13360    0.38100    1.000
    H83      H        0.42060    0.23380    0.38070    1.000
    C78      C        0.54820    0.03040    0.39725    1.000
    C79      C        0.48900    0.94900    0.41040    1.000
    H84      H        0.42420    0.95880    0.40380    1.000
    C80      C        0.52960    0.85550    0.43330    1.000
    H85      H        0.49210    0.80060    0.44140    1.000
    C81      C        0.62680    0.83950    0.44510    1.000
    H86      H        0.65150    0.77440    0.46300    1.000
    C82      C        0.68540    0.91900    0.43040    1.000
    H87      H        0.75050    0.90860    0.43650    1.000
    C83      C        0.64600    0.01530    0.40646    1.000
    C84      C        0.61400    0.17600    0.37420    1.000
    C85      C        0.62180    0.28400    0.35640    1.000
    H88      H        0.67370    0.29560    0.37750    1.000
    H89      H        0.63680    0.31840    0.30110    1.000
    H90      H        0.55990    0.30880    0.37900    1.000
    C86      C        0.42510    0.17340    0.92970    1.000
    H91      H        0.48040    0.19200    0.94080    1.000
    C87      C        0.36850    0.09440    0.98310    1.000
    H92      H        0.38430    0.06100    0.03110    1.000
    C88      C        0.29050    0.06440    0.96720    1.000
    H93      H        0.25210    0.01170    0.00530    1.000
    C89      C        0.26560    0.10820    0.89760    1.000
    H94      H        0.21440    0.08380    0.88580    1.000
    C90      C        0.32070    0.19220    0.84410    1.000
    C91      C        0.40020    0.22540    0.85960    1.000
    C92      C        0.38850    0.32160    0.74470    1.000
    C93      C        0.40230    0.40480    0.66580    1.000
    H95      H        0.47020    0.42610    0.64820    1.000
    H96      H        0.38560    0.38060    0.62950    1.000
    H97      H        0.35980    0.46060    0.66970    1.000
    C94      C        0.25350    0.22970    0.72410    1.000
    H98      H        0.22820    0.16190    0.75050    1.000
    H99      H        0.29240    0.23500    0.67290    1.000
    C95      C        0.17210    0.29960    0.71650    1.000
    H100     H        0.14400    0.30760    0.76600    1.000
    H101     H        0.19560    0.36450    0.67870    1.000
    C96      C        0.08860    0.26080    0.68960    1.000
    H102     H        0.11750    0.21630    0.66190    1.000
    H103     H        0.05750    0.31710    0.65540    1.000
    C97      C        0.01230    0.20510    0.76280    1.000
    H104     H        0.96370    0.25280    0.77610    1.000
    H105     H        0.04530    0.17430    0.80540    1.000
    C98      C        0.95920    0.12430    0.75290    1.000
    H106     H        0.92910    0.15460    0.70850    1.000
    H107     H        0.90640    0.09660    0.79860    1.000
    C99      C        0.01690    0.07320    0.60400    1.000
    H108     H        0.02440    0.03090    0.57380    1.000
    H109     H        0.94810    0.09110    0.61710    1.000
    H110     H        0.05520    0.13300    0.57430    1.000
    C100     C        0.05240    0.01850    0.67640    1.000
    C101     C        0.07490    0.97590    0.79620    1.000
    C102     C        0.07260    0.96330    0.87320    1.000
    H111     H        0.03480    0.00520    0.89710    1.000
    C103     C        0.12840    0.88730    0.91120    1.000
    H112     H        0.12740    0.87500    0.96290    1.000
    C104     C        0.18610    0.82830    0.87460    1.000
    H113     H        0.22580    0.77910    0.90190    1.000
    C105     C        0.18850    0.83790    0.79830    1.000
    H114     H        0.22710    0.79610    0.77490    1.000
    C106     C        0.12950    0.91430    0.75996    1.000
    C107     C        0.24800    0.49050    0.24470    1.000
    C108     C        0.14510    0.47690    0.23720    1.000
    C109     C        0.10190    0.55400    0.18554    1.000
    H115     H        0.13500    0.61450    0.15760    1.000
    C110     C        0.01000    0.54180    0.17503    1.000
    C111     C        0.95860    0.45270    0.21870    1.000
    H116     H        0.89600    0.44500    0.21230    1.000
    C112     C        0.00080    0.37540    0.27186    1.000
    C113     C        0.09460    0.38710    0.28105    1.000
    H117     H        0.12350    0.33530    0.31620    1.000
    C114     C        0.94260    0.28050    0.31732    1.000
    C115     C        0.88340    0.60400    0.10300    1.000
    H118     H        0.82780    0.60480    0.14520    1.000
    H119     H        0.88540    0.53910    0.09750    1.000
    C116     C        0.87080    0.68670    0.02820    1.000
    H120     H        0.80390    0.68450    0.02210    1.000
    H121     H        0.87900    0.75110    0.03180    1.000
    C117     C        0.65580    0.24070    0.73959    1.000
    C118     C        0.69660    0.15430    0.71460    1.000
    C119     C        0.71340    0.06250    0.76920    1.000
    H122     H        0.69720    0.05380    0.82170    1.000
    C120     C        0.75400    0.98400    0.74620    1.000
    C121     C        0.77530    0.99520    0.66792    1.000
    H123     H        0.80050    0.94140    0.65250    1.000
    C122     C        0.75850    0.08760    0.61325    1.000
    C123     C        0.71940    0.16690    0.63601    1.000
    H124     H        0.70830    0.22860    0.59910    1.000
    C124     C        0.78790    0.10330    0.52843    1.000
    C125     C        0.81630    0.81450    0.78384    1.000
    H125     H        0.77170    0.78890    0.76320    1.000
    H126     H        0.87800    0.83400    0.74500    1.000
    C126     C        0.83550    0.73580    0.85821    1.000
    H127     H        0.77740    0.73120    0.89980    1.000
    H128     H        0.84500    0.67120    0.85190    1.000
    C127     C        0.92520    0.75740    0.88160    1.000
    H129     H        0.98350    0.76110    0.84040    1.000
    H130     H        0.91610    0.82250    0.88720    1.000
    C128     C        0.94360    0.67830    0.95780    1.000
    H131     H        0.01040    0.68600    0.96200    1.000
    H132     H        0.93910    0.61190    0.95650    1.000
