data_functionalizedCrystal
_audit_creation_method	'EQeq! by Chris Wilmer'
_symmetry_space_group_name_H-M	'P1'
_symmetry_Int_Tables_number	1
_symmetry_cell_setting	triclinic
loop_
_symmetry_equiv_pos_as_xyz
  x,y,z
_cell_length_a	6.6118
_cell_length_b	7.5662
_cell_length_c	9.2756
_cell_angle_alpha	90
_cell_angle_beta	99.8267
_cell_angle_gamma	90
loop_
_atom_site_label
_atom_site_type_symbol
_atom_site_fract_x
_atom_site_fract_y
_atom_site_fract_z
_atom_site_charge
Mof_Er	Er	0.16154	0.27135	0.29299	2.189
Mof_O 	O 	0.3876	0.3498	0.5202	-0.472
Mof_O 	O 	0.6247	0.5219	0.6536	-0.493
Mof_O 	O 	0.4735	0.3379	0.2242	-0.519
Mof_O 	O 	0.8086	0.3631	0.238	-0.498
Mof_O 	O 	0.115	0.3697	0.0427	-0.436
Mof_O 	O 	0.0019	0.5333	0.8471	-0.465
Mof_O 	O 	0.1346	0.5733	0.3343	-0.546
Mof_O 	O 	0.9825	0.6331	0.5251	-0.552
Mof_C 	C 	0.5283	0.4661	0.5363	0.595
Mof_H 	H 	0.5623	0.5142	0.4513	-0.166
Mof_C 	C 	0.6517	0.2768	0.2422	0.648
Mof_H 	H 	0.6672	0.1562	0.2602	-0.157
Mof_C 	C 	0.0126	0.4922	0.9792	0.497
Mof_H 	H 	0.9366	0.56	0.0343	-0.098
Mof_C 	C 	0.07	0.6754	0.4216	0.671
Mof_H 	H 	0.0892	0.7956	0.4079	-0.214
Mof_Er	Er	0.83846	0.77135	0.70701	2.129
Mof_O 	O 	0.6124	0.8498	0.4798	-0.387
Mof_O 	O 	0.3753	0.0219	0.3464	-0.3
Mof_O 	O 	0.5265	0.8379	0.7758	-0.565
Mof_O 	O 	0.1914	0.8631	0.762	-0.56
Mof_O 	O 	0.885	0.8697	0.9573	-0.436
Mof_O 	O 	0.9981	0.0333	0.1529	-0.313
Mof_O 	O 	0.8654	0.0733	0.6657	-0.475
Mof_O 	O 	0.0175	0.1331	0.4749	-0.554
Mof_C 	C 	0.4717	0.9661	0.4637	0.141
Mof_H 	H 	0.4377	0.0142	0.5487	0.066
Mof_C 	C 	0.3483	0.7768	0.7578	0.657
Mof_H 	H 	0.3328	0.6562	0.7398	-0.185
Mof_C 	C 	0.9874	0.9922	0.0208	0.287
Mof_H 	H 	0.0634	0.06	0.9657	-0.007
Mof_C 	C 	0.93	0.1754	0.5784	0.7
Mof_H 	H 	0.9108	0.2956	0.5921	-0.182
_end
