# CIF file generated by openbabel 3.1.0, see https://openbabel.org
data_I
_chemical_name_common 'GIQXOU_clean'
_cell_length_a 9.5321
_cell_length_b 9.5321
_cell_length_c 15.451
_cell_angle_alpha 92.8651
_cell_angle_beta 92.8651
_cell_angle_gamma 99.0412
_space_group_name_H-M_alt 'P 1'
_space_group_name_Hall 'P 1'
loop_
    _symmetry_equiv_pos_as_xyz
    x,y,z
loop_
    _atom_site_label
    _atom_site_type_symbol
    _atom_site_fract_x
    _atom_site_fract_y
    _atom_site_fract_z
    _atom_site_occupancy
    Er1      Er       0.01086    0.98914    0.75000    1.000
    Er2      Er       0.98914    0.01086    0.25000    1.000
    P1       P        0.35393    0.04491    0.64596    1.000
    P2       P        0.65165    0.97627    0.65429    1.000
    P3       P        0.95509    0.64607    0.85404    1.000
    P4       P        0.02373    0.34835    0.84571    1.000
    P5       P        0.64607    0.95509    0.35404    1.000
    P6       P        0.34835    0.02373    0.34571    1.000
    P7       P        0.04491    0.35393    0.14596    1.000
    P8       P        0.97627    0.65165    0.15429    1.000
    H1       H        0.42040    0.82960    0.73250    1.000
    H2       H        0.47200    0.15900    0.81430    1.000
    H3       H        0.63160    0.12620    0.81650    1.000
    H4       H        0.57900    0.22520    0.74500    1.000
    H5       H        0.17040    0.57960    0.76750    1.000
    H6       H        0.84100    0.52800    0.68570    1.000
    H7       H        0.87380    0.36840    0.68350    1.000
    H8       H        0.77480    0.42100    0.75500    1.000
    H9       H        0.57960    0.17040    0.26750    1.000
    H10      H        0.52800    0.84100    0.18570    1.000
    H11      H        0.36840    0.87380    0.18350    1.000
    H12      H        0.42100    0.77480    0.25500    1.000
    H13      H        0.82960    0.42040    0.23250    1.000
    H14      H        0.15900    0.47200    0.31430    1.000
    H15      H        0.12620    0.63160    0.31650    1.000
    H16      H        0.22520    0.57900    0.24500    1.000
    Ru1      Ru       0.54568    0.12164    0.50190    1.000
    Ru2      Ru       0.87836    0.45432    0.99810    1.000
    Ru3      Ru       0.45432    0.87836    0.49810    1.000
    Ru4      Ru       0.12164    0.54568    0.00190    1.000
    C1       C        0.50470    0.01670    0.71970    1.000
    C2       C        0.55060    0.14220    0.77870    1.000
    C3       C        0.98330    0.49530    0.78030    1.000
    C4       C        0.85780    0.44940    0.72130    1.000
    C5       C        0.49530    0.98330    0.28030    1.000
    C6       C        0.44940    0.85780    0.22130    1.000
    C7       C        0.01670    0.50470    0.21970    1.000
    C8       C        0.14220    0.55060    0.27870    1.000
    O1       O        0.40860    0.16780    0.58960    1.000
    O2       O        0.30890    0.90970    0.58610    1.000
    O3       O        0.23310    0.07410    0.69950    1.000
    O4       O        0.69130    0.10430    0.59870    1.000
    O5       O        0.59440    0.84180    0.59420    1.000
    O6       O        0.77260    0.95500    0.71480    1.000
    O7       O        0.45070    0.90010    0.76740    1.000
    O8       O        0.83220    0.59140    0.91040    1.000
    O9       O        0.09030    0.69110    0.91390    1.000
    O10      O        0.92590    0.76690    0.80050    1.000
    O11      O        0.89570    0.30870    0.90130    1.000
    O12      O        0.15820    0.40560    0.90580    1.000
    O13      O        0.04500    0.22740    0.78520    1.000
    O14      O        0.09990    0.54930    0.73260    1.000
    O15      O        0.59140    0.83220    0.41040    1.000
    O16      O        0.69110    0.09030    0.41390    1.000
    O17      O        0.76690    0.92590    0.30050    1.000
    O18      O        0.30870    0.89570    0.40130    1.000
    O19      O        0.40560    0.15820    0.40580    1.000
    O20      O        0.22740    0.04500    0.28520    1.000
    O21      O        0.54930    0.09990    0.23260    1.000
    O22      O        0.16780    0.40860    0.08960    1.000
    O23      O        0.90970    0.30890    0.08610    1.000
    O24      O        0.07410    0.23310    0.19950    1.000
    O25      O        0.10430    0.69130    0.09870    1.000
    O26      O        0.84180    0.59440    0.09420    1.000
    O27      O        0.95500    0.77260    0.21480    1.000
    O28      O        0.90010    0.45070    0.26740    1.000
