data_functionalizedCrystal
_audit_creation_method	'EQeq! by Chris Wilmer'
_symmetry_space_group_name_H-M	'P1'
_symmetry_Int_Tables_number	1
_symmetry_cell_setting	triclinic
loop_
_symmetry_equiv_pos_as_xyz
  x,y,z
_cell_length_a	19.739
_cell_length_b	28.4245
_cell_length_c	28.4245
_cell_angle_alpha	61.595
_cell_angle_beta	69.6827
_cell_angle_gamma	69.6827
loop_
_atom_site_label
_atom_site_type_symbol
_atom_site_fract_x
_atom_site_fract_y
_atom_site_fract_z
_atom_site_charge
Mof_Zn	Zn	0.9671	0.2829	0.7829	1.199
Mof_Zn	Zn	0.35227	0.94364	0.80266	1.18
Mof_Zn	Zn	0.24091	0.89574	0.89574	1.179
Mof_Zn	Zn	0.20575	0.59295	0.59295	1.209
Mof_Zn	Zn	0.9671	0.7829	0.2829	1.199
Mof_Zn	Zn	0.96761	0.39574	0.39574	1.179
Mof_Zn	Zn	0.64242	0.55064	0.68078	1.232
Mof_Zn	Zn	0.58512	0.57581	0.57582	1.22
Mof_Zn	Zn	0.87384	0.94936	0.81922	1.232
Mof_Zn	Zn	0.12616	0.18078	0.05064	1.232
Mof_Zn	Zn	0.35227	0.80266	0.94364	1.18
Mof_Zn	Zn	0.80749	0.52066	0.01445	1.196
Mof_Zn	Zn	0.09857	0.55636	0.69734	1.18
Mof_Zn	Zn	0.26326	0.07581	0.07581	1.22
Mof_Zn	Zn	0.19251	0.47934	0.98555	1.196
Mof_Zn	Zn	0.39165	0.90705	0.90705	1.209
Mof_Zn	Zn	0.0329	0.2171	0.7171	1.199
Mof_Zn	Zn	0.60835	0.09295	0.09295	1.209
Mof_Zn	Zn	0.73674	0.92419	0.92419	1.22
Mof_Zn	Zn	0.75909	0.10426	0.10426	1.179
Mof_Zn	Zn	0.90143	0.44364	0.30266	1.18
Mof_Zn	Zn	0.64242	0.68078	0.55064	1.232
Mof_Zn	Zn	0.35758	0.31922	0.44936	1.231
Mof_Zn	Zn	0.3426	0.48555	0.97935	1.196
Mof_Zn	Zn	0.0329	0.7171	0.2171	1.198
Mof_Zn	Zn	0.41488	0.42419	0.42418	1.219
Mof_Zn	Zn	0.12616	0.05064	0.18078	1.231
Mof_Zn	Zn	0.87384	0.81922	0.94936	1.231
Mof_Zn	Zn	0.79425	0.40705	0.40705	1.208
Mof_Zn	Zn	0.8075	0.01445	0.52065	1.195
Mof_Zn	Zn	0.03239	0.60426	0.60426	1.178
Mof_Zn	Zn	0.65739	0.02066	0.51445	1.196
Mof_Zn	Zn	0.34261	0.97934	0.48555	1.196
Mof_Zn	Zn	0.35758	0.44936	0.31922	1.231
Mof_Zn	Zn	0.90143	0.30266	0.44364	1.179
Mof_Zn	Zn	0.6574	0.51445	0.02065	1.196
Mof_Zn	Zn	0.09857	0.69734	0.55636	1.179
Mof_Zn	Zn	0.1925	0.98555	0.47935	1.195
Mof_Zn	Zn	0.64773	0.05636	0.19734	1.179
Mof_Zn	Zn	0.64773	0.19734	0.05636	1.179
Mof_H 	H 	0.7626	0.9789	0.6951	0.026
Mof_H 	H 	0.4366	0.5211	0.8049	0.026
Mof_H 	H 	0.7626	0.6951	0.9789	0.026
Mof_H 	H 	0.1733	0.4236	0.2924	0.031
Mof_H 	H 	0.2019	0.6021	0.3127	0.027
Mof_H 	H 	0.7241	0.0608	0.9486	0.031
Mof_H 	H 	0.8833	0.8127	0.1021	0.027
Mof_H 	H 	0.8833	0.1021	0.8127	0.027
Mof_H 	H 	0.1107	0.7924	0.9236	0.031
Mof_H 	H 	0.5667	0.6888	0.9728	0.016
Mof_H 	H 	0.4333	0.0272	0.3112	0.016
Mof_H 	H 	0.3984	0.0566	0.1682	0.022
Mof_H 	H 	0.7981	0.3979	0.6873	0.027
Mof_H 	H 	0.6907	0.5441	0.8561	0.022
Mof_H 	H 	0.3768	0.5566	0.6682	0.022
Mof_H 	H 	0.8267	0.5764	0.7076	0.031
Mof_H 	H 	0.8081	0.9052	0.1892	0.018
Mof_H 	H 	0.9025	0.5948	0.3108	0.017
Mof_H 	H 	0.1167	0.1873	0.8979	0.027
Mof_H 	H 	0.2885	0.6667	0.9407	0.024
Mof_H 	H 	0.7335	0.4392	0.5514	0.031
Mof_H 	H 	0.1041	0.1667	0.4407	0.025
Mof_H 	H 	0.6907	0.8561	0.5441	0.022
Mof_H 	H 	0.0909	0.9559	0.6439	0.022
Mof_H 	H 	0.9091	0.3561	0.0441	0.022
Mof_H 	H 	0.8893	0.0764	0.2076	0.031
Mof_H 	H 	0.5667	0.9728	0.6888	0.016
Mof_H 	H 	0.1107	0.9236	0.7924	0.031
Mof_H 	H 	0.5634	0.1951	0.4789	0.026
Mof_H 	H 	0.5634	0.4789	0.1951	0.026
Mof_H 	H 	0.6016	0.9434	0.8318	0.022
Mof_H 	H 	0.3093	0.1439	0.4559	0.022
Mof_H 	H 	0.3093	0.4559	0.1439	0.022
Mof_H 	H 	0.8959	0.5593	0.8333	0.025
Mof_H 	H 	0.2374	0.0211	0.3049	0.026
Mof_H 	H 	0.1041	0.4407	0.1667	0.025
Mof_H 	H 	0.2019	0.3127	0.6021	0.027
Mof_H 	H 	0.2759	0.0514	0.9392	0.031
Mof_H 	H 	0.1919	0.0948	0.8108	0.018
Mof_H 	H 	0.2665	0.4486	0.5608	0.031
Mof_H 	H 	0.8081	0.1892	0.9052	0.018
Mof_H 	H 	0.7717	0.1888	0.4728	0.016
Mof_H 	H 	0.2759	0.9392	0.0514	0.031
Mof_H 	H 	0.2283	0.8112	0.5272	0.016
Mof_H 	H 	0.9091	0.0441	0.3561	0.022
Mof_H 	H 	0.7241	0.9486	0.0608	0.031
Mof_H 	H 	0.8893	0.2076	0.0764	0.031
Mof_H 	H 	0.7115	0.0593	0.3333	0.024
Mof_H 	H 	0.7115	0.3333	0.0593	0.024
Mof_H 	H 	0.3984	0.1682	0.0566	0.022
Mof_H 	H 	0.8267	0.7076	0.5764	0.031
Mof_H 	H 	0.6232	0.4434	0.3318	0.022
Mof_H 	H 	0.2283	0.5272	0.8112	0.016
Mof_H 	H 	0.6232	0.3318	0.4434	0.022
Mof_H 	H 	0.8959	0.8333	0.5593	0.025
Mof_H 	H 	0.3768	0.6682	0.5566	0.022
Mof_H 	H 	0.0975	0.6892	0.4052	0.017
Mof_H 	H 	0.4366	0.8049	0.5211	0.026
Mof_H 	H 	0.0975	0.4052	0.6892	0.017
Mof_H 	H 	0.1733	0.2924	0.4236	0.031
Mof_H 	H 	0.4333	0.3112	0.0272	0.016
Mof_H 	H 	0.1919	0.8108	0.0948	0.018
Mof_H 	H 	0.6016	0.8318	0.9434	0.022
Mof_H 	H 	0.9025	0.3108	0.5948	0.017
Mof_H 	H 	0.1167	0.8979	0.1873	0.027
Mof_H 	H 	0.7335	0.5514	0.4392	0.031
Mof_H 	H 	0.7981	0.6873	0.3979	0.027
Mof_H 	H 	0.0909	0.6439	0.9559	0.022
Mof_H 	H 	0.2885	0.9407	0.6667	0.024
Mof_H 	H 	0.7717	0.4728	0.1888	0.016
Mof_H 	H 	0.2374	0.3049	0.0211	0.026
Mof_H 	H 	0.2665	0.5608	0.4486	0.031
Mof_C 	C 	0.76454	0.29504	0.44308	0.466
Mof_C 	C 	0.19717	0.12848	0.97398	0.425
Mof_C 	C 	0.80741	0.89879	0.16019	0.087
Mof_C 	C 	0.80741	0.16019	0.89879	0.087
Mof_C 	C 	0.28527	0.28748	0.02658	0.104
Mof_C 	C 	0.77137	0.41358	0.03968	0.418
Mof_C 	C 	0.23493	0.58332	0.42462	0.09
Mof_C 	C 	0.75713	0.08332	0.92462	0.091
Mof_C 	C 	0.81815	0.56904	0.74446	0.076
Mof_C 	C 	0.14093	0.18027	0.44047	0.089
Mof_C 	C 	0.61853	0.7945	0.95144	0.109
Mof_C 	C 	0.81815	0.74446	0.56904	0.076
Mof_C 	C 	0.67081	0.18227	0.47891	-0.167
Mof_C 	C 	0.61853	0.95144	0.7945	0.109
Mof_C 	C 	0.77537	0.53968	0.91358	0.418
Mof_C 	C 	0.13165	0.93096	0.75554	0.075
Mof_C 	C 	0.30556	0.00523	0.37865	0.417
Mof_C 	C 	0.40218	0.03053	0.29111	0.115
Mof_C 	C 	0.30944	0.04019	0.23153	-0.168
Mof_C 	C 	0.58116	0.45981	0.26847	-0.168
Mof_C 	C 	0.36447	0.7055	0.54856	0.109
Mof_C 	C 	0.75031	0.77939	0.55879	-0.135
Mof_C 	C 	0.14566	0.84808	0.1476	-0.161
Mof_C 	C 	0.24969	0.44121	0.22061	-0.135
Mof_C 	C 	0.82054	0.56446	0.37446	-0.142
Mof_C 	C 	0.80407	0.05112	0.35434	-0.155
Mof_C 	C 	0.80253	0.87922	0.07432	-0.163
Mof_C 	C 	0.23833	0.94047	0.68027	0.088
Mof_C 	C 	0.16808	0.48702	0.63242	0.354
Mof_C 	C 	0.20953	0.14566	0.44888	-0.155
Mof_C 	C 	0.31056	0.50523	0.87865	0.417
Mof_C 	C 	0.79047	0.55112	0.85434	-0.155
Mof_C 	C 	0.8034	0.6568	0.3916	0.096
Mof_C 	C 	0.09311	0.81162	0.18576	0.434
Mof_C 	C 	0.994	0.2583	0.0529	0.344
Mof_C 	C 	0.59782	0.70889	0.96947	0.115
Mof_C 	C 	0.83192	0.51298	0.36758	0.354
Mof_C 	C 	0.08849	0.94121	0.72061	-0.134
Mof_C 	C 	0.28527	0.02658	0.28748	0.104
Mof_C 	C 	0.13361	0.66019	0.39879	0.087
Mof_C 	C 	0.50404	0.45276	0.30336	0.446
Mof_C 	C 	0.85907	0.81973	0.55953	0.089
Mof_C 	C 	0.18185	0.43096	0.25554	0.076
Mof_C 	C 	0.66801	0.68227	0.97891	-0.167
Mof_C 	C 	0.25022	0.9245	0.77246	0.391
Mof_C 	C 	0.18185	0.25554	0.43096	0.076
Mof_C 	C 	0.90951	0.68576	0.31162	0.434
Mof_C 	C 	0.57209	0.7651	0.95512	-0.189
Mof_C 	C 	0.68944	0.49477	0.12135	0.417
Mof_C 	C 	0.70037	0.47398	0.62848	0.425
Mof_C 	C 	0.7933	0.26535	0.06825	-0.148
Mof_C 	C 	0.80253	0.07432	0.87922	-0.163
Mof_C 	C 	0.50266	0.20496	0.05692	0.466
Mof_C 	C 	0.75031	0.55879	0.77939	-0.135
Mof_C 	C 	0.32919	0.52109	0.81773	-0.167
Mof_C 	C 	0.85866	0.6476	0.34808	-0.161
Mof_C 	C 	0.14134	0.65192	0.3524	-0.161
Mof_C 	C 	0.86639	0.60121	0.33981	0.087
Mof_C 	C 	0.17946	0.62554	0.43554	-0.142
Mof_C 	C 	0.14566	0.1476	0.84808	-0.161
Mof_C 	C 	0.6948	0.7583	0.5529	0.348
Mof_C 	C 	0.16808	0.63242	0.48702	0.354
Mof_C 	C 	0.85434	0.8524	0.15192	-0.161
Mof_C 	C 	0.7933	0.06825	0.26535	-0.148
Mof_C 	C 	0.17946	0.43554	0.62554	-0.142
Mof_C 	C 	0.77537	0.91358	0.53968	0.418
Mof_C 	C 	0.69056	0.76847	0.95981	-0.168
Mof_C 	C 	0.73984	0.80336	0.95276	0.446
Mof_C 	C 	0.1269	0.23465	0.43175	-0.149
Mof_C 	C 	0.67081	0.47891	0.18227	-0.167
Mof_C 	C 	0.1482	0.1568	0.8916	0.096
Mof_C 	C 	0.29231	0.54488	0.7349	-0.189
Mof_C 	C 	0.22863	0.58642	0.96032	0.418
Mof_C 	C 	0.32919	0.81773	0.52109	-0.167
Mof_C 	C 	0.41884	0.73153	0.54019	-0.168
Mof_C 	C 	0.19747	0.92568	0.12078	-0.163
Mof_C 	C 	0.05282	0.4245	0.27246	0.391
Mof_C 	C 	0.50404	0.30336	0.45276	0.446
Mof_C 	C 	0.8518	0.8432	0.1084	0.096
Mof_C 	C 	0.86835	0.24446	0.06904	0.075
Mof_C 	C 	0.14093	0.44047	0.18027	0.089
Mof_C 	C 	0.83192	0.36758	0.51298	0.354
Mof_C 	C 	0.24054	0.87446	0.06446	-0.143
Mof_C 	C 	0.13361	0.39879	0.66019	0.087
Mof_C 	C 	0.76507	0.57538	0.41668	0.09
Mof_C 	C 	0.20953	0.44888	0.14566	-0.155
Mof_C 	C 	0.49596	0.54724	0.69664	0.446
Mof_C 	C 	0.09049	0.68838	0.31424	0.434
Mof_C 	C 	0.19593	0.64566	0.94888	-0.155
Mof_C 	C 	0.74978	0.0755	0.22754	0.391
Mof_C 	C 	0.24287	0.91668	0.07538	0.091
Mof_C 	C 	0.40218	0.29111	0.03053	0.115
Mof_C 	C 	0.41884	0.54019	0.73153	-0.168
Mof_C 	C 	0.23546	0.70496	0.55692	0.466
Mof_C 	C 	0.49734	0.79504	0.94308	0.466
Mof_C 	C 	0.85434	0.15192	0.8524	-0.161
Mof_C 	C 	0.38147	0.2055	0.04856	0.109
Mof_C 	C 	0.26353	0.16667	0.44967	0.082
Mof_C 	C 	0.85907	0.55953	0.81973	0.089
Mof_C 	C 	0.22463	0.08642	0.46032	0.418
Mof_C 	C 	0.26016	0.04724	0.19664	0.446
Mof_C 	C 	0.08849	0.72061	0.94121	-0.134
Mof_C 	C 	0.26016	0.19664	0.04724	0.446
Mof_C 	C 	0.25022	0.77246	0.9245	0.391
Mof_C 	C 	0.70769	0.2651	0.45512	-0.189
Mof_C 	C 	0.75713	0.92462	0.08332	0.091
Mof_C 	C 	0.69444	0.99477	0.62135	0.417
Mof_C 	C 	0.75946	0.93554	0.12554	-0.143
Mof_C 	C 	0.29231	0.7349	0.54488	-0.189
Mof_C 	C 	0.71248	0.13242	0.98702	0.356
Mof_C 	C 	0.33199	0.31773	0.02109	-0.167
Mof_C 	C 	0.75607	0.42568	0.62078	-0.163
Mof_C 	C 	0.23493	0.42462	0.58332	0.09
Mof_C 	C 	0.1966	0.6084	0.3432	0.096
Mof_C 	C 	0.30556	0.37865	0.00523	0.417
Mof_C 	C 	0.59933	0.21252	0.47342	0.104
Mof_C 	C 	0.12013	0.66667	0.94967	0.081
Mof_C 	C 	0.75946	0.12554	0.93554	-0.143
Mof_C 	C 	0.09311	0.18576	0.81162	0.434
Mof_C 	C 	0.82054	0.37446	0.56446	-0.142
Mof_C 	C 	0.85866	0.34808	0.6476	-0.161
Mof_C 	C 	0.63553	0.45144	0.2945	0.109
Mof_C 	C 	0.26353	0.44967	0.16667	0.082
Mof_C 	C 	0.27618	0.79111	0.53053	0.115
Mof_C 	C 	0.90689	0.81424	0.18838	0.434
Mof_C 	C 	0.8034	0.3916	0.6568	0.096
Mof_C 	C 	0.90689	0.18838	0.81424	0.434
Mof_C 	C 	0.3052	0.2417	0.4471	0.348
Mof_C 	C 	0.006	0.9471	0.7417	0.344
Mof_C 	C 	0.19593	0.94888	0.64566	-0.155
Mof_C 	C 	0.71473	0.97342	0.71252	0.104
Mof_C 	C 	0.38147	0.04856	0.2055	0.109
Mof_C 	C 	0.42791	0.2349	0.04488	-0.189
Mof_C 	C 	0.22463	0.46032	0.08642	0.418
Mof_C 	C 	0.19259	0.10121	0.83981	0.087
Mof_C 	C 	0.33199	0.02109	0.31773	-0.167
Mof_C 	C 	0.40067	0.52658	0.78748	0.104
Mof_C 	C 	0.73647	0.55033	0.83333	0.082
Mof_C 	C 	0.24393	0.57432	0.37922	-0.163
Mof_C 	C 	0.70769	0.45512	0.2651	-0.189
Mof_C 	C 	0.73647	0.83333	0.55033	0.082
Mof_C 	C 	0.80283	0.87152	0.02602	0.425
Mof_C 	C 	0.87987	0.33333	0.05033	0.081
Mof_C 	C 	0.19259	0.83981	0.10121	0.087
Mof_C 	C 	0.22863	0.96032	0.58642	0.418
Mof_C 	C 	0.23546	0.55692	0.70496	0.466
Mof_C 	C 	0.19747	0.12078	0.92568	-0.163
Mof_C 	C 	0.30944	0.23153	0.04019	-0.168
Mof_C 	C 	0.29963	0.37152	0.52602	0.424
Mof_C 	C 	0.40067	0.78748	0.52658	0.104
Mof_C 	C 	0.24287	0.07538	0.91668	0.091
Mof_C 	C 	0.1269	0.43175	0.23465	-0.149
Mof_C 	C 	0.79047	0.85434	0.55112	-0.155
Mof_C 	C 	0.1482	0.8916	0.1568	0.096
Mof_C 	C 	0.3052	0.4471	0.2417	0.348
Mof_C 	C 	0.8518	0.1084	0.8432	0.096
Mof_C 	C 	0.28752	0.86758	0.01298	0.356
Mof_C 	C 	0.71248	0.98702	0.13242	0.356
Mof_C 	C 	0.76167	0.05953	0.31973	0.088
Mof_C 	C 	0.57209	0.95512	0.7651	-0.189
Mof_C 	C 	0.66801	0.97891	0.68227	-0.167
Mof_C 	C 	0.72382	0.20889	0.46947	0.115
Mof_C 	C 	0.77137	0.03968	0.41358	0.418
Mof_C 	C 	0.71473	0.71252	0.97342	0.104
Mof_C 	C 	0.1966	0.3432	0.6084	0.096
Mof_C 	C 	0.76454	0.44308	0.29504	0.466
Mof_C 	C 	0.58116	0.26847	0.45981	-0.168
Mof_C 	C 	0.24393	0.37922	0.57432	-0.163
Mof_C 	C 	0.2067	0.93175	0.73465	-0.148
Mof_C 	C 	0.86835	0.06904	0.24446	0.075
Mof_C 	C 	0.59782	0.96947	0.70889	0.115
Mof_C 	C 	0.90951	0.31162	0.68576	0.434
Mof_C 	C 	0.29963	0.52602	0.37152	0.425
Mof_C 	C 	0.49734	0.94308	0.79504	0.466
Mof_C 	C 	0.36447	0.54856	0.7055	0.109
Mof_C 	C 	0.87987	0.05033	0.33333	0.081
Mof_C 	C 	0.14134	0.3524	0.65192	-0.161
Mof_C 	C 	0.23833	0.68027	0.94047	0.088
Mof_C 	C 	0.80407	0.35434	0.05112	-0.155
Mof_C 	C 	0.42791	0.04488	0.2349	-0.189
Mof_C 	C 	0.70037	0.62848	0.47398	0.424
Mof_C 	C 	0.74978	0.22754	0.0755	0.391
Mof_C 	C 	0.24969	0.22061	0.44121	-0.135
Mof_C 	C 	0.80283	0.02602	0.87152	0.425
Mof_C 	C 	0.76507	0.41668	0.57538	0.09
Mof_C 	C 	0.91151	0.05879	0.27939	-0.134
Mof_C 	C 	0.91151	0.27939	0.05879	-0.134
Mof_C 	C 	0.12013	0.94967	0.66667	0.081
Mof_C 	C 	0.8731	0.76535	0.56825	-0.149
Mof_C 	C 	0.50266	0.05692	0.20496	0.466
Mof_C 	C 	0.2067	0.73465	0.93175	-0.148
Mof_C 	C 	0.006	0.7417	0.9471	0.344
Mof_C 	C 	0.19717	0.97398	0.12848	0.425
Mof_C 	C 	0.27618	0.53053	0.79111	0.115
Mof_C 	C 	0.76167	0.31973	0.05953	0.088
Mof_C 	C 	0.8731	0.56825	0.76535	-0.149
Mof_C 	C 	0.28752	0.01298	0.86758	0.356
Mof_C 	C 	0.49596	0.69664	0.54724	0.446
Mof_C 	C 	0.73984	0.95276	0.80336	0.446
Mof_C 	C 	0.13165	0.75554	0.93096	0.075
Mof_C 	C 	0.63553	0.2945	0.45144	0.109
Mof_C 	C 	0.94718	0.5755	0.72754	0.391
Mof_C 	C 	0.86639	0.33981	0.60121	0.087
Mof_C 	C 	0.31056	0.87865	0.50523	0.417
Mof_C 	C 	0.05282	0.27246	0.4245	0.391
Mof_C 	C 	0.24054	0.06446	0.87446	-0.143
Mof_C 	C 	0.09049	0.31424	0.68838	0.434
Mof_C 	C 	0.72382	0.46947	0.20889	0.115
Mof_C 	C 	0.994	0.0529	0.2583	0.344
Mof_C 	C 	0.69444	0.62135	0.99477	0.417
Mof_C 	C 	0.69056	0.95981	0.76847	-0.168
Mof_C 	C 	0.68944	0.12135	0.49477	0.417
Mof_C 	C 	0.75607	0.62078	0.42568	-0.163
Mof_C 	C 	0.6948	0.5529	0.7583	0.348
Mof_C 	C 	0.59933	0.47342	0.21252	0.104
Mof_C 	C 	0.94718	0.72754	0.5755	0.391
Mof_O 	O 	0.70444	0.04039	0.43147	-0.469
Mof_O 	O 	0.0363	0.017	0.2936	-0.275
Mof_O 	O 	0.69018	0.05602	0.25062	-0.478
Mof_O 	O 	0.09537	0.51043	0.64283	-0.49
Mof_O 	O 	0.1763	0.45961	0.06853	-0.469
Mof_O 	O 	0.21797	0.91902	0.81928	-0.5
Mof_O 	O 	0.78671	0.48624	0.39274	-0.484
Mof_O 	O 	0.71052	0.84961	0.94835	-0.501
Mof_O 	O 	0.09445	0.17464	0.77432	-0.496
Mof_O 	O 	0.76007	0.99931	0.60043	-0.479
Mof_O 	O 	0.85223	0.01675	0.83139	-0.465
Mof_O 	O 	0.3469	0.2064	0.483	-0.277
Mof_O 	O 	0.9637	0.7064	0.983	-0.275
Mof_O 	O 	0.21329	0.60726	0.51376	-0.484
Mof_O 	O 	0.50848	0.65039	0.55165	-0.501
Mof_O 	O 	0.75458	0.50142	0.09622	-0.476
Mof_O 	O 	0.6531	0.517	0.7936	-0.277
Mof_O 	O 	0.00318	0.55602	0.75062	-0.479
Mof_O 	O 	0.64019	0.49931	0.10043	-0.48
Mof_O 	O 	0.04373	0.31928	0.41902	-0.5
Mof_O 	O 	0.45968	0.45451	0.27945	-0.494
Mof_O 	O 	0.49152	0.44835	0.34961	-0.501
Mof_O 	O 	0.90124	0.32202	0.726	-0.475
Mof_O 	O 	0.04341	0.72568	0.32536	-0.496
Mof_O 	O 	0.2449	0.09847	0.99973	-0.478
Mof_O 	O 	0.64019	0.10043	0.49931	-0.48
Mof_O 	O 	0.25548	0.56338	0.65732	-0.51
Mof_O 	O 	0.97933	0.79018	0.93508	-0.469
Mof_O 	O 	0.85233	0.89577	0.89577	-0.668
Mof_O 	O 	0.29541	0.43508	0.29018	-0.471
Mof_O 	O 	0.90463	0.35717	0.48957	-0.49
Mof_O 	O 	0.24863	0.98957	0.85717	-0.492
Mof_O 	O 	0.82789	0.44811	0.26791	-0.526
Mof_O 	O 	0.0363	0.2936	0.017	-0.275
Mof_O 	O 	0.05074	0.226	0.82202	-0.475
Mof_O 	O 	0.54391	0.05189	0.23209	-0.526
Mof_O 	O 	0.65417	0.12199	0.12199	-0.897
Mof_O 	O 	0.30982	0.74938	0.94398	-0.478
Mof_O 	O 	0.19364	0.04549	0.22055	-0.494
Mof_O 	O 	0.24542	0.90378	0.49858	-0.476
Mof_O 	O 	0.95659	0.67464	0.27432	-0.496
Mof_O 	O 	0.24863	0.85717	0.98957	-0.492
Mof_O 	O 	0.85223	0.83139	0.01675	-0.465
Mof_O 	O 	0.45609	0.76791	0.94811	-0.526
Mof_O 	O 	0.8165	0.44214	0.02886	-0.49
Mof_O 	O 	0.33431	0.98624	0.89274	-0.486
Mof_O 	O 	0.14777	0.98325	0.16861	-0.465
Mof_O 	O 	0.7125	0.52886	0.94214	-0.49
Mof_O 	O 	0.94926	0.17798	0.774	-0.475
Mof_O 	O 	0.75137	0.14283	0.01043	-0.492
Mof_O 	O 	0.17211	0.73209	0.55189	-0.526
Mof_O 	O 	0.34583	0.87801	0.87801	-0.897
Mof_O 	O 	0.29556	0.95961	0.56853	-0.469
Mof_O 	O 	0.78203	0.18072	0.08098	-0.5
Mof_O 	O 	0.54032	0.72055	0.54549	-0.494
Mof_O 	O 	0.94926	0.774	0.17798	-0.475
Mof_O 	O 	0.47618	0.93662	0.84268	-0.511
Mof_O 	O 	0.80636	0.95451	0.77945	-0.494
Mof_O 	O 	0.02067	0.20982	0.06492	-0.469
Mof_O 	O 	0.70444	0.43147	0.04039	-0.469
Mof_O 	O 	0.19364	0.22055	0.04549	-0.494
Mof_O 	O 	0.23993	0.00069	0.39957	-0.479
Mof_O 	O 	0.3431	0.50027	0.40153	-0.478
Mof_O 	O 	0.52382	0.06338	0.15732	-0.511
Mof_O 	O 	0.97933	0.93508	0.79018	-0.469
Mof_O 	O 	0.74452	0.43662	0.34268	-0.51
Mof_O 	O 	0.64778	0.59622	0.00142	-0.476
Mof_O 	O 	0.21329	0.51376	0.60726	-0.484
Mof_O 	O 	0.29556	0.56853	0.95961	-0.469
Mof_O 	O 	0.6569	0.49973	0.59847	-0.478
Mof_O 	O 	0.1835	0.55786	0.97114	-0.49
Mof_O 	O 	0.35981	0.89957	0.50069	-0.48
Mof_O 	O 	0.90463	0.48957	0.35717	-0.49
Mof_O 	O 	0.7125	0.94214	0.52886	-0.49
Mof_O 	O 	0.09876	0.274	0.67798	-0.475
Mof_O 	O 	0.8237	0.93147	0.54039	-0.469
Mof_O 	O 	0.64778	0.00142	0.59622	-0.476
Mof_O 	O 	0.78203	0.08098	0.18072	-0.5
Mof_O 	O 	0.69018	0.25062	0.05602	-0.478
Mof_O 	O 	0.70037	0.48325	0.66861	-0.465
Mof_O 	O 	0.09876	0.67798	0.274	-0.475
Mof_O 	O 	0.35613	0.39577	0.39577	-0.668
Mof_O 	O 	0.6569	0.59847	0.49973	-0.478
Mof_O 	O 	0.66569	0.01376	0.10726	-0.486
Mof_O 	O 	0.45968	0.27945	0.45451	-0.494
Mof_O 	O 	0.66569	0.10726	0.01376	-0.486
Mof_O 	O 	0.99682	0.24938	0.44398	-0.479
Mof_O 	O 	0.35222	0.99858	0.40378	-0.476
Mof_O 	O 	0.49152	0.34961	0.44835	-0.501
Mof_O 	O 	0.50848	0.55165	0.65039	-0.501
Mof_O 	O 	0.25548	0.65732	0.56338	-0.51
Mof_O 	O 	0.70459	0.56492	0.70982	-0.471
Mof_O 	O 	0.6531	0.7936	0.517	-0.277
Mof_O 	O 	0.28948	0.15039	0.05165	-0.501
Mof_O 	O 	0.45609	0.94811	0.76791	-0.526
Mof_O 	O 	0.2875	0.47114	0.05786	-0.49
Mof_O 	O 	0.70037	0.66861	0.48325	-0.465
Mof_O 	O 	0.7551	0.00027	0.90153	-0.478
Mof_O 	O 	0.1763	0.06853	0.45961	-0.469
Mof_O 	O 	0.04373	0.41902	0.31928	-0.5
Mof_O 	O 	0.3431	0.40153	0.50027	-0.478
Mof_O 	O 	0.29963	0.33139	0.51675	-0.465
Mof_O 	O 	0.78671	0.39274	0.48624	-0.484
Mof_O 	O 	0.95659	0.27432	0.67464	-0.496
Mof_O 	O 	0.3469	0.483	0.2064	-0.277
Mof_O 	O 	0.95627	0.68072	0.58098	-0.5
Mof_O 	O 	0.89815	0.37801	0.37801	-0.897
Mof_O 	O 	0.70459	0.70982	0.56492	-0.471
Mof_O 	O 	0.2449	0.99973	0.09847	-0.478
Mof_O 	O 	0.7551	0.90153	0.00027	-0.478
Mof_O 	O 	0.90555	0.82536	0.22568	-0.496
Mof_O 	O 	0.74452	0.34268	0.43662	-0.51
Mof_O 	O 	0.54391	0.23209	0.05189	-0.526
Mof_O 	O 	0.30982	0.94398	0.74938	-0.478
Mof_O 	O 	0.64387	0.60423	0.60423	-0.668
Mof_O 	O 	0.82789	0.26791	0.44811	-0.526
Mof_O 	O 	0.8237	0.54039	0.93147	-0.469
Mof_O 	O 	0.90555	0.22568	0.82536	-0.496
Mof_O 	O 	0.21797	0.81928	0.91902	-0.5
Mof_O 	O 	0.75458	0.09622	0.50142	-0.476
Mof_O 	O 	0.14767	0.10423	0.10423	-0.668
Mof_O 	O 	0.02067	0.06492	0.20982	-0.469
Mof_O 	O 	0.90124	0.726	0.32202	-0.475
Mof_O 	O 	0.35981	0.50069	0.89957	-0.48
Mof_O 	O 	0.04341	0.32536	0.72568	-0.496
Mof_O 	O 	0.99682	0.44398	0.24938	-0.479
Mof_O 	O 	0.33431	0.89274	0.98624	-0.486
Mof_O 	O 	0.00318	0.75062	0.55602	-0.479
Mof_O 	O 	0.35222	0.40378	0.99858	-0.476
Mof_O 	O 	0.10185	0.62199	0.62199	-0.897
Mof_O 	O 	0.54032	0.54549	0.72055	-0.494
Mof_O 	O 	0.9637	0.983	0.7064	-0.275
Mof_O 	O 	0.71052	0.94835	0.84961	-0.501
Mof_O 	O 	0.52382	0.15732	0.06338	-0.511
Mof_O 	O 	0.95627	0.58098	0.68072	-0.5
Mof_O 	O 	0.29541	0.29018	0.43508	-0.471
Mof_O 	O 	0.29963	0.51675	0.33139	-0.465
Mof_O 	O 	0.76007	0.60043	0.99931	-0.479
Mof_O 	O 	0.17211	0.55189	0.73209	-0.526
Mof_O 	O 	0.47618	0.84268	0.93662	-0.511
Mof_O 	O 	0.05074	0.82202	0.226	-0.475
Mof_O 	O 	0.09445	0.77432	0.17464	-0.496
Mof_O 	O 	0.23993	0.39957	0.00069	-0.479
Mof_O 	O 	0.8165	0.02886	0.44214	-0.49
Mof_O 	O 	0.80636	0.77945	0.95451	-0.494
Mof_O 	O 	0.28948	0.05165	0.15039	-0.501
Mof_O 	O 	0.24542	0.49858	0.90378	-0.476
Mof_O 	O 	0.1835	0.97114	0.55786	-0.49
Mof_O 	O 	0.2875	0.05786	0.47114	-0.49
Mof_O 	O 	0.75137	0.01043	0.14283	-0.492
Mof_O 	O 	0.09537	0.64283	0.51043	-0.49
Mof_O 	O 	0.14777	0.16861	0.98325	-0.465
_end
