data_functionalizedCrystal
_audit_creation_method	'EQeq! by Chris Wilmer'
_symmetry_space_group_name_H-M	'P1'
_symmetry_Int_Tables_number	1
_symmetry_cell_setting	triclinic
loop_
_symmetry_equiv_pos_as_xyz
  x,y,z
_cell_length_a	13.235
_cell_length_b	29.749
_cell_length_c	29.749
_cell_angle_alpha	120
_cell_angle_beta	90
_cell_angle_gamma	90
loop_
_atom_site_label
_atom_site_type_symbol
_atom_site_fract_x
_atom_site_fract_y
_atom_site_fract_z
_atom_site_charge
Mof_H 	H 	0.9749	0.632	0.8344	0.04
Mof_H 	H 	0.1913	0.6075	0.9144	0.049
Mof_H 	H 	0.995	0.5465	0.7635	0.035
Mof_H 	H 	0.2083	0.5206	0.8451	0.119
Mof_H 	H 	0.0938	0.4693	0.726	0.129
Mof_H 	H 	0.1582	0.3466	0.7508	0.048
Mof_H 	H 	0.9749	0.2024	0.368	0.037
Mof_H 	H 	0.1913	0.3069	0.3925	0.042
Mof_H 	H 	0.995	0.217	0.4535	0.033
Mof_H 	H 	0.2083	0.3245	0.4794	0.117
Mof_H 	H 	0.0938	0.2567	0.5307	0.127
Mof_H 	H 	0.1582	0.4042	0.6534	0.047
Mof_H 	H 	0.9749	0.1656	0.7976	0.039
Mof_H 	H 	0.1913	0.0856	0.6931	0.038
Mof_H 	H 	0.995	0.2365	0.783	0.035
Mof_H 	H 	0.2083	0.1549	0.6755	0.116
Mof_H 	H 	0.0938	0.274	0.7433	0.129
Mof_H 	H 	0.1582	0.2492	0.5958	0.046
Mof_H 	H 	0.0251	0.632	0.8344	0.032
Mof_H 	H 	0.8087	0.6075	0.9144	0.052
Mof_H 	H 	0.005	0.5465	0.7635	0.043
Mof_H 	H 	0.7917	0.5206	0.8451	0.112
Mof_H 	H 	0.9062	0.4693	0.726	0.128
Mof_H 	H 	0.8418	0.3466	0.7508	0.05
Mof_H 	H 	0.0251	0.2024	0.368	0.029
Mof_H 	H 	0.8087	0.3069	0.3925	0.047
Mof_H 	H 	0.005	0.217	0.4535	0.044
Mof_H 	H 	0.7917	0.3245	0.4794	0.11
Mof_H 	H 	0.9062	0.2567	0.5307	0.127
Mof_H 	H 	0.8418	0.4042	0.6534	0.049
Mof_H 	H 	0.0251	0.1656	0.7976	0.032
Mof_H 	H 	0.8087	0.0856	0.6931	0.043
Mof_H 	H 	0.005	0.2365	0.783	0.044
Mof_H 	H 	0.7917	0.1549	0.6755	0.109
Mof_H 	H 	0.9062	0.274	0.7433	0.129
Mof_H 	H 	0.8418	0.2492	0.5958	0.048
Mof_C 	C 	0.0221	0.6095	0.8364	-0.006
Mof_C 	C 	0.0623	0.6815	0.9239	0.253
Mof_C 	C 	0.079	0.626	0.8799	-0.062
Mof_C 	C 	0.1509	0.5949	0.8846	0.04
Mof_C 	C 	0.0339	0.5581	0.7938	-0.129
Mof_C 	C 	0.104	0.5254	0.7979	0.165
Mof_C 	C 	0.1617	0.543	0.8425	-0.151
Mof_C 	C 	0.1541	0.4341	0.7558	0.227
Mof_C 	C 	0.154	0.3821	0.7066	-0.054
Mof_C 	C 	0.1558	0.341	0.7168	-0.006
Mof_C 	C 	0.0221	0.2269	0.3905	-0.003
Mof_C 	C 	0.0623	0.2424	0.3185	0.256
Mof_C 	C 	0.079	0.2539	0.374	-0.067
Mof_C 	C 	0.1509	0.2897	0.4051	0.042
Mof_C 	C 	0.0339	0.2357	0.4419	-0.137
Mof_C 	C 	0.104	0.2725	0.4746	0.167
Mof_C 	C 	0.1617	0.2995	0.457	-0.155
Mof_C 	C 	0.1541	0.3217	0.5659	0.227
Mof_C 	C 	0.154	0.3245	0.6179	-0.055
Mof_C 	C 	0.1558	0.3758	0.659	-0.007
Mof_C 	C 	0.0221	0.1636	0.7731	-0.003
Mof_C 	C 	0.0623	0.0761	0.7576	0.259
Mof_C 	C 	0.079	0.1201	0.7461	-0.069
Mof_C 	C 	0.1509	0.1154	0.7103	0.043
Mof_C 	C 	0.0339	0.2062	0.7643	-0.133
Mof_C 	C 	0.104	0.2021	0.7275	0.167
Mof_C 	C 	0.1617	0.1575	0.7005	-0.156
Mof_C 	C 	0.1541	0.2442	0.6783	0.228
Mof_C 	C 	0.154	0.2934	0.6755	-0.055
Mof_C 	C 	0.1558	0.2832	0.6242	-0.006
Mof_C 	C 	0.9779	0.6095	0.8364	0.004
Mof_C 	C 	0.9377	0.6815	0.9239	0.264
Mof_C 	C 	0.921	0.626	0.8799	-0.062
Mof_C 	C 	0.8491	0.5949	0.8846	0.031
Mof_C 	C 	0.9661	0.5581	0.7938	-0.024
Mof_C 	C 	0.896	0.5254	0.7979	0.126
Mof_C 	C 	0.8383	0.543	0.8425	-0.128
Mof_C 	C 	0.8459	0.4341	0.7558	0.226
Mof_C 	C 	0.846	0.3821	0.7066	-0.05
Mof_C 	C 	0.8442	0.341	0.7168	-0.008
Mof_C 	C 	0.9779	0.2269	0.3905	0.008
Mof_C 	C 	0.9377	0.2424	0.3185	0.269
Mof_C 	C 	0.921	0.2539	0.374	-0.068
Mof_C 	C 	0.8491	0.2897	0.4051	0.032
Mof_C 	C 	0.9661	0.2357	0.4419	-0.02
Mof_C 	C 	0.896	0.2725	0.4746	0.124
Mof_C 	C 	0.8383	0.2995	0.457	-0.131
Mof_C 	C 	0.8459	0.3217	0.5659	0.226
Mof_C 	C 	0.846	0.3245	0.6179	-0.051
Mof_C 	C 	0.8442	0.3758	0.659	-0.008
Mof_C 	C 	0.9779	0.1636	0.7731	0.007
Mof_C 	C 	0.9377	0.0761	0.7576	0.27
Mof_C 	C 	0.921	0.1201	0.7461	-0.069
Mof_C 	C 	0.8491	0.1154	0.7103	0.033
Mof_C 	C 	0.9661	0.2062	0.7643	-0.022
Mof_C 	C 	0.896	0.2021	0.7275	0.126
Mof_C 	C 	0.8383	0.1575	0.7005	-0.132
Mof_C 	C 	0.8459	0.2442	0.6783	0.227
Mof_C 	C 	0.846	0.2934	0.6755	-0.051
Mof_C 	C 	0.8442	0.2832	0.6242	-0.008
Mof_N 	N 	0.1154	0.4745	0.7559	-0.248
Mof_N 	N 	0.1154	0.2814	0.5255	-0.249
Mof_N 	N 	0.1154	0.2441	0.7186	-0.249
Mof_N 	N 	0.8846	0.4745	0.7559	-0.24
Mof_N 	N 	0.8846	0.2814	0.5255	-0.24
Mof_N 	N 	0.8846	0.2441	0.7186	-0.24
Mof_O 	O 	0.1121	0.696	0.9645	-0.263
Mof_O 	O 	0.1945	0.4373	0.7953	-0.221
Mof_O 	O 	0.1121	0.2685	0.304	-0.28
Mof_O 	O 	0.1945	0.358	0.5627	-0.223
Mof_O 	O 	0.1121	0.0355	0.7315	-0.293
Mof_O 	O 	0.1945	0.2047	0.642	-0.226
Mof_O 	O 	0.8879	0.696	0.9645	-0.264
Mof_O 	O 	0.8055	0.4373	0.7953	-0.218
Mof_O 	O 	0.8879	0.2685	0.304	-0.28
Mof_O 	O 	0.8055	0.358	0.5627	-0.22
Mof_O 	O 	0.8879	0.0355	0.7315	-0.292
Mof_O 	O 	0.8055	0.2047	0.642	-0.223
Mof_O 	O 	2.98629e-32	0.7078	0.9152	-0.44
Mof_O 	O 	-2.48858e-33	0.2074	0.2922	-0.45
Mof_O 	O 	9.95431e-33	0.0848	0.7926	-0.45
Mof_H 	H 	0.0251	0.7976	0.1656	0.032
Mof_H 	H 	0.8087	0.6931	0.0856	0.043
Mof_H 	H 	0.005	0.783	0.2365	0.044
Mof_H 	H 	0.7917	0.6755	0.1549	0.109
Mof_H 	H 	0.9062	0.7433	0.274	0.129
Mof_H 	H 	0.8418	0.5958	0.2492	0.048
Mof_H 	H 	0.0251	0.8344	0.632	0.032
Mof_H 	H 	0.8087	0.9144	0.6075	0.052
Mof_H 	H 	0.005	0.7635	0.5465	0.043
Mof_H 	H 	0.7917	0.8451	0.5206	0.112
Mof_H 	H 	0.9062	0.726	0.4693	0.128
Mof_H 	H 	0.8418	0.7508	0.3466	0.05
Mof_H 	H 	0.0251	0.368	0.2024	0.029
Mof_H 	H 	0.8087	0.3925	0.3069	0.047
Mof_H 	H 	0.005	0.4535	0.217	0.044
Mof_H 	H 	0.7917	0.4794	0.3245	0.11
Mof_H 	H 	0.9062	0.5307	0.2567	0.127
Mof_H 	H 	0.8418	0.6534	0.4042	0.049
Mof_H 	H 	0.9749	0.7976	0.1656	0.039
Mof_H 	H 	0.1913	0.6931	0.0856	0.038
Mof_H 	H 	0.995	0.783	0.2365	0.035
Mof_H 	H 	0.2083	0.6755	0.1549	0.116
Mof_H 	H 	0.0938	0.7433	0.274	0.129
Mof_H 	H 	0.1582	0.5958	0.2492	0.046
Mof_H 	H 	0.9749	0.8344	0.632	0.039
Mof_H 	H 	0.1913	0.9144	0.6075	0.048
Mof_H 	H 	0.995	0.7635	0.5465	0.034
Mof_H 	H 	0.2083	0.8451	0.5206	0.118
Mof_H 	H 	0.0938	0.726	0.4693	0.128
Mof_H 	H 	0.1582	0.7508	0.3466	0.048
Mof_H 	H 	0.9749	0.368	0.2024	0.037
Mof_H 	H 	0.1913	0.3925	0.3069	0.042
Mof_H 	H 	0.995	0.4535	0.217	0.033
Mof_H 	H 	0.2083	0.4794	0.3245	0.117
Mof_H 	H 	0.0938	0.5307	0.2567	0.127
Mof_H 	H 	0.1582	0.6534	0.4042	0.047
Mof_C 	C 	0.9779	0.7731	0.1636	0.007
Mof_C 	C 	0.9377	0.7576	0.0761	0.27
Mof_C 	C 	0.921	0.7461	0.1201	-0.069
Mof_C 	C 	0.8491	0.7103	0.1154	0.033
Mof_C 	C 	0.9661	0.7643	0.2062	-0.022
Mof_C 	C 	0.896	0.7275	0.2021	0.126
Mof_C 	C 	0.8383	0.7005	0.1575	-0.132
Mof_C 	C 	0.8459	0.6783	0.2442	0.227
Mof_C 	C 	0.846	0.6755	0.2934	-0.051
Mof_C 	C 	0.8442	0.6242	0.2832	-0.008
Mof_C 	C 	0.9779	0.8364	0.6095	0.004
Mof_C 	C 	0.9377	0.9239	0.6815	0.264
Mof_C 	C 	0.921	0.8799	0.626	-0.062
Mof_C 	C 	0.8491	0.8846	0.5949	0.031
Mof_C 	C 	0.9661	0.7938	0.5581	-0.024
Mof_C 	C 	0.896	0.7979	0.5254	0.126
Mof_C 	C 	0.8383	0.8425	0.543	-0.128
Mof_C 	C 	0.8459	0.7558	0.4341	0.226
Mof_C 	C 	0.846	0.7066	0.3821	-0.05
Mof_C 	C 	0.8442	0.7168	0.341	-0.008
Mof_C 	C 	0.9779	0.3905	0.2269	0.008
Mof_C 	C 	0.9377	0.3185	0.2424	0.269
Mof_C 	C 	0.921	0.374	0.2539	-0.068
Mof_C 	C 	0.8491	0.4051	0.2897	0.032
Mof_C 	C 	0.9661	0.4419	0.2357	-0.02
Mof_C 	C 	0.896	0.4746	0.2725	0.124
Mof_C 	C 	0.8383	0.457	0.2995	-0.131
Mof_C 	C 	0.8459	0.5659	0.3217	0.226
Mof_C 	C 	0.846	0.6179	0.3245	-0.051
Mof_C 	C 	0.8442	0.659	0.3758	-0.008
Mof_C 	C 	0.0221	0.7731	0.1636	-0.003
Mof_C 	C 	0.0623	0.7576	0.0761	0.259
Mof_C 	C 	0.079	0.7461	0.1201	-0.069
Mof_C 	C 	0.1509	0.7103	0.1154	0.043
Mof_C 	C 	0.0339	0.7643	0.2062	-0.133
Mof_C 	C 	0.104	0.7275	0.2021	0.167
Mof_C 	C 	0.1617	0.7005	0.1575	-0.156
Mof_C 	C 	0.1541	0.6783	0.2442	0.228
Mof_C 	C 	0.154	0.6755	0.2934	-0.055
Mof_C 	C 	0.1558	0.6242	0.2832	-0.006
Mof_C 	C 	0.0221	0.8364	0.6095	-0.006
Mof_C 	C 	0.0623	0.9239	0.6815	0.253
Mof_C 	C 	0.079	0.8799	0.626	-0.062
Mof_C 	C 	0.1509	0.8846	0.5949	0.04
Mof_C 	C 	0.0339	0.7938	0.5581	-0.129
Mof_C 	C 	0.104	0.7979	0.5254	0.165
Mof_C 	C 	0.1617	0.8425	0.543	-0.151
Mof_C 	C 	0.1541	0.7558	0.4341	0.227
Mof_C 	C 	0.154	0.7066	0.3821	-0.054
Mof_C 	C 	0.1558	0.7168	0.341	-0.006
Mof_C 	C 	0.0221	0.3905	0.2269	-0.003
Mof_C 	C 	0.0623	0.3185	0.2424	0.256
Mof_C 	C 	0.079	0.374	0.2539	-0.067
Mof_C 	C 	0.1509	0.4051	0.2897	0.042
Mof_C 	C 	0.0339	0.4419	0.2357	-0.137
Mof_C 	C 	0.104	0.4746	0.2725	0.167
Mof_C 	C 	0.1617	0.457	0.2995	-0.155
Mof_C 	C 	0.1541	0.5659	0.3217	0.227
Mof_C 	C 	0.154	0.6179	0.3245	-0.055
Mof_C 	C 	0.1558	0.659	0.3758	-0.007
Mof_N 	N 	0.8846	0.7186	0.2441	-0.24
Mof_N 	N 	0.8846	0.7559	0.4745	-0.24
Mof_N 	N 	0.8846	0.5255	0.2814	-0.24
Mof_N 	N 	0.1154	0.7186	0.2441	-0.249
Mof_N 	N 	0.1154	0.7559	0.4745	-0.248
Mof_N 	N 	0.1154	0.5255	0.2814	-0.249
Mof_O 	O 	0.8879	0.7315	0.0355	-0.292
Mof_O 	O 	0.8055	0.642	0.2047	-0.223
Mof_O 	O 	0.8879	0.9645	0.696	-0.264
Mof_O 	O 	0.8055	0.7953	0.4373	-0.218
Mof_O 	O 	0.8879	0.304	0.2685	-0.28
Mof_O 	O 	0.8055	0.5627	0.358	-0.22
Mof_O 	O 	0.1121	0.7315	0.0355	-0.293
Mof_O 	O 	0.1945	0.642	0.2047	-0.226
Mof_O 	O 	0.1121	0.9645	0.696	-0.263
Mof_O 	O 	0.1945	0.7953	0.4373	-0.221
Mof_O 	O 	0.1121	0.304	0.2685	-0.28
Mof_O 	O 	0.1945	0.5627	0.358	-0.223
Mof_O 	O 	4.97715e-33	0.7926	0.0848	-0.45
Mof_O 	O 	1.99086e-32	0.9152	0.7078	-0.44
Mof_O 	O 	-2.48858e-33	0.2922	0.2074	-0.45
Mof_Zn	Zn	-0	0.77003	-0	1.202
Mof_Zn	Zn	-2.48858e-33	0.22997	0.22997	1.208
Mof_Zn	Zn	-0	4.48302e-17	0.77003	1.202
Mof_Cr	Cr	0.5	0.93547	0.93547	2.068
Mof_Cr	Cr	0.5	-5.60378e-18	0.06453	1.946
Mof_Cr	Cr	0.5	0.06453	-0	1.946
Mof_H 	H 	0.2651	0.8342	0.9257	0.029
Mof_H 	H 	0.1333	0.7821	0.9259	0.015
Mof_H 	H 	0.2651	0.0915	0.1658	0.034
Mof_H 	H 	0.1333	0.1438	0.2179	0.014
Mof_H 	H 	0.2651	0.0743	0.9085	0.036
Mof_H 	H 	0.1333	0.0741	0.8562	0.021
Mof_H 	H 	0.7349	0.8342	0.9257	0.029
Mof_H 	H 	0.8667	0.7821	0.9259	0.017
Mof_H 	H 	0.7349	0.0915	0.1658	0.035
Mof_H 	H 	0.8667	0.1438	0.2179	0.016
Mof_H 	H 	0.7349	0.0743	0.9085	0.037
Mof_H 	H 	0.8667	0.0741	0.8562	0.023
Mof_H 	H 	0.7349	0.9085	0.0743	0.037
Mof_H 	H 	0.8667	0.8562	0.0741	0.023
Mof_H 	H 	0.7349	0.9257	0.8342	0.029
Mof_H 	H 	0.8667	0.9259	0.7821	0.017
Mof_H 	H 	0.7349	0.1658	0.0915	0.035
Mof_H 	H 	0.8667	0.2179	0.1438	0.016
Mof_H 	H 	0.2651	0.9085	0.0743	0.036
Mof_H 	H 	0.1333	0.8562	0.0741	0.021
Mof_H 	H 	0.2651	0.9257	0.8342	0.029
Mof_H 	H 	0.1333	0.9259	0.7821	0.015
Mof_H 	H 	0.2651	0.1658	0.0915	0.034
Mof_H 	H 	0.1333	0.2179	0.1438	0.014
Mof_C 	C 	0.2391	0.8404	0.9577	0.05
Mof_C 	C 	0.1574	0.8088	0.9579	0.034
Mof_C 	C 	0.2391	0.1173	0.1596	0.005
Mof_C 	C 	0.1574	0.1491	0.1912	0.017
Mof_C 	C 	0.2391	0.0423	0.8827	0.023
Mof_C 	C 	0.1574	0.0421	0.8509	0.007
Mof_C 	C 	0.7609	0.8404	0.9577	0.05
Mof_C 	C 	0.8426	0.8088	0.9579	0.034
Mof_C 	C 	0.7609	0.1173	0.1596	0.006
Mof_C 	C 	0.8426	0.1491	0.1912	0.018
Mof_C 	C 	0.7609	0.0423	0.8827	0.023
Mof_C 	C 	0.8426	0.0421	0.8509	0.008
Mof_C 	C 	0.7609	0.8827	0.0423	0.023
Mof_C 	C 	0.8426	0.8509	0.0421	0.008
Mof_C 	C 	0.7609	0.9577	0.8404	0.05
Mof_C 	C 	0.8426	0.9579	0.8088	0.034
Mof_C 	C 	0.7609	0.1596	0.1173	0.006
Mof_C 	C 	0.8426	0.1912	0.1491	0.018
Mof_C 	C 	0.2391	0.8827	0.0423	0.023
Mof_C 	C 	0.1574	0.8509	0.0421	0.007
Mof_C 	C 	0.2391	0.9577	0.8404	0.05
Mof_C 	C 	0.1574	0.9579	0.8088	0.034
Mof_C 	C 	0.2391	0.1596	0.1173	0.005
Mof_C 	C 	0.1574	0.1912	0.1491	0.017
Mof_C 	C 	0.3607	0.9111	-0	0.492
Mof_C 	C 	0.2781	0.8769	-0	-0.177
Mof_C 	C 	0.3607	0.0889	0.0889	0.504
Mof_C 	C 	0.2781	0.1231	0.1231	-0.141
Mof_C 	C 	0.3607	-8.96604e-17	0.9111	0.492
Mof_C 	C 	0.2781	0	0.8769	-0.177
Mof_C 	C 	0.6393	0.9111	-0	0.493
Mof_C 	C 	0.7219	0.8769	-0	-0.176
Mof_C 	C 	0.6393	0.0889	0.0889	0.505
Mof_C 	C 	0.7219	0.1231	0.1231	-0.141
Mof_C 	C 	0.6393	-8.96604e-17	0.9111	0.493
Mof_C 	C 	0.7219	0	0.8769	-0.176
Mof_N 	N 	0.1149	0.8151	-0	-0.255
Mof_N 	N 	0.1149	0.1849	0.1849	-0.243
Mof_N 	N 	0.1149	-8.96604e-17	0.8151	-0.255
Mof_N 	N 	0.8851	0.8151	-0	-0.252
Mof_N 	N 	0.8851	0.1849	0.1849	-0.24
Mof_N 	N 	0.8851	-8.96604e-17	0.8151	-0.252
Mof_O 	O 	0.3916	0.9031	0.9558	-0.607
Mof_O 	O 	0.3916	0.0527	0.0969	-0.621
Mof_O 	O 	0.3916	0.0442	0.9473	-0.602
Mof_O 	O 	0.6084	0.9031	0.9558	-0.607
Mof_O 	O 	0.6084	0.0527	0.0969	-0.621
Mof_O 	O 	0.6084	0.0442	0.9473	-0.602
Mof_O 	O 	0.6084	0.9473	0.0442	-0.602
Mof_O 	O 	0.6084	0.9558	0.9031	-0.607
Mof_O 	O 	0.6084	0.0969	0.0527	-0.621
Mof_O 	O 	0.3916	0.9473	0.0442	-0.602
Mof_O 	O 	0.3916	0.9558	0.9031	-0.607
Mof_O 	O 	0.3916	0.0969	0.0527	-0.621
Mof_O 	O 	0.5	0	-0	-1.115
_end
