# CIF file generated by openbabel 3.1.0, see https://openbabel.org
data_I
_chemical_name_common 'image0'
_cell_length_a 13.5146
_cell_length_b 10.7692
_cell_length_c 14.6278
_cell_angle_alpha 90
_cell_angle_beta 110.631
_cell_angle_gamma 90
_space_group_name_H-M_alt 'P 1'
_space_group_name_Hall 'P 1'
loop_
    _symmetry_equiv_pos_as_xyz
    x,y,z
loop_
    _atom_site_label
    _atom_site_type_symbol
    _atom_site_fract_x
    _atom_site_fract_y
    _atom_site_fract_z
    _atom_site_occupancy
    Co1      Co       0.41043    0.90418    0.46172    1.000
    Co2      Co       0.50384    0.01050    0.29221    1.000
    O1       O        0.30463    0.03100    0.37377    1.000
    O2       O        0.38991    0.13500    0.29059    1.000
    O3       O        0.38620    0.40420    0.23847    1.000
    O4       O        0.31260    0.28450    0.10776    1.000
    O5       O        0.62010    0.14580    0.34031    1.000
    O6       O        0.71385    0.15190    0.50127    1.000
    O7       O        0.63354    0.27700    0.15290    1.000
    O8       O        0.62816    0.39560    0.27768    1.000
    O9       O        0.53807    0.95950    0.43152    1.000
    C1       C        0.31300    0.11720    0.31910    1.000
    C2       C        0.22480    0.20860    0.28530    1.000
    C3       C        0.13980    0.19480    0.31780    1.000
    H1       H        0.13990    0.12870    0.35870    1.000
    C4       C        0.05490    0.27740    0.29060    1.000
    C5       C        0.05770    0.37540    0.22950    1.000
    H2       H        0.00260    0.43260    0.21080    1.000
    C6       C        0.14120    0.38940    0.19630    1.000
    H3       H        0.14050    0.45490    0.15460    1.000
    C7       C        0.22570    0.30750    0.22400    1.000
    C8       C        0.31630    0.33200    0.18700    1.000
    C9       C        0.96580    0.25800    0.32570    1.000
    C10      C        0.98230    0.20310    0.41670    1.000
    H4       H        0.05060    0.18300    0.45710    1.000
    C11      C        0.89820    0.17850    0.44730    1.000
    H5       H        0.91060    0.14130    0.50770    1.000
    C12      C        0.79630    0.20850    0.38900    1.000
    C13      C        0.77850    0.27050    0.30030    1.000
    C14      C        0.86260    0.29320    0.26920    1.000
    H6       H        0.85020    0.33260    0.20970    1.000
    C15      C        0.67080    0.31650    0.23930    1.000
    C16      C        0.70200    0.16550    0.41250    1.000
    Co3      Co       0.58957    0.40418    0.03828    1.000
    Co4      Co       0.49616    0.51050    0.20779    1.000
    O10      O        0.69537    0.53100    0.12623    1.000
    O11      O        0.61009    0.63500    0.20941    1.000
    O12      O        0.61380    0.90420    0.26153    1.000
    O13      O        0.68740    0.78450    0.39224    1.000
    O14      O        0.37990    0.64580    0.15969    1.000
    O15      O        0.28615    0.65190    0.99873    1.000
    O16      O        0.36646    0.77700    0.34710    1.000
    O17      O        0.37184    0.89560    0.22232    1.000
    O18      O        0.46193    0.45950    0.06848    1.000
    C17      C        0.68700    0.61720    0.18090    1.000
    C18      C        0.77520    0.70860    0.21470    1.000
    C19      C        0.86020    0.69480    0.18220    1.000
    H7       H        0.86010    0.62870    0.14130    1.000
    C20      C        0.94510    0.77740    0.20940    1.000
    C21      C        0.94230    0.87540    0.27050    1.000
    H8       H        0.99740    0.93260    0.28920    1.000
    C22      C        0.85880    0.88940    0.30370    1.000
    H9       H        0.85950    0.95490    0.34540    1.000
    C23      C        0.77430    0.80750    0.27600    1.000
    C24      C        0.68370    0.83200    0.31300    1.000
    C25      C        0.03420    0.75800    0.17430    1.000
    C26      C        0.01770    0.70310    0.08330    1.000
    H10      H        0.94940    0.68300    0.04290    1.000
    C27      C        0.10180    0.67850    0.05270    1.000
    H11      H        0.08940    0.64130    0.99230    1.000
    C28      C        0.20370    0.70850    0.11100    1.000
    C29      C        0.22150    0.77050    0.19970    1.000
    C30      C        0.13740    0.79320    0.23080    1.000
    H12      H        0.14980    0.83260    0.29030    1.000
    C31      C        0.32920    0.81650    0.26070    1.000
    C32      C        0.29800    0.66550    0.08750    1.000
    Co5      Co       0.58957    0.09582    0.53828    1.000
    Co6      Co       0.49616    0.98950    0.70779    1.000
    O19      O        0.69537    0.96900    0.62623    1.000
    O20      O        0.61009    0.86500    0.70941    1.000
    O21      O        0.61380    0.59580    0.76153    1.000
    O22      O        0.68740    0.71550    0.89224    1.000
    O23      O        0.37990    0.85420    0.65969    1.000
    O24      O        0.28615    0.84810    0.49873    1.000
    O25      O        0.36646    0.72300    0.84710    1.000
    O26      O        0.37184    0.60440    0.72232    1.000
    O27      O        0.46193    0.04050    0.56848    1.000
    C33      C        0.68700    0.88280    0.68090    1.000
    C34      C        0.77520    0.79140    0.71470    1.000
    C35      C        0.86020    0.80520    0.68220    1.000
    H13      H        0.86010    0.87130    0.64130    1.000
    C36      C        0.94510    0.72260    0.70940    1.000
    C37      C        0.94230    0.62460    0.77050    1.000
    H14      H        0.99740    0.56740    0.78920    1.000
    C38      C        0.85880    0.61060    0.80370    1.000
    H15      H        0.85950    0.54510    0.84540    1.000
    C39      C        0.77430    0.69250    0.77600    1.000
    C40      C        0.68370    0.66800    0.81300    1.000
    C41      C        0.03420    0.74200    0.67430    1.000
    C42      C        0.01770    0.79690    0.58330    1.000
    H16      H        0.94940    0.81700    0.54290    1.000
    C43      C        0.10180    0.82150    0.55270    1.000
    H17      H        0.08940    0.85870    0.49230    1.000
    C44      C        0.20370    0.79150    0.61100    1.000
    C45      C        0.22150    0.72950    0.69970    1.000
    C46      C        0.13740    0.70680    0.73080    1.000
    H18      H        0.14980    0.66740    0.79030    1.000
    C47      C        0.32920    0.68350    0.76070    1.000
    C48      C        0.29800    0.83450    0.58750    1.000
    Co7      Co       0.41043    0.59582    0.96172    1.000
    Co8      Co       0.50384    0.48950    0.79221    1.000
    O28      O        0.30463    0.46900    0.87377    1.000
    O29      O        0.38991    0.36500    0.79059    1.000
    O30      O        0.38620    0.09580    0.73847    1.000
    O31      O        0.31260    0.21550    0.60776    1.000
    O32      O        0.62010    0.35420    0.84031    1.000
    O33      O        0.71385    0.34810    0.00127    1.000
    O34      O        0.63354    0.22300    0.65290    1.000
    O35      O        0.62816    0.10440    0.77768    1.000
    O36      O        0.53807    0.54050    0.93152    1.000
    C49      C        0.31300    0.38280    0.81910    1.000
    C50      C        0.22480    0.29140    0.78530    1.000
    C51      C        0.13980    0.30520    0.81780    1.000
    H19      H        0.13990    0.37130    0.85870    1.000
    C52      C        0.05490    0.22260    0.79060    1.000
    C53      C        0.05770    0.12460    0.72950    1.000
    H20      H        0.00260    0.06740    0.71080    1.000
    C54      C        0.14120    0.11060    0.69630    1.000
    H21      H        0.14050    0.04510    0.65460    1.000
    C55      C        0.22570    0.19250    0.72400    1.000
    C56      C        0.31630    0.16800    0.68700    1.000
    C57      C        0.96580    0.24200    0.82570    1.000
    C58      C        0.98230    0.29690    0.91670    1.000
    H22      H        0.05060    0.31700    0.95710    1.000
    C59      C        0.89820    0.32150    0.94730    1.000
    H23      H        0.91060    0.35870    0.00770    1.000
    C60      C        0.79630    0.29150    0.88900    1.000
    C61      C        0.77850    0.22950    0.80030    1.000
    C62      C        0.86260    0.20680    0.76920    1.000
    H24      H        0.85020    0.16740    0.70970    1.000
    C63      C        0.67080    0.18350    0.73930    1.000
    C64      C        0.70200    0.33450    0.91250    1.000
