data_functionalizedCrystal
_audit_creation_method	'EQeq! by Chris Wilmer'
_symmetry_space_group_name_H-M	'P1'
_symmetry_Int_Tables_number	1
_symmetry_cell_setting	triclinic
loop_
_symmetry_equiv_pos_as_xyz
  x,y,z
_cell_length_a	10.9932
_cell_length_b	10.9932
_cell_length_c	18.0928
_cell_angle_alpha	90
_cell_angle_beta	90
_cell_angle_gamma	90
loop_
_atom_site_label
_atom_site_type_symbol
_atom_site_fract_x
_atom_site_fract_y
_atom_site_fract_z
_atom_site_charge
Mof_Cu	Cu	0.61599	0.89151	0.14374	0.86
Mof_Cu	Cu	0.40773	0.10138	0.13458	0.856
Mof_Cu	Cu	0.38401	0.10849	0.64374	0.86
Mof_Cu	Cu	0.59227	0.89862	0.63458	0.856
Mof_Cu	Cu	0.10849	0.61599	0.39374	0.86
Mof_Cu	Cu	0.89862	0.40773	0.38458	0.856
Mof_Cu	Cu	0.89151	0.38401	0.89374	0.859
Mof_Cu	Cu	0.10138	0.59227	0.88458	0.856
Mof_H 	H 	0.8333	0.9658	0.2831	0.306
Mof_H 	H 	0.8613	0.9722	0.1983	0.306
Mof_H 	H 	0.913	0.072	0.2516	0.329
Mof_H 	H 	0.563	0.4148	0.2024	0.297
Mof_H 	H 	0.4444	0.3357	0.2056	0.28
Mof_H 	H 	0.5106	0.3731	0.2789	0.3
Mof_H 	H 	0.4988	0.6478	0.3122	0.274
Mof_H 	H 	0.48	0.5982	0.2317	0.266
Mof_H 	H 	0.5896	0.6848	0.2492	0.249
Mof_H 	H 	0.1536	0.0283	0.1894	0.28
Mof_H 	H 	0.1009	0.9379	0.2482	0.296
Mof_H 	H 	0.1789	0.0497	0.2737	0.275
Mof_H 	H 	0.1667	0.0342	0.7831	0.305
Mof_H 	H 	0.1387	0.0278	0.6983	0.306
Mof_H 	H 	0.087	0.928	0.7516	0.328
Mof_H 	H 	0.437	0.5852	0.7024	0.295
Mof_H 	H 	0.5556	0.6643	0.7056	0.279
Mof_H 	H 	0.4894	0.6269	0.7789	0.299
Mof_H 	H 	0.5012	0.3522	0.8122	0.274
Mof_H 	H 	0.52	0.4018	0.7317	0.265
Mof_H 	H 	0.4104	0.3152	0.7492	0.248
Mof_H 	H 	0.8464	0.9717	0.6894	0.28
Mof_H 	H 	0.8991	0.0621	0.7482	0.295
Mof_H 	H 	0.8211	0.9503	0.7737	0.274
Mof_H 	H 	0.0342	0.8333	0.5331	0.303
Mof_H 	H 	0.0278	0.8613	0.4483	0.303
Mof_H 	H 	0.928	0.913	0.5016	0.326
Mof_H 	H 	0.5852	0.563	0.4524	0.295
Mof_H 	H 	0.6643	0.4444	0.4556	0.279
Mof_H 	H 	0.6269	0.5106	0.5289	0.299
Mof_H 	H 	0.3522	0.4988	0.5622	0.274
Mof_H 	H 	0.4018	0.48	0.4817	0.265
Mof_H 	H 	0.3152	0.5896	0.4992	0.248
Mof_H 	H 	0.9717	0.1536	0.4394	0.282
Mof_H 	H 	0.0621	0.1009	0.4982	0.298
Mof_H 	H 	0.9503	0.1789	0.5237	0.277
Mof_H 	H 	0.9658	0.1667	0.0331	0.317
Mof_H 	H 	0.9722	0.1387	0.9483	0.31
Mof_H 	H 	0.072	0.087	0.0016	0.338
Mof_H 	H 	0.4148	0.437	0.9524	0.303
Mof_H 	H 	0.3357	0.5556	0.9556	0.286
Mof_H 	H 	0.3731	0.4894	0.0289	0.312
Mof_H 	H 	0.6478	0.5012	0.0622	0.239
Mof_H 	H 	0.5982	0.52	0.9817	0.224
Mof_H 	H 	0.6848	0.4104	0.9992	0.208
Mof_H 	H 	0.0283	0.8464	0.9394	0.288
Mof_H 	H 	0.9379	0.8991	0.9982	0.299
Mof_H 	H 	0.0497	0.8211	0.0237	0.287
Mof_C 	C 	0.8453	0.0194	0.2419	-1.025
Mof_C 	C 	0.5221	0.3503	0.2281	-0.966
Mof_C 	C 	0.7346	0.0932	0.2305	0.441
Mof_C 	C 	0.5949	0.2408	0.2245	0.399
Mof_C 	C 	0.7121	0.2093	0.2547	-0.438
Mof_C 	C 	0.7831	0.2837	0.3039	0.419
Mof_C 	C 	0.5062	0.6667	0.2605	-0.864
Mof_C 	C 	0.1686	0.9892	0.2359	-0.923
Mof_C 	C 	0.4292	0.774	0.2428	0.357
Mof_C 	C 	0.2822	0.9133	0.2304	0.387
Mof_C 	C 	0.3083	0.8031	0.2653	-0.397
Mof_C 	C 	0.232	0.7363	0.3164	0.422
Mof_C 	C 	0.1547	0.9806	0.7419	-1.024
Mof_C 	C 	0.4779	0.6497	0.7281	-0.963
Mof_C 	C 	0.2654	0.9068	0.7305	0.44
Mof_C 	C 	0.4051	0.7592	0.7245	0.397
Mof_C 	C 	0.2879	0.7907	0.7547	-0.437
Mof_C 	C 	0.2169	0.7163	0.8039	0.418
Mof_C 	C 	0.4938	0.3333	0.7605	-0.862
Mof_C 	C 	0.8314	0.0108	0.7359	-0.923
Mof_C 	C 	0.5708	0.226	0.7428	0.356
Mof_C 	C 	0.7178	0.0867	0.7304	0.386
Mof_C 	C 	0.6917	0.1969	0.7653	-0.397
Mof_C 	C 	0.768	0.2637	0.8164	0.422
Mof_C 	C 	0.9806	0.8453	0.4919	-1.017
Mof_C 	C 	0.6497	0.5221	0.4781	-0.962
Mof_C 	C 	0.9068	0.7346	0.4805	0.438
Mof_C 	C 	0.7592	0.5949	0.4745	0.397
Mof_C 	C 	0.7907	0.7121	0.5047	-0.436
Mof_C 	C 	0.7163	0.7831	0.5539	0.418
Mof_C 	C 	0.3333	0.5062	0.5105	-0.863
Mof_C 	C 	0.0108	0.1686	0.4859	-0.929
Mof_C 	C 	0.226	0.4292	0.4928	0.356
Mof_C 	C 	0.0867	0.2822	0.4804	0.388
Mof_C 	C 	0.1969	0.3083	0.5153	-0.398
Mof_C 	C 	0.2637	0.232	0.5664	0.422
Mof_C 	C 	0.0194	0.1547	0.9919	-1.049
Mof_C 	C 	0.3503	0.4779	0.9781	-0.99
Mof_C 	C 	0.0932	0.2654	0.9805	0.442
Mof_C 	C 	0.2408	0.4051	0.9745	0.4
Mof_C 	C 	0.2093	0.2879	0.0047	-0.434
Mof_C 	C 	0.2837	0.2169	0.0539	0.418
Mof_C 	C 	0.6667	0.4938	0.0105	-0.741
Mof_C 	C 	0.9892	0.8314	0.9859	-0.949
Mof_C 	C 	0.774	0.5708	0.9928	0.307
Mof_C 	C 	0.9133	0.7178	0.9804	0.376
Mof_C 	C 	0.8031	0.6917	0.0153	-0.364
Mof_C 	C 	0.7363	0.768	0.0664	0.411
Mof_N 	N 	0.6434	0.0467	0.1925	-0.299
Mof_N 	N 	0.5616	0.1417	0.1837	-0.278
Mof_N 	N 	0.4652	0.8632	0.1969	-0.277
Mof_N 	N 	0.3753	0.9545	0.1932	-0.288
Mof_N 	N 	0.3566	0.9533	0.6925	-0.299
Mof_N 	N 	0.4384	0.8583	0.6837	-0.278
Mof_N 	N 	0.5348	0.1368	0.6969	-0.277
Mof_N 	N 	0.6247	0.0455	0.6932	-0.288
Mof_N 	N 	0.9533	0.6434	0.4425	-0.298
Mof_N 	N 	0.8583	0.5616	0.4337	-0.278
Mof_N 	N 	0.1368	0.4652	0.4469	-0.277
Mof_N 	N 	0.0455	0.3753	0.4432	-0.289
Mof_N 	N 	0.0467	0.3566	0.9425	-0.299
Mof_N 	N 	0.1417	0.4384	0.9337	-0.279
Mof_N 	N 	0.8632	0.5348	0.9469	-0.269
Mof_N 	N 	0.9545	0.6247	0.9432	-0.288
Mof_O 	O 	0.8849	0.2487	0.3295	-0.463
Mof_O 	O 	0.7472	0.3904	0.3246	-0.451
Mof_O 	O 	0.2677	0.6343	0.3439	-0.453
Mof_O 	O 	0.1291	0.7712	0.3358	-0.469
Mof_O 	O 	0.1151	0.7513	0.8295	-0.463
Mof_O 	O 	0.2528	0.6096	0.8246	-0.452
Mof_O 	O 	0.7323	0.3657	0.8439	-0.453
Mof_O 	O 	0.8709	0.2288	0.8358	-0.47
Mof_O 	O 	0.7513	0.8849	0.5795	-0.463
Mof_O 	O 	0.6096	0.7472	0.5746	-0.451
Mof_O 	O 	0.3657	0.2677	0.5939	-0.453
Mof_O 	O 	0.2288	0.1291	0.5858	-0.469
Mof_O 	O 	0.2487	0.1151	0.0795	-0.462
Mof_O 	O 	0.3904	0.2528	0.0746	-0.45
Mof_O 	O 	0.6343	0.7323	0.0939	-0.448
Mof_O 	O 	0.7712	0.8709	0.0858	-0.464
_end
