# CIF file generated by openbabel 3.1.0, see https://openbabel.org
data_I
_chemical_name_common 'image0'
_cell_length_a 20.1399
_cell_length_b 12.6527
_cell_length_c 21.1473
_cell_angle_alpha 90
_cell_angle_beta 110.702
_cell_angle_gamma 90
_space_group_name_H-M_alt 'P 1'
_space_group_name_Hall 'P 1'
loop_
    _symmetry_equiv_pos_as_xyz
    x,y,z
loop_
    _atom_site_label
    _atom_site_type_symbol
    _atom_site_fract_x
    _atom_site_fract_y
    _atom_site_fract_z
    _atom_site_occupancy
    O1       O        0.93320    0.67840    0.77130    1.000
    O2       O        0.57900    0.07600    0.77860    1.000
    O3       O        0.55650    0.66130    0.72770    1.000
    O4       O        0.95570    0.25390    0.85230    1.000
    O5       O        0.50760    0.37300    0.56770    1.000
    O6       O        0.71790    0.14580    0.82400    1.000
    O7       O        0.85760    0.11150    0.85460    1.000
    O8       O        0.81390    0.68210    0.93890    1.000
    O9       O        0.79990    0.10230    0.95580    1.000
    O10      O        0.88690    0.26130    0.95110    1.000
    O11      O        0.62090    0.36970    0.93670    1.000
    O12      O        0.85400    0.48530    0.91300    1.000
    O13      O        0.81460    0.29990    0.81530    1.000
    O14      O        0.71790    0.45080    0.80480    1.000
    O15      O        0.78550    0.44240    0.71890    1.000
    O16      O        0.61880    0.28870    0.81320    1.000
    O17      O        0.92470    0.48150    0.82500    1.000
    O18      O        0.69140    0.64590    0.82360    1.000
    O19      O        0.55970    0.24880    0.68380    1.000
    O20      O        0.65200    0.09710    0.69020    1.000
    O21      O        0.79750    0.63280    0.67840    1.000
    O22      O        0.67580    0.64700    0.56360    1.000
    O23      O        0.93630    0.07940    0.77300    1.000
    O24      O        0.79420    0.13390    0.71770    1.000
    O25      O        0.88540    0.28410    0.71950    1.000
    O26      O        0.59920    0.49510    0.82160    1.000
    O27      O        0.72080    0.50910    0.92220    1.000
    O28      O        0.73960    0.29930    0.90990    1.000
    O29      O        0.67290    0.60180    0.69350    1.000
    O30      O        0.62460    0.23870    0.59300    1.000
    O31      O        0.64760    0.44450    0.60790    1.000
    O32      O        0.89730    0.48930    0.69190    1.000
    O33      O        0.77190    0.47390    0.59120    1.000
    O34      O        0.76170    0.27090    0.61910    1.000
    O35      O        0.58330    0.45280    0.69560    1.000
    O36      O        0.81640    0.61890    0.80950    1.000
    O37      O        0.36680    0.30260    0.61280    1.000
    O38      O        0.17370    0.39550    0.81750    1.000
    O39      O        0.03350    0.54050    0.96240    1.000
    O40      O        0.31210    0.12240    0.48070    1.000
    O41      O        0.06590    0.42210    0.90780    1.000
    O42      O        0.69300    0.29430    0.71610    1.000
    Na1      Na       0.40540    0.24650    0.52100    1.000
    Si1      Si       0.75320    0.37030    0.76480    1.000
    Y1       Y        0.95490    0.39011    0.92668    1.000
    Cs1      Cs       0.18910    0.23840    0.43090    1.000
    Cs2      Cs       0.67270    0.15720    0.98940    1.000
    Cs3      Cs       0.47220    0.36850    0.73890    1.000
    Cs4      Cs       0.02710    0.38220    0.76820    1.000
    W1       W        0.58713    0.34890    0.63120    1.000
    W2       W        0.62390    0.57214    0.75383    1.000
    W3       W        0.66282    0.39250    0.87871    1.000
    W4       W        0.80792    0.19742    0.90072    1.000
    W5       W        0.78516    0.57701    0.88274    1.000
    W6       W        0.63032    0.17010    0.76023    1.000
    W7       W        0.83854    0.37361    0.64629    1.000
    W8       W        0.88856    0.18227    0.79023    1.000
    W9       W        0.87517    0.57169    0.76149    1.000
    W10      W        0.71559    0.56019    0.63005    1.000
    W11      W        0.71257    0.16357    0.64758    1.000
    C1       C        0.07590    0.51040    0.93360    1.000
    C2       C        0.13100    0.58180    0.92890    1.000
    H1       H        0.11260    0.62280    0.88820    1.000
    H2       H        0.14560    0.62810    0.96730    1.000
    H3       H        0.17100    0.54120    0.92820    1.000
    O43      O        0.06680    0.17840    0.72870    1.000
    O44      O        0.42100    0.57600    0.72140    1.000
    O45      O        0.44350    0.16130    0.77230    1.000
    O46      O        0.04430    0.75390    0.64770    1.000
    O47      O        0.49240    0.87300    0.93230    1.000
    O48      O        0.28210    0.64580    0.67600    1.000
    O49      O        0.14240    0.61150    0.64540    1.000
    O50      O        0.18610    0.18210    0.56110    1.000
    O51      O        0.20010    0.60230    0.54420    1.000
    O52      O        0.11310    0.76130    0.54890    1.000
    O53      O        0.37910    0.86970    0.56330    1.000
    O54      O        0.14600    0.98530    0.58700    1.000
    O55      O        0.18540    0.79990    0.68470    1.000
    O56      O        0.28210    0.95080    0.69520    1.000
    O57      O        0.21450    0.94240    0.78110    1.000
    O58      O        0.38120    0.78870    0.68680    1.000
    O59      O        0.07530    0.98150    0.67500    1.000
    O60      O        0.30860    0.14590    0.67640    1.000
    O61      O        0.44030    0.74880    0.81620    1.000
    O62      O        0.34800    0.59710    0.80980    1.000
    O63      O        0.20250    0.13280    0.82160    1.000
    O64      O        0.32420    0.14700    0.93640    1.000
    O65      O        0.06370    0.57940    0.72700    1.000
    O66      O        0.20580    0.63390    0.78230    1.000
    O67      O        0.11460    0.78410    0.78050    1.000
    O68      O        0.40080    0.99510    0.67840    1.000
    O69      O        0.27920    0.00910    0.57780    1.000
    O70      O        0.26040    0.79930    0.59010    1.000
    O71      O        0.32710    0.10180    0.80650    1.000
    O72      O        0.37540    0.73870    0.90700    1.000
    O73      O        0.35240    0.94450    0.89210    1.000
    O74      O        0.10270    0.98930    0.80810    1.000
    O75      O        0.22810    0.97390    0.90880    1.000
    O76      O        0.23830    0.77090    0.88090    1.000
    O77      O        0.41670    0.95280    0.80440    1.000
    O78      O        0.18360    0.11890    0.69050    1.000
    O79      O        0.63320    0.80260    0.88720    1.000
    O80      O        0.82630    0.89550    0.68250    1.000
    O81      O        0.96650    0.04050    0.53760    1.000
    O82      O        0.68790    0.62240    0.01930    1.000
    O83      O        0.93410    0.92210    0.59220    1.000
    O84      O        0.30700    0.79430    0.78390    1.000
    Na2      Na       0.59460    0.74650    0.97900    1.000
    Si2      Si       0.24680    0.87030    0.73520    1.000
    Y2       Y        0.04510    0.89011    0.57332    1.000
    Cs5      Cs       0.81090    0.73840    0.06910    1.000
    Cs6      Cs       0.32730    0.65720    0.51060    1.000
    Cs7      Cs       0.52780    0.86850    0.76110    1.000
    Cs8      Cs       0.97290    0.88220    0.73180    1.000
    W12      W        0.41287    0.84890    0.86880    1.000
    W13      W        0.37610    0.07214    0.74617    1.000
    W14      W        0.33718    0.89250    0.62129    1.000
    W15      W        0.19208    0.69742    0.59928    1.000
    W16      W        0.21484    0.07701    0.61726    1.000
    W17      W        0.36968    0.67010    0.73977    1.000
    W18      W        0.16146    0.87361    0.85371    1.000
    W19      W        0.11144    0.68227    0.70977    1.000
    W20      W        0.12483    0.07169    0.73851    1.000
    W21      W        0.28441    0.06019    0.86995    1.000
    W22      W        0.28743    0.66357    0.85242    1.000
    C3       C        0.92410    0.01040    0.56640    1.000
    C4       C        0.86900    0.08180    0.57110    1.000
    H4       H        0.88740    0.12280    0.61180    1.000
    H5       H        0.85440    0.12810    0.53270    1.000
    H6       H        0.82900    0.04120    0.57180    1.000
    O85      O        0.06680    0.32160    0.22870    1.000
    O86      O        0.42100    0.92400    0.22140    1.000
    O87      O        0.44350    0.33870    0.27230    1.000
    O88      O        0.04430    0.74610    0.14770    1.000
    O89      O        0.49240    0.62700    0.43230    1.000
    O90      O        0.28210    0.85420    0.17600    1.000
    O91      O        0.14240    0.88850    0.14540    1.000
    O92      O        0.18610    0.31790    0.06110    1.000
    O93      O        0.20010    0.89770    0.04420    1.000
    O94      O        0.11310    0.73870    0.04890    1.000
    O95      O        0.37910    0.63030    0.06330    1.000
    O96      O        0.14600    0.51470    0.08700    1.000
    O97      O        0.18540    0.70010    0.18470    1.000
    O98      O        0.28210    0.54920    0.19520    1.000
    O99      O        0.21450    0.55760    0.28110    1.000
    O100     O        0.38120    0.71130    0.18680    1.000
    O101     O        0.07530    0.51850    0.17500    1.000
    O102     O        0.30860    0.35410    0.17640    1.000
    O103     O        0.44030    0.75120    0.31620    1.000
    O104     O        0.34800    0.90290    0.30980    1.000
    O105     O        0.20250    0.36720    0.32160    1.000
    O106     O        0.32420    0.35300    0.43640    1.000
    O107     O        0.06370    0.92060    0.22700    1.000
    O108     O        0.20580    0.86610    0.28230    1.000
    O109     O        0.11460    0.71590    0.28050    1.000
    O110     O        0.40080    0.50490    0.17840    1.000
    O111     O        0.27920    0.49090    0.07780    1.000
    O112     O        0.26040    0.70070    0.09010    1.000
    O113     O        0.32710    0.39820    0.30650    1.000
    O114     O        0.37540    0.76130    0.40700    1.000
    O115     O        0.35240    0.55550    0.39210    1.000
    O116     O        0.10270    0.51070    0.30810    1.000
    O117     O        0.22810    0.52610    0.40880    1.000
    O118     O        0.23830    0.72910    0.38090    1.000
    O119     O        0.41670    0.54720    0.30440    1.000
    O120     O        0.18360    0.38110    0.19050    1.000
    O121     O        0.63320    0.69740    0.38720    1.000
    O122     O        0.82630    0.60450    0.18250    1.000
    O123     O        0.96650    0.45950    0.03760    1.000
    O124     O        0.68790    0.87760    0.51930    1.000
    O125     O        0.93410    0.57790    0.09220    1.000
    O126     O        0.30700    0.70570    0.28390    1.000
    Na3      Na       0.59460    0.75350    0.47900    1.000
    Si3      Si       0.24680    0.62970    0.23520    1.000
    Y3       Y        0.04510    0.60989    0.07332    1.000
    Cs9      Cs       0.81090    0.76160    0.56910    1.000
    Cs10     Cs       0.32730    0.84280    0.01060    1.000
    Cs11     Cs       0.52780    0.63150    0.26110    1.000
    Cs12     Cs       0.97290    0.61780    0.23180    1.000
    W23      W        0.41287    0.65110    0.36880    1.000
    W24      W        0.37610    0.42786    0.24617    1.000
    W25      W        0.33718    0.60750    0.12129    1.000
    W26      W        0.19208    0.80258    0.09928    1.000
    W27      W        0.21484    0.42299    0.11726    1.000
    W28      W        0.36968    0.82990    0.23977    1.000
    W29      W        0.16146    0.62639    0.35371    1.000
    W30      W        0.11144    0.81773    0.20977    1.000
    W31      W        0.12483    0.42831    0.23851    1.000
    W32      W        0.28441    0.43981    0.36995    1.000
    W33      W        0.28743    0.83643    0.35242    1.000
    C5       C        0.92410    0.48960    0.06640    1.000
    C6       C        0.86900    0.41820    0.07110    1.000
    H7       H        0.88740    0.37720    0.11180    1.000
    H8       H        0.85440    0.37190    0.03270    1.000
    H9       H        0.82900    0.45880    0.07180    1.000
    O127     O        0.93320    0.82160    0.27130    1.000
    O128     O        0.57900    0.42400    0.27860    1.000
    O129     O        0.55650    0.83870    0.22770    1.000
    O130     O        0.95570    0.24610    0.35230    1.000
    O131     O        0.50760    0.12700    0.06770    1.000
    O132     O        0.71790    0.35420    0.32400    1.000
    O133     O        0.85760    0.38850    0.35460    1.000
    O134     O        0.81390    0.81790    0.43890    1.000
    O135     O        0.79990    0.39770    0.45580    1.000
    O136     O        0.88690    0.23870    0.45110    1.000
    O137     O        0.62090    0.13030    0.43670    1.000
    O138     O        0.85400    0.01470    0.41300    1.000
    O139     O        0.81460    0.20010    0.31530    1.000
    O140     O        0.71790    0.04920    0.30480    1.000
    O141     O        0.78550    0.05760    0.21890    1.000
    O142     O        0.61880    0.21130    0.31320    1.000
    O143     O        0.92470    0.01850    0.32500    1.000
    O144     O        0.69140    0.85410    0.32360    1.000
    O145     O        0.55970    0.25120    0.18380    1.000
    O146     O        0.65200    0.40290    0.19020    1.000
    O147     O        0.79750    0.86720    0.17840    1.000
    O148     O        0.67580    0.85300    0.06360    1.000
    O149     O        0.93630    0.42060    0.27300    1.000
    O150     O        0.79420    0.36610    0.21770    1.000
    O151     O        0.88540    0.21590    0.21950    1.000
    O152     O        0.59920    0.00490    0.32160    1.000
    O153     O        0.72080    0.99090    0.42220    1.000
    O154     O        0.73960    0.20070    0.40990    1.000
    O155     O        0.67290    0.89820    0.19350    1.000
    O156     O        0.62460    0.26130    0.09300    1.000
    O157     O        0.64760    0.05550    0.10790    1.000
    O158     O        0.89730    0.01070    0.19190    1.000
    O159     O        0.77190    0.02610    0.09120    1.000
    O160     O        0.76170    0.22910    0.11910    1.000
    O161     O        0.58330    0.04720    0.19560    1.000
    O162     O        0.81640    0.88110    0.30950    1.000
    O163     O        0.36680    0.19740    0.11280    1.000
    O164     O        0.17370    0.10450    0.31750    1.000
    O165     O        0.03350    0.95950    0.46240    1.000
    O166     O        0.31210    0.37760    0.98070    1.000
    O167     O        0.06590    0.07790    0.40780    1.000
    O168     O        0.69300    0.20570    0.21610    1.000
    Na4      Na       0.40540    0.25350    0.02100    1.000
    Si4      Si       0.75320    0.12970    0.26480    1.000
    Y4       Y        0.95490    0.10989    0.42668    1.000
    Cs13     Cs       0.18910    0.26160    0.93090    1.000
    Cs14     Cs       0.67270    0.34280    0.48940    1.000
    Cs15     Cs       0.47220    0.13150    0.23890    1.000
    Cs16     Cs       0.02710    0.11780    0.26820    1.000
    W34      W        0.58713    0.15110    0.13120    1.000
    W35      W        0.62390    0.92786    0.25383    1.000
    W36      W        0.66282    0.10750    0.37871    1.000
    W37      W        0.80792    0.30258    0.40072    1.000
    W38      W        0.78516    0.92299    0.38274    1.000
    W39      W        0.63032    0.32990    0.26023    1.000
    W40      W        0.83854    0.12639    0.14629    1.000
    W41      W        0.88856    0.31773    0.29023    1.000
    W42      W        0.87517    0.92831    0.26149    1.000
    W43      W        0.71559    0.93981    0.13005    1.000
    W44      W        0.71257    0.33643    0.14758    1.000
    C7       C        0.07590    0.98960    0.43360    1.000
    C8       C        0.13100    0.91820    0.42890    1.000
    H10      H        0.11260    0.87720    0.38820    1.000
    H11      H        0.14560    0.87190    0.46730    1.000
    H12      H        0.17100    0.95880    0.42820    1.000
