data_functionalizedCrystal
_audit_creation_method	'EQeq! by Chris Wilmer'
_symmetry_space_group_name_H-M	'P1'
_symmetry_Int_Tables_number	1
_symmetry_cell_setting	triclinic
loop_
_symmetry_equiv_pos_as_xyz
  x,y,z
_cell_length_a	34.9195
_cell_length_b	34.9195
_cell_length_c	12.0592
_cell_angle_alpha	90
_cell_angle_beta	90
_cell_angle_gamma	90
loop_
_atom_site_label
_atom_site_type_symbol
_atom_site_fract_x
_atom_site_fract_y
_atom_site_fract_z
_atom_site_charge
Mof_F 	F 	0.167	0.4803	0.0534	-0.278
Mof_F 	F 	0.2104	0.4518	0.9638	-0.077
Mof_F 	F 	0.2234	0.5027	0.0477	-0.191
Mof_F 	F 	0.22857	0.5867	0.9667	-0.066
Mof_F 	F 	0.252	0.6097	0.8215	-0.12
Mof_F 	F 	0.2839	0.6112	0.9694	-0.069
Mof_O 	O 	0.09056	0.55377	0.6387	-0.656
Mof_O 	O 	0.07422	0.5072	0.7605	-0.718
Mof_O 	O 	0.39438	0.53976	0.9276	-0.619
Mof_O 	O 	0.39471	0.4785	0.8696	-0.696
Mof_O 	O 	0.98953	0.5585	0.4562	-1.32
Mof_O 	O 	0.03463	0.51349	0.359	-1.33
Mof_C 	C 	0.0978	0.5316	0.7161	0.681
Mof_C 	C 	0.1388	0.53	0.7563	-0.565
Mof_C 	C 	0.1488	0.5115	0.852	0.681
Mof_H 	H 	0.1292	0.5007	0.8969	-0.096
Mof_C 	C 	0.187	0.508	0.8857	-0.759
Mof_C 	C 	0.215	0.5237	0.8187	0.576
Mof_C 	C 	0.2044	0.5423	0.7223	-0.844
Mof_H 	H 	0.2236	0.5534	0.6765	1.04
Mof_C 	C 	0.1665	0.5448	0.6918	0.733
Mof_H 	H 	0.1598	0.5572	0.6243	-0.116
Mof_C 	C 	0.1963	0.4875	0.9853	-0.542
Mof_C 	C 	0.2567	0.5202	0.8405	0.483
Mof_C 	C 	0.2786	0.5508	0.8795	-0.565
Mof_C 	C 	0.3177	0.5456	0.8921	0.629
Mof_H 	H 	0.3323	0.5667	0.9182	-0.029
Mof_C 	C 	0.3367	0.513	0.8704	-0.511
Mof_C 	C 	0.3161	0.4819	0.8318	0.682
Mof_H 	H 	0.3286	0.4583	0.8175	-0.087
Mof_C 	C 	0.2761	0.4857	0.8136	-0.795
Mof_H 	H 	0.2622	0.4648	0.783	1.332
Mof_C 	C 	0.2616	0.5871	0.9089	-0.432
Mof_C 	C 	0.378	0.5098	0.889	0.699
Mof_F 	F 	0.2289	0.4408	0.874	0.041
Mof_F 	F 	0.2755	0.4184	0.783	-0.036
Mof_F 	F 	0.2326	0.4499	0.701	-0.104
Mof_H 	H 	0.1935	0.4952	0.9526	0.999
Mof_H 	H 	0.267	0.5746	0.897	0.82
Mof_C 	C 	0.2544	0.4511	0.794	-1.132
Mof_F 	F 	0.264	0.53	0.643	-0.104
Mof_C 	C 	0.2345	0.554	0.644	-0.678
Mof_F 	F 	0.249	0.588	0.665	-0.105
Mof_F 	F 	0.223	0.555	0.539	-0.144
Mof_F 	F 	0.333	0.0197	0.0534	-0.278
Mof_F 	F 	0.2896	0.0482	0.9638	-0.078
Mof_F 	F 	0.2766	0.9973	0.0477	-0.192
Mof_F 	F 	0.27143	0.9133	0.9667	-0.067
Mof_F 	F 	0.248	0.8903	0.8215	-0.121
Mof_F 	F 	0.2161	0.8888	0.9694	-0.07
Mof_O 	O 	0.40944	0.94623	0.6387	-0.657
Mof_O 	O 	0.42578	0.9928	0.7605	-0.718
Mof_O 	O 	0.10562	0.96024	0.9276	-0.621
Mof_O 	O 	0.10529	0.0215	0.8696	-0.699
Mof_O 	O 	0.51047	0.9415	0.4562	-1.321
Mof_O 	O 	0.46537	0.98651	0.359	-1.331
Mof_C 	C 	0.4022	0.9684	0.7161	0.679
Mof_C 	C 	0.3612	0.97	0.7563	-0.565
Mof_C 	C 	0.3512	0.9885	0.852	0.678
Mof_H 	H 	0.3708	0.9993	0.8969	-0.095
Mof_C 	C 	0.313	0.992	0.8857	-0.755
Mof_C 	C 	0.285	0.9763	0.8187	0.575
Mof_C 	C 	0.2956	0.9577	0.7223	-0.844
Mof_H 	H 	0.2764	0.9466	0.6765	1.04
Mof_C 	C 	0.3335	0.9552	0.6918	0.733
Mof_H 	H 	0.3402	0.9428	0.6243	-0.116
Mof_C 	C 	0.3037	0.0125	0.9853	-0.544
Mof_C 	C 	0.2433	0.9798	0.8405	0.484
Mof_C 	C 	0.2214	0.9492	0.8795	-0.565
Mof_C 	C 	0.1823	0.9544	0.8921	0.629
Mof_H 	H 	0.1677	0.9333	0.9182	-0.029
Mof_C 	C 	0.1633	0.987	0.8704	-0.509
Mof_C 	C 	0.1839	0.0181	0.8318	0.681
Mof_H 	H 	0.1714	0.0417	0.8175	-0.087
Mof_C 	C 	0.2239	0.0143	0.8136	-0.796
Mof_H 	H 	0.2378	0.0352	0.783	1.331
Mof_C 	C 	0.2384	0.9129	0.9089	-0.432
Mof_C 	C 	0.122	0.9902	0.889	0.701
Mof_F 	F 	0.2711	0.0592	0.874	0.041
Mof_F 	F 	0.2245	0.0816	0.783	-0.036
Mof_F 	F 	0.2674	0.0501	0.701	-0.105
Mof_H 	H 	0.3065	0.0048	0.9526	0.998
Mof_H 	H 	0.233	0.9254	0.897	0.82
Mof_C 	C 	0.2456	0.0489	0.794	-1.13
Mof_F 	F 	0.236	0.97	0.643	-0.103
Mof_C 	C 	0.2655	0.946	0.644	-0.679
Mof_F 	F 	0.251	0.912	0.665	-0.105
Mof_F 	F 	0.277	0.945	0.539	-0.144
Mof_F 	F 	0.0197	0.167	0.5534	-0.231
Mof_F 	F 	0.0482	0.2104	0.4638	-0.149
Mof_F 	F 	0.9973	0.2234	0.5477	-0.148
Mof_F 	F 	0.9133	0.22857	0.4667	-0.121
Mof_F 	F 	0.8903	0.252	0.3215	-0.143
Mof_F 	F 	0.8888	0.2839	0.4694	-0.125
Mof_O 	O 	0.94623	0.09056	0.1387	-0.69
Mof_O 	O 	0.9928	0.07422	0.2605	-0.739
Mof_O 	O 	0.96024	0.39438	0.4276	-0.677
Mof_O 	O 	0.0215	0.39471	0.3696	-0.739
Mof_O 	O 	0.9415	0.98953	0.9562	-1.249
Mof_O 	O 	0.98651	0.03463	0.859	-1.293
Mof_C 	C 	0.9684	0.0978	0.2161	0.668
Mof_C 	C 	0.97	0.1388	0.2563	-0.552
Mof_C 	C 	0.9885	0.1488	0.352	0.596
Mof_H 	H 	0.9993	0.1292	0.3969	-0.1
Mof_C 	C 	0.992	0.187	0.3857	-0.637
Mof_C 	C 	0.9763	0.215	0.3187	0.511
Mof_C 	C 	0.9577	0.2044	0.2223	-0.836
Mof_H 	H 	0.9466	0.2236	0.1765	1.059
Mof_C 	C 	0.9552	0.1665	0.1918	0.708
Mof_H 	H 	0.9428	0.1598	0.1243	-0.141
Mof_C 	C 	0.0125	0.1963	0.4853	-0.383
Mof_C 	C 	0.9798	0.2567	0.3405	0.502
Mof_C 	C 	0.9492	0.2786	0.3795	-0.617
Mof_C 	C 	0.9544	0.3177	0.3921	0.638
Mof_H 	H 	0.9333	0.3323	0.4182	-0.061
Mof_C 	C 	0.987	0.3367	0.3704	-0.549
Mof_C 	C 	0.0181	0.3161	0.3318	0.687
Mof_H 	H 	0.0417	0.3286	0.3175	-0.106
Mof_C 	C 	0.0143	0.2761	0.3136	-0.818
Mof_H 	H 	0.0352	0.2622	0.283	1.313
Mof_C 	C 	0.9129	0.2616	0.4089	-0.414
Mof_C 	C 	0.9902	0.378	0.389	0.704
Mof_F 	F 	0.0592	0.2289	0.374	0.021
Mof_F 	F 	0.0816	0.2755	0.283	-0.07
Mof_F 	F 	0.0501	0.2326	0.201	-0.135
Mof_H 	H 	0.0048	0.1935	0.4526	0.784
Mof_H 	H 	0.9254	0.267	0.397	0.811
Mof_C 	C 	0.0489	0.2544	0.294	-1.099
Mof_F 	F 	0.97	0.264	0.143	-0.111
Mof_C 	C 	0.946	0.2345	0.144	-0.714
Mof_F 	F 	0.912	0.249	0.165	-0.131
Mof_F 	F 	0.945	0.223	0.039	-0.21
Mof_F 	F 	0.4803	0.333	0.5534	-0.231
Mof_F 	F 	0.4518	0.2896	0.4638	-0.149
Mof_F 	F 	0.5027	0.2766	0.5477	-0.149
Mof_F 	F 	0.5867	0.27143	0.4667	-0.121
Mof_F 	F 	0.6097	0.248	0.3215	-0.143
Mof_F 	F 	0.6112	0.2161	0.4694	-0.125
Mof_O 	O 	0.55377	0.40944	0.1387	-0.69
Mof_O 	O 	0.5072	0.42578	0.2605	-0.74
Mof_O 	O 	0.53976	0.10562	0.4276	-0.677
Mof_O 	O 	0.4785	0.10529	0.3696	-0.738
Mof_O 	O 	0.5585	0.51047	0.9562	-1.249
Mof_O 	O 	0.51349	0.46537	0.859	-1.294
Mof_C 	C 	0.5316	0.4022	0.2161	0.668
Mof_C 	C 	0.53	0.3612	0.2563	-0.553
Mof_C 	C 	0.5115	0.3512	0.352	0.597
Mof_H 	H 	0.5007	0.3708	0.3969	-0.101
Mof_C 	C 	0.508	0.313	0.3857	-0.639
Mof_C 	C 	0.5237	0.285	0.3187	0.512
Mof_C 	C 	0.5423	0.2956	0.2223	-0.837
Mof_H 	H 	0.5534	0.2764	0.1765	1.059
Mof_C 	C 	0.5448	0.3335	0.1918	0.708
Mof_H 	H 	0.5572	0.3402	0.1243	-0.141
Mof_C 	C 	0.4875	0.3037	0.4853	-0.382
Mof_C 	C 	0.5202	0.2433	0.3405	0.501
Mof_C 	C 	0.5508	0.2214	0.3795	-0.617
Mof_C 	C 	0.5456	0.1823	0.3921	0.638
Mof_H 	H 	0.5667	0.1677	0.4182	-0.061
Mof_C 	C 	0.513	0.1633	0.3704	-0.55
Mof_C 	C 	0.4819	0.1839	0.3318	0.688
Mof_H 	H 	0.4583	0.1714	0.3175	-0.107
Mof_C 	C 	0.4857	0.2239	0.3136	-0.817
Mof_H 	H 	0.4648	0.2378	0.283	1.313
Mof_C 	C 	0.5871	0.2384	0.4089	-0.415
Mof_C 	C 	0.5098	0.122	0.389	0.703
Mof_F 	F 	0.4408	0.2711	0.374	0.021
Mof_F 	F 	0.4184	0.2245	0.283	-0.07
Mof_F 	F 	0.4499	0.2674	0.201	-0.135
Mof_H 	H 	0.4952	0.3065	0.4526	0.784
Mof_H 	H 	0.5746	0.233	0.397	0.811
Mof_C 	C 	0.4511	0.2456	0.294	-1.099
Mof_F 	F 	0.53	0.236	0.143	-0.111
Mof_C 	C 	0.554	0.2655	0.144	-0.713
Mof_F 	F 	0.588	0.251	0.165	-0.131
Mof_F 	F 	0.555	0.277	0.039	-0.21
Mof_F 	F 	0.833	0.9803	0.4466	-0.227
Mof_F 	F 	0.7896	0.9518	0.5362	-0.143
Mof_F 	F 	0.7766	0.0027	0.4523	-0.147
Mof_F 	F 	0.77143	0.0867	0.5333	-0.121
Mof_F 	F 	0.748	0.1097	0.6785	-0.125
Mof_F 	F 	0.7161	0.1112	0.5306	-0.123
Mof_O 	O 	0.90944	0.05377	0.8613	-0.622
Mof_O 	O 	0.92578	0.0072	0.7395	-0.725
Mof_O 	O 	0.60562	0.03976	0.5724	-0.669
Mof_O 	O 	0.60529	0.9785	0.6304	-0.719
Mof_O 	O 	0.01047	0.0585	0.0438	-1.385
Mof_O 	O 	0.96537	0.01349	0.141	-1.347
Mof_C 	C 	0.9022	0.0316	0.7839	0.653
Mof_C 	C 	0.8612	0.03	0.7437	-0.506
Mof_C 	C 	0.8512	0.0115	0.648	0.579
Mof_H 	H 	0.8708	0.0007	0.6031	-0.091
Mof_C 	C 	0.813	0.008	0.6143	-0.621
Mof_C 	C 	0.785	0.0237	0.6813	0.496
Mof_C 	C 	0.7956	0.0423	0.7777	-0.788
Mof_H 	H 	0.7764	0.0534	0.8235	1.05
Mof_C 	C 	0.8335	0.0448	0.8082	0.676
Mof_H 	H 	0.8402	0.0572	0.8757	-0.069
Mof_C 	C 	0.8037	0.9875	0.5147	-0.395
Mof_C 	C 	0.7433	0.0202	0.6595	0.499
Mof_C 	C 	0.7214	0.0508	0.6205	-0.609
Mof_C 	C 	0.6823	0.0456	0.6079	0.635
Mof_H 	H 	0.6677	0.0667	0.5818	-0.055
Mof_C 	C 	0.6633	0.013	0.6296	-0.534
Mof_C 	C 	0.6839	0.9819	0.6682	0.679
Mof_H 	H 	0.6714	0.9583	0.6825	-0.089
Mof_C 	C 	0.7239	0.9857	0.6864	-0.796
Mof_H 	H 	0.7378	0.9648	0.717	1.296
Mof_C 	C 	0.7384	0.0871	0.5911	-0.415
Mof_C 	C 	0.622	0.0098	0.611	0.703
Mof_F 	F 	0.7711	0.9408	0.626	0.026
Mof_F 	F 	0.7245	0.9184	0.717	-0.041
Mof_F 	F 	0.7674	0.9499	0.799	-0.088
Mof_H 	H 	0.8065	0.9952	0.5474	0.789
Mof_H 	H 	0.733	0.0746	0.603	0.81
Mof_C 	C 	0.7456	0.9511	0.706	-1.08
Mof_F 	F 	0.736	0.03	0.857	-0.08
Mof_C 	C 	0.7655	0.054	0.856	-0.717
Mof_F 	F 	0.751	0.088	0.835	-0.071
Mof_F 	F 	0.777	0.055	0.961	-0.065
Mof_F 	F 	0.667	0.5197	0.4466	-0.227
Mof_F 	F 	0.7104	0.5482	0.5362	-0.143
Mof_F 	F 	0.7234	0.4973	0.4523	-0.147
Mof_F 	F 	0.72857	0.4133	0.5333	-0.121
Mof_F 	F 	0.752	0.3903	0.6785	-0.125
Mof_F 	F 	0.7839	0.3888	0.5306	-0.123
Mof_O 	O 	0.59056	0.44623	0.8613	-0.621
Mof_O 	O 	0.57422	0.4928	0.7395	-0.726
Mof_O 	O 	0.89438	0.46024	0.5724	-0.669
Mof_O 	O 	0.89471	0.5215	0.6304	-0.72
Mof_O 	O 	0.48953	0.4415	0.0438	-1.386
Mof_O 	O 	0.53463	0.48651	0.141	-1.348
Mof_C 	C 	0.5978	0.4684	0.7839	0.653
Mof_C 	C 	0.6388	0.47	0.7437	-0.506
Mof_C 	C 	0.6488	0.4885	0.648	0.578
Mof_H 	H 	0.6292	0.4993	0.6031	-0.091
Mof_C 	C 	0.687	0.492	0.6143	-0.621
Mof_C 	C 	0.715	0.4763	0.6813	0.496
Mof_C 	C 	0.7044	0.4577	0.7777	-0.787
Mof_H 	H 	0.7236	0.4466	0.8235	1.05
Mof_C 	C 	0.6665	0.4552	0.8082	0.676
Mof_H 	H 	0.6598	0.4428	0.8757	-0.069
Mof_C 	C 	0.6963	0.5125	0.5147	-0.395
Mof_C 	C 	0.7567	0.4798	0.6595	0.499
Mof_C 	C 	0.7786	0.4492	0.6205	-0.609
Mof_C 	C 	0.8177	0.4544	0.6079	0.635
Mof_H 	H 	0.8323	0.4333	0.5818	-0.055
Mof_C 	C 	0.8367	0.487	0.6296	-0.533
Mof_C 	C 	0.8161	0.5181	0.6682	0.678
Mof_H 	H 	0.8286	0.5417	0.6825	-0.089
Mof_C 	C 	0.7761	0.5143	0.6864	-0.797
Mof_H 	H 	0.7622	0.5352	0.717	1.296
Mof_C 	C 	0.7616	0.4129	0.5911	-0.415
Mof_C 	C 	0.878	0.4902	0.611	0.703
Mof_F 	F 	0.7289	0.5592	0.626	0.026
Mof_F 	F 	0.7755	0.5816	0.717	-0.041
Mof_F 	F 	0.7326	0.5501	0.799	-0.088
Mof_H 	H 	0.6935	0.5048	0.5474	0.789
Mof_H 	H 	0.767	0.4254	0.603	0.81
Mof_C 	C 	0.7544	0.5489	0.706	-1.079
Mof_F 	F 	0.764	0.47	0.857	-0.079
Mof_C 	C 	0.7345	0.446	0.856	-0.717
Mof_F 	F 	0.749	0.412	0.835	-0.071
Mof_F 	F 	0.723	0.445	0.961	-0.065
Mof_F 	F 	0.9803	0.667	0.9466	-0.177
Mof_F 	F 	0.9518	0.7104	0.0362	-0.218
Mof_F 	F 	0.0027	0.7234	0.9523	-0.102
Mof_F 	F 	0.0867	0.72857	0.0333	-0.176
Mof_F 	F 	0.1097	0.752	0.1785	-0.147
Mof_F 	F 	0.1112	0.7839	0.0306	-0.177
Mof_O 	O 	0.05377	0.59056	0.3613	-0.659
Mof_O 	O 	0.0072	0.57422	0.2395	-0.747
Mof_O 	O 	0.03976	0.89438	0.0724	-0.721
Mof_O 	O 	0.9785	0.89471	0.1304	-0.762
Mof_O 	O 	0.0585	0.48953	0.5438	-1.319
Mof_O 	O 	0.01349	0.53463	0.641	-1.314
Mof_C 	C 	0.0316	0.5978	0.2839	0.642
Mof_C 	C 	0.03	0.6388	0.2437	-0.492
Mof_C 	C 	0.0115	0.6488	0.148	0.493
Mof_H 	H 	0.0007	0.6292	0.1031	-0.095
Mof_C 	C 	0.008	0.687	0.1143	-0.496
Mof_C 	C 	0.0237	0.715	0.1813	0.429
Mof_C 	C 	0.0423	0.7044	0.2777	-0.779
Mof_H 	H 	0.0534	0.7236	0.3235	1.07
Mof_C 	C 	0.0448	0.6665	0.3082	0.649
Mof_H 	H 	0.0572	0.6598	0.3757	-0.094
Mof_C 	C 	0.9875	0.6963	0.0147	-0.23
Mof_C 	C 	0.0202	0.7567	0.1595	0.519
Mof_C 	C 	0.0508	0.7786	0.1205	-0.662
Mof_C 	C 	0.0456	0.8177	0.1079	0.643
Mof_H 	H 	0.0667	0.8323	0.0818	-0.087
Mof_C 	C 	0.013	0.8367	0.1296	-0.572
Mof_C 	C 	0.9819	0.8161	0.1682	0.684
Mof_H 	H 	0.9583	0.8286	0.1825	-0.109
Mof_C 	C 	0.9857	0.7761	0.1864	-0.82
Mof_H 	H 	0.9648	0.7622	0.217	1.277
Mof_C 	C 	0.0871	0.7616	0.0911	-0.397
Mof_C 	C 	0.0098	0.878	0.111	0.706
Mof_F 	F 	0.9408	0.7289	0.126	0.005
Mof_F 	F 	0.9184	0.7755	0.217	-0.078
Mof_F 	F 	0.9499	0.7326	0.299	-0.12
Mof_H 	H 	0.9952	0.6935	0.0474	0.567
Mof_H 	H 	0.0746	0.767	0.103	0.801
Mof_C 	C 	0.9511	0.7544	0.206	-1.047
Mof_F 	F 	0.03	0.764	0.357	-0.086
Mof_C 	C 	0.054	0.7345	0.356	-0.753
Mof_F 	F 	0.088	0.749	0.335	-0.097
Mof_F 	F 	0.055	0.723	0.461	-0.133
Mof_F 	F 	0.5197	0.833	0.9466	-0.178
Mof_F 	F 	0.5482	0.7896	0.0362	-0.218
Mof_F 	F 	0.4973	0.7766	0.9523	-0.102
Mof_F 	F 	0.4133	0.77143	0.0333	-0.176
Mof_F 	F 	0.3903	0.748	0.1785	-0.147
Mof_F 	F 	0.3888	0.7161	0.0306	-0.178
Mof_O 	O 	0.44623	0.90944	0.3613	-0.659
Mof_O 	O 	0.4928	0.92578	0.2395	-0.748
Mof_O 	O 	0.46024	0.60562	0.0724	-0.721
Mof_O 	O 	0.5215	0.60529	0.1304	-0.761
Mof_O 	O 	0.4415	0.01047	0.5438	-1.319
Mof_O 	O 	0.48651	0.96537	0.641	-1.314
Mof_C 	C 	0.4684	0.9022	0.2839	0.642
Mof_C 	C 	0.47	0.8612	0.2437	-0.492
Mof_C 	C 	0.4885	0.8512	0.148	0.493
Mof_H 	H 	0.4993	0.8708	0.1031	-0.095
Mof_C 	C 	0.492	0.813	0.1143	-0.497
Mof_C 	C 	0.4763	0.785	0.1813	0.429
Mof_C 	C 	0.4577	0.7956	0.2777	-0.779
Mof_H 	H 	0.4466	0.7764	0.3235	1.07
Mof_C 	C 	0.4552	0.8335	0.3082	0.649
Mof_H 	H 	0.4428	0.8402	0.3757	-0.094
Mof_C 	C 	0.5125	0.8037	0.0147	-0.229
Mof_C 	C 	0.4798	0.7433	0.1595	0.518
Mof_C 	C 	0.4492	0.7214	0.1205	-0.662
Mof_C 	C 	0.4544	0.6823	0.1079	0.643
Mof_H 	H 	0.4333	0.6677	0.0818	-0.087
Mof_C 	C 	0.487	0.6633	0.1296	-0.572
Mof_C 	C 	0.5181	0.6839	0.1682	0.684
Mof_H 	H 	0.5417	0.6714	0.1825	-0.109
Mof_C 	C 	0.5143	0.7239	0.1864	-0.82
Mof_H 	H 	0.5352	0.7378	0.217	1.277
Mof_C 	C 	0.4129	0.7384	0.0911	-0.397
Mof_C 	C 	0.4902	0.622	0.111	0.706
Mof_F 	F 	0.5592	0.7711	0.126	0.005
Mof_F 	F 	0.5816	0.7245	0.217	-0.078
Mof_F 	F 	0.5501	0.7674	0.299	-0.12
Mof_H 	H 	0.5048	0.8065	0.0474	0.567
Mof_H 	H 	0.4254	0.733	0.103	0.801
Mof_C 	C 	0.5489	0.7456	0.206	-1.046
Mof_F 	F 	0.47	0.736	0.357	-0.086
Mof_C 	C 	0.446	0.7655	0.356	-0.753
Mof_F 	F 	0.412	0.751	0.335	-0.097
Mof_F 	F 	0.445	0.777	0.461	-0.133
Mof_F 	F 	0.833	0.5197	0.9466	-0.178
Mof_F 	F 	0.7896	0.5482	0.0362	-0.218
Mof_F 	F 	0.7766	0.4973	0.9523	-0.102
Mof_F 	F 	0.77143	0.4133	0.0333	-0.176
Mof_F 	F 	0.748	0.3903	0.1785	-0.147
Mof_F 	F 	0.7161	0.3888	0.0306	-0.178
Mof_O 	O 	0.90944	0.44623	0.3613	-0.659
Mof_O 	O 	0.92578	0.4928	0.2395	-0.748
Mof_O 	O 	0.60562	0.46024	0.0724	-0.721
Mof_O 	O 	0.60529	0.5215	0.1304	-0.761
Mof_O 	O 	0.01047	0.4415	0.5438	-1.319
Mof_O 	O 	0.96537	0.48651	0.641	-1.314
Mof_C 	C 	0.9022	0.4684	0.2839	0.642
Mof_C 	C 	0.8612	0.47	0.2437	-0.492
Mof_C 	C 	0.8512	0.4885	0.148	0.493
Mof_H 	H 	0.8708	0.4993	0.1031	-0.095
Mof_C 	C 	0.813	0.492	0.1143	-0.497
Mof_C 	C 	0.785	0.4763	0.1813	0.429
Mof_C 	C 	0.7956	0.4577	0.2777	-0.779
Mof_H 	H 	0.7764	0.4466	0.3235	1.07
Mof_C 	C 	0.8335	0.4552	0.3082	0.649
Mof_H 	H 	0.8402	0.4428	0.3757	-0.094
Mof_C 	C 	0.8037	0.5125	0.0147	-0.229
Mof_C 	C 	0.7433	0.4798	0.1595	0.518
Mof_C 	C 	0.7214	0.4492	0.1205	-0.662
Mof_C 	C 	0.6823	0.4544	0.1079	0.643
Mof_H 	H 	0.6677	0.4333	0.0818	-0.087
Mof_C 	C 	0.6633	0.487	0.1296	-0.572
Mof_C 	C 	0.6839	0.5181	0.1682	0.684
Mof_H 	H 	0.6714	0.5417	0.1825	-0.109
Mof_C 	C 	0.7239	0.5143	0.1864	-0.82
Mof_H 	H 	0.7378	0.5352	0.217	1.277
Mof_C 	C 	0.7384	0.4129	0.0911	-0.397
Mof_C 	C 	0.622	0.4902	0.111	0.706
Mof_F 	F 	0.7711	0.5592	0.126	0.005
Mof_F 	F 	0.7245	0.5816	0.217	-0.078
Mof_F 	F 	0.7674	0.5501	0.299	-0.12
Mof_H 	H 	0.8065	0.5048	0.0474	0.567
Mof_H 	H 	0.733	0.4254	0.103	0.801
Mof_C 	C 	0.7456	0.5489	0.206	-1.046
Mof_F 	F 	0.736	0.47	0.357	-0.086
Mof_C 	C 	0.7655	0.446	0.356	-0.753
Mof_F 	F 	0.751	0.412	0.335	-0.097
Mof_F 	F 	0.777	0.445	0.461	-0.133
Mof_F 	F 	0.667	0.9803	0.9466	-0.177
Mof_F 	F 	0.7104	0.9518	0.0362	-0.218
Mof_F 	F 	0.7234	0.0027	0.9523	-0.102
Mof_F 	F 	0.72857	0.0867	0.0333	-0.176
Mof_F 	F 	0.752	0.1097	0.1785	-0.147
Mof_F 	F 	0.7839	0.1112	0.0306	-0.177
Mof_O 	O 	0.59056	0.05377	0.3613	-0.659
Mof_O 	O 	0.57422	0.0072	0.2395	-0.747
Mof_O 	O 	0.89438	0.03976	0.0724	-0.721
Mof_O 	O 	0.89471	0.9785	0.1304	-0.762
Mof_O 	O 	0.48953	0.0585	0.5438	-1.319
Mof_O 	O 	0.53463	0.01349	0.641	-1.314
Mof_C 	C 	0.5978	0.0316	0.2839	0.642
Mof_C 	C 	0.6388	0.03	0.2437	-0.492
Mof_C 	C 	0.6488	0.0115	0.148	0.493
Mof_H 	H 	0.6292	0.0007	0.1031	-0.095
Mof_C 	C 	0.687	0.008	0.1143	-0.496
Mof_C 	C 	0.715	0.0237	0.1813	0.429
Mof_C 	C 	0.7044	0.0423	0.2777	-0.779
Mof_H 	H 	0.7236	0.0534	0.3235	1.07
Mof_C 	C 	0.6665	0.0448	0.3082	0.649
Mof_H 	H 	0.6598	0.0572	0.3757	-0.094
Mof_C 	C 	0.6963	0.9875	0.0147	-0.23
Mof_C 	C 	0.7567	0.0202	0.1595	0.519
Mof_C 	C 	0.7786	0.0508	0.1205	-0.662
Mof_C 	C 	0.8177	0.0456	0.1079	0.643
Mof_H 	H 	0.8323	0.0667	0.0818	-0.087
Mof_C 	C 	0.8367	0.013	0.1296	-0.572
Mof_C 	C 	0.8161	0.9819	0.1682	0.684
Mof_H 	H 	0.8286	0.9583	0.1825	-0.109
Mof_C 	C 	0.7761	0.9857	0.1864	-0.82
Mof_H 	H 	0.7622	0.9648	0.217	1.277
Mof_C 	C 	0.7616	0.0871	0.0911	-0.397
Mof_C 	C 	0.878	0.0098	0.111	0.706
Mof_F 	F 	0.7289	0.9408	0.126	0.005
Mof_F 	F 	0.7755	0.9184	0.217	-0.078
Mof_F 	F 	0.7326	0.9499	0.299	-0.12
Mof_H 	H 	0.6935	0.9952	0.0474	0.567
Mof_H 	H 	0.767	0.0746	0.103	0.801
Mof_C 	C 	0.7544	0.9511	0.206	-1.047
Mof_F 	F 	0.764	0.03	0.357	-0.086
Mof_C 	C 	0.7345	0.054	0.356	-0.753
Mof_F 	F 	0.749	0.088	0.335	-0.097
Mof_F 	F 	0.723	0.055	0.461	-0.133
Mof_F 	F 	0.9803	0.833	0.4466	-0.227
Mof_F 	F 	0.9518	0.7896	0.5362	-0.143
Mof_F 	F 	0.0027	0.7766	0.4523	-0.147
Mof_F 	F 	0.0867	0.77143	0.5333	-0.121
Mof_F 	F 	0.1097	0.748	0.6785	-0.125
Mof_F 	F 	0.1112	0.7161	0.5306	-0.123
Mof_O 	O 	0.05377	0.90944	0.8613	-0.622
Mof_O 	O 	0.0072	0.92578	0.7395	-0.725
Mof_O 	O 	0.03976	0.60562	0.5724	-0.669
Mof_O 	O 	0.9785	0.60529	0.6304	-0.719
Mof_O 	O 	0.0585	0.01047	0.0438	-1.385
Mof_O 	O 	0.01349	0.96537	0.141	-1.347
Mof_C 	C 	0.0316	0.9022	0.7839	0.653
Mof_C 	C 	0.03	0.8612	0.7437	-0.506
Mof_C 	C 	0.0115	0.8512	0.648	0.579
Mof_H 	H 	0.0007	0.8708	0.6031	-0.091
Mof_C 	C 	0.008	0.813	0.6143	-0.621
Mof_C 	C 	0.0237	0.785	0.6813	0.496
Mof_C 	C 	0.0423	0.7956	0.7777	-0.788
Mof_H 	H 	0.0534	0.7764	0.8235	1.05
Mof_C 	C 	0.0448	0.8335	0.8082	0.676
Mof_H 	H 	0.0572	0.8402	0.8757	-0.069
Mof_C 	C 	0.9875	0.8037	0.5147	-0.395
Mof_C 	C 	0.0202	0.7433	0.6595	0.499
Mof_C 	C 	0.0508	0.7214	0.6205	-0.609
Mof_C 	C 	0.0456	0.6823	0.6079	0.635
Mof_H 	H 	0.0667	0.6677	0.5818	-0.055
Mof_C 	C 	0.013	0.6633	0.6296	-0.534
Mof_C 	C 	0.9819	0.6839	0.6682	0.679
Mof_H 	H 	0.9583	0.6714	0.6825	-0.089
Mof_C 	C 	0.9857	0.7239	0.6864	-0.796
Mof_H 	H 	0.9648	0.7378	0.717	1.296
Mof_C 	C 	0.0871	0.7384	0.5911	-0.415
Mof_C 	C 	0.0098	0.622	0.611	0.703
Mof_F 	F 	0.9408	0.7711	0.626	0.026
Mof_F 	F 	0.9184	0.7245	0.717	-0.041
Mof_F 	F 	0.9499	0.7674	0.799	-0.088
Mof_H 	H 	0.9952	0.8065	0.5474	0.789
Mof_H 	H 	0.0746	0.733	0.603	0.81
Mof_C 	C 	0.9511	0.7456	0.706	-1.08
Mof_F 	F 	0.03	0.736	0.857	-0.08
Mof_C 	C 	0.054	0.7655	0.856	-0.717
Mof_F 	F 	0.088	0.751	0.835	-0.071
Mof_F 	F 	0.055	0.777	0.961	-0.065
Mof_F 	F 	0.5197	0.667	0.4466	-0.227
Mof_F 	F 	0.5482	0.7104	0.5362	-0.143
Mof_F 	F 	0.4973	0.7234	0.4523	-0.147
Mof_F 	F 	0.4133	0.72857	0.5333	-0.121
Mof_F 	F 	0.3903	0.752	0.6785	-0.125
Mof_F 	F 	0.3888	0.7839	0.5306	-0.123
Mof_O 	O 	0.44623	0.59056	0.8613	-0.621
Mof_O 	O 	0.4928	0.57422	0.7395	-0.726
Mof_O 	O 	0.46024	0.89438	0.5724	-0.669
Mof_O 	O 	0.5215	0.89471	0.6304	-0.72
Mof_O 	O 	0.4415	0.48953	0.0438	-1.386
Mof_O 	O 	0.48651	0.53463	0.141	-1.348
Mof_C 	C 	0.4684	0.5978	0.7839	0.653
Mof_C 	C 	0.47	0.6388	0.7437	-0.506
Mof_C 	C 	0.4885	0.6488	0.648	0.578
Mof_H 	H 	0.4993	0.6292	0.6031	-0.091
Mof_C 	C 	0.492	0.687	0.6143	-0.621
Mof_C 	C 	0.4763	0.715	0.6813	0.496
Mof_C 	C 	0.4577	0.7044	0.7777	-0.787
Mof_H 	H 	0.4466	0.7236	0.8235	1.05
Mof_C 	C 	0.4552	0.6665	0.8082	0.676
Mof_H 	H 	0.4428	0.6598	0.8757	-0.069
Mof_C 	C 	0.5125	0.6963	0.5147	-0.395
Mof_C 	C 	0.4798	0.7567	0.6595	0.499
Mof_C 	C 	0.4492	0.7786	0.6205	-0.609
Mof_C 	C 	0.4544	0.8177	0.6079	0.635
Mof_H 	H 	0.4333	0.8323	0.5818	-0.055
Mof_C 	C 	0.487	0.8367	0.6296	-0.533
Mof_C 	C 	0.5181	0.8161	0.6682	0.678
Mof_H 	H 	0.5417	0.8286	0.6825	-0.089
Mof_C 	C 	0.5143	0.7761	0.6864	-0.797
Mof_H 	H 	0.5352	0.7622	0.717	1.296
Mof_C 	C 	0.4129	0.7616	0.5911	-0.415
Mof_C 	C 	0.4902	0.878	0.611	0.703
Mof_F 	F 	0.5592	0.7289	0.626	0.026
Mof_F 	F 	0.5816	0.7755	0.717	-0.041
Mof_F 	F 	0.5501	0.7326	0.799	-0.088
Mof_H 	H 	0.5048	0.6935	0.5474	0.789
Mof_H 	H 	0.4254	0.767	0.603	0.81
Mof_C 	C 	0.5489	0.7544	0.706	-1.079
Mof_F 	F 	0.47	0.764	0.857	-0.079
Mof_C 	C 	0.446	0.7345	0.856	-0.717
Mof_F 	F 	0.412	0.749	0.835	-0.071
Mof_F 	F 	0.445	0.723	0.961	-0.065
Mof_F 	F 	0.167	0.0197	0.5534	-0.231
Mof_F 	F 	0.2104	0.0482	0.4638	-0.149
Mof_F 	F 	0.2234	0.9973	0.5477	-0.148
Mof_F 	F 	0.22857	0.9133	0.4667	-0.121
Mof_F 	F 	0.252	0.8903	0.3215	-0.143
Mof_F 	F 	0.2839	0.8888	0.4694	-0.125
Mof_O 	O 	0.09056	0.94623	0.1387	-0.69
Mof_O 	O 	0.07422	0.9928	0.2605	-0.739
Mof_O 	O 	0.39438	0.96024	0.4276	-0.677
Mof_O 	O 	0.39471	0.0215	0.3696	-0.739
Mof_O 	O 	0.98953	0.9415	0.9562	-1.249
Mof_O 	O 	0.03463	0.98651	0.859	-1.293
Mof_C 	C 	0.0978	0.9684	0.2161	0.668
Mof_C 	C 	0.1388	0.97	0.2563	-0.552
Mof_C 	C 	0.1488	0.9885	0.352	0.596
Mof_H 	H 	0.1292	0.9993	0.3969	-0.1
Mof_C 	C 	0.187	0.992	0.3857	-0.637
Mof_C 	C 	0.215	0.9763	0.3187	0.511
Mof_C 	C 	0.2044	0.9577	0.2223	-0.836
Mof_H 	H 	0.2236	0.9466	0.1765	1.059
Mof_C 	C 	0.1665	0.9552	0.1918	0.708
Mof_H 	H 	0.1598	0.9428	0.1243	-0.141
Mof_C 	C 	0.1963	0.0125	0.4853	-0.383
Mof_C 	C 	0.2567	0.9798	0.3405	0.502
Mof_C 	C 	0.2786	0.9492	0.3795	-0.617
Mof_C 	C 	0.3177	0.9544	0.3921	0.638
Mof_H 	H 	0.3323	0.9333	0.4182	-0.061
Mof_C 	C 	0.3367	0.987	0.3704	-0.549
Mof_C 	C 	0.3161	0.0181	0.3318	0.687
Mof_H 	H 	0.3286	0.0417	0.3175	-0.106
Mof_C 	C 	0.2761	0.0143	0.3136	-0.818
Mof_H 	H 	0.2622	0.0352	0.283	1.313
Mof_C 	C 	0.2616	0.9129	0.4089	-0.414
Mof_C 	C 	0.378	0.9902	0.389	0.704
Mof_F 	F 	0.2289	0.0592	0.374	0.021
Mof_F 	F 	0.2755	0.0816	0.283	-0.07
Mof_F 	F 	0.2326	0.0501	0.201	-0.135
Mof_H 	H 	0.1935	0.0048	0.4526	0.784
Mof_H 	H 	0.267	0.9254	0.397	0.811
Mof_C 	C 	0.2544	0.0489	0.294	-1.099
Mof_F 	F 	0.264	0.97	0.143	-0.111
Mof_C 	C 	0.2345	0.946	0.144	-0.714
Mof_F 	F 	0.249	0.912	0.165	-0.131
Mof_F 	F 	0.223	0.945	0.039	-0.21
Mof_F 	F 	0.333	0.4803	0.5534	-0.231
Mof_F 	F 	0.2896	0.4518	0.4638	-0.149
Mof_F 	F 	0.2766	0.5027	0.5477	-0.149
Mof_F 	F 	0.27143	0.5867	0.4667	-0.121
Mof_F 	F 	0.248	0.6097	0.3215	-0.143
Mof_F 	F 	0.2161	0.6112	0.4694	-0.125
Mof_O 	O 	0.40944	0.55377	0.1387	-0.69
Mof_O 	O 	0.42578	0.5072	0.2605	-0.74
Mof_O 	O 	0.10562	0.53976	0.4276	-0.677
Mof_O 	O 	0.10529	0.4785	0.3696	-0.738
Mof_O 	O 	0.51047	0.5585	0.9562	-1.249
Mof_O 	O 	0.46537	0.51349	0.859	-1.294
Mof_C 	C 	0.4022	0.5316	0.2161	0.668
Mof_C 	C 	0.3612	0.53	0.2563	-0.553
Mof_C 	C 	0.3512	0.5115	0.352	0.597
Mof_H 	H 	0.3708	0.5007	0.3969	-0.101
Mof_C 	C 	0.313	0.508	0.3857	-0.639
Mof_C 	C 	0.285	0.5237	0.3187	0.512
Mof_C 	C 	0.2956	0.5423	0.2223	-0.837
Mof_H 	H 	0.2764	0.5534	0.1765	1.059
Mof_C 	C 	0.3335	0.5448	0.1918	0.708
Mof_H 	H 	0.3402	0.5572	0.1243	-0.141
Mof_C 	C 	0.3037	0.4875	0.4853	-0.382
Mof_C 	C 	0.2433	0.5202	0.3405	0.501
Mof_C 	C 	0.2214	0.5508	0.3795	-0.617
Mof_C 	C 	0.1823	0.5456	0.3921	0.638
Mof_H 	H 	0.1677	0.5667	0.4182	-0.061
Mof_C 	C 	0.1633	0.513	0.3704	-0.55
Mof_C 	C 	0.1839	0.4819	0.3318	0.688
Mof_H 	H 	0.1714	0.4583	0.3175	-0.107
Mof_C 	C 	0.2239	0.4857	0.3136	-0.817
Mof_H 	H 	0.2378	0.4648	0.283	1.313
Mof_C 	C 	0.2384	0.5871	0.4089	-0.415
Mof_C 	C 	0.122	0.5098	0.389	0.703
Mof_F 	F 	0.2711	0.4408	0.374	0.021
Mof_F 	F 	0.2245	0.4184	0.283	-0.07
Mof_F 	F 	0.2674	0.4499	0.201	-0.135
Mof_H 	H 	0.3065	0.4952	0.4526	0.784
Mof_H 	H 	0.233	0.5746	0.397	0.811
Mof_C 	C 	0.2456	0.4511	0.294	-1.099
Mof_F 	F 	0.236	0.53	0.143	-0.111
Mof_C 	C 	0.2655	0.554	0.144	-0.713
Mof_F 	F 	0.251	0.588	0.165	-0.131
Mof_F 	F 	0.277	0.555	0.039	-0.21
Mof_F 	F 	0.0197	0.333	0.0534	-0.278
Mof_F 	F 	0.0482	0.2896	0.9638	-0.078
Mof_F 	F 	0.9973	0.2766	0.0477	-0.192
Mof_F 	F 	0.9133	0.27143	0.9667	-0.067
Mof_F 	F 	0.8903	0.248	0.8215	-0.121
Mof_F 	F 	0.8888	0.2161	0.9694	-0.07
Mof_O 	O 	0.94623	0.40944	0.6387	-0.657
Mof_O 	O 	0.9928	0.42578	0.7605	-0.718
Mof_O 	O 	0.96024	0.10562	0.9276	-0.621
Mof_O 	O 	0.0215	0.10529	0.8696	-0.699
Mof_O 	O 	0.9415	0.51047	0.4562	-1.321
Mof_O 	O 	0.98651	0.46537	0.359	-1.331
Mof_C 	C 	0.9684	0.4022	0.7161	0.679
Mof_C 	C 	0.97	0.3612	0.7563	-0.565
Mof_C 	C 	0.9885	0.3512	0.852	0.678
Mof_H 	H 	0.9993	0.3708	0.8969	-0.095
Mof_C 	C 	0.992	0.313	0.8857	-0.755
Mof_C 	C 	0.9763	0.285	0.8187	0.575
Mof_C 	C 	0.9577	0.2956	0.7223	-0.844
Mof_H 	H 	0.9466	0.2764	0.6765	1.04
Mof_C 	C 	0.9552	0.3335	0.6918	0.733
Mof_H 	H 	0.9428	0.3402	0.6243	-0.116
Mof_C 	C 	0.0125	0.3037	0.9853	-0.544
Mof_C 	C 	0.9798	0.2433	0.8405	0.484
Mof_C 	C 	0.9492	0.2214	0.8795	-0.565
Mof_C 	C 	0.9544	0.1823	0.8921	0.629
Mof_H 	H 	0.9333	0.1677	0.9182	-0.029
Mof_C 	C 	0.987	0.1633	0.8704	-0.509
Mof_C 	C 	0.0181	0.1839	0.8318	0.681
Mof_H 	H 	0.0417	0.1714	0.8175	-0.087
Mof_C 	C 	0.0143	0.2239	0.8136	-0.796
Mof_H 	H 	0.0352	0.2378	0.783	1.331
Mof_C 	C 	0.9129	0.2384	0.9089	-0.432
Mof_C 	C 	0.9902	0.122	0.889	0.701
Mof_F 	F 	0.0592	0.2711	0.874	0.041
Mof_F 	F 	0.0816	0.2245	0.783	-0.036
Mof_F 	F 	0.0501	0.2674	0.701	-0.105
Mof_H 	H 	0.0048	0.3065	0.9526	0.998
Mof_H 	H 	0.9254	0.233	0.897	0.82
Mof_C 	C 	0.0489	0.2456	0.794	-1.13
Mof_F 	F 	0.97	0.236	0.643	-0.103
Mof_C 	C 	0.946	0.2655	0.644	-0.679
Mof_F 	F 	0.912	0.251	0.665	-0.105
Mof_F 	F 	0.945	0.277	0.539	-0.144
Mof_F 	F 	0.4803	0.167	0.0534	-0.279
Mof_F 	F 	0.4518	0.2104	0.9638	-0.078
Mof_F 	F 	0.5027	0.2234	0.0477	-0.192
Mof_F 	F 	0.5867	0.22857	0.9667	-0.067
Mof_F 	F 	0.6097	0.252	0.8215	-0.121
Mof_F 	F 	0.6112	0.2839	0.9694	-0.07
Mof_O 	O 	0.55377	0.09056	0.6387	-0.657
Mof_O 	O 	0.5072	0.07422	0.7605	-0.719
Mof_O 	O 	0.53976	0.39438	0.9276	-0.62
Mof_O 	O 	0.4785	0.39471	0.8696	-0.697
Mof_O 	O 	0.5585	0.98953	0.4562	-1.321
Mof_O 	O 	0.51349	0.03463	0.359	-1.331
Mof_C 	C 	0.5316	0.0978	0.7161	0.68
Mof_C 	C 	0.53	0.1388	0.7563	-0.566
Mof_C 	C 	0.5115	0.1488	0.852	0.68
Mof_H 	H 	0.5007	0.1292	0.8969	-0.097
Mof_C 	C 	0.508	0.187	0.8857	-0.759
Mof_C 	C 	0.5237	0.215	0.8187	0.576
Mof_C 	C 	0.5423	0.2044	0.7223	-0.844
Mof_H 	H 	0.5534	0.2236	0.6765	1.04
Mof_C 	C 	0.5448	0.1665	0.6918	0.733
Mof_H 	H 	0.5572	0.1598	0.6243	-0.116
Mof_C 	C 	0.4875	0.1963	0.9853	-0.542
Mof_C 	C 	0.5202	0.2567	0.8405	0.483
Mof_C 	C 	0.5508	0.2786	0.8795	-0.565
Mof_C 	C 	0.5456	0.3177	0.8921	0.629
Mof_H 	H 	0.5667	0.3323	0.9182	-0.029
Mof_C 	C 	0.513	0.3367	0.8704	-0.511
Mof_C 	C 	0.4819	0.3161	0.8318	0.682
Mof_H 	H 	0.4583	0.3286	0.8175	-0.087
Mof_C 	C 	0.4857	0.2761	0.8136	-0.795
Mof_H 	H 	0.4648	0.2622	0.783	1.332
Mof_C 	C 	0.5871	0.2616	0.9089	-0.432
Mof_C 	C 	0.5098	0.378	0.889	0.699
Mof_F 	F 	0.4408	0.2289	0.874	0.041
Mof_F 	F 	0.4184	0.2755	0.783	-0.036
Mof_F 	F 	0.4499	0.2326	0.701	-0.104
Mof_H 	H 	0.4952	0.1935	0.9526	0.999
Mof_H 	H 	0.5746	0.267	0.897	0.82
Mof_C 	C 	0.4511	0.2544	0.794	-1.132
Mof_F 	F 	0.53	0.264	0.643	-0.104
Mof_C 	C 	0.554	0.2345	0.644	-0.678
Mof_F 	F 	0.588	0.249	0.665	-0.105
Mof_F 	F 	0.555	0.223	0.539	-0.144
Mof_Zr	Zr	0.04973	0.54973	0.5	3.214
Mof_Zr	Zr	0.45027	0.95027	0.5	3.214
Mof_Zr	Zr	0.95027	0.04973	-0	3.197
Mof_Zr	Zr	0.54973	0.45027	-0	3.197
Mof_Zr	Zr	0.95027	0.45027	0.5	3.214
Mof_Zr	Zr	0.54973	0.04973	0.5	3.214
Mof_Zr	Zr	0.04973	0.95027	-0	3.197
Mof_Zr	Zr	0.45027	0.54973	-0	3.197
Mof_Zr	Zr	0.0451	0.4549	0.40498	3.182
Mof_Zr	Zr	0.02315	0.47685	0.68417	3.185
Mof_Zr	Zr	0.4549	0.0451	0.40498	3.182
Mof_Zr	Zr	0.47685	0.02315	0.68417	3.185
Mof_Zr	Zr	0.0451	0.0451	0.90498	3.193
Mof_Zr	Zr	0.02315	0.02315	0.18417	3.183
Mof_Zr	Zr	0.4549	0.4549	0.90498	3.193
Mof_Zr	Zr	0.47685	0.47685	0.18417	3.183
Mof_Zr	Zr	0.9549	0.9549	0.09502	3.172
Mof_Zr	Zr	0.97685	0.97685	0.81583	3.183
Mof_Zr	Zr	0.5451	0.5451	0.09502	3.172
Mof_Zr	Zr	0.52315	0.52315	0.81583	3.183
Mof_Zr	Zr	0.9549	0.5451	0.59502	3.184
Mof_Zr	Zr	0.97685	0.52315	0.31583	3.182
Mof_Zr	Zr	0.5451	0.9549	0.59502	3.184
Mof_Zr	Zr	0.52315	0.97685	0.31583	3.182
_end
