data_functionalizedCrystal
_audit_creation_method	'EQeq! by Chris Wilmer'
_symmetry_space_group_name_H-M	'P1'
_symmetry_Int_Tables_number	1
_symmetry_cell_setting	triclinic
loop_
_symmetry_equiv_pos_as_xyz
  x,y,z
_cell_length_a	12.3245
_cell_length_b	12.3245
_cell_length_c	5.961
_cell_angle_alpha	90
_cell_angle_beta	90
_cell_angle_gamma	90
loop_
_atom_site_label
_atom_site_type_symbol
_atom_site_fract_x
_atom_site_fract_y
_atom_site_fract_z
_atom_site_charge
Mof_Cu	Cu	0.65916	0.12645	0.45449	0.825
Mof_Cu	Cu	0.86395	0.02542	0.58787	1.519
Mof_S 	S 	0.86909	0.02343	0.2087	-5.544
Mof_N 	N 	0.7545	0.0531	0.8327	-0.216
Mof_C 	C 	0.7558	0.056	0.0565	1.554
Mof_N 	N 	0.2824	0.2546	0.9577	-0.214
Mof_N 	N 	0.6543	0.0939	0.7656	-0.252
Mof_N 	N 	0.6591	0.0934	0.1385	-0.478
Mof_C 	C 	0.5995	0.115	0.952	0.063
Mof_C 	C 	0.4891	0.1603	0.9556	-0.136
Mof_C 	C 	0.4242	0.153	0.777	-0.082
Mof_H 	H 	0.4481	0.1172	0.6487	0.008
Mof_C 	C 	0.3183	0.1999	0.7811	-0.093
Mof_H 	H 	0.2733	0.192	0.6569	0.09
Mof_C 	C 	0.3444	0.2588	0.138	-0.199
Mof_H 	H 	0.3177	0.294	0.2648	0.082
Mof_C 	C 	0.4229	0.1555	0.1396	0.318
Mof_H 	H 	0.4448	0.1187	0.268	-0.107
Mof_C 	C 	0.4485	0.2133	0.767	0.073
Mof_C 	C 	0.3468	0.2592	0.773	0.056
Mof_C 	C 	0.3257	0.2047	0.132	0.258
Mof_C 	C 	0.4503	0.212	0.149	-0.274
Mof_Cu	Cu	0.8631	0.024	0.3352	3.76
Mof_H 	H 	0.4902	0.2177	0.6376	-0.042
Mof_H 	H 	0.3213	0.2948	0.6463	-0.008
Mof_H 	H 	0.2847	0.2035	0.2627	-0.02
Mof_H 	H 	0.4917	0.2156	0.2796	0.08
Mof_S 	S 	0.8708	0.0225	0.716	-1.037
Mof_Cu	Cu	0.34084	0.87355	0.45449	0.824
Mof_Cu	Cu	0.13605	0.97458	0.58787	1.518
Mof_S 	S 	0.13091	0.97657	0.2087	-5.545
Mof_N 	N 	0.2455	0.9469	0.8327	-0.217
Mof_C 	C 	0.2442	0.944	0.0565	1.553
Mof_N 	N 	0.7176	0.7454	0.9577	-0.215
Mof_N 	N 	0.3457	0.9061	0.7656	-0.252
Mof_N 	N 	0.3409	0.9066	0.1385	-0.478
Mof_C 	C 	0.4005	0.885	0.952	0.063
Mof_C 	C 	0.5109	0.8397	0.9556	-0.136
Mof_C 	C 	0.5758	0.847	0.777	-0.082
Mof_H 	H 	0.5519	0.8828	0.6487	0.008
Mof_C 	C 	0.6817	0.8001	0.7811	-0.093
Mof_H 	H 	0.7267	0.808	0.6569	0.09
Mof_C 	C 	0.6556	0.7412	0.138	-0.199
Mof_H 	H 	0.6823	0.706	0.2648	0.082
Mof_C 	C 	0.5771	0.8445	0.1396	0.318
Mof_H 	H 	0.5552	0.8813	0.268	-0.107
Mof_C 	C 	0.5515	0.7867	0.767	0.073
Mof_C 	C 	0.6532	0.7408	0.773	0.056
Mof_C 	C 	0.6743	0.7953	0.132	0.258
Mof_C 	C 	0.5497	0.788	0.149	-0.274
Mof_Cu	Cu	0.1369	0.976	0.3352	3.76
Mof_H 	H 	0.5098	0.7823	0.6376	-0.042
Mof_H 	H 	0.6787	0.7052	0.6463	-0.008
Mof_H 	H 	0.7153	0.7965	0.2627	-0.02
Mof_H 	H 	0.5083	0.7844	0.2796	0.08
Mof_S 	S 	0.1292	0.9775	0.716	-1.037
Mof_Cu	Cu	0.87355	0.65916	0.95449	0.793
Mof_Cu	Cu	0.97458	0.86395	0.08787	1.511
Mof_S 	S 	0.97657	0.86909	0.7087	-5.558
Mof_N 	N 	0.9469	0.7545	0.3327	-0.178
Mof_C 	C 	0.944	0.7558	0.5565	1.478
Mof_N 	N 	0.7454	0.2824	0.4577	-0.171
Mof_N 	N 	0.9061	0.6543	0.2656	-0.236
Mof_N 	N 	0.9066	0.6591	0.6385	-0.507
Mof_C 	C 	0.885	0.5995	0.452	0.108
Mof_C 	C 	0.8397	0.4891	0.4556	-0.049
Mof_C 	C 	0.847	0.4242	0.277	-0.087
Mof_H 	H 	0.8828	0.4481	0.1487	0.028
Mof_C 	C 	0.8001	0.3183	0.2811	-0.079
Mof_H 	H 	0.808	0.2733	0.1569	0.102
Mof_C 	C 	0.7412	0.3444	0.638	-0.195
Mof_H 	H 	0.706	0.3177	0.7648	0.059
Mof_C 	C 	0.8445	0.4229	0.6396	0.251
Mof_H 	H 	0.8813	0.4448	0.768	-0.108
Mof_C 	C 	0.7867	0.4485	0.267	0.051
Mof_C 	C 	0.7408	0.3468	0.273	0.065
Mof_C 	C 	0.7953	0.3257	0.632	0.203
Mof_C 	C 	0.788	0.4503	0.649	-0.291
Mof_Cu	Cu	0.976	0.8631	0.8352	3.746
Mof_H 	H 	0.7823	0.4902	0.1376	-0.011
Mof_H 	H 	0.7052	0.3213	0.1463	0.012
Mof_H 	H 	0.7965	0.2847	0.7627	-0.021
Mof_H 	H 	0.7844	0.4917	0.7796	0.062
Mof_S 	S 	0.9775	0.8708	0.216	-0.959
Mof_Cu	Cu	0.12645	0.34084	0.95449	0.793
Mof_Cu	Cu	0.02542	0.13605	0.08787	1.511
Mof_S 	S 	0.02343	0.13091	0.7087	-5.558
Mof_N 	N 	0.0531	0.2455	0.3327	-0.178
Mof_C 	C 	0.056	0.2442	0.5565	1.478
Mof_N 	N 	0.2546	0.7176	0.4577	-0.171
Mof_N 	N 	0.0939	0.3457	0.2656	-0.236
Mof_N 	N 	0.0934	0.3409	0.6385	-0.507
Mof_C 	C 	0.115	0.4005	0.452	0.108
Mof_C 	C 	0.1603	0.5109	0.4556	-0.049
Mof_C 	C 	0.153	0.5758	0.277	-0.087
Mof_H 	H 	0.1172	0.5519	0.1487	0.028
Mof_C 	C 	0.1999	0.6817	0.2811	-0.079
Mof_H 	H 	0.192	0.7267	0.1569	0.102
Mof_C 	C 	0.2588	0.6556	0.638	-0.195
Mof_H 	H 	0.294	0.6823	0.7648	0.059
Mof_C 	C 	0.1555	0.5771	0.6396	0.251
Mof_H 	H 	0.1187	0.5552	0.768	-0.108
Mof_C 	C 	0.2133	0.5515	0.267	0.051
Mof_C 	C 	0.2592	0.6532	0.273	0.065
Mof_C 	C 	0.2047	0.6743	0.632	0.203
Mof_C 	C 	0.212	0.5497	0.649	-0.291
Mof_Cu	Cu	0.024	0.1369	0.8352	3.746
Mof_H 	H 	0.2177	0.5098	0.1376	-0.011
Mof_H 	H 	0.2948	0.6787	0.1463	0.012
Mof_H 	H 	0.2035	0.7153	0.7627	-0.021
Mof_H 	H 	0.2156	0.5083	0.7796	0.062
Mof_S 	S 	0.0225	0.1292	0.216	-0.959
_end
