data_functionalizedCrystal
_audit_creation_method	'EQeq! by Chris Wilmer'
_symmetry_space_group_name_H-M	'P1'
_symmetry_Int_Tables_number	1
_symmetry_cell_setting	triclinic
loop_
_symmetry_equiv_pos_as_xyz
  x,y,z
_cell_length_a	6.5525
_cell_length_b	16.4362
_cell_length_c	13.1417
_cell_angle_alpha	90
_cell_angle_beta	90
_cell_angle_gamma	90.5819
loop_
_atom_site_label
_atom_site_type_symbol
_atom_site_fract_x
_atom_site_fract_y
_atom_site_fract_z
_atom_site_charge
Mof_O 	O 	0.1568	0.1744	0.8548	-1.294
Mof_O 	O 	0.8183	0.65761	0.1678	-1.306
Mof_C 	C 	0.797	0.0237	0.9498	-0.098
Mof_C 	C 	0.0028	0.0632	0.9455	-0.049
Mof_C 	C 	0.0005	0.1372	0.8659	1.034
Mof_C 	C 	0.1946	0.5403	0.0254	0.009
Mof_O 	O 	0.6568	0.6744	0.3548	-1.266
Mof_O 	O 	0.3183	0.15761	0.6678	-1.221
Mof_C 	C 	0.297	0.5237	0.4498	0.068
Mof_C 	C 	0.5028	0.5632	0.4455	-0.194
Mof_C 	C 	0.5005	0.6372	0.3659	0.9
Mof_C 	C 	0.6946	0.0403	0.5254	0.025
Mof_O 	O 	0.8432	0.3256	0.8548	-1.23
Mof_O 	O 	0.1817	0.84239	0.1678	-1.131
Mof_C 	C 	0.203	0.4763	0.9498	0.175
Mof_C 	C 	0.9972	0.4368	0.9455	-0.343
Mof_C 	C 	0.9995	0.3628	0.8659	0.757
Mof_C 	C 	0.8054	0.9597	0.0254	0.1
Mof_O 	O 	0.3432	0.8256	0.3548	-1.268
Mof_O 	O 	0.6817	0.34239	0.6678	-1.224
Mof_C 	C 	0.703	0.9763	0.4498	-0.002
Mof_C 	C 	0.4972	0.9368	0.4455	-0.198
Mof_C 	C 	0.4995	0.8628	0.3659	0.902
Mof_C 	C 	0.3054	0.4597	0.5254	0.089
Mof_O 	O 	0.8432	0.8256	0.1452	-1.23
Mof_O 	O 	0.1817	0.34239	0.8322	-1.131
Mof_C 	C 	0.203	0.9763	0.0502	0.172
Mof_C 	C 	0.9972	0.9368	0.0545	-0.342
Mof_C 	C 	0.9995	0.8628	0.1341	0.756
Mof_C 	C 	0.8054	0.4597	0.9746	0.103
Mof_O 	O 	0.3432	0.3256	0.6452	-1.268
Mof_O 	O 	0.6817	0.84239	0.3322	-1.224
Mof_C 	C 	0.703	0.4763	0.5502	0.003
Mof_C 	C 	0.4972	0.4368	0.5545	-0.199
Mof_C 	C 	0.4995	0.3628	0.6341	0.902
Mof_C 	C 	0.3054	0.9597	0.4746	0.085
Mof_O 	O 	0.1568	0.6744	0.1452	-1.295
Mof_O 	O 	0.8183	0.15761	0.8322	-1.306
Mof_C 	C 	0.797	0.5237	0.0502	-0.101
Mof_C 	C 	0.0028	0.5632	0.0545	-0.046
Mof_C 	C 	0.0005	0.6372	0.1341	1.035
Mof_C 	C 	0.1946	0.0403	0.9746	0.011
Mof_O 	O 	0.6568	0.1744	0.6452	-1.266
Mof_O 	O 	0.3183	0.65761	0.3322	-1.221
Mof_C 	C 	0.297	0.0237	0.5502	0.071
Mof_C 	C 	0.5028	0.0632	0.5545	-0.196
Mof_C 	C 	0.5005	0.1372	0.6341	0.9
Mof_C 	C 	0.6946	0.5403	0.4746	0.02
Mof_Al	Al	0.25	0.25	0.75	5.38
Mof_Al	Al	0.75	0.25	0.75	5.078
Mof_Al	Al	0.75	0.75	0.25	5.076
Mof_Al	Al	0.25	0.75	0.25	5.379
Mof_F 	F 	9.73253e-19	0.25	0.6902	-1.808
Mof_F 	F 	0.5	0.75	0.1902	-1.882
Mof_F 	F 	1.72836e-18	0.75	0.3098	-1.808
Mof_F 	F 	0.5	0.25	0.8098	-1.883
_end
