# CIF file generated by openbabel 3.1.0, see https://openbabel.org
data_I
_chemical_name_common 'image0'
_cell_length_a 25.7542
_cell_length_b 25.7542
_cell_length_c 6.755
_cell_angle_alpha 90
_cell_angle_beta 90
_cell_angle_gamma 120
_space_group_name_H-M_alt 'P 1'
_space_group_name_Hall 'P 1'
loop_
    _symmetry_equiv_pos_as_xyz
    x,y,z
loop_
    _atom_site_label
    _atom_site_type_symbol
    _atom_site_fract_x
    _atom_site_fract_y
    _atom_site_fract_z
    _atom_site_occupancy
    Ni1      Ni       0.61862    0.64787    0.35290    1.000
    O1       O        0.43786    0.40771    0.43705    1.000
    O2       O        0.36879    0.36541    0.21820    1.000
    O3       O        0.61356    0.58369    0.15751    1.000
    C1       C        0.41774    0.40726    0.25516    1.000
    C2       C        0.46225    0.45323    0.11848    1.000
    C3       C        0.55904    0.54874    0.07910    1.000
    C4       C        0.51743    0.49729    0.19457    1.000
    H1       H        0.52800    0.49324    0.32766    1.000
    Ni2      Ni       0.28529    0.98120    0.68623    1.000
    O4       O        0.10453    0.74104    0.77038    1.000
    O5       O        0.03546    0.69874    0.55153    1.000
    O6       O        0.28023    0.91702    0.49084    1.000
    C5       C        0.08441    0.74059    0.58849    1.000
    C6       C        0.12892    0.78656    0.45181    1.000
    C7       C        0.22571    0.88207    0.41243    1.000
    C8       C        0.18410    0.83062    0.52790    1.000
    H2       H        0.19467    0.82657    0.66099    1.000
    Ni3      Ni       0.95195    0.31454    0.01957    1.000
    O7       O        0.77119    0.07438    0.10372    1.000
    O8       O        0.70212    0.03208    0.88487    1.000
    O9       O        0.94689    0.25036    0.82418    1.000
    C9       C        0.75107    0.07393    0.92183    1.000
    C10      C        0.79558    0.11990    0.78515    1.000
    C11      C        0.89237    0.21541    0.74577    1.000
    C12      C        0.85076    0.16396    0.86124    1.000
    H3       H        0.86133    0.15991    0.99433    1.000
    Ni4      Ni       0.35213    0.97075    0.35290    1.000
    O10      O        0.59229    0.03015    0.43705    1.000
    O11      O        0.63459    0.00338    0.21820    1.000
    O12      O        0.41631    0.02987    0.15751    1.000
    C13      C        0.59274    0.01048    0.25516    1.000
    C14      C        0.54677    0.00902    0.11848    1.000
    C15      C        0.45126    0.01030    0.07910    1.000
    C16      C        0.50271    0.02014    0.19457    1.000
    H4       H        0.50676    0.03476    0.32766    1.000
    Ni5      Ni       0.01880    0.30408    0.68623    1.000
    O13      O        0.25896    0.36348    0.77038    1.000
    O14      O        0.30126    0.33671    0.55153    1.000
    O15      O        0.08298    0.36320    0.49084    1.000
    C17      C        0.25941    0.34381    0.58849    1.000
    C18      C        0.21344    0.34235    0.45181    1.000
    C19      C        0.11793    0.34363    0.41243    1.000
    C20      C        0.16938    0.35347    0.52790    1.000
    H5       H        0.17343    0.36809    0.66099    1.000
    Ni6      Ni       0.68546    0.63742    0.01957    1.000
    O16      O        0.92562    0.69682    0.10372    1.000
    O17      O        0.96792    0.67005    0.88487    1.000
    O18      O        0.74964    0.69654    0.82418    1.000
    C21      C        0.92607    0.67715    0.92183    1.000
    C22      C        0.88010    0.67569    0.78515    1.000
    C23      C        0.78459    0.67697    0.74577    1.000
    C24      C        0.83604    0.68681    0.86124    1.000
    H6       H        0.84009    0.70143    0.99433    1.000
    Ni7      Ni       0.02925    0.38138    0.35290    1.000
    O19      O        0.96985    0.56214    0.43705    1.000
    O20      O        0.99662    0.63121    0.21820    1.000
    O21      O        0.97013    0.38644    0.15751    1.000
    C25      C        0.98952    0.58226    0.25516    1.000
    C26      C        0.99098    0.53775    0.11848    1.000
    C27      C        0.98970    0.44096    0.07910    1.000
    C28      C        0.97986    0.48257    0.19457    1.000
    H7       H        0.96524    0.47200    0.32766    1.000
    Ni8      Ni       0.69592    0.71471    0.68623    1.000
    O22      O        0.63652    0.89547    0.77038    1.000
    O23      O        0.66329    0.96454    0.55153    1.000
    O24      O        0.63680    0.71977    0.49084    1.000
    C29      C        0.65619    0.91559    0.58849    1.000
    C30      C        0.65765    0.87108    0.45181    1.000
    C31      C        0.65637    0.77429    0.41243    1.000
    C32      C        0.64653    0.81590    0.52790    1.000
    H8       H        0.63191    0.80533    0.66099    1.000
    Ni9      Ni       0.36258    0.04805    0.01957    1.000
    O25      O        0.30318    0.22881    0.10372    1.000
    O26      O        0.32995    0.29788    0.88487    1.000
    O27      O        0.30346    0.05311    0.82418    1.000
    C33      C        0.32285    0.24893    0.92183    1.000
    C34      C        0.32431    0.20442    0.78515    1.000
    C35      C        0.32303    0.10763    0.74577    1.000
    C36      C        0.31319    0.14924    0.86124    1.000
    H9       H        0.29857    0.13867    0.99433    1.000
    Ni10     Ni       0.38138    0.35213    0.64710    1.000
    O28      O        0.56214    0.59229    0.56295    1.000
    O29      O        0.63121    0.63459    0.78180    1.000
    O30      O        0.38644    0.41631    0.84249    1.000
    C37      C        0.58226    0.59274    0.74484    1.000
    C38      C        0.53775    0.54677    0.88152    1.000
    C39      C        0.44096    0.45126    0.92090    1.000
    C40      C        0.48257    0.50271    0.80543    1.000
    H10      H        0.47200    0.50676    0.67234    1.000
    Ni11     Ni       0.04805    0.68546    0.98043    1.000
    O31      O        0.22881    0.92562    0.89628    1.000
    O32      O        0.29788    0.96792    0.11513    1.000
    O33      O        0.05311    0.74964    0.17582    1.000
    C41      C        0.24893    0.92607    0.07817    1.000
    C42      C        0.20442    0.88010    0.21485    1.000
    C43      C        0.10763    0.78459    0.25423    1.000
    C44      C        0.14924    0.83604    0.13876    1.000
    H11      H        0.13867    0.84009    0.00567    1.000
    Ni12     Ni       0.71471    0.01880    0.31377    1.000
    O34      O        0.89547    0.25896    0.22962    1.000
    O35      O        0.96454    0.30126    0.44847    1.000
    O36      O        0.71977    0.08298    0.50916    1.000
    C45      C        0.91559    0.25941    0.41151    1.000
    C46      C        0.87108    0.21344    0.54819    1.000
    C47      C        0.77429    0.11793    0.58757    1.000
    C48      C        0.81590    0.16938    0.47210    1.000
    H12      H        0.80533    0.17343    0.33901    1.000
    Ni13     Ni       0.64787    0.02925    0.64710    1.000
    O37      O        0.40771    0.96985    0.56295    1.000
    O38      O        0.36541    0.99662    0.78180    1.000
    O39      O        0.58369    0.97013    0.84249    1.000
    C49      C        0.40726    0.98952    0.74484    1.000
    C50      C        0.45323    0.99098    0.88152    1.000
    C51      C        0.54874    0.98970    0.92090    1.000
    C52      C        0.49729    0.97986    0.80543    1.000
    H13      H        0.49324    0.96524    0.67234    1.000
    Ni14     Ni       0.31454    0.36258    0.98043    1.000
    O40      O        0.07438    0.30318    0.89628    1.000
    O41      O        0.03208    0.32995    0.11513    1.000
    O42      O        0.25036    0.30346    0.17582    1.000
    C53      C        0.07393    0.32285    0.07817    1.000
    C54      C        0.11990    0.32431    0.21485    1.000
    C55      C        0.21541    0.32303    0.25423    1.000
    C56      C        0.16396    0.31319    0.13876    1.000
    H14      H        0.15991    0.29857    0.00567    1.000
    Ni15     Ni       0.98120    0.69592    0.31377    1.000
    O43      O        0.74104    0.63652    0.22962    1.000
    O44      O        0.69874    0.66329    0.44847    1.000
    O45      O        0.91702    0.63680    0.50916    1.000
    C57      C        0.74059    0.65619    0.41151    1.000
    C58      C        0.78656    0.65765    0.54819    1.000
    C59      C        0.88207    0.65637    0.58757    1.000
    C60      C        0.83062    0.64653    0.47210    1.000
    H15      H        0.82657    0.63191    0.33901    1.000
    Ni16     Ni       0.97075    0.61862    0.64710    1.000
    O46      O        0.03015    0.43786    0.56295    1.000
    O47      O        0.00338    0.36879    0.78180    1.000
    O48      O        0.02987    0.61356    0.84249    1.000
    C61      C        0.01048    0.41774    0.74484    1.000
    C62      C        0.00902    0.46225    0.88152    1.000
    C63      C        0.01030    0.55904    0.92090    1.000
    C64      C        0.02014    0.51743    0.80543    1.000
    H16      H        0.03476    0.52800    0.67234    1.000
    Ni17     Ni       0.63742    0.95195    0.98043    1.000
    O49      O        0.69682    0.77119    0.89628    1.000
    O50      O        0.67005    0.70212    0.11513    1.000
    O51      O        0.69654    0.94689    0.17582    1.000
    C65      C        0.67715    0.75107    0.07817    1.000
    C66      C        0.67569    0.79558    0.21485    1.000
    C67      C        0.67697    0.89237    0.25423    1.000
    C68      C        0.68681    0.85076    0.13876    1.000
    H17      H        0.70143    0.86133    0.00567    1.000
    Ni18     Ni       0.30408    0.28529    0.31377    1.000
    O52      O        0.36348    0.10453    0.22962    1.000
    O53      O        0.33671    0.03546    0.44847    1.000
    O54      O        0.36320    0.28023    0.50916    1.000
    C69      C        0.34381    0.08441    0.41151    1.000
    C70      C        0.34235    0.12892    0.54819    1.000
    C71      C        0.34363    0.22571    0.58757    1.000
    C72      C        0.35347    0.18410    0.47210    1.000
    H18      H        0.36809    0.19467    0.33901    1.000
