data_functionalizedCrystal
_audit_creation_method	'EQeq! by Chris Wilmer'
_symmetry_space_group_name_H-M	'P1'
_symmetry_Int_Tables_number	1
_symmetry_cell_setting	triclinic
loop_
_symmetry_equiv_pos_as_xyz
  x,y,z
_cell_length_a	24.8606
_cell_length_b	24.8606
_cell_length_c	4.8016
_cell_angle_alpha	90
_cell_angle_beta	90
_cell_angle_gamma	90
loop_
_atom_site_label
_atom_site_type_symbol
_atom_site_fract_x
_atom_site_fract_y
_atom_site_fract_z
_atom_site_charge
Mof_N 	N 	0.0318	0.9318	0.7688	-0.194
Mof_C 	C 	0.0368	0.856	0.1335	-0.064
Mof_C 	C 	0.0853	0.8354	0.232	-0.015
Mof_H 	H 	0.1184	0.8502	0.1698	0.029
Mof_C 	C 	0.0851	0.7939	0.4188	-0.068
Mof_H 	H 	0.1185	0.7794	0.478	0.048
Mof_C 	C 	0.0387	0.7724	0.5237	0.005
Mof_C 	C 	0.9913	0.7944	0.4235	-0.047
Mof_H 	H 	0.9581	0.7808	0.4928	0.044
Mof_C 	C 	0.9898	0.8344	0.231	0.005
Mof_H 	H 	0.9563	0.8473	0.1642	0.028
Mof_C 	C 	0.035	0.8981	0.9323	0.083
Mof_N 	N 	0.5318	0.4318	0.2688	-0.2
Mof_C 	C 	0.5368	0.356	0.6335	-0.009
Mof_C 	C 	0.5853	0.3354	0.732	-0.057
Mof_H 	H 	0.6184	0.3502	0.6698	0.044
Mof_C 	C 	0.5851	0.2939	0.9188	-0.018
Mof_H 	H 	0.6185	0.2794	0.978	0.035
Mof_C 	C 	0.5387	0.2724	0.0237	-0.03
Mof_C 	C 	0.4913	0.2944	0.9235	-0.017
Mof_H 	H 	0.4581	0.2808	0.9928	0.035
Mof_C 	C 	0.4898	0.3344	0.731	-0.059
Mof_H 	H 	0.4563	0.3473	0.6642	0.045
Mof_C 	C 	0.535	0.3981	0.4323	0.066
Mof_N 	N 	0.9682	0.0682	0.7688	-0.189
Mof_C 	C 	0.9632	0.144	0.1335	-0.007
Mof_C 	C 	0.9147	0.1646	0.232	-0.033
Mof_H 	H 	0.8816	0.1498	0.1698	0.033
Mof_C 	C 	0.9149	0.2061	0.4188	-0.064
Mof_H 	H 	0.8815	0.2206	0.478	0.046
Mof_C 	C 	0.9613	0.2276	0.5237	0.039
Mof_C 	C 	0.0087	0.2056	0.4235	-0.082
Mof_H 	H 	0.0419	0.2192	0.4928	0.049
Mof_C 	C 	0.0102	0.1656	0.231	-0.054
Mof_H 	H 	0.0437	0.1527	0.1642	0.039
Mof_C 	C 	0.965	0.1019	0.9323	0.076
Mof_N 	N 	0.4682	0.5682	0.2688	-0.2
Mof_C 	C 	0.4632	0.644	0.6335	-0.01
Mof_C 	C 	0.4147	0.6646	0.732	-0.056
Mof_H 	H 	0.3816	0.6498	0.6698	0.043
Mof_C 	C 	0.4149	0.7061	0.9188	-0.019
Mof_H 	H 	0.3815	0.7206	0.978	0.035
Mof_C 	C 	0.4613	0.7276	0.0237	-0.029
Mof_C 	C 	0.5087	0.7056	0.9235	-0.018
Mof_H 	H 	0.5419	0.7192	0.9928	0.035
Mof_C 	C 	0.5102	0.6656	0.731	-0.058
Mof_H 	H 	0.5437	0.6527	0.6642	0.045
Mof_C 	C 	0.465	0.6019	0.4323	0.066
Mof_N 	N 	0.9318	0.9682	0.2312	-0.178
Mof_C 	C 	0.856	0.9632	0.8665	0.013
Mof_C 	C 	0.8354	0.9147	0.768	-0.048
Mof_H 	H 	0.8502	0.8816	0.8302	0.043
Mof_C 	C 	0.7939	0.9149	0.5812	-0.046
Mof_H 	H 	0.7794	0.8815	0.522	0.04
Mof_C 	C 	0.7724	0.9613	0.4763	0.017
Mof_C 	C 	0.7944	0.0087	0.5765	-0.063
Mof_H 	H 	0.7808	0.0419	0.5072	0.042
Mof_C 	C 	0.8344	0.0102	0.769	-0.07
Mof_H 	H 	0.8473	0.0437	0.8358	0.046
Mof_C 	C 	0.8981	0.965	0.0677	0.068
Mof_N 	N 	0.4318	0.4682	0.7312	-0.199
Mof_C 	C 	0.356	0.4632	0.3665	-0.047
Mof_C 	C 	0.3354	0.4147	0.268	-0.01
Mof_H 	H 	0.3502	0.3816	0.3302	0.027
Mof_C 	C 	0.2939	0.4149	0.0812	-0.089
Mof_H 	H 	0.2794	0.3815	0.022	0.053
Mof_C 	C 	0.2724	0.4613	0.9763	0.047
Mof_C 	C 	0.2944	0.5087	0.0765	-0.087
Mof_H 	H 	0.2808	0.5419	0.0072	0.052
Mof_C 	C 	0.3344	0.5102	0.269	-0.011
Mof_H 	H 	0.3473	0.5437	0.3358	0.028
Mof_C 	C 	0.3981	0.465	0.5677	0.08
Mof_N 	N 	0.0682	0.0318	0.2312	-0.202
Mof_C 	C 	0.144	0.0368	0.8665	-0.049
Mof_C 	C 	0.1646	0.0853	0.768	-0.03
Mof_H 	H 	0.1498	0.1184	0.8302	0.034
Mof_C 	C 	0.2061	0.0851	0.5812	-0.051
Mof_H 	H 	0.2206	0.1185	0.522	0.042
Mof_C 	C 	0.2276	0.0387	0.4763	-0.015
Mof_C 	C 	0.2056	0.9913	0.5765	-0.03
Mof_H 	H 	0.2192	0.9581	0.5072	0.038
Mof_C 	C 	0.1656	0.9898	0.769	-0.01
Mof_H 	H 	0.1527	0.9563	0.8358	0.034
Mof_C 	C 	0.1019	0.035	0.0677	0.067
Mof_N 	N 	0.5682	0.5318	0.7312	-0.199
Mof_C 	C 	0.644	0.5368	0.3665	-0.047
Mof_C 	C 	0.6646	0.5853	0.268	-0.009
Mof_H 	H 	0.6498	0.6184	0.3302	0.026
Mof_C 	C 	0.7061	0.5851	0.0812	-0.09
Mof_H 	H 	0.7206	0.6185	0.022	0.054
Mof_C 	C 	0.7276	0.5387	0.9763	0.049
Mof_C 	C 	0.7056	0.4913	0.0765	-0.088
Mof_H 	H 	0.7192	0.4581	0.0072	0.052
Mof_C 	C 	0.6656	0.4898	0.269	-0.01
Mof_H 	H 	0.6527	0.4563	0.3358	0.027
Mof_C 	C 	0.6019	0.535	0.5677	0.08
Mof_N 	N 	0.4682	0.9318	0.9812	-0.188
Mof_C 	C 	0.4632	0.856	0.6165	-0.042
Mof_C 	C 	0.4147	0.8354	0.518	-0.013
Mof_H 	H 	0.3816	0.8502	0.5802	0.03
Mof_C 	C 	0.4149	0.7939	0.3312	-0.084
Mof_H 	H 	0.3815	0.7794	0.272	0.052
Mof_C 	C 	0.4613	0.7724	0.2263	0.045
Mof_C 	C 	0.5087	0.7944	0.3265	-0.082
Mof_H 	H 	0.5419	0.7808	0.2572	0.05
Mof_C 	C 	0.5102	0.8344	0.519	-0.014
Mof_H 	H 	0.5437	0.8473	0.5858	0.03
Mof_C 	C 	0.465	0.8981	0.8177	0.083
Mof_N 	N 	0.9682	0.4318	0.4812	-0.19
Mof_C 	C 	0.9632	0.356	0.1165	-0.007
Mof_C 	C 	0.9147	0.3354	0.018	-0.03
Mof_H 	H 	0.8816	0.3502	0.0802	0.034
Mof_C 	C 	0.9149	0.2939	0.8312	-0.069
Mof_H 	H 	0.8815	0.2794	0.772	0.048
Mof_C 	C 	0.9613	0.2724	0.7263	0.043
Mof_C 	C 	0.0087	0.2944	0.8265	-0.088
Mof_H 	H 	0.0419	0.2808	0.7572	0.05
Mof_C 	C 	0.0102	0.3344	0.019	-0.05
Mof_H 	H 	0.0437	0.3473	0.0858	0.038
Mof_C 	C 	0.965	0.3981	0.3177	0.076
Mof_N 	N 	0.5318	0.0682	0.9812	-0.197
Mof_C 	C 	0.5368	0.144	0.6165	-0.043
Mof_C 	C 	0.5853	0.1646	0.518	-0.013
Mof_H 	H 	0.6184	0.1498	0.5802	0.028
Mof_C 	C 	0.5851	0.2061	0.3312	-0.085
Mof_H 	H 	0.6185	0.2206	0.272	0.052
Mof_C 	C 	0.5387	0.2276	0.2263	0.046
Mof_C 	C 	0.4913	0.2056	0.3265	-0.083
Mof_H 	H 	0.4581	0.2192	0.2572	0.05
Mof_C 	C 	0.4898	0.1656	0.519	-0.014
Mof_H 	H 	0.4563	0.1527	0.5858	0.03
Mof_C 	C 	0.535	0.1019	0.8177	0.079
Mof_N 	N 	0.0318	0.5682	0.4812	-0.205
Mof_C 	C 	0.0368	0.644	0.1165	-0.067
Mof_C 	C 	0.0853	0.6646	0.018	-0.011
Mof_H 	H 	0.1184	0.6498	0.0802	0.028
Mof_C 	C 	0.0851	0.7061	0.8312	-0.073
Mof_H 	H 	0.1185	0.7206	0.772	0.05
Mof_C 	C 	0.0387	0.7276	0.7263	0.009
Mof_C 	C 	0.9913	0.7056	0.8265	-0.053
Mof_H 	H 	0.9581	0.7192	0.7572	0.046
Mof_C 	C 	0.9898	0.6656	0.019	0.009
Mof_H 	H 	0.9563	0.6527	0.0858	0.026
Mof_C 	C 	0.035	0.6019	0.3177	0.079
Mof_N 	N 	0.5682	0.9682	0.5188	-0.193
Mof_C 	C 	0.644	0.9632	0.8835	-0.032
Mof_C 	C 	0.6646	0.9147	0.982	0.007
Mof_H 	H 	0.6498	0.8816	0.9198	0.024
Mof_C 	C 	0.7061	0.9149	0.1688	-0.107
Mof_H 	H 	0.7206	0.8815	0.228	0.059
Mof_C 	C 	0.7276	0.9613	0.2737	0.071
Mof_C 	C 	0.7056	0.0087	0.1735	-0.125
Mof_H 	H 	0.7192	0.0419	0.2428	0.062
Mof_C 	C 	0.6656	0.0102	0.981	-0.013
Mof_H 	H 	0.6527	0.0437	0.9142	0.027
Mof_C 	C 	0.6019	0.965	0.6823	0.085
Mof_N 	N 	0.0682	0.4682	0.0188	-0.2
Mof_C 	C 	0.144	0.4632	0.3835	-0.03
Mof_C 	C 	0.1646	0.4147	0.482	-0.032
Mof_H 	H 	0.1498	0.3816	0.4198	0.034
Mof_C 	C 	0.2061	0.4149	0.6688	-0.057
Mof_H 	H 	0.2206	0.3815	0.728	0.044
Mof_C 	C 	0.2276	0.4613	0.7737	0.01
Mof_C 	C 	0.2056	0.5087	0.6735	-0.056
Mof_H 	H 	0.2192	0.5419	0.7428	0.044
Mof_C 	C 	0.1656	0.5102	0.481	-0.033
Mof_H 	H 	0.1527	0.5437	0.4142	0.036
Mof_C 	C 	0.1019	0.465	0.1823	0.072
Mof_N 	N 	0.4318	0.0318	0.5188	-0.208
Mof_C 	C 	0.356	0.0368	0.8835	-0.09
Mof_C 	C 	0.3354	0.0853	0.982	0.024
Mof_H 	H 	0.3502	0.1184	0.9198	0.018
Mof_C 	C 	0.2939	0.0851	0.1688	-0.11
Mof_H 	H 	0.2794	0.1185	0.228	0.06
Mof_C 	C 	0.2724	0.0387	0.2737	0.037
Mof_C 	C 	0.2944	0.9913	0.1735	-0.089
Mof_H 	H 	0.2808	0.9581	0.2428	0.056
Mof_C 	C 	0.3344	0.9898	0.981	0.044
Mof_H 	H 	0.3473	0.9563	0.9142	0.016
Mof_C 	C 	0.3981	0.035	0.6823	0.088
Mof_N 	N 	0.9318	0.5318	0.0188	-0.19
Mof_C 	C 	0.856	0.5368	0.3835	-0.028
Mof_C 	C 	0.8354	0.5853	0.482	-0.032
Mof_H 	H 	0.8502	0.6184	0.4198	0.036
Mof_C 	C 	0.7939	0.5851	0.6688	-0.057
Mof_H 	H 	0.7794	0.6185	0.728	0.045
Mof_C 	C 	0.7724	0.5387	0.7737	0.009
Mof_C 	C 	0.7944	0.4913	0.6735	-0.055
Mof_H 	H 	0.7808	0.4581	0.7428	0.044
Mof_C 	C 	0.8344	0.4898	0.481	-0.033
Mof_H 	H 	0.8473	0.4563	0.4142	0.036
Mof_C 	C 	0.8981	0.535	0.1823	0.076
Mof_Ag	Ag	1.42537e-33	0	0.5	0.584
Mof_Ag	Ag	0.5	0.5	-0	0.638
Mof_Ag	Ag	0.5	0	0.25	0.603
Mof_Ag	Ag	6.92285e-33	0.5	0.75	0.614
_end
