data_functionalizedCrystal
_audit_creation_method	'EQeq! by Chris Wilmer'
_symmetry_space_group_name_H-M	'P1'
_symmetry_Int_Tables_number	1
_symmetry_cell_setting	triclinic
loop_
_symmetry_equiv_pos_as_xyz
  x,y,z
_cell_length_a	26.7213
_cell_length_b	26.7213
_cell_length_c	26.7213
_cell_angle_alpha	90
_cell_angle_beta	90
_cell_angle_gamma	90
loop_
_atom_site_label
_atom_site_type_symbol
_atom_site_fract_x
_atom_site_fract_y
_atom_site_fract_z
_atom_site_charge
Mof_C 	C 	0.206	0.1445	0.012	-0.133
Mof_H 	H 	0.2119	0.1086	0.0216	0.06
Mof_C 	C 	0.2422	0.1815	0.0128	-0.486
Mof_C 	C 	0.206	0.6445	0.512	0.034
Mof_H 	H 	0.2119	0.6086	0.5216	0.02
Mof_C 	C 	0.2422	0.6815	0.5128	-0.123
Mof_C 	C 	0.706	0.1445	0.512	0.035
Mof_H 	H 	0.7119	0.1086	0.5216	0.02
Mof_C 	C 	0.7422	0.1815	0.5128	-0.123
Mof_C 	C 	0.706	0.6445	0.012	-0.116
Mof_H 	H 	0.7119	0.6086	0.0216	0.055
Mof_C 	C 	0.7422	0.6815	0.0128	-0.448
Mof_C 	C 	0.794	0.8555	0.012	-0.116
Mof_H 	H 	0.7881	0.8914	0.0216	0.056
Mof_C 	C 	0.7578	0.8185	0.0128	-0.437
Mof_C 	C 	0.794	0.3555	0.512	0.034
Mof_H 	H 	0.7881	0.3914	0.5216	0.019
Mof_C 	C 	0.7578	0.3185	0.5128	-0.124
Mof_C 	C 	0.294	0.8555	0.512	0.033
Mof_H 	H 	0.2881	0.8914	0.5216	0.021
Mof_C 	C 	0.2578	0.8185	0.5128	-0.123
Mof_C 	C 	0.294	0.3555	0.012	-0.133
Mof_H 	H 	0.2881	0.3914	0.0216	0.059
Mof_C 	C 	0.2578	0.3185	0.0128	-0.481
Mof_C 	C 	0.794	0.1445	0.988	0.217
Mof_H 	H 	0.7881	0.1086	0.9784	-0.02
Mof_C 	C 	0.7578	0.1815	0.9872	0.236
Mof_C 	C 	0.794	0.6445	0.488	0.034
Mof_H 	H 	0.7881	0.6086	0.4784	0.019
Mof_C 	C 	0.7578	0.6815	0.4872	-0.122
Mof_C 	C 	0.294	0.1445	0.488	0.037
Mof_H 	H 	0.2881	0.1086	0.4784	0.02
Mof_C 	C 	0.2578	0.1815	0.4872	-0.121
Mof_C 	C 	0.294	0.6445	0.988	0.217
Mof_H 	H 	0.2881	0.6086	0.9784	-0.02
Mof_C 	C 	0.2578	0.6815	0.9872	0.238
Mof_C 	C 	0.206	0.8555	0.988	0.207
Mof_H 	H 	0.2119	0.8914	0.9784	-0.015
Mof_C 	C 	0.2422	0.8185	0.9872	0.221
Mof_C 	C 	0.206	0.3555	0.488	0.037
Mof_H 	H 	0.2119	0.3914	0.4784	0.021
Mof_C 	C 	0.2422	0.3185	0.4872	-0.12
Mof_C 	C 	0.706	0.8555	0.488	0.034
Mof_H 	H 	0.7119	0.8914	0.4784	0.022
Mof_C 	C 	0.7422	0.8185	0.4872	-0.12
Mof_C 	C 	0.706	0.3555	0.988	0.209
Mof_H 	H 	0.7119	0.3914	0.9784	-0.017
Mof_C 	C 	0.7422	0.3185	0.9872	0.223
Mof_C 	C 	0.012	0.206	0.1445	-0.132
Mof_H 	H 	0.0216	0.2119	0.1086	0.061
Mof_C 	C 	0.0128	0.2422	0.1815	-0.485
Mof_C 	C 	0.012	0.706	0.6445	-0.115
Mof_H 	H 	0.0216	0.7119	0.6086	0.056
Mof_C 	C 	0.0128	0.7422	0.6815	-0.447
Mof_C 	C 	0.512	0.206	0.6445	0.035
Mof_H 	H 	0.5216	0.2119	0.6086	0.021
Mof_C 	C 	0.5128	0.2422	0.6815	-0.122
Mof_C 	C 	0.512	0.706	0.1445	0.036
Mof_H 	H 	0.5216	0.7119	0.1086	0.021
Mof_C 	C 	0.5128	0.7422	0.1815	-0.122
Mof_C 	C 	0.012	0.794	0.8555	-0.115
Mof_H 	H 	0.0216	0.7881	0.8914	0.057
Mof_C 	C 	0.0128	0.7578	0.8185	-0.436
Mof_C 	C 	0.012	0.294	0.3555	-0.132
Mof_H 	H 	0.0216	0.2881	0.3914	0.06
Mof_C 	C 	0.0128	0.2578	0.3185	-0.48
Mof_C 	C 	0.512	0.794	0.3555	0.035
Mof_H 	H 	0.5216	0.7881	0.3914	0.02
Mof_C 	C 	0.5128	0.7578	0.3185	-0.123
Mof_C 	C 	0.512	0.294	0.8555	0.034
Mof_H 	H 	0.5216	0.2881	0.8914	0.022
Mof_C 	C 	0.5128	0.2578	0.8185	-0.122
Mof_C 	C 	0.988	0.794	0.1445	0.218
Mof_H 	H 	0.9784	0.7881	0.1086	-0.019
Mof_C 	C 	0.9872	0.7578	0.1815	0.237
Mof_C 	C 	0.988	0.294	0.6445	0.218
Mof_H 	H 	0.9784	0.2881	0.6086	-0.019
Mof_C 	C 	0.9872	0.2578	0.6815	0.239
Mof_C 	C 	0.488	0.794	0.6445	0.035
Mof_H 	H 	0.4784	0.7881	0.6086	0.02
Mof_C 	C 	0.4872	0.7578	0.6815	-0.121
Mof_C 	C 	0.488	0.294	0.1445	0.038
Mof_H 	H 	0.4784	0.2881	0.1086	0.021
Mof_C 	C 	0.4872	0.2578	0.1815	-0.12
Mof_C 	C 	0.988	0.206	0.8555	0.207
Mof_H 	H 	0.9784	0.2119	0.8914	-0.015
Mof_C 	C 	0.9872	0.2422	0.8185	0.221
Mof_C 	C 	0.988	0.706	0.3555	0.209
Mof_H 	H 	0.9784	0.7119	0.3914	-0.017
Mof_C 	C 	0.9872	0.7422	0.3185	0.223
Mof_C 	C 	0.488	0.206	0.3555	0.037
Mof_H 	H 	0.4784	0.2119	0.3914	0.021
Mof_C 	C 	0.4872	0.2422	0.3185	-0.12
Mof_C 	C 	0.488	0.706	0.8555	0.034
Mof_H 	H 	0.4784	0.7119	0.8914	0.022
Mof_C 	C 	0.4872	0.7422	0.8185	-0.12
Mof_C 	C 	0.1445	0.012	0.206	-0.132
Mof_H 	H 	0.1086	0.0216	0.2119	0.061
Mof_C 	C 	0.1815	0.0128	0.2422	-0.485
Mof_C 	C 	0.1445	0.512	0.706	0.036
Mof_H 	H 	0.1086	0.5216	0.7119	0.021
Mof_C 	C 	0.1815	0.5128	0.7422	-0.122
Mof_C 	C 	0.6445	0.012	0.706	-0.115
Mof_H 	H 	0.6086	0.0216	0.7119	0.056
Mof_C 	C 	0.6815	0.0128	0.7422	-0.447
Mof_C 	C 	0.6445	0.512	0.206	0.035
Mof_H 	H 	0.6086	0.5216	0.2119	0.021
Mof_C 	C 	0.6815	0.5128	0.2422	-0.122
Mof_C 	C 	0.8555	0.012	0.794	-0.115
Mof_H 	H 	0.8914	0.0216	0.7881	0.057
Mof_C 	C 	0.8185	0.0128	0.7578	-0.436
Mof_C 	C 	0.8555	0.512	0.294	0.034
Mof_H 	H 	0.8914	0.5216	0.2881	0.022
Mof_C 	C 	0.8185	0.5128	0.2578	-0.122
Mof_C 	C 	0.3555	0.012	0.294	-0.132
Mof_H 	H 	0.3914	0.0216	0.2881	0.06
Mof_C 	C 	0.3185	0.0128	0.2578	-0.48
Mof_C 	C 	0.3555	0.512	0.794	0.035
Mof_H 	H 	0.3914	0.5216	0.7881	0.02
Mof_C 	C 	0.3185	0.5128	0.7578	-0.123
Mof_C 	C 	0.1445	0.988	0.794	0.218
Mof_H 	H 	0.1086	0.9784	0.7881	-0.019
Mof_C 	C 	0.1815	0.9872	0.7578	0.237
Mof_C 	C 	0.1445	0.488	0.294	0.038
Mof_H 	H 	0.1086	0.4784	0.2881	0.021
Mof_C 	C 	0.1815	0.4872	0.2578	-0.12
Mof_C 	C 	0.6445	0.988	0.294	0.218
Mof_H 	H 	0.6086	0.9784	0.2881	-0.019
Mof_C 	C 	0.6815	0.9872	0.2578	0.239
Mof_C 	C 	0.6445	0.488	0.794	0.035
Mof_H 	H 	0.6086	0.4784	0.7881	0.02
Mof_C 	C 	0.6815	0.4872	0.7578	-0.121
Mof_C 	C 	0.8555	0.988	0.206	0.207
Mof_H 	H 	0.8914	0.9784	0.2119	-0.015
Mof_C 	C 	0.8185	0.9872	0.2422	0.221
Mof_C 	C 	0.8555	0.488	0.706	0.034
Mof_H 	H 	0.8914	0.4784	0.7119	0.022
Mof_C 	C 	0.8185	0.4872	0.7422	-0.12
Mof_C 	C 	0.3555	0.988	0.706	0.209
Mof_H 	H 	0.3914	0.9784	0.7119	-0.017
Mof_C 	C 	0.3185	0.9872	0.7422	0.223
Mof_C 	C 	0.3555	0.488	0.206	0.037
Mof_H 	H 	0.3914	0.4784	0.2119	0.021
Mof_C 	C 	0.3185	0.4872	0.2422	-0.12
Mof_C 	C 	0.1445	0.206	0.988	0.226
Mof_H 	H 	0.1086	0.2119	0.9784	-0.02
Mof_C 	C 	0.1815	0.2422	0.9872	0.255
Mof_C 	C 	0.1445	0.706	0.488	0.037
Mof_H 	H 	0.1086	0.7119	0.4784	0.021
Mof_C 	C 	0.1815	0.7422	0.4872	-0.119
Mof_C 	C 	0.6445	0.206	0.488	0.037
Mof_H 	H 	0.6086	0.2119	0.4784	0.021
Mof_C 	C 	0.6815	0.2422	0.4872	-0.12
Mof_C 	C 	0.6445	0.706	0.988	0.204
Mof_H 	H 	0.6086	0.7119	0.9784	-0.016
Mof_C 	C 	0.6815	0.7422	0.9872	0.214
Mof_C 	C 	0.8555	0.794	0.988	0.199
Mof_H 	H 	0.8914	0.7881	0.9784	-0.015
Mof_C 	C 	0.8185	0.7578	0.9872	0.203
Mof_C 	C 	0.8555	0.294	0.488	0.035
Mof_H 	H 	0.8914	0.2881	0.4784	0.022
Mof_C 	C 	0.8185	0.2578	0.4872	-0.121
Mof_C 	C 	0.3555	0.794	0.488	0.036
Mof_H 	H 	0.3914	0.7881	0.4784	0.02
Mof_C 	C 	0.3185	0.7578	0.4872	-0.12
Mof_C 	C 	0.3555	0.294	0.988	0.224
Mof_H 	H 	0.3914	0.2881	0.9784	-0.02
Mof_C 	C 	0.3185	0.2578	0.9872	0.248
Mof_C 	C 	0.1445	0.794	0.012	-0.128
Mof_H 	H 	0.1086	0.7881	0.0216	0.059
Mof_C 	C 	0.1815	0.7578	0.0128	-0.469
Mof_C 	C 	0.1445	0.294	0.512	0.036
Mof_H 	H 	0.1086	0.2881	0.5216	0.021
Mof_C 	C 	0.1815	0.2578	0.5128	-0.123
Mof_C 	C 	0.6445	0.794	0.512	0.034
Mof_H 	H 	0.6086	0.7881	0.5216	0.02
Mof_C 	C 	0.6815	0.7578	0.5128	-0.123
Mof_C 	C 	0.6445	0.294	0.012	-0.128
Mof_H 	H 	0.6086	0.2881	0.0216	0.059
Mof_C 	C 	0.6815	0.2578	0.0128	-0.472
Mof_C 	C 	0.8555	0.206	0.012	-0.12
Mof_H 	H 	0.8914	0.2119	0.0216	0.059
Mof_C 	C 	0.8185	0.2422	0.0128	-0.452
Mof_C 	C 	0.8555	0.706	0.512	0.034
Mof_H 	H 	0.8914	0.7119	0.5216	0.022
Mof_C 	C 	0.8185	0.7422	0.5128	-0.122
Mof_C 	C 	0.3555	0.206	0.512	0.036
Mof_H 	H 	0.3914	0.2119	0.5216	0.021
Mof_C 	C 	0.3185	0.2422	0.5128	-0.122
Mof_C 	C 	0.3555	0.706	0.012	-0.119
Mof_H 	H 	0.3914	0.7119	0.0216	0.057
Mof_C 	C 	0.3185	0.7422	0.0128	-0.455
Mof_C 	C 	0.206	0.012	0.8555	-0.12
Mof_H 	H 	0.2119	0.0216	0.8914	0.059
Mof_C 	C 	0.2422	0.0128	0.8185	-0.452
Mof_C 	C 	0.206	0.512	0.3555	0.036
Mof_H 	H 	0.2119	0.5216	0.3914	0.021
Mof_C 	C 	0.2422	0.5128	0.3185	-0.122
Mof_C 	C 	0.706	0.012	0.3555	-0.119
Mof_H 	H 	0.7119	0.0216	0.3914	0.057
Mof_C 	C 	0.7422	0.0128	0.3185	-0.455
Mof_C 	C 	0.706	0.512	0.8555	0.034
Mof_H 	H 	0.7119	0.5216	0.8914	0.022
Mof_C 	C 	0.7422	0.5128	0.8185	-0.122
Mof_C 	C 	0.794	0.012	0.1445	-0.128
Mof_H 	H 	0.7881	0.0216	0.1086	0.059
Mof_C 	C 	0.7578	0.0128	0.1815	-0.469
Mof_C 	C 	0.794	0.512	0.6445	0.034
Mof_H 	H 	0.7881	0.5216	0.6086	0.02
Mof_C 	C 	0.7578	0.5128	0.6815	-0.123
Mof_C 	C 	0.294	0.012	0.6445	-0.128
Mof_H 	H 	0.2881	0.0216	0.6086	0.059
Mof_C 	C 	0.2578	0.0128	0.6815	-0.472
Mof_C 	C 	0.294	0.512	0.1445	0.036
Mof_H 	H 	0.2881	0.5216	0.1086	0.021
Mof_C 	C 	0.2578	0.5128	0.1815	-0.123
Mof_C 	C 	0.794	0.988	0.8555	0.199
Mof_H 	H 	0.7881	0.9784	0.8914	-0.015
Mof_C 	C 	0.7578	0.9872	0.8185	0.203
Mof_C 	C 	0.794	0.488	0.3555	0.036
Mof_H 	H 	0.7881	0.4784	0.3914	0.02
Mof_C 	C 	0.7578	0.4872	0.3185	-0.12
Mof_C 	C 	0.294	0.988	0.3555	0.224
Mof_H 	H 	0.2881	0.9784	0.3914	-0.02
Mof_C 	C 	0.2578	0.9872	0.3185	0.248
Mof_C 	C 	0.294	0.488	0.8555	0.035
Mof_H 	H 	0.2881	0.4784	0.8914	0.022
Mof_C 	C 	0.2578	0.4872	0.8185	-0.121
Mof_C 	C 	0.206	0.988	0.1445	0.226
Mof_H 	H 	0.2119	0.9784	0.1086	-0.02
Mof_C 	C 	0.2422	0.9872	0.1815	0.255
Mof_C 	C 	0.206	0.488	0.6445	0.037
Mof_H 	H 	0.2119	0.4784	0.6086	0.021
Mof_C 	C 	0.2422	0.4872	0.6815	-0.12
Mof_C 	C 	0.706	0.988	0.6445	0.204
Mof_H 	H 	0.7119	0.9784	0.6086	-0.016
Mof_C 	C 	0.7422	0.9872	0.6815	0.214
Mof_C 	C 	0.706	0.488	0.1445	0.037
Mof_H 	H 	0.7119	0.4784	0.1086	0.021
Mof_C 	C 	0.7422	0.4872	0.1815	-0.119
Mof_C 	C 	0.012	0.1445	0.794	-0.128
Mof_H 	H 	0.0216	0.1086	0.7881	0.059
Mof_C 	C 	0.0128	0.1815	0.7578	-0.469
Mof_C 	C 	0.012	0.6445	0.294	-0.128
Mof_H 	H 	0.0216	0.6086	0.2881	0.059
Mof_C 	C 	0.0128	0.6815	0.2578	-0.472
Mof_C 	C 	0.512	0.1445	0.294	0.036
Mof_H 	H 	0.5216	0.1086	0.2881	0.021
Mof_C 	C 	0.5128	0.1815	0.2578	-0.123
Mof_C 	C 	0.512	0.6445	0.794	0.034
Mof_H 	H 	0.5216	0.6086	0.7881	0.02
Mof_C 	C 	0.5128	0.6815	0.7578	-0.123
Mof_C 	C 	0.012	0.8555	0.206	-0.12
Mof_H 	H 	0.0216	0.8914	0.2119	0.059
Mof_C 	C 	0.0128	0.8185	0.2422	-0.452
Mof_C 	C 	0.012	0.3555	0.706	-0.119
Mof_H 	H 	0.0216	0.3914	0.7119	0.057
Mof_C 	C 	0.0128	0.3185	0.7422	-0.455
Mof_C 	C 	0.512	0.8555	0.706	0.034
Mof_H 	H 	0.5216	0.8914	0.7119	0.022
Mof_C 	C 	0.5128	0.8185	0.7422	-0.122
Mof_C 	C 	0.512	0.3555	0.206	0.036
Mof_H 	H 	0.5216	0.3914	0.2119	0.021
Mof_C 	C 	0.5128	0.3185	0.2422	-0.122
Mof_C 	C 	0.988	0.1445	0.206	0.226
Mof_H 	H 	0.9784	0.1086	0.2119	-0.02
Mof_C 	C 	0.9872	0.1815	0.2422	0.255
Mof_C 	C 	0.988	0.6445	0.706	0.204
Mof_H 	H 	0.9784	0.6086	0.7119	-0.016
Mof_C 	C 	0.9872	0.6815	0.7422	0.214
Mof_C 	C 	0.488	0.1445	0.706	0.037
Mof_H 	H 	0.4784	0.1086	0.7119	0.021
Mof_C 	C 	0.4872	0.1815	0.7422	-0.119
Mof_C 	C 	0.488	0.6445	0.206	0.037
Mof_H 	H 	0.4784	0.6086	0.2119	0.021
Mof_C 	C 	0.4872	0.6815	0.2422	-0.12
Mof_C 	C 	0.988	0.8555	0.794	0.199
Mof_H 	H 	0.9784	0.8914	0.7881	-0.015
Mof_C 	C 	0.9872	0.8185	0.7578	0.203
Mof_C 	C 	0.988	0.3555	0.294	0.224
Mof_H 	H 	0.9784	0.3914	0.2881	-0.02
Mof_C 	C 	0.9872	0.3185	0.2578	0.248
Mof_C 	C 	0.488	0.8555	0.294	0.035
Mof_H 	H 	0.4784	0.8914	0.2881	0.022
Mof_C 	C 	0.4872	0.8185	0.2578	-0.121
Mof_C 	C 	0.488	0.3555	0.794	0.036
Mof_H 	H 	0.4784	0.3914	0.7881	0.02
Mof_C 	C 	0.4872	0.3185	0.7578	-0.12
Mof_C 	C 	0.794	0.8555	0.988	0.199
Mof_H 	H 	0.7881	0.8914	0.9784	-0.015
Mof_C 	C 	0.7578	0.8185	0.9872	0.203
Mof_C 	C 	0.794	0.3555	0.488	0.036
Mof_H 	H 	0.7881	0.3914	0.4784	0.02
Mof_C 	C 	0.7578	0.3185	0.4872	-0.12
Mof_C 	C 	0.294	0.8555	0.488	0.035
Mof_H 	H 	0.2881	0.8914	0.4784	0.022
Mof_C 	C 	0.2578	0.8185	0.4872	-0.121
Mof_C 	C 	0.294	0.3555	0.988	0.224
Mof_H 	H 	0.2881	0.3914	0.9784	-0.02
Mof_C 	C 	0.2578	0.3185	0.9872	0.248
Mof_C 	C 	0.206	0.1445	0.988	0.226
Mof_H 	H 	0.2119	0.1086	0.9784	-0.02
Mof_C 	C 	0.2422	0.1815	0.9872	0.255
Mof_C 	C 	0.206	0.6445	0.488	0.037
Mof_H 	H 	0.2119	0.6086	0.4784	0.021
Mof_C 	C 	0.2422	0.6815	0.4872	-0.12
Mof_C 	C 	0.706	0.1445	0.488	0.037
Mof_H 	H 	0.7119	0.1086	0.4784	0.021
Mof_C 	C 	0.7422	0.1815	0.4872	-0.119
Mof_C 	C 	0.706	0.6445	0.988	0.204
Mof_H 	H 	0.7119	0.6086	0.9784	-0.016
Mof_C 	C 	0.7422	0.6815	0.9872	0.214
Mof_C 	C 	0.206	0.8555	0.012	-0.12
Mof_H 	H 	0.2119	0.8914	0.0216	0.059
Mof_C 	C 	0.2422	0.8185	0.0128	-0.452
Mof_C 	C 	0.206	0.3555	0.512	0.036
Mof_H 	H 	0.2119	0.3914	0.5216	0.021
Mof_C 	C 	0.2422	0.3185	0.5128	-0.122
Mof_C 	C 	0.706	0.8555	0.512	0.034
Mof_H 	H 	0.7119	0.8914	0.5216	0.022
Mof_C 	C 	0.7422	0.8185	0.5128	-0.122
Mof_C 	C 	0.706	0.3555	0.012	-0.119
Mof_H 	H 	0.7119	0.3914	0.0216	0.057
Mof_C 	C 	0.7422	0.3185	0.0128	-0.455
Mof_C 	C 	0.794	0.1445	0.012	-0.128
Mof_H 	H 	0.7881	0.1086	0.0216	0.059
Mof_C 	C 	0.7578	0.1815	0.0128	-0.469
Mof_C 	C 	0.794	0.6445	0.512	0.034
Mof_H 	H 	0.7881	0.6086	0.5216	0.02
Mof_C 	C 	0.7578	0.6815	0.5128	-0.123
Mof_C 	C 	0.294	0.1445	0.512	0.036
Mof_H 	H 	0.2881	0.1086	0.5216	0.021
Mof_C 	C 	0.2578	0.1815	0.5128	-0.123
Mof_C 	C 	0.294	0.6445	0.012	-0.128
Mof_H 	H 	0.2881	0.6086	0.0216	0.059
Mof_C 	C 	0.2578	0.6815	0.0128	-0.472
Mof_C 	C 	0.988	0.794	0.8555	0.199
Mof_H 	H 	0.9784	0.7881	0.8914	-0.015
Mof_C 	C 	0.9872	0.7578	0.8185	0.203
Mof_C 	C 	0.988	0.294	0.3555	0.224
Mof_H 	H 	0.9784	0.2881	0.3914	-0.02
Mof_C 	C 	0.9872	0.2578	0.3185	0.248
Mof_C 	C 	0.488	0.794	0.3555	0.036
Mof_H 	H 	0.4784	0.7881	0.3914	0.02
Mof_C 	C 	0.4872	0.7578	0.3185	-0.12
Mof_C 	C 	0.488	0.294	0.8555	0.035
Mof_H 	H 	0.4784	0.2881	0.8914	0.022
Mof_C 	C 	0.4872	0.2578	0.8185	-0.121
Mof_C 	C 	0.988	0.206	0.1445	0.226
Mof_H 	H 	0.9784	0.2119	0.1086	-0.02
Mof_C 	C 	0.9872	0.2422	0.1815	0.255
Mof_C 	C 	0.988	0.706	0.6445	0.204
Mof_H 	H 	0.9784	0.7119	0.6086	-0.016
Mof_C 	C 	0.9872	0.7422	0.6815	0.214
Mof_C 	C 	0.488	0.206	0.6445	0.037
Mof_H 	H 	0.4784	0.2119	0.6086	0.021
Mof_C 	C 	0.4872	0.2422	0.6815	-0.12
Mof_C 	C 	0.488	0.706	0.1445	0.037
Mof_H 	H 	0.4784	0.7119	0.1086	0.021
Mof_C 	C 	0.4872	0.7422	0.1815	-0.119
Mof_C 	C 	0.012	0.206	0.8555	-0.12
Mof_H 	H 	0.0216	0.2119	0.8914	0.059
Mof_C 	C 	0.0128	0.2422	0.8185	-0.452
Mof_C 	C 	0.012	0.706	0.3555	-0.119
Mof_H 	H 	0.0216	0.7119	0.3914	0.057
Mof_C 	C 	0.0128	0.7422	0.3185	-0.455
Mof_C 	C 	0.512	0.206	0.3555	0.036
Mof_H 	H 	0.5216	0.2119	0.3914	0.021
Mof_C 	C 	0.5128	0.2422	0.3185	-0.122
Mof_C 	C 	0.512	0.706	0.8555	0.034
Mof_H 	H 	0.5216	0.7119	0.8914	0.022
Mof_C 	C 	0.5128	0.7422	0.8185	-0.122
Mof_C 	C 	0.012	0.794	0.1445	-0.128
Mof_H 	H 	0.0216	0.7881	0.1086	0.059
Mof_C 	C 	0.0128	0.7578	0.1815	-0.469
Mof_C 	C 	0.012	0.294	0.6445	-0.128
Mof_H 	H 	0.0216	0.2881	0.6086	0.059
Mof_C 	C 	0.0128	0.2578	0.6815	-0.472
Mof_C 	C 	0.512	0.794	0.6445	0.034
Mof_H 	H 	0.5216	0.7881	0.6086	0.02
Mof_C 	C 	0.5128	0.7578	0.6815	-0.123
Mof_C 	C 	0.512	0.294	0.1445	0.036
Mof_H 	H 	0.5216	0.2881	0.1086	0.021
Mof_C 	C 	0.5128	0.2578	0.1815	-0.123
Mof_C 	C 	0.8555	0.988	0.794	0.199
Mof_H 	H 	0.8914	0.9784	0.7881	-0.015
Mof_C 	C 	0.8185	0.9872	0.7578	0.203
Mof_C 	C 	0.8555	0.488	0.294	0.035
Mof_H 	H 	0.8914	0.4784	0.2881	0.022
Mof_C 	C 	0.8185	0.4872	0.2578	-0.121
Mof_C 	C 	0.3555	0.988	0.294	0.224
Mof_H 	H 	0.3914	0.9784	0.2881	-0.02
Mof_C 	C 	0.3185	0.9872	0.2578	0.248
Mof_C 	C 	0.3555	0.488	0.794	0.036
Mof_H 	H 	0.3914	0.4784	0.7881	0.02
Mof_C 	C 	0.3185	0.4872	0.7578	-0.12
Mof_C 	C 	0.1445	0.988	0.206	0.226
Mof_H 	H 	0.1086	0.9784	0.2119	-0.02
Mof_C 	C 	0.1815	0.9872	0.2422	0.255
Mof_C 	C 	0.1445	0.488	0.706	0.037
Mof_H 	H 	0.1086	0.4784	0.7119	0.021
Mof_C 	C 	0.1815	0.4872	0.7422	-0.119
Mof_C 	C 	0.6445	0.988	0.706	0.204
Mof_H 	H 	0.6086	0.9784	0.7119	-0.016
Mof_C 	C 	0.6815	0.9872	0.7422	0.214
Mof_C 	C 	0.6445	0.488	0.206	0.037
Mof_H 	H 	0.6086	0.4784	0.2119	0.021
Mof_C 	C 	0.6815	0.4872	0.2422	-0.12
Mof_C 	C 	0.8555	0.012	0.206	-0.12
Mof_H 	H 	0.8914	0.0216	0.2119	0.059
Mof_C 	C 	0.8185	0.0128	0.2422	-0.452
Mof_C 	C 	0.8555	0.512	0.706	0.034
Mof_H 	H 	0.8914	0.5216	0.7119	0.022
Mof_C 	C 	0.8185	0.5128	0.7422	-0.122
Mof_C 	C 	0.3555	0.012	0.706	-0.119
Mof_H 	H 	0.3914	0.0216	0.7119	0.057
Mof_C 	C 	0.3185	0.0128	0.7422	-0.455
Mof_C 	C 	0.3555	0.512	0.206	0.036
Mof_H 	H 	0.3914	0.5216	0.2119	0.021
Mof_C 	C 	0.3185	0.5128	0.2422	-0.122
Mof_C 	C 	0.1445	0.012	0.794	-0.128
Mof_H 	H 	0.1086	0.0216	0.7881	0.059
Mof_C 	C 	0.1815	0.0128	0.7578	-0.469
Mof_C 	C 	0.1445	0.512	0.294	0.036
Mof_H 	H 	0.1086	0.5216	0.2881	0.021
Mof_C 	C 	0.1815	0.5128	0.2578	-0.123
Mof_C 	C 	0.6445	0.012	0.294	-0.128
Mof_H 	H 	0.6086	0.0216	0.2881	0.059
Mof_C 	C 	0.6815	0.0128	0.2578	-0.472
Mof_C 	C 	0.6445	0.512	0.794	0.034
Mof_H 	H 	0.6086	0.5216	0.7881	0.02
Mof_C 	C 	0.6815	0.5128	0.7578	-0.123
Mof_C 	C 	0.8555	0.794	0.012	-0.115
Mof_H 	H 	0.8914	0.7881	0.0216	0.057
Mof_C 	C 	0.8185	0.7578	0.0128	-0.436
Mof_C 	C 	0.8555	0.294	0.512	0.034
Mof_H 	H 	0.8914	0.2881	0.5216	0.022
Mof_C 	C 	0.8185	0.2578	0.5128	-0.122
Mof_C 	C 	0.3555	0.794	0.512	0.035
Mof_H 	H 	0.3914	0.7881	0.5216	0.02
Mof_C 	C 	0.3185	0.7578	0.5128	-0.123
Mof_C 	C 	0.3555	0.294	0.012	-0.132
Mof_H 	H 	0.3914	0.2881	0.0216	0.06
Mof_C 	C 	0.3185	0.2578	0.0128	-0.48
Mof_C 	C 	0.1445	0.206	0.012	-0.132
Mof_H 	H 	0.1086	0.2119	0.0216	0.061
Mof_C 	C 	0.1815	0.2422	0.0128	-0.485
Mof_C 	C 	0.1445	0.706	0.512	0.036
Mof_H 	H 	0.1086	0.7119	0.5216	0.021
Mof_C 	C 	0.1815	0.7422	0.5128	-0.122
Mof_C 	C 	0.6445	0.206	0.512	0.035
Mof_H 	H 	0.6086	0.2119	0.5216	0.021
Mof_C 	C 	0.6815	0.2422	0.5128	-0.122
Mof_C 	C 	0.6445	0.706	0.012	-0.115
Mof_H 	H 	0.6086	0.7119	0.0216	0.056
Mof_C 	C 	0.6815	0.7422	0.0128	-0.447
Mof_C 	C 	0.8555	0.206	0.988	0.207
Mof_H 	H 	0.8914	0.2119	0.9784	-0.015
Mof_C 	C 	0.8185	0.2422	0.9872	0.221
Mof_C 	C 	0.8555	0.706	0.488	0.034
Mof_H 	H 	0.8914	0.7119	0.4784	0.022
Mof_C 	C 	0.8185	0.7422	0.4872	-0.12
Mof_C 	C 	0.3555	0.206	0.488	0.037
Mof_H 	H 	0.3914	0.2119	0.4784	0.021
Mof_C 	C 	0.3185	0.2422	0.4872	-0.12
Mof_C 	C 	0.3555	0.706	0.988	0.209
Mof_H 	H 	0.3914	0.7119	0.9784	-0.017
Mof_C 	C 	0.3185	0.7422	0.9872	0.223
Mof_C 	C 	0.1445	0.794	0.988	0.218
Mof_H 	H 	0.1086	0.7881	0.9784	-0.019
Mof_C 	C 	0.1815	0.7578	0.9872	0.237
Mof_C 	C 	0.1445	0.294	0.488	0.038
Mof_H 	H 	0.1086	0.2881	0.4784	0.021
Mof_C 	C 	0.1815	0.2578	0.4872	-0.12
Mof_C 	C 	0.6445	0.794	0.488	0.035
Mof_H 	H 	0.6086	0.7881	0.4784	0.02
Mof_C 	C 	0.6815	0.7578	0.4872	-0.121
Mof_C 	C 	0.6445	0.294	0.988	0.218
Mof_H 	H 	0.6086	0.2881	0.9784	-0.019
Mof_C 	C 	0.6815	0.2578	0.9872	0.239
Mof_C 	C 	0.794	0.988	0.1445	0.218
Mof_H 	H 	0.7881	0.9784	0.1086	-0.019
Mof_C 	C 	0.7578	0.9872	0.1815	0.237
Mof_C 	C 	0.794	0.488	0.6445	0.035
Mof_H 	H 	0.7881	0.4784	0.6086	0.02
Mof_C 	C 	0.7578	0.4872	0.6815	-0.121
Mof_C 	C 	0.294	0.988	0.6445	0.218
Mof_H 	H 	0.2881	0.9784	0.6086	-0.019
Mof_C 	C 	0.2578	0.9872	0.6815	0.239
Mof_C 	C 	0.294	0.488	0.1445	0.038
Mof_H 	H 	0.2881	0.4784	0.1086	0.021
Mof_C 	C 	0.2578	0.4872	0.1815	-0.12
Mof_C 	C 	0.206	0.988	0.8555	0.207
Mof_H 	H 	0.2119	0.9784	0.8914	-0.015
Mof_C 	C 	0.2422	0.9872	0.8185	0.221
Mof_C 	C 	0.206	0.488	0.3555	0.037
Mof_H 	H 	0.2119	0.4784	0.3914	0.021
Mof_C 	C 	0.2422	0.4872	0.3185	-0.12
Mof_C 	C 	0.706	0.988	0.3555	0.209
Mof_H 	H 	0.7119	0.9784	0.3914	-0.017
Mof_C 	C 	0.7422	0.9872	0.3185	0.223
Mof_C 	C 	0.706	0.488	0.8555	0.034
Mof_H 	H 	0.7119	0.4784	0.8914	0.022
Mof_C 	C 	0.7422	0.4872	0.8185	-0.12
Mof_C 	C 	0.206	0.012	0.1445	-0.132
Mof_H 	H 	0.2119	0.0216	0.1086	0.061
Mof_C 	C 	0.2422	0.0128	0.1815	-0.485
Mof_C 	C 	0.206	0.512	0.6445	0.035
Mof_H 	H 	0.2119	0.5216	0.6086	0.021
Mof_C 	C 	0.2422	0.5128	0.6815	-0.122
Mof_C 	C 	0.706	0.012	0.6445	-0.115
Mof_H 	H 	0.7119	0.0216	0.6086	0.056
Mof_C 	C 	0.7422	0.0128	0.6815	-0.447
Mof_C 	C 	0.706	0.512	0.1445	0.036
Mof_H 	H 	0.7119	0.5216	0.1086	0.021
Mof_C 	C 	0.7422	0.5128	0.1815	-0.122
Mof_C 	C 	0.794	0.012	0.8555	-0.115
Mof_H 	H 	0.7881	0.0216	0.8914	0.057
Mof_C 	C 	0.7578	0.0128	0.8185	-0.436
Mof_C 	C 	0.794	0.512	0.3555	0.035
Mof_H 	H 	0.7881	0.5216	0.3914	0.02
Mof_C 	C 	0.7578	0.5128	0.3185	-0.123
Mof_C 	C 	0.294	0.012	0.3555	-0.132
Mof_H 	H 	0.2881	0.0216	0.3914	0.06
Mof_C 	C 	0.2578	0.0128	0.3185	-0.48
Mof_C 	C 	0.294	0.512	0.8555	0.034
Mof_H 	H 	0.2881	0.5216	0.8914	0.022
Mof_C 	C 	0.2578	0.5128	0.8185	-0.122
Mof_C 	C 	0.988	0.8555	0.206	0.207
Mof_H 	H 	0.9784	0.8914	0.2119	-0.015
Mof_C 	C 	0.9872	0.8185	0.2422	0.221
Mof_C 	C 	0.988	0.3555	0.706	0.209
Mof_H 	H 	0.9784	0.3914	0.7119	-0.017
Mof_C 	C 	0.9872	0.3185	0.7422	0.223
Mof_C 	C 	0.488	0.8555	0.706	0.034
Mof_H 	H 	0.4784	0.8914	0.7119	0.022
Mof_C 	C 	0.4872	0.8185	0.7422	-0.12
Mof_C 	C 	0.488	0.3555	0.206	0.037
Mof_H 	H 	0.4784	0.3914	0.2119	0.021
Mof_C 	C 	0.4872	0.3185	0.2422	-0.12
Mof_C 	C 	0.988	0.1445	0.794	0.218
Mof_H 	H 	0.9784	0.1086	0.7881	-0.019
Mof_C 	C 	0.9872	0.1815	0.7578	0.237
Mof_C 	C 	0.988	0.6445	0.294	0.218
Mof_H 	H 	0.9784	0.6086	0.2881	-0.019
Mof_C 	C 	0.9872	0.6815	0.2578	0.239
Mof_C 	C 	0.488	0.1445	0.294	0.038
Mof_H 	H 	0.4784	0.1086	0.2881	0.021
Mof_C 	C 	0.4872	0.1815	0.2578	-0.12
Mof_C 	C 	0.488	0.6445	0.794	0.035
Mof_H 	H 	0.4784	0.6086	0.7881	0.02
Mof_C 	C 	0.4872	0.6815	0.7578	-0.121
Mof_C 	C 	0.012	0.8555	0.794	-0.115
Mof_H 	H 	0.0216	0.8914	0.7881	0.057
Mof_C 	C 	0.0128	0.8185	0.7578	-0.436
Mof_C 	C 	0.012	0.3555	0.294	-0.132
Mof_H 	H 	0.0216	0.3914	0.2881	0.06
Mof_C 	C 	0.0128	0.3185	0.2578	-0.48
Mof_C 	C 	0.512	0.8555	0.294	0.034
Mof_H 	H 	0.5216	0.8914	0.2881	0.022
Mof_C 	C 	0.5128	0.8185	0.2578	-0.122
Mof_C 	C 	0.512	0.3555	0.794	0.035
Mof_H 	H 	0.5216	0.3914	0.7881	0.02
Mof_C 	C 	0.5128	0.3185	0.7578	-0.123
Mof_C 	C 	0.012	0.1445	0.206	-0.132
Mof_H 	H 	0.0216	0.1086	0.2119	0.061
Mof_C 	C 	0.0128	0.1815	0.2422	-0.485
Mof_C 	C 	0.012	0.6445	0.706	-0.115
Mof_H 	H 	0.0216	0.6086	0.7119	0.056
Mof_C 	C 	0.0128	0.6815	0.7422	-0.447
Mof_C 	C 	0.512	0.1445	0.706	0.036
Mof_H 	H 	0.5216	0.1086	0.7119	0.021
Mof_C 	C 	0.5128	0.1815	0.7422	-0.122
Mof_C 	C 	0.512	0.6445	0.206	0.035
Mof_H 	H 	0.5216	0.6086	0.2119	0.021
Mof_C 	C 	0.5128	0.6815	0.2422	-0.122
Mof_Zr	Zr	0.09223	0	-0	3.258
Mof_Zr	Zr	0.09223	0.5	0.5	3.265
Mof_Zr	Zr	0.59223	0	0.5	3.259
Mof_Zr	Zr	0.59223	0.5	-0	3.259
Mof_Zr	Zr	0.90777	0	-0	3.253
Mof_Zr	Zr	0.90777	0.5	0.5	3.259
Mof_Zr	Zr	0.40777	0	0.5	3.259
Mof_Zr	Zr	0.40777	0.5	-0	3.259
Mof_Zr	Zr	6.61527e-34	0.09223	-0	3.258
Mof_Zr	Zr	-8.70973e-33	0.59223	0.5	3.259
Mof_Zr	Zr	0.5	0.09223	0.5	3.265
Mof_Zr	Zr	0.5	0.59223	-0	3.259
Mof_Zr	Zr	-0	0.90777	-0	3.253
Mof_Zr	Zr	1.8747e-33	0.40777	0.5	3.259
Mof_Zr	Zr	0.5	0.90777	0.5	3.259
Mof_Zr	Zr	0.5	0.40777	-0	3.259
Mof_Zr	Zr	3.45807e-34	6.61527e-34	0.09223	3.258
Mof_Zr	Zr	-1.36561e-32	0.5	0.59223	3.259
Mof_Zr	Zr	0.5	-5.29222e-33	0.59223	3.259
Mof_Zr	Zr	0.5	0.5	0.09223	3.265
Mof_Zr	Zr	3.40359e-33	0	0.90777	3.253
Mof_Zr	Zr	1.52889e-33	0.5	0.40777	3.259
Mof_Zr	Zr	0.5	0	0.40777	3.259
Mof_Zr	Zr	0.5	0.5	0.90777	3.259
Mof_O 	O 	0.1326	0.0725	-0	-0.685
Mof_O 	O 	0.1326	0.5725	0.5	-0.667
Mof_O 	O 	0.6326	0.0725	0.5	-0.669
Mof_O 	O 	0.6326	0.5725	-0	-0.682
Mof_O 	O 	0.8674	0.9275	-0	-0.669
Mof_O 	O 	0.8674	0.4275	0.5	-0.666
Mof_O 	O 	0.3674	0.9275	0.5	-0.656
Mof_O 	O 	0.3674	0.4275	-0	-0.682
Mof_O 	O 	0.8674	0.0725	-0	-0.683
Mof_O 	O 	0.8674	0.5725	0.5	-0.667
Mof_O 	O 	0.3674	0.0725	0.5	-0.669
Mof_O 	O 	0.3674	0.5725	-0	-0.682
Mof_O 	O 	0.1326	0.9275	-0	-0.67
Mof_O 	O 	0.1326	0.4275	0.5	-0.667
Mof_O 	O 	0.6326	0.9275	0.5	-0.656
Mof_O 	O 	0.6326	0.4275	-0	-0.682
Mof_O 	O 	-2.37428e-33	0.1326	0.0725	-0.685
Mof_O 	O 	7.43875e-33	0.6326	0.5725	-0.682
Mof_O 	O 	0.5	0.1326	0.5725	-0.667
Mof_O 	O 	0.5	0.6326	0.0725	-0.669
Mof_O 	O 	1.4062e-32	0.8674	0.9275	-0.669
Mof_O 	O 	1.60287e-33	0.3674	0.4275	-0.682
Mof_O 	O 	0.5	0.8674	0.4275	-0.666
Mof_O 	O 	0.5	0.3674	0.9275	-0.656
Mof_O 	O 	2.91794e-33	0.8674	0.0725	-0.683
Mof_O 	O 	7.43875e-33	0.3674	0.5725	-0.682
Mof_O 	O 	0.5	0.8674	0.5725	-0.667
Mof_O 	O 	0.5	0.3674	0.0725	-0.669
Mof_O 	O 	1.4062e-32	0.1326	0.9275	-0.67
Mof_O 	O 	1.21873e-32	0.6326	0.4275	-0.682
Mof_O 	O 	0.5	0.1326	0.4275	-0.667
Mof_O 	O 	0.5	0.6326	0.9275	-0.656
Mof_O 	O 	0.0725	0	0.1326	-0.685
Mof_O 	O 	0.0725	0.5	0.6326	-0.669
Mof_O 	O 	0.5725	0	0.6326	-0.682
Mof_O 	O 	0.5725	0.5	0.1326	-0.667
Mof_O 	O 	0.9275	0	0.8674	-0.669
Mof_O 	O 	0.9275	0.5	0.3674	-0.656
Mof_O 	O 	0.4275	-2.64611e-33	0.3674	-0.682
Mof_O 	O 	0.4275	0.5	0.8674	-0.666
Mof_O 	O 	0.0725	0	0.8674	-0.683
Mof_O 	O 	0.0725	0.5	0.3674	-0.669
Mof_O 	O 	0.5725	-2.64611e-33	0.3674	-0.682
Mof_O 	O 	0.5725	0.5	0.8674	-0.667
Mof_O 	O 	0.9275	0	0.1326	-0.67
Mof_O 	O 	0.9275	0.5	0.6326	-0.656
Mof_O 	O 	0.4275	0	0.6326	-0.682
Mof_O 	O 	0.4275	0.5	0.1326	-0.667
Mof_O 	O 	0.0725	0.1326	-0	-0.685
Mof_O 	O 	0.0725	0.6326	0.5	-0.669
Mof_O 	O 	0.5725	0.1326	0.5	-0.667
Mof_O 	O 	0.5725	0.6326	-0	-0.682
Mof_O 	O 	0.9275	0.8674	-0	-0.669
Mof_O 	O 	0.9275	0.3674	0.5	-0.656
Mof_O 	O 	0.4275	0.8674	0.5	-0.666
Mof_O 	O 	0.4275	0.3674	-0	-0.682
Mof_O 	O 	0.0725	0.8674	-0	-0.683
Mof_O 	O 	0.0725	0.3674	0.5	-0.669
Mof_O 	O 	0.5725	0.8674	0.5	-0.667
Mof_O 	O 	0.5725	0.3674	-0	-0.682
Mof_O 	O 	0.9275	0.1326	-0	-0.67
Mof_O 	O 	0.9275	0.6326	0.5	-0.656
Mof_O 	O 	0.4275	0.1326	0.5	-0.667
Mof_O 	O 	0.4275	0.6326	-0	-0.682
Mof_O 	O 	0.1326	1.05844e-32	0.9275	-0.67
Mof_O 	O 	0.1326	0.5	0.4275	-0.667
Mof_O 	O 	0.6326	0	0.4275	-0.682
Mof_O 	O 	0.6326	0.5	0.9275	-0.656
Mof_O 	O 	0.8674	-6.61527e-34	0.0725	-0.683
Mof_O 	O 	0.8674	0.5	0.5725	-0.667
Mof_O 	O 	0.3674	0	0.5725	-0.682
Mof_O 	O 	0.3674	0.5	0.0725	-0.669
Mof_O 	O 	0.8674	1.05844e-32	0.9275	-0.669
Mof_O 	O 	0.8674	0.5	0.4275	-0.666
Mof_O 	O 	0.3674	0	0.4275	-0.682
Mof_O 	O 	0.3674	0.5	0.9275	-0.656
Mof_O 	O 	0.1326	-6.61527e-34	0.0725	-0.685
Mof_O 	O 	0.1326	0.5	0.5725	-0.667
Mof_O 	O 	0.6326	0	0.5725	-0.682
Mof_O 	O 	0.6326	0.5	0.0725	-0.669
Mof_O 	O 	3.25223e-33	0.0725	0.8674	-0.683
Mof_O 	O 	6.66975e-33	0.5725	0.3674	-0.682
Mof_O 	O 	0.5	0.0725	0.3674	-0.669
Mof_O 	O 	0.5	0.5725	0.8674	-0.667
Mof_O 	O 	1.10816e-32	0.9275	0.1326	-0.67
Mof_O 	O 	1.29563e-32	0.4275	0.6326	-0.682
Mof_O 	O 	0.5	0.9275	0.6326	-0.656
Mof_O 	O 	0.5	0.4275	0.1326	-0.667
Mof_O 	O 	-2.14894e-33	0.0725	0.1326	-0.685
Mof_O 	O 	2.37187e-33	0.5725	0.6326	-0.682
Mof_O 	O 	0.5	0.0725	0.6326	-0.669
Mof_O 	O 	0.5	0.5725	0.1326	-0.667
Mof_O 	O 	1.38367e-32	0.9275	0.8674	-0.669
Mof_O 	O 	1.37753e-33	0.4275	0.3674	-0.682
Mof_O 	O 	0.5	0.9275	0.3674	-0.656
Mof_O 	O 	0.5	0.4275	0.8674	-0.666
Mof_C 	C 	0.1176	0.1176	-0	0.539
Mof_C 	C 	0.1565	0.1565	-0	-0.229
Mof_C 	C 	0.2305	0.2305	-0	-0.039
Mof_C 	C 	0.1176	0.6176	0.5	0.527
Mof_C 	C 	0.1565	0.6565	0.5	-0.191
Mof_C 	C 	0.2305	0.7305	0.5	-0.012
Mof_C 	C 	0.6176	0.1176	0.5	0.527
Mof_C 	C 	0.6565	0.1565	0.5	-0.191
Mof_C 	C 	0.7305	0.2305	0.5	-0.012
Mof_C 	C 	0.6176	0.6176	-0	0.532
Mof_C 	C 	0.6565	0.6565	-0	-0.228
Mof_C 	C 	0.7305	0.7305	-0	-0.037
Mof_C 	C 	0.8824	0.8824	-0	0.522
Mof_C 	C 	0.8435	0.8435	-0	-0.224
Mof_C 	C 	0.7695	0.7695	-0	-0.038
Mof_C 	C 	0.8824	0.3824	0.5	0.519
Mof_C 	C 	0.8435	0.3435	0.5	-0.192
Mof_C 	C 	0.7695	0.2695	0.5	-0.013
Mof_C 	C 	0.3824	0.8824	0.5	0.519
Mof_C 	C 	0.3435	0.8435	0.5	-0.192
Mof_C 	C 	0.2695	0.7695	0.5	-0.013
Mof_C 	C 	0.3824	0.3824	-0	0.533
Mof_C 	C 	0.3435	0.3435	-0	-0.231
Mof_C 	C 	0.2695	0.2695	-0	-0.038
Mof_C 	C 	0.8824	0.1176	-0	0.53
Mof_C 	C 	0.8435	0.1565	-0	-0.227
Mof_C 	C 	0.7695	0.2305	-0	-0.038
Mof_C 	C 	0.8824	0.6176	0.5	0.519
Mof_C 	C 	0.8435	0.6565	0.5	-0.192
Mof_C 	C 	0.7695	0.7305	0.5	-0.013
Mof_C 	C 	0.3824	0.1176	0.5	0.527
Mof_C 	C 	0.3435	0.1565	0.5	-0.191
Mof_C 	C 	0.2695	0.2305	0.5	-0.011
Mof_C 	C 	0.3824	0.6176	-0	0.532
Mof_C 	C 	0.3435	0.6565	-0	-0.23
Mof_C 	C 	0.2695	0.7305	-0	-0.038
Mof_C 	C 	0.1176	0.8824	-0	0.53
Mof_C 	C 	0.1565	0.8435	-0	-0.227
Mof_C 	C 	0.2305	0.7695	-0	-0.038
Mof_C 	C 	0.1176	0.3824	0.5	0.527
Mof_C 	C 	0.1565	0.3435	0.5	-0.191
Mof_C 	C 	0.2305	0.2695	0.5	-0.011
Mof_C 	C 	0.6176	0.8824	0.5	0.519
Mof_C 	C 	0.6565	0.8435	0.5	-0.192
Mof_C 	C 	0.7305	0.7695	0.5	-0.013
Mof_C 	C 	0.6176	0.3824	-0	0.532
Mof_C 	C 	0.6565	0.3435	-0	-0.23
Mof_C 	C 	0.7305	0.2695	-0	-0.038
Mof_C 	C 	3.08704e-33	0.1176	0.1176	0.539
Mof_C 	C 	5.86781e-34	0.1565	0.1565	-0.229
Mof_C 	C 	8.64237e-34	0.2305	0.2305	-0.039
Mof_C 	C 	1.29001e-32	0.6176	0.6176	0.532
Mof_C 	C 	-8.12295e-33	0.6565	0.6565	-0.228
Mof_C 	C 	1.33234e-32	0.7305	0.7305	-0.037
Mof_C 	C 	0.5	0.1176	0.6176	0.527
Mof_C 	C 	0.5	0.1565	0.6565	-0.191
Mof_C 	C 	0.5	0.2305	0.7305	-0.012
Mof_C 	C 	0.5	0.6176	0.1176	0.527
Mof_C 	C 	0.5	0.6565	0.1565	-0.191
Mof_C 	C 	0.5	0.7305	0.2305	-0.012
Mof_C 	C 	-1.78604e-32	0.8824	0.8824	0.522
Mof_C 	C 	3.16262e-33	0.8435	0.8435	-0.224
Mof_C 	C 	-7.69927e-33	0.7695	0.7695	-0.038
Mof_C 	C 	6.72599e-33	0.3824	0.3824	0.533
Mof_C 	C 	1.28792e-33	0.3435	0.3435	-0.231
Mof_C 	C 	1.01046e-33	0.2695	0.2695	-0.038
Mof_C 	C 	0.5	0.8824	0.3824	0.519
Mof_C 	C 	0.5	0.8435	0.3435	-0.192
Mof_C 	C 	0.5	0.7695	0.2695	-0.013
Mof_C 	C 	0.5	0.3824	0.8824	0.519
Mof_C 	C 	0.5	0.3435	0.8435	-0.192
Mof_C 	C 	0.5	0.2695	0.7695	-0.013
Mof_C 	C 	-6.17434e-33	0.8824	0.1176	0.53
Mof_C 	C 	-3.38238e-33	0.8435	0.1565	-0.227
Mof_C 	C 	-4.42798e-33	0.7695	0.2305	-0.038
Mof_C 	C 	7.60785e-33	0.3824	0.6176	0.532
Mof_C 	C 	-1.34152e-32	0.3435	0.6565	-0.23
Mof_C 	C 	8.03115e-33	0.2695	0.7305	-0.038
Mof_C 	C 	0.5	0.8824	0.6176	0.519
Mof_C 	C 	0.5	0.8435	0.6565	-0.192
Mof_C 	C 	0.5	0.7695	0.7305	-0.013
Mof_C 	C 	0.5	0.3824	0.1176	0.527
Mof_C 	C 	0.5	0.3435	0.1565	-0.191
Mof_C 	C 	0.5	0.2695	0.2305	-0.011
Mof_C 	C 	-7.27596e-33	0.1176	0.8824	0.53
Mof_C 	C 	-7.42182e-33	0.1565	0.8435	-0.227
Mof_C 	C 	-2.40705e-33	0.2305	0.7695	-0.038
Mof_C 	C 	6.72599e-33	0.6176	0.3824	0.532
Mof_C 	C 	-9.29652e-33	0.6565	0.3435	-0.23
Mof_C 	C 	6.30268e-33	0.7305	0.2695	-0.038
Mof_C 	C 	0.5	0.1176	0.3824	0.527
Mof_C 	C 	0.5	0.1565	0.3435	-0.191
Mof_C 	C 	0.5	0.2305	0.2695	-0.011
Mof_C 	C 	0.5	0.6176	0.8824	0.519
Mof_C 	C 	0.5	0.6565	0.8435	-0.192
Mof_C 	C 	0.5	0.7305	0.7695	-0.013
Mof_C 	C 	0.1176	1.32305e-33	0.1176	0.539
Mof_C 	C 	0.1565	0	0.1565	-0.229
Mof_C 	C 	0.2305	0	0.2305	-0.039
Mof_C 	C 	0.1176	0.5	0.6176	0.527
Mof_C 	C 	0.1565	0.5	0.6565	-0.191
Mof_C 	C 	0.2305	0.5	0.7305	-0.012
Mof_C 	C 	0.6176	5.29222e-33	0.6176	0.532
Mof_C 	C 	0.6565	-5.29222e-33	0.6565	-0.228
Mof_C 	C 	0.7305	5.29222e-33	0.7305	-0.037
Mof_C 	C 	0.6176	0.5	0.1176	0.527
Mof_C 	C 	0.6565	0.5	0.1565	-0.191
Mof_C 	C 	0.7305	0.5	0.2305	-0.012
Mof_C 	C 	0.8824	-1.05844e-32	0.8824	0.522
Mof_C 	C 	0.8435	0	0.8435	-0.224
Mof_C 	C 	0.7695	-5.29222e-33	0.7695	-0.038
Mof_C 	C 	0.8824	0.5	0.3824	0.519
Mof_C 	C 	0.8435	0.5	0.3435	-0.192
Mof_C 	C 	0.7695	0.5	0.2695	-0.013
Mof_C 	C 	0.3824	2.64611e-33	0.3824	0.533
Mof_C 	C 	0.3435	0	0.3435	-0.231
Mof_C 	C 	0.2695	0	0.2695	-0.038
Mof_C 	C 	0.3824	0.5	0.8824	0.519
Mof_C 	C 	0.3435	0.5	0.8435	-0.192
Mof_C 	C 	0.2695	0.5	0.7695	-0.013
Mof_C 	C 	0.1176	-1.05844e-32	0.8824	0.53
Mof_C 	C 	0.1565	0	0.8435	-0.227
Mof_C 	C 	0.2305	-5.29222e-33	0.7695	-0.038
Mof_C 	C 	0.1176	0.5	0.3824	0.527
Mof_C 	C 	0.1565	0.5	0.3435	-0.191
Mof_C 	C 	0.2305	0.5	0.2695	-0.011
Mof_C 	C 	0.6176	2.64611e-33	0.3824	0.532
Mof_C 	C 	0.6565	0	0.3435	-0.23
Mof_C 	C 	0.7305	0	0.2695	-0.038
Mof_C 	C 	0.6176	0.5	0.8824	0.519
Mof_C 	C 	0.6565	0.5	0.8435	-0.192
Mof_C 	C 	0.7305	0.5	0.7695	-0.013
Mof_C 	C 	0.8824	1.32305e-33	0.1176	0.53
Mof_C 	C 	0.8435	0	0.1565	-0.227
Mof_C 	C 	0.7695	0	0.2305	-0.038
Mof_C 	C 	0.8824	0.5	0.6176	0.519
Mof_C 	C 	0.8435	0.5	0.6565	-0.192
Mof_C 	C 	0.7695	0.5	0.7305	-0.013
Mof_C 	C 	0.3824	5.29222e-33	0.6176	0.532
Mof_C 	C 	0.3435	-5.29222e-33	0.6565	-0.23
Mof_C 	C 	0.2695	5.29222e-33	0.7305	-0.038
Mof_C 	C 	0.3824	0.5	0.1176	0.527
Mof_C 	C 	0.3435	0.5	0.1565	-0.191
Mof_C 	C 	0.2695	0.5	0.2305	-0.011
Mof_O 	O 	0.0384	0.0384	0.0384	-2.735
Mof_O 	O 	0.0517	0.0517	0.0517	2.072
Mof_H 	H 	0.0733	0.0733	0.0733	-0.64
Mof_O 	O 	0.0384	0.5384	0.5384	-2.517
Mof_O 	O 	0.0517	0.5517	0.5517	1.832
Mof_H 	H 	0.0733	0.5733	0.5733	-0.576
Mof_O 	O 	0.5384	0.0384	0.5384	-2.517
Mof_O 	O 	0.5517	0.0517	0.5517	1.832
Mof_H 	H 	0.5733	0.0733	0.5733	-0.576
Mof_O 	O 	0.5384	0.5384	0.0384	-2.517
Mof_O 	O 	0.5517	0.5517	0.0517	1.832
Mof_H 	H 	0.5733	0.5733	0.0733	-0.576
Mof_O 	O 	0.9616	0.9616	0.0384	-2.245
Mof_O 	O 	0.9483	0.9483	0.0517	1.544
Mof_H 	H 	0.9267	0.9267	0.0733	-0.486
Mof_O 	O 	0.9616	0.4616	0.5384	-2.236
Mof_O 	O 	0.9483	0.4483	0.5517	1.527
Mof_H 	H 	0.9267	0.4267	0.5733	-0.487
Mof_O 	O 	0.4616	0.9616	0.5384	-2.236
Mof_O 	O 	0.4483	0.9483	0.5517	1.527
Mof_H 	H 	0.4267	0.9267	0.5733	-0.487
Mof_O 	O 	0.4616	0.4616	0.0384	-2.514
Mof_O 	O 	0.4483	0.4483	0.0517	1.829
Mof_H 	H 	0.4267	0.4267	0.0733	-0.575
Mof_O 	O 	0.9616	0.0384	0.9616	-2.245
Mof_O 	O 	0.9483	0.0517	0.9483	1.544
Mof_H 	H 	0.9267	0.0733	0.9267	-0.486
Mof_O 	O 	0.9616	0.5384	0.4616	-2.236
Mof_O 	O 	0.9483	0.5517	0.4483	1.527
Mof_H 	H 	0.9267	0.5733	0.4267	-0.487
Mof_O 	O 	0.4616	0.0384	0.4616	-2.514
Mof_O 	O 	0.4483	0.0517	0.4483	1.829
Mof_H 	H 	0.4267	0.0733	0.4267	-0.575
Mof_O 	O 	0.4616	0.5384	0.9616	-2.236
Mof_O 	O 	0.4483	0.5517	0.9483	1.527
Mof_H 	H 	0.4267	0.5733	0.9267	-0.487
Mof_O 	O 	0.0384	0.9616	0.9616	-2.245
Mof_O 	O 	0.0517	0.9483	0.9483	1.544
Mof_H 	H 	0.0733	0.9267	0.9267	-0.486
Mof_O 	O 	0.0384	0.4616	0.4616	-2.514
Mof_O 	O 	0.0517	0.4483	0.4483	1.829
Mof_H 	H 	0.0733	0.4267	0.4267	-0.575
Mof_O 	O 	0.5384	0.9616	0.4616	-2.236
Mof_O 	O 	0.5517	0.9483	0.4483	1.527
Mof_H 	H 	0.5733	0.9267	0.4267	-0.487
Mof_O 	O 	0.5384	0.4616	0.9616	-2.236
Mof_O 	O 	0.5517	0.4483	0.9483	1.527
Mof_H 	H 	0.5733	0.4267	0.9267	-0.487
Mof_O 	O 	0.0384	0.0384	0.9616	-2.514
Mof_O 	O 	0.0517	0.0517	0.9483	1.835
Mof_H 	H 	0.0733	0.0733	0.9267	-0.57
Mof_O 	O 	0.0384	0.5384	0.4616	-2.515
Mof_O 	O 	0.0517	0.5517	0.4483	1.831
Mof_H 	H 	0.0733	0.5733	0.4267	-0.575
Mof_O 	O 	0.5384	0.0384	0.4616	-2.515
Mof_O 	O 	0.5517	0.0517	0.4483	1.831
Mof_H 	H 	0.5733	0.0733	0.4267	-0.575
Mof_O 	O 	0.5384	0.5384	0.9616	-2.237
Mof_O 	O 	0.5517	0.5517	0.9483	1.528
Mof_H 	H 	0.5733	0.5733	0.9267	-0.487
Mof_O 	O 	0.9616	0.9616	0.9616	-1.93
Mof_O 	O 	0.9483	0.9483	0.9483	1.198
Mof_H 	H 	0.9267	0.9267	0.9267	-0.386
Mof_O 	O 	0.9616	0.4616	0.4616	-2.235
Mof_O 	O 	0.9483	0.4483	0.4483	1.527
Mof_H 	H 	0.9267	0.4267	0.4267	-0.486
Mof_O 	O 	0.4616	0.9616	0.4616	-2.235
Mof_O 	O 	0.4483	0.9483	0.4483	1.527
Mof_H 	H 	0.4267	0.9267	0.4267	-0.486
Mof_O 	O 	0.4616	0.4616	0.9616	-2.235
Mof_O 	O 	0.4483	0.4483	0.9483	1.527
Mof_H 	H 	0.4267	0.4267	0.9267	-0.486
Mof_O 	O 	0.0384	0.9616	0.0384	-2.514
Mof_O 	O 	0.0517	0.9483	0.0517	1.835
Mof_H 	H 	0.0733	0.9267	0.0733	-0.57
Mof_O 	O 	0.0384	0.4616	0.5384	-2.515
Mof_O 	O 	0.0517	0.4483	0.5517	1.831
Mof_H 	H 	0.0733	0.4267	0.5733	-0.575
Mof_O 	O 	0.5384	0.9616	0.5384	-2.237
Mof_O 	O 	0.5517	0.9483	0.5517	1.528
Mof_H 	H 	0.5733	0.9267	0.5733	-0.487
Mof_O 	O 	0.5384	0.4616	0.0384	-2.515
Mof_O 	O 	0.5517	0.4483	0.0517	1.831
Mof_H 	H 	0.5733	0.4267	0.0733	-0.575
Mof_O 	O 	0.9616	0.0384	0.0384	-2.514
Mof_O 	O 	0.9483	0.0517	0.0517	1.835
Mof_H 	H 	0.9267	0.0733	0.0733	-0.57
Mof_O 	O 	0.9616	0.5384	0.5384	-2.237
Mof_O 	O 	0.9483	0.5517	0.5517	1.528
Mof_H 	H 	0.9267	0.5733	0.5733	-0.487
Mof_O 	O 	0.4616	0.0384	0.5384	-2.515
Mof_O 	O 	0.4483	0.0517	0.5517	1.831
Mof_H 	H 	0.4267	0.0733	0.5733	-0.575
Mof_O 	O 	0.4616	0.5384	0.0384	-2.515
Mof_O 	O 	0.4483	0.5517	0.0517	1.831
Mof_H 	H 	0.4267	0.5733	0.0733	-0.575
Mof_Re	Re	0.3121	0.1879	0.0444	0.768
Mof_Cl	Cl	0.356	0.144	0.97	-0.322
Mof_Re	Re	0.3121	0.6879	0.5444	0.626
Mof_Cl	Cl	0.356	0.644	0.47	-0.392
Mof_Re	Re	0.6879	0.8121	0.0444	0.743
Mof_Cl	Cl	0.644	0.856	0.97	-0.327
Mof_Re	Re	0.6879	0.3121	0.5444	0.626
Mof_Cl	Cl	0.644	0.356	0.47	-0.392
Mof_Re	Re	0.1879	0.3121	0.0444	0.768
Mof_Cl	Cl	0.144	0.356	0.97	-0.322
Mof_Re	Re	0.6879	0.1879	0.9556	0.5
Mof_Cl	Cl	0.644	0.144	0.03	-0.464
Mof_Re	Re	0.6879	0.6879	0.4556	0.624
Mof_Cl	Cl	0.644	0.644	0.53	-0.392
Mof_Re	Re	0.1879	0.1879	0.4556	0.633
Mof_Cl	Cl	0.144	0.144	0.53	-0.396
Mof_Re	Re	0.3121	0.8121	0.9556	0.502
Mof_Cl	Cl	0.356	0.856	0.03	-0.456
Mof_Re	Re	0.3121	0.3121	0.4556	0.629
Mof_Cl	Cl	0.356	0.356	0.53	-0.392
Mof_Re	Re	0.0444	0.3121	0.1879	0.768
Mof_Cl	Cl	0.97	0.356	0.144	-0.322
Mof_Re	Re	0.5444	0.3121	0.6879	0.626
Mof_Cl	Cl	0.47	0.356	0.644	-0.392
Mof_Re	Re	0.0444	0.6879	0.8121	0.743
Mof_Cl	Cl	0.97	0.644	0.856	-0.327
Mof_Re	Re	0.0444	0.1879	0.3121	0.768
Mof_Cl	Cl	0.97	0.144	0.356	-0.322
Mof_Re	Re	0.5444	0.6879	0.3121	0.626
Mof_Cl	Cl	0.47	0.644	0.356	-0.392
Mof_Re	Re	0.9556	0.6879	0.1879	0.5
Mof_Cl	Cl	0.03	0.644	0.144	-0.464
Mof_Re	Re	0.4556	0.6879	0.6879	0.624
Mof_Cl	Cl	0.53	0.644	0.644	-0.392
Mof_Re	Re	0.4556	0.1879	0.1879	0.633
Mof_Cl	Cl	0.53	0.144	0.144	-0.396
Mof_Re	Re	0.9556	0.3121	0.8121	0.502
Mof_Cl	Cl	0.03	0.356	0.856	-0.456
Mof_Re	Re	0.4556	0.3121	0.3121	0.629
Mof_Cl	Cl	0.53	0.356	0.356	-0.392
Mof_Re	Re	0.1879	0.0444	0.3121	0.768
Mof_Cl	Cl	0.144	0.97	0.356	-0.322
Mof_Re	Re	0.1879	0.5444	0.8121	0.626
Mof_Cl	Cl	0.144	0.47	0.856	-0.391
Mof_Re	Re	0.8121	0.0444	0.6879	0.743
Mof_Cl	Cl	0.856	0.97	0.644	-0.327
Mof_Re	Re	0.8121	0.5444	0.1879	0.626
Mof_Cl	Cl	0.856	0.47	0.144	-0.391
Mof_Re	Re	0.3121	0.0444	0.1879	0.768
Mof_Cl	Cl	0.356	0.97	0.144	-0.322
Mof_Re	Re	0.1879	0.9556	0.6879	0.5
Mof_Cl	Cl	0.144	0.03	0.644	-0.464
Mof_Re	Re	0.1879	0.4556	0.1879	0.633
Mof_Cl	Cl	0.144	0.53	0.144	-0.396
Mof_Re	Re	0.8121	0.9556	0.3121	0.502
Mof_Cl	Cl	0.856	0.03	0.356	-0.456
Mof_Re	Re	0.8121	0.4556	0.8121	0.621
Mof_Cl	Cl	0.856	0.53	0.856	-0.388
Mof_Re	Re	0.3121	0.4556	0.3121	0.629
Mof_Cl	Cl	0.356	0.53	0.356	-0.392
Mof_Re	Re	0.1879	0.3121	0.9556	0.498
Mof_Cl	Cl	0.144	0.356	0.03	-0.466
Mof_Re	Re	0.1879	0.8121	0.4556	0.627
Mof_Cl	Cl	0.144	0.856	0.53	-0.392
Mof_Re	Re	0.8121	0.6879	0.9556	0.505
Mof_Cl	Cl	0.856	0.644	0.03	-0.454
Mof_Re	Re	0.8121	0.1879	0.4556	0.627
Mof_Cl	Cl	0.856	0.144	0.53	-0.392
Mof_Re	Re	0.3121	0.1879	0.9556	0.498
Mof_Cl	Cl	0.356	0.144	0.03	-0.466
Mof_Re	Re	0.1879	0.6879	0.0444	0.76
Mof_Cl	Cl	0.144	0.644	0.97	-0.325
Mof_Re	Re	0.1879	0.1879	0.5444	0.632
Mof_Cl	Cl	0.144	0.144	0.47	-0.395
Mof_Re	Re	0.8121	0.3121	0.0444	0.751
Mof_Cl	Cl	0.856	0.356	0.97	-0.324
Mof_Re	Re	0.8121	0.8121	0.5444	0.621
Mof_Cl	Cl	0.856	0.856	0.47	-0.388
Mof_Re	Re	0.3121	0.3121	0.5444	0.629
Mof_Cl	Cl	0.356	0.356	0.47	-0.392
Mof_Re	Re	0.3121	0.0444	0.8121	0.751
Mof_Cl	Cl	0.356	0.97	0.856	-0.324
Mof_Re	Re	0.3121	0.5444	0.3121	0.629
Mof_Cl	Cl	0.356	0.47	0.356	-0.392
Mof_Re	Re	0.6879	0.0444	0.1879	0.76
Mof_Cl	Cl	0.644	0.97	0.144	-0.325
Mof_Re	Re	0.6879	0.5444	0.6879	0.623
Mof_Cl	Cl	0.644	0.47	0.644	-0.392
Mof_Re	Re	0.1879	0.5444	0.1879	0.632
Mof_Cl	Cl	0.144	0.47	0.144	-0.395
Mof_Re	Re	0.6879	0.9556	0.8121	0.505
Mof_Cl	Cl	0.644	0.03	0.856	-0.454
Mof_Re	Re	0.6879	0.4556	0.3121	0.626
Mof_Cl	Cl	0.644	0.53	0.356	-0.392
Mof_Re	Re	0.1879	0.9556	0.3121	0.498
Mof_Cl	Cl	0.144	0.03	0.356	-0.466
Mof_Re	Re	0.3121	0.9556	0.1879	0.498
Mof_Cl	Cl	0.356	0.03	0.144	-0.466
Mof_Re	Re	0.3121	0.4556	0.6879	0.626
Mof_Cl	Cl	0.356	0.53	0.644	-0.392
Mof_Re	Re	0.0444	0.1879	0.6879	0.76
Mof_Cl	Cl	0.97	0.144	0.644	-0.325
Mof_Re	Re	0.5444	0.1879	0.1879	0.632
Mof_Cl	Cl	0.47	0.144	0.144	-0.395
Mof_Re	Re	0.0444	0.8121	0.3121	0.751
Mof_Cl	Cl	0.97	0.856	0.356	-0.324
Mof_Re	Re	0.5444	0.8121	0.8121	0.621
Mof_Cl	Cl	0.47	0.856	0.856	-0.388
Mof_Re	Re	0.5444	0.3121	0.3121	0.629
Mof_Cl	Cl	0.47	0.356	0.356	-0.392
Mof_Re	Re	0.9556	0.1879	0.3121	0.498
Mof_Cl	Cl	0.03	0.144	0.356	-0.466
Mof_Re	Re	0.4556	0.1879	0.8121	0.627
Mof_Cl	Cl	0.53	0.144	0.856	-0.392
Mof_Re	Re	0.9556	0.8121	0.6879	0.505
Mof_Cl	Cl	0.03	0.856	0.644	-0.454
Mof_Re	Re	0.9556	0.3121	0.1879	0.498
Mof_Cl	Cl	0.03	0.356	0.144	-0.466
Mof_Re	Re	0.4556	0.8121	0.1879	0.627
Mof_Cl	Cl	0.53	0.856	0.144	-0.392
Mof_Re	Re	0.6879	0.8121	0.9556	0.505
Mof_Cl	Cl	0.644	0.856	0.03	-0.454
Mof_Re	Re	0.6879	0.3121	0.4556	0.626
Mof_Cl	Cl	0.644	0.356	0.53	-0.392
Mof_Re	Re	0.3121	0.6879	0.4556	0.626
Mof_Cl	Cl	0.356	0.644	0.53	-0.392
Mof_Re	Re	0.3121	0.8121	0.0444	0.751
Mof_Cl	Cl	0.356	0.856	0.97	-0.324
Mof_Re	Re	0.6879	0.1879	0.0444	0.76
Mof_Cl	Cl	0.644	0.144	0.97	-0.325
Mof_Re	Re	0.6879	0.6879	0.5444	0.623
Mof_Cl	Cl	0.644	0.644	0.47	-0.392
Mof_Re	Re	0.9556	0.6879	0.8121	0.505
Mof_Cl	Cl	0.03	0.644	0.856	-0.454
Mof_Re	Re	0.4556	0.6879	0.3121	0.626
Mof_Cl	Cl	0.53	0.644	0.356	-0.392
Mof_Re	Re	0.4556	0.3121	0.6879	0.626
Mof_Cl	Cl	0.53	0.356	0.644	-0.392
Mof_Re	Re	0.0444	0.3121	0.8121	0.751
Mof_Cl	Cl	0.97	0.356	0.856	-0.324
Mof_Re	Re	0.0444	0.6879	0.1879	0.76
Mof_Cl	Cl	0.97	0.644	0.144	-0.325
Mof_Re	Re	0.5444	0.6879	0.6879	0.623
Mof_Cl	Cl	0.47	0.644	0.644	-0.392
Mof_Re	Re	0.8121	0.9556	0.6879	0.505
Mof_Cl	Cl	0.856	0.03	0.644	-0.454
Mof_Re	Re	0.8121	0.4556	0.1879	0.627
Mof_Cl	Cl	0.856	0.53	0.144	-0.392
Mof_Re	Re	0.1879	0.4556	0.8121	0.627
Mof_Cl	Cl	0.144	0.53	0.856	-0.392
Mof_Re	Re	0.8121	0.0444	0.3121	0.751
Mof_Cl	Cl	0.856	0.97	0.356	-0.324
Mof_Re	Re	0.8121	0.5444	0.8121	0.621
Mof_Cl	Cl	0.856	0.47	0.856	-0.388
Mof_Re	Re	0.1879	0.0444	0.6879	0.76
Mof_Cl	Cl	0.144	0.97	0.644	-0.325
Mof_Re	Re	0.8121	0.6879	0.0444	0.743
Mof_Cl	Cl	0.856	0.644	0.97	-0.327
Mof_Re	Re	0.8121	0.1879	0.5444	0.626
Mof_Cl	Cl	0.856	0.144	0.47	-0.391
Mof_Re	Re	0.1879	0.8121	0.5444	0.626
Mof_Cl	Cl	0.144	0.856	0.47	-0.391
Mof_Re	Re	0.8121	0.3121	0.9556	0.502
Mof_Cl	Cl	0.856	0.356	0.03	-0.456
Mof_Re	Re	0.8121	0.8121	0.4556	0.621
Mof_Cl	Cl	0.856	0.856	0.53	-0.388
Mof_Re	Re	0.1879	0.6879	0.9556	0.5
Mof_Cl	Cl	0.144	0.644	0.03	-0.464
Mof_Re	Re	0.6879	0.9556	0.1879	0.5
Mof_Cl	Cl	0.644	0.03	0.144	-0.464
Mof_Re	Re	0.6879	0.4556	0.6879	0.624
Mof_Cl	Cl	0.644	0.53	0.644	-0.392
Mof_Re	Re	0.3121	0.9556	0.8121	0.502
Mof_Cl	Cl	0.356	0.03	0.856	-0.456
Mof_Re	Re	0.3121	0.5444	0.6879	0.626
Mof_Cl	Cl	0.356	0.47	0.644	-0.392
Mof_Re	Re	0.6879	0.0444	0.8121	0.743
Mof_Cl	Cl	0.644	0.97	0.856	-0.327
Mof_Re	Re	0.6879	0.5444	0.3121	0.626
Mof_Cl	Cl	0.644	0.47	0.356	-0.392
Mof_Re	Re	0.9556	0.8121	0.3121	0.502
Mof_Cl	Cl	0.03	0.856	0.356	-0.456
Mof_Re	Re	0.4556	0.8121	0.8121	0.621
Mof_Cl	Cl	0.53	0.856	0.856	-0.388
Mof_Re	Re	0.9556	0.1879	0.6879	0.5
Mof_Cl	Cl	0.03	0.144	0.644	-0.464
Mof_Re	Re	0.0444	0.8121	0.6879	0.743
Mof_Cl	Cl	0.97	0.856	0.644	-0.327
Mof_Re	Re	0.5444	0.8121	0.1879	0.626
Mof_Cl	Cl	0.47	0.856	0.144	-0.391
Mof_Re	Re	0.5444	0.1879	0.8121	0.626
Mof_Cl	Cl	0.47	0.144	0.856	-0.391
_end
