data_functionalizedCrystal
_audit_creation_method	'EQeq! by Chris Wilmer'
_symmetry_space_group_name_H-M	'P1'
_symmetry_Int_Tables_number	1
_symmetry_cell_setting	triclinic
loop_
_symmetry_equiv_pos_as_xyz
  x,y,z
_cell_length_a	27.5127
_cell_length_b	27.5127
_cell_length_c	27.5127
_cell_angle_alpha	90
_cell_angle_beta	90
_cell_angle_gamma	90
loop_
_atom_site_label
_atom_site_type_symbol
_atom_site_fract_x
_atom_site_fract_y
_atom_site_fract_z
_atom_site_charge
Mof_C 	C 	0.2078	0.8532	0.0126	-15.719
Mof_H 	H 	0.217	0.8865	0.0121	27.541
Mof_F 	F 	0.223	0.9002	0.0121	-22.822
Mof_C 	C 	0.2449	0.818	0.0142	8.6
Mof_H 	H 	0.2782	0.827	0.0149	-3.081
Mof_C 	C 	0.2078	0.3532	0.5126	-27.485
Mof_H 	H 	0.217	0.3865	0.5121	47.438
Mof_F 	F 	0.223	0.4002	0.5121	-38.576
Mof_C 	C 	0.2449	0.318	0.5142	13.89
Mof_H 	H 	0.2782	0.327	0.5149	-2.423
Mof_C 	C 	0.7078	0.8532	0.5126	-64.219
Mof_H 	H 	0.717	0.8865	0.5121	131.387
Mof_F 	F 	0.723	0.9002	0.5121	-116.261
Mof_C 	C 	0.7449	0.818	0.5142	25.834
Mof_H 	H 	0.7782	0.827	0.5149	-6.95
Mof_C 	C 	0.7078	0.3532	0.0126	80.569
Mof_H 	H 	0.717	0.3865	0.0121	-155.646
Mof_F 	F 	0.723	0.4002	0.0121	135.745
Mof_C 	C 	0.7449	0.318	0.0142	-37.724
Mof_H 	H 	0.7782	0.327	0.0149	11.132
Mof_C 	C 	0.7922	0.1468	0.0126	-15.981
Mof_H 	H 	0.783	0.1135	0.0121	28.153
Mof_F 	F 	0.777	0.0998	0.0121	-23.383
Mof_C 	C 	0.7551	0.182	0.0142	8.69
Mof_H 	H 	0.7218	0.173	0.0149	-3.113
Mof_C 	C 	0.7922	0.6468	0.5126	-27.395
Mof_H 	H 	0.783	0.6135	0.5121	47.309
Mof_F 	F 	0.777	0.5998	0.5121	-38.48
Mof_C 	C 	0.7551	0.682	0.5142	13.83
Mof_H 	H 	0.7218	0.673	0.5149	-2.415
Mof_C 	C 	0.2922	0.1468	0.5126	-64.604
Mof_H 	H 	0.283	0.1135	0.5121	132.211
Mof_F 	F 	0.277	0.0998	0.5121	-116.993
Mof_C 	C 	0.2551	0.182	0.5142	25.998
Mof_H 	H 	0.2218	0.173	0.5149	-6.995
Mof_C 	C 	0.2922	0.6468	0.0126	80.536
Mof_H 	H 	0.283	0.6135	0.0121	-155.571
Mof_F 	F 	0.277	0.5998	0.0121	135.678
Mof_C 	C 	0.2551	0.682	0.0142	-37.713
Mof_H 	H 	0.2218	0.673	0.0149	11.126
Mof_C 	C 	0.7922	0.8532	0.9874	-13.905
Mof_H 	H 	0.783	0.8865	0.9879	27.697
Mof_F 	F 	0.777	0.9002	0.9879	-23.162
Mof_C 	C 	0.7551	0.818	0.9858	9.327
Mof_H 	H 	0.7218	0.827	0.9851	-3.11
Mof_C 	C 	0.7922	0.3532	0.4874	-27.335
Mof_H 	H 	0.783	0.3865	0.4879	47.201
Mof_F 	F 	0.777	0.4002	0.4879	-38.387
Mof_C 	C 	0.7551	0.318	0.4858	13.804
Mof_H 	H 	0.7218	0.327	0.4851	-2.401
Mof_C 	C 	0.2922	0.8532	0.4874	-64.19
Mof_H 	H 	0.283	0.8865	0.4879	131.351
Mof_F 	F 	0.277	0.9002	0.4879	-116.233
Mof_C 	C 	0.2551	0.818	0.4858	25.82
Mof_H 	H 	0.2218	0.827	0.4851	-6.941
Mof_C 	C 	0.2922	0.3532	0.9874	82.296
Mof_H 	H 	0.283	0.3865	0.9879	-155.291
Mof_F 	F 	0.277	0.4002	0.9879	135.242
Mof_C 	C 	0.2551	0.318	0.9858	-36.923
Mof_H 	H 	0.2218	0.327	0.9851	11.09
Mof_C 	C 	0.2078	0.1468	0.9874	-14.426
Mof_H 	H 	0.217	0.1135	0.9879	28.763
Mof_F 	F 	0.223	0.0998	0.9879	-24.087
Mof_C 	C 	0.2449	0.182	0.9858	9.595
Mof_H 	H 	0.2782	0.173	0.9851	-3.182
Mof_C 	C 	0.2078	0.6468	0.4874	-27.533
Mof_H 	H 	0.217	0.6135	0.4879	47.541
Mof_F 	F 	0.223	0.5998	0.4879	-38.666
Mof_C 	C 	0.2449	0.682	0.4858	13.921
Mof_H 	H 	0.2782	0.673	0.4851	-2.435
Mof_C 	C 	0.7078	0.1468	0.4874	-64.621
Mof_H 	H 	0.717	0.1135	0.4879	132.239
Mof_F 	F 	0.723	0.0998	0.4879	-117.015
Mof_C 	C 	0.7449	0.182	0.4858	26.017
Mof_H 	H 	0.7782	0.173	0.4851	-7.001
Mof_C 	C 	0.7078	0.6468	0.9874	82.22
Mof_H 	H 	0.717	0.6135	0.9879	-155.17
Mof_F 	F 	0.723	0.5998	0.9879	135.14
Mof_C 	C 	0.7449	0.682	0.9858	-36.887
Mof_H 	H 	0.7782	0.673	0.9851	11.072
Mof_C 	C 	0.0126	0.2078	0.8532	-15.718
Mof_H 	H 	0.0121	0.217	0.8865	27.542
Mof_F 	F 	0.0121	0.223	0.9002	-22.821
Mof_C 	C 	0.0142	0.2449	0.818	8.601
Mof_H 	H 	0.0149	0.2782	0.827	-3.08
Mof_C 	C 	0.0126	0.7078	0.3532	80.57
Mof_H 	H 	0.0121	0.717	0.3865	-155.645
Mof_F 	F 	0.0121	0.723	0.4002	135.746
Mof_C 	C 	0.0142	0.7449	0.318	-37.723
Mof_H 	H 	0.0149	0.7782	0.327	11.133
Mof_C 	C 	0.5126	0.2078	0.3532	-27.484
Mof_H 	H 	0.5121	0.217	0.3865	47.439
Mof_F 	F 	0.5121	0.223	0.4002	-38.575
Mof_C 	C 	0.5142	0.2449	0.318	13.891
Mof_H 	H 	0.5149	0.2782	0.327	-2.422
Mof_C 	C 	0.5126	0.7078	0.8532	-64.218
Mof_H 	H 	0.5121	0.717	0.8865	131.388
Mof_F 	F 	0.5121	0.723	0.9002	-116.26
Mof_C 	C 	0.5142	0.7449	0.818	25.835
Mof_H 	H 	0.5149	0.7782	0.827	-6.949
Mof_C 	C 	0.0126	0.7922	0.1468	-15.98
Mof_H 	H 	0.0121	0.783	0.1135	28.153
Mof_F 	F 	0.0121	0.777	0.0998	-23.383
Mof_C 	C 	0.0142	0.7551	0.182	8.69
Mof_H 	H 	0.0149	0.7218	0.173	-3.113
Mof_C 	C 	0.0126	0.2922	0.6468	80.536
Mof_H 	H 	0.0121	0.283	0.6135	-155.571
Mof_F 	F 	0.0121	0.277	0.5998	135.678
Mof_C 	C 	0.0142	0.2551	0.682	-37.713
Mof_H 	H 	0.0149	0.2218	0.673	11.126
Mof_C 	C 	0.5126	0.7922	0.6468	-27.395
Mof_H 	H 	0.5121	0.783	0.6135	47.309
Mof_F 	F 	0.5121	0.777	0.5998	-38.48
Mof_C 	C 	0.5142	0.7551	0.682	13.83
Mof_H 	H 	0.5149	0.7218	0.673	-2.415
Mof_C 	C 	0.5126	0.2922	0.1468	-64.604
Mof_H 	H 	0.5121	0.283	0.1135	132.211
Mof_F 	F 	0.5121	0.277	0.0998	-116.993
Mof_C 	C 	0.5142	0.2551	0.182	25.998
Mof_H 	H 	0.5149	0.2218	0.173	-6.995
Mof_C 	C 	0.9874	0.7922	0.8532	-13.905
Mof_H 	H 	0.9879	0.783	0.8865	27.697
Mof_F 	F 	0.9879	0.777	0.9002	-23.162
Mof_C 	C 	0.9858	0.7551	0.818	9.327
Mof_H 	H 	0.9851	0.7218	0.827	-3.11
Mof_C 	C 	0.9874	0.2922	0.3532	82.296
Mof_H 	H 	0.9879	0.283	0.3865	-155.291
Mof_F 	F 	0.9879	0.277	0.4002	135.242
Mof_C 	C 	0.9858	0.2551	0.318	-36.923
Mof_H 	H 	0.9851	0.2218	0.327	11.09
Mof_C 	C 	0.4874	0.7922	0.3532	-27.335
Mof_H 	H 	0.4879	0.783	0.3865	47.201
Mof_F 	F 	0.4879	0.777	0.4002	-38.387
Mof_C 	C 	0.4858	0.7551	0.318	13.804
Mof_H 	H 	0.4851	0.7218	0.327	-2.401
Mof_C 	C 	0.4874	0.2922	0.8532	-64.19
Mof_H 	H 	0.4879	0.283	0.8865	131.351
Mof_F 	F 	0.4879	0.277	0.9002	-116.233
Mof_C 	C 	0.4858	0.2551	0.818	25.82
Mof_H 	H 	0.4851	0.2218	0.827	-6.941
Mof_C 	C 	0.9874	0.2078	0.1468	-14.426
Mof_H 	H 	0.9879	0.217	0.1135	28.763
Mof_F 	F 	0.9879	0.223	0.0998	-24.087
Mof_C 	C 	0.9858	0.2449	0.182	9.595
Mof_H 	H 	0.9851	0.2782	0.173	-3.182
Mof_C 	C 	0.9874	0.7078	0.6468	82.22
Mof_H 	H 	0.9879	0.717	0.6135	-155.17
Mof_F 	F 	0.9879	0.723	0.5998	135.14
Mof_C 	C 	0.9858	0.7449	0.682	-36.887
Mof_H 	H 	0.9851	0.7782	0.673	11.072
Mof_C 	C 	0.4874	0.2078	0.6468	-27.533
Mof_H 	H 	0.4879	0.217	0.6135	47.541
Mof_F 	F 	0.4879	0.223	0.5998	-38.666
Mof_C 	C 	0.4858	0.2449	0.682	13.921
Mof_H 	H 	0.4851	0.2782	0.673	-2.435
Mof_C 	C 	0.4874	0.7078	0.1468	-64.621
Mof_H 	H 	0.4879	0.717	0.1135	132.239
Mof_F 	F 	0.4879	0.723	0.0998	-117.015
Mof_C 	C 	0.4858	0.7449	0.182	26.017
Mof_H 	H 	0.4851	0.7782	0.173	-7.001
Mof_C 	C 	0.8532	0.0126	0.2078	-15.718
Mof_H 	H 	0.8865	0.0121	0.217	27.542
Mof_F 	F 	0.9002	0.0121	0.223	-22.821
Mof_C 	C 	0.818	0.0142	0.2449	8.601
Mof_H 	H 	0.827	0.0149	0.2782	-3.08
Mof_C 	C 	0.8532	0.5126	0.7078	-64.218
Mof_H 	H 	0.8865	0.5121	0.717	131.388
Mof_F 	F 	0.9002	0.5121	0.723	-116.26
Mof_C 	C 	0.818	0.5142	0.7449	25.835
Mof_H 	H 	0.827	0.5149	0.7782	-6.949
Mof_C 	C 	0.3532	0.0126	0.7078	80.57
Mof_H 	H 	0.3865	0.0121	0.717	-155.645
Mof_F 	F 	0.4002	0.0121	0.723	135.746
Mof_C 	C 	0.318	0.0142	0.7449	-37.723
Mof_H 	H 	0.327	0.0149	0.7782	11.133
Mof_C 	C 	0.3532	0.5126	0.2078	-27.484
Mof_H 	H 	0.3865	0.5121	0.217	47.439
Mof_F 	F 	0.4002	0.5121	0.223	-38.575
Mof_C 	C 	0.318	0.5142	0.2449	13.891
Mof_H 	H 	0.327	0.5149	0.2782	-2.422
Mof_C 	C 	0.1468	0.0126	0.7922	-15.98
Mof_H 	H 	0.1135	0.0121	0.783	28.153
Mof_F 	F 	0.0998	0.0121	0.777	-23.383
Mof_C 	C 	0.182	0.0142	0.7551	8.69
Mof_H 	H 	0.173	0.0149	0.7218	-3.113
Mof_C 	C 	0.1468	0.5126	0.2922	-64.604
Mof_H 	H 	0.1135	0.5121	0.283	132.211
Mof_F 	F 	0.0998	0.5121	0.277	-116.993
Mof_C 	C 	0.182	0.5142	0.2551	25.998
Mof_H 	H 	0.173	0.5149	0.2218	-6.995
Mof_C 	C 	0.6468	0.0126	0.2922	80.536
Mof_H 	H 	0.6135	0.0121	0.283	-155.571
Mof_F 	F 	0.5998	0.0121	0.277	135.678
Mof_C 	C 	0.682	0.0142	0.2551	-37.713
Mof_H 	H 	0.673	0.0149	0.2218	11.126
Mof_C 	C 	0.6468	0.5126	0.7922	-27.395
Mof_H 	H 	0.6135	0.5121	0.783	47.309
Mof_F 	F 	0.5998	0.5121	0.777	-38.48
Mof_C 	C 	0.682	0.5142	0.7551	13.83
Mof_H 	H 	0.673	0.5149	0.7218	-2.415
Mof_C 	C 	0.8532	0.9874	0.7922	-13.905
Mof_H 	H 	0.8865	0.9879	0.783	27.697
Mof_F 	F 	0.9002	0.9879	0.777	-23.162
Mof_C 	C 	0.818	0.9858	0.7551	9.327
Mof_H 	H 	0.827	0.9851	0.7218	-3.11
Mof_C 	C 	0.8532	0.4874	0.2922	-64.19
Mof_H 	H 	0.8865	0.4879	0.283	131.351
Mof_F 	F 	0.9002	0.4879	0.277	-116.233
Mof_C 	C 	0.818	0.4858	0.2551	25.82
Mof_H 	H 	0.827	0.4851	0.2218	-6.941
Mof_C 	C 	0.3532	0.9874	0.2922	82.296
Mof_H 	H 	0.3865	0.9879	0.283	-155.291
Mof_F 	F 	0.4002	0.9879	0.277	135.242
Mof_C 	C 	0.318	0.9858	0.2551	-36.923
Mof_H 	H 	0.327	0.9851	0.2218	11.09
Mof_C 	C 	0.3532	0.4874	0.7922	-27.335
Mof_H 	H 	0.3865	0.4879	0.783	47.201
Mof_F 	F 	0.4002	0.4879	0.777	-38.387
Mof_C 	C 	0.318	0.4858	0.7551	13.804
Mof_H 	H 	0.327	0.4851	0.7218	-2.401
Mof_C 	C 	0.1468	0.9874	0.2078	-14.426
Mof_H 	H 	0.1135	0.9879	0.217	28.763
Mof_F 	F 	0.0998	0.9879	0.223	-24.087
Mof_C 	C 	0.182	0.9858	0.2449	9.595
Mof_H 	H 	0.173	0.9851	0.2782	-3.182
Mof_C 	C 	0.1468	0.4874	0.7078	-64.621
Mof_H 	H 	0.1135	0.4879	0.717	132.239
Mof_F 	F 	0.0998	0.4879	0.723	-117.015
Mof_C 	C 	0.182	0.4858	0.7449	26.017
Mof_H 	H 	0.173	0.4851	0.7782	-7.001
Mof_C 	C 	0.6468	0.9874	0.7078	82.22
Mof_H 	H 	0.6135	0.9879	0.717	-155.17
Mof_F 	F 	0.5998	0.9879	0.723	135.14
Mof_C 	C 	0.682	0.9858	0.7449	-36.887
Mof_H 	H 	0.673	0.9851	0.7782	11.072
Mof_C 	C 	0.6468	0.4874	0.2078	-27.533
Mof_H 	H 	0.6135	0.4879	0.217	47.541
Mof_F 	F 	0.5998	0.4879	0.223	-38.666
Mof_C 	C 	0.682	0.4858	0.2449	13.921
Mof_H 	H 	0.673	0.4851	0.2782	-2.435
Mof_C 	C 	0.8532	0.2078	0.9874	-14.033
Mof_H 	H 	0.8865	0.217	0.9879	27.918
Mof_F 	F 	0.9002	0.223	0.9879	-23.338
Mof_C 	C 	0.818	0.2449	0.9858	9.414
Mof_H 	H 	0.827	0.2782	0.9851	-3.13
Mof_C 	C 	0.8532	0.7078	0.4874	-64.214
Mof_H 	H 	0.8865	0.717	0.4879	131.387
Mof_F 	F 	0.9002	0.723	0.4879	-116.261
Mof_C 	C 	0.818	0.7449	0.4858	25.838
Mof_H 	H 	0.827	0.7782	0.4851	-6.948
Mof_C 	C 	0.3532	0.2078	0.4874	-27.479
Mof_H 	H 	0.3865	0.217	0.4879	47.438
Mof_F 	F 	0.4002	0.223	0.4879	-38.576
Mof_C 	C 	0.318	0.2449	0.4858	13.893
Mof_H 	H 	0.327	0.2782	0.4851	-2.421
Mof_C 	C 	0.3532	0.7078	0.9874	82.272
Mof_H 	H 	0.3865	0.717	0.9879	-155.265
Mof_F 	F 	0.4002	0.723	0.9879	135.223
Mof_C 	C 	0.318	0.7449	0.9858	-36.911
Mof_H 	H 	0.327	0.7782	0.9851	11.084
Mof_C 	C 	0.1468	0.7922	0.9874	-14.292
Mof_H 	H 	0.1135	0.783	0.9879	28.53
Mof_F 	F 	0.0998	0.777	0.9879	-23.901
Mof_C 	C 	0.182	0.7551	0.9858	9.505
Mof_H 	H 	0.173	0.7218	0.9851	-3.162
Mof_C 	C 	0.1468	0.2922	0.4874	-64.6
Mof_H 	H 	0.1135	0.283	0.4879	132.211
Mof_F 	F 	0.0998	0.277	0.4879	-116.994
Mof_C 	C 	0.182	0.2551	0.4858	26.001
Mof_H 	H 	0.173	0.2218	0.4851	-6.995
Mof_C 	C 	0.6468	0.7922	0.4874	-27.391
Mof_H 	H 	0.6135	0.783	0.4879	47.308
Mof_F 	F 	0.5998	0.777	0.4879	-38.481
Mof_C 	C 	0.682	0.7551	0.4858	13.833
Mof_H 	H 	0.673	0.7218	0.4851	-2.414
Mof_C 	C 	0.6468	0.2922	0.9874	82.241
Mof_H 	H 	0.6135	0.283	0.9879	-155.19
Mof_F 	F 	0.5998	0.277	0.9879	135.154
Mof_C 	C 	0.682	0.2551	0.9858	-36.898
Mof_H 	H 	0.673	0.2218	0.9851	11.077
Mof_C 	C 	0.8532	0.7922	0.0126	-15.576
Mof_H 	H 	0.8865	0.783	0.0121	27.324
Mof_F 	F 	0.9002	0.777	0.0121	-22.65
Mof_C 	C 	0.818	0.7551	0.0142	8.519
Mof_H 	H 	0.827	0.7218	0.0149	-3.061
Mof_C 	C 	0.8532	0.2922	0.5126	-64.193
Mof_H 	H 	0.8865	0.283	0.5121	131.351
Mof_F 	F 	0.9002	0.277	0.5121	-116.232
Mof_C 	C 	0.818	0.2551	0.5142	25.817
Mof_H 	H 	0.827	0.2218	0.5149	-6.942
Mof_C 	C 	0.3532	0.7922	0.5126	-27.339
Mof_H 	H 	0.3865	0.783	0.5121	47.202
Mof_F 	F 	0.4002	0.777	0.5121	-38.386
Mof_C 	C 	0.318	0.7551	0.5142	13.802
Mof_H 	H 	0.327	0.7218	0.5149	-2.402
Mof_C 	C 	0.3532	0.2922	0.0126	80.586
Mof_H 	H 	0.3865	0.283	0.0121	-155.672
Mof_F 	F 	0.4002	0.277	0.0121	135.767
Mof_C 	C 	0.318	0.2551	0.0142	-37.742
Mof_H 	H 	0.327	0.2218	0.0149	11.139
Mof_C 	C 	0.1468	0.2078	0.0126	-16.128
Mof_H 	H 	0.1135	0.217	0.0121	28.383
Mof_F 	F 	0.0998	0.223	0.0121	-23.565
Mof_C 	C 	0.182	0.2449	0.0142	8.776
Mof_H 	H 	0.173	0.2782	0.0149	-3.133
Mof_C 	C 	0.1468	0.7078	0.5126	-64.625
Mof_H 	H 	0.1135	0.717	0.5121	132.239
Mof_F 	F 	0.0998	0.723	0.5121	-117.014
Mof_C 	C 	0.182	0.7449	0.5142	26.015
Mof_H 	H 	0.173	0.7782	0.5149	-7.002
Mof_C 	C 	0.6468	0.2078	0.5126	-27.538
Mof_H 	H 	0.6135	0.217	0.5121	47.542
Mof_F 	F 	0.5998	0.223	0.5121	-38.665
Mof_C 	C 	0.682	0.2449	0.5142	13.918
Mof_H 	H 	0.673	0.2782	0.5149	-2.435
Mof_C 	C 	0.6468	0.7078	0.0126	80.522
Mof_H 	H 	0.6135	0.717	0.0121	-155.549
Mof_F 	F 	0.5998	0.723	0.0121	135.662
Mof_C 	C 	0.682	0.7449	0.0142	-37.696
Mof_H 	H 	0.673	0.7782	0.0149	11.12
Mof_C 	C 	0.2078	0.0126	0.1468	-16.128
Mof_H 	H 	0.217	0.0121	0.1135	28.383
Mof_F 	F 	0.223	0.0121	0.0998	-23.565
Mof_C 	C 	0.2449	0.0142	0.182	8.776
Mof_H 	H 	0.2782	0.0149	0.173	-3.133
Mof_C 	C 	0.2078	0.5126	0.6468	-27.538
Mof_H 	H 	0.217	0.5121	0.6135	47.542
Mof_F 	F 	0.223	0.5121	0.5998	-38.665
Mof_C 	C 	0.2449	0.5142	0.682	13.918
Mof_H 	H 	0.2782	0.5149	0.673	-2.435
Mof_C 	C 	0.7078	0.0126	0.6468	80.522
Mof_H 	H 	0.717	0.0121	0.6135	-155.549
Mof_F 	F 	0.723	0.0121	0.5998	135.662
Mof_C 	C 	0.7449	0.0142	0.682	-37.696
Mof_H 	H 	0.7782	0.0149	0.673	11.12
Mof_C 	C 	0.7078	0.5126	0.1468	-64.625
Mof_H 	H 	0.717	0.5121	0.1135	132.239
Mof_F 	F 	0.723	0.5121	0.0998	-117.014
Mof_C 	C 	0.7449	0.5142	0.182	26.015
Mof_H 	H 	0.7782	0.5149	0.173	-7.002
Mof_C 	C 	0.7922	0.0126	0.8532	-15.576
Mof_H 	H 	0.783	0.0121	0.8865	27.324
Mof_F 	F 	0.777	0.0121	0.9002	-22.65
Mof_C 	C 	0.7551	0.0142	0.818	8.519
Mof_H 	H 	0.7218	0.0149	0.827	-3.061
Mof_C 	C 	0.7922	0.5126	0.3532	-27.339
Mof_H 	H 	0.783	0.5121	0.3865	47.202
Mof_F 	F 	0.777	0.5121	0.4002	-38.386
Mof_C 	C 	0.7551	0.5142	0.318	13.802
Mof_H 	H 	0.7218	0.5149	0.327	-2.402
Mof_C 	C 	0.2922	0.0126	0.3532	80.586
Mof_H 	H 	0.283	0.0121	0.3865	-155.672
Mof_F 	F 	0.277	0.0121	0.4002	135.767
Mof_C 	C 	0.2551	0.0142	0.318	-37.742
Mof_H 	H 	0.2218	0.0149	0.327	11.139
Mof_C 	C 	0.2922	0.5126	0.8532	-64.193
Mof_H 	H 	0.283	0.5121	0.8865	131.351
Mof_F 	F 	0.277	0.5121	0.9002	-116.232
Mof_C 	C 	0.2551	0.5142	0.818	25.817
Mof_H 	H 	0.2218	0.5149	0.827	-6.942
Mof_C 	C 	0.7922	0.9874	0.1468	-14.292
Mof_H 	H 	0.783	0.9879	0.1135	28.53
Mof_F 	F 	0.777	0.9879	0.0998	-23.901
Mof_C 	C 	0.7551	0.9858	0.182	9.505
Mof_H 	H 	0.7218	0.9851	0.173	-3.162
Mof_C 	C 	0.7922	0.4874	0.6468	-27.391
Mof_H 	H 	0.783	0.4879	0.6135	47.308
Mof_F 	F 	0.777	0.4879	0.5998	-38.481
Mof_C 	C 	0.7551	0.4858	0.682	13.833
Mof_H 	H 	0.7218	0.4851	0.673	-2.414
Mof_C 	C 	0.2922	0.9874	0.6468	82.241
Mof_H 	H 	0.283	0.9879	0.6135	-155.19
Mof_F 	F 	0.277	0.9879	0.5998	135.154
Mof_C 	C 	0.2551	0.9858	0.682	-36.898
Mof_H 	H 	0.2218	0.9851	0.673	11.077
Mof_C 	C 	0.2922	0.4874	0.1468	-64.6
Mof_H 	H 	0.283	0.4879	0.1135	132.211
Mof_F 	F 	0.277	0.4879	0.0998	-116.994
Mof_C 	C 	0.2551	0.4858	0.182	26.001
Mof_H 	H 	0.2218	0.4851	0.173	-6.995
Mof_C 	C 	0.2078	0.9874	0.8532	-14.033
Mof_H 	H 	0.217	0.9879	0.8865	27.918
Mof_F 	F 	0.223	0.9879	0.9002	-23.338
Mof_C 	C 	0.2449	0.9858	0.818	9.414
Mof_H 	H 	0.2782	0.9851	0.827	-3.13
Mof_C 	C 	0.2078	0.4874	0.3532	-27.479
Mof_H 	H 	0.217	0.4879	0.3865	47.438
Mof_F 	F 	0.223	0.4879	0.4002	-38.576
Mof_C 	C 	0.2449	0.4858	0.318	13.893
Mof_H 	H 	0.2782	0.4851	0.327	-2.421
Mof_C 	C 	0.7078	0.9874	0.3532	82.272
Mof_H 	H 	0.717	0.9879	0.3865	-155.265
Mof_F 	F 	0.723	0.9879	0.4002	135.223
Mof_C 	C 	0.7449	0.9858	0.318	-36.911
Mof_H 	H 	0.7782	0.9851	0.327	11.084
Mof_C 	C 	0.7078	0.4874	0.8532	-64.214
Mof_H 	H 	0.717	0.4879	0.8865	131.387
Mof_F 	F 	0.723	0.4879	0.9002	-116.261
Mof_C 	C 	0.7449	0.4858	0.818	25.838
Mof_H 	H 	0.7782	0.4851	0.827	-6.948
Mof_C 	C 	0.0126	0.8532	0.7922	-15.576
Mof_H 	H 	0.0121	0.8865	0.783	27.324
Mof_F 	F 	0.0121	0.9002	0.777	-22.65
Mof_C 	C 	0.0142	0.818	0.7551	8.519
Mof_H 	H 	0.0149	0.827	0.7218	-3.061
Mof_C 	C 	0.0126	0.3532	0.2922	80.586
Mof_H 	H 	0.0121	0.3865	0.283	-155.672
Mof_F 	F 	0.0121	0.4002	0.277	135.767
Mof_C 	C 	0.0142	0.318	0.2551	-37.742
Mof_H 	H 	0.0149	0.327	0.2218	11.139
Mof_C 	C 	0.5126	0.8532	0.2922	-64.193
Mof_H 	H 	0.5121	0.8865	0.283	131.351
Mof_F 	F 	0.5121	0.9002	0.277	-116.232
Mof_C 	C 	0.5142	0.818	0.2551	25.817
Mof_H 	H 	0.5149	0.827	0.2218	-6.942
Mof_C 	C 	0.5126	0.3532	0.7922	-27.339
Mof_H 	H 	0.5121	0.3865	0.783	47.202
Mof_F 	F 	0.5121	0.4002	0.777	-38.386
Mof_C 	C 	0.5142	0.318	0.7551	13.802
Mof_H 	H 	0.5149	0.327	0.7218	-2.402
Mof_C 	C 	0.0126	0.1468	0.2078	-16.128
Mof_H 	H 	0.0121	0.1135	0.217	28.383
Mof_F 	F 	0.0121	0.0998	0.223	-23.565
Mof_C 	C 	0.0142	0.182	0.2449	8.776
Mof_H 	H 	0.0149	0.173	0.2782	-3.133
Mof_C 	C 	0.0126	0.6468	0.7078	80.522
Mof_H 	H 	0.0121	0.6135	0.717	-155.549
Mof_F 	F 	0.0121	0.5998	0.723	135.662
Mof_C 	C 	0.0142	0.682	0.7449	-37.696
Mof_H 	H 	0.0149	0.673	0.7782	11.12
Mof_C 	C 	0.5126	0.1468	0.7078	-64.625
Mof_H 	H 	0.5121	0.1135	0.717	132.239
Mof_F 	F 	0.5121	0.0998	0.723	-117.014
Mof_C 	C 	0.5142	0.182	0.7449	26.015
Mof_H 	H 	0.5149	0.173	0.7782	-7.002
Mof_C 	C 	0.5126	0.6468	0.2078	-27.538
Mof_H 	H 	0.5121	0.6135	0.217	47.542
Mof_F 	F 	0.5121	0.5998	0.223	-38.665
Mof_C 	C 	0.5142	0.682	0.2449	13.918
Mof_H 	H 	0.5149	0.673	0.2782	-2.435
Mof_C 	C 	0.9874	0.8532	0.2078	-14.033
Mof_H 	H 	0.9879	0.8865	0.217	27.918
Mof_F 	F 	0.9879	0.9002	0.223	-23.338
Mof_C 	C 	0.9858	0.818	0.2449	9.414
Mof_H 	H 	0.9851	0.827	0.2782	-3.13
Mof_C 	C 	0.9874	0.3532	0.7078	82.272
Mof_H 	H 	0.9879	0.3865	0.717	-155.265
Mof_F 	F 	0.9879	0.4002	0.723	135.223
Mof_C 	C 	0.9858	0.318	0.7449	-36.911
Mof_H 	H 	0.9851	0.327	0.7782	11.084
Mof_C 	C 	0.4874	0.8532	0.7078	-64.214
Mof_H 	H 	0.4879	0.8865	0.717	131.387
Mof_F 	F 	0.4879	0.9002	0.723	-116.261
Mof_C 	C 	0.4858	0.818	0.7449	25.838
Mof_H 	H 	0.4851	0.827	0.7782	-6.948
Mof_C 	C 	0.4874	0.3532	0.2078	-27.479
Mof_H 	H 	0.4879	0.3865	0.217	47.438
Mof_F 	F 	0.4879	0.4002	0.223	-38.576
Mof_C 	C 	0.4858	0.318	0.2449	13.893
Mof_H 	H 	0.4851	0.327	0.2782	-2.421
Mof_C 	C 	0.9874	0.1468	0.7922	-14.292
Mof_H 	H 	0.9879	0.1135	0.783	28.53
Mof_F 	F 	0.9879	0.0998	0.777	-23.901
Mof_C 	C 	0.9858	0.182	0.7551	9.505
Mof_H 	H 	0.9851	0.173	0.7218	-3.162
Mof_C 	C 	0.9874	0.6468	0.2922	82.241
Mof_H 	H 	0.9879	0.6135	0.283	-155.19
Mof_F 	F 	0.9879	0.5998	0.277	135.154
Mof_C 	C 	0.9858	0.682	0.2551	-36.898
Mof_H 	H 	0.9851	0.673	0.2218	11.077
Mof_C 	C 	0.4874	0.1468	0.2922	-64.6
Mof_H 	H 	0.4879	0.1135	0.283	132.211
Mof_F 	F 	0.4879	0.0998	0.277	-116.994
Mof_C 	C 	0.4858	0.182	0.2551	26.001
Mof_H 	H 	0.4851	0.173	0.2218	-6.995
Mof_C 	C 	0.4874	0.6468	0.7922	-27.391
Mof_H 	H 	0.4879	0.6135	0.783	47.308
Mof_F 	F 	0.4879	0.5998	0.777	-38.481
Mof_C 	C 	0.4858	0.682	0.7551	13.833
Mof_H 	H 	0.4851	0.673	0.7218	-2.414
Mof_C 	C 	0.7922	0.1468	0.9874	-14.292
Mof_H 	H 	0.783	0.1135	0.9879	28.53
Mof_F 	F 	0.777	0.0998	0.9879	-23.901
Mof_C 	C 	0.7551	0.182	0.9858	9.505
Mof_H 	H 	0.7218	0.173	0.9851	-3.162
Mof_C 	C 	0.7922	0.6468	0.4874	-27.391
Mof_H 	H 	0.783	0.6135	0.4879	47.308
Mof_F 	F 	0.777	0.5998	0.4879	-38.481
Mof_C 	C 	0.7551	0.682	0.4858	13.833
Mof_H 	H 	0.7218	0.673	0.4851	-2.414
Mof_C 	C 	0.2922	0.1468	0.4874	-64.6
Mof_H 	H 	0.283	0.1135	0.4879	132.211
Mof_F 	F 	0.277	0.0998	0.4879	-116.994
Mof_C 	C 	0.2551	0.182	0.4858	26.001
Mof_H 	H 	0.2218	0.173	0.4851	-6.995
Mof_C 	C 	0.2922	0.6468	0.9874	82.241
Mof_H 	H 	0.283	0.6135	0.9879	-155.19
Mof_F 	F 	0.277	0.5998	0.9879	135.154
Mof_C 	C 	0.2551	0.682	0.9858	-36.898
Mof_H 	H 	0.2218	0.673	0.9851	11.077
Mof_C 	C 	0.2078	0.8532	0.9874	-14.033
Mof_H 	H 	0.217	0.8865	0.9879	27.918
Mof_F 	F 	0.223	0.9002	0.9879	-23.338
Mof_C 	C 	0.2449	0.818	0.9858	9.414
Mof_H 	H 	0.2782	0.827	0.9851	-3.13
Mof_C 	C 	0.2078	0.3532	0.4874	-27.479
Mof_H 	H 	0.217	0.3865	0.4879	47.438
Mof_F 	F 	0.223	0.4002	0.4879	-38.576
Mof_C 	C 	0.2449	0.318	0.4858	13.893
Mof_H 	H 	0.2782	0.327	0.4851	-2.421
Mof_C 	C 	0.7078	0.8532	0.4874	-64.214
Mof_H 	H 	0.717	0.8865	0.4879	131.387
Mof_F 	F 	0.723	0.9002	0.4879	-116.261
Mof_C 	C 	0.7449	0.818	0.4858	25.838
Mof_H 	H 	0.7782	0.827	0.4851	-6.948
Mof_C 	C 	0.7078	0.3532	0.9874	82.272
Mof_H 	H 	0.717	0.3865	0.9879	-155.265
Mof_F 	F 	0.723	0.4002	0.9879	135.223
Mof_C 	C 	0.7449	0.318	0.9858	-36.911
Mof_H 	H 	0.7782	0.327	0.9851	11.084
Mof_C 	C 	0.2078	0.1468	0.0126	-16.128
Mof_H 	H 	0.217	0.1135	0.0121	28.383
Mof_F 	F 	0.223	0.0998	0.0121	-23.565
Mof_C 	C 	0.2449	0.182	0.0142	8.776
Mof_H 	H 	0.2782	0.173	0.0149	-3.133
Mof_C 	C 	0.2078	0.6468	0.5126	-27.538
Mof_H 	H 	0.217	0.6135	0.5121	47.542
Mof_F 	F 	0.223	0.5998	0.5121	-38.665
Mof_C 	C 	0.2449	0.682	0.5142	13.918
Mof_H 	H 	0.2782	0.673	0.5149	-2.435
Mof_C 	C 	0.7078	0.1468	0.5126	-64.625
Mof_H 	H 	0.717	0.1135	0.5121	132.239
Mof_F 	F 	0.723	0.0998	0.5121	-117.014
Mof_C 	C 	0.7449	0.182	0.5142	26.015
Mof_H 	H 	0.7782	0.173	0.5149	-7.002
Mof_C 	C 	0.7078	0.6468	0.0126	80.522
Mof_H 	H 	0.717	0.6135	0.0121	-155.549
Mof_F 	F 	0.723	0.5998	0.0121	135.662
Mof_C 	C 	0.7449	0.682	0.0142	-37.696
Mof_H 	H 	0.7782	0.673	0.0149	11.12
Mof_C 	C 	0.7922	0.8532	0.0126	-15.576
Mof_H 	H 	0.783	0.8865	0.0121	27.324
Mof_F 	F 	0.777	0.9002	0.0121	-22.65
Mof_C 	C 	0.7551	0.818	0.0142	8.519
Mof_H 	H 	0.7218	0.827	0.0149	-3.061
Mof_C 	C 	0.7922	0.3532	0.5126	-27.339
Mof_H 	H 	0.783	0.3865	0.5121	47.202
Mof_F 	F 	0.777	0.4002	0.5121	-38.386
Mof_C 	C 	0.7551	0.318	0.5142	13.802
Mof_H 	H 	0.7218	0.327	0.5149	-2.402
Mof_C 	C 	0.2922	0.8532	0.5126	-64.193
Mof_H 	H 	0.283	0.8865	0.5121	131.351
Mof_F 	F 	0.277	0.9002	0.5121	-116.232
Mof_C 	C 	0.2551	0.818	0.5142	25.817
Mof_H 	H 	0.2218	0.827	0.5149	-6.942
Mof_C 	C 	0.2922	0.3532	0.0126	80.586
Mof_H 	H 	0.283	0.3865	0.0121	-155.672
Mof_F 	F 	0.277	0.4002	0.0121	135.767
Mof_C 	C 	0.2551	0.318	0.0142	-37.742
Mof_H 	H 	0.2218	0.327	0.0149	11.139
Mof_C 	C 	0.9874	0.7922	0.1468	-14.292
Mof_H 	H 	0.9879	0.783	0.1135	28.53
Mof_F 	F 	0.9879	0.777	0.0998	-23.901
Mof_C 	C 	0.9858	0.7551	0.182	9.505
Mof_H 	H 	0.9851	0.7218	0.173	-3.162
Mof_C 	C 	0.9874	0.2922	0.6468	82.241
Mof_H 	H 	0.9879	0.283	0.6135	-155.19
Mof_F 	F 	0.9879	0.277	0.5998	135.154
Mof_C 	C 	0.9858	0.2551	0.682	-36.898
Mof_H 	H 	0.9851	0.2218	0.673	11.077
Mof_C 	C 	0.4874	0.7922	0.6468	-27.391
Mof_H 	H 	0.4879	0.783	0.6135	47.308
Mof_F 	F 	0.4879	0.777	0.5998	-38.481
Mof_C 	C 	0.4858	0.7551	0.682	13.833
Mof_H 	H 	0.4851	0.7218	0.673	-2.414
Mof_C 	C 	0.4874	0.2922	0.1468	-64.6
Mof_H 	H 	0.4879	0.283	0.1135	132.211
Mof_F 	F 	0.4879	0.277	0.0998	-116.994
Mof_C 	C 	0.4858	0.2551	0.182	26.001
Mof_H 	H 	0.4851	0.2218	0.173	-6.995
Mof_C 	C 	0.9874	0.2078	0.8532	-14.033
Mof_H 	H 	0.9879	0.217	0.8865	27.918
Mof_F 	F 	0.9879	0.223	0.9002	-23.338
Mof_C 	C 	0.9858	0.2449	0.818	9.414
Mof_H 	H 	0.9851	0.2782	0.827	-3.13
Mof_C 	C 	0.9874	0.7078	0.3532	82.272
Mof_H 	H 	0.9879	0.717	0.3865	-155.265
Mof_F 	F 	0.9879	0.723	0.4002	135.223
Mof_C 	C 	0.9858	0.7449	0.318	-36.911
Mof_H 	H 	0.9851	0.7782	0.327	11.084
Mof_C 	C 	0.4874	0.2078	0.3532	-27.479
Mof_H 	H 	0.4879	0.217	0.3865	47.438
Mof_F 	F 	0.4879	0.223	0.4002	-38.576
Mof_C 	C 	0.4858	0.2449	0.318	13.893
Mof_H 	H 	0.4851	0.2782	0.327	-2.421
Mof_C 	C 	0.4874	0.7078	0.8532	-64.214
Mof_H 	H 	0.4879	0.717	0.8865	131.387
Mof_F 	F 	0.4879	0.723	0.9002	-116.261
Mof_C 	C 	0.4858	0.7449	0.818	25.838
Mof_H 	H 	0.4851	0.7782	0.827	-6.948
Mof_C 	C 	0.0126	0.2078	0.1468	-16.128
Mof_H 	H 	0.0121	0.217	0.1135	28.383
Mof_F 	F 	0.0121	0.223	0.0998	-23.565
Mof_C 	C 	0.0142	0.2449	0.182	8.776
Mof_H 	H 	0.0149	0.2782	0.173	-3.133
Mof_C 	C 	0.0126	0.7078	0.6468	80.522
Mof_H 	H 	0.0121	0.717	0.6135	-155.549
Mof_F 	F 	0.0121	0.723	0.5998	135.662
Mof_C 	C 	0.0142	0.7449	0.682	-37.696
Mof_H 	H 	0.0149	0.7782	0.673	11.12
Mof_C 	C 	0.5126	0.2078	0.6468	-27.538
Mof_H 	H 	0.5121	0.217	0.6135	47.542
Mof_F 	F 	0.5121	0.223	0.5998	-38.665
Mof_C 	C 	0.5142	0.2449	0.682	13.918
Mof_H 	H 	0.5149	0.2782	0.673	-2.435
Mof_C 	C 	0.5126	0.7078	0.1468	-64.625
Mof_H 	H 	0.5121	0.717	0.1135	132.239
Mof_F 	F 	0.5121	0.723	0.0998	-117.014
Mof_C 	C 	0.5142	0.7449	0.182	26.015
Mof_H 	H 	0.5149	0.7782	0.173	-7.002
Mof_C 	C 	0.0126	0.7922	0.8532	-15.576
Mof_H 	H 	0.0121	0.783	0.8865	27.324
Mof_F 	F 	0.0121	0.777	0.9002	-22.65
Mof_C 	C 	0.0142	0.7551	0.818	8.519
Mof_H 	H 	0.0149	0.7218	0.827	-3.061
Mof_C 	C 	0.0126	0.2922	0.3532	80.586
Mof_H 	H 	0.0121	0.283	0.3865	-155.672
Mof_F 	F 	0.0121	0.277	0.4002	135.767
Mof_C 	C 	0.0142	0.2551	0.318	-37.742
Mof_H 	H 	0.0149	0.2218	0.327	11.139
Mof_C 	C 	0.5126	0.7922	0.3532	-27.339
Mof_H 	H 	0.5121	0.783	0.3865	47.202
Mof_F 	F 	0.5121	0.777	0.4002	-38.386
Mof_C 	C 	0.5142	0.7551	0.318	13.802
Mof_H 	H 	0.5149	0.7218	0.327	-2.402
Mof_C 	C 	0.5126	0.2922	0.8532	-64.193
Mof_H 	H 	0.5121	0.283	0.8865	131.351
Mof_F 	F 	0.5121	0.277	0.9002	-116.232
Mof_C 	C 	0.5142	0.2551	0.818	25.817
Mof_H 	H 	0.5149	0.2218	0.827	-6.942
Mof_C 	C 	0.1468	0.9874	0.7922	-14.292
Mof_H 	H 	0.1135	0.9879	0.783	28.53
Mof_F 	F 	0.0998	0.9879	0.777	-23.901
Mof_C 	C 	0.182	0.9858	0.7551	9.505
Mof_H 	H 	0.173	0.9851	0.7218	-3.162
Mof_C 	C 	0.1468	0.4874	0.2922	-64.6
Mof_H 	H 	0.1135	0.4879	0.283	132.211
Mof_F 	F 	0.0998	0.4879	0.277	-116.994
Mof_C 	C 	0.182	0.4858	0.2551	26.001
Mof_H 	H 	0.173	0.4851	0.2218	-6.995
Mof_C 	C 	0.6468	0.9874	0.2922	82.241
Mof_H 	H 	0.6135	0.9879	0.283	-155.19
Mof_F 	F 	0.5998	0.9879	0.277	135.154
Mof_C 	C 	0.682	0.9858	0.2551	-36.898
Mof_H 	H 	0.673	0.9851	0.2218	11.077
Mof_C 	C 	0.6468	0.4874	0.7922	-27.391
Mof_H 	H 	0.6135	0.4879	0.783	47.308
Mof_F 	F 	0.5998	0.4879	0.777	-38.481
Mof_C 	C 	0.682	0.4858	0.7551	13.833
Mof_H 	H 	0.673	0.4851	0.7218	-2.414
Mof_C 	C 	0.8532	0.9874	0.2078	-14.033
Mof_H 	H 	0.8865	0.9879	0.217	27.918
Mof_F 	F 	0.9002	0.9879	0.223	-23.338
Mof_C 	C 	0.818	0.9858	0.2449	9.414
Mof_H 	H 	0.827	0.9851	0.2782	-3.13
Mof_C 	C 	0.8532	0.4874	0.7078	-64.214
Mof_H 	H 	0.8865	0.4879	0.717	131.387
Mof_F 	F 	0.9002	0.4879	0.723	-116.261
Mof_C 	C 	0.818	0.4858	0.7449	25.838
Mof_H 	H 	0.827	0.4851	0.7782	-6.948
Mof_C 	C 	0.3532	0.9874	0.7078	82.272
Mof_H 	H 	0.3865	0.9879	0.717	-155.265
Mof_F 	F 	0.4002	0.9879	0.723	135.223
Mof_C 	C 	0.318	0.9858	0.7449	-36.911
Mof_H 	H 	0.327	0.9851	0.7782	11.084
Mof_C 	C 	0.3532	0.4874	0.2078	-27.479
Mof_H 	H 	0.3865	0.4879	0.217	47.438
Mof_F 	F 	0.4002	0.4879	0.223	-38.576
Mof_C 	C 	0.318	0.4858	0.2449	13.893
Mof_H 	H 	0.327	0.4851	0.2782	-2.421
Mof_C 	C 	0.1468	0.0126	0.2078	-16.128
Mof_H 	H 	0.1135	0.0121	0.217	28.383
Mof_F 	F 	0.0998	0.0121	0.223	-23.565
Mof_C 	C 	0.182	0.0142	0.2449	8.776
Mof_H 	H 	0.173	0.0149	0.2782	-3.133
Mof_C 	C 	0.1468	0.5126	0.7078	-64.625
Mof_H 	H 	0.1135	0.5121	0.717	132.239
Mof_F 	F 	0.0998	0.5121	0.723	-117.014
Mof_C 	C 	0.182	0.5142	0.7449	26.015
Mof_H 	H 	0.173	0.5149	0.7782	-7.002
Mof_C 	C 	0.6468	0.0126	0.7078	80.522
Mof_H 	H 	0.6135	0.0121	0.717	-155.549
Mof_F 	F 	0.5998	0.0121	0.723	135.662
Mof_C 	C 	0.682	0.0142	0.7449	-37.696
Mof_H 	H 	0.673	0.0149	0.7782	11.12
Mof_C 	C 	0.6468	0.5126	0.2078	-27.538
Mof_H 	H 	0.6135	0.5121	0.217	47.542
Mof_F 	F 	0.5998	0.5121	0.223	-38.665
Mof_C 	C 	0.682	0.5142	0.2449	13.918
Mof_H 	H 	0.673	0.5149	0.2782	-2.435
Mof_C 	C 	0.8532	0.0126	0.7922	-15.576
Mof_H 	H 	0.8865	0.0121	0.783	27.324
Mof_F 	F 	0.9002	0.0121	0.777	-22.65
Mof_C 	C 	0.818	0.0142	0.7551	8.519
Mof_H 	H 	0.827	0.0149	0.7218	-3.061
Mof_C 	C 	0.8532	0.5126	0.2922	-64.193
Mof_H 	H 	0.8865	0.5121	0.283	131.351
Mof_F 	F 	0.9002	0.5121	0.277	-116.232
Mof_C 	C 	0.818	0.5142	0.2551	25.817
Mof_H 	H 	0.827	0.5149	0.2218	-6.942
Mof_C 	C 	0.3532	0.0126	0.2922	80.586
Mof_H 	H 	0.3865	0.0121	0.283	-155.672
Mof_F 	F 	0.4002	0.0121	0.277	135.767
Mof_C 	C 	0.318	0.0142	0.2551	-37.742
Mof_H 	H 	0.327	0.0149	0.2218	11.139
Mof_C 	C 	0.3532	0.5126	0.7922	-27.339
Mof_H 	H 	0.3865	0.5121	0.783	47.202
Mof_F 	F 	0.4002	0.5121	0.777	-38.386
Mof_C 	C 	0.318	0.5142	0.7551	13.802
Mof_H 	H 	0.327	0.5149	0.7218	-2.402
Mof_C 	C 	0.1468	0.7922	0.0126	-15.98
Mof_H 	H 	0.1135	0.783	0.0121	28.153
Mof_F 	F 	0.0998	0.777	0.0121	-23.383
Mof_C 	C 	0.182	0.7551	0.0142	8.69
Mof_H 	H 	0.173	0.7218	0.0149	-3.113
Mof_C 	C 	0.1468	0.2922	0.5126	-64.604
Mof_H 	H 	0.1135	0.283	0.5121	132.211
Mof_F 	F 	0.0998	0.277	0.5121	-116.993
Mof_C 	C 	0.182	0.2551	0.5142	25.998
Mof_H 	H 	0.173	0.2218	0.5149	-6.995
Mof_C 	C 	0.6468	0.7922	0.5126	-27.395
Mof_H 	H 	0.6135	0.783	0.5121	47.309
Mof_F 	F 	0.5998	0.777	0.5121	-38.48
Mof_C 	C 	0.682	0.7551	0.5142	13.83
Mof_H 	H 	0.673	0.7218	0.5149	-2.415
Mof_C 	C 	0.6468	0.2922	0.0126	80.536
Mof_H 	H 	0.6135	0.283	0.0121	-155.571
Mof_F 	F 	0.5998	0.277	0.0121	135.678
Mof_C 	C 	0.682	0.2551	0.0142	-37.713
Mof_H 	H 	0.673	0.2218	0.0149	11.126
Mof_C 	C 	0.8532	0.2078	0.0126	-15.718
Mof_H 	H 	0.8865	0.217	0.0121	27.542
Mof_F 	F 	0.9002	0.223	0.0121	-22.821
Mof_C 	C 	0.818	0.2449	0.0142	8.601
Mof_H 	H 	0.827	0.2782	0.0149	-3.08
Mof_C 	C 	0.8532	0.7078	0.5126	-64.218
Mof_H 	H 	0.8865	0.717	0.5121	131.388
Mof_F 	F 	0.9002	0.723	0.5121	-116.26
Mof_C 	C 	0.818	0.7449	0.5142	25.835
Mof_H 	H 	0.827	0.7782	0.5149	-6.949
Mof_C 	C 	0.3532	0.2078	0.5126	-27.484
Mof_H 	H 	0.3865	0.217	0.5121	47.439
Mof_F 	F 	0.4002	0.223	0.5121	-38.575
Mof_C 	C 	0.318	0.2449	0.5142	13.891
Mof_H 	H 	0.327	0.2782	0.5149	-2.422
Mof_C 	C 	0.3532	0.7078	0.0126	80.57
Mof_H 	H 	0.3865	0.717	0.0121	-155.645
Mof_F 	F 	0.4002	0.723	0.0121	135.746
Mof_C 	C 	0.318	0.7449	0.0142	-37.723
Mof_H 	H 	0.327	0.7782	0.0149	11.133
Mof_C 	C 	0.1468	0.2078	0.9874	-14.426
Mof_H 	H 	0.1135	0.217	0.9879	28.763
Mof_F 	F 	0.0998	0.223	0.9879	-24.087
Mof_C 	C 	0.182	0.2449	0.9858	9.595
Mof_H 	H 	0.173	0.2782	0.9851	-3.182
Mof_C 	C 	0.1468	0.7078	0.4874	-64.621
Mof_H 	H 	0.1135	0.717	0.4879	132.239
Mof_F 	F 	0.0998	0.723	0.4879	-117.015
Mof_C 	C 	0.182	0.7449	0.4858	26.017
Mof_H 	H 	0.173	0.7782	0.4851	-7.001
Mof_C 	C 	0.6468	0.2078	0.4874	-27.533
Mof_H 	H 	0.6135	0.217	0.4879	47.541
Mof_F 	F 	0.5998	0.223	0.4879	-38.666
Mof_C 	C 	0.682	0.2449	0.4858	13.921
Mof_H 	H 	0.673	0.2782	0.4851	-2.435
Mof_C 	C 	0.6468	0.7078	0.9874	82.22
Mof_H 	H 	0.6135	0.717	0.9879	-155.17
Mof_F 	F 	0.5998	0.723	0.9879	135.14
Mof_C 	C 	0.682	0.7449	0.9858	-36.887
Mof_H 	H 	0.673	0.7782	0.9851	11.072
Mof_C 	C 	0.8532	0.7922	0.9874	-13.905
Mof_H 	H 	0.8865	0.783	0.9879	27.697
Mof_F 	F 	0.9002	0.777	0.9879	-23.162
Mof_C 	C 	0.818	0.7551	0.9858	9.327
Mof_H 	H 	0.827	0.7218	0.9851	-3.11
Mof_C 	C 	0.8532	0.2922	0.4874	-64.19
Mof_H 	H 	0.8865	0.283	0.4879	131.351
Mof_F 	F 	0.9002	0.277	0.4879	-116.233
Mof_C 	C 	0.818	0.2551	0.4858	25.82
Mof_H 	H 	0.827	0.2218	0.4851	-6.941
Mof_C 	C 	0.3532	0.7922	0.4874	-27.335
Mof_H 	H 	0.3865	0.783	0.4879	47.201
Mof_F 	F 	0.4002	0.777	0.4879	-38.387
Mof_C 	C 	0.318	0.7551	0.4858	13.804
Mof_H 	H 	0.327	0.7218	0.4851	-2.401
Mof_C 	C 	0.3532	0.2922	0.9874	82.296
Mof_H 	H 	0.3865	0.283	0.9879	-155.291
Mof_F 	F 	0.4002	0.277	0.9879	135.242
Mof_C 	C 	0.318	0.2551	0.9858	-36.923
Mof_H 	H 	0.327	0.2218	0.9851	11.09
Mof_C 	C 	0.7922	0.9874	0.8532	-13.905
Mof_H 	H 	0.783	0.9879	0.8865	27.697
Mof_F 	F 	0.777	0.9879	0.9002	-23.162
Mof_C 	C 	0.7551	0.9858	0.818	9.327
Mof_H 	H 	0.7218	0.9851	0.827	-3.11
Mof_C 	C 	0.7922	0.4874	0.3532	-27.335
Mof_H 	H 	0.783	0.4879	0.3865	47.201
Mof_F 	F 	0.777	0.4879	0.4002	-38.387
Mof_C 	C 	0.7551	0.4858	0.318	13.804
Mof_H 	H 	0.7218	0.4851	0.327	-2.401
Mof_C 	C 	0.2922	0.9874	0.3532	82.296
Mof_H 	H 	0.283	0.9879	0.3865	-155.291
Mof_F 	F 	0.277	0.9879	0.4002	135.242
Mof_C 	C 	0.2551	0.9858	0.318	-36.923
Mof_H 	H 	0.2218	0.9851	0.327	11.09
Mof_C 	C 	0.2922	0.4874	0.8532	-64.19
Mof_H 	H 	0.283	0.4879	0.8865	131.351
Mof_F 	F 	0.277	0.4879	0.9002	-116.233
Mof_C 	C 	0.2551	0.4858	0.818	25.82
Mof_H 	H 	0.2218	0.4851	0.827	-6.941
Mof_C 	C 	0.2078	0.9874	0.1468	-14.426
Mof_H 	H 	0.217	0.9879	0.1135	28.763
Mof_F 	F 	0.223	0.9879	0.0998	-24.087
Mof_C 	C 	0.2449	0.9858	0.182	9.595
Mof_H 	H 	0.2782	0.9851	0.173	-3.182
Mof_C 	C 	0.2078	0.4874	0.6468	-27.533
Mof_H 	H 	0.217	0.4879	0.6135	47.541
Mof_F 	F 	0.223	0.4879	0.5998	-38.666
Mof_C 	C 	0.2449	0.4858	0.682	13.921
Mof_H 	H 	0.2782	0.4851	0.673	-2.435
Mof_C 	C 	0.7078	0.9874	0.6468	82.22
Mof_H 	H 	0.717	0.9879	0.6135	-155.17
Mof_F 	F 	0.723	0.9879	0.5998	135.14
Mof_C 	C 	0.7449	0.9858	0.682	-36.887
Mof_H 	H 	0.7782	0.9851	0.673	11.072
Mof_C 	C 	0.7078	0.4874	0.1468	-64.621
Mof_H 	H 	0.717	0.4879	0.1135	132.239
Mof_F 	F 	0.723	0.4879	0.0998	-117.015
Mof_C 	C 	0.7449	0.4858	0.182	26.017
Mof_H 	H 	0.7782	0.4851	0.173	-7.001
Mof_C 	C 	0.2078	0.0126	0.8532	-15.718
Mof_H 	H 	0.217	0.0121	0.8865	27.542
Mof_F 	F 	0.223	0.0121	0.9002	-22.821
Mof_C 	C 	0.2449	0.0142	0.818	8.601
Mof_H 	H 	0.2782	0.0149	0.827	-3.08
Mof_C 	C 	0.2078	0.5126	0.3532	-27.484
Mof_H 	H 	0.217	0.5121	0.3865	47.439
Mof_F 	F 	0.223	0.5121	0.4002	-38.575
Mof_C 	C 	0.2449	0.5142	0.318	13.891
Mof_H 	H 	0.2782	0.5149	0.327	-2.422
Mof_C 	C 	0.7078	0.0126	0.3532	80.57
Mof_H 	H 	0.717	0.0121	0.3865	-155.645
Mof_F 	F 	0.723	0.0121	0.4002	135.746
Mof_C 	C 	0.7449	0.0142	0.318	-37.723
Mof_H 	H 	0.7782	0.0149	0.327	11.133
Mof_C 	C 	0.7078	0.5126	0.8532	-64.218
Mof_H 	H 	0.717	0.5121	0.8865	131.388
Mof_F 	F 	0.723	0.5121	0.9002	-116.26
Mof_C 	C 	0.7449	0.5142	0.818	25.835
Mof_H 	H 	0.7782	0.5149	0.827	-6.949
Mof_C 	C 	0.7922	0.0126	0.1468	-15.98
Mof_H 	H 	0.783	0.0121	0.1135	28.153
Mof_F 	F 	0.777	0.0121	0.0998	-23.383
Mof_C 	C 	0.7551	0.0142	0.182	8.69
Mof_H 	H 	0.7218	0.0149	0.173	-3.113
Mof_C 	C 	0.7922	0.5126	0.6468	-27.395
Mof_H 	H 	0.783	0.5121	0.6135	47.309
Mof_F 	F 	0.777	0.5121	0.5998	-38.48
Mof_C 	C 	0.7551	0.5142	0.682	13.83
Mof_H 	H 	0.7218	0.5149	0.673	-2.415
Mof_C 	C 	0.2922	0.0126	0.6468	80.536
Mof_H 	H 	0.283	0.0121	0.6135	-155.571
Mof_F 	F 	0.277	0.0121	0.5998	135.678
Mof_C 	C 	0.2551	0.0142	0.682	-37.713
Mof_H 	H 	0.2218	0.0149	0.673	11.126
Mof_C 	C 	0.2922	0.5126	0.1468	-64.604
Mof_H 	H 	0.283	0.5121	0.1135	132.211
Mof_F 	F 	0.277	0.5121	0.0998	-116.993
Mof_C 	C 	0.2551	0.5142	0.182	25.998
Mof_H 	H 	0.2218	0.5149	0.173	-6.995
Mof_C 	C 	0.9874	0.1468	0.2078	-14.426
Mof_H 	H 	0.9879	0.1135	0.217	28.763
Mof_F 	F 	0.9879	0.0998	0.223	-24.087
Mof_C 	C 	0.9858	0.182	0.2449	9.595
Mof_H 	H 	0.9851	0.173	0.2782	-3.182
Mof_C 	C 	0.9874	0.6468	0.7078	82.22
Mof_H 	H 	0.9879	0.6135	0.717	-155.17
Mof_F 	F 	0.9879	0.5998	0.723	135.14
Mof_C 	C 	0.9858	0.682	0.7449	-36.887
Mof_H 	H 	0.9851	0.673	0.7782	11.072
Mof_C 	C 	0.4874	0.1468	0.7078	-64.621
Mof_H 	H 	0.4879	0.1135	0.717	132.239
Mof_F 	F 	0.4879	0.0998	0.723	-117.015
Mof_C 	C 	0.4858	0.182	0.7449	26.017
Mof_H 	H 	0.4851	0.173	0.7782	-7.001
Mof_C 	C 	0.4874	0.6468	0.2078	-27.533
Mof_H 	H 	0.4879	0.6135	0.217	47.541
Mof_F 	F 	0.4879	0.5998	0.223	-38.666
Mof_C 	C 	0.4858	0.682	0.2449	13.921
Mof_H 	H 	0.4851	0.673	0.2782	-2.435
Mof_C 	C 	0.9874	0.8532	0.7922	-13.905
Mof_H 	H 	0.9879	0.8865	0.783	27.697
Mof_F 	F 	0.9879	0.9002	0.777	-23.162
Mof_C 	C 	0.9858	0.818	0.7551	9.327
Mof_H 	H 	0.9851	0.827	0.7218	-3.11
Mof_C 	C 	0.9874	0.3532	0.2922	82.296
Mof_H 	H 	0.9879	0.3865	0.283	-155.291
Mof_F 	F 	0.9879	0.4002	0.277	135.242
Mof_C 	C 	0.9858	0.318	0.2551	-36.923
Mof_H 	H 	0.9851	0.327	0.2218	11.09
Mof_C 	C 	0.4874	0.8532	0.2922	-64.19
Mof_H 	H 	0.4879	0.8865	0.283	131.351
Mof_F 	F 	0.4879	0.9002	0.277	-116.233
Mof_C 	C 	0.4858	0.818	0.2551	25.82
Mof_H 	H 	0.4851	0.827	0.2218	-6.941
Mof_C 	C 	0.4874	0.3532	0.7922	-27.335
Mof_H 	H 	0.4879	0.3865	0.783	47.201
Mof_F 	F 	0.4879	0.4002	0.777	-38.387
Mof_C 	C 	0.4858	0.318	0.7551	13.804
Mof_H 	H 	0.4851	0.327	0.7218	-2.401
Mof_C 	C 	0.0126	0.1468	0.7922	-15.98
Mof_H 	H 	0.0121	0.1135	0.783	28.153
Mof_F 	F 	0.0121	0.0998	0.777	-23.383
Mof_C 	C 	0.0142	0.182	0.7551	8.69
Mof_H 	H 	0.0149	0.173	0.7218	-3.113
Mof_C 	C 	0.0126	0.6468	0.2922	80.536
Mof_H 	H 	0.0121	0.6135	0.283	-155.571
Mof_F 	F 	0.0121	0.5998	0.277	135.678
Mof_C 	C 	0.0142	0.682	0.2551	-37.713
Mof_H 	H 	0.0149	0.673	0.2218	11.126
Mof_C 	C 	0.5126	0.1468	0.2922	-64.604
Mof_H 	H 	0.5121	0.1135	0.283	132.211
Mof_F 	F 	0.5121	0.0998	0.277	-116.993
Mof_C 	C 	0.5142	0.182	0.2551	25.998
Mof_H 	H 	0.5149	0.173	0.2218	-6.995
Mof_C 	C 	0.5126	0.6468	0.7922	-27.395
Mof_H 	H 	0.5121	0.6135	0.783	47.309
Mof_F 	F 	0.5121	0.5998	0.777	-38.48
Mof_C 	C 	0.5142	0.682	0.7551	13.83
Mof_H 	H 	0.5149	0.673	0.7218	-2.415
Mof_C 	C 	0.0126	0.8532	0.2078	-15.718
Mof_H 	H 	0.0121	0.8865	0.217	27.542
Mof_F 	F 	0.0121	0.9002	0.223	-22.821
Mof_C 	C 	0.0142	0.818	0.2449	8.601
Mof_H 	H 	0.0149	0.827	0.2782	-3.08
Mof_C 	C 	0.0126	0.3532	0.7078	80.57
Mof_H 	H 	0.0121	0.3865	0.717	-155.645
Mof_F 	F 	0.0121	0.4002	0.723	135.746
Mof_C 	C 	0.0142	0.318	0.7449	-37.723
Mof_H 	H 	0.0149	0.327	0.7782	11.133
Mof_C 	C 	0.5126	0.8532	0.7078	-64.218
Mof_H 	H 	0.5121	0.8865	0.717	131.388
Mof_F 	F 	0.5121	0.9002	0.723	-116.26
Mof_C 	C 	0.5142	0.818	0.7449	25.835
Mof_H 	H 	0.5149	0.827	0.7782	-6.949
Mof_C 	C 	0.5126	0.3532	0.2078	-27.484
Mof_H 	H 	0.5121	0.3865	0.217	47.439
Mof_F 	F 	0.5121	0.4002	0.223	-38.575
Mof_C 	C 	0.5142	0.318	0.2449	13.891
Mof_H 	H 	0.5149	0.327	0.2782	-2.422
Mof_Tb	Tb	0.1004	0	-0	2.83
Mof_Tb	Tb	0.1004	0.5	0.5	2.563
Mof_Tb	Tb	0.6004	0	0.5	3.155
Mof_Tb	Tb	0.6004	0.5	-0	3.155
Mof_Tb	Tb	0.8996	0	-0	2.825
Mof_Tb	Tb	0.8996	0.5	0.5	2.553
Mof_Tb	Tb	0.3996	0	0.5	3.156
Mof_Tb	Tb	0.3996	0.5	-0	3.156
Mof_Tb	Tb	-0	0.1004	-0	2.83
Mof_Tb	Tb	1.8747e-33	0.6004	0.5	3.155
Mof_Tb	Tb	0.5	0.1004	0.5	2.563
Mof_Tb	Tb	0.5	0.6004	-0	3.155
Mof_Tb	Tb	-9.69708e-33	0.8996	-0	2.825
Mof_Tb	Tb	1.8747e-33	0.3996	0.5	3.156
Mof_Tb	Tb	0.5	0.8996	0.5	2.553
Mof_Tb	Tb	0.5	0.3996	-0	3.156
Mof_Tb	Tb	3.7644e-34	0	0.1004	2.83
Mof_Tb	Tb	-2.5974e-33	0.5	0.6004	3.155
Mof_Tb	Tb	0.5	0	0.6004	3.155
Mof_Tb	Tb	0.5	0.5	0.1004	2.563
Mof_Tb	Tb	-6.32412e-33	-9.69708e-33	0.8996	2.825
Mof_Tb	Tb	1.49826e-33	0.5	0.3996	3.156
Mof_Tb	Tb	0.5	0	0.3996	3.156
Mof_Tb	Tb	0.5	0.5	0.8996	2.553
Mof_C 	C 	0.1203	0.8797	-0	-6.214
Mof_C 	C 	0.1203	0.3797	0.5	-18.984
Mof_C 	C 	0.6203	0.8797	0.5	-18.912
Mof_C 	C 	0.6203	0.3797	-0	34.576
Mof_C 	C 	0.8797	0.1203	-0	-6.214
Mof_C 	C 	0.8797	0.6203	0.5	-18.912
Mof_C 	C 	0.3797	0.1203	0.5	-18.984
Mof_C 	C 	0.3797	0.6203	-0	34.576
Mof_C 	C 	0.8797	0.8797	-0	-6.128
Mof_C 	C 	0.8797	0.3797	0.5	-18.895
Mof_C 	C 	0.3797	0.8797	0.5	-18.895
Mof_C 	C 	0.3797	0.3797	-0	34.591
Mof_C 	C 	0.1203	0.1203	-0	-6.302
Mof_C 	C 	0.1203	0.6203	0.5	-19.001
Mof_C 	C 	0.6203	0.1203	0.5	-19.001
Mof_C 	C 	0.6203	0.6203	-0	34.561
Mof_C 	C 	-6.39873e-33	0.1203	0.8797	-6.214
Mof_C 	C 	-3.42489e-33	0.6203	0.3797	34.576
Mof_C 	C 	0.5	0.1203	0.3797	-18.984
Mof_C 	C 	0.5	0.6203	0.8797	-18.912
Mof_C 	C 	-4.39748e-33	0.8797	0.1203	-6.214
Mof_C 	C 	-7.37132e-33	0.3797	0.6203	34.576
Mof_C 	C 	0.5	0.8797	0.6203	-18.912
Mof_C 	C 	0.5	0.3797	0.1203	-18.984
Mof_C 	C 	3.29835e-33	0.8797	0.8797	-6.128
Mof_C 	C 	-8.27343e-33	0.3797	0.3797	34.591
Mof_C 	C 	0.5	0.8797	0.3797	-18.895
Mof_C 	C 	0.5	0.3797	0.8797	-18.895
Mof_C 	C 	4.51053e-34	0.1203	0.1203	-6.302
Mof_C 	C 	-7.37132e-33	0.6203	0.6203	34.561
Mof_C 	C 	0.5	0.1203	0.6203	-19.001
Mof_C 	C 	0.5	0.6203	0.1203	-19.001
Mof_C 	C 	0.8797	0	0.1203	-6.214
Mof_C 	C 	0.8797	0.5	0.6203	-18.912
Mof_C 	C 	0.3797	0	0.6203	34.576
Mof_C 	C 	0.3797	0.5	0.1203	-18.984
Mof_C 	C 	0.1203	-9.69708e-33	0.8797	-6.214
Mof_C 	C 	0.1203	0.5	0.3797	-18.984
Mof_C 	C 	0.6203	-4.84854e-33	0.3797	34.576
Mof_C 	C 	0.6203	0.5	0.8797	-18.912
Mof_C 	C 	0.8797	-9.69708e-33	0.8797	-6.128
Mof_C 	C 	0.8797	0.5	0.3797	-18.895
Mof_C 	C 	0.3797	-4.84854e-33	0.3797	34.591
Mof_C 	C 	0.3797	0.5	0.8797	-18.895
Mof_C 	C 	0.1203	0	0.1203	-6.302
Mof_C 	C 	0.1203	0.5	0.6203	-19.001
Mof_C 	C 	0.6203	0	0.6203	34.561
Mof_C 	C 	0.6203	0.5	0.1203	-19.001
Mof_C 	C 	0.15815	0.84185	0.0116	8.407
Mof_C 	C 	0.23075	0.76925	0.0147	-8.677
Mof_C 	C 	0.15815	0.34185	0.5116	26.171
Mof_C 	C 	0.23075	0.26925	0.5147	-7.031
Mof_C 	C 	0.65815	0.84185	0.5116	26.028
Mof_C 	C 	0.73075	0.76925	0.5147	-6.999
Mof_C 	C 	0.65815	0.34185	0.0116	-46.311
Mof_C 	C 	0.73075	0.26925	0.0147	19.315
Mof_C 	C 	0.84185	0.15815	0.0116	8.407
Mof_C 	C 	0.76925	0.23075	0.0147	-8.677
Mof_C 	C 	0.84185	0.65815	0.5116	26.028
Mof_C 	C 	0.76925	0.73075	0.5147	-6.999
Mof_C 	C 	0.34185	0.15815	0.5116	26.171
Mof_C 	C 	0.26925	0.23075	0.5147	-7.031
Mof_C 	C 	0.34185	0.65815	0.0116	-46.311
Mof_C 	C 	0.26925	0.73075	0.0147	19.315
Mof_C 	C 	0.84185	0.84185	0.9884	9.418
Mof_C 	C 	0.76925	0.76925	0.9853	-8.709
Mof_C 	C 	0.84185	0.34185	0.4884	26.012
Mof_C 	C 	0.76925	0.26925	0.4853	-6.965
Mof_C 	C 	0.34185	0.84185	0.4884	26.012
Mof_C 	C 	0.26925	0.76925	0.4853	-6.965
Mof_C 	C 	0.34185	0.34185	0.9884	-45.138
Mof_C 	C 	0.26925	0.26925	0.9853	19.24
Mof_C 	C 	0.15815	0.15815	0.9884	9.751
Mof_C 	C 	0.23075	0.23075	0.9853	-8.832
Mof_C 	C 	0.15815	0.65815	0.4884	26.198
Mof_C 	C 	0.23075	0.73075	0.4853	-7.057
Mof_C 	C 	0.65815	0.15815	0.4884	26.198
Mof_C 	C 	0.73075	0.23075	0.4853	-7.057
Mof_C 	C 	0.65815	0.65815	0.9884	-45.103
Mof_C 	C 	0.73075	0.73075	0.9853	19.18
Mof_C 	C 	0.0116	0.15815	0.84185	8.407
Mof_C 	C 	0.0147	0.23075	0.76925	-8.677
Mof_C 	C 	0.0116	0.65815	0.34185	-46.311
Mof_C 	C 	0.0147	0.73075	0.26925	19.315
Mof_C 	C 	0.5116	0.15815	0.34185	26.171
Mof_C 	C 	0.5147	0.23075	0.26925	-7.031
Mof_C 	C 	0.5116	0.65815	0.84185	26.028
Mof_C 	C 	0.5147	0.73075	0.76925	-6.999
Mof_C 	C 	0.0116	0.84185	0.15815	8.407
Mof_C 	C 	0.0147	0.76925	0.23075	-8.677
Mof_C 	C 	0.0116	0.34185	0.65815	-46.311
Mof_C 	C 	0.0147	0.26925	0.73075	19.315
Mof_C 	C 	0.5116	0.84185	0.65815	26.028
Mof_C 	C 	0.5147	0.76925	0.73075	-6.999
Mof_C 	C 	0.5116	0.34185	0.15815	26.171
Mof_C 	C 	0.5147	0.26925	0.23075	-7.031
Mof_C 	C 	0.9884	0.84185	0.84185	9.418
Mof_C 	C 	0.9853	0.76925	0.76925	-8.709
Mof_C 	C 	0.9884	0.34185	0.34185	-45.138
Mof_C 	C 	0.9853	0.26925	0.26925	19.24
Mof_C 	C 	0.4884	0.84185	0.34185	26.012
Mof_C 	C 	0.4853	0.76925	0.26925	-6.965
Mof_C 	C 	0.4884	0.34185	0.84185	26.012
Mof_C 	C 	0.4853	0.26925	0.76925	-6.965
Mof_C 	C 	0.9884	0.15815	0.15815	9.751
Mof_C 	C 	0.9853	0.23075	0.23075	-8.832
Mof_C 	C 	0.9884	0.65815	0.65815	-45.103
Mof_C 	C 	0.9853	0.73075	0.73075	19.18
Mof_C 	C 	0.4884	0.15815	0.65815	26.198
Mof_C 	C 	0.4853	0.23075	0.73075	-7.057
Mof_C 	C 	0.4884	0.65815	0.15815	26.198
Mof_C 	C 	0.4853	0.73075	0.23075	-7.057
Mof_C 	C 	0.84185	0.0116	0.15815	8.407
Mof_C 	C 	0.76925	0.0147	0.23075	-8.677
Mof_C 	C 	0.84185	0.5116	0.65815	26.028
Mof_C 	C 	0.76925	0.5147	0.73075	-6.999
Mof_C 	C 	0.34185	0.0116	0.65815	-46.311
Mof_C 	C 	0.26925	0.0147	0.73075	19.315
Mof_C 	C 	0.34185	0.5116	0.15815	26.171
Mof_C 	C 	0.26925	0.5147	0.23075	-7.031
Mof_C 	C 	0.15815	0.0116	0.84185	8.407
Mof_C 	C 	0.23075	0.0147	0.76925	-8.677
Mof_C 	C 	0.15815	0.5116	0.34185	26.171
Mof_C 	C 	0.23075	0.5147	0.26925	-7.031
Mof_C 	C 	0.65815	0.0116	0.34185	-46.311
Mof_C 	C 	0.73075	0.0147	0.26925	19.315
Mof_C 	C 	0.65815	0.5116	0.84185	26.028
Mof_C 	C 	0.73075	0.5147	0.76925	-6.999
Mof_C 	C 	0.84185	0.9884	0.84185	9.418
Mof_C 	C 	0.76925	0.9853	0.76925	-8.709
Mof_C 	C 	0.84185	0.4884	0.34185	26.012
Mof_C 	C 	0.76925	0.4853	0.26925	-6.965
Mof_C 	C 	0.34185	0.9884	0.34185	-45.138
Mof_C 	C 	0.26925	0.9853	0.26925	19.24
Mof_C 	C 	0.34185	0.4884	0.84185	26.012
Mof_C 	C 	0.26925	0.4853	0.76925	-6.965
Mof_C 	C 	0.15815	0.9884	0.15815	9.751
Mof_C 	C 	0.23075	0.9853	0.23075	-8.832
Mof_C 	C 	0.15815	0.4884	0.65815	26.198
Mof_C 	C 	0.23075	0.4853	0.73075	-7.057
Mof_C 	C 	0.65815	0.9884	0.65815	-45.103
Mof_C 	C 	0.73075	0.9853	0.73075	19.18
Mof_C 	C 	0.65815	0.4884	0.15815	26.198
Mof_C 	C 	0.73075	0.4853	0.23075	-7.057
Mof_C 	C 	0.84185	0.15815	0.9884	9.583
Mof_C 	C 	0.76925	0.23075	0.9853	-8.77
Mof_C 	C 	0.84185	0.65815	0.4884	26.034
Mof_C 	C 	0.76925	0.73075	0.4853	-6.995
Mof_C 	C 	0.34185	0.15815	0.4884	26.178
Mof_C 	C 	0.26925	0.23075	0.4853	-7.027
Mof_C 	C 	0.34185	0.65815	0.9884	-45.12
Mof_C 	C 	0.26925	0.73075	0.9853	19.21
Mof_C 	C 	0.15815	0.84185	0.9884	9.583
Mof_C 	C 	0.23075	0.76925	0.9853	-8.77
Mof_C 	C 	0.15815	0.34185	0.4884	26.178
Mof_C 	C 	0.23075	0.26925	0.4853	-7.027
Mof_C 	C 	0.65815	0.84185	0.4884	26.034
Mof_C 	C 	0.73075	0.76925	0.4853	-6.995
Mof_C 	C 	0.65815	0.34185	0.9884	-45.12
Mof_C 	C 	0.73075	0.26925	0.9853	19.21
Mof_C 	C 	0.84185	0.84185	0.0116	8.254
Mof_C 	C 	0.76925	0.76925	0.0147	-8.62
Mof_C 	C 	0.84185	0.34185	0.5116	26.006
Mof_C 	C 	0.76925	0.26925	0.5147	-6.969
Mof_C 	C 	0.34185	0.84185	0.5116	26.006
Mof_C 	C 	0.26925	0.76925	0.5147	-6.969
Mof_C 	C 	0.34185	0.34185	0.0116	-46.332
Mof_C 	C 	0.26925	0.26925	0.0147	19.343
Mof_C 	C 	0.15815	0.15815	0.0116	8.564
Mof_C 	C 	0.23075	0.23075	0.0147	-8.736
Mof_C 	C 	0.15815	0.65815	0.5116	26.192
Mof_C 	C 	0.23075	0.73075	0.5147	-7.061
Mof_C 	C 	0.65815	0.15815	0.5116	26.192
Mof_C 	C 	0.73075	0.23075	0.5147	-7.061
Mof_C 	C 	0.65815	0.65815	0.0116	-46.292
Mof_C 	C 	0.73075	0.73075	0.0147	19.288
Mof_C 	C 	0.15815	0.0116	0.15815	8.564
Mof_C 	C 	0.23075	0.0147	0.23075	-8.736
Mof_C 	C 	0.15815	0.5116	0.65815	26.192
Mof_C 	C 	0.23075	0.5147	0.73075	-7.061
Mof_C 	C 	0.65815	0.0116	0.65815	-46.292
Mof_C 	C 	0.73075	0.0147	0.73075	19.288
Mof_C 	C 	0.65815	0.5116	0.15815	26.192
Mof_C 	C 	0.73075	0.5147	0.23075	-7.061
Mof_C 	C 	0.84185	0.0116	0.84185	8.254
Mof_C 	C 	0.76925	0.0147	0.76925	-8.62
Mof_C 	C 	0.84185	0.5116	0.34185	26.006
Mof_C 	C 	0.76925	0.5147	0.26925	-6.969
Mof_C 	C 	0.34185	0.0116	0.34185	-46.332
Mof_C 	C 	0.26925	0.0147	0.26925	19.343
Mof_C 	C 	0.34185	0.5116	0.84185	26.006
Mof_C 	C 	0.26925	0.5147	0.76925	-6.969
Mof_C 	C 	0.84185	0.9884	0.15815	9.583
Mof_C 	C 	0.76925	0.9853	0.23075	-8.77
Mof_C 	C 	0.84185	0.4884	0.65815	26.034
Mof_C 	C 	0.76925	0.4853	0.73075	-6.995
Mof_C 	C 	0.34185	0.9884	0.65815	-45.12
Mof_C 	C 	0.26925	0.9853	0.73075	19.21
Mof_C 	C 	0.34185	0.4884	0.15815	26.178
Mof_C 	C 	0.26925	0.4853	0.23075	-7.027
Mof_C 	C 	0.15815	0.9884	0.84185	9.583
Mof_C 	C 	0.23075	0.9853	0.76925	-8.77
Mof_C 	C 	0.15815	0.4884	0.34185	26.178
Mof_C 	C 	0.23075	0.4853	0.26925	-7.027
Mof_C 	C 	0.65815	0.9884	0.34185	-45.12
Mof_C 	C 	0.73075	0.9853	0.26925	19.21
Mof_C 	C 	0.65815	0.4884	0.84185	26.034
Mof_C 	C 	0.73075	0.4853	0.76925	-6.995
Mof_C 	C 	0.0116	0.84185	0.84185	8.254
Mof_C 	C 	0.0147	0.76925	0.76925	-8.62
Mof_C 	C 	0.0116	0.34185	0.34185	-46.332
Mof_C 	C 	0.0147	0.26925	0.26925	19.343
Mof_C 	C 	0.5116	0.84185	0.34185	26.006
Mof_C 	C 	0.5147	0.76925	0.26925	-6.969
Mof_C 	C 	0.5116	0.34185	0.84185	26.006
Mof_C 	C 	0.5147	0.26925	0.76925	-6.969
Mof_C 	C 	0.0116	0.15815	0.15815	8.564
Mof_C 	C 	0.0147	0.23075	0.23075	-8.736
Mof_C 	C 	0.0116	0.65815	0.65815	-46.292
Mof_C 	C 	0.0147	0.73075	0.73075	19.288
Mof_C 	C 	0.5116	0.15815	0.65815	26.192
Mof_C 	C 	0.5147	0.23075	0.73075	-7.061
Mof_C 	C 	0.5116	0.65815	0.15815	26.192
Mof_C 	C 	0.5147	0.73075	0.23075	-7.061
Mof_C 	C 	0.9884	0.84185	0.15815	9.583
Mof_C 	C 	0.9853	0.76925	0.23075	-8.77
Mof_C 	C 	0.9884	0.34185	0.65815	-45.12
Mof_C 	C 	0.9853	0.26925	0.73075	19.21
Mof_C 	C 	0.4884	0.84185	0.65815	26.034
Mof_C 	C 	0.4853	0.76925	0.73075	-6.995
Mof_C 	C 	0.4884	0.34185	0.15815	26.178
Mof_C 	C 	0.4853	0.26925	0.23075	-7.027
Mof_C 	C 	0.9884	0.15815	0.84185	9.583
Mof_C 	C 	0.9853	0.23075	0.76925	-8.77
Mof_C 	C 	0.9884	0.65815	0.34185	-45.12
Mof_C 	C 	0.9853	0.73075	0.26925	19.21
Mof_C 	C 	0.4884	0.15815	0.34185	26.178
Mof_C 	C 	0.4853	0.23075	0.26925	-7.027
Mof_C 	C 	0.4884	0.65815	0.84185	26.034
Mof_C 	C 	0.4853	0.73075	0.76925	-6.995
Mof_O 	O 	0.04628	0.04628	0.04628	-0.764
Mof_O 	O 	0.04628	0.54628	0.54628	-0.911
Mof_O 	O 	0.54628	0.04628	0.54628	-0.911
Mof_O 	O 	0.54628	0.54628	0.04628	-0.911
Mof_O 	O 	0.95372	0.95372	0.04628	-0.515
Mof_O 	O 	0.95372	0.45372	0.54628	-0.784
Mof_O 	O 	0.45372	0.95372	0.54628	-0.784
Mof_O 	O 	0.45372	0.45372	0.04628	-0.911
Mof_O 	O 	0.95372	0.04628	0.95372	-0.515
Mof_O 	O 	0.95372	0.54628	0.45372	-0.784
Mof_O 	O 	0.45372	0.04628	0.45372	-0.911
Mof_O 	O 	0.45372	0.54628	0.95372	-0.784
Mof_O 	O 	0.04628	0.95372	0.95372	-0.515
Mof_O 	O 	0.04628	0.45372	0.45372	-0.911
Mof_O 	O 	0.54628	0.95372	0.45372	-0.784
Mof_O 	O 	0.54628	0.45372	0.95372	-0.784
Mof_O 	O 	0.04628	0.04628	0.95372	-0.638
Mof_O 	O 	0.04628	0.54628	0.45372	-0.911
Mof_O 	O 	0.54628	0.04628	0.45372	-0.911
Mof_O 	O 	0.54628	0.54628	0.95372	-0.784
Mof_O 	O 	0.95372	0.95372	0.95372	-0.394
Mof_O 	O 	0.95372	0.45372	0.45372	-0.783
Mof_O 	O 	0.45372	0.95372	0.45372	-0.783
Mof_O 	O 	0.45372	0.45372	0.95372	-0.783
Mof_O 	O 	0.04628	0.95372	0.04628	-0.638
Mof_O 	O 	0.04628	0.45372	0.54628	-0.911
Mof_O 	O 	0.54628	0.95372	0.54628	-0.784
Mof_O 	O 	0.54628	0.45372	0.04628	-0.911
Mof_O 	O 	0.95372	0.04628	0.04628	-0.638
Mof_O 	O 	0.95372	0.54628	0.54628	-0.784
Mof_O 	O 	0.45372	0.04628	0.54628	-0.911
Mof_O 	O 	0.45372	0.54628	0.04628	-0.911
Mof_O 	O 	0.13637	0.92325	-0	2.819
Mof_O 	O 	0.13637	0.42325	0.5	6.941
Mof_O 	O 	0.63637	0.92325	0.5	5.785
Mof_O 	O 	0.63637	0.42325	-0	-11.392
Mof_O 	O 	0.86363	0.07675	-0	2.765
Mof_O 	O 	0.86363	0.57675	0.5	6.905
Mof_O 	O 	0.36363	0.07675	0.5	5.768
Mof_O 	O 	0.36363	0.57675	-0	-11.391
Mof_O 	O 	0.86363	0.92325	-0	2.777
Mof_O 	O 	0.86363	0.42325	0.5	6.899
Mof_O 	O 	0.36363	0.92325	0.5	5.779
Mof_O 	O 	0.36363	0.42325	-0	-11.397
Mof_O 	O 	0.13637	0.07675	-0	2.807
Mof_O 	O 	0.13637	0.57675	0.5	6.947
Mof_O 	O 	0.63637	0.07675	0.5	5.773
Mof_O 	O 	0.63637	0.57675	-0	-11.386
Mof_O 	O 	-6.23544e-33	0.13637	0.92325	2.819
Mof_O 	O 	-3.2616e-33	0.63637	0.42325	-11.392
Mof_O 	O 	0.5	0.13637	0.42325	6.941
Mof_O 	O 	0.5	0.63637	0.92325	5.785
Mof_O 	O 	-1.06214e-32	0.86363	0.07675	2.765
Mof_O 	O 	-7.53461e-33	0.36363	0.57675	-11.391
Mof_O 	O 	0.5	0.86363	0.57675	6.905
Mof_O 	O 	0.5	0.36363	0.07675	5.768
Mof_O 	O 	-2.56296e-32	0.86363	0.92325	2.777
Mof_O 	O 	-3.2616e-33	0.36363	0.42325	-11.397
Mof_O 	O 	0.5	0.86363	0.42325	6.899
Mof_O 	O 	0.5	0.36363	0.92325	5.779
Mof_O 	O 	-9.24368e-34	0.13637	0.07675	2.807
Mof_O 	O 	7.011e-33	0.63637	0.57675	-11.386
Mof_O 	O 	0.5	0.13637	0.57675	6.947
Mof_O 	O 	0.5	0.63637	0.07675	5.773
Mof_O 	O 	0.92325	0	0.13637	2.819
Mof_O 	O 	0.92325	0.5	0.63637	5.785
Mof_O 	O 	0.42325	-4.84854e-33	0.63637	-11.392
Mof_O 	O 	0.42325	0.5	0.13637	6.941
Mof_O 	O 	0.07675	-9.69708e-33	0.86363	2.765
Mof_O 	O 	0.07675	0.5	0.36363	5.768
Mof_O 	O 	0.57675	0	0.36363	-11.391
Mof_O 	O 	0.57675	0.5	0.86363	6.905
Mof_O 	O 	0.92325	-9.69708e-33	0.86363	2.777
Mof_O 	O 	0.92325	0.5	0.36363	5.779
Mof_O 	O 	0.42325	0	0.36363	-11.397
Mof_O 	O 	0.42325	0.5	0.86363	6.899
Mof_O 	O 	0.07675	0	0.13637	2.807
Mof_O 	O 	0.07675	0.5	0.63637	5.773
Mof_O 	O 	0.57675	-4.84854e-33	0.63637	-11.386
Mof_O 	O 	0.57675	0.5	0.13637	6.947
Mof_O 	O 	0.92325	0.13637	-0	2.819
Mof_O 	O 	0.92325	0.63637	0.5	5.785
Mof_O 	O 	0.42325	0.13637	0.5	6.941
Mof_O 	O 	0.42325	0.63637	-0	-11.392
Mof_O 	O 	0.07675	0.86363	-0	2.765
Mof_O 	O 	0.07675	0.36363	0.5	5.768
Mof_O 	O 	0.57675	0.86363	0.5	6.905
Mof_O 	O 	0.57675	0.36363	-0	-11.391
Mof_O 	O 	0.92325	0.86363	-0	2.777
Mof_O 	O 	0.92325	0.36363	0.5	5.779
Mof_O 	O 	0.42325	0.86363	0.5	6.899
Mof_O 	O 	0.42325	0.36363	-0	-11.397
Mof_O 	O 	0.07675	0.13637	-0	2.807
Mof_O 	O 	0.07675	0.63637	0.5	5.773
Mof_O 	O 	0.57675	0.13637	0.5	6.947
Mof_O 	O 	0.57675	0.63637	-0	-11.386
Mof_O 	O 	0.13637	-6.06067e-34	0.07675	2.807
Mof_O 	O 	0.13637	0.5	0.57675	6.947
Mof_O 	O 	0.63637	-4.84854e-33	0.57675	-11.386
Mof_O 	O 	0.63637	0.5	0.07675	5.773
Mof_O 	O 	0.86363	-9.69708e-33	0.92325	2.777
Mof_O 	O 	0.86363	0.5	0.42325	6.899
Mof_O 	O 	0.36363	0	0.42325	-11.397
Mof_O 	O 	0.36363	0.5	0.92325	5.779
Mof_O 	O 	0.86363	-6.06067e-34	0.07675	2.765
Mof_O 	O 	0.86363	0.5	0.57675	6.905
Mof_O 	O 	0.36363	-4.84854e-33	0.57675	-11.391
Mof_O 	O 	0.36363	0.5	0.07675	5.768
Mof_O 	O 	0.13637	-9.69708e-33	0.92325	2.819
Mof_O 	O 	0.13637	0.5	0.42325	6.941
Mof_O 	O 	0.63637	0	0.42325	-11.392
Mof_O 	O 	0.63637	0.5	0.92325	5.785
Mof_O 	O 	-2.58531e-32	0.92325	0.86363	2.777
Mof_O 	O 	-3.48514e-33	0.42325	0.36363	-11.397
Mof_O 	O 	0.5	0.92325	0.36363	5.779
Mof_O 	O 	0.5	0.42325	0.86363	6.899
Mof_O 	O 	-1.91296e-33	0.07675	0.13637	2.807
Mof_O 	O 	2.38601e-33	0.57675	0.63637	-11.386
Mof_O 	O 	0.5	0.07675	0.63637	5.773
Mof_O 	O 	0.5	0.57675	0.13637	6.947
Mof_O 	O 	-4.33723e-33	0.92325	0.13637	2.819
Mof_O 	O 	-7.31107e-33	0.42325	0.63637	-11.392
Mof_O 	O 	0.5	0.92325	0.63637	5.785
Mof_O 	O 	0.5	0.42325	0.13637	6.941
Mof_O 	O 	-6.45898e-33	0.07675	0.86363	2.765
Mof_O 	O 	-3.48514e-33	0.57675	0.36363	-11.391
Mof_O 	O 	0.5	0.07675	0.36363	5.768
Mof_O 	O 	0.5	0.57675	0.86363	6.905
_end
