# CIF file generated by openbabel 3.1.0, see https://openbabel.org
data_I
_chemical_name_common 'image0'
_cell_length_a 10.444
_cell_length_b 17.261
_cell_length_c 14.598
_cell_angle_alpha 90
_cell_angle_beta 98.461
_cell_angle_gamma 90
_space_group_name_H-M_alt 'P 1'
_space_group_name_Hall 'P 1'
loop_
    _symmetry_equiv_pos_as_xyz
    x,y,z
loop_
    _atom_site_label
    _atom_site_type_symbol
    _atom_site_fract_x
    _atom_site_fract_y
    _atom_site_fract_z
    _atom_site_occupancy
    Eu1      Eu       0.49692    0.12736    0.15665    1.000
    Eu2      Eu       0.98010    0.33497    0.09083    1.000
    O1       O        0.61040    0.00221    0.20200    1.000
    O2       O        0.39000    0.05118    0.26260    1.000
    O3       O        0.61650    0.98815    0.92670    1.000
    O4       O        0.56920    0.09254    0.00800    1.000
    O5       O        0.73670    0.13643    0.16310    1.000
    O6       O        0.31850    0.18244    0.04560    1.000
    O7       O        0.33920    0.20760    0.22850    1.000
    O8       O        0.14120    0.25845    0.02340    1.000
    O9       O        0.15190    0.27467    0.20610    1.000
    O10      O        0.90140    0.20919    0.12940    1.000
    O11      O        0.74100    0.32879    0.09060    1.000
    O12      O        0.87690    0.46346    0.05740    1.000
    O13      O        0.92120    0.58638    0.02250    1.000
    O14      O        0.37330    0.93565    0.33030    1.000
    O15      O        0.57870    0.88296    0.25880    1.000
    O16      O        0.57340    0.25670    0.12360    1.000
    C1       C        0.42610    0.98320    0.28090    1.000
    C2       C        0.55390    0.02310    0.98100    1.000
    C3       C        0.23300    0.22490    0.07340    1.000
    C4       C        0.24290    0.23670    0.17920    1.000
    C5       C        0.78490    0.19850    0.13780    1.000
    C6       C        0.69070    0.26780    0.11510    1.000
    C7       C        0.54970    0.95350    0.24300    1.000
    C8       C        0.94140    0.51430    0.02300    1.000
    Eu3      Eu       0.00308    0.62736    0.34335    1.000
    Eu4      Eu       0.51990    0.83497    0.40917    1.000
    O17      O        0.88960    0.50221    0.29800    1.000
    O18      O        0.11000    0.55118    0.23740    1.000
    O19      O        0.88350    0.48815    0.57330    1.000
    O20      O        0.93080    0.59254    0.49200    1.000
    O21      O        0.76330    0.63643    0.33690    1.000
    O22      O        0.18150    0.68244    0.45440    1.000
    O23      O        0.16080    0.70760    0.27150    1.000
    O24      O        0.35880    0.75845    0.47660    1.000
    O25      O        0.34810    0.77467    0.29390    1.000
    O26      O        0.59860    0.70919    0.37060    1.000
    O27      O        0.75900    0.82879    0.40940    1.000
    O28      O        0.62310    0.96346    0.44260    1.000
    O29      O        0.57880    0.08638    0.47750    1.000
    O30      O        0.12670    0.43565    0.16970    1.000
    O31      O        0.92130    0.38296    0.24120    1.000
    O32      O        0.92660    0.75670    0.37640    1.000
    C9       C        0.07390    0.48320    0.21910    1.000
    C10      C        0.94610    0.52310    0.51900    1.000
    C11      C        0.26700    0.72490    0.42660    1.000
    C12      C        0.25710    0.73670    0.32080    1.000
    C13      C        0.71510    0.69850    0.36220    1.000
    C14      C        0.80930    0.76780    0.38490    1.000
    C15      C        0.95030    0.45350    0.25700    1.000
    C16      C        0.55860    0.01430    0.47700    1.000
    Eu5      Eu       0.50308    0.87265    0.84335    1.000
    Eu6      Eu       0.01990    0.66503    0.90917    1.000
    O33      O        0.38960    0.99779    0.79800    1.000
    O34      O        0.61000    0.94882    0.73740    1.000
    O35      O        0.38350    0.01185    0.07330    1.000
    O36      O        0.43080    0.90746    0.99200    1.000
    O37      O        0.26330    0.86357    0.83690    1.000
    O38      O        0.68150    0.81756    0.95440    1.000
    O39      O        0.66080    0.79240    0.77150    1.000
    O40      O        0.85880    0.74155    0.97660    1.000
    O41      O        0.84810    0.72533    0.79390    1.000
    O42      O        0.09860    0.79081    0.87060    1.000
    O43      O        0.25900    0.67121    0.90940    1.000
    O44      O        0.12310    0.53654    0.94260    1.000
    O45      O        0.07880    0.41362    0.97750    1.000
    O46      O        0.62670    0.06435    0.66970    1.000
    O47      O        0.42130    0.11704    0.74120    1.000
    O48      O        0.42660    0.74330    0.87640    1.000
    C17      C        0.57390    0.01680    0.71910    1.000
    C18      C        0.44610    0.97690    0.01900    1.000
    C19      C        0.76700    0.77510    0.92660    1.000
    C20      C        0.75710    0.76330    0.82080    1.000
    C21      C        0.21510    0.80150    0.86220    1.000
    C22      C        0.30930    0.73220    0.88490    1.000
    C23      C        0.45030    0.04650    0.75700    1.000
    C24      C        0.05860    0.48570    0.97700    1.000
    Eu7      Eu       0.99692    0.37264    0.65665    1.000
    Eu8      Eu       0.48010    0.16503    0.59083    1.000
    O49      O        0.11040    0.49779    0.70200    1.000
    O50      O        0.89000    0.44882    0.76260    1.000
    O51      O        0.11650    0.51185    0.42670    1.000
    O52      O        0.06920    0.40746    0.50800    1.000
    O53      O        0.23670    0.36357    0.66310    1.000
    O54      O        0.81850    0.31756    0.54560    1.000
    O55      O        0.83920    0.29240    0.72850    1.000
    O56      O        0.64120    0.24155    0.52340    1.000
    O57      O        0.65190    0.22533    0.70610    1.000
    O58      O        0.40140    0.29081    0.62940    1.000
    O59      O        0.24100    0.17121    0.59060    1.000
    O60      O        0.37690    0.03654    0.55740    1.000
    O61      O        0.42120    0.91362    0.52250    1.000
    O62      O        0.87330    0.56435    0.83030    1.000
    O63      O        0.07870    0.61704    0.75880    1.000
    O64      O        0.07340    0.24330    0.62360    1.000
    C25      C        0.92610    0.51680    0.78090    1.000
    C26      C        0.05390    0.47690    0.48100    1.000
    C27      C        0.73300    0.27510    0.57340    1.000
    C28      C        0.74290    0.26330    0.67920    1.000
    C29      C        0.28490    0.30150    0.63780    1.000
    C30      C        0.19070    0.23220    0.61510    1.000
    C31      C        0.04970    0.54650    0.74300    1.000
    C32      C        0.44140    0.98570    0.52300    1.000
