data_functionalizedCrystal
_audit_creation_method	'EQeq! by Chris Wilmer'
_symmetry_space_group_name_H-M	'P1'
_symmetry_Int_Tables_number	1
_symmetry_cell_setting	triclinic
loop_
_symmetry_equiv_pos_as_xyz
  x,y,z
_cell_length_a	10.4821
_cell_length_b	10.4821
_cell_length_c	13.9283
_cell_angle_alpha	90
_cell_angle_beta	90
_cell_angle_gamma	90
loop_
_atom_site_label
_atom_site_type_symbol
_atom_site_fract_x
_atom_site_fract_y
_atom_site_fract_z
_atom_site_charge
Mof_Na	Na	0.597	0.597	-0	2.959
Mof_Na	Na	0.403	0.403	0.5	3.447
Mof_Na	Na	0.903	0.097	0.75	3.335
Mof_Na	Na	0.097	0.903	0.25	3.298
Mof_H 	H 	0.5527	0.6438	0.7688	0.133
Mof_H 	H 	0.6932	0.9489	0.6419	-0.036
Mof_H 	H 	0.5859	0.8867	0.4992	-0.011
Mof_H 	H 	0.4723	0.6987	0.4933	0.053
Mof_H 	H 	0.4473	0.3562	0.2688	0.121
Mof_H 	H 	0.3068	0.0511	0.1419	-0.075
Mof_H 	H 	0.4141	0.1133	0.9992	0.113
Mof_H 	H 	0.5277	0.3013	0.9933	0.175
Mof_H 	H 	0.8562	0.0527	0.5188	0.112
Mof_H 	H 	0.5511	0.1932	0.3919	-0.051
Mof_H 	H 	0.6133	0.0859	0.2492	-0.012
Mof_H 	H 	0.8013	0.9723	0.2433	0.06
Mof_H 	H 	0.1438	0.9473	0.0188	0.006
Mof_H 	H 	0.4489	0.8068	0.8919	0.015
Mof_H 	H 	0.3867	0.9141	0.7492	-0.026
Mof_H 	H 	0.1987	0.0277	0.7433	0.067
Mof_H 	H 	0.9473	0.1438	0.9812	0.2
Mof_H 	H 	0.8068	0.4489	0.1081	-0.065
Mof_H 	H 	0.9141	0.3867	0.2508	-0.005
Mof_H 	H 	0.0277	0.1987	0.2567	0.061
Mof_H 	H 	0.0527	0.8562	0.4812	0.114
Mof_H 	H 	0.1932	0.5511	0.6081	-0.05
Mof_H 	H 	0.0859	0.6133	0.7508	-0.006
Mof_H 	H 	0.9723	0.8013	0.7567	0.072
Mof_H 	H 	0.6438	0.5527	0.2312	0.129
Mof_H 	H 	0.9489	0.6932	0.3581	-0.039
Mof_H 	H 	0.8867	0.5859	0.5008	-0.01
Mof_H 	H 	0.6987	0.4723	0.5067	0.052
Mof_H 	H 	0.3562	0.4473	0.7312	0.121
Mof_H 	H 	0.0511	0.3068	0.8581	-0.005
Mof_H 	H 	0.1133	0.4141	0.0008	-0.136
Mof_H 	H 	0.3013	0.5277	0.0067	-0.063
Mof_C 	C 	0.6996	0.8249	0.814	0.562
Mof_C 	C 	0.6336	0.797	0.7189	-0.105
Mof_C 	C 	0.6447	0.8724	0.64	-0.03
Mof_C 	C 	0.5817	0.8338	0.5545	0.06
Mof_C 	C 	0.5153	0.722	0.5507	-0.289
Mof_C 	C 	0.51	0.6389	0.6331	0.373
Mof_C 	C 	0.3004	0.1751	0.314	0.603
Mof_C 	C 	0.3664	0.203	0.2189	-0.147
Mof_C 	C 	0.3553	0.1276	0.14	0.044
Mof_C 	C 	0.4183	0.1662	0.0545	-0.104
Mof_C 	C 	0.4847	0.278	0.0507	-0.407
Mof_C 	C 	0.49	0.3611	0.1331	0.386
Mof_C 	C 	0.6751	0.1996	0.564	0.598
Mof_C 	C 	0.703	0.1336	0.4689	-0.132
Mof_C 	C 	0.6276	0.1447	0.39	-0.015
Mof_C 	C 	0.6662	0.0817	0.3045	0.051
Mof_C 	C 	0.778	0.0153	0.3007	-0.289
Mof_C 	C 	0.8611	0.01	0.3831	0.338
Mof_C 	C 	0.3249	0.8004	0.064	0.444
Mof_C 	C 	0.297	0.8664	0.9689	0.029
Mof_C 	C 	0.3724	0.8553	0.89	-0.099
Mof_C 	C 	0.3338	0.9183	0.8045	0.104
Mof_C 	C 	0.222	0.9847	0.8007	-0.312
Mof_C 	C 	0.1389	0.99	0.8831	0.364
Mof_C 	C 	0.8004	0.3249	0.936	0.676
Mof_C 	C 	0.8664	0.297	0.0311	-0.227
Mof_C 	C 	0.8553	0.3724	0.11	0.019
Mof_C 	C 	0.9183	0.3338	0.1955	0.034
Mof_C 	C 	0.9847	0.222	0.1993	-0.284
Mof_C 	C 	0.99	0.1389	0.1169	0.342
Mof_C 	C 	0.1996	0.6751	0.436	0.596
Mof_C 	C 	0.1336	0.703	0.5311	-0.129
Mof_C 	C 	0.1447	0.6276	0.61	-0.017
Mof_C 	C 	0.0817	0.6662	0.6955	0.056
Mof_C 	C 	0.0153	0.778	0.6993	-0.293
Mof_C 	C 	0.01	0.8611	0.6169	0.343
Mof_C 	C 	0.8249	0.6996	0.186	0.572
Mof_C 	C 	0.797	0.6336	0.2811	-0.113
Mof_C 	C 	0.8724	0.6447	0.36	-0.027
Mof_C 	C 	0.8338	0.5817	0.4455	0.057
Mof_C 	C 	0.722	0.5153	0.4493	-0.287
Mof_C 	C 	0.6389	0.51	0.3669	0.371
Mof_C 	C 	0.1751	0.3004	0.686	0.589
Mof_C 	C 	0.203	0.3664	0.7811	-0.101
Mof_C 	C 	0.1276	0.3553	0.86	-0.082
Mof_C 	C 	0.1662	0.4183	0.9455	0.216
Mof_C 	C 	0.278	0.4847	0.9493	-0.124
Mof_C 	C 	0.3611	0.49	0.8669	0.319
Mof_N 	N 	0.5638	0.6867	0.7151	-0.237
Mof_N 	N 	0.4362	0.3133	0.2151	-0.228
Mof_N 	N 	0.8133	0.0638	0.4651	-0.225
Mof_N 	N 	0.1867	0.9362	0.9651	-0.147
Mof_N 	N 	0.9362	0.1867	0.0349	-0.292
Mof_N 	N 	0.0638	0.8133	0.5349	-0.226
Mof_N 	N 	0.6867	0.5638	0.2849	-0.235
Mof_N 	N 	0.3133	0.4362	0.7849	-0.228
Mof_O 	O 	0.6804	0.7476	0.8818	-0.64
Mof_O 	O 	0.7724	0.9198	0.8158	-0.682
Mof_O 	O 	0.4634	0.5288	0.6324	-0.713
Mof_O 	O 	0.3196	0.2524	0.3818	-0.747
Mof_O 	O 	0.2276	0.0802	0.3158	-0.712
Mof_O 	O 	0.5366	0.4712	0.1324	-0.676
Mof_O 	O 	0.7524	0.1804	0.6318	-0.739
Mof_O 	O 	0.5802	0.2724	0.5658	-0.731
Mof_O 	O 	0.9712	0.9634	0.3824	-0.666
Mof_O 	O 	0.2476	0.8196	0.1318	-0.708
Mof_O 	O 	0.4198	0.7276	0.0658	-0.675
Mof_O 	O 	0.0288	0.0366	0.8824	-0.661
Mof_O 	O 	0.8196	0.2476	0.8682	-0.745
Mof_O 	O 	0.7276	0.4198	0.9342	-0.652
Mof_O 	O 	0.0366	0.0288	0.1176	-0.687
Mof_O 	O 	0.1804	0.7524	0.3682	-0.735
Mof_O 	O 	0.2724	0.5802	0.4342	-0.731
Mof_O 	O 	0.9634	0.9712	0.6176	-0.67
Mof_O 	O 	0.7476	0.6804	0.1182	-0.708
Mof_O 	O 	0.9198	0.7724	0.1842	-0.713
Mof_O 	O 	0.5288	0.4634	0.3676	-0.713
Mof_O 	O 	0.2524	0.3196	0.6182	-0.744
Mof_O 	O 	0.0802	0.2276	0.6842	-0.711
Mof_O 	O 	0.4712	0.5366	0.8676	-0.609
_end
