# CIF file generated by openbabel 3.1.0, see https://openbabel.org
data_I
_chemical_name_common 'TETWOG_clean'
_cell_length_a 9.1238
_cell_length_b 9.6201
_cell_length_c 12.6475
_cell_angle_alpha 94.475
_cell_angle_beta 104.722
_cell_angle_gamma 114.437
_space_group_name_H-M_alt 'P 1'
_space_group_name_Hall 'P 1'
loop_
    _symmetry_equiv_pos_as_xyz
    x,y,z
loop_
    _atom_site_label
    _atom_site_type_symbol
    _atom_site_fract_x
    _atom_site_fract_y
    _atom_site_fract_z
    _atom_site_occupancy
    Co1      Co       0.87208    0.51391    0.70196    1.000
    Co2      Co       0.12792    0.48609    0.29804    1.000
    Co3      Co       0.50000    0.50000    0.50000    1.000
    Co4      Co       0.00000    0.00000    0.50000    1.000
    H1       H        0.36230    0.87510    0.59780    1.000
    H2       H        0.72730    0.88170    0.81650    1.000
    H3       H        0.51300    0.71620    0.86480    1.000
    H4       H        0.44520    0.58770    0.75540    1.000
    H5       H        0.39710    0.85830    0.77750    1.000
    H6       H        0.63670    0.97300    0.67980    1.000
    H7       H        0.42300    0.13630    0.83480    1.000
    H8       H        0.99280    0.39410    0.90290    1.000
    H9       H        0.89480    0.22570    0.01400    1.000
    H10      H        0.53690    0.30640    0.72910    1.000
    H11      H        0.68500    0.03300    0.07100    1.000
    H12      H        0.63770    0.12490    0.40220    1.000
    H13      H        0.27270    0.11830    0.18350    1.000
    H14      H        0.48700    0.28380    0.13520    1.000
    H15      H        0.55480    0.41230    0.24460    1.000
    H16      H        0.60290    0.14170    0.22250    1.000
    H17      H        0.36330    0.02700    0.32020    1.000
    H18      H        0.57700    0.86370    0.16520    1.000
    H19      H        0.00720    0.60590    0.09710    1.000
    H20      H        0.10520    0.77430    0.98600    1.000
    H21      H        0.46310    0.69360    0.27090    1.000
    H22      H        0.31500    0.96700    0.92900    1.000
    C1       C        0.67030    0.84870    0.55900    1.000
    C2       C        0.73950    0.69510    0.74110    1.000
    C3       C        0.29680    0.64990    0.52440    1.000
    C4       C        0.39540    0.79370    0.61830    1.000
    C5       C        0.65080    0.79330    0.75390    1.000
    C6       C        0.48940    0.69850    0.78440    1.000
    C7       C        0.36370    0.75800    0.72990    1.000
    C8       C        0.18120    0.65580    0.71970    1.000
    C9       C        0.58100    0.04130    0.00390    1.000
    C10      C        0.59190    0.86100    0.65100    1.000
    C11      C        0.64470    0.15500    0.93590    1.000
    C12      C        0.54000    0.18580    0.84970    1.000
    C13      C        0.87620    0.34020    0.88870    1.000
    C14      C        0.81850    0.23850    0.95590    1.000
    C15      C        0.60940    0.28910    0.78700    1.000
    C16      C        0.32970    0.15130    0.44100    1.000
    C17      C        0.26050    0.30490    0.25890    1.000
    C18      C        0.70320    0.35010    0.47560    1.000
    C19      C        0.60460    0.20630    0.38170    1.000
    C20      C        0.34920    0.20670    0.24610    1.000
    C21      C        0.51060    0.30150    0.21560    1.000
    C22      C        0.63630    0.24200    0.27010    1.000
    C23      C        0.81880    0.34420    0.28030    1.000
    C24      C        0.41900    0.95870    0.99610    1.000
    C25      C        0.40810    0.13900    0.34900    1.000
    C26      C        0.35530    0.84500    0.06410    1.000
    C27      C        0.46000    0.81420    0.15030    1.000
    C28      C        0.12380    0.65980    0.11130    1.000
    C29      C        0.18150    0.76150    0.04410    1.000
    C30      C        0.39060    0.71090    0.21300    1.000
    N1       N        0.77690    0.36640    0.80520    1.000
    N2       N        0.22310    0.63360    0.19480    1.000
    O1       O        0.87990    0.72540    0.80780    1.000
    O2       O        0.59940    0.72930    0.48140    1.000
    O3       O        0.67010    0.57460    0.66120    1.000
    O4       O        0.20780    0.65900    0.43470    1.000
    O5       O        0.30690    0.52560    0.54320    1.000
    O6       O        0.80880    0.96240    0.57030    1.000
    O7       O        0.06780    0.68320    0.65790    1.000
    O8       O        0.13990    0.54840    0.77230    1.000
    O9       O        0.12010    0.27460    0.19220    1.000
    O10      O        0.40060    0.27070    0.51860    1.000
    O11      O        0.32990    0.42540    0.33880    1.000
    O12      O        0.79220    0.34100    0.56530    1.000
    O13      O        0.69310    0.47440    0.45680    1.000
    O14      O        0.19120    0.03760    0.42970    1.000
    O15      O        0.93220    0.31680    0.34210    1.000
    O16      O        0.86010    0.45160    0.22770    1.000
