data_functionalizedCrystal
_audit_creation_method	'EQeq! by Chris Wilmer'
_symmetry_space_group_name_H-M	'P1'
_symmetry_Int_Tables_number	1
_symmetry_cell_setting	triclinic
loop_
_symmetry_equiv_pos_as_xyz
  x,y,z
_cell_length_a	10.137
_cell_length_b	15.745
_cell_length_c	15.988
_cell_angle_alpha	90
_cell_angle_beta	90
_cell_angle_gamma	107.76
loop_
_atom_site_label
_atom_site_type_symbol
_atom_site_fract_x
_atom_site_fract_y
_atom_site_fract_z
_atom_site_charge
Mof_Ti	Ti	0.8673	0.342	0.67509	1.3
Mof_Ti	Ti	0.6316	0.1573	0.59892	1.331
Mof_Ti	Ti	0.1327	0.658	0.17509	1.297
Mof_Ti	Ti	0.3684	0.8427	0.09892	1.328
Mof_H 	H 	0.9541	0.1087	0.6232	0.099
Mof_H 	H 	0.0477	0.0176	0.7031	0.008
Mof_H 	H 	0.0533	0.9022	0.7758	0.004
Mof_H 	H 	0.1701	0.822	0.8595	0.131
Mof_H 	H 	0.2125	0.9924	0.0464	0.116
Mof_H 	H 	0.1011	0.0759	0.9672	0.009
Mof_H 	H 	0.9121	0.1001	0.9119	0.007
Mof_H 	H 	0.7985	0.1807	0.837	0.106
Mof_H 	H 	0.0718	0.5344	0.7578	0.086
Mof_H 	H 	0.2262	0.6743	0.7545	0.004
Mof_H 	H 	0.394	0.7855	0.745	-0.01
Mof_H 	H 	0.5532	0.9132	0.7404	0.117
Mof_H 	H 	0.4377	0.9686	0.5163	0.088
Mof_H 	H 	0.2666	0.8321	0.514	0
Mof_H 	H 	0.0969	0.719	0.5323	0.01
Mof_H 	H 	0.9516	0.5714	0.5184	0.112
Mof_H 	H 	0.2772	0.5016	0.228	0.122
Mof_H 	H 	0.3795	0.4173	0.3061	0.003
Mof_H 	H 	0.4273	0.4687	0.5721	0.005
Mof_H 	H 	0.548	0.391	0.6502	0.105
Mof_H 	H 	0.6996	0.3172	0.4403	0.103
Mof_H 	H 	0.5864	0.4005	0.3555	0.01
Mof_H 	H 	0.4386	0.5951	0.4926	0.007
Mof_H 	H 	0.3415	0.6833	0.4177	0.112
Mof_H 	H 	0.0459	0.8913	0.1232	0.096
Mof_H 	H 	0.9523	0.9824	0.2031	0.008
Mof_H 	H 	0.9467	0.0978	0.2758	0.003
Mof_H 	H 	0.8299	0.178	0.3595	0.128
Mof_H 	H 	0.7875	0.0076	0.5464	0.131
Mof_H 	H 	0.8989	0.9241	0.4672	0.002
Mof_H 	H 	0.0879	0.8999	0.4119	0.005
Mof_H 	H 	0.2015	0.8193	0.337	0.104
Mof_H 	H 	0.9282	0.4656	0.2578	0.084
Mof_H 	H 	0.7738	0.3257	0.2545	0.004
Mof_H 	H 	0.606	0.2145	0.245	-0.011
Mof_H 	H 	0.4468	0.0868	0.2404	0.117
Mof_H 	H 	0.5623	0.0314	0.0163	0.086
Mof_H 	H 	0.7334	0.1679	0.014	-0.003
Mof_H 	H 	0.9031	0.281	0.0323	0.009
Mof_H 	H 	0.0484	0.4286	0.0184	0.107
Mof_H 	H 	0.7228	0.4984	0.728	0.125
Mof_H 	H 	0.6205	0.5827	0.8061	0.001
Mof_H 	H 	0.5727	0.5313	0.0721	0.012
Mof_H 	H 	0.452	0.609	0.1502	0.097
Mof_H 	H 	0.3004	0.6828	0.9403	0.096
Mof_H 	H 	0.4136	0.5995	0.8555	0.019
Mof_H 	H 	0.5614	0.4049	0.9926	0.008
Mof_H 	H 	0.6585	0.3167	0.9177	0.116
Mof_C 	C 	0.8694	0.1548	0.7247	0.28
Mof_C 	C 	0.9441	0.1061	0.6823	-0.228
Mof_C 	C 	0.0024	0.0542	0.7308	0.039
Mof_C 	C 	0.9987	0.0525	0.8168	-0.049
Mof_C 	C 	0.0707	0.9988	0.8647	-0.055
Mof_C 	C 	0.0864	0.9222	0.8301	0.069
Mof_C 	C 	0.1562	0.8745	0.8818	-0.296
Mof_C 	C 	0.2014	0.8983	0.9567	0.359
Mof_C 	C 	0.1815	0.9743	0.9912	-0.252
Mof_C 	C 	0.1153	0.0239	0.9438	0.059
Mof_C 	C 	0.9202	0.1012	0.8526	0.055
Mof_C 	C 	0.8538	0.1504	0.8092	-0.257
Mof_C 	C 	0.9877	0.5368	0.638	0.322
Mof_C 	C 	0.0785	0.5702	0.7093	-0.243
Mof_C 	C 	0.1728	0.653	0.7058	0.055
Mof_C 	C 	0.1958	0.7063	0.6387	-0.044
Mof_C 	C 	0.3015	0.7923	0.6364	-0.061
Mof_C 	C 	0.3966	0.8224	0.6976	0.095
Mof_C 	C 	0.4913	0.8992	0.6943	-0.262
Mof_C 	C 	0.5151	0.9662	0.6299	0.329
Mof_C 	C 	0.427	0.9325	0.5649	-0.264
Mof_C 	C 	0.3225	0.85	0.5624	0.06
Mof_C 	C 	0.0987	0.6773	0.5749	0.045
Mof_C 	C 	0.003	0.5911	0.5682	-0.243
Mof_C 	C 	0.2987	0.603	0.3114	0.315
Mof_C 	C 	0.3129	0.5224	0.2817	-0.263
Mof_C 	C 	0.3763	0.4729	0.3275	0.065
Mof_C 	C 	0.4385	0.5029	0.4074	-0.062
Mof_C 	C 	0.506	0.449	0.4563	-0.035
Mof_C 	C 	0.4865	0.4409	0.5448	0.043
Mof_C 	C 	0.5551	0.3918	0.591	-0.253
Mof_C 	C 	0.6339	0.3439	0.5522	0.326
Mof_C 	C 	0.6454	0.349	0.4671	-0.258
Mof_C 	C 	0.5795	0.4003	0.4148	0.033
Mof_C 	C 	0.4115	0.5779	0.4366	0.062
Mof_C 	C 	0.3501	0.6301	0.3937	-0.242
Mof_C 	C 	0.1306	0.8452	0.2247	0.278
Mof_C 	C 	0.0559	0.8939	0.1823	-0.225
Mof_C 	C 	0.9976	0.9458	0.2308	0.035
Mof_C 	C 	0.0013	0.9475	0.3168	-0.046
Mof_C 	C 	0.9293	0.0012	0.3647	-0.059
Mof_C 	C 	0.9136	0.0778	0.3301	0.07
Mof_C 	C 	0.8438	0.1255	0.3818	-0.295
Mof_C 	C 	0.7986	0.1017	0.4567	0.354
Mof_C 	C 	0.8185	0.0257	0.4912	-0.274
Mof_C 	C 	0.8847	0.9761	0.4438	0.066
Mof_C 	C 	0.0798	0.8988	0.3526	0.052
Mof_C 	C 	0.1462	0.8496	0.3092	-0.255
Mof_C 	C 	0.0123	0.4632	0.138	0.319
Mof_C 	C 	0.9215	0.4298	0.2093	-0.242
Mof_C 	C 	0.8272	0.347	0.2058	0.053
Mof_C 	C 	0.8042	0.2937	0.1387	-0.043
Mof_C 	C 	0.6985	0.2077	0.1364	-0.064
Mof_C 	C 	0.6034	0.1776	0.1976	0.096
Mof_C 	C 	0.5087	0.1008	0.1943	-0.264
Mof_C 	C 	0.4849	0.0338	0.1299	0.331
Mof_C 	C 	0.573	0.0675	0.0649	-0.266
Mof_C 	C 	0.6775	0.15	0.0624	0.061
Mof_C 	C 	0.9013	0.3227	0.0749	0.042
Mof_C 	C 	0.997	0.4089	0.0682	-0.24
Mof_C 	C 	0.7013	0.397	0.8114	0.319
Mof_C 	C 	0.6871	0.4776	0.7817	-0.268
Mof_C 	C 	0.6237	0.5271	0.8275	0.073
Mof_C 	C 	0.5615	0.4971	0.9074	-0.073
Mof_C 	C 	0.494	0.551	0.9563	-0.007
Mof_C 	C 	0.5135	0.5591	0.0448	0.01
Mof_C 	C 	0.4449	0.6082	0.091	-0.231
Mof_C 	C 	0.3661	0.6561	0.0522	0.296
Mof_C 	C 	0.3546	0.651	0.9671	-0.224
Mof_C 	C 	0.4205	0.5997	0.9148	0.011
Mof_C 	C 	0.5885	0.4221	0.9366	0.071
Mof_C 	C 	0.6499	0.3699	0.8937	-0.247
Mof_O 	O 	0.8046	0.205	0.6749	-0.558
Mof_O 	O 	0.2533	0.8442	0.006	-0.504
Mof_O 	O 	0.8961	0.4592	0.6383	-0.518
Mof_O 	O 	0.6109	0.045	0.6322	-0.545
Mof_O 	O 	0.2429	0.6564	0.2678	-0.503
Mof_O 	O 	0.6939	0.2943	0.5962	-0.584
Mof_O 	O 	0.1954	0.795	0.1749	-0.558
Mof_O 	O 	0.7467	0.1558	0.506	-0.495
Mof_O 	O 	0.1039	0.5408	0.1383	-0.518
Mof_O 	O 	0.3891	0.955	0.1322	-0.547
Mof_O 	O 	0.7571	0.3436	0.7678	-0.505
Mof_O 	O 	0.3061	0.7057	0.0962	-0.577
_end
