# CIF file generated by openbabel 3.1.0, see https://openbabel.org
data_I
_chemical_name_common 'image0'
_cell_length_a 18.2569
_cell_length_b 9.5382
_cell_length_c 16.9373
_cell_angle_alpha 90
_cell_angle_beta 120.434
_cell_angle_gamma 90
_space_group_name_H-M_alt 'P 1'
_space_group_name_Hall 'P 1'
loop_
    _symmetry_equiv_pos_as_xyz
    x,y,z
loop_
    _atom_site_label
    _atom_site_type_symbol
    _atom_site_fract_x
    _atom_site_fract_y
    _atom_site_fract_z
    _atom_site_occupancy
    N1       N        0.18290    0.58700    0.35197    1.000
    Ba1      Ba       0.01159    0.74678    0.99826    1.000
    Co1      Co       0.22204    0.77995    0.30499    1.000
    P1       P        0.14927    0.53355    0.18040    1.000
    O1       O        0.07479    0.48730    0.09109    1.000
    O2       O        0.16425    0.69300    0.17968    1.000
    O3       O        0.23210    0.45580    0.21305    1.000
    O4       O        0.33534    0.69350    0.39039    1.000
    O5       O        0.40503    0.49600    0.45010    1.000
    O6       O        0.14157    0.86330    0.34141    1.000
    O7       O        0.04585    0.81890    0.38246    1.000
    C1       C        0.11871    0.51730    0.26630    1.000
    H1       H        0.06360    0.56030    0.24440    1.000
    H2       H        0.11450    0.41900    0.27810    1.000
    C2       C        0.25936    0.49960    0.40490    1.000
    H3       H        0.25040    0.40950    0.37470    1.000
    H4       H        0.26740    0.48280    0.46530    1.000
    C3       C        0.33859    0.56570    0.41490    1.000
    C4       C        0.14440    0.63860    0.40450    1.000
    H5       H        0.18740    0.64250    0.46890    1.000
    H6       H        0.10060    0.57380    0.39750    1.000
    C5       C        0.10580    0.78340    0.37270    1.000
    N2       N        0.68290    0.08700    0.35197    1.000
    Ba2      Ba       0.51159    0.24678    0.99826    1.000
    Co2      Co       0.72204    0.27995    0.30499    1.000
    P2       P        0.64927    0.03355    0.18040    1.000
    O8       O        0.57479    0.98730    0.09109    1.000
    O9       O        0.66425    0.19300    0.17968    1.000
    O10      O        0.73210    0.95580    0.21305    1.000
    O11      O        0.83534    0.19350    0.39039    1.000
    O12      O        0.90503    0.99600    0.45010    1.000
    O13      O        0.64157    0.36330    0.34141    1.000
    O14      O        0.54585    0.31890    0.38246    1.000
    C6       C        0.61871    0.01730    0.26630    1.000
    H7       H        0.56360    0.06030    0.24440    1.000
    H8       H        0.61450    0.91900    0.27810    1.000
    C7       C        0.75936    0.99960    0.40490    1.000
    H9       H        0.75040    0.90950    0.37470    1.000
    H10      H        0.76740    0.98280    0.46530    1.000
    C8       C        0.83859    0.06570    0.41490    1.000
    C9       C        0.64440    0.13860    0.40450    1.000
    H11      H        0.68740    0.14250    0.46890    1.000
    H12      H        0.60060    0.07380    0.39750    1.000
    C10      C        0.60580    0.28340    0.37270    1.000
    N3       N        0.81710    0.58700    0.14803    1.000
    Ba3      Ba       0.98841    0.74678    0.50174    1.000
    Co3      Co       0.77796    0.77995    0.19501    1.000
    P3       P        0.85073    0.53355    0.31960    1.000
    O15      O        0.92521    0.48730    0.40891    1.000
    O16      O        0.83575    0.69300    0.32032    1.000
    O17      O        0.76790    0.45580    0.28695    1.000
    O18      O        0.66466    0.69350    0.10961    1.000
    O19      O        0.59497    0.49600    0.04990    1.000
    O20      O        0.85843    0.86330    0.15859    1.000
    O21      O        0.95415    0.81890    0.11754    1.000
    C11      C        0.88129    0.51730    0.23370    1.000
    H13      H        0.93640    0.56030    0.25560    1.000
    H14      H        0.88550    0.41900    0.22190    1.000
    C12      C        0.74064    0.49960    0.09510    1.000
    H15      H        0.74960    0.40950    0.12530    1.000
    H16      H        0.73260    0.48280    0.03470    1.000
    C13      C        0.66141    0.56570    0.08510    1.000
    C14      C        0.85560    0.63860    0.09550    1.000
    H17      H        0.81260    0.64250    0.03110    1.000
    H18      H        0.89940    0.57380    0.10250    1.000
    C15      C        0.89420    0.78340    0.12730    1.000
    N4       N        0.31710    0.08700    0.14803    1.000
    Ba4      Ba       0.48841    0.24678    0.50174    1.000
    Co4      Co       0.27796    0.27995    0.19501    1.000
    P4       P        0.35073    0.03355    0.31960    1.000
    O22      O        0.42521    0.98730    0.40891    1.000
    O23      O        0.33575    0.19300    0.32032    1.000
    O24      O        0.26790    0.95580    0.28695    1.000
    O25      O        0.16466    0.19350    0.10961    1.000
    O26      O        0.09497    0.99600    0.04990    1.000
    O27      O        0.35843    0.36330    0.15859    1.000
    O28      O        0.45415    0.31890    0.11754    1.000
    C16      C        0.38129    0.01730    0.23370    1.000
    H19      H        0.43640    0.06030    0.25560    1.000
    H20      H        0.38550    0.91900    0.22190    1.000
    C17      C        0.24064    0.99960    0.09510    1.000
    H21      H        0.24960    0.90950    0.12530    1.000
    H22      H        0.23260    0.98280    0.03470    1.000
    C18      C        0.16141    0.06570    0.08510    1.000
    C19      C        0.35560    0.13860    0.09550    1.000
    H23      H        0.31260    0.14250    0.03110    1.000
    H24      H        0.39940    0.07380    0.10250    1.000
    C20      C        0.39420    0.28340    0.12730    1.000
    N5       N        0.81710    0.41300    0.64803    1.000
    Ba5      Ba       0.98841    0.25322    0.00174    1.000
    Co5      Co       0.77796    0.22005    0.69501    1.000
    P5       P        0.85073    0.46645    0.81960    1.000
    O29      O        0.92521    0.51270    0.90891    1.000
    O30      O        0.83575    0.30700    0.82032    1.000
    O31      O        0.76790    0.54420    0.78695    1.000
    O32      O        0.66466    0.30650    0.60961    1.000
    O33      O        0.59497    0.50400    0.54990    1.000
    O34      O        0.85843    0.13670    0.65859    1.000
    O35      O        0.95415    0.18110    0.61754    1.000
    C21      C        0.88129    0.48270    0.73370    1.000
    H25      H        0.93640    0.43970    0.75560    1.000
    H26      H        0.88550    0.58100    0.72190    1.000
    C22      C        0.74064    0.50040    0.59510    1.000
    H27      H        0.74960    0.59050    0.62530    1.000
    H28      H        0.73260    0.51720    0.53470    1.000
    C23      C        0.66141    0.43430    0.58510    1.000
    C24      C        0.85560    0.36140    0.59550    1.000
    H29      H        0.81260    0.35750    0.53110    1.000
    H30      H        0.89940    0.42620    0.60250    1.000
    C25      C        0.89420    0.21660    0.62730    1.000
    N6       N        0.31710    0.91300    0.64803    1.000
    Ba6      Ba       0.48841    0.75322    0.00174    1.000
    Co6      Co       0.27796    0.72005    0.69501    1.000
    P6       P        0.35073    0.96645    0.81960    1.000
    O36      O        0.42521    0.01270    0.90891    1.000
    O37      O        0.33575    0.80700    0.82032    1.000
    O38      O        0.26790    0.04420    0.78695    1.000
    O39      O        0.16466    0.80650    0.60961    1.000
    O40      O        0.09497    0.00400    0.54990    1.000
    O41      O        0.35843    0.63670    0.65859    1.000
    O42      O        0.45415    0.68110    0.61754    1.000
    C26      C        0.38129    0.98270    0.73370    1.000
    H31      H        0.43640    0.93970    0.75560    1.000
    H32      H        0.38550    0.08100    0.72190    1.000
    C27      C        0.24064    0.00040    0.59510    1.000
    H33      H        0.24960    0.09050    0.62530    1.000
    H34      H        0.23260    0.01720    0.53470    1.000
    C28      C        0.16141    0.93430    0.58510    1.000
    C29      C        0.35560    0.86140    0.59550    1.000
    H35      H        0.31260    0.85750    0.53110    1.000
    H36      H        0.39940    0.92620    0.60250    1.000
    C30      C        0.39420    0.71660    0.62730    1.000
    N7       N        0.18290    0.41300    0.85197    1.000
    Ba7      Ba       0.01159    0.25322    0.49826    1.000
    Co7      Co       0.22204    0.22005    0.80499    1.000
    P7       P        0.14927    0.46645    0.68040    1.000
    O43      O        0.07479    0.51270    0.59109    1.000
    O44      O        0.16425    0.30700    0.67968    1.000
    O45      O        0.23210    0.54420    0.71305    1.000
    O46      O        0.33534    0.30650    0.89039    1.000
    O47      O        0.40503    0.50400    0.95010    1.000
    O48      O        0.14157    0.13670    0.84141    1.000
    O49      O        0.04585    0.18110    0.88246    1.000
    C31      C        0.11871    0.48270    0.76630    1.000
    H37      H        0.06360    0.43970    0.74440    1.000
    H38      H        0.11450    0.58100    0.77810    1.000
    C32      C        0.25936    0.50040    0.90490    1.000
    H39      H        0.25040    0.59050    0.87470    1.000
    H40      H        0.26740    0.51720    0.96530    1.000
    C33      C        0.33859    0.43430    0.91490    1.000
    C34      C        0.14440    0.36140    0.90450    1.000
    H41      H        0.18740    0.35750    0.96890    1.000
    H42      H        0.10060    0.42620    0.89750    1.000
    C35      C        0.10580    0.21660    0.87270    1.000
    N8       N        0.68290    0.91300    0.85197    1.000
    Ba8      Ba       0.51159    0.75322    0.49826    1.000
    Co8      Co       0.72204    0.72005    0.80499    1.000
    P8       P        0.64927    0.96645    0.68040    1.000
    O50      O        0.57479    0.01270    0.59109    1.000
    O51      O        0.66425    0.80700    0.67968    1.000
    O52      O        0.73210    0.04420    0.71305    1.000
    O53      O        0.83534    0.80650    0.89039    1.000
    O54      O        0.90503    0.00400    0.95010    1.000
    O55      O        0.64157    0.63670    0.84141    1.000
    O56      O        0.54585    0.68110    0.88246    1.000
    C36      C        0.61871    0.98270    0.76630    1.000
    H43      H        0.56360    0.93970    0.74440    1.000
    H44      H        0.61450    0.08100    0.77810    1.000
    C37      C        0.75936    0.00040    0.90490    1.000
    H45      H        0.75040    0.09050    0.87470    1.000
    H46      H        0.76740    0.01720    0.96530    1.000
    C38      C        0.83859    0.93430    0.91490    1.000
    C39      C        0.64440    0.86140    0.90450    1.000
    H47      H        0.68740    0.85750    0.96890    1.000
    H48      H        0.60060    0.92620    0.89750    1.000
    C40      C        0.60580    0.71660    0.87270    1.000
