data_functionalizedCrystal
_audit_creation_method	'EQeq! by Chris Wilmer'
_symmetry_space_group_name_H-M	'P1'
_symmetry_Int_Tables_number	1
_symmetry_cell_setting	triclinic
loop_
_symmetry_equiv_pos_as_xyz
  x,y,z
_cell_length_a	27.67
_cell_length_b	29.297
_cell_length_c	25.912
_cell_angle_alpha	90
_cell_angle_beta	90
_cell_angle_gamma	90
loop_
_atom_site_label
_atom_site_type_symbol
_atom_site_fract_x
_atom_site_fract_y
_atom_site_fract_z
_atom_site_charge
Mof_C 	C 	0.1536	0.4559	0.0741	0.027
Mof_C 	C 	0.1432	0.4088	0.0974	-0.076
Mof_H 	H 	0.122	0.4014	0.124	0.071
Mof_C 	C 	0.1704	0.3826	0.0721	0.038
Mof_C 	C 	0.1421	0.4991	0.0975	0.175
Mof_C 	C 	0.1388	0.5809	0.0794	0.145
Mof_C 	C 	0.1099	0.5936	0.1237	-0.105
Mof_H 	H 	0.0944	0.5713	0.1431	0.112
Mof_C 	C 	0.1056	0.6402	0.1372	-0.024
Mof_C 	C 	0.1283	0.67261	0.1121	-0.024
Mof_H 	H 	0.1249	0.7029	0.122	0.069
Mof_C 	C 	0.1577	0.6612	0.0703	-0.026
Mof_C 	C 	0.1619	0.616	0.0541	-0.112
Mof_H 	H 	0.1808	0.6094	0.0253	0.075
Mof_C 	C 	0.0713	0.6508	0.1805	0.33
Mof_C 	C 	0.1844	0.6974	0.0393	0.35
Mof_C 	C 	0.1743	0.3323	0.0811	0.171
Mof_C 	C 	0.1324	0.262	0.1033	0.151
Mof_C 	C 	0.1616	0.2281	0.0801	-0.106
Mof_H 	H 	0.1856	0.2366	0.0569	0.109
Mof_C 	C 	0.1549	0.1829	0.0915	-0.024
Mof_C 	C 	0.1194	0.1701	0.1255	-0.029
Mof_H 	H 	0.1162	0.1396	0.1348	0.072
Mof_C 	C 	0.088	0.2024	0.1463	-0.019
Mof_C 	C 	0.0961	0.2483	0.1349	-0.118
Mof_H 	H 	0.0759	0.2703	0.1494	0.091
Mof_C 	C 	0.1859	0.1478	0.0673	0.323
Mof_C 	C 	0.049	0.1894	0.1844	0.342
Mof_C 	C 	0.3313	0.4754	0.0695	-0.027
Mof_C 	C 	0.3612	0.444	0.0994	-0.049
Mof_H 	H 	0.3866	0.4497	0.1221	0.062
Mof_C 	C 	0.3395	0.4014	0.0833	0.034
Mof_C 	C 	0.358	0.357	0.1055	0.23
Mof_C 	C 	0.3644	0.2751	0.0955	0.172
Mof_C 	C 	0.339	0.2403	0.0683	-0.125
Mof_H 	H 	0.3169	0.2467	0.0422	0.102
Mof_C 	C 	0.3498	0.1955	0.0839	-0.007
Mof_C 	C 	0.3831	0.1859	0.1184	-0.029
Mof_H 	H 	0.3907	0.1554	0.1244	0.072
Mof_C 	C 	0.4076	0.2192	0.146	-0.032
Mof_C 	C 	0.3976	0.2653	0.1319	-0.121
Mof_H 	H 	0.4142	0.2889	0.148	0.117
Mof_C 	C 	0.4437	0.2075	0.1828	0.342
Mof_C 	C 	0.3226	0.1573	0.0535	0.323
Mof_C 	C 	0.328	0.5215	0.0679	0.211
Mof_C 	C 	0.3646	0.5945	0.0923	0.139
Mof_C 	C 	0.3934	0.6111	0.1333	-0.1
Mof_H 	H 	0.4102	0.5907	0.1541	0.084
Mof_C 	C 	0.3968	0.6574	0.1426	-0.041
Mof_C 	C 	0.368	0.6878	0.1157	-0.015
Mof_H 	H 	0.3686	0.7187	0.1236	0.065
Mof_C 	C 	0.3387	0.6718	0.0772	-0.034
Mof_C 	C 	0.3362	0.6262	0.0648	-0.1
Mof_H 	H 	0.316	0.6164	0.0384	0.097
Mof_C 	C 	0.3084	0.7047	0.0467	0.341
Mof_C 	C 	0.4332	0.6715	0.1814	0.354
Mof_Cu	Cu	0.25445	0.36895	0.01568	0.911
Mof_Cu	Cu	0.24831	0.48489	0.01022	0.826
Mof_Cu	Cu	0.24508	0.72189	0.95932	0.904
Mof_N 	N 	0.2027	0.40444	0.0458	-0.197
Mof_N 	N 	0.1927	0.44856	0.0456	-0.186
Mof_N 	N 	0.3025	0.40559	0.0544	-0.184
Mof_N 	N 	0.2964	0.45027	0.0466	-0.197
Mof_N 	N 	0.1356	0.3093	0.0937	-0.237
Mof_H 	H 	0.1092	0.3246	0.0965	0.133
Mof_N 	N 	0.3495	0.31932	0.0833	-0.261
Mof_H 	H 	0.3316	0.3213	0.0562	0.149
Mof_N 	N 	0.1484	0.53719	0.068	-0.233
Mof_H 	H 	0.1603	0.5325	0.0378	0.092
Mof_N 	N 	0.3641	0.5474	0.0852	-0.244
Mof_H 	H 	0.3904	0.5333	0.0929	0.134
Mof_O 	O 	0.2179	0.31475	0.0724	-0.26
Mof_O 	O 	0.2927	0.53725	0.0404	-0.353
Mof_O 	O 	0.114	0.4977	0.135	-0.207
Mof_O 	O 	0.3819	0.3612	0.1438	-0.229
Mof_O 	O 	0.02205	0.22171	0.1994	-0.407
Mof_O 	O 	0.04905	0.14893	0.1978	-0.405
Mof_O 	O 	0.1841	0.10718	0.082	-0.285
Mof_O 	O 	0.21271	0.1616	0.0315	-0.38
Mof_O 	O 	0.30317	0.16993	0.0116	-0.395
Mof_O 	O 	0.3221	0.11947	0.072	-0.3
Mof_O 	O 	0.4473	0.16725	0.1964	-0.405
Mof_O 	O 	0.47165	0.24034	0.1972	-0.387
Mof_O 	O 	0.4611	0.64107	0.1976	-0.417
Mof_O 	O 	0.43276	0.71227	0.1958	-0.401
Mof_O 	O 	0.29691	0.74156	0.0698	-0.397
Mof_O 	O 	0.2913	0.6905	0.0056	-0.409
Mof_O 	O 	0.1952	0.68909	0.9961	-0.429
Mof_O 	O 	0.19795	0.73265	0.0674	-0.386
Mof_O 	O 	0.07188	0.69114	0.1959	-0.397
Mof_O 	O 	0.04411	0.61864	0.1973	-0.394
Mof_C 	C 	0.8464	0.5441	0.5741	0.026
Mof_C 	C 	0.8568	0.5912	0.5974	-0.077
Mof_H 	H 	0.878	0.5986	0.624	0.07
Mof_C 	C 	0.8296	0.6174	0.5721	0.037
Mof_C 	C 	0.8579	0.5009	0.5975	0.174
Mof_C 	C 	0.8612	0.4191	0.5794	0.144
Mof_C 	C 	0.8901	0.4064	0.6237	-0.105
Mof_H 	H 	0.9056	0.4287	0.6431	0.111
Mof_C 	C 	0.8944	0.3598	0.6372	-0.025
Mof_C 	C 	0.8717	0.32739	0.6121	-0.025
Mof_H 	H 	0.8751	0.2971	0.622	0.068
Mof_C 	C 	0.8423	0.3388	0.5703	-0.027
Mof_C 	C 	0.8381	0.384	0.5541	-0.113
Mof_H 	H 	0.8192	0.3906	0.5253	0.074
Mof_C 	C 	0.9287	0.3492	0.6805	0.329
Mof_C 	C 	0.8156	0.3026	0.5393	0.349
Mof_C 	C 	0.8257	0.6677	0.5811	0.17
Mof_C 	C 	0.8676	0.738	0.6033	0.15
Mof_C 	C 	0.8384	0.7719	0.5801	-0.107
Mof_H 	H 	0.8144	0.7634	0.5569	0.108
Mof_C 	C 	0.8451	0.8171	0.5915	-0.025
Mof_C 	C 	0.8806	0.8299	0.6255	-0.029
Mof_H 	H 	0.8838	0.8604	0.6348	0.071
Mof_C 	C 	0.912	0.7976	0.6463	-0.02
Mof_C 	C 	0.9039	0.7517	0.6349	-0.119
Mof_H 	H 	0.9241	0.7297	0.6494	0.09
Mof_C 	C 	0.8141	0.8522	0.5673	0.323
Mof_C 	C 	0.951	0.8106	0.6844	0.341
Mof_C 	C 	0.6687	0.5246	0.5695	-0.028
Mof_C 	C 	0.6388	0.556	0.5994	-0.05
Mof_H 	H 	0.6134	0.5503	0.6221	0.061
Mof_C 	C 	0.6605	0.5986	0.5833	0.033
Mof_C 	C 	0.642	0.643	0.6055	0.229
Mof_C 	C 	0.6356	0.7249	0.5955	0.17
Mof_C 	C 	0.661	0.7597	0.5683	-0.126
Mof_H 	H 	0.6831	0.7533	0.5422	0.101
Mof_C 	C 	0.6502	0.8045	0.5839	-0.008
Mof_C 	C 	0.6169	0.8141	0.6184	-0.03
Mof_H 	H 	0.6093	0.8446	0.6244	0.071
Mof_C 	C 	0.5924	0.7808	0.646	-0.033
Mof_C 	C 	0.6024	0.7347	0.6319	-0.122
Mof_H 	H 	0.5858	0.7111	0.648	0.116
Mof_C 	C 	0.5563	0.7925	0.6828	0.341
Mof_C 	C 	0.6774	0.8427	0.5535	0.323
Mof_C 	C 	0.672	0.4785	0.5679	0.21
Mof_C 	C 	0.6354	0.4055	0.5923	0.138
Mof_C 	C 	0.6066	0.3889	0.6333	-0.1
Mof_H 	H 	0.5898	0.4093	0.6541	0.084
Mof_C 	C 	0.6032	0.3426	0.6426	-0.041
Mof_C 	C 	0.632	0.3122	0.6157	-0.015
Mof_H 	H 	0.6314	0.2813	0.6236	0.065
Mof_C 	C 	0.6613	0.3282	0.5772	-0.034
Mof_C 	C 	0.6638	0.3738	0.5648	-0.1
Mof_H 	H 	0.684	0.3836	0.5384	0.097
Mof_C 	C 	0.6916	0.2953	0.5467	0.341
Mof_C 	C 	0.5668	0.3285	0.6814	0.354
Mof_Cu	Cu	0.74555	0.63105	0.51568	0.911
Mof_Cu	Cu	0.75169	0.51511	0.51022	0.826
Mof_Cu	Cu	0.75492	0.27811	0.45932	0.904
Mof_N 	N 	0.7973	0.59556	0.5458	-0.197
Mof_N 	N 	0.8073	0.55144	0.5456	-0.186
Mof_N 	N 	0.6975	0.59441	0.5544	-0.185
Mof_N 	N 	0.7036	0.54973	0.5466	-0.197
Mof_N 	N 	0.8644	0.6907	0.5937	-0.237
Mof_H 	H 	0.8908	0.6754	0.5965	0.133
Mof_N 	N 	0.6505	0.68068	0.5833	-0.261
Mof_H 	H 	0.6684	0.6787	0.5562	0.149
Mof_N 	N 	0.8516	0.46281	0.568	-0.233
Mof_H 	H 	0.8397	0.4675	0.5378	0.092
Mof_N 	N 	0.6359	0.4526	0.5852	-0.244
Mof_H 	H 	0.6096	0.4667	0.5929	0.134
Mof_O 	O 	0.7821	0.68525	0.5724	-0.26
Mof_O 	O 	0.7073	0.46275	0.5404	-0.353
Mof_O 	O 	0.886	0.5023	0.635	-0.207
Mof_O 	O 	0.6181	0.6388	0.6438	-0.229
Mof_O 	O 	0.97795	0.77829	0.6994	-0.407
Mof_O 	O 	0.95095	0.85107	0.6978	-0.406
Mof_O 	O 	0.8159	0.89282	0.582	-0.285
Mof_O 	O 	0.78729	0.8384	0.5315	-0.38
Mof_O 	O 	0.69683	0.83007	0.5116	-0.396
Mof_O 	O 	0.6779	0.88053	0.572	-0.3
Mof_O 	O 	0.5527	0.83275	0.6964	-0.405
Mof_O 	O 	0.52835	0.75966	0.6972	-0.387
Mof_O 	O 	0.5389	0.35893	0.6976	-0.417
Mof_O 	O 	0.56724	0.28773	0.6958	-0.401
Mof_O 	O 	0.70309	0.25844	0.5698	-0.397
Mof_O 	O 	0.7087	0.3095	0.5056	-0.409
Mof_O 	O 	0.8048	0.31091	0.4961	-0.429
Mof_O 	O 	0.80205	0.26735	0.5674	-0.386
Mof_O 	O 	0.92812	0.30886	0.6959	-0.397
Mof_O 	O 	0.95589	0.38136	0.6973	-0.394
Mof_C 	C 	0.8464	0.9559	0.4259	0.026
Mof_C 	C 	0.8568	0.9088	0.4026	-0.077
Mof_H 	H 	0.878	0.9014	0.376	0.07
Mof_C 	C 	0.8296	0.8826	0.4279	0.037
Mof_C 	C 	0.8579	0.9991	0.4025	0.174
Mof_C 	C 	0.8612	0.0809	0.4206	0.144
Mof_C 	C 	0.8901	0.0936	0.3763	-0.106
Mof_H 	H 	0.9056	0.0713	0.3569	0.111
Mof_C 	C 	0.8944	0.1402	0.3628	-0.025
Mof_C 	C 	0.8717	0.17261	0.3879	-0.025
Mof_H 	H 	0.8751	0.2029	0.378	0.068
Mof_C 	C 	0.8423	0.1612	0.4297	-0.027
Mof_C 	C 	0.8381	0.116	0.4459	-0.113
Mof_H 	H 	0.8192	0.1094	0.4747	0.074
Mof_C 	C 	0.9287	0.1508	0.3195	0.329
Mof_C 	C 	0.8156	0.1974	0.4607	0.349
Mof_C 	C 	0.8257	0.8323	0.4189	0.17
Mof_C 	C 	0.8676	0.762	0.3967	0.15
Mof_C 	C 	0.8384	0.7281	0.4199	-0.107
Mof_H 	H 	0.8144	0.7366	0.4431	0.108
Mof_C 	C 	0.8451	0.6829	0.4085	-0.025
Mof_C 	C 	0.8806	0.6701	0.3745	-0.029
Mof_H 	H 	0.8838	0.6396	0.3652	0.071
Mof_C 	C 	0.912	0.7024	0.3537	-0.02
Mof_C 	C 	0.9039	0.7483	0.3651	-0.119
Mof_H 	H 	0.9241	0.7703	0.3506	0.09
Mof_C 	C 	0.8141	0.6478	0.4327	0.323
Mof_C 	C 	0.951	0.6894	0.3156	0.341
Mof_C 	C 	0.6687	0.9754	0.4305	-0.028
Mof_C 	C 	0.6388	0.944	0.4006	-0.049
Mof_H 	H 	0.6134	0.9497	0.3779	0.061
Mof_C 	C 	0.6605	0.9014	0.4167	0.033
Mof_C 	C 	0.642	0.857	0.3945	0.229
Mof_C 	C 	0.6356	0.7751	0.4045	0.17
Mof_C 	C 	0.661	0.7403	0.4317	-0.126
Mof_H 	H 	0.6831	0.7467	0.4578	0.101
Mof_C 	C 	0.6502	0.6955	0.4161	-0.008
Mof_C 	C 	0.6169	0.6859	0.3816	-0.03
Mof_H 	H 	0.6093	0.6554	0.3756	0.071
Mof_C 	C 	0.5924	0.7192	0.354	-0.033
Mof_C 	C 	0.6024	0.7653	0.3681	-0.122
Mof_H 	H 	0.5858	0.7889	0.352	0.116
Mof_C 	C 	0.5563	0.7075	0.3172	0.341
Mof_C 	C 	0.6774	0.6573	0.4465	0.323
Mof_C 	C 	0.672	0.0215	0.4321	0.21
Mof_C 	C 	0.6354	0.0945	0.4077	0.138
Mof_C 	C 	0.6066	0.1111	0.3667	-0.1
Mof_H 	H 	0.5898	0.0907	0.3459	0.085
Mof_C 	C 	0.6032	0.1574	0.3574	-0.041
Mof_C 	C 	0.632	0.1878	0.3843	-0.015
Mof_H 	H 	0.6314	0.2187	0.3764	0.065
Mof_C 	C 	0.6613	0.1718	0.4228	-0.034
Mof_C 	C 	0.6638	0.1262	0.4352	-0.1
Mof_H 	H 	0.684	0.1164	0.4616	0.097
Mof_C 	C 	0.6916	0.2047	0.4533	0.341
Mof_C 	C 	0.5668	0.1715	0.3186	0.354
Mof_Cu	Cu	0.74555	0.86895	0.48432	0.911
Mof_Cu	Cu	0.75169	0.98489	0.48978	0.826
Mof_Cu	Cu	0.75492	0.22189	0.54068	0.904
Mof_N 	N 	0.7973	0.90444	0.4542	-0.197
Mof_N 	N 	0.8073	0.94856	0.4544	-0.186
Mof_N 	N 	0.6975	0.90559	0.4456	-0.185
Mof_N 	N 	0.7036	0.95027	0.4534	-0.197
Mof_N 	N 	0.8644	0.8093	0.4063	-0.237
Mof_H 	H 	0.8908	0.8246	0.4035	0.133
Mof_N 	N 	0.6505	0.81932	0.4167	-0.261
Mof_H 	H 	0.6684	0.8213	0.4438	0.149
Mof_N 	N 	0.8516	0.03719	0.432	-0.233
Mof_H 	H 	0.8397	0.0325	0.4622	0.092
Mof_N 	N 	0.6359	0.0474	0.4148	-0.244
Mof_H 	H 	0.6096	0.0333	0.4071	0.134
Mof_O 	O 	0.7821	0.81475	0.4276	-0.26
Mof_O 	O 	0.7073	0.03725	0.4596	-0.353
Mof_O 	O 	0.886	0.9977	0.365	-0.207
Mof_O 	O 	0.6181	0.8612	0.3562	-0.229
Mof_O 	O 	0.97795	0.72171	0.3006	-0.407
Mof_O 	O 	0.95095	0.64893	0.3022	-0.406
Mof_O 	O 	0.8159	0.60718	0.418	-0.285
Mof_O 	O 	0.78729	0.6616	0.4685	-0.38
Mof_O 	O 	0.69683	0.66993	0.4884	-0.396
Mof_O 	O 	0.6779	0.61947	0.428	-0.3
Mof_O 	O 	0.5527	0.66725	0.3036	-0.405
Mof_O 	O 	0.52835	0.74034	0.3028	-0.387
Mof_O 	O 	0.5389	0.14107	0.3024	-0.417
Mof_O 	O 	0.56724	0.21227	0.3042	-0.401
Mof_O 	O 	0.70309	0.24156	0.4302	-0.397
Mof_O 	O 	0.7087	0.1905	0.4944	-0.409
Mof_O 	O 	0.8048	0.18909	0.5039	-0.429
Mof_O 	O 	0.80205	0.23265	0.4326	-0.386
Mof_O 	O 	0.92812	0.19114	0.3041	-0.397
Mof_O 	O 	0.95589	0.11864	0.3027	-0.394
Mof_C 	C 	0.1536	0.0441	0.9259	0.026
Mof_C 	C 	0.1432	0.0912	0.9026	-0.077
Mof_H 	H 	0.122	0.0986	0.876	0.07
Mof_C 	C 	0.1704	0.1174	0.9279	0.037
Mof_C 	C 	0.1421	0.0009	0.9025	0.174
Mof_C 	C 	0.1388	0.9191	0.9206	0.144
Mof_C 	C 	0.1099	0.9064	0.8763	-0.105
Mof_H 	H 	0.0944	0.9287	0.8569	0.111
Mof_C 	C 	0.1056	0.8598	0.8628	-0.025
Mof_C 	C 	0.1283	0.82739	0.8879	-0.025
Mof_H 	H 	0.1249	0.7971	0.878	0.068
Mof_C 	C 	0.1577	0.8388	0.9297	-0.027
Mof_C 	C 	0.1619	0.884	0.9459	-0.113
Mof_H 	H 	0.1808	0.8906	0.9747	0.074
Mof_C 	C 	0.0713	0.8492	0.8195	0.329
Mof_C 	C 	0.1844	0.8026	0.9607	0.349
Mof_C 	C 	0.1743	0.1677	0.9189	0.17
Mof_C 	C 	0.1324	0.238	0.8967	0.15
Mof_C 	C 	0.1616	0.2719	0.9199	-0.107
Mof_H 	H 	0.1856	0.2634	0.9431	0.108
Mof_C 	C 	0.1549	0.3171	0.9085	-0.025
Mof_C 	C 	0.1194	0.3299	0.8745	-0.029
Mof_H 	H 	0.1162	0.3604	0.8652	0.071
Mof_C 	C 	0.088	0.2976	0.8537	-0.02
Mof_C 	C 	0.0961	0.2517	0.8651	-0.119
Mof_H 	H 	0.0759	0.2297	0.8506	0.09
Mof_C 	C 	0.1859	0.3522	0.9327	0.323
Mof_C 	C 	0.049	0.3106	0.8156	0.341
Mof_C 	C 	0.3313	0.0246	0.9305	-0.028
Mof_C 	C 	0.3612	0.056	0.9006	-0.049
Mof_H 	H 	0.3866	0.0503	0.8779	0.061
Mof_C 	C 	0.3395	0.0986	0.9167	0.033
Mof_C 	C 	0.358	0.143	0.8945	0.229
Mof_C 	C 	0.3644	0.2249	0.9045	0.17
Mof_C 	C 	0.339	0.2597	0.9317	-0.125
Mof_H 	H 	0.3169	0.2533	0.9578	0.101
Mof_C 	C 	0.3498	0.3045	0.9161	-0.008
Mof_C 	C 	0.3831	0.3141	0.8816	-0.03
Mof_H 	H 	0.3907	0.3446	0.8756	0.071
Mof_C 	C 	0.4076	0.2808	0.854	-0.033
Mof_C 	C 	0.3976	0.2347	0.8681	-0.122
Mof_H 	H 	0.4142	0.2111	0.852	0.116
Mof_C 	C 	0.4437	0.2925	0.8172	0.341
Mof_C 	C 	0.3226	0.3427	0.9465	0.323
Mof_C 	C 	0.328	0.9785	0.9321	0.211
Mof_C 	C 	0.3646	0.9055	0.9077	0.138
Mof_C 	C 	0.3934	0.8889	0.8667	-0.1
Mof_H 	H 	0.4102	0.9093	0.8459	0.085
Mof_C 	C 	0.3968	0.8426	0.8574	-0.041
Mof_C 	C 	0.368	0.8122	0.8843	-0.015
Mof_H 	H 	0.3686	0.7813	0.8764	0.065
Mof_C 	C 	0.3387	0.8282	0.9228	-0.034
Mof_C 	C 	0.3362	0.8738	0.9352	-0.101
Mof_H 	H 	0.316	0.8836	0.9616	0.097
Mof_C 	C 	0.3084	0.7953	0.9533	0.341
Mof_C 	C 	0.4332	0.8285	0.8186	0.354
Mof_Cu	Cu	0.25445	0.13105	0.98432	0.911
Mof_Cu	Cu	0.24831	0.01511	0.98978	0.826
Mof_Cu	Cu	0.24508	0.77811	0.04068	0.904
Mof_N 	N 	0.2027	0.09556	0.9542	-0.197
Mof_N 	N 	0.1927	0.05144	0.9544	-0.186
Mof_N 	N 	0.3025	0.09441	0.9456	-0.185
Mof_N 	N 	0.2964	0.04973	0.9534	-0.197
Mof_N 	N 	0.1356	0.1907	0.9063	-0.237
Mof_H 	H 	0.1092	0.1754	0.9035	0.133
Mof_N 	N 	0.3495	0.18068	0.9167	-0.261
Mof_H 	H 	0.3316	0.1787	0.9438	0.149
Mof_N 	N 	0.1484	0.96281	0.932	-0.232
Mof_H 	H 	0.1603	0.9675	0.9622	0.092
Mof_N 	N 	0.3641	0.9526	0.9148	-0.244
Mof_H 	H 	0.3904	0.9667	0.9071	0.134
Mof_O 	O 	0.2179	0.18525	0.9276	-0.26
Mof_O 	O 	0.2927	0.96275	0.9596	-0.353
Mof_O 	O 	0.114	0.0023	0.865	-0.207
Mof_O 	O 	0.3819	0.1388	0.8562	-0.229
Mof_O 	O 	0.02205	0.27829	0.8006	-0.407
Mof_O 	O 	0.04905	0.35107	0.8022	-0.406
Mof_O 	O 	0.1841	0.39282	0.918	-0.285
Mof_O 	O 	0.21271	0.3384	0.9685	-0.38
Mof_O 	O 	0.30317	0.33007	0.9884	-0.396
Mof_O 	O 	0.3221	0.38053	0.928	-0.3
Mof_O 	O 	0.4473	0.33275	0.8036	-0.405
Mof_O 	O 	0.47165	0.25966	0.8028	-0.387
Mof_O 	O 	0.4611	0.85893	0.8024	-0.417
Mof_O 	O 	0.43276	0.78773	0.8042	-0.401
Mof_O 	O 	0.29691	0.75844	0.9302	-0.397
Mof_O 	O 	0.2913	0.8095	0.9944	-0.409
Mof_O 	O 	0.1952	0.81091	0.0039	-0.429
Mof_O 	O 	0.19795	0.76735	0.9326	-0.386
Mof_O 	O 	0.07188	0.80886	0.8041	-0.397
Mof_O 	O 	0.04411	0.88136	0.8027	-0.394
Mof_C 	C 	0.8464	0.5441	0.9259	0.026
Mof_C 	C 	0.8568	0.5912	0.9026	-0.077
Mof_H 	H 	0.878	0.5986	0.876	0.07
Mof_C 	C 	0.8296	0.6174	0.9279	0.037
Mof_C 	C 	0.8579	0.5009	0.9025	0.174
Mof_C 	C 	0.8612	0.4191	0.9206	0.144
Mof_C 	C 	0.8901	0.4064	0.8763	-0.106
Mof_H 	H 	0.9056	0.4287	0.8569	0.111
Mof_C 	C 	0.8944	0.3598	0.8628	-0.025
Mof_C 	C 	0.8717	0.32739	0.8879	-0.025
Mof_H 	H 	0.8751	0.2971	0.878	0.068
Mof_C 	C 	0.8423	0.3388	0.9297	-0.027
Mof_C 	C 	0.8381	0.384	0.9459	-0.113
Mof_H 	H 	0.8192	0.3906	0.9747	0.074
Mof_C 	C 	0.9287	0.3492	0.8195	0.329
Mof_C 	C 	0.8156	0.3026	0.9607	0.349
Mof_C 	C 	0.8257	0.6677	0.9189	0.17
Mof_C 	C 	0.8676	0.738	0.8967	0.15
Mof_C 	C 	0.8384	0.7719	0.9199	-0.107
Mof_H 	H 	0.8144	0.7634	0.9431	0.108
Mof_C 	C 	0.8451	0.8171	0.9085	-0.025
Mof_C 	C 	0.8806	0.8299	0.8745	-0.03
Mof_H 	H 	0.8838	0.8604	0.8652	0.071
Mof_C 	C 	0.912	0.7976	0.8537	-0.02
Mof_C 	C 	0.9039	0.7517	0.8651	-0.119
Mof_H 	H 	0.9241	0.7297	0.8506	0.09
Mof_C 	C 	0.8141	0.8522	0.9327	0.322
Mof_C 	C 	0.951	0.8106	0.8156	0.341
Mof_C 	C 	0.6687	0.5246	0.9305	-0.028
Mof_C 	C 	0.6388	0.556	0.9006	-0.05
Mof_H 	H 	0.6134	0.5503	0.8779	0.061
Mof_C 	C 	0.6605	0.5986	0.9167	0.033
Mof_C 	C 	0.642	0.643	0.8945	0.229
Mof_C 	C 	0.6356	0.7249	0.9045	0.171
Mof_C 	C 	0.661	0.7597	0.9317	-0.126
Mof_H 	H 	0.6831	0.7533	0.9578	0.101
Mof_C 	C 	0.6502	0.8045	0.9161	-0.008
Mof_C 	C 	0.6169	0.8141	0.8816	-0.03
Mof_H 	H 	0.6093	0.8446	0.8756	0.071
Mof_C 	C 	0.5924	0.7808	0.854	-0.033
Mof_C 	C 	0.6024	0.7347	0.8681	-0.122
Mof_H 	H 	0.5858	0.7111	0.852	0.116
Mof_C 	C 	0.5563	0.7925	0.8172	0.341
Mof_C 	C 	0.6774	0.8427	0.9465	0.322
Mof_C 	C 	0.672	0.4785	0.9321	0.21
Mof_C 	C 	0.6354	0.4055	0.9077	0.138
Mof_C 	C 	0.6066	0.3889	0.8667	-0.1
Mof_H 	H 	0.5898	0.4093	0.8459	0.084
Mof_C 	C 	0.6032	0.3426	0.8574	-0.041
Mof_C 	C 	0.632	0.3122	0.8843	-0.015
Mof_H 	H 	0.6314	0.2813	0.8764	0.065
Mof_C 	C 	0.6613	0.3282	0.9228	-0.034
Mof_C 	C 	0.6638	0.3738	0.9352	-0.1
Mof_H 	H 	0.684	0.3836	0.9616	0.097
Mof_C 	C 	0.6916	0.2953	0.9533	0.341
Mof_C 	C 	0.5668	0.3285	0.8186	0.354
Mof_Cu	Cu	0.74555	0.63105	0.98432	0.911
Mof_Cu	Cu	0.75169	0.51511	0.98978	0.826
Mof_Cu	Cu	0.75492	0.27811	0.04068	0.904
Mof_N 	N 	0.7973	0.59556	0.9542	-0.197
Mof_N 	N 	0.8073	0.55144	0.9544	-0.186
Mof_N 	N 	0.6975	0.59441	0.9456	-0.184
Mof_N 	N 	0.7036	0.54973	0.9534	-0.197
Mof_N 	N 	0.8644	0.6907	0.9063	-0.237
Mof_H 	H 	0.8908	0.6754	0.9035	0.133
Mof_N 	N 	0.6505	0.68068	0.9167	-0.261
Mof_H 	H 	0.6684	0.6787	0.9438	0.149
Mof_N 	N 	0.8516	0.46281	0.932	-0.233
Mof_H 	H 	0.8397	0.4675	0.9622	0.092
Mof_N 	N 	0.6359	0.4526	0.9148	-0.244
Mof_H 	H 	0.6096	0.4667	0.9071	0.134
Mof_O 	O 	0.7821	0.68525	0.9276	-0.26
Mof_O 	O 	0.7073	0.46275	0.9596	-0.353
Mof_O 	O 	0.886	0.5023	0.865	-0.207
Mof_O 	O 	0.6181	0.6388	0.8562	-0.229
Mof_O 	O 	0.97795	0.77829	0.8006	-0.407
Mof_O 	O 	0.95095	0.85107	0.8022	-0.405
Mof_O 	O 	0.8159	0.89282	0.918	-0.285
Mof_O 	O 	0.78729	0.8384	0.9685	-0.38
Mof_O 	O 	0.69683	0.83007	0.9884	-0.395
Mof_O 	O 	0.6779	0.88053	0.928	-0.3
Mof_O 	O 	0.5527	0.83275	0.8036	-0.405
Mof_O 	O 	0.52835	0.75966	0.8028	-0.387
Mof_O 	O 	0.5389	0.35893	0.8024	-0.417
Mof_O 	O 	0.56724	0.28773	0.8042	-0.401
Mof_O 	O 	0.70309	0.25844	0.9302	-0.397
Mof_O 	O 	0.7087	0.3095	0.9944	-0.409
Mof_O 	O 	0.8048	0.31091	0.0039	-0.429
Mof_O 	O 	0.80205	0.26735	0.9326	-0.386
Mof_O 	O 	0.92812	0.30886	0.8041	-0.397
Mof_O 	O 	0.95589	0.38136	0.8027	-0.394
Mof_C 	C 	0.1536	0.4559	0.4259	0.026
Mof_C 	C 	0.1432	0.4088	0.4026	-0.077
Mof_H 	H 	0.122	0.4014	0.376	0.07
Mof_C 	C 	0.1704	0.3826	0.4279	0.037
Mof_C 	C 	0.1421	0.4991	0.4025	0.174
Mof_C 	C 	0.1388	0.5809	0.4206	0.144
Mof_C 	C 	0.1099	0.5936	0.3763	-0.105
Mof_H 	H 	0.0944	0.5713	0.3569	0.111
Mof_C 	C 	0.1056	0.6402	0.3628	-0.025
Mof_C 	C 	0.1283	0.67261	0.3879	-0.025
Mof_H 	H 	0.1249	0.7029	0.378	0.068
Mof_C 	C 	0.1577	0.6612	0.4297	-0.027
Mof_C 	C 	0.1619	0.616	0.4459	-0.113
Mof_H 	H 	0.1808	0.6094	0.4747	0.074
Mof_C 	C 	0.0713	0.6508	0.3195	0.329
Mof_C 	C 	0.1844	0.6974	0.4607	0.349
Mof_C 	C 	0.1743	0.3323	0.4189	0.17
Mof_C 	C 	0.1324	0.262	0.3967	0.15
Mof_C 	C 	0.1616	0.2281	0.4199	-0.107
Mof_H 	H 	0.1856	0.2366	0.4431	0.108
Mof_C 	C 	0.1549	0.1829	0.4085	-0.025
Mof_C 	C 	0.1194	0.1701	0.3745	-0.029
Mof_H 	H 	0.1162	0.1396	0.3652	0.071
Mof_C 	C 	0.088	0.2024	0.3537	-0.02
Mof_C 	C 	0.0961	0.2483	0.3651	-0.119
Mof_H 	H 	0.0759	0.2703	0.3506	0.09
Mof_C 	C 	0.1859	0.1478	0.4327	0.323
Mof_C 	C 	0.049	0.1894	0.3156	0.341
Mof_C 	C 	0.3313	0.4754	0.4305	-0.028
Mof_C 	C 	0.3612	0.444	0.4006	-0.05
Mof_H 	H 	0.3866	0.4497	0.3779	0.061
Mof_C 	C 	0.3395	0.4014	0.4167	0.033
Mof_C 	C 	0.358	0.357	0.3945	0.229
Mof_C 	C 	0.3644	0.2751	0.4045	0.17
Mof_C 	C 	0.339	0.2403	0.4317	-0.126
Mof_H 	H 	0.3169	0.2467	0.4578	0.101
Mof_C 	C 	0.3498	0.1955	0.4161	-0.008
Mof_C 	C 	0.3831	0.1859	0.3816	-0.03
Mof_H 	H 	0.3907	0.1554	0.3756	0.071
Mof_C 	C 	0.4076	0.2192	0.354	-0.033
Mof_C 	C 	0.3976	0.2653	0.3681	-0.122
Mof_H 	H 	0.4142	0.2889	0.352	0.116
Mof_C 	C 	0.4437	0.2075	0.3172	0.341
Mof_C 	C 	0.3226	0.1573	0.4465	0.323
Mof_C 	C 	0.328	0.5215	0.4321	0.21
Mof_C 	C 	0.3646	0.5945	0.4077	0.138
Mof_C 	C 	0.3934	0.6111	0.3667	-0.1
Mof_H 	H 	0.4102	0.5907	0.3459	0.084
Mof_C 	C 	0.3968	0.6574	0.3574	-0.041
Mof_C 	C 	0.368	0.6878	0.3843	-0.015
Mof_H 	H 	0.3686	0.7187	0.3764	0.065
Mof_C 	C 	0.3387	0.6718	0.4228	-0.034
Mof_C 	C 	0.3362	0.6262	0.4352	-0.1
Mof_H 	H 	0.316	0.6164	0.4616	0.097
Mof_C 	C 	0.3084	0.7047	0.4533	0.341
Mof_C 	C 	0.4332	0.6715	0.3186	0.354
Mof_Cu	Cu	0.25445	0.36895	0.48432	0.911
Mof_Cu	Cu	0.24831	0.48489	0.48978	0.826
Mof_Cu	Cu	0.24508	0.72189	0.54068	0.904
Mof_N 	N 	0.2027	0.40444	0.4542	-0.197
Mof_N 	N 	0.1927	0.44856	0.4544	-0.186
Mof_N 	N 	0.3025	0.40559	0.4456	-0.185
Mof_N 	N 	0.2964	0.45027	0.4534	-0.197
Mof_N 	N 	0.1356	0.3093	0.4063	-0.237
Mof_H 	H 	0.1092	0.3246	0.4035	0.133
Mof_N 	N 	0.3495	0.31932	0.4167	-0.261
Mof_H 	H 	0.3316	0.3213	0.4438	0.149
Mof_N 	N 	0.1484	0.53719	0.432	-0.233
Mof_H 	H 	0.1603	0.5325	0.4622	0.092
Mof_N 	N 	0.3641	0.5474	0.4148	-0.244
Mof_H 	H 	0.3904	0.5333	0.4071	0.134
Mof_O 	O 	0.2179	0.31475	0.4276	-0.26
Mof_O 	O 	0.2927	0.53725	0.4596	-0.353
Mof_O 	O 	0.114	0.4977	0.365	-0.207
Mof_O 	O 	0.3819	0.3612	0.3562	-0.229
Mof_O 	O 	0.02205	0.22171	0.3006	-0.407
Mof_O 	O 	0.04905	0.14893	0.3022	-0.406
Mof_O 	O 	0.1841	0.10718	0.418	-0.285
Mof_O 	O 	0.21271	0.1616	0.4685	-0.38
Mof_O 	O 	0.30317	0.16993	0.4884	-0.396
Mof_O 	O 	0.3221	0.11947	0.428	-0.3
Mof_O 	O 	0.4473	0.16725	0.3036	-0.405
Mof_O 	O 	0.47165	0.24034	0.3028	-0.387
Mof_O 	O 	0.4611	0.64107	0.3024	-0.417
Mof_O 	O 	0.43276	0.71227	0.3042	-0.401
Mof_O 	O 	0.29691	0.74156	0.4302	-0.397
Mof_O 	O 	0.2913	0.6905	0.4944	-0.409
Mof_O 	O 	0.1952	0.68909	0.5039	-0.429
Mof_O 	O 	0.19795	0.73265	0.4326	-0.386
Mof_O 	O 	0.07188	0.69114	0.3041	-0.397
Mof_O 	O 	0.04411	0.61864	0.3027	-0.394
Mof_C 	C 	0.1536	0.0441	0.5741	0.026
Mof_C 	C 	0.1432	0.0912	0.5974	-0.077
Mof_H 	H 	0.122	0.0986	0.624	0.07
Mof_C 	C 	0.1704	0.1174	0.5721	0.037
Mof_C 	C 	0.1421	0.0009	0.5975	0.174
Mof_C 	C 	0.1388	0.9191	0.5794	0.144
Mof_C 	C 	0.1099	0.9064	0.6237	-0.106
Mof_H 	H 	0.0944	0.9287	0.6431	0.111
Mof_C 	C 	0.1056	0.8598	0.6372	-0.025
Mof_C 	C 	0.1283	0.82739	0.6121	-0.025
Mof_H 	H 	0.1249	0.7971	0.622	0.068
Mof_C 	C 	0.1577	0.8388	0.5703	-0.027
Mof_C 	C 	0.1619	0.884	0.5541	-0.113
Mof_H 	H 	0.1808	0.8906	0.5253	0.074
Mof_C 	C 	0.0713	0.8492	0.6805	0.329
Mof_C 	C 	0.1844	0.8026	0.5393	0.349
Mof_C 	C 	0.1743	0.1677	0.5811	0.17
Mof_C 	C 	0.1324	0.238	0.6033	0.15
Mof_C 	C 	0.1616	0.2719	0.5801	-0.107
Mof_H 	H 	0.1856	0.2634	0.5569	0.108
Mof_C 	C 	0.1549	0.3171	0.5915	-0.025
Mof_C 	C 	0.1194	0.3299	0.6255	-0.029
Mof_H 	H 	0.1162	0.3604	0.6348	0.071
Mof_C 	C 	0.088	0.2976	0.6463	-0.02
Mof_C 	C 	0.0961	0.2517	0.6349	-0.119
Mof_H 	H 	0.0759	0.2297	0.6494	0.09
Mof_C 	C 	0.1859	0.3522	0.5673	0.323
Mof_C 	C 	0.049	0.3106	0.6844	0.341
Mof_C 	C 	0.3313	0.0246	0.5695	-0.028
Mof_C 	C 	0.3612	0.056	0.5994	-0.049
Mof_H 	H 	0.3866	0.0503	0.6221	0.061
Mof_C 	C 	0.3395	0.0986	0.5833	0.033
Mof_C 	C 	0.358	0.143	0.6055	0.229
Mof_C 	C 	0.3644	0.2249	0.5955	0.17
Mof_C 	C 	0.339	0.2597	0.5683	-0.126
Mof_H 	H 	0.3169	0.2533	0.5422	0.101
Mof_C 	C 	0.3498	0.3045	0.5839	-0.008
Mof_C 	C 	0.3831	0.3141	0.6184	-0.03
Mof_H 	H 	0.3907	0.3446	0.6244	0.071
Mof_C 	C 	0.4076	0.2808	0.646	-0.033
Mof_C 	C 	0.3976	0.2347	0.6319	-0.122
Mof_H 	H 	0.4142	0.2111	0.648	0.116
Mof_C 	C 	0.4437	0.2925	0.6828	0.341
Mof_C 	C 	0.3226	0.3427	0.5535	0.323
Mof_C 	C 	0.328	0.9785	0.5679	0.21
Mof_C 	C 	0.3646	0.9055	0.5923	0.138
Mof_C 	C 	0.3934	0.8889	0.6333	-0.1
Mof_H 	H 	0.4102	0.9093	0.6541	0.085
Mof_C 	C 	0.3968	0.8426	0.6426	-0.041
Mof_C 	C 	0.368	0.8122	0.6157	-0.015
Mof_H 	H 	0.3686	0.7813	0.6236	0.065
Mof_C 	C 	0.3387	0.8282	0.5772	-0.034
Mof_C 	C 	0.3362	0.8738	0.5648	-0.1
Mof_H 	H 	0.316	0.8836	0.5384	0.097
Mof_C 	C 	0.3084	0.7953	0.5467	0.341
Mof_C 	C 	0.4332	0.8285	0.6814	0.354
Mof_Cu	Cu	0.25445	0.13105	0.51568	0.911
Mof_Cu	Cu	0.24831	0.01511	0.51022	0.826
Mof_Cu	Cu	0.24508	0.77811	0.45932	0.904
Mof_N 	N 	0.2027	0.09556	0.5458	-0.197
Mof_N 	N 	0.1927	0.05144	0.5456	-0.186
Mof_N 	N 	0.3025	0.09441	0.5544	-0.185
Mof_N 	N 	0.2964	0.04973	0.5466	-0.197
Mof_N 	N 	0.1356	0.1907	0.5937	-0.237
Mof_H 	H 	0.1092	0.1754	0.5965	0.133
Mof_N 	N 	0.3495	0.18068	0.5833	-0.261
Mof_H 	H 	0.3316	0.1787	0.5562	0.149
Mof_N 	N 	0.1484	0.96281	0.568	-0.233
Mof_H 	H 	0.1603	0.9675	0.5378	0.092
Mof_N 	N 	0.3641	0.9526	0.5852	-0.244
Mof_H 	H 	0.3904	0.9667	0.5929	0.134
Mof_O 	O 	0.2179	0.18525	0.5724	-0.26
Mof_O 	O 	0.2927	0.96275	0.5404	-0.353
Mof_O 	O 	0.114	0.0023	0.635	-0.207
Mof_O 	O 	0.3819	0.1388	0.6438	-0.229
Mof_O 	O 	0.02205	0.27829	0.6994	-0.407
Mof_O 	O 	0.04905	0.35107	0.6978	-0.406
Mof_O 	O 	0.1841	0.39282	0.582	-0.285
Mof_O 	O 	0.21271	0.3384	0.5315	-0.38
Mof_O 	O 	0.30317	0.33007	0.5116	-0.396
Mof_O 	O 	0.3221	0.38053	0.572	-0.3
Mof_O 	O 	0.4473	0.33275	0.6964	-0.405
Mof_O 	O 	0.47165	0.25966	0.6972	-0.387
Mof_O 	O 	0.4611	0.85893	0.6976	-0.417
Mof_O 	O 	0.43276	0.78773	0.6958	-0.401
Mof_O 	O 	0.29691	0.75844	0.5698	-0.397
Mof_O 	O 	0.2913	0.8095	0.5056	-0.409
Mof_O 	O 	0.1952	0.81091	0.4961	-0.429
Mof_O 	O 	0.19795	0.76735	0.5674	-0.386
Mof_O 	O 	0.07188	0.80886	0.6959	-0.397
Mof_O 	O 	0.04411	0.88136	0.6973	-0.394
Mof_C 	C 	0.8464	0.9559	0.0741	0.026
Mof_C 	C 	0.8568	0.9088	0.0974	-0.077
Mof_H 	H 	0.878	0.9014	0.124	0.07
Mof_C 	C 	0.8296	0.8826	0.0721	0.037
Mof_C 	C 	0.8579	0.9991	0.0975	0.174
Mof_C 	C 	0.8612	0.0809	0.0794	0.144
Mof_C 	C 	0.8901	0.0936	0.1237	-0.105
Mof_H 	H 	0.9056	0.0713	0.1431	0.111
Mof_C 	C 	0.8944	0.1402	0.1372	-0.025
Mof_C 	C 	0.8717	0.17261	0.1121	-0.025
Mof_H 	H 	0.8751	0.2029	0.122	0.068
Mof_C 	C 	0.8423	0.1612	0.0703	-0.027
Mof_C 	C 	0.8381	0.116	0.0541	-0.113
Mof_H 	H 	0.8192	0.1094	0.0253	0.074
Mof_C 	C 	0.9287	0.1508	0.1805	0.329
Mof_C 	C 	0.8156	0.1974	0.0393	0.349
Mof_C 	C 	0.8257	0.8323	0.0811	0.17
Mof_C 	C 	0.8676	0.762	0.1033	0.15
Mof_C 	C 	0.8384	0.7281	0.0801	-0.107
Mof_H 	H 	0.8144	0.7366	0.0569	0.108
Mof_C 	C 	0.8451	0.6829	0.0915	-0.025
Mof_C 	C 	0.8806	0.6701	0.1255	-0.029
Mof_H 	H 	0.8838	0.6396	0.1348	0.071
Mof_C 	C 	0.912	0.7024	0.1463	-0.02
Mof_C 	C 	0.9039	0.7483	0.1349	-0.119
Mof_H 	H 	0.9241	0.7703	0.1494	0.09
Mof_C 	C 	0.8141	0.6478	0.0673	0.323
Mof_C 	C 	0.951	0.6894	0.1844	0.341
Mof_C 	C 	0.6687	0.9754	0.0695	-0.028
Mof_C 	C 	0.6388	0.944	0.0994	-0.049
Mof_H 	H 	0.6134	0.9497	0.1221	0.061
Mof_C 	C 	0.6605	0.9014	0.0833	0.033
Mof_C 	C 	0.642	0.857	0.1055	0.229
Mof_C 	C 	0.6356	0.7751	0.0955	0.17
Mof_C 	C 	0.661	0.7403	0.0683	-0.125
Mof_H 	H 	0.6831	0.7467	0.0422	0.101
Mof_C 	C 	0.6502	0.6955	0.0839	-0.008
Mof_C 	C 	0.6169	0.6859	0.1184	-0.03
Mof_H 	H 	0.6093	0.6554	0.1244	0.071
Mof_C 	C 	0.5924	0.7192	0.146	-0.033
Mof_C 	C 	0.6024	0.7653	0.1319	-0.122
Mof_H 	H 	0.5858	0.7889	0.148	0.116
Mof_C 	C 	0.5563	0.7075	0.1828	0.341
Mof_C 	C 	0.6774	0.6573	0.0535	0.323
Mof_C 	C 	0.672	0.0215	0.0679	0.211
Mof_C 	C 	0.6354	0.0945	0.0923	0.138
Mof_C 	C 	0.6066	0.1111	0.1333	-0.1
Mof_H 	H 	0.5898	0.0907	0.1541	0.085
Mof_C 	C 	0.6032	0.1574	0.1426	-0.041
Mof_C 	C 	0.632	0.1878	0.1157	-0.015
Mof_H 	H 	0.6314	0.2187	0.1236	0.065
Mof_C 	C 	0.6613	0.1718	0.0772	-0.034
Mof_C 	C 	0.6638	0.1262	0.0648	-0.101
Mof_H 	H 	0.684	0.1164	0.0384	0.097
Mof_C 	C 	0.6916	0.2047	0.0467	0.341
Mof_C 	C 	0.5668	0.1715	0.1814	0.354
Mof_Cu	Cu	0.74555	0.86895	0.01568	0.911
Mof_Cu	Cu	0.75169	0.98489	0.01022	0.826
Mof_Cu	Cu	0.75492	0.22189	0.95932	0.904
Mof_N 	N 	0.7973	0.90444	0.0458	-0.197
Mof_N 	N 	0.8073	0.94856	0.0456	-0.186
Mof_N 	N 	0.6975	0.90559	0.0544	-0.185
Mof_N 	N 	0.7036	0.95027	0.0466	-0.197
Mof_N 	N 	0.8644	0.8093	0.0937	-0.237
Mof_H 	H 	0.8908	0.8246	0.0965	0.133
Mof_N 	N 	0.6505	0.81932	0.0833	-0.261
Mof_H 	H 	0.6684	0.8213	0.0562	0.149
Mof_N 	N 	0.8516	0.03719	0.068	-0.232
Mof_H 	H 	0.8397	0.0325	0.0378	0.092
Mof_N 	N 	0.6359	0.0474	0.0852	-0.244
Mof_H 	H 	0.6096	0.0333	0.0929	0.134
Mof_O 	O 	0.7821	0.81475	0.0724	-0.26
Mof_O 	O 	0.7073	0.03725	0.0404	-0.353
Mof_O 	O 	0.886	0.9977	0.135	-0.207
Mof_O 	O 	0.6181	0.8612	0.1438	-0.229
Mof_O 	O 	0.97795	0.72171	0.1994	-0.407
Mof_O 	O 	0.95095	0.64893	0.1978	-0.406
Mof_O 	O 	0.8159	0.60718	0.082	-0.285
Mof_O 	O 	0.78729	0.6616	0.0315	-0.38
Mof_O 	O 	0.69683	0.66993	0.0116	-0.396
Mof_O 	O 	0.6779	0.61947	0.072	-0.3
Mof_O 	O 	0.5527	0.66725	0.1964	-0.405
Mof_O 	O 	0.52835	0.74034	0.1972	-0.387
Mof_O 	O 	0.5389	0.14107	0.1976	-0.417
Mof_O 	O 	0.56724	0.21227	0.1958	-0.401
Mof_O 	O 	0.70309	0.24156	0.0698	-0.397
Mof_O 	O 	0.7087	0.1905	0.0056	-0.409
Mof_O 	O 	0.8048	0.18909	0.9961	-0.429
Mof_O 	O 	0.80205	0.23265	0.0674	-0.386
Mof_O 	O 	0.92812	0.19114	0.1959	-0.397
Mof_O 	O 	0.95589	0.11864	0.1973	-0.394
Mof_Cu	Cu	0.9957	0.62728	0.25	0.911
Mof_Cu	Cu	0.02738	0.71256	0.25	0.908
Mof_Cu	Cu	0.47753	0.73281	0.25	0.903
Mof_Cu	Cu	0.50889	0.64767	0.25	0.916
Mof_Cu	Cu	0.0043	0.37272	0.75	0.911
Mof_Cu	Cu	0.97262	0.28744	0.75	0.908
Mof_Cu	Cu	0.52247	0.26719	0.75	0.903
Mof_Cu	Cu	0.49111	0.35233	0.75	0.916
Mof_Cu	Cu	0.0043	0.12728	0.25	0.911
Mof_Cu	Cu	0.97262	0.21256	0.25	0.908
Mof_Cu	Cu	0.52247	0.23281	0.25	0.903
Mof_Cu	Cu	0.49111	0.14767	0.25	0.916
Mof_Cu	Cu	0.9957	0.87272	0.75	0.911
Mof_Cu	Cu	0.02738	0.78744	0.75	0.908
Mof_Cu	Cu	0.47753	0.76719	0.75	0.903
Mof_Cu	Cu	0.50889	0.85233	0.75	0.916
_end
