# CIF file generated by openbabel 3.1.0, see https://openbabel.org
data_I
_chemical_name_common 'image0'
_cell_length_a 5.0139
_cell_length_b 9.309
_cell_length_c 20.923
_cell_angle_alpha 90
_cell_angle_beta 110.294
_cell_angle_gamma 90
_space_group_name_H-M_alt 'P 1'
_space_group_name_Hall 'P 1'
loop_
    _symmetry_equiv_pos_as_xyz
    x,y,z
loop_
    _atom_site_label
    _atom_site_type_symbol
    _atom_site_fract_x
    _atom_site_fract_y
    _atom_site_fract_z
    _atom_site_occupancy
    Fe1      Fe       0.40093    0.68831    0.78393    1.000
    P1       P        0.78160    0.85277    0.71030    1.000
    P2       P        0.61970    0.39334    0.58376    1.000
    B1       B        0.46220    0.63450    0.63780    1.000
    O1       O        0.46040    0.58510    0.70421    1.000
    O2       O        0.55970    0.78570    0.64487    1.000
    O3       O        0.86780    0.36510    0.55927    1.000
    O4       O        0.66000    0.54740    0.61555    1.000
    O5       O        0.79130    0.01440    0.69724    1.000
    O6       O        0.17570    0.62930    0.58539    1.000
    O7       O        0.34000    0.38550    0.52461    1.000
    O8       O        0.67530    0.83020    0.77017    1.000
    O9       O        0.62540    0.28280    0.63765    1.000
    O10      O        0.06870    0.78460    0.72135    1.000
    H1       H        0.06800    0.64000    0.59900    1.000
    H2       H        0.42900    0.49900    0.70700    1.000
    Fe2      Fe       0.59907    0.18831    0.71607    1.000
    P3       P        0.21840    0.35277    0.78970    1.000
    P4       P        0.38030    0.89334    0.91624    1.000
    B2       B        0.53780    0.13450    0.86220    1.000
    O11      O        0.53960    0.08510    0.79579    1.000
    O12      O        0.44030    0.28570    0.85513    1.000
    O13      O        0.13220    0.86510    0.94073    1.000
    O14      O        0.34000    0.04740    0.88445    1.000
    O15      O        0.20870    0.51440    0.80276    1.000
    O16      O        0.82430    0.12930    0.91461    1.000
    O17      O        0.66000    0.88550    0.97539    1.000
    O18      O        0.32470    0.33020    0.72983    1.000
    O19      O        0.37460    0.78280    0.86235    1.000
    O20      O        0.93130    0.28460    0.77865    1.000
    H3       H        0.93200    0.14000    0.90100    1.000
    H4       H        0.57100    0.99900    0.79300    1.000
    Fe3      Fe       0.59907    0.31169    0.21607    1.000
    P5       P        0.21840    0.14723    0.28970    1.000
    P6       P        0.38030    0.60666    0.41624    1.000
    B3       B        0.53780    0.36550    0.36220    1.000
    O21      O        0.53960    0.41490    0.29579    1.000
    O22      O        0.44030    0.21430    0.35513    1.000
    O23      O        0.13220    0.63490    0.44073    1.000
    O24      O        0.34000    0.45260    0.38445    1.000
    O25      O        0.20870    0.98560    0.30276    1.000
    O26      O        0.82430    0.37070    0.41461    1.000
    O27      O        0.66000    0.61450    0.47539    1.000
    O28      O        0.32470    0.16980    0.22983    1.000
    O29      O        0.37460    0.71720    0.36235    1.000
    O30      O        0.93130    0.21540    0.27865    1.000
    H5       H        0.93200    0.36000    0.40100    1.000
    H6       H        0.57100    0.50100    0.29300    1.000
    Fe4      Fe       0.40093    0.81169    0.28393    1.000
    P7       P        0.78160    0.64723    0.21030    1.000
    P8       P        0.61970    0.10666    0.08376    1.000
    B4       B        0.46220    0.86550    0.13780    1.000
    O31      O        0.46040    0.91490    0.20421    1.000
    O32      O        0.55970    0.71430    0.14487    1.000
    O33      O        0.86780    0.13490    0.05927    1.000
    O34      O        0.66000    0.95260    0.11555    1.000
    O35      O        0.79130    0.48560    0.19724    1.000
    O36      O        0.17570    0.87070    0.08539    1.000
    O37      O        0.34000    0.11450    0.02461    1.000
    O38      O        0.67530    0.66980    0.27017    1.000
    O39      O        0.62540    0.21720    0.13765    1.000
    O40      O        0.06870    0.71540    0.22135    1.000
    H7       H        0.06800    0.86000    0.09900    1.000
    H8       H        0.42900    0.00100    0.20700    1.000
    Fe5      Fe       0.00000    0.50000    0.50000    1.000
    Fe6      Fe       0.00000    0.00000    0.00000    1.000
