data_functionalizedCrystal
_audit_creation_method	'EQeq! by Chris Wilmer'
_symmetry_space_group_name_H-M	'P1'
_symmetry_Int_Tables_number	1
_symmetry_cell_setting	triclinic
loop_
_symmetry_equiv_pos_as_xyz
  x,y,z
_cell_length_a	18.513
_cell_length_b	18.513
_cell_length_c	45.354
_cell_angle_alpha	90
_cell_angle_beta	90
_cell_angle_gamma	120
loop_
_atom_site_label
_atom_site_type_symbol
_atom_site_fract_x
_atom_site_fract_y
_atom_site_fract_z
_atom_site_charge
Mof_O 	O 	0.8959	0.1325	0.099	-0.061
Mof_O 	O 	0.889	0.0751	0.1072	-0.048
Mof_O 	O 	0.743	0.1048	0.12907	-0.396
Mof_O 	O 	0.7022	0.1453	0.1696	-0.363
Mof_C 	C 	0.6989	0.1229	0.14179	0.349
Mof_C 	C 	0.6169	0.1	0.12938	-0.061
Mof_C 	C 	0.5992	0.0684	0.10038	-0.032
Mof_H 	H 	0.6373	0.058	0.0906	0.072
Mof_C 	C 	0.5331	0.0241	0.05419	0.015
Mof_C 	C 	0.553	0.9642	0.04534	-0.087
Mof_H 	H 	0.5735	0.9415	0.0589	0.079
Mof_C 	C 	0.5421	0.9384	0.01609	0.032
Mof_C 	C 	0.5115	0.9724	0.99571	-0.003
Mof_C 	C 	0.5024	0.0581	0.0338	0.002
Mof_O 	O 	0.56257	0.46583	0.43233	-0.061
Mof_O 	O 	0.55567	0.40843	0.44053	-0.048
Mof_O 	O 	0.40967	0.43813	0.4624	-0.396
Mof_O 	O 	0.36887	0.47863	0.50293	-0.363
Mof_C 	C 	0.36557	0.45623	0.47512	0.349
Mof_C 	C 	0.28357	0.43333	0.46271	-0.061
Mof_C 	C 	0.26587	0.40173	0.43371	-0.032
Mof_H 	H 	0.30397	0.39133	0.42393	0.072
Mof_C 	C 	0.19977	0.35743	0.38752	0.015
Mof_C 	C 	0.21967	0.29753	0.37867	-0.087
Mof_H 	H 	0.24017	0.27483	0.39223	0.079
Mof_C 	C 	0.20877	0.27173	0.34942	0.032
Mof_C 	C 	0.17817	0.30573	0.32904	-0.003
Mof_C 	C 	0.16907	0.39143	0.36713	0.002
Mof_O 	O 	0.22923	0.79917	0.76567	-0.061
Mof_O 	O 	0.22233	0.74177	0.77387	-0.048
Mof_O 	O 	0.07633	0.77147	0.79574	-0.397
Mof_O 	O 	0.03553	0.81197	0.83627	-0.363
Mof_C 	C 	0.03223	0.78957	0.80846	0.349
Mof_C 	C 	0.95023	0.76667	0.79605	-0.062
Mof_C 	C 	0.93253	0.73507	0.76705	-0.032
Mof_H 	H 	0.97063	0.72467	0.75727	0.072
Mof_C 	C 	0.86643	0.69077	0.72086	0.015
Mof_C 	C 	0.88633	0.63087	0.71201	-0.087
Mof_H 	H 	0.90683	0.60817	0.72557	0.079
Mof_C 	C 	0.87543	0.60507	0.68276	0.032
Mof_C 	C 	0.84483	0.63907	0.66238	-0.003
Mof_C 	C 	0.83573	0.72477	0.70047	0.002
Mof_O 	O 	0.8675	0.7634	0.099	-0.061
Mof_O 	O 	0.9249	0.8139	0.1072	-0.048
Mof_O 	O 	0.8952	0.6382	0.12907	-0.397
Mof_O 	O 	0.8547	0.5569	0.1696	-0.363
Mof_C 	C 	0.8771	0.576	0.14179	0.348
Mof_C 	C 	0.9	0.5169	0.12938	-0.062
Mof_C 	C 	0.9316	0.5308	0.10038	-0.033
Mof_H 	H 	0.942	0.5793	0.0906	0.071
Mof_C 	C 	0.9759	0.509	0.05419	0.014
Mof_C 	C 	0.0358	0.5888	0.04534	-0.088
Mof_H 	H 	0.0585	0.632	0.0589	0.078
Mof_C 	C 	0.0616	0.6037	0.01609	0.031
Mof_C 	C 	0.0276	0.5391	0.99571	-0.004
Mof_C 	C 	0.9419	0.4443	0.0338	0.001
Mof_O 	O 	0.53417	0.09673	0.43233	-0.062
Mof_O 	O 	0.59157	0.14723	0.44053	-0.049
Mof_O 	O 	0.56187	0.97153	0.4624	-0.398
Mof_O 	O 	0.52137	0.89023	0.50293	-0.364
Mof_C 	C 	0.54377	0.90933	0.47512	0.348
Mof_C 	C 	0.56667	0.85023	0.46271	-0.062
Mof_C 	C 	0.59827	0.86413	0.43371	-0.033
Mof_H 	H 	0.60867	0.91263	0.42393	0.071
Mof_C 	C 	0.64257	0.84233	0.38752	0.014
Mof_C 	C 	0.70247	0.92213	0.37867	-0.088
Mof_H 	H 	0.72517	0.96533	0.39223	0.078
Mof_C 	C 	0.72827	0.93703	0.34942	0.031
Mof_C 	C 	0.69427	0.87243	0.32904	-0.004
Mof_C 	C 	0.60857	0.77763	0.36713	0.001
Mof_O 	O 	0.20083	0.43007	0.76567	-0.062
Mof_O 	O 	0.25823	0.48057	0.77387	-0.049
Mof_O 	O 	0.22853	0.30487	0.79574	-0.398
Mof_O 	O 	0.18803	0.22357	0.83627	-0.364
Mof_C 	C 	0.21043	0.24267	0.80846	0.348
Mof_C 	C 	0.23333	0.18357	0.79605	-0.062
Mof_C 	C 	0.26493	0.19747	0.76705	-0.033
Mof_H 	H 	0.27533	0.24597	0.75727	0.071
Mof_C 	C 	0.30923	0.17567	0.72086	0.014
Mof_C 	C 	0.36913	0.25547	0.71201	-0.088
Mof_H 	H 	0.39183	0.29867	0.72557	0.078
Mof_C 	C 	0.39493	0.27037	0.68276	0.031
Mof_C 	C 	0.36093	0.20577	0.66238	-0.004
Mof_C 	C 	0.27523	0.11097	0.70047	0.001
Mof_O 	O 	0.2366	0.1041	0.099	-0.062
Mof_O 	O 	0.1861	0.111	0.1072	-0.049
Mof_O 	O 	0.3618	0.257	0.12907	-0.398
Mof_O 	O 	0.4431	0.2978	0.1696	-0.364
Mof_C 	C 	0.424	0.3011	0.14179	0.348
Mof_C 	C 	0.4831	0.3831	0.12938	-0.062
Mof_C 	C 	0.4692	0.4008	0.10038	-0.033
Mof_H 	H 	0.4207	0.3627	0.0906	0.071
Mof_C 	C 	0.491	0.4669	0.05419	0.014
Mof_C 	C 	0.4112	0.447	0.04534	-0.088
Mof_H 	H 	0.368	0.4265	0.0589	0.078
Mof_C 	C 	0.3963	0.4579	0.01609	0.031
Mof_C 	C 	0.4609	0.4885	0.99571	-0.004
Mof_C 	C 	0.5557	0.4976	0.0338	0.001
Mof_O 	O 	0.90327	0.43743	0.43233	-0.062
Mof_O 	O 	0.85277	0.44433	0.44053	-0.049
Mof_O 	O 	0.02847	0.59033	0.4624	-0.398
Mof_O 	O 	0.10977	0.63113	0.50293	-0.364
Mof_C 	C 	0.09067	0.63443	0.47512	0.348
Mof_C 	C 	0.14977	0.71643	0.46271	-0.062
Mof_C 	C 	0.13587	0.73413	0.43371	-0.033
Mof_H 	H 	0.08737	0.69603	0.42393	0.071
Mof_C 	C 	0.15767	0.80023	0.38752	0.014
Mof_C 	C 	0.07787	0.78033	0.37867	-0.088
Mof_H 	H 	0.03467	0.75983	0.39223	0.078
Mof_C 	C 	0.06297	0.79123	0.34942	0.031
Mof_C 	C 	0.12757	0.82183	0.32904	-0.004
Mof_C 	C 	0.22237	0.83093	0.36713	0.001
Mof_O 	O 	0.56993	0.77077	0.76567	-0.062
Mof_O 	O 	0.51943	0.77767	0.77387	-0.049
Mof_O 	O 	0.69513	0.92367	0.79574	-0.398
Mof_O 	O 	0.77643	0.96447	0.83627	-0.364
Mof_C 	C 	0.75733	0.96777	0.80846	0.349
Mof_C 	C 	0.81643	0.04977	0.79605	-0.063
Mof_C 	C 	0.80253	0.06747	0.76705	-0.032
Mof_H 	H 	0.75403	0.02937	0.75727	0.071
Mof_C 	C 	0.82433	0.13357	0.72086	0.014
Mof_C 	C 	0.74453	0.11367	0.71201	-0.088
Mof_H 	H 	0.70133	0.09317	0.72557	0.078
Mof_C 	C 	0.72963	0.12457	0.68276	0.031
Mof_C 	C 	0.79423	0.15517	0.66238	-0.004
Mof_C 	C 	0.88903	0.16427	0.70047	0.001
Mof_O 	O 	0.1325	0.8959	0.901	-0.062
Mof_O 	O 	0.0751	0.889	0.8928	-0.049
Mof_O 	O 	0.1048	0.743	0.87093	-0.397
Mof_O 	O 	0.1453	0.7022	0.8304	-0.364
Mof_C 	C 	0.1229	0.6989	0.85821	0.348
Mof_C 	C 	0.1	0.6169	0.87062	-0.062
Mof_C 	C 	0.0684	0.5992	0.89962	-0.033
Mof_H 	H 	0.058	0.6373	0.9094	0.071
Mof_C 	C 	0.0241	0.5331	0.94581	0.014
Mof_C 	C 	0.9642	0.553	0.95466	-0.088
Mof_H 	H 	0.9415	0.5735	0.9411	0.078
Mof_C 	C 	0.9384	0.5421	0.98391	0.031
Mof_C 	C 	0.9724	0.5115	0.00429	-0.004
Mof_C 	C 	0.0581	0.5024	0.9662	0.001
Mof_O 	O 	0.79917	0.22923	0.23433	-0.062
Mof_O 	O 	0.74177	0.22233	0.22613	-0.049
Mof_O 	O 	0.77147	0.07633	0.20426	-0.398
Mof_O 	O 	0.81197	0.03553	0.16373	-0.364
Mof_C 	C 	0.78957	0.03223	0.19154	0.348
Mof_C 	C 	0.76667	0.95023	0.20395	-0.063
Mof_C 	C 	0.73507	0.93253	0.23295	-0.033
Mof_H 	H 	0.72467	0.97063	0.24273	0.071
Mof_C 	C 	0.69077	0.86643	0.27914	0.014
Mof_C 	C 	0.63087	0.88633	0.28799	-0.088
Mof_H 	H 	0.60817	0.90683	0.27443	0.078
Mof_C 	C 	0.60507	0.87543	0.31724	0.031
Mof_C 	C 	0.63907	0.84483	0.33762	-0.004
Mof_C 	C 	0.72477	0.83573	0.29953	0.001
Mof_O 	O 	0.46583	0.56257	0.56767	-0.062
Mof_O 	O 	0.40843	0.55567	0.55947	-0.049
Mof_O 	O 	0.43813	0.40967	0.5376	-0.397
Mof_O 	O 	0.47863	0.36887	0.49707	-0.364
Mof_C 	C 	0.45623	0.36557	0.52488	0.348
Mof_C 	C 	0.43333	0.28357	0.53729	-0.062
Mof_C 	C 	0.40173	0.26587	0.56629	-0.033
Mof_H 	H 	0.39133	0.30397	0.57607	0.071
Mof_C 	C 	0.35743	0.19977	0.61248	0.014
Mof_C 	C 	0.29753	0.21967	0.62133	-0.088
Mof_H 	H 	0.27483	0.24017	0.60777	0.078
Mof_C 	C 	0.27173	0.20877	0.65058	0.031
Mof_C 	C 	0.30573	0.17817	0.67096	-0.004
Mof_C 	C 	0.39143	0.16907	0.63287	0.001
Mof_O 	O 	0.7634	0.8675	0.901	-0.062
Mof_O 	O 	0.8139	0.9249	0.8928	-0.049
Mof_O 	O 	0.6382	0.8952	0.87093	-0.398
Mof_O 	O 	0.5569	0.8547	0.8304	-0.364
Mof_C 	C 	0.576	0.8771	0.85821	0.348
Mof_C 	C 	0.5169	0.9	0.87062	-0.062
Mof_C 	C 	0.5308	0.9316	0.89962	-0.033
Mof_H 	H 	0.5793	0.942	0.9094	0.071
Mof_C 	C 	0.509	0.9759	0.94581	0.014
Mof_C 	C 	0.5888	0.0358	0.95466	-0.088
Mof_H 	H 	0.632	0.0585	0.9411	0.078
Mof_C 	C 	0.6037	0.0616	0.98391	0.031
Mof_C 	C 	0.5391	0.0276	0.00429	-0.004
Mof_C 	C 	0.4443	0.9419	0.9662	0.001
Mof_O 	O 	0.43007	0.20083	0.23433	-0.062
Mof_O 	O 	0.48057	0.25823	0.22613	-0.049
Mof_O 	O 	0.30487	0.22853	0.20426	-0.398
Mof_O 	O 	0.22357	0.18803	0.16373	-0.364
Mof_C 	C 	0.24267	0.21043	0.19154	0.348
Mof_C 	C 	0.18357	0.23333	0.20395	-0.062
Mof_C 	C 	0.19747	0.26493	0.23295	-0.033
Mof_H 	H 	0.24597	0.27533	0.24273	0.071
Mof_C 	C 	0.17567	0.30923	0.27914	0.014
Mof_C 	C 	0.25547	0.36913	0.28799	-0.088
Mof_H 	H 	0.29867	0.39183	0.27443	0.078
Mof_C 	C 	0.27037	0.39493	0.31724	0.031
Mof_C 	C 	0.20577	0.36093	0.33762	-0.004
Mof_C 	C 	0.11097	0.27523	0.29953	0.001
Mof_O 	O 	0.09673	0.53417	0.56767	-0.062
Mof_O 	O 	0.14723	0.59157	0.55947	-0.049
Mof_O 	O 	0.97153	0.56187	0.5376	-0.398
Mof_O 	O 	0.89023	0.52137	0.49707	-0.364
Mof_C 	C 	0.90933	0.54377	0.52488	0.348
Mof_C 	C 	0.85023	0.56667	0.53729	-0.062
Mof_C 	C 	0.86413	0.59827	0.56629	-0.033
Mof_H 	H 	0.91263	0.60867	0.57607	0.071
Mof_C 	C 	0.84233	0.64257	0.61248	0.014
Mof_C 	C 	0.92213	0.70247	0.62133	-0.088
Mof_H 	H 	0.96533	0.72517	0.60777	0.078
Mof_C 	C 	0.93703	0.72827	0.65058	0.031
Mof_C 	C 	0.87243	0.69427	0.67096	-0.004
Mof_C 	C 	0.77763	0.60857	0.63287	0.001
Mof_O 	O 	0.1041	0.2366	0.901	-0.062
Mof_O 	O 	0.111	0.1861	0.8928	-0.049
Mof_O 	O 	0.257	0.3618	0.87093	-0.398
Mof_O 	O 	0.2978	0.4431	0.8304	-0.364
Mof_C 	C 	0.3011	0.424	0.85821	0.348
Mof_C 	C 	0.3831	0.4831	0.87062	-0.062
Mof_C 	C 	0.4008	0.4692	0.89962	-0.033
Mof_H 	H 	0.3627	0.4207	0.9094	0.071
Mof_C 	C 	0.4669	0.491	0.94581	0.014
Mof_C 	C 	0.447	0.4112	0.95466	-0.088
Mof_H 	H 	0.4265	0.368	0.9411	0.078
Mof_C 	C 	0.4579	0.3963	0.98391	0.031
Mof_C 	C 	0.4885	0.4609	0.00429	-0.004
Mof_C 	C 	0.4976	0.5557	0.9662	0.001
Mof_O 	O 	0.77077	0.56993	0.23433	-0.062
Mof_O 	O 	0.77767	0.51943	0.22613	-0.049
Mof_O 	O 	0.92367	0.69513	0.20426	-0.398
Mof_O 	O 	0.96447	0.77643	0.16373	-0.364
Mof_C 	C 	0.96777	0.75733	0.19154	0.349
Mof_C 	C 	0.04977	0.81643	0.20395	-0.063
Mof_C 	C 	0.06747	0.80253	0.23295	-0.032
Mof_H 	H 	0.02937	0.75403	0.24273	0.071
Mof_C 	C 	0.13357	0.82433	0.27914	0.014
Mof_C 	C 	0.11367	0.74453	0.28799	-0.088
Mof_H 	H 	0.09317	0.70133	0.27443	0.078
Mof_C 	C 	0.12457	0.72963	0.31724	0.031
Mof_C 	C 	0.15517	0.79423	0.33762	-0.004
Mof_C 	C 	0.16427	0.88903	0.29953	0.001
Mof_O 	O 	0.43743	0.90327	0.56767	-0.062
Mof_O 	O 	0.44433	0.85277	0.55947	-0.049
Mof_O 	O 	0.59033	0.02847	0.5376	-0.398
Mof_O 	O 	0.63113	0.10977	0.49707	-0.364
Mof_C 	C 	0.63443	0.09067	0.52488	0.348
Mof_C 	C 	0.71643	0.14977	0.53729	-0.062
Mof_C 	C 	0.73413	0.13587	0.56629	-0.033
Mof_H 	H 	0.69603	0.08737	0.57607	0.071
Mof_C 	C 	0.80023	0.15767	0.61248	0.014
Mof_C 	C 	0.78033	0.07787	0.62133	-0.088
Mof_H 	H 	0.75983	0.03467	0.60777	0.078
Mof_C 	C 	0.79123	0.06297	0.65058	0.031
Mof_C 	C 	0.82183	0.12757	0.67096	-0.004
Mof_C 	C 	0.83093	0.22237	0.63287	0.001
Mof_O 	O 	0.1041	0.8675	0.901	-0.062
Mof_O 	O 	0.111	0.9249	0.8928	-0.049
Mof_O 	O 	0.257	0.8952	0.87093	-0.397
Mof_O 	O 	0.2978	0.8547	0.8304	-0.364
Mof_C 	C 	0.3011	0.8771	0.85821	0.348
Mof_C 	C 	0.3831	0.9	0.87062	-0.062
Mof_C 	C 	0.4008	0.9316	0.89962	-0.033
Mof_H 	H 	0.3627	0.942	0.9094	0.071
Mof_C 	C 	0.4669	0.9759	0.94581	0.014
Mof_C 	C 	0.447	0.0358	0.95466	-0.088
Mof_H 	H 	0.4265	0.0585	0.9411	0.078
Mof_C 	C 	0.4579	0.0616	0.98391	0.031
Mof_C 	C 	0.4885	0.0276	0.00429	-0.004
Mof_C 	C 	0.4976	0.9419	0.9662	0.001
Mof_O 	O 	0.77077	0.20083	0.23433	-0.062
Mof_O 	O 	0.77767	0.25823	0.22613	-0.049
Mof_O 	O 	0.92367	0.22853	0.20426	-0.398
Mof_O 	O 	0.96447	0.18803	0.16373	-0.364
Mof_C 	C 	0.96777	0.21043	0.19154	0.348
Mof_C 	C 	0.04977	0.23333	0.20395	-0.063
Mof_C 	C 	0.06747	0.26493	0.23295	-0.033
Mof_H 	H 	0.02937	0.27533	0.24273	0.071
Mof_C 	C 	0.13357	0.30923	0.27914	0.014
Mof_C 	C 	0.11367	0.36913	0.28799	-0.088
Mof_H 	H 	0.09317	0.39183	0.27443	0.078
Mof_C 	C 	0.12457	0.39493	0.31724	0.031
Mof_C 	C 	0.15517	0.36093	0.33762	-0.004
Mof_C 	C 	0.16427	0.27523	0.29953	0.001
Mof_O 	O 	0.43743	0.53417	0.56767	-0.062
Mof_O 	O 	0.44433	0.59157	0.55947	-0.049
Mof_O 	O 	0.59033	0.56187	0.5376	-0.397
Mof_O 	O 	0.63113	0.52137	0.49707	-0.364
Mof_C 	C 	0.63443	0.54377	0.52488	0.348
Mof_C 	C 	0.71643	0.56667	0.53729	-0.062
Mof_C 	C 	0.73413	0.59827	0.56629	-0.033
Mof_H 	H 	0.69603	0.60867	0.57607	0.071
Mof_C 	C 	0.80023	0.64257	0.61248	0.014
Mof_C 	C 	0.78033	0.70247	0.62133	-0.088
Mof_H 	H 	0.75983	0.72517	0.60777	0.078
Mof_C 	C 	0.79123	0.72827	0.65058	0.031
Mof_C 	C 	0.82183	0.69427	0.67096	-0.004
Mof_C 	C 	0.83093	0.60857	0.63287	0.001
Mof_O 	O 	0.1325	0.2366	0.901	-0.062
Mof_O 	O 	0.0751	0.1861	0.8928	-0.049
Mof_O 	O 	0.1048	0.3618	0.87093	-0.398
Mof_O 	O 	0.1453	0.4431	0.8304	-0.364
Mof_C 	C 	0.1229	0.424	0.85821	0.348
Mof_C 	C 	0.1	0.4831	0.87062	-0.062
Mof_C 	C 	0.0684	0.4692	0.89962	-0.033
Mof_H 	H 	0.058	0.4207	0.9094	0.071
Mof_C 	C 	0.0241	0.491	0.94581	0.014
Mof_C 	C 	0.9642	0.4112	0.95466	-0.088
Mof_H 	H 	0.9415	0.368	0.9411	0.078
Mof_C 	C 	0.9384	0.3963	0.98391	0.031
Mof_C 	C 	0.9724	0.4609	0.00429	-0.004
Mof_C 	C 	0.0581	0.5557	0.9662	0.001
Mof_O 	O 	0.79917	0.56993	0.23433	-0.062
Mof_O 	O 	0.74177	0.51943	0.22613	-0.049
Mof_O 	O 	0.77147	0.69513	0.20426	-0.398
Mof_O 	O 	0.81197	0.77643	0.16373	-0.364
Mof_C 	C 	0.78957	0.75733	0.19154	0.348
Mof_C 	C 	0.76667	0.81643	0.20395	-0.062
Mof_C 	C 	0.73507	0.80253	0.23295	-0.033
Mof_H 	H 	0.72467	0.75403	0.24273	0.071
Mof_C 	C 	0.69077	0.82433	0.27914	0.014
Mof_C 	C 	0.63087	0.74453	0.28799	-0.088
Mof_H 	H 	0.60817	0.70133	0.27443	0.078
Mof_C 	C 	0.60507	0.72963	0.31724	0.031
Mof_C 	C 	0.63907	0.79423	0.33762	-0.004
Mof_C 	C 	0.72477	0.88903	0.29953	0.001
Mof_O 	O 	0.46583	0.90327	0.56767	-0.062
Mof_O 	O 	0.40843	0.85277	0.55947	-0.049
Mof_O 	O 	0.43813	0.02847	0.5376	-0.398
Mof_O 	O 	0.47863	0.10977	0.49707	-0.364
Mof_C 	C 	0.45623	0.09067	0.52488	0.348
Mof_C 	C 	0.43333	0.14977	0.53729	-0.062
Mof_C 	C 	0.40173	0.13587	0.56629	-0.033
Mof_H 	H 	0.39133	0.08737	0.57607	0.071
Mof_C 	C 	0.35743	0.15767	0.61248	0.014
Mof_C 	C 	0.29753	0.07787	0.62133	-0.088
Mof_H 	H 	0.27483	0.03467	0.60777	0.078
Mof_C 	C 	0.27173	0.06297	0.65058	0.031
Mof_C 	C 	0.30573	0.12757	0.67096	-0.004
Mof_C 	C 	0.39143	0.22237	0.63287	0.001
Mof_O 	O 	0.7634	0.8959	0.901	-0.062
Mof_O 	O 	0.8139	0.889	0.8928	-0.049
Mof_O 	O 	0.6382	0.743	0.87093	-0.398
Mof_O 	O 	0.5569	0.7022	0.8304	-0.364
Mof_C 	C 	0.576	0.6989	0.85821	0.348
Mof_C 	C 	0.5169	0.6169	0.87062	-0.062
Mof_C 	C 	0.5308	0.5992	0.89962	-0.033
Mof_H 	H 	0.5793	0.6373	0.9094	0.071
Mof_C 	C 	0.509	0.5331	0.94581	0.014
Mof_C 	C 	0.5888	0.553	0.95466	-0.088
Mof_H 	H 	0.632	0.5735	0.9411	0.078
Mof_C 	C 	0.6037	0.5421	0.98391	0.031
Mof_C 	C 	0.5391	0.5115	0.00429	-0.004
Mof_C 	C 	0.4443	0.5024	0.9662	0.001
Mof_O 	O 	0.43007	0.22923	0.23433	-0.062
Mof_O 	O 	0.48057	0.22233	0.22613	-0.049
Mof_O 	O 	0.30487	0.07633	0.20426	-0.398
Mof_O 	O 	0.22357	0.03553	0.16373	-0.364
Mof_C 	C 	0.24267	0.03223	0.19154	0.349
Mof_C 	C 	0.18357	0.95023	0.20395	-0.063
Mof_C 	C 	0.19747	0.93253	0.23295	-0.032
Mof_H 	H 	0.24597	0.97063	0.24273	0.071
Mof_C 	C 	0.17567	0.86643	0.27914	0.014
Mof_C 	C 	0.25547	0.88633	0.28799	-0.088
Mof_H 	H 	0.29867	0.90683	0.27443	0.078
Mof_C 	C 	0.27037	0.87543	0.31724	0.031
Mof_C 	C 	0.20577	0.84483	0.33762	-0.004
Mof_C 	C 	0.11097	0.83573	0.29953	0.001
Mof_O 	O 	0.09673	0.56257	0.56767	-0.062
Mof_O 	O 	0.14723	0.55567	0.55947	-0.049
Mof_O 	O 	0.97153	0.40967	0.5376	-0.398
Mof_O 	O 	0.89023	0.36887	0.49707	-0.364
Mof_C 	C 	0.90933	0.36557	0.52488	0.348
Mof_C 	C 	0.85023	0.28357	0.53729	-0.062
Mof_C 	C 	0.86413	0.26587	0.56629	-0.033
Mof_H 	H 	0.91263	0.30397	0.57607	0.071
Mof_C 	C 	0.84233	0.19977	0.61248	0.014
Mof_C 	C 	0.92213	0.21967	0.62133	-0.088
Mof_H 	H 	0.96533	0.24017	0.60777	0.078
Mof_C 	C 	0.93703	0.20877	0.65058	0.031
Mof_C 	C 	0.87243	0.17817	0.67096	-0.004
Mof_C 	C 	0.77763	0.16907	0.63287	0.001
Mof_O 	O 	0.8675	0.1041	0.099	-0.062
Mof_O 	O 	0.9249	0.111	0.1072	-0.049
Mof_O 	O 	0.8952	0.257	0.12907	-0.397
Mof_O 	O 	0.8547	0.2978	0.1696	-0.364
Mof_C 	C 	0.8771	0.3011	0.14179	0.348
Mof_C 	C 	0.9	0.3831	0.12938	-0.062
Mof_C 	C 	0.9316	0.4008	0.10038	-0.033
Mof_H 	H 	0.942	0.3627	0.0906	0.071
Mof_C 	C 	0.9759	0.4669	0.05419	0.014
Mof_C 	C 	0.0358	0.447	0.04534	-0.088
Mof_H 	H 	0.0585	0.4265	0.0589	0.078
Mof_C 	C 	0.0616	0.4579	0.01609	0.031
Mof_C 	C 	0.0276	0.4885	0.99571	-0.004
Mof_C 	C 	0.9419	0.4976	0.0338	0.001
Mof_O 	O 	0.53417	0.43743	0.43233	-0.062
Mof_O 	O 	0.59157	0.44433	0.44053	-0.049
Mof_O 	O 	0.56187	0.59033	0.4624	-0.397
Mof_O 	O 	0.52137	0.63113	0.50293	-0.364
Mof_C 	C 	0.54377	0.63443	0.47512	0.348
Mof_C 	C 	0.56667	0.71643	0.46271	-0.062
Mof_C 	C 	0.59827	0.73413	0.43371	-0.033
Mof_H 	H 	0.60867	0.69603	0.42393	0.071
Mof_C 	C 	0.64257	0.80023	0.38752	0.014
Mof_C 	C 	0.70247	0.78033	0.37867	-0.088
Mof_H 	H 	0.72517	0.75983	0.39223	0.078
Mof_C 	C 	0.72827	0.79123	0.34942	0.031
Mof_C 	C 	0.69427	0.82183	0.32904	-0.004
Mof_C 	C 	0.60857	0.83093	0.36713	0.001
Mof_O 	O 	0.20083	0.77077	0.76567	-0.062
Mof_O 	O 	0.25823	0.77767	0.77387	-0.049
Mof_O 	O 	0.22853	0.92367	0.79574	-0.398
Mof_O 	O 	0.18803	0.96447	0.83627	-0.364
Mof_C 	C 	0.21043	0.96777	0.80846	0.348
Mof_C 	C 	0.23333	0.04977	0.79605	-0.063
Mof_C 	C 	0.26493	0.06747	0.76705	-0.033
Mof_H 	H 	0.27533	0.02937	0.75727	0.071
Mof_C 	C 	0.30923	0.13357	0.72086	0.014
Mof_C 	C 	0.36913	0.11367	0.71201	-0.088
Mof_H 	H 	0.39183	0.09317	0.72557	0.078
Mof_C 	C 	0.39493	0.12457	0.68276	0.031
Mof_C 	C 	0.36093	0.15517	0.66238	-0.004
Mof_C 	C 	0.27523	0.16427	0.70047	0.001
Mof_O 	O 	0.2366	0.1325	0.099	-0.062
Mof_O 	O 	0.1861	0.0751	0.1072	-0.049
Mof_O 	O 	0.3618	0.1048	0.12907	-0.398
Mof_O 	O 	0.4431	0.1453	0.1696	-0.364
Mof_C 	C 	0.424	0.1229	0.14179	0.348
Mof_C 	C 	0.4831	0.1	0.12938	-0.062
Mof_C 	C 	0.4692	0.0684	0.10038	-0.033
Mof_H 	H 	0.4207	0.058	0.0906	0.071
Mof_C 	C 	0.491	0.0241	0.05419	0.014
Mof_C 	C 	0.4112	0.9642	0.04534	-0.088
Mof_H 	H 	0.368	0.9415	0.0589	0.078
Mof_C 	C 	0.3963	0.9384	0.01609	0.031
Mof_C 	C 	0.4609	0.9724	0.99571	-0.004
Mof_C 	C 	0.5557	0.0581	0.0338	0.001
Mof_O 	O 	0.90327	0.46583	0.43233	-0.062
Mof_O 	O 	0.85277	0.40843	0.44053	-0.049
Mof_O 	O 	0.02847	0.43813	0.4624	-0.398
Mof_O 	O 	0.10977	0.47863	0.50293	-0.364
Mof_C 	C 	0.09067	0.45623	0.47512	0.348
Mof_C 	C 	0.14977	0.43333	0.46271	-0.062
Mof_C 	C 	0.13587	0.40173	0.43371	-0.033
Mof_H 	H 	0.08737	0.39133	0.42393	0.071
Mof_C 	C 	0.15767	0.35743	0.38752	0.014
Mof_C 	C 	0.07787	0.29753	0.37867	-0.088
Mof_H 	H 	0.03467	0.27483	0.39223	0.078
Mof_C 	C 	0.06297	0.27173	0.34942	0.031
Mof_C 	C 	0.12757	0.30573	0.32904	-0.004
Mof_C 	C 	0.22237	0.39143	0.36713	0.001
Mof_O 	O 	0.56993	0.79917	0.76567	-0.062
Mof_O 	O 	0.51943	0.74177	0.77387	-0.049
Mof_O 	O 	0.69513	0.77147	0.79574	-0.398
Mof_O 	O 	0.77643	0.81197	0.83627	-0.364
Mof_C 	C 	0.75733	0.78957	0.80846	0.348
Mof_C 	C 	0.81643	0.76667	0.79605	-0.062
Mof_C 	C 	0.80253	0.73507	0.76705	-0.033
Mof_H 	H 	0.75403	0.72467	0.75727	0.071
Mof_C 	C 	0.82433	0.69077	0.72086	0.014
Mof_C 	C 	0.74453	0.63087	0.71201	-0.088
Mof_H 	H 	0.70133	0.60817	0.72557	0.078
Mof_C 	C 	0.72963	0.60507	0.68276	0.031
Mof_C 	C 	0.79423	0.63907	0.66238	-0.004
Mof_C 	C 	0.88903	0.72477	0.70047	0.001
Mof_O 	O 	0.8959	0.7634	0.099	-0.062
Mof_O 	O 	0.889	0.8139	0.1072	-0.049
Mof_O 	O 	0.743	0.6382	0.12907	-0.398
Mof_O 	O 	0.7022	0.5569	0.1696	-0.364
Mof_C 	C 	0.6989	0.576	0.14179	0.348
Mof_C 	C 	0.6169	0.5169	0.12938	-0.062
Mof_C 	C 	0.5992	0.5308	0.10038	-0.033
Mof_H 	H 	0.6373	0.5793	0.0906	0.071
Mof_C 	C 	0.5331	0.509	0.05419	0.014
Mof_C 	C 	0.553	0.5888	0.04534	-0.088
Mof_H 	H 	0.5735	0.632	0.0589	0.078
Mof_C 	C 	0.5421	0.6037	0.01609	0.031
Mof_C 	C 	0.5115	0.5391	0.99571	-0.004
Mof_C 	C 	0.5024	0.4443	0.0338	0.001
Mof_O 	O 	0.56257	0.09673	0.43233	-0.062
Mof_O 	O 	0.55567	0.14723	0.44053	-0.049
Mof_O 	O 	0.40967	0.97153	0.4624	-0.398
Mof_O 	O 	0.36887	0.89023	0.50293	-0.364
Mof_C 	C 	0.36557	0.90933	0.47512	0.348
Mof_C 	C 	0.28357	0.85023	0.46271	-0.062
Mof_C 	C 	0.26587	0.86413	0.43371	-0.033
Mof_H 	H 	0.30397	0.91263	0.42393	0.071
Mof_C 	C 	0.19977	0.84233	0.38752	0.014
Mof_C 	C 	0.21967	0.92213	0.37867	-0.088
Mof_H 	H 	0.24017	0.96533	0.39223	0.078
Mof_C 	C 	0.20877	0.93703	0.34942	0.031
Mof_C 	C 	0.17817	0.87243	0.32904	-0.004
Mof_C 	C 	0.16907	0.77763	0.36713	0.001
Mof_O 	O 	0.22923	0.43007	0.76567	-0.062
Mof_O 	O 	0.22233	0.48057	0.77387	-0.049
Mof_O 	O 	0.07633	0.30487	0.79574	-0.398
Mof_O 	O 	0.03553	0.22357	0.83627	-0.364
Mof_C 	C 	0.03223	0.24267	0.80846	0.349
Mof_C 	C 	0.95023	0.18357	0.79605	-0.063
Mof_C 	C 	0.93253	0.19747	0.76705	-0.032
Mof_H 	H 	0.97063	0.24597	0.75727	0.071
Mof_C 	C 	0.86643	0.17567	0.72086	0.014
Mof_C 	C 	0.88633	0.25547	0.71201	-0.088
Mof_H 	H 	0.90683	0.29867	0.72557	0.078
Mof_C 	C 	0.87543	0.27037	0.68276	0.031
Mof_C 	C 	0.84483	0.20577	0.66238	-0.004
Mof_C 	C 	0.83573	0.11097	0.70047	0.001
Mof_Cu	Cu	0.85738	0.14262	0.14272	0.927
Mof_Cu	Cu	0.52405	0.47595	0.47605	0.927
Mof_Cu	Cu	0.19071	0.80929	0.80939	0.927
Mof_Cu	Cu	0.85738	0.71476	0.14272	0.927
Mof_Cu	Cu	0.52405	0.04809	0.47605	0.927
Mof_Cu	Cu	0.19071	0.38143	0.80939	0.927
Mof_Cu	Cu	0.28524	0.14262	0.14272	0.927
Mof_Cu	Cu	0.95191	0.47595	0.47605	0.927
Mof_Cu	Cu	0.61857	0.80929	0.80939	0.927
Mof_Cu	Cu	0.14262	0.85738	0.85728	0.927
Mof_Cu	Cu	0.80929	0.19071	0.19061	0.927
Mof_Cu	Cu	0.47595	0.52405	0.52395	0.927
Mof_Cu	Cu	0.71476	0.85738	0.85728	0.927
Mof_Cu	Cu	0.38143	0.19071	0.19061	0.927
Mof_Cu	Cu	0.04809	0.52405	0.52395	0.927
Mof_Cu	Cu	0.14262	0.28524	0.85728	0.927
Mof_Cu	Cu	0.80929	0.61857	0.19061	0.927
Mof_Cu	Cu	0.47595	0.95191	0.52395	0.927
Mof_C 	C 	0.55595	0.1119	0.1424	0.015
Mof_H 	H 	0.5649	0.1298	0.1619	0.074
Mof_C 	C 	0.5261	0.0522	0.0859	0.015
Mof_C 	C 	0.22262	0.44523	0.47573	0.015
Mof_H 	H 	0.23157	0.46313	0.49523	0.074
Mof_C 	C 	0.19277	0.38553	0.41923	0.015
Mof_C 	C 	0.88928	0.77857	0.80907	0.015
Mof_H 	H 	0.89823	0.79647	0.82857	0.074
Mof_C 	C 	0.85943	0.71887	0.75257	0.015
Mof_C 	C 	0.8881	0.44405	0.1424	0.015
Mof_H 	H 	0.8702	0.4351	0.1619	0.074
Mof_C 	C 	0.9478	0.4739	0.0859	0.015
Mof_C 	C 	0.55477	0.77738	0.47573	0.015
Mof_H 	H 	0.53687	0.76843	0.49523	0.074
Mof_C 	C 	0.61447	0.80723	0.41923	0.015
Mof_C 	C 	0.22143	0.11072	0.80907	0.015
Mof_H 	H 	0.20353	0.10177	0.82857	0.074
Mof_C 	C 	0.28113	0.14057	0.75257	0.015
Mof_C 	C 	0.55595	0.44405	0.1424	0.015
Mof_H 	H 	0.5649	0.4351	0.1619	0.074
Mof_C 	C 	0.5261	0.4739	0.0859	0.015
Mof_C 	C 	0.22262	0.77738	0.47573	0.015
Mof_H 	H 	0.23157	0.76843	0.49523	0.074
Mof_C 	C 	0.19277	0.80723	0.41923	0.015
Mof_C 	C 	0.88928	0.11072	0.80907	0.016
Mof_H 	H 	0.89823	0.10177	0.82857	0.074
Mof_C 	C 	0.85943	0.14057	0.75257	0.014
Mof_C 	C 	0.1119	0.55595	0.8576	0.015
Mof_H 	H 	0.1298	0.5649	0.8381	0.074
Mof_C 	C 	0.0522	0.5261	0.9141	0.015
Mof_C 	C 	0.77857	0.88928	0.19093	0.015
Mof_H 	H 	0.79647	0.89823	0.17143	0.074
Mof_C 	C 	0.71887	0.85943	0.24743	0.015
Mof_C 	C 	0.44523	0.22262	0.52427	0.015
Mof_H 	H 	0.46313	0.23157	0.50477	0.074
Mof_C 	C 	0.38553	0.19277	0.58077	0.015
Mof_C 	C 	0.44405	0.8881	0.8576	0.015
Mof_H 	H 	0.4351	0.8702	0.8381	0.074
Mof_C 	C 	0.4739	0.9478	0.9141	0.015
Mof_C 	C 	0.11072	0.22143	0.19093	0.015
Mof_H 	H 	0.10177	0.20353	0.17143	0.074
Mof_C 	C 	0.14057	0.28113	0.24743	0.015
Mof_C 	C 	0.77738	0.55477	0.52427	0.015
Mof_H 	H 	0.76843	0.53687	0.50477	0.074
Mof_C 	C 	0.80723	0.61447	0.58077	0.015
Mof_C 	C 	0.44405	0.55595	0.8576	0.015
Mof_H 	H 	0.4351	0.5649	0.8381	0.074
Mof_C 	C 	0.4739	0.5261	0.9141	0.015
Mof_C 	C 	0.11072	0.88928	0.19093	0.016
Mof_H 	H 	0.10177	0.89823	0.17143	0.074
Mof_C 	C 	0.14057	0.85943	0.24743	0.014
Mof_C 	C 	0.77738	0.22262	0.52427	0.015
Mof_H 	H 	0.76843	0.23157	0.50477	0.074
Mof_C 	C 	0.80723	0.19277	0.58077	0.015
_end
