data_functionalizedCrystal
_audit_creation_method	'EQeq! by Chris Wilmer'
_symmetry_space_group_name_H-M	'P1'
_symmetry_Int_Tables_number	1
_symmetry_cell_setting	triclinic
loop_
_symmetry_equiv_pos_as_xyz
  x,y,z
_cell_length_a	9.727
_cell_length_b	17.0204
_cell_length_c	15.2959
_cell_angle_alpha	90
_cell_angle_beta	96.8477
_cell_angle_gamma	90
loop_
_atom_site_label
_atom_site_type_symbol
_atom_site_fract_x
_atom_site_fract_y
_atom_site_fract_z
_atom_site_charge
Mof_Cd	Cd	0.86686	0.58026	0.51932	0.456
Mof_O 	O 	0.7446	0.5389	0.38993	-0.285
Mof_O 	O 	0.6838	0.66776	0.53282	-0.278
Mof_O 	O 	0.8455	0.66152	0.64735	-0.273
Mof_O 	O 	0.9313	0.46602	0.40116	-0.297
Mof_N 	N 	0.9966	0.16606	0.04835	-0.149
Mof_N 	N 	0.2445	0.98427	0.90926	-0.147
Mof_C 	C 	0.8138	0.48267	0.36599	0.312
Mof_C 	C 	0.7469	0.43295	0.29057	-0.057
Mof_C 	C 	0.8232	0.37753	0.25005	-0.035
Mof_H 	H 	0.9178	0.3693	0.2715	0.064
Mof_C 	C 	0.7625	0.33374	0.1781	-0.01
Mof_C 	C 	0.6215	0.3455	0.1489	-0.044
Mof_H 	H 	0.5785	0.3162	0.1003	0.049
Mof_C 	C 	0.5442	0.3996	0.1907	-0.035
Mof_H 	H 	0.4485	0.4062	0.1712	0.046
Mof_C 	C 	0.6064	0.4441	0.2608	-0.02
Mof_H 	H 	0.5539	0.4819	0.2883	0.055
Mof_C 	C 	0.0133	0.17459	0.1357	0.082
Mof_H 	H 	0.0793	0.1421	0.1692	0.016
Mof_C 	C 	0.9405	0.22767	0.1804	-0.139
Mof_H 	H 	0.9564	0.231	0.2428	0.086
Mof_C 	C 	0.8435	0.27636	0.133	0.083
Mof_C 	C 	0.8258	0.2673	0.0417	-0.14
Mof_H 	H 	0.7604	0.299	0.0067	0.076
Mof_C 	C 	0.902	0.2131	0.0023	0.084
Mof_H 	H 	0.8879	0.2083	0.94	0.012
Mof_C 	C 	0.7291	0.6846	0.61153	0.295
Mof_C 	C 	0.6408	0.7338	0.6635	-0.084
Mof_C 	C 	0.5102	0.7596	0.6272	0.015
Mof_H 	H 	0.4752	0.7443	0.569	0.034
Mof_C 	C 	0.4312	0.8072	0.6749	-0.08
Mof_H 	H 	0.3427	0.8243	0.6488	0.054
Mof_C 	C 	0.4793	0.83037	0.76071	0.023
Mof_C 	C 	0.609	0.8026	0.7974	-0.085
Mof_H 	H 	0.6439	0.8169	0.8559	0.078
Mof_C 	C 	0.6867	0.7548	0.7497	0.018
Mof_H 	H 	0.7736	0.7358	0.7763	0.038
Mof_C 	C 	0.2154	0.9763	0.822	0.087
Mof_H 	H 	0.1406	0.0059	0.7931	0.016
Mof_C 	C 	0.2869	0.92782	0.7715	-0.137
Mof_H 	H 	0.2621	0.9252	0.7096	0.076
Mof_C 	C 	0.3966	0.8824	0.81185	0.075
Mof_C 	C 	0.4252	0.89	0.90286	-0.141
Mof_H 	H 	0.4977	0.86	0.9338	0.101
Mof_C 	C 	0.3498	0.9401	0.94801	0.092
Mof_H 	H 	0.3727	0.9442	0.01	0.016
Mof_Cd	Cd	0.13314	0.08026	0.98068	0.453
Mof_O 	O 	0.2554	0.0389	0.11007	-0.283
Mof_O 	O 	0.3162	0.16776	0.96718	-0.279
Mof_O 	O 	0.1545	0.16152	0.85265	-0.273
Mof_O 	O 	0.0687	0.96602	0.09884	-0.296
Mof_N 	N 	0.0034	0.66606	0.45165	-0.149
Mof_N 	N 	0.7555	0.48427	0.59074	-0.146
Mof_C 	C 	0.1862	0.98267	0.13401	0.31
Mof_C 	C 	0.2531	0.93295	0.20943	-0.056
Mof_C 	C 	0.1768	0.87753	0.24995	-0.036
Mof_H 	H 	0.0822	0.8693	0.2285	0.065
Mof_C 	C 	0.2375	0.83374	0.3219	-0.009
Mof_C 	C 	0.3785	0.8455	0.3511	-0.045
Mof_H 	H 	0.4215	0.8162	0.3997	0.049
Mof_C 	C 	0.4558	0.8996	0.3093	-0.034
Mof_H 	H 	0.5515	0.9062	0.3288	0.046
Mof_C 	C 	0.3936	0.9441	0.2392	-0.02
Mof_H 	H 	0.4461	0.9819	0.2117	0.055
Mof_C 	C 	0.9867	0.67459	0.3643	0.081
Mof_H 	H 	0.9207	0.6421	0.3308	0.016
Mof_C 	C 	0.0595	0.72767	0.3196	-0.138
Mof_H 	H 	0.0436	0.731	0.2572	0.086
Mof_C 	C 	0.1565	0.77636	0.367	0.082
Mof_C 	C 	0.1742	0.7673	0.4583	-0.138
Mof_H 	H 	0.2396	0.799	0.4933	0.075
Mof_C 	C 	0.098	0.7131	0.4977	0.082
Mof_H 	H 	0.1121	0.7083	0.56	0.013
Mof_C 	C 	0.2709	0.1846	0.88847	0.295
Mof_C 	C 	0.3592	0.2338	0.8365	-0.085
Mof_C 	C 	0.4898	0.2596	0.8728	0.016
Mof_H 	H 	0.5248	0.2443	0.931	0.033
Mof_C 	C 	0.5688	0.3072	0.8251	-0.081
Mof_H 	H 	0.6573	0.3243	0.8512	0.054
Mof_C 	C 	0.5207	0.33037	0.73929	0.024
Mof_C 	C 	0.391	0.3026	0.7026	-0.086
Mof_H 	H 	0.3561	0.3169	0.6441	0.078
Mof_C 	C 	0.3133	0.2548	0.7503	0.019
Mof_H 	H 	0.2264	0.2358	0.7237	0.038
Mof_C 	C 	0.7846	0.4763	0.678	0.08
Mof_H 	H 	0.8594	0.5059	0.7069	0.02
Mof_C 	C 	0.7131	0.42782	0.7285	-0.132
Mof_H 	H 	0.7379	0.4252	0.7904	0.074
Mof_C 	C 	0.6034	0.3824	0.68815	0.071
Mof_C 	C 	0.5748	0.39	0.59714	-0.137
Mof_H 	H 	0.5023	0.36	0.5662	0.099
Mof_C 	C 	0.6502	0.4401	0.55199	0.086
Mof_H 	H 	0.6273	0.4442	0.49	0.02
Mof_Cd	Cd	0.13314	0.41974	0.48068	0.456
Mof_O 	O 	0.2554	0.4611	0.61007	-0.285
Mof_O 	O 	0.3162	0.33224	0.46718	-0.278
Mof_O 	O 	0.1545	0.33848	0.35265	-0.273
Mof_O 	O 	0.0687	0.53398	0.59884	-0.297
Mof_N 	N 	0.0034	0.83394	0.95165	-0.149
Mof_N 	N 	0.7555	0.01573	0.09074	-0.147
Mof_C 	C 	0.1862	0.51733	0.63401	0.312
Mof_C 	C 	0.2531	0.56705	0.70943	-0.057
Mof_C 	C 	0.1768	0.62247	0.74995	-0.035
Mof_H 	H 	0.0822	0.6307	0.7285	0.064
Mof_C 	C 	0.2375	0.66626	0.8219	-0.01
Mof_C 	C 	0.3785	0.6545	0.8511	-0.044
Mof_H 	H 	0.4215	0.6838	0.8997	0.049
Mof_C 	C 	0.4558	0.6004	0.8093	-0.035
Mof_H 	H 	0.5515	0.5938	0.8288	0.046
Mof_C 	C 	0.3936	0.5559	0.7392	-0.02
Mof_H 	H 	0.4461	0.5181	0.7117	0.055
Mof_C 	C 	0.9867	0.82541	0.8643	0.082
Mof_H 	H 	0.9207	0.8579	0.8308	0.016
Mof_C 	C 	0.0595	0.77233	0.8196	-0.139
Mof_H 	H 	0.0436	0.769	0.7572	0.086
Mof_C 	C 	0.1565	0.72364	0.867	0.083
Mof_C 	C 	0.1742	0.7327	0.9583	-0.14
Mof_H 	H 	0.2396	0.701	0.9933	0.076
Mof_C 	C 	0.098	0.7869	0.9977	0.084
Mof_H 	H 	0.1121	0.7917	0.06	0.012
Mof_C 	C 	0.2709	0.3154	0.38847	0.295
Mof_C 	C 	0.3592	0.2662	0.3365	-0.084
Mof_C 	C 	0.4898	0.2404	0.3728	0.015
Mof_H 	H 	0.5248	0.2557	0.431	0.034
Mof_C 	C 	0.5688	0.1928	0.3251	-0.08
Mof_H 	H 	0.6573	0.1757	0.3512	0.054
Mof_C 	C 	0.5207	0.16963	0.23929	0.023
Mof_C 	C 	0.391	0.1974	0.2026	-0.085
Mof_H 	H 	0.3561	0.1831	0.1441	0.078
Mof_C 	C 	0.3133	0.2452	0.2503	0.018
Mof_H 	H 	0.2264	0.2642	0.2237	0.038
Mof_C 	C 	0.7846	0.0237	0.178	0.087
Mof_H 	H 	0.8594	0.9941	0.2069	0.016
Mof_C 	C 	0.7131	0.07218	0.2285	-0.137
Mof_H 	H 	0.7379	0.0748	0.2904	0.076
Mof_C 	C 	0.6034	0.1176	0.18815	0.075
Mof_C 	C 	0.5748	0.11	0.09714	-0.141
Mof_H 	H 	0.5023	0.14	0.0662	0.101
Mof_C 	C 	0.6502	0.0599	0.05199	0.092
Mof_H 	H 	0.6273	0.0558	0.99	0.016
Mof_Cd	Cd	0.86686	0.91974	0.01932	0.453
Mof_O 	O 	0.7446	0.9611	0.88993	-0.283
Mof_O 	O 	0.6838	0.83224	0.03282	-0.279
Mof_O 	O 	0.8455	0.83848	0.14735	-0.273
Mof_O 	O 	0.9313	0.03398	0.90116	-0.296
Mof_N 	N 	0.9966	0.33394	0.54835	-0.149
Mof_N 	N 	0.2445	0.51573	0.40926	-0.146
Mof_C 	C 	0.8138	0.01733	0.86599	0.31
Mof_C 	C 	0.7469	0.06705	0.79057	-0.056
Mof_C 	C 	0.8232	0.12247	0.75005	-0.036
Mof_H 	H 	0.9178	0.1307	0.7715	0.065
Mof_C 	C 	0.7625	0.16626	0.6781	-0.009
Mof_C 	C 	0.6215	0.1545	0.6489	-0.045
Mof_H 	H 	0.5785	0.1838	0.6003	0.049
Mof_C 	C 	0.5442	0.1004	0.6907	-0.034
Mof_H 	H 	0.4485	0.0938	0.6712	0.046
Mof_C 	C 	0.6064	0.0559	0.7608	-0.02
Mof_H 	H 	0.5539	0.0181	0.7883	0.055
Mof_C 	C 	0.0133	0.32541	0.6357	0.081
Mof_H 	H 	0.0793	0.3579	0.6692	0.016
Mof_C 	C 	0.9405	0.27233	0.6804	-0.138
Mof_H 	H 	0.9564	0.269	0.7428	0.086
Mof_C 	C 	0.8435	0.22364	0.633	0.082
Mof_C 	C 	0.8258	0.2327	0.5417	-0.138
Mof_H 	H 	0.7604	0.201	0.5067	0.075
Mof_C 	C 	0.902	0.2869	0.5023	0.082
Mof_H 	H 	0.8879	0.2917	0.44	0.013
Mof_C 	C 	0.7291	0.8154	0.11153	0.295
Mof_C 	C 	0.6408	0.7662	0.1635	-0.085
Mof_C 	C 	0.5102	0.7404	0.1272	0.016
Mof_H 	H 	0.4752	0.7557	0.069	0.033
Mof_C 	C 	0.4312	0.6928	0.1749	-0.081
Mof_H 	H 	0.3427	0.6757	0.1488	0.054
Mof_C 	C 	0.4793	0.66963	0.26071	0.024
Mof_C 	C 	0.609	0.6974	0.2974	-0.086
Mof_H 	H 	0.6439	0.6831	0.3559	0.078
Mof_C 	C 	0.6867	0.7452	0.2497	0.019
Mof_H 	H 	0.7736	0.7642	0.2763	0.038
Mof_C 	C 	0.2154	0.5237	0.322	0.08
Mof_H 	H 	0.1406	0.4941	0.2931	0.02
Mof_C 	C 	0.2869	0.57218	0.2715	-0.132
Mof_H 	H 	0.2621	0.5748	0.2096	0.074
Mof_C 	C 	0.3966	0.6176	0.31185	0.071
Mof_C 	C 	0.4252	0.61	0.40286	-0.137
Mof_H 	H 	0.4977	0.64	0.4338	0.099
Mof_C 	C 	0.3498	0.5599	0.44801	0.086
Mof_H 	H 	0.3727	0.5558	0.51	0.02
_end
