# CIF file generated by openbabel 3.1.0, see https://openbabel.org
data_I
_chemical_name_common 'KESGAS_clean'
_cell_length_a 8.707
_cell_length_b 11.678
_cell_length_c 28.005
_cell_angle_alpha 90
_cell_angle_beta 90
_cell_angle_gamma 104.2
_space_group_name_H-M_alt 'P 1'
_space_group_name_Hall 'P 1'
loop_
    _symmetry_equiv_pos_as_xyz
    x,y,z
loop_
    _atom_site_label
    _atom_site_type_symbol
    _atom_site_fract_x
    _atom_site_fract_y
    _atom_site_fract_z
    _atom_site_occupancy
    Mn1      Mn       0.19194    0.36568    0.19905    1.000
    Mn2      Mn       0.30806    0.63432    0.69905    1.000
    Mn3      Mn       0.80806    0.63432    0.80095    1.000
    Mn4      Mn       0.69194    0.36568    0.30095    1.000
    H1       H        0.43340    0.49660    0.12780    1.000
    H2       H        0.63230    0.39090    0.12920    1.000
    H3       H        0.73940    0.50360    0.15320    1.000
    H4       H        0.48860    0.67950    0.01890    1.000
    H5       H        0.58960    0.66650    0.94260    1.000
    H6       H        0.98680    0.61180    0.99900    1.000
    H7       H        0.88480    0.62220    0.07500    1.000
    H8       H        0.05730    0.55700    0.14450    1.000
    H9       H        0.04990    0.75050    0.14400    1.000
    H10      H        0.34410    0.80390    0.25480    1.000
    H11      H        0.34540    0.60780    0.25160    1.000
    H12      H        0.04190    0.11850    0.14840    1.000
    H13      H        0.03520    0.92390    0.14800    1.000
    H14      H        0.34720    0.98260    0.25240    1.000
    H15      H        0.32620    0.17310    0.25460    1.000
    H16      H        0.06660    0.50340    0.62780    1.000
    H17      H        0.86770    0.60910    0.62920    1.000
    H18      H        0.76060    0.49640    0.65320    1.000
    H19      H        0.01140    0.32050    0.51890    1.000
    H20      H        0.91040    0.33350    0.44260    1.000
    H21      H        0.51320    0.38820    0.49900    1.000
    H22      H        0.61520    0.37780    0.57500    1.000
    H23      H        0.44270    0.44300    0.64450    1.000
    H24      H        0.45010    0.24950    0.64400    1.000
    H25      H        0.15590    0.19610    0.75480    1.000
    H26      H        0.15460    0.39220    0.75160    1.000
    H27      H        0.45810    0.88150    0.64840    1.000
    H28      H        0.46480    0.07610    0.64800    1.000
    H29      H        0.15280    0.01740    0.75240    1.000
    H30      H        0.17380    0.82690    0.75460    1.000
    H31      H        0.56660    0.50340    0.87220    1.000
    H32      H        0.36770    0.60910    0.87080    1.000
    H33      H        0.26060    0.49640    0.84680    1.000
    H34      H        0.51140    0.32050    0.98110    1.000
    H35      H        0.41040    0.33350    0.05740    1.000
    H36      H        0.01320    0.38820    0.00100    1.000
    H37      H        0.11520    0.37780    0.92500    1.000
    H38      H        0.94270    0.44300    0.85550    1.000
    H39      H        0.95010    0.24950    0.85600    1.000
    H40      H        0.65590    0.19610    0.74520    1.000
    H41      H        0.65460    0.39220    0.74840    1.000
    H42      H        0.95810    0.88150    0.85160    1.000
    H43      H        0.96480    0.07610    0.85200    1.000
    H44      H        0.65280    0.01740    0.74760    1.000
    H45      H        0.67380    0.82690    0.74540    1.000
    H46      H        0.93340    0.49660    0.37220    1.000
    H47      H        0.13230    0.39090    0.37080    1.000
    H48      H        0.23940    0.50360    0.34680    1.000
    H49      H        0.98860    0.67950    0.48110    1.000
    H50      H        0.08960    0.66650    0.55740    1.000
    H51      H        0.48680    0.61180    0.50100    1.000
    H52      H        0.38480    0.62220    0.42500    1.000
    H53      H        0.55730    0.55700    0.35550    1.000
    H54      H        0.54990    0.75050    0.35600    1.000
    H55      H        0.84410    0.80390    0.24520    1.000
    H56      H        0.84540    0.60780    0.24840    1.000
    H57      H        0.54190    0.11850    0.35160    1.000
    H58      H        0.53520    0.92390    0.35200    1.000
    H59      H        0.84720    0.98260    0.24760    1.000
    H60      H        0.82620    0.17310    0.24540    1.000
    C1       C        0.57790    0.40630    0.19919    1.000
    C2       C        0.63160    0.45590    0.15070    1.000
    C3       C        0.67800    0.64930    0.05380    1.000
    C4       C        0.58820    0.66500    0.01480    1.000
    C5       C        0.65040    0.65870    0.96920    1.000
    C6       C        0.79860    0.64130    0.96270    1.000
    C7       C        0.88690    0.62570    0.00280    1.000
    C8       C        0.82530    0.63110    0.04830    1.000
    C9       C        0.86770    0.63950    0.91360    1.000
    C10      C        0.11600    0.60740    0.16720    1.000
    C11      C        0.11100    0.72400    0.16680    1.000
    C12      C        0.19600    0.80260    0.20000    1.000
    C13      C        0.28390    0.75560    0.23170    1.000
    C14      C        0.28380    0.63680    0.22980    1.000
    C15      C        0.10450    0.09140    0.17050    1.000
    C16      C        0.10110    0.97350    0.16960    1.000
    C17      C        0.19310    0.92870    0.19980    1.000
    C18      C        0.28030    0.00720    0.23090    1.000
    C19      C        0.27070    0.12400    0.23100    1.000
    C20      C        0.92210    0.59370    0.69919    1.000
    C21      C        0.86840    0.54410    0.65070    1.000
    C22      C        0.82200    0.35070    0.55380    1.000
    C23      C        0.91180    0.33500    0.51480    1.000
    C24      C        0.84960    0.34130    0.46920    1.000
    C25      C        0.70140    0.35870    0.46270    1.000
    C26      C        0.61310    0.37430    0.50280    1.000
    C27      C        0.67470    0.36890    0.54830    1.000
    C28      C        0.63230    0.36050    0.41360    1.000
    C29      C        0.38400    0.39260    0.66720    1.000
    C30      C        0.38900    0.27600    0.66680    1.000
    C31      C        0.30400    0.19740    0.70000    1.000
    C32      C        0.21610    0.24440    0.73170    1.000
    C33      C        0.21620    0.36320    0.72980    1.000
    C34      C        0.39550    0.90860    0.67050    1.000
    C35      C        0.39890    0.02650    0.66960    1.000
    C36      C        0.30690    0.07130    0.69980    1.000
    C37      C        0.21970    0.99280    0.73090    1.000
    C38      C        0.22930    0.87600    0.73100    1.000
    C39      C        0.42210    0.59370    0.80081    1.000
    C40      C        0.36840    0.54410    0.84930    1.000
    C41      C        0.32200    0.35070    0.94620    1.000
    C42      C        0.41180    0.33500    0.98520    1.000
    C43      C        0.34960    0.34130    0.03080    1.000
    C44      C        0.20140    0.35870    0.03730    1.000
    C45      C        0.11310    0.37430    0.99720    1.000
    C46      C        0.17470    0.36890    0.95170    1.000
    C47      C        0.13230    0.36050    0.08640    1.000
    C48      C        0.88400    0.39260    0.83280    1.000
    C49      C        0.88900    0.27600    0.83320    1.000
    C50      C        0.80400    0.19740    0.80000    1.000
    C51      C        0.71610    0.24440    0.76830    1.000
    C52      C        0.71620    0.36320    0.77020    1.000
    C53      C        0.89550    0.90860    0.82950    1.000
    C54      C        0.89890    0.02650    0.83040    1.000
    C55      C        0.80690    0.07130    0.80020    1.000
    C56      C        0.71970    0.99280    0.76910    1.000
    C57      C        0.72930    0.87600    0.76900    1.000
    C58      C        0.07790    0.40630    0.30081    1.000
    C59      C        0.13160    0.45590    0.34930    1.000
    C60      C        0.17800    0.64930    0.44620    1.000
    C61      C        0.08820    0.66500    0.48520    1.000
    C62      C        0.15040    0.65870    0.53080    1.000
    C63      C        0.29860    0.64130    0.53730    1.000
    C64      C        0.38690    0.62570    0.49720    1.000
    C65      C        0.32530    0.63110    0.45170    1.000
    C66      C        0.36770    0.63950    0.58640    1.000
    C67      C        0.61600    0.60740    0.33280    1.000
    C68      C        0.61100    0.72400    0.33320    1.000
    C69      C        0.69600    0.80260    0.30000    1.000
    C70      C        0.78390    0.75560    0.26830    1.000
    C71      C        0.78380    0.63680    0.27020    1.000
    C72      C        0.60450    0.09140    0.32950    1.000
    C73      C        0.60110    0.97350    0.33040    1.000
    C74      C        0.69310    0.92870    0.30020    1.000
    C75      C        0.78030    0.00720    0.26910    1.000
    C76      C        0.77070    0.12400    0.26900    1.000
    S1       S        0.60110    0.65910    0.11214    1.000
    S2       S        0.89890    0.34090    0.61214    1.000
    S3       S        0.39890    0.34090    0.88786    1.000
    S4       S        0.10110    0.65910    0.38786    1.000
    N1       N        0.53360    0.52720    0.13020    1.000
    N2       N        0.19980    0.56330    0.19825    1.000
    N3       N        0.18970    0.17040    0.20043    1.000
    N4       N        0.96640    0.47280    0.63020    1.000
    N5       N        0.30020    0.43670    0.69825    1.000
    N6       N        0.31030    0.82960    0.70043    1.000
    N7       N        0.46640    0.47280    0.86980    1.000
    N8       N        0.80020    0.43670    0.80175    1.000
    N9       N        0.81030    0.82960    0.79957    1.000
    N10      N        0.03360    0.52720    0.36980    1.000
    N11      N        0.69980    0.56330    0.30175    1.000
    N12      N        0.68970    0.17040    0.29957    1.000
    O1       O        0.44330    0.40660    0.21327    1.000
    O2       O        0.67870    0.37020    0.22314    1.000
    O3       O        0.46740    0.70790    0.10810    1.000
    O4       O        0.73170    0.71300    0.14160    1.000
    O5       O        0.77350    0.63030    0.87861    1.000
    O6       O        0.01210    0.64540    0.91014    1.000
    O7       O        0.05670    0.59340    0.71327    1.000
    O8       O        0.82130    0.62980    0.72314    1.000
    O9       O        0.03260    0.29210    0.60810    1.000
    O10      O        0.76830    0.28700    0.64160    1.000
    O11      O        0.72650    0.36970    0.37861    1.000
    O12      O        0.48790    0.35460    0.41014    1.000
    O13      O        0.55670    0.59340    0.78673    1.000
    O14      O        0.32130    0.62980    0.77686    1.000
    O15      O        0.53260    0.29210    0.89190    1.000
    O16      O        0.26830    0.28700    0.85840    1.000
    O17      O        0.22650    0.36970    0.12139    1.000
    O18      O        0.98790    0.35460    0.08986    1.000
    O19      O        0.94330    0.40660    0.28673    1.000
    O20      O        0.17870    0.37020    0.27686    1.000
    O21      O        0.96740    0.70790    0.39190    1.000
    O22      O        0.23170    0.71300    0.35840    1.000
    O23      O        0.27350    0.63030    0.62139    1.000
    O24      O        0.51210    0.64540    0.58986    1.000
