data_functionalizedCrystal
_audit_creation_method	'EQeq! by Chris Wilmer'
_symmetry_space_group_name_H-M	'P1'
_symmetry_Int_Tables_number	1
_symmetry_cell_setting	triclinic
loop_
_symmetry_equiv_pos_as_xyz
  x,y,z
_cell_length_a	17.1227
_cell_length_b	17.1227
_cell_length_c	17.1227
_cell_angle_alpha	90
_cell_angle_beta	90
_cell_angle_gamma	90
loop_
_atom_site_label
_atom_site_type_symbol
_atom_site_fract_x
_atom_site_fract_y
_atom_site_fract_z
_atom_site_charge
Mof_Zn	Zn	0.56533	0.43467	0.43467	1.215
Mof_Zn	Zn	0.43467	0.56533	0.43467	1.215
Mof_Zn	Zn	0.43467	0.43467	0.56533	1.215
Mof_Zn	Zn	0.56533	0.56533	0.56533	1.214
Mof_H 	H 	0.79621	0.58474	0.58474	0.046
Mof_H 	H 	0.92277	0.62871	0.62871	0.114
Mof_H 	H 	0.20379	0.41526	0.58474	0.053
Mof_H 	H 	0.02813	0.44024	0.64619	0.124
Mof_H 	H 	0.20379	0.58474	0.41526	0.03
Mof_H 	H 	0.79621	0.41526	0.41526	0.029
Mof_H 	H 	0.58474	0.79621	0.58474	0.053
Mof_H 	H 	0.55268	0.99642	0.62753	0.124
Mof_H 	H 	0.58474	0.20379	0.41526	0.03
Mof_H 	H 	0.41526	0.20379	0.58474	0.047
Mof_H 	H 	0.39494	0.07132	0.64617	0.115
Mof_H 	H 	0.41526	0.79621	0.41526	0.03
Mof_H 	H 	0.58474	0.58474	0.79621	0.03
Mof_H 	H 	0.41526	0.58474	0.20379	0.046
Mof_H 	H 	0.39494	0.64617	0.07132	0.112
Mof_H 	H 	0.58474	0.41526	0.20379	0.03
Mof_H 	H 	0.41526	0.41526	0.79621	0.054
Mof_H 	H 	0.39911	0.44022	0.01506	0.121
Mof_C 	C 	0.8303	0.5443	0.5443	0.01
Mof_C 	C 	0.9112	0.5451	0.5451	0.097
Mof_C 	C 	0.1697	0.4557	0.5443	0.012
Mof_C 	C 	0.0888	0.4549	0.5451	0.104
Mof_C 	C 	0.1697	0.5443	0.4557	0.07
Mof_C 	C 	0.0888	0.5451	0.4549	-0.068
Mof_C 	C 	0.8303	0.4557	0.4557	0.071
Mof_C 	C 	0.9112	0.4549	0.4549	-0.071
Mof_C 	C 	0.5443	0.8303	0.5443	0.011
Mof_C 	C 	0.5451	0.9112	0.5451	0.106
Mof_C 	C 	0.5443	0.1697	0.4557	0.072
Mof_C 	C 	0.5451	0.0888	0.4549	-0.072
Mof_C 	C 	0.4557	0.1697	0.5443	0.011
Mof_C 	C 	0.4549	0.0888	0.5451	0.093
Mof_C 	C 	0.4557	0.8303	0.4557	0.068
Mof_C 	C 	0.4549	0.9112	0.4549	-0.064
Mof_C 	C 	0.5443	0.5443	0.8303	0.076
Mof_C 	C 	0.5451	0.5451	0.9112	-0.073
Mof_C 	C 	0.4557	0.5443	0.1697	0.002
Mof_C 	C 	0.4549	0.5451	0.0888	0.101
Mof_C 	C 	0.5443	0.4557	0.1697	0.063
Mof_C 	C 	0.5451	0.4549	0.0888	-0.064
Mof_C 	C 	0.4557	0.4557	0.8303	0.021
Mof_C 	C 	0.4549	0.4549	0.9112	0.099
Mof_C 	C 	0.7115	0.5	0.5	0.43
Mof_C 	C 	0.7897	0.5	0.5	-0.186
Mof_C 	C 	0.9587	0.5	0.5	0.011
Mof_C 	C 	0.2885	0.5	0.5	0.43
Mof_C 	C 	0.2103	0.5	0.5	-0.185
Mof_C 	C 	0.0413	0.5	0.5	0.006
Mof_C 	C 	0.5	0.7115	0.5	0.429
Mof_C 	C 	0.5	0.7897	0.5	-0.184
Mof_C 	C 	0.5	0.9587	0.5	-0.003
Mof_C 	C 	0.5	0.2885	0.5	0.43
Mof_C 	C 	0.5	0.2103	0.5	-0.187
Mof_C 	C 	0.5	0.0413	0.5	0.012
Mof_C 	C 	0.5	0.5	0.7115	0.433
Mof_C 	C 	0.5	0.5	0.7897	-0.191
Mof_C 	C 	0.5	0.5	0.9587	0.019
Mof_C 	C 	0.5	0.5	0.2885	0.427
Mof_C 	C 	0.5	0.5	0.2103	-0.18
Mof_C 	C 	0.5	0.5	0.0413	-0.02
Mof_O 	O 	0.5	0.5	0.5	-0.964
Mof_O 	O 	0.6752	0.4538	0.4538	-0.511
Mof_O 	O 	0.959	0.5907	0.5907	-0.24
Mof_O 	O 	0.3248	0.5462	0.4538	-0.511
Mof_O 	O 	0.041	0.4093	0.5907	-0.239
Mof_O 	O 	0.3248	0.4538	0.5462	-0.509
Mof_O 	O 	0.6752	0.5462	0.5462	-0.51
Mof_O 	O 	0.4538	0.6752	0.4538	-0.511
Mof_O 	O 	0.5907	0.959	0.5907	-0.241
Mof_O 	O 	0.4538	0.3248	0.5462	-0.509
Mof_O 	O 	0.5462	0.3248	0.4538	-0.511
Mof_O 	O 	0.4093	0.041	0.5907	-0.24
Mof_O 	O 	0.5462	0.6752	0.5462	-0.51
Mof_O 	O 	0.4538	0.4538	0.6752	-0.509
Mof_O 	O 	0.5462	0.4538	0.3248	-0.511
Mof_O 	O 	0.4093	0.5907	0.041	-0.246
Mof_O 	O 	0.4538	0.5462	0.3248	-0.511
Mof_O 	O 	0.5462	0.5462	0.6752	-0.511
Mof_O 	O 	0.4093	0.4093	0.959	-0.23
Mof_H 	H 	0.05632	0.5862	0.4138	0.051
Mof_H 	H 	0.94368	0.4138	0.4138	0.053
Mof_H 	H 	0.5862	0.05632	0.4138	0.054
Mof_H 	H 	0.4138	0.94368	0.4138	0.051
Mof_H 	H 	0.5862	0.5862	0.94368	0.055
Mof_H 	H 	0.5862	0.4138	0.05632	0.047
_end
