# CIF file generated by openbabel 3.1.0, see https://openbabel.org
data_I
_chemical_name_common 'ACIBIY_clean'
_cell_length_a 15.205
_cell_length_b 18.005
_cell_length_c 21.5
_cell_angle_alpha 71.21
_cell_angle_beta 84.47
_cell_angle_gamma 67.15
_space_group_name_H-M_alt 'P 1'
_space_group_name_Hall 'P 1'
loop_
    _symmetry_equiv_pos_as_xyz
    x,y,z
loop_
    _atom_site_label
    _atom_site_type_symbol
    _atom_site_fract_x
    _atom_site_fract_y
    _atom_site_fract_z
    _atom_site_occupancy
    Co1      Co       0.52463    0.63577    0.73048    1.000
    Co2      Co       0.23781    0.34905    0.51690    1.000
    Co3      Co       0.14182    0.03117    0.60305    1.000
    Co4      Co       0.21963    0.17517    0.52077    1.000
    Co5      Co       0.63672    0.59260    0.60374    1.000
    Co6      Co       0.90477    0.01579    0.85030    1.000
    Co7      Co       0.69684    0.74029    0.06311    1.000
    Co8      Co       0.80882    0.69777    0.93635    1.000
    Co9      Co       0.44693    0.49087    0.81228    1.000
    Co10     Co       0.88610    0.84225    0.85437    1.000
    Co11     Co       0.02982    0.07364    0.72977    1.000
    Co12     Co       0.57117    0.68248    0.18358    1.000
    Co13     Co       0.33370    0.33328    0.66664    1.000
    Co14     Co       0.33350    0.83340    0.66690    1.000
    Co15     Co       0.66670    0.66663    0.83316    1.000
    Co16     Co       0.66640    0.16668    0.83342    1.000
    Co17     Co       0.47537    0.36423    0.26952    1.000
    Co18     Co       0.76219    0.65095    0.48310    1.000
    Co19     Co       0.85818    0.96883    0.39695    1.000
    Co20     Co       0.78037    0.82483    0.47923    1.000
    Co21     Co       0.36328    0.40740    0.39626    1.000
    Co22     Co       0.09523    0.98421    0.14970    1.000
    Co23     Co       0.30316    0.25971    0.93689    1.000
    Co24     Co       0.19118    0.30223    0.06365    1.000
    Co25     Co       0.55307    0.50913    0.18772    1.000
    Co26     Co       0.11390    0.15775    0.14563    1.000
    Co27     Co       0.97018    0.92636    0.27023    1.000
    Co28     Co       0.42883    0.31752    0.81642    1.000
    Co29     Co       0.66630    0.66672    0.33336    1.000
    Co30     Co       0.66650    0.16660    0.33310    1.000
    Co31     Co       0.33330    0.33337    0.16684    1.000
    Co32     Co       0.33360    0.83332    0.16658    1.000
    Co33     Co       0.00000    0.00000    0.00000    1.000
    Co34     Co       0.00000    0.50000    0.00000    1.000
    Co35     Co       0.00000    0.00000    0.50000    1.000
    Co36     Co       0.00000    0.50000    0.50000    1.000
    H1       H        0.78970    0.61110    0.67740    1.000
    H2       H        0.58380    0.55140    0.91780    1.000
    H3       H        0.74840    0.78310    0.75070    1.000
    H4       H        0.60830    0.35080    0.90750    1.000
    H5       H        0.18370    0.80120    0.62080    1.000
    H6       H        0.42390    0.68580    0.55710    1.000
    H7       H        0.35420    0.53720    0.67660    1.000
    H8       H        0.71440    0.99180    0.75920    1.000
    H9       H        0.93500    0.31740    0.11430    1.000
    H10      H        0.48530    0.86270    0.71820    1.000
    H11      H        0.54420    0.72730    0.98630    1.000
    H12      H        0.84230    0.46550    0.96280    1.000
    H13      H        0.31380    0.12970    0.65890    1.000
    H14      H        0.60940    0.23250    0.69730    1.000
    H15      H        0.75460    0.55210    0.07930    1.000
    H16      H        0.40060    0.01170    0.53900    1.000
    H17      H        0.83870    0.23460    0.70670    1.000
    H18      H        0.24740    0.96920    0.78070    1.000
    H19      H        0.71690    0.93740    0.93260    1.000
    H20      H        0.72260    0.10620    0.97170    1.000
    H21      H        0.61190    0.39990    0.73160    1.000
    H22      H        0.05690    0.43670    0.64010    1.000
    H23      H        0.17700    0.56570    0.37890    1.000
    H24      H        0.08750    0.88140    0.75050    1.000
    H25      H        0.49630    0.09780    0.95740    1.000
    H26      H        0.04750    0.26980    0.59680    1.000
    H27      H        0.90570    0.64530    0.11170    1.000
    H28      H        0.26230    0.65950    0.78310    1.000
    H29      H        0.43290    0.21070    0.42100    1.000
    H30      H        0.02130    0.20510    0.00850    1.000
    H31      H        0.11090    0.06530    0.89730    1.000
    H32      H        0.22650    0.26080    0.77180    1.000
    H33      H        0.43520    0.41030    0.55980    1.000
    H34      H        0.07340    0.12150    0.41810    1.000
    H35      H        0.04730    0.31480    0.43050    1.000
    H36      H        0.88070    0.05200    0.65430    1.000
    H37      H        0.21030    0.38890    0.32260    1.000
    H38      H        0.41620    0.44860    0.08220    1.000
    H39      H        0.25160    0.21690    0.24930    1.000
    H40      H        0.39170    0.64920    0.09250    1.000
    H41      H        0.81630    0.19880    0.37920    1.000
    H42      H        0.57610    0.31420    0.44290    1.000
    H43      H        0.64580    0.46280    0.32340    1.000
    H44      H        0.28560    0.00820    0.24080    1.000
    H45      H        0.06500    0.68260    0.88570    1.000
    H46      H        0.51470    0.13730    0.28180    1.000
    H47      H        0.45580    0.27270    0.01370    1.000
    H48      H        0.15770    0.53450    0.03720    1.000
    H49      H        0.68620    0.87030    0.34110    1.000
    H50      H        0.39060    0.76750    0.30270    1.000
    H51      H        0.24540    0.44790    0.92070    1.000
    H52      H        0.59940    0.98830    0.46100    1.000
    H53      H        0.16130    0.76540    0.29330    1.000
    H54      H        0.75260    0.03080    0.21930    1.000
    H55      H        0.28310    0.06260    0.06740    1.000
    H56      H        0.27740    0.89380    0.02830    1.000
    H57      H        0.38810    0.60010    0.26840    1.000
    H58      H        0.94310    0.56330    0.35990    1.000
    H59      H        0.82300    0.43430    0.62110    1.000
    H60      H        0.91250    0.11860    0.24950    1.000
    H61      H        0.50370    0.90220    0.04260    1.000
    H62      H        0.95250    0.73020    0.40320    1.000
    H63      H        0.09430    0.35470    0.88830    1.000
    H64      H        0.73770    0.34050    0.21690    1.000
    H65      H        0.56710    0.78930    0.57900    1.000
    H66      H        0.97870    0.79490    0.99150    1.000
    H67      H        0.88910    0.93470    0.10270    1.000
    H68      H        0.77350    0.73920    0.22820    1.000
    H69      H        0.56480    0.58970    0.44020    1.000
    H70      H        0.92660    0.87850    0.58190    1.000
    H71      H        0.95270    0.68520    0.56950    1.000
    H72      H        0.11930    0.94800    0.34570    1.000
    C1       C        0.73890    0.61940    0.70560    1.000
    C2       C        0.55800    0.55520    0.87890    1.000
    C3       C        0.77470    0.77880    0.78960    1.000
    C4       C        0.59290    0.32180    0.88420    1.000
    C5       C        0.15450    0.85990    0.60420    1.000
    C6       C        0.42540    0.70040    0.59470    1.000
    C7       C        0.36100    0.48080    0.69440    1.000
    C8       C        0.73410    0.01850    0.78250    1.000
    C9       C        0.97980    0.34030    0.09470    1.000
    C10      C        0.51650    0.80400    0.73160    1.000
    C11      C        0.59630    0.71500    0.95960    1.000
    C12      C        0.81890    0.52360    0.94150    1.000
    C13      C        0.30680    0.18620    0.64090    1.000
    C14      C        0.54850    0.25600    0.71230    1.000
    C15      C        0.70620    0.56170    0.10920    1.000
    C16      C        0.35930    0.99040    0.56670    1.000
    C17      C        0.82510    0.19680    0.74360    1.000
    C18      C        0.24520    0.96100    0.74040    1.000
    C19      C        0.72630    0.88050    0.95120    1.000
    C20      C        0.78290    0.07960    0.95740    1.000
    C21      C        0.60490    0.45650    0.71420    1.000
    C22      C        0.11730    0.41240    0.62480    1.000
    C23      C        0.16150    0.52680    0.41380    1.000
    C24      C        0.03760    0.89240    0.77910    1.000
    C25      C        0.51010    0.13640    0.92130    1.000
    C26      C        0.05880    0.21260    0.61650    1.000
    C27      C        0.90490    0.63330    0.07280    1.000
    C28      C        0.30860    0.67970    0.76210    1.000
    C29      C        0.37800    0.22390    0.44520    1.000
    C30      C        0.02750    0.14880    0.02650    1.000
    C31      C        0.07060    0.06220    0.86910    1.000
    C32      C        0.26480    0.26790    0.79900    1.000
    C33      C        0.39970    0.40000    0.53300    1.000
    C34      C        0.10540    0.11290    0.45610    1.000
    C35      C        0.06730    0.34540    0.44960    1.000
    C36      C        0.93020    0.04600    0.62500    1.000
    C37      C        0.26110    0.38060    0.29440    1.000
    C38      C        0.44200    0.44480    0.12110    1.000
    C39      C        0.22530    0.22120    0.21040    1.000
    C40      C        0.40710    0.67820    0.11580    1.000
    C41      C        0.84550    0.14010    0.39580    1.000
    C42      C        0.57460    0.29960    0.40530    1.000
    C43      C        0.63900    0.51920    0.30560    1.000
    C44      C        0.26590    0.98150    0.21750    1.000
    C45      C        0.02020    0.65970    0.90530    1.000
    C46      C        0.48350    0.19600    0.26840    1.000
    C47      C        0.40370    0.28500    0.04040    1.000
    C48      C        0.18110    0.47640    0.05850    1.000
    C49      C        0.69320    0.81380    0.35910    1.000
    C50      C        0.45150    0.74400    0.28770    1.000
    C51      C        0.29380    0.43830    0.89080    1.000
    C52      C        0.64070    0.00960    0.43330    1.000
    C53      C        0.17490    0.80320    0.25640    1.000
    C54      C        0.75480    0.03900    0.25960    1.000
    C55      C        0.27370    0.11950    0.04880    1.000
    C56      C        0.21710    0.92040    0.04260    1.000
    C57      C        0.39510    0.54350    0.28580    1.000
    C58      C        0.88270    0.58760    0.37520    1.000
    C59      C        0.83850    0.47320    0.58620    1.000
    C60      C        0.96240    0.10760    0.22090    1.000
    C61      C        0.48990    0.86360    0.07870    1.000
    C62      C        0.94120    0.78740    0.38350    1.000
    C63      C        0.09510    0.36670    0.92720    1.000
    C64      C        0.69140    0.32030    0.23790    1.000
    C65      C        0.62200    0.77610    0.55480    1.000
    C66      C        0.97250    0.85120    0.97350    1.000
    C67      C        0.92940    0.93780    0.13090    1.000
    C68      C        0.73520    0.73210    0.20100    1.000
    C69      C        0.60030    0.60000    0.46700    1.000
    C70      C        0.89460    0.88710    0.54390    1.000
    C71      C        0.93270    0.65460    0.55040    1.000
    C72      C        0.06980    0.95400    0.37500    1.000
    O1       O        0.01330    0.42030    0.44500    1.000
    O2       O        0.31140    0.90670    0.72840    1.000
    O3       O        0.35440    0.76240    0.60200    1.000
    O4       O        0.33050    0.45190    0.65970    1.000
    O5       O        0.99700    0.11810    0.99400    1.000
    O6       O        0.67920    0.08730    0.77910    1.000
    O7       O        0.33690    0.21450    0.67550    1.000
    O8       O        0.65240    0.24890    0.88830    1.000
    O9       O        0.94850    0.42010    0.07030    1.000
    O10      O        0.97600    0.57220    0.06190    1.000
    O11      O        0.38890    0.91360    0.59680    1.000
    O12      O        0.74990    0.62960    0.75770    1.000
    O13      O        0.91300    0.03710    0.57510    1.000
    O14      O        0.74940    0.22330    0.76710    1.000
    O15      O        0.58210    0.70190    0.90820    1.000
    O16      O        0.28110    0.75520    0.73780    1.000
    O17      O        0.08280    0.55540    0.43500    1.000
    O18      O        0.34620    0.29520    0.45620    1.000
    O19      O        0.58560    0.11120    0.89870    1.000
    O20      O        0.67150    0.50380    0.13350    1.000
    O21      O        0.85190    0.04630    0.99740    1.000
    O22      O        0.89040    0.12150    0.76370    1.000
    O23      O        0.33850    0.16920    0.46570    1.000
    O24      O        0.74910    0.55370    0.90200    1.000
    O25      O        0.68970    0.85800    0.00680    1.000
    O26      O        0.58650    0.78040    0.76310    1.000
    O27      O        0.01500    0.96220    0.79060    1.000
    O28      O        0.24840    0.24840    0.85800    1.000
    O29      O        0.08100    0.88900    0.56780    1.000
    O30      O        0.68060    0.62920    0.12220    1.000
    O31      O        0.51130    0.50990    0.88240    1.000
    O32      O        0.02140    0.19280    0.67080    1.000
    O33      O        0.00420    0.83650    0.79960    1.000
    O34      O        0.18570    0.37990    0.66400    1.000
    O35      O        0.16940    0.01080    0.70310    1.000
    O36      O        0.48170    0.28740    0.67060    1.000
    O37      O        0.83380    0.67830    0.03410    1.000
    O38      O        0.49880    0.65530    0.63260    1.000
    O39      O        0.22530    0.45400    0.43070    1.000
    O40      O        0.41780    0.41740    0.47530    1.000
    O41      O        0.82030    0.82260    0.78530    1.000
    O42      O        0.44340    0.21260    0.90150    1.000
    O43      O        0.08510    0.08400    0.80950    1.000
    O44      O        0.15500    0.15600    0.45190    1.000
    O45      O        0.09520    0.05820    0.50850    1.000
    O46      O        0.64310    0.47590    0.66200    1.000
    O47      O        0.79050    0.07920    0.89680    1.000
    O48      O        0.14800    0.30980    0.47940    1.000
    O49      O        0.75940    0.72770    0.84190    1.000
    O50      O        0.67120    0.71340    0.97890    1.000
    O51      O        0.57250    0.60590    0.82600    1.000
    O52      O        0.11040    0.16220    0.58620    1.000
    O53      O        0.06840    0.10640    0.08540    1.000
    O54      O        0.00740    0.04850    0.64460    1.000
    O55      O        0.39350    0.62170    0.76370    1.000
    O56      O        0.26760    0.22350    0.58410    1.000
    O57      O        0.32860    0.29710    0.77010    1.000
    O58      O        0.65960    0.61960    0.68820    1.000
    O59      O        0.19320    0.90270    0.62090    1.000
    O60      O        0.51680    0.35910    0.85310    1.000
    O61      O        0.33830    0.36920    0.56220    1.000
    O62      O        0.81620    0.97300    0.81250    1.000
    O63      O        0.12300    0.41520    0.56410    1.000
    O64      O        0.86060    0.56700    0.95470    1.000
    O65      O        0.54430    0.25200    0.77180    1.000
    O66      O        0.27470    0.04230    0.57170    1.000
    O67      O        0.55770    0.50440    0.74670    1.000
    O68      O        0.00390    0.03580    0.89500    1.000
    O69      O        0.47270    0.76620    0.71130    1.000
    O70      O        0.05910    0.29120    0.09570    1.000
    O71      O        0.40040    0.44210    0.75110    1.000
    O72      O        0.77610    0.82820    0.91900    1.000
    O73      O        0.98670    0.57970    0.55500    1.000
    O74      O        0.68860    0.09330    0.27160    1.000
    O75      O        0.64560    0.23760    0.39800    1.000
    O76      O        0.66950    0.54810    0.34030    1.000
    O77      O        0.00300    0.88190    0.00600    1.000
    O78      O        0.32080    0.91270    0.22090    1.000
    O79      O        0.66310    0.78550    0.32450    1.000
    O80      O        0.34760    0.75110    0.11170    1.000
    O81      O        0.05150    0.57990    0.92970    1.000
    O82      O        0.02400    0.42780    0.93810    1.000
    O83      O        0.61110    0.08640    0.40320    1.000
    O84      O        0.25010    0.37040    0.24230    1.000
    O85      O        0.08700    0.96290    0.42490    1.000
    O86      O        0.25060    0.77670    0.23290    1.000
    O87      O        0.41790    0.29810    0.09180    1.000
    O88      O        0.71890    0.24480    0.26220    1.000
    O89      O        0.91720    0.44460    0.56500    1.000
    O90      O        0.65380    0.70480    0.54380    1.000
    O91      O        0.41440    0.88880    0.10130    1.000
    O92      O        0.32850    0.49620    0.86650    1.000
    O93      O        0.14810    0.95370    0.00260    1.000
    O94      O        0.10960    0.87850    0.23630    1.000
    O95      O        0.66150    0.83080    0.53430    1.000
    O96      O        0.25090    0.44630    0.09800    1.000
    O97      O        0.31030    0.14200    0.99320    1.000
    O98      O        0.41350    0.21960    0.23690    1.000
    O99      O        0.98500    0.03780    0.20940    1.000
    O100     O        0.75160    0.75160    0.14200    1.000
    O101     O        0.91900    0.11100    0.43220    1.000
    O102     O        0.31940    0.37080    0.87780    1.000
    O103     O        0.48870    0.49010    0.11760    1.000
    O104     O        0.97860    0.80720    0.32920    1.000
    O105     O        0.99580    0.16350    0.20040    1.000
    O106     O        0.81430    0.62010    0.33600    1.000
    O107     O        0.83060    0.98920    0.29690    1.000
    O108     O        0.51830    0.71260    0.32940    1.000
    O109     O        0.16620    0.32170    0.96590    1.000
    O110     O        0.50120    0.34470    0.36740    1.000
    O111     O        0.77470    0.54600    0.56930    1.000
    O112     O        0.58220    0.58260    0.52470    1.000
    O113     O        0.17970    0.17740    0.21470    1.000
    O114     O        0.55660    0.78740    0.09850    1.000
    O115     O        0.91490    0.91600    0.19050    1.000
    O116     O        0.84500    0.84400    0.54810    1.000
    O117     O        0.90480    0.94180    0.49150    1.000
    O118     O        0.35690    0.52410    0.33800    1.000
    O119     O        0.20950    0.92080    0.10320    1.000
    O120     O        0.85200    0.69020    0.52060    1.000
    O121     O        0.24060    0.27230    0.15810    1.000
    O122     O        0.32880    0.28660    0.02110    1.000
    O123     O        0.42750    0.39410    0.17400    1.000
    O124     O        0.88960    0.83780    0.41380    1.000
    O125     O        0.93160    0.89360    0.91460    1.000
    O126     O        0.99260    0.95150    0.35540    1.000
    O127     O        0.60650    0.37830    0.23630    1.000
    O128     O        0.73240    0.77650    0.41590    1.000
    O129     O        0.67140    0.70290    0.22990    1.000
    O130     O        0.34040    0.38040    0.31180    1.000
    O131     O        0.80680    0.09730    0.37910    1.000
    O132     O        0.48320    0.64090    0.14690    1.000
    O133     O        0.66170    0.63080    0.43780    1.000
    O134     O        0.18380    0.02700    0.18750    1.000
    O135     O        0.87700    0.58480    0.43590    1.000
    O136     O        0.13940    0.43300    0.04530    1.000
    O137     O        0.45570    0.74800    0.22820    1.000
    O138     O        0.72530    0.95770    0.42830    1.000
    O139     O        0.44230    0.49560    0.25330    1.000
    O140     O        0.99610    0.96420    0.10500    1.000
    O141     O        0.52730    0.23380    0.28870    1.000
    O142     O        0.94090    0.70880    0.90430    1.000
    O143     O        0.59960    0.55790    0.24890    1.000
    O144     O        0.22390    0.17180    0.08100    1.000
