data_functionalizedCrystal
_audit_creation_method	'EQeq! by Chris Wilmer'
_symmetry_space_group_name_H-M	'P1'
_symmetry_Int_Tables_number	1
_symmetry_cell_setting	triclinic
loop_
_symmetry_equiv_pos_as_xyz
  x,y,z
_cell_length_a	11.609
_cell_length_b	11.609
_cell_length_c	11.609
_cell_angle_alpha	90
_cell_angle_beta	90
_cell_angle_gamma	90
loop_
_atom_site_label
_atom_site_type_symbol
_atom_site_fract_x
_atom_site_fract_y
_atom_site_fract_z
_atom_site_charge
Mof_Cu	Cu	-0	0	-0	0.689
Mof_Cu	Cu	-6.19274e-33	0.5	0.5	0.792
Mof_Cu	Cu	0.5	-4.03372e-33	0.5	0.791
Mof_Cu	Cu	0.5	0.5	-0	0.791
Mof_Zn	Zn	0.25	0.25	0.25	1.113
Mof_Zn	Zn	0.75	0.75	0.25	1.14
Mof_Zn	Zn	0.75	0.25	0.75	1.14
Mof_Zn	Zn	0.25	0.75	0.75	1.14
Mof_C 	C 	0.0933	0.0933	0.0933	-0.389
Mof_N 	N 	0.1471	0.1471	0.1471	-0.271
Mof_C 	C 	0.0933	0.5933	0.5933	-0.274
Mof_N 	N 	0.1471	0.6471	0.6471	-0.253
Mof_C 	C 	0.5933	0.0933	0.5933	-0.274
Mof_N 	N 	0.6471	0.1471	0.6471	-0.253
Mof_C 	C 	0.5933	0.5933	0.0933	-0.274
Mof_N 	N 	0.6471	0.6471	0.1471	-0.253
Mof_C 	C 	0.9067	0.9067	0.0933	-0.121
Mof_N 	N 	0.8529	0.8529	0.1471	-0.27
Mof_C 	C 	0.9067	0.4067	0.5933	-0.15
Mof_N 	N 	0.8529	0.3529	0.6471	-0.263
Mof_C 	C 	0.4067	0.9067	0.5933	-0.15
Mof_N 	N 	0.3529	0.8529	0.6471	-0.263
Mof_C 	C 	0.4067	0.4067	0.0933	-0.297
Mof_N 	N 	0.3529	0.3529	0.1471	-0.271
Mof_C 	C 	0.9067	0.0933	0.9067	-0.121
Mof_N 	N 	0.8529	0.1471	0.8529	-0.27
Mof_C 	C 	0.9067	0.5933	0.4067	-0.15
Mof_N 	N 	0.8529	0.6471	0.3529	-0.263
Mof_C 	C 	0.4067	0.0933	0.4067	-0.297
Mof_N 	N 	0.3529	0.1471	0.3529	-0.271
Mof_C 	C 	0.4067	0.5933	0.9067	-0.15
Mof_N 	N 	0.3529	0.6471	0.8529	-0.263
Mof_C 	C 	0.0933	0.9067	0.9067	-0.121
Mof_N 	N 	0.1471	0.8529	0.8529	-0.27
Mof_C 	C 	0.0933	0.4067	0.4067	-0.297
Mof_N 	N 	0.1471	0.3529	0.3529	-0.271
Mof_C 	C 	0.5933	0.9067	0.4067	-0.15
Mof_N 	N 	0.6471	0.8529	0.3529	-0.263
Mof_C 	C 	0.5933	0.4067	0.9067	-0.15
Mof_N 	N 	0.6471	0.3529	0.8529	-0.263
_end
