# CIF file generated by openbabel 3.1.0, see https://openbabel.org
data_I
_chemical_name_common 'image0'
_cell_length_a 8.116
_cell_length_b 8.116
_cell_length_c 14.721
_cell_angle_alpha 90
_cell_angle_beta 90
_cell_angle_gamma 90
_space_group_name_H-M_alt 'P 1'
_space_group_name_Hall 'P 1'
loop_
    _symmetry_equiv_pos_as_xyz
    x,y,z
loop_
    _atom_site_label
    _atom_site_type_symbol
    _atom_site_fract_x
    _atom_site_fract_y
    _atom_site_fract_z
    _atom_site_occupancy
    Cd1      Cd       0.00000    0.25000    0.37500    1.000
    Cd2      Cd       0.50000    0.75000    0.87500    1.000
    Cd3      Cd       0.00000    0.75000    0.62500    1.000
    Cd4      Cd       0.50000    0.25000    0.12500    1.000
    N1       N        0.00000    0.45150    0.47300    1.000
    N2       N        0.50000    0.95150    0.97300    1.000
    N3       N        0.50000    0.54850    0.97300    1.000
    N4       N        0.00000    0.04850    0.47300    1.000
    N5       N        0.79850    0.75000    0.72300    1.000
    N6       N        0.70150    0.25000    0.22300    1.000
    N7       N        0.50000    0.45150    0.02700    1.000
    N8       N        0.00000    0.95150    0.52700    1.000
    N9       N        0.00000    0.54850    0.52700    1.000
    N10      N        0.50000    0.04850    0.02700    1.000
    N11      N        0.70150    0.75000    0.77700    1.000
    N12      N        0.79850    0.25000    0.27700    1.000
    N13      N        0.20150    0.25000    0.27700    1.000
    N14      N        0.29850    0.75000    0.77700    1.000
    N15      N        0.29850    0.25000    0.22300    1.000
    N16      N        0.20150    0.75000    0.72300    1.000
