data_functionalizedCrystal
_audit_creation_method	'EQeq! by Chris Wilmer'
_symmetry_space_group_name_H-M	'P1'
_symmetry_Int_Tables_number	1
_symmetry_cell_setting	triclinic
loop_
_symmetry_equiv_pos_as_xyz
  x,y,z
_cell_length_a	18.4456
_cell_length_b	18.4456
_cell_length_c	39.5369
_cell_angle_alpha	90
_cell_angle_beta	90
_cell_angle_gamma	120
loop_
_atom_site_label
_atom_site_type_symbol
_atom_site_fract_x
_atom_site_fract_y
_atom_site_fract_z
_atom_site_charge
Mof_Cu	Cu	0.5245	0.049	0.47266	0.91
Mof_Cu	Cu	0.5245	0.4755	0.47266	0.91
Mof_Cu	Cu	0.951	0.4755	0.47266	0.91
Mof_Cu	Cu	0.4755	0.951	0.97266	0.91
Mof_Cu	Cu	0.4755	0.5245	0.97266	0.91
Mof_Cu	Cu	0.049	0.5245	0.97266	0.91
Mof_Cu	Cu	0.4755	0.951	0.52734	0.91
Mof_Cu	Cu	0.049	0.5245	0.52734	0.91
Mof_Cu	Cu	0.4755	0.5245	0.52734	0.91
Mof_Cu	Cu	0.5245	0.049	0.02734	0.91
Mof_Cu	Cu	0.951	0.4755	0.02734	0.91
Mof_Cu	Cu	0.5245	0.4755	0.02734	0.91
Mof_Cu	Cu	0.06242	0.93759	0.75	0.948
Mof_Cu	Cu	0.87517	0.93759	0.75	0.949
Mof_Cu	Cu	0.06242	0.12484	0.75	0.949
Mof_Cu	Cu	0.93758	0.06241	0.25	0.948
Mof_Cu	Cu	0.12483	0.06241	0.25	0.949
Mof_Cu	Cu	0.93758	0.87516	0.25	0.949
Mof_H 	H 	0.367	0.0741	0.5838	0.053
Mof_H 	H 	0.2191	0.2164	0.6695	0.011
Mof_H 	H 	0.7071	0.633	0.5838	0.052
Mof_H 	H 	0.9973	0.7809	0.6695	0.012
Mof_H 	H 	0.9259	0.2929	0.5838	0.053
Mof_H 	H 	0.7836	0.0027	0.6695	0.012
Mof_H 	H 	0.633	0.9259	0.0838	0.053
Mof_H 	H 	0.7809	0.7836	0.1695	0.011
Mof_H 	H 	0.2929	0.367	0.0838	0.052
Mof_H 	H 	0.0027	0.2191	0.1695	0.012
Mof_H 	H 	0.0741	0.7071	0.0838	0.053
Mof_H 	H 	0.2164	0.9973	0.1695	0.012
Mof_H 	H 	0.2929	0.9259	0.4162	0.053
Mof_H 	H 	0.0027	0.7836	0.3305	0.012
Mof_H 	H 	0.0741	0.367	0.4162	0.053
Mof_H 	H 	0.2164	0.2191	0.3305	0.011
Mof_H 	H 	0.633	0.7071	0.4162	0.052
Mof_H 	H 	0.7809	0.9973	0.3305	0.012
Mof_H 	H 	0.7071	0.0741	0.9162	0.053
Mof_H 	H 	0.9973	0.2164	0.8305	0.012
Mof_H 	H 	0.9259	0.633	0.9162	0.053
Mof_H 	H 	0.7836	0.7809	0.8305	0.011
Mof_H 	H 	0.367	0.2929	0.9162	0.052
Mof_H 	H 	0.2191	0.0027	0.8305	0.012
Mof_H 	H 	0.633	0.9259	0.4162	0.053
Mof_H 	H 	0.7809	0.7836	0.3305	0.011
Mof_H 	H 	0.2929	0.367	0.4162	0.052
Mof_H 	H 	0.0027	0.2191	0.3305	0.012
Mof_H 	H 	0.0741	0.7071	0.4162	0.053
Mof_H 	H 	0.2164	0.9973	0.3305	0.012
Mof_H 	H 	0.367	0.0741	0.9162	0.053
Mof_H 	H 	0.2191	0.2164	0.8305	0.011
Mof_H 	H 	0.7071	0.633	0.9162	0.052
Mof_H 	H 	0.9973	0.7809	0.8305	0.012
Mof_H 	H 	0.9259	0.2929	0.9162	0.053
Mof_H 	H 	0.7836	0.0027	0.8305	0.012
Mof_H 	H 	0.7071	0.0741	0.5838	0.053
Mof_H 	H 	0.9973	0.2164	0.6695	0.012
Mof_H 	H 	0.9259	0.633	0.5838	0.053
Mof_H 	H 	0.7836	0.7809	0.6695	0.011
Mof_H 	H 	0.367	0.2929	0.5838	0.052
Mof_H 	H 	0.2191	0.0027	0.6695	0.012
Mof_H 	H 	0.2929	0.9259	0.0838	0.053
Mof_H 	H 	0.0027	0.7836	0.1695	0.012
Mof_H 	H 	0.0741	0.367	0.0838	0.053
Mof_H 	H 	0.2164	0.2191	0.1695	0.011
Mof_H 	H 	0.633	0.7071	0.0838	0.052
Mof_H 	H 	0.7809	0.9973	0.1695	0.012
Mof_H 	H 	0.4717	0.23585	0.5062	0.046
Mof_H 	H 	0.76415	0.5283	0.5062	0.046
Mof_H 	H 	0.76415	0.23585	0.5062	0.046
Mof_H 	H 	0.5283	0.76415	0.0062	0.046
Mof_H 	H 	0.23585	0.4717	0.0062	0.046
Mof_H 	H 	0.23585	0.76415	0.0062	0.046
Mof_H 	H 	0.23585	0.76415	0.4938	0.046
Mof_H 	H 	0.23585	0.4717	0.4938	0.046
Mof_H 	H 	0.5283	0.76415	0.4938	0.046
Mof_H 	H 	0.76415	0.23585	0.9938	0.046
Mof_H 	H 	0.76415	0.5283	0.9938	0.046
Mof_H 	H 	0.4717	0.23585	0.9938	0.046
Mof_C 	C 	0.45	0.0911	0.52687	0.378
Mof_C 	C 	0.4236	0.146	0.5428	-0.111
Mof_C 	C 	0.3807	0.1255	0.57317	0.023
Mof_C 	C 	0.2364	0.1803	0.65989	0.14
Mof_C 	C 	0.6411	0.55	0.52687	0.378
Mof_C 	C 	0.7224	0.5764	0.5428	-0.111
Mof_C 	C 	0.7448	0.6193	0.57317	0.023
Mof_C 	C 	0.9439	0.7636	0.65989	0.14
Mof_C 	C 	0.9089	0.3589	0.52687	0.378
Mof_C 	C 	0.854	0.2776	0.5428	-0.111
Mof_C 	C 	0.8745	0.2552	0.57317	0.023
Mof_C 	C 	0.8197	0.0561	0.65989	0.14
Mof_C 	C 	0.55	0.9089	0.02687	0.378
Mof_C 	C 	0.5764	0.854	0.0428	-0.111
Mof_C 	C 	0.6193	0.8745	0.07317	0.023
Mof_C 	C 	0.7636	0.8197	0.15989	0.14
Mof_C 	C 	0.3589	0.45	0.02687	0.378
Mof_C 	C 	0.2776	0.4236	0.0428	-0.111
Mof_C 	C 	0.2552	0.3807	0.07317	0.023
Mof_C 	C 	0.0561	0.2364	0.15989	0.14
Mof_C 	C 	0.0911	0.6411	0.02687	0.378
Mof_C 	C 	0.146	0.7224	0.0428	-0.111
Mof_C 	C 	0.1255	0.7448	0.07317	0.023
Mof_C 	C 	0.1803	0.9439	0.15989	0.14
Mof_C 	C 	0.3589	0.9089	0.47313	0.378
Mof_C 	C 	0.2776	0.854	0.4572	-0.111
Mof_C 	C 	0.2552	0.8745	0.42683	0.023
Mof_C 	C 	0.0561	0.8197	0.34011	0.14
Mof_C 	C 	0.0911	0.45	0.47313	0.378
Mof_C 	C 	0.146	0.4236	0.4572	-0.111
Mof_C 	C 	0.1255	0.3807	0.42683	0.023
Mof_C 	C 	0.1803	0.2364	0.34011	0.14
Mof_C 	C 	0.55	0.6411	0.47313	0.378
Mof_C 	C 	0.5764	0.7224	0.4572	-0.111
Mof_C 	C 	0.6193	0.7448	0.42683	0.023
Mof_C 	C 	0.7636	0.9439	0.34011	0.14
Mof_C 	C 	0.6411	0.0911	0.97313	0.378
Mof_C 	C 	0.7224	0.146	0.9572	-0.111
Mof_C 	C 	0.7448	0.1255	0.92683	0.023
Mof_C 	C 	0.9439	0.1803	0.84011	0.14
Mof_C 	C 	0.9089	0.55	0.97313	0.378
Mof_C 	C 	0.854	0.5764	0.9572	-0.111
Mof_C 	C 	0.8745	0.6193	0.92683	0.023
Mof_C 	C 	0.8197	0.7636	0.84011	0.14
Mof_C 	C 	0.45	0.3589	0.97313	0.378
Mof_C 	C 	0.4236	0.2776	0.9572	-0.111
Mof_C 	C 	0.3807	0.2552	0.92683	0.023
Mof_C 	C 	0.2364	0.0561	0.84011	0.14
Mof_C 	C 	0.55	0.9089	0.47313	0.378
Mof_C 	C 	0.5764	0.854	0.4572	-0.111
Mof_C 	C 	0.6193	0.8745	0.42683	0.023
Mof_C 	C 	0.7636	0.8197	0.34011	0.14
Mof_C 	C 	0.3589	0.45	0.47313	0.378
Mof_C 	C 	0.2776	0.4236	0.4572	-0.111
Mof_C 	C 	0.2552	0.3807	0.42683	0.023
Mof_C 	C 	0.0561	0.2364	0.34011	0.14
Mof_C 	C 	0.0911	0.6411	0.47313	0.378
Mof_C 	C 	0.146	0.7224	0.4572	-0.111
Mof_C 	C 	0.1255	0.7448	0.42683	0.023
Mof_C 	C 	0.1803	0.9439	0.34011	0.14
Mof_C 	C 	0.45	0.0911	0.97313	0.378
Mof_C 	C 	0.4236	0.146	0.9572	-0.111
Mof_C 	C 	0.3807	0.1255	0.92683	0.023
Mof_C 	C 	0.2364	0.1803	0.84011	0.14
Mof_C 	C 	0.6411	0.55	0.97313	0.378
Mof_C 	C 	0.7224	0.5764	0.9572	-0.111
Mof_C 	C 	0.7448	0.6193	0.92683	0.023
Mof_C 	C 	0.9439	0.7636	0.84011	0.14
Mof_C 	C 	0.9089	0.3589	0.97313	0.378
Mof_C 	C 	0.854	0.2776	0.9572	-0.111
Mof_C 	C 	0.8745	0.2552	0.92683	0.023
Mof_C 	C 	0.8197	0.0561	0.84011	0.14
Mof_C 	C 	0.6411	0.0911	0.52687	0.378
Mof_C 	C 	0.7224	0.146	0.5428	-0.111
Mof_C 	C 	0.7448	0.1255	0.57317	0.023
Mof_C 	C 	0.9439	0.1803	0.65989	0.14
Mof_C 	C 	0.9089	0.55	0.52687	0.378
Mof_C 	C 	0.854	0.5764	0.5428	-0.111
Mof_C 	C 	0.8745	0.6193	0.57317	0.023
Mof_C 	C 	0.8197	0.7636	0.65989	0.14
Mof_C 	C 	0.45	0.3589	0.52687	0.378
Mof_C 	C 	0.4236	0.2776	0.5428	-0.111
Mof_C 	C 	0.3807	0.2552	0.57317	0.023
Mof_C 	C 	0.2364	0.0561	0.65989	0.14
Mof_C 	C 	0.3589	0.9089	0.02687	0.378
Mof_C 	C 	0.2776	0.854	0.0428	-0.111
Mof_C 	C 	0.2552	0.8745	0.07317	0.023
Mof_C 	C 	0.0561	0.8197	0.15989	0.14
Mof_C 	C 	0.0911	0.45	0.02687	0.378
Mof_C 	C 	0.146	0.4236	0.0428	-0.111
Mof_C 	C 	0.1255	0.3807	0.07317	0.023
Mof_C 	C 	0.1803	0.2364	0.15989	0.14
Mof_C 	C 	0.55	0.6411	0.02687	0.378
Mof_C 	C 	0.5764	0.7224	0.0428	-0.111
Mof_C 	C 	0.6193	0.7448	0.07317	0.023
Mof_C 	C 	0.7636	0.9439	0.15989	0.14
Mof_C 	C 	0.4438	0.2219	0.52743	0.055
Mof_C 	C 	0.3572	0.1786	0.58846	-0.041
Mof_C 	C 	0.3056	0.1528	0.6198	0.142
Mof_C 	C 	0.2097	0.10485	0.67482	-0.224
Mof_C 	C 	0.1525	0.07625	0.70352	0.503
Mof_C 	C 	0.7781	0.5562	0.52743	0.055
Mof_C 	C 	0.8214	0.6428	0.58846	-0.041
Mof_C 	C 	0.8472	0.6944	0.6198	0.142
Mof_C 	C 	0.89515	0.7903	0.67482	-0.224
Mof_C 	C 	0.92375	0.8475	0.70352	0.503
Mof_C 	C 	0.7781	0.2219	0.52743	0.055
Mof_C 	C 	0.8214	0.1786	0.58846	-0.041
Mof_C 	C 	0.8472	0.1528	0.6198	0.142
Mof_C 	C 	0.89515	0.10485	0.67482	-0.224
Mof_C 	C 	0.92375	0.07625	0.70352	0.503
Mof_C 	C 	0.5562	0.7781	0.02743	0.055
Mof_C 	C 	0.6428	0.8214	0.08846	-0.041
Mof_C 	C 	0.6944	0.8472	0.1198	0.142
Mof_C 	C 	0.7903	0.89515	0.17482	-0.224
Mof_C 	C 	0.8475	0.92375	0.20352	0.503
Mof_C 	C 	0.2219	0.4438	0.02743	0.055
Mof_C 	C 	0.1786	0.3572	0.08846	-0.041
Mof_C 	C 	0.1528	0.3056	0.1198	0.142
Mof_C 	C 	0.10485	0.2097	0.17482	-0.224
Mof_C 	C 	0.07625	0.1525	0.20352	0.503
Mof_C 	C 	0.2219	0.7781	0.02743	0.055
Mof_C 	C 	0.1786	0.8214	0.08846	-0.041
Mof_C 	C 	0.1528	0.8472	0.1198	0.142
Mof_C 	C 	0.10485	0.89515	0.17482	-0.224
Mof_C 	C 	0.07625	0.92375	0.20352	0.503
Mof_C 	C 	0.2219	0.7781	0.47257	0.055
Mof_C 	C 	0.1786	0.8214	0.41154	-0.041
Mof_C 	C 	0.1528	0.8472	0.3802	0.142
Mof_C 	C 	0.10485	0.89515	0.32518	-0.224
Mof_C 	C 	0.07625	0.92375	0.29648	0.503
Mof_C 	C 	0.2219	0.4438	0.47257	0.055
Mof_C 	C 	0.1786	0.3572	0.41154	-0.041
Mof_C 	C 	0.1528	0.3056	0.3802	0.142
Mof_C 	C 	0.10485	0.2097	0.32518	-0.224
Mof_C 	C 	0.07625	0.1525	0.29648	0.503
Mof_C 	C 	0.5562	0.7781	0.47257	0.055
Mof_C 	C 	0.6428	0.8214	0.41154	-0.041
Mof_C 	C 	0.6944	0.8472	0.3802	0.142
Mof_C 	C 	0.7903	0.89515	0.32518	-0.224
Mof_C 	C 	0.8475	0.92375	0.29648	0.503
Mof_C 	C 	0.7781	0.2219	0.97257	0.055
Mof_C 	C 	0.8214	0.1786	0.91154	-0.041
Mof_C 	C 	0.8472	0.1528	0.8802	0.142
Mof_C 	C 	0.89515	0.10485	0.82518	-0.224
Mof_C 	C 	0.92375	0.07625	0.79648	0.503
Mof_C 	C 	0.7781	0.5562	0.97257	0.055
Mof_C 	C 	0.8214	0.6428	0.91154	-0.041
Mof_C 	C 	0.8472	0.6944	0.8802	0.142
Mof_C 	C 	0.89515	0.7903	0.82518	-0.224
Mof_C 	C 	0.92375	0.8475	0.79648	0.503
Mof_C 	C 	0.4438	0.2219	0.97257	0.055
Mof_C 	C 	0.3572	0.1786	0.91154	-0.041
Mof_C 	C 	0.3056	0.1528	0.8802	0.142
Mof_C 	C 	0.2097	0.10485	0.82518	-0.224
Mof_C 	C 	0.1525	0.07625	0.79648	0.503
Mof_N 	N 	0.2854	0.2068	0.63247	-0.149
Mof_N 	N 	0.9214	0.7146	0.63247	-0.149
Mof_N 	N 	0.7932	0.0786	0.63247	-0.149
Mof_N 	N 	0.7146	0.7932	0.13247	-0.149
Mof_N 	N 	0.0786	0.2854	0.13247	-0.149
Mof_N 	N 	0.2068	0.9214	0.13247	-0.149
Mof_N 	N 	0.0786	0.7932	0.36753	-0.149
Mof_N 	N 	0.2068	0.2854	0.36753	-0.149
Mof_N 	N 	0.7146	0.9214	0.36753	-0.149
Mof_N 	N 	0.9214	0.2068	0.86753	-0.149
Mof_N 	N 	0.7932	0.7146	0.86753	-0.149
Mof_N 	N 	0.2854	0.0786	0.86753	-0.149
Mof_N 	N 	0.7146	0.7932	0.36753	-0.149
Mof_N 	N 	0.0786	0.2854	0.36753	-0.149
Mof_N 	N 	0.2068	0.9214	0.36753	-0.149
Mof_N 	N 	0.2854	0.2068	0.86753	-0.149
Mof_N 	N 	0.9214	0.7146	0.86753	-0.149
Mof_N 	N 	0.7932	0.0786	0.86753	-0.149
Mof_N 	N 	0.9214	0.2068	0.63247	-0.149
Mof_N 	N 	0.7932	0.7146	0.63247	-0.149
Mof_N 	N 	0.2854	0.0786	0.63247	-0.149
Mof_N 	N 	0.0786	0.7932	0.13247	-0.149
Mof_N 	N 	0.2068	0.2854	0.13247	-0.149
Mof_N 	N 	0.7146	0.9214	0.13247	-0.149
Mof_O 	O 	0.48081	0.10943	0.49819	-0.414
Mof_O 	O 	0.4387	0.0274	0.54369	-0.402
Mof_O 	O 	0.1329	0.0086	0.71585	-0.462
Mof_O 	O 	0.62862	0.51919	0.49819	-0.414
Mof_O 	O 	0.5887	0.5613	0.54369	-0.402
Mof_O 	O 	0.8757	0.8671	0.71585	-0.463
Mof_O 	O 	0.89057	0.37138	0.49819	-0.414
Mof_O 	O 	0.9726	0.4113	0.54369	-0.402
Mof_O 	O 	0.9914	0.1243	0.71585	-0.461
Mof_O 	O 	0.51919	0.89057	0.99819	-0.414
Mof_O 	O 	0.5613	0.9726	0.04369	-0.402
Mof_O 	O 	0.8671	0.9914	0.21585	-0.462
Mof_O 	O 	0.37138	0.48081	0.99819	-0.414
Mof_O 	O 	0.4113	0.4387	0.04369	-0.402
Mof_O 	O 	0.1243	0.1329	0.21585	-0.463
Mof_O 	O 	0.10943	0.62862	0.99819	-0.414
Mof_O 	O 	0.0274	0.5887	0.04369	-0.402
Mof_O 	O 	0.0086	0.8757	0.21585	-0.461
Mof_O 	O 	0.37138	0.89057	0.50181	-0.414
Mof_O 	O 	0.4113	0.9726	0.45631	-0.402
Mof_O 	O 	0.1243	0.9914	0.28415	-0.461
Mof_O 	O 	0.10943	0.48081	0.50181	-0.414
Mof_O 	O 	0.0274	0.4387	0.45631	-0.402
Mof_O 	O 	0.0086	0.1329	0.28415	-0.462
Mof_O 	O 	0.51919	0.62862	0.50181	-0.414
Mof_O 	O 	0.5613	0.5887	0.45631	-0.402
Mof_O 	O 	0.8671	0.8757	0.28415	-0.463
Mof_O 	O 	0.62862	0.10943	0.00181	-0.414
Mof_O 	O 	0.5887	0.0274	0.95631	-0.402
Mof_O 	O 	0.8757	0.0086	0.78415	-0.461
Mof_O 	O 	0.89057	0.51919	0.00181	-0.414
Mof_O 	O 	0.9726	0.5613	0.95631	-0.402
Mof_O 	O 	0.9914	0.8671	0.78415	-0.462
Mof_O 	O 	0.48081	0.37138	0.00181	-0.414
Mof_O 	O 	0.4387	0.4113	0.95631	-0.402
Mof_O 	O 	0.1329	0.1243	0.78415	-0.463
Mof_O 	O 	0.51919	0.89057	0.50181	-0.414
Mof_O 	O 	0.5613	0.9726	0.45631	-0.402
Mof_O 	O 	0.8671	0.9914	0.28415	-0.462
Mof_O 	O 	0.37138	0.48081	0.50181	-0.414
Mof_O 	O 	0.4113	0.4387	0.45631	-0.402
Mof_O 	O 	0.1243	0.1329	0.28415	-0.463
Mof_O 	O 	0.10943	0.62862	0.50181	-0.414
Mof_O 	O 	0.0274	0.5887	0.45631	-0.402
Mof_O 	O 	0.0086	0.8757	0.28415	-0.461
Mof_O 	O 	0.48081	0.10943	0.00181	-0.414
Mof_O 	O 	0.4387	0.0274	0.95631	-0.402
Mof_O 	O 	0.1329	0.0086	0.78415	-0.462
Mof_O 	O 	0.62862	0.51919	0.00181	-0.414
Mof_O 	O 	0.5887	0.5613	0.95631	-0.402
Mof_O 	O 	0.8757	0.8671	0.78415	-0.463
Mof_O 	O 	0.89057	0.37138	0.00181	-0.414
Mof_O 	O 	0.9726	0.4113	0.95631	-0.402
Mof_O 	O 	0.9914	0.1243	0.78415	-0.461
Mof_O 	O 	0.62862	0.10943	0.49819	-0.414
Mof_O 	O 	0.5887	0.0274	0.54369	-0.402
Mof_O 	O 	0.8757	0.0086	0.71585	-0.461
Mof_O 	O 	0.89057	0.51919	0.49819	-0.414
Mof_O 	O 	0.9726	0.5613	0.54369	-0.402
Mof_O 	O 	0.9914	0.8671	0.71585	-0.462
Mof_O 	O 	0.48081	0.37138	0.49819	-0.414
Mof_O 	O 	0.4387	0.4113	0.54369	-0.402
Mof_O 	O 	0.1329	0.1243	0.71585	-0.463
Mof_O 	O 	0.37138	0.89057	0.99819	-0.414
Mof_O 	O 	0.4113	0.9726	0.04369	-0.402
Mof_O 	O 	0.1243	0.9914	0.21585	-0.461
Mof_O 	O 	0.10943	0.48081	0.99819	-0.414
Mof_O 	O 	0.0274	0.4387	0.04369	-0.402
Mof_O 	O 	0.0086	0.1329	0.21585	-0.462
Mof_O 	O 	0.51919	0.62862	0.99819	-0.414
Mof_O 	O 	0.5613	0.5887	0.04369	-0.402
Mof_O 	O 	0.8671	0.8757	0.21585	-0.463
_end
