data_functionalizedCrystal
_audit_creation_method	'EQeq! by Chris Wilmer'
_symmetry_space_group_name_H-M	'P1'
_symmetry_Int_Tables_number	1
_symmetry_cell_setting	triclinic
loop_
_symmetry_equiv_pos_as_xyz
  x,y,z
_cell_length_a	16.176
_cell_length_b	7.948
_cell_length_c	27.278
_cell_angle_alpha	90
_cell_angle_beta	93.5
_cell_angle_gamma	90
loop_
_atom_site_label
_atom_site_type_symbol
_atom_site_fract_x
_atom_site_fract_y
_atom_site_fract_z
_atom_site_charge
Mof_C 	C 	0.3923	0.7764	0.8096	-0.049
Mof_H 	H 	0.3378	0.8168	0.7985	0.052
Mof_H 	H 	0.3983	0.6627	0.7974	0.046
Mof_Tb	Tb	0.72311	0.15649	0.7328	1.899
Mof_O 	O 	0.8508	0.1239	0.78765	-0.489
Mof_O 	O 	0.8669	0.8573	0.81195	-0.501
Mof_O 	O 	0.2848	0.6253	0.20343	-0.574
Mof_N 	N 	0.2646	0.858	0.86892	-0.164
Mof_C 	C 	0.5484	0.8408	0.8652	-0.072
Mof_H 	H 	0.6026	0.8045	0.8783	0.055
Mof_H 	H 	0.5393	0.9546	0.8765	0.056
Mof_O 	O 	0.6832	0.8981	0.78487	-0.553
Mof_C 	C 	0.5456	0.8385	0.8092	-0.136
Mof_H 	H 	0.557	0.724	0.798	0.066
Mof_O 	O 	0.2892	0.415	0.15204	-0.43
Mof_N 	N 	0.2104	0.8713	0.9487	-0.164
Mof_N 	N 	0.4	0.775	0.8634	-0.121
Mof_C 	C 	0.2851	0.8142	0.9661	0.17
Mof_N 	N 	0.135	0.9643	0.8796	-0.109
Mof_O 	O 	0.5941	0.1055	0.78052	-0.43
Mof_C 	C 	0.9743	0.0516	0.8349	-0.213
Mof_H 	H 	0.98	0.174	0.836	0.089
Mof_C 	C 	0.3367	0.8066	0.8917	0.171
Mof_C 	C 	0.4584	0.8894	0.7888	-0.068
Mof_H 	H 	0.448	0.0055	0.7975	0.06
Mof_H 	H 	0.4553	0.8808	0.7533	0.038
Mof_N 	N 	0.3507	0.7864	0.9405	-0.166
Mof_N 	N 	0.293	0.7839	0.0154	-0.116
Mof_C 	C 	0.3645	0.6231	0.0821	-0.049
Mof_H 	H 	0.4185	0.6031	0.0986	0.039
Mof_H 	H 	0.3434	0.5161	0.0697	0.056
Mof_C 	C 	0.2065	0.8968	0.8999	0.167
Mof_C 	C 	0.234	0.852	0.0487	-0.062
Mof_H 	H 	0.1809	0.8694	0.0309	0.053
Mof_H 	H 	0.2537	0.9601	0.0611	0.05
Mof_C 	C 	0.6106	0.9547	0.7909	0.369
Mof_C 	C 	0.0437	0.9787	0.805	-0.011
Mof_H 	H 	0.0381	0.8573	0.8031	0.036
Mof_H 	H 	0.0388	0.0234	0.7719	0.021
Mof_C 	C 	0.9856	0.9835	0.8867	-0
Mof_H 	H 	0.9795	0.8621	0.886	0.035
Mof_H 	H 	0.9429	0.0293	0.9063	0.017
Mof_C 	C 	0.2941	0.5709	0.1602	0.383
Mof_C 	C 	0.0705	0.0291	0.9103	-0.09
Mof_H 	H 	0.0754	0.1504	0.9133	0.057
Mof_H 	H 	0.0772	0.9805	0.9429	0.062
Mof_C 	C 	0.4825	0.7253	0.8836	-0.046
Mof_H 	H 	0.4937	0.6104	0.874	0.047
Mof_H 	H 	0.4841	0.7296	0.9192	0.051
Mof_C 	C 	0.1277	0.0234	0.8289	-0.086
Mof_H 	H 	0.1707	0.9724	0.8106	0.063
Mof_H 	H 	0.1351	0.1444	0.8282	0.056
Mof_C 	C 	0.3071	0.691	0.1186	-0.162
Mof_H 	H 	0.331	0.795	0.132	0.079
Mof_C 	C 	0.3743	0.7429	0.0388	-0.062
Mof_H 	H 	0.4018	0.8452	0.0504	0.051
Mof_H 	H 	0.4084	0.6903	0.0151	0.056
Mof_C 	C 	0.2232	0.7319	0.0918	-0.048
Mof_H 	H 	0.1974	0.6286	0.0797	0.041
Mof_H 	H 	0.1871	0.7831	0.1147	0.027
Mof_C 	C 	0.8908	0.0071	0.8099	0.453
Mof_C 	C 	0.1077	0.2764	0.6904	-0.047
Mof_H 	H 	0.1622	0.3168	0.7015	0.05
Mof_H 	H 	0.1017	0.1627	0.7026	0.044
Mof_Tb	Tb	0.77689	0.65649	0.7672	1.902
Mof_O 	O 	0.6492	0.6239	0.71235	-0.489
Mof_O 	O 	0.6331	0.3573	0.68805	-0.503
Mof_O 	O 	0.2152	0.1253	0.29657	-0.574
Mof_N 	N 	0.2354	0.358	0.63108	-0.164
Mof_C 	C 	0.9516	0.3408	0.6348	-0.075
Mof_H 	H 	0.8974	0.3045	0.6217	0.055
Mof_H 	H 	0.9607	0.4546	0.6235	0.056
Mof_O 	O 	0.8168	0.3981	0.71513	-0.553
Mof_C 	C 	0.9544	0.3385	0.6908	-0.132
Mof_H 	H 	0.943	0.224	0.702	0.065
Mof_O 	O 	0.2108	0.915	0.34796	-0.433
Mof_N 	N 	0.2896	0.3713	0.5513	-0.164
Mof_N 	N 	0.1	0.275	0.6366	-0.121
Mof_C 	C 	0.2149	0.3142	0.5339	0.17
Mof_N 	N 	0.365	0.4643	0.6204	-0.113
Mof_O 	O 	0.9059	0.6055	0.71948	-0.427
Mof_C 	C 	0.5257	0.5516	0.6651	-0.196
Mof_H 	H 	0.52	0.674	0.664	0.085
Mof_C 	C 	0.1633	0.3066	0.6083	0.171
Mof_C 	C 	0.0416	0.3894	0.7112	-0.075
Mof_H 	H 	0.052	0.5055	0.7025	0.064
Mof_H 	H 	0.0447	0.3808	0.7467	0.04
Mof_N 	N 	0.1493	0.2864	0.5595	-0.166
Mof_N 	N 	0.207	0.2839	0.4846	-0.115
Mof_C 	C 	0.1355	0.1231	0.4179	-0.049
Mof_H 	H 	0.0815	0.1031	0.4014	0.04
Mof_H 	H 	0.1566	0.0161	0.4303	0.056
Mof_C 	C 	0.2935	0.3968	0.6001	0.168
Mof_C 	C 	0.266	0.352	0.4513	-0.062
Mof_H 	H 	0.3191	0.3694	0.4691	0.053
Mof_H 	H 	0.2463	0.4601	0.4389	0.05
Mof_C 	C 	0.8894	0.4547	0.7091	0.364
Mof_C 	C 	0.4563	0.4787	0.695	-0.032
Mof_H 	H 	0.4619	0.3573	0.6969	0.041
Mof_H 	H 	0.4612	0.5234	0.7281	0.028
Mof_C 	C 	0.5144	0.4835	0.6133	-0.023
Mof_H 	H 	0.5205	0.3621	0.614	0.041
Mof_H 	H 	0.5571	0.5293	0.5937	0.025
Mof_C 	C 	0.2059	0.0709	0.3398	0.387
Mof_C 	C 	0.4295	0.5291	0.5897	-0.076
Mof_H 	H 	0.4246	0.6504	0.5867	0.053
Mof_H 	H 	0.4228	0.4805	0.5571	0.058
Mof_C 	C 	0.0175	0.2253	0.6164	-0.044
Mof_H 	H 	0.0063	0.1104	0.626	0.046
Mof_H 	H 	0.0159	0.2296	0.5808	0.05
Mof_C 	C 	0.3723	0.5234	0.6711	-0.07
Mof_H 	H 	0.3293	0.4724	0.6894	0.057
Mof_H 	H 	0.3649	0.6444	0.6718	0.052
Mof_C 	C 	0.1929	0.191	0.3814	-0.163
Mof_H 	H 	0.169	0.295	0.368	0.08
Mof_C 	C 	0.1257	0.2429	0.4612	-0.062
Mof_H 	H 	0.0982	0.3452	0.4496	0.051
Mof_H 	H 	0.0916	0.1903	0.4849	0.056
Mof_C 	C 	0.2768	0.2319	0.4082	-0.047
Mof_H 	H 	0.3026	0.1286	0.4203	0.041
Mof_H 	H 	0.3129	0.2831	0.3853	0.027
Mof_C 	C 	0.6092	0.5071	0.6901	0.452
Mof_C 	C 	0.6077	0.2236	0.1904	-0.05
Mof_H 	H 	0.6622	0.1832	0.2015	0.051
Mof_H 	H 	0.6017	0.3373	0.2026	0.045
Mof_Tb	Tb	0.27689	0.84351	0.2672	1.898
Mof_O 	O 	0.1492	0.8761	0.21235	-0.49
Mof_O 	O 	0.1331	0.1427	0.18805	-0.502
Mof_O 	O 	0.7152	0.3747	0.79657	-0.574
Mof_N 	N 	0.7354	0.142	0.13108	-0.164
Mof_C 	C 	0.4516	0.1592	0.1348	-0.072
Mof_H 	H 	0.3974	0.1955	0.1217	0.055
Mof_H 	H 	0.4607	0.0454	0.1235	0.056
Mof_O 	O 	0.3168	0.1019	0.21513	-0.553
Mof_C 	C 	0.4544	0.1615	0.1908	-0.136
Mof_H 	H 	0.443	0.276	0.202	0.066
Mof_O 	O 	0.7108	0.585	0.84796	-0.43
Mof_N 	N 	0.7896	0.1287	0.0513	-0.164
Mof_N 	N 	0.6	0.225	0.1366	-0.121
Mof_C 	C 	0.7149	0.1858	0.0339	0.17
Mof_N 	N 	0.865	0.0357	0.1204	-0.109
Mof_O 	O 	0.4059	0.8945	0.21948	-0.43
Mof_C 	C 	0.0257	0.9484	0.1651	-0.213
Mof_H 	H 	0.02	0.826	0.164	0.089
Mof_C 	C 	0.6633	0.1934	0.1083	0.171
Mof_C 	C 	0.5416	0.1106	0.2112	-0.068
Mof_H 	H 	0.552	0.9945	0.2025	0.06
Mof_H 	H 	0.5447	0.1192	0.2467	0.038
Mof_N 	N 	0.6493	0.2136	0.0595	-0.166
Mof_N 	N 	0.707	0.2161	0.9846	-0.116
Mof_C 	C 	0.6355	0.3769	0.9179	-0.049
Mof_H 	H 	0.5815	0.3969	0.9014	0.039
Mof_H 	H 	0.6566	0.4839	0.9303	0.056
Mof_C 	C 	0.7935	0.1032	0.1001	0.167
Mof_C 	C 	0.766	0.148	0.9513	-0.062
Mof_H 	H 	0.8191	0.1306	0.9691	0.053
Mof_H 	H 	0.7463	0.0399	0.9389	0.05
Mof_C 	C 	0.3894	0.0453	0.2091	0.369
Mof_C 	C 	0.9563	0.0213	0.195	-0.011
Mof_H 	H 	0.9619	0.1427	0.1969	0.036
Mof_H 	H 	0.9612	0.9766	0.2281	0.021
Mof_C 	C 	0.0144	0.0165	0.1133	-0
Mof_H 	H 	0.0205	0.1379	0.114	0.035
Mof_H 	H 	0.0571	0.9707	0.0937	0.017
Mof_C 	C 	0.7059	0.4291	0.8398	0.383
Mof_C 	C 	0.9295	0.9709	0.0897	-0.09
Mof_H 	H 	0.9246	0.8496	0.0867	0.057
Mof_H 	H 	0.9228	0.0195	0.0571	0.062
Mof_C 	C 	0.5175	0.2747	0.1164	-0.046
Mof_H 	H 	0.5063	0.3896	0.126	0.047
Mof_H 	H 	0.5159	0.2704	0.0808	0.051
Mof_C 	C 	0.8723	0.9766	0.1711	-0.086
Mof_H 	H 	0.8293	0.0276	0.1894	0.063
Mof_H 	H 	0.8649	0.8556	0.1718	0.056
Mof_C 	C 	0.6929	0.309	0.8814	-0.162
Mof_H 	H 	0.669	0.205	0.868	0.079
Mof_C 	C 	0.6257	0.2571	0.9612	-0.062
Mof_H 	H 	0.5982	0.1548	0.9496	0.051
Mof_H 	H 	0.5916	0.3097	0.9849	0.056
Mof_C 	C 	0.7768	0.2681	0.9082	-0.048
Mof_H 	H 	0.8026	0.3714	0.9203	0.041
Mof_H 	H 	0.8129	0.2169	0.8853	0.027
Mof_C 	C 	0.1092	0.9929	0.1901	0.453
Mof_C 	C 	0.8923	0.7236	0.3096	-0.047
Mof_H 	H 	0.8378	0.6832	0.2985	0.05
Mof_H 	H 	0.8983	0.8373	0.2974	0.044
Mof_Tb	Tb	0.22311	0.34351	0.2328	1.902
Mof_O 	O 	0.3508	0.3761	0.28765	-0.489
Mof_O 	O 	0.3669	0.6427	0.31195	-0.503
Mof_O 	O 	0.7848	0.8747	0.70343	-0.574
Mof_N 	N 	0.7646	0.642	0.36892	-0.164
Mof_C 	C 	0.0484	0.6592	0.3652	-0.075
Mof_H 	H 	0.1026	0.6955	0.3783	0.055
Mof_H 	H 	0.0393	0.5454	0.3765	0.056
Mof_O 	O 	0.1832	0.6019	0.28487	-0.553
Mof_C 	C 	0.0456	0.6615	0.3092	-0.132
Mof_H 	H 	0.057	0.776	0.298	0.065
Mof_O 	O 	0.7892	0.085	0.65204	-0.433
Mof_N 	N 	0.7104	0.6287	0.4487	-0.164
Mof_N 	N 	0.9	0.725	0.3634	-0.121
Mof_C 	C 	0.7851	0.6858	0.4661	0.17
Mof_N 	N 	0.635	0.5357	0.3796	-0.113
Mof_O 	O 	0.0941	0.3945	0.28052	-0.427
Mof_C 	C 	0.4743	0.4484	0.3349	-0.196
Mof_H 	H 	0.48	0.326	0.336	0.085
Mof_C 	C 	0.8367	0.6934	0.3917	0.171
Mof_C 	C 	0.9584	0.6106	0.2888	-0.075
Mof_H 	H 	0.948	0.4945	0.2975	0.064
Mof_H 	H 	0.9553	0.6192	0.2533	0.04
Mof_N 	N 	0.8507	0.7136	0.4405	-0.166
Mof_N 	N 	0.793	0.7161	0.5154	-0.115
Mof_C 	C 	0.8645	0.8769	0.5821	-0.049
Mof_H 	H 	0.9185	0.8969	0.5986	0.04
Mof_H 	H 	0.8434	0.9839	0.5697	0.056
Mof_C 	C 	0.7065	0.6032	0.3999	0.168
Mof_C 	C 	0.734	0.648	0.5487	-0.062
Mof_H 	H 	0.6809	0.6306	0.5309	0.053
Mof_H 	H 	0.7537	0.5399	0.5611	0.05
Mof_C 	C 	0.1106	0.5453	0.2909	0.364
Mof_C 	C 	0.5437	0.5213	0.305	-0.032
Mof_H 	H 	0.5381	0.6427	0.3031	0.041
Mof_H 	H 	0.5388	0.4766	0.2719	0.028
Mof_C 	C 	0.4856	0.5165	0.3867	-0.023
Mof_H 	H 	0.4795	0.6379	0.386	0.041
Mof_H 	H 	0.4429	0.4707	0.4063	0.025
Mof_C 	C 	0.7941	0.9291	0.6602	0.387
Mof_C 	C 	0.5705	0.4709	0.4103	-0.076
Mof_H 	H 	0.5754	0.3496	0.4133	0.053
Mof_H 	H 	0.5772	0.5195	0.4429	0.058
Mof_C 	C 	0.9825	0.7747	0.3836	-0.044
Mof_H 	H 	0.9937	0.8896	0.374	0.046
Mof_H 	H 	0.9841	0.7704	0.4192	0.05
Mof_C 	C 	0.6277	0.4766	0.3289	-0.07
Mof_H 	H 	0.6707	0.5276	0.3106	0.057
Mof_H 	H 	0.6351	0.3556	0.3282	0.052
Mof_C 	C 	0.8071	0.809	0.6186	-0.163
Mof_H 	H 	0.831	0.705	0.632	0.08
Mof_C 	C 	0.8743	0.7571	0.5388	-0.062
Mof_H 	H 	0.9018	0.6548	0.5504	0.051
Mof_H 	H 	0.9084	0.8097	0.5151	0.056
Mof_C 	C 	0.7232	0.7681	0.5918	-0.047
Mof_H 	H 	0.6974	0.8714	0.5797	0.041
Mof_H 	H 	0.6871	0.7169	0.6147	0.027
Mof_C 	C 	0.3908	0.4929	0.3099	0.452
_end
