data_functionalizedCrystal
_audit_creation_method	'EQeq! by Chris Wilmer'
_symmetry_space_group_name_H-M	'P1'
_symmetry_Int_Tables_number	1
_symmetry_cell_setting	triclinic
loop_
_symmetry_equiv_pos_as_xyz
  x,y,z
_cell_length_a	35.748
_cell_length_b	18.52
_cell_length_c	24.411
_cell_angle_alpha	90
_cell_angle_beta	118.62
_cell_angle_gamma	90
loop_
_atom_site_label
_atom_site_type_symbol
_atom_site_fract_x
_atom_site_fract_y
_atom_site_fract_z
_atom_site_charge
Mof_Cd	Cd	0.20979	0.62229	0.81003	0.513
Mof_Cd	Cd	0.31561	0.64121	0.81947	0.456
Mof_Cd	Cd	0.32241	0.56859	0.95527	0.423
Mof_O 	O 	0.87623	0.9311	0.4295	-0.323
Mof_O 	O 	0.28153	0.6007	0.99654	-0.283
Mof_O 	O 	0.22772	0.5669	0.90587	-0.266
Mof_O 	O 	0.21801	0.05073	0.65606	-0.308
Mof_O 	O 	0.28073	0.0091	0.72442	-0.262
Mof_O 	O 	0.25802	0.7806	0.12578	-0.277
Mof_O 	O 	0.19175	0.8188	0.09439	-0.294
Mof_O 	O 	0.88413	0.8398	0.3776	-0.288
Mof_O 	O 	0.29499	0.7496	0.7755	-0.269
Mof_O 	O 	0.23936	0.6807	0.75182	-0.28
Mof_O 	O 	0.8587	0.6081	0.7009	-0.217
Mof_C 	C 	0.17763	0.9245	0.6621	-0.051
Mof_H 	H 	0.1607	0.9642	0.6417	0.065
Mof_C 	C 	0.8979	0.8842	0.4238	0.363
Mof_C 	C 	0.98781	0.6861	0.8699	-0.253
Mof_H 	H 	0.0002	0.7217	0.9002	0.126
Mof_C 	C 	0.94343	0.6816	0.836	0.168
Mof_H 	H 	0.9272	0.7137	0.8452	-0.009
Mof_C 	C 	0.9932	0.5916	0.8154	-0.231
Mof_H 	H 	0.0099	0.56	0.8067	0.118
Mof_C 	C 	0.22215	0.9306	0.6927	-0.055
Mof_C 	C 	0.2465	0.8706	0.7216	-0.008
Mof_H 	H 	0.2761	0.8742	0.7419	0.071
Mof_C 	C 	0.11249	0.8555	0.6289	0.031
Mof_C 	C 	0.07523	0.8589	0.5976	-0.089
Mof_C 	C 	0.03015	0.8639	0.5555	0.2
Mof_C 	C 	0.0102	0.8127	0.511	-0.238
Mof_H 	H 	0.0254	0.7734	0.5084	0.121
Mof_C 	C 	0.0071	0.9161	0.5577	-0.255
Mof_H 	H 	0.0199	0.9509	0.5886	0.128
Mof_C 	C 	0.21906	0.7771	0.0918	0.315
Mof_C 	C 	0.24207	0.0008	0.6917	0.304
Mof_C 	C 	0.24234	0.5976	0.9575	0.304
Mof_C 	C 	0.21228	0.6353	0.9752	-0.041
Mof_C 	C 	0.22886	0.6826	0.0257	-0.008
Mof_H 	H 	0.2582	0.6888	0.0492	0.067
Mof_C 	C 	0.20185	0.7207	0.0412	-0.049
Mof_C 	C 	0.15773	0.7103	0.0062	-0.041
Mof_H 	H 	0.1394	0.7364	0.0158	0.065
Mof_C 	C 	0.16867	0.6245	0.9411	-0.046
Mof_H 	H 	0.1577	0.5929	0.9074	0.084
Mof_C 	C 	0.14131	0.661	0.9572	0.021
Mof_C 	C 	0.0957	0.6517	0.922	0.032
Mof_C 	C 	0.05833	0.6471	0.8946	-0.085
Mof_C 	C 	0.01235	0.642	0.8603	0.2
Mof_C 	C 	0.9486	0.5859	0.7814	0.153
Mof_H 	H 	0.9362	0.5493	0.752	-0.003
Mof_C 	C 	0.9633	0.9228	0.5157	0.164
Mof_H 	H 	0.948	0.9607	0.5203	-0.014
Mof_C 	C 	0.92358	0.6328	0.791	-0.213
Mof_C 	C 	0.87605	0.6283	0.7541	0.432
Mof_C 	C 	0.94407	0.8769	0.4706	-0.206
Mof_C 	C 	0.9669	0.8192	0.4693	0.145
Mof_H 	H 	0.9533	0.783	0.4399	0.002
Mof_C 	C 	0.25536	0.7403	0.7508	0.3
Mof_C 	C 	0.2275	0.8046	0.7208	-0.039
Mof_C 	C 	0.18354	0.7985	0.6911	-0.052
Mof_H 	H 	0.1708	0.7545	0.6904	0.088
Mof_C 	C 	0.1588	0.8586	0.6623	0.024
Mof_O 	O 	0.8539	0.6756	0.7539	-0.231
Mof_O 	O 	0.8606	0.5695	0.7192	-0.109
Mof_O 	O 	0.8541	0.6518	0.7824	-0.108
Mof_Cd	Cd	0.70979	0.12229	0.81003	0.514
Mof_Cd	Cd	0.81561	0.14121	0.81947	0.457
Mof_Cd	Cd	0.82241	0.06859	0.95527	0.425
Mof_O 	O 	0.37623	0.4311	0.4295	-0.322
Mof_O 	O 	0.78153	0.1007	0.99654	-0.282
Mof_O 	O 	0.72772	0.0669	0.90587	-0.265
Mof_O 	O 	0.71801	0.55073	0.65606	-0.306
Mof_O 	O 	0.78073	0.5091	0.72442	-0.26
Mof_O 	O 	0.75802	0.2806	0.12578	-0.276
Mof_O 	O 	0.69175	0.3188	0.09439	-0.293
Mof_O 	O 	0.38413	0.3398	0.3776	-0.287
Mof_O 	O 	0.79499	0.2496	0.7755	-0.268
Mof_O 	O 	0.73936	0.1807	0.75182	-0.279
Mof_O 	O 	0.3587	0.1081	0.7009	-0.217
Mof_C 	C 	0.67763	0.4245	0.6621	-0.05
Mof_H 	H 	0.6607	0.4642	0.6417	0.066
Mof_C 	C 	0.3979	0.3842	0.4238	0.364
Mof_C 	C 	0.48781	0.1861	0.8699	-0.256
Mof_H 	H 	0.5002	0.2217	0.9002	0.129
Mof_C 	C 	0.44343	0.1816	0.836	0.172
Mof_H 	H 	0.4272	0.2137	0.8452	-0.01
Mof_C 	C 	0.4932	0.0916	0.8154	-0.235
Mof_H 	H 	0.5099	0.06	0.8067	0.12
Mof_C 	C 	0.72215	0.4306	0.6927	-0.055
Mof_C 	C 	0.7465	0.3706	0.7216	-0.008
Mof_H 	H 	0.7761	0.3742	0.7419	0.071
Mof_C 	C 	0.61249	0.3555	0.6289	0.031
Mof_C 	C 	0.57523	0.3589	0.5976	-0.089
Mof_C 	C 	0.53015	0.3639	0.5555	0.2
Mof_C 	C 	0.5102	0.3127	0.511	-0.238
Mof_H 	H 	0.5254	0.2734	0.5084	0.121
Mof_C 	C 	0.5071	0.4161	0.5577	-0.256
Mof_H 	H 	0.5199	0.4509	0.5886	0.128
Mof_C 	C 	0.71906	0.2771	0.0918	0.315
Mof_C 	C 	0.74207	0.5008	0.6917	0.304
Mof_C 	C 	0.74234	0.0976	0.9575	0.303
Mof_C 	C 	0.71228	0.1353	0.9752	-0.04
Mof_C 	C 	0.72886	0.1826	0.0257	-0.009
Mof_H 	H 	0.7582	0.1888	0.0492	0.067
Mof_C 	C 	0.70185	0.2207	0.0412	-0.049
Mof_C 	C 	0.65773	0.2103	0.0062	-0.042
Mof_H 	H 	0.6394	0.2364	0.0158	0.065
Mof_C 	C 	0.66867	0.1245	0.9411	-0.047
Mof_H 	H 	0.6577	0.0929	0.9074	0.084
Mof_C 	C 	0.64131	0.161	0.9572	0.022
Mof_C 	C 	0.5957	0.1517	0.922	0.033
Mof_C 	C 	0.55833	0.1471	0.8946	-0.087
Mof_C 	C 	0.51235	0.142	0.8603	0.204
Mof_C 	C 	0.4486	0.0859	0.7814	0.156
Mof_H 	H 	0.4362	0.0493	0.752	-0.004
Mof_C 	C 	0.4633	0.4228	0.5157	0.164
Mof_H 	H 	0.448	0.4607	0.5203	-0.014
Mof_C 	C 	0.42358	0.1328	0.791	-0.216
Mof_C 	C 	0.37605	0.1283	0.7541	0.433
Mof_C 	C 	0.44407	0.3769	0.4706	-0.206
Mof_C 	C 	0.4669	0.3192	0.4693	0.145
Mof_H 	H 	0.4533	0.283	0.4399	0.002
Mof_C 	C 	0.75536	0.2403	0.7508	0.3
Mof_C 	C 	0.7275	0.3046	0.7208	-0.039
Mof_C 	C 	0.68354	0.2985	0.6911	-0.052
Mof_H 	H 	0.6708	0.2545	0.6904	0.088
Mof_C 	C 	0.6588	0.3586	0.6623	0.024
Mof_O 	O 	0.3539	0.1756	0.7539	-0.231
Mof_O 	O 	0.3606	0.0695	0.7192	-0.109
Mof_O 	O 	0.3541	0.1518	0.7824	-0.108
Mof_Cd	Cd	0.79021	0.62229	0.68997	0.514
Mof_Cd	Cd	0.68439	0.64121	0.68053	0.457
Mof_Cd	Cd	0.67759	0.56859	0.54473	0.424
Mof_O 	O 	0.12377	0.9311	0.0705	-0.321
Mof_O 	O 	0.71847	0.6007	0.50346	-0.282
Mof_O 	O 	0.77228	0.5669	0.59413	-0.265
Mof_O 	O 	0.78199	0.05073	0.84394	-0.306
Mof_O 	O 	0.71927	0.0091	0.77558	-0.261
Mof_O 	O 	0.74198	0.7806	0.37422	-0.276
Mof_O 	O 	0.80825	0.8188	0.40561	-0.293
Mof_O 	O 	0.11587	0.8398	0.1224	-0.286
Mof_O 	O 	0.70501	0.7496	0.7245	-0.268
Mof_O 	O 	0.76064	0.6807	0.74818	-0.279
Mof_O 	O 	0.1413	0.6081	0.7991	-0.217
Mof_C 	C 	0.82237	0.9245	0.8379	-0.05
Mof_H 	H 	0.8393	0.9642	0.8583	0.066
Mof_C 	C 	0.1021	0.8842	0.0762	0.363
Mof_C 	C 	0.01219	0.6861	0.6301	-0.258
Mof_H 	H 	0.9998	0.7217	0.5998	0.129
Mof_C 	C 	0.05657	0.6816	0.664	0.173
Mof_H 	H 	0.0728	0.7137	0.6548	-0.01
Mof_C 	C 	0.0068	0.5916	0.6846	-0.237
Mof_H 	H 	0.9901	0.56	0.6933	0.12
Mof_C 	C 	0.77785	0.9306	0.8073	-0.055
Mof_C 	C 	0.7535	0.8706	0.7784	-0.008
Mof_H 	H 	0.7239	0.8742	0.7581	0.071
Mof_C 	C 	0.88751	0.8555	0.8711	0.031
Mof_C 	C 	0.92477	0.8589	0.9024	-0.088
Mof_C 	C 	0.96985	0.8639	0.9445	0.198
Mof_C 	C 	0.9898	0.8127	0.989	-0.236
Mof_H 	H 	0.9746	0.7734	0.9916	0.121
Mof_C 	C 	0.9929	0.9161	0.9423	-0.252
Mof_H 	H 	0.9801	0.9509	0.9114	0.127
Mof_C 	C 	0.78094	0.7771	0.4082	0.315
Mof_C 	C 	0.75793	0.0008	0.8083	0.304
Mof_C 	C 	0.75766	0.5976	0.5425	0.304
Mof_C 	C 	0.78772	0.6353	0.5248	-0.041
Mof_C 	C 	0.77114	0.6826	0.4743	-0.008
Mof_H 	H 	0.7418	0.6888	0.4508	0.067
Mof_C 	C 	0.79815	0.7207	0.4588	-0.049
Mof_C 	C 	0.84227	0.7103	0.4938	-0.041
Mof_H 	H 	0.8606	0.7364	0.4842	0.065
Mof_C 	C 	0.83133	0.6245	0.5589	-0.046
Mof_H 	H 	0.8423	0.5929	0.5926	0.084
Mof_C 	C 	0.85869	0.661	0.5428	0.021
Mof_C 	C 	0.9043	0.6517	0.578	0.034
Mof_C 	C 	0.94167	0.6471	0.6054	-0.087
Mof_C 	C 	0.98765	0.642	0.6397	0.205
Mof_C 	C 	0.0514	0.5859	0.7186	0.158
Mof_H 	H 	0.0638	0.5493	0.748	-0.005
Mof_C 	C 	0.0367	0.9228	0.9843	0.16
Mof_H 	H 	0.052	0.9607	0.9797	-0.013
Mof_C 	C 	0.07642	0.6328	0.709	-0.217
Mof_C 	C 	0.12395	0.6283	0.7459	0.433
Mof_C 	C 	0.05593	0.8769	0.0294	-0.203
Mof_C 	C 	0.0331	0.8192	0.0307	0.143
Mof_H 	H 	0.0467	0.783	0.0601	0.002
Mof_C 	C 	0.74464	0.7403	0.7492	0.3
Mof_C 	C 	0.7725	0.8046	0.7792	-0.039
Mof_C 	C 	0.81646	0.7985	0.8089	-0.052
Mof_H 	H 	0.8292	0.7545	0.8096	0.088
Mof_C 	C 	0.8412	0.8586	0.8377	0.025
Mof_O 	O 	0.1461	0.6756	0.7461	-0.231
Mof_O 	O 	0.1394	0.5695	0.7808	-0.109
Mof_O 	O 	0.1459	0.6518	0.7176	-0.108
Mof_Cd	Cd	0.29021	0.12229	0.68997	0.514
Mof_Cd	Cd	0.18439	0.14121	0.68053	0.457
Mof_Cd	Cd	0.17759	0.06859	0.54473	0.425
Mof_O 	O 	0.62377	0.4311	0.0705	-0.322
Mof_O 	O 	0.21847	0.1007	0.50346	-0.282
Mof_O 	O 	0.27228	0.0669	0.59413	-0.265
Mof_O 	O 	0.28199	0.55073	0.84394	-0.306
Mof_O 	O 	0.21927	0.5091	0.77558	-0.261
Mof_O 	O 	0.24198	0.2806	0.37422	-0.276
Mof_O 	O 	0.30825	0.3188	0.40561	-0.293
Mof_O 	O 	0.61587	0.3398	0.1224	-0.287
Mof_O 	O 	0.20501	0.2496	0.7245	-0.268
Mof_O 	O 	0.26064	0.1807	0.74818	-0.279
Mof_O 	O 	0.6413	0.1081	0.7991	-0.217
Mof_C 	C 	0.32237	0.4245	0.8379	-0.05
Mof_H 	H 	0.3393	0.4642	0.8583	0.066
Mof_C 	C 	0.6021	0.3842	0.0762	0.364
Mof_C 	C 	0.51219	0.1861	0.6301	-0.256
Mof_H 	H 	0.4998	0.2217	0.5998	0.129
Mof_C 	C 	0.55657	0.1816	0.664	0.172
Mof_H 	H 	0.5728	0.2137	0.6548	-0.01
Mof_C 	C 	0.5068	0.0916	0.6846	-0.235
Mof_H 	H 	0.4901	0.06	0.6933	0.12
Mof_C 	C 	0.27785	0.4306	0.8073	-0.055
Mof_C 	C 	0.2535	0.3706	0.7784	-0.008
Mof_H 	H 	0.2239	0.3742	0.7581	0.071
Mof_C 	C 	0.38751	0.3555	0.8711	0.031
Mof_C 	C 	0.42477	0.3589	0.9024	-0.089
Mof_C 	C 	0.46985	0.3639	0.9445	0.2
Mof_C 	C 	0.4898	0.3127	0.989	-0.238
Mof_H 	H 	0.4746	0.2734	0.9916	0.121
Mof_C 	C 	0.4929	0.4161	0.9423	-0.256
Mof_H 	H 	0.4801	0.4509	0.9114	0.128
Mof_C 	C 	0.28094	0.2771	0.4082	0.315
Mof_C 	C 	0.25793	0.5008	0.8083	0.304
Mof_C 	C 	0.25766	0.0976	0.5425	0.303
Mof_C 	C 	0.28772	0.1353	0.5248	-0.041
Mof_C 	C 	0.27114	0.1826	0.4743	-0.008
Mof_H 	H 	0.2418	0.1888	0.4508	0.067
Mof_C 	C 	0.29815	0.2207	0.4588	-0.049
Mof_C 	C 	0.34227	0.2103	0.4938	-0.041
Mof_H 	H 	0.3606	0.2364	0.4842	0.065
Mof_C 	C 	0.33133	0.1245	0.5589	-0.047
Mof_H 	H 	0.3423	0.0929	0.5926	0.084
Mof_C 	C 	0.35869	0.161	0.5428	0.021
Mof_C 	C 	0.4043	0.1517	0.578	0.033
Mof_C 	C 	0.44167	0.1471	0.6054	-0.087
Mof_C 	C 	0.48765	0.142	0.6397	0.204
Mof_C 	C 	0.5514	0.0859	0.7186	0.156
Mof_H 	H 	0.5638	0.0493	0.748	-0.004
Mof_C 	C 	0.5367	0.4228	0.9843	0.164
Mof_H 	H 	0.552	0.4607	0.9797	-0.014
Mof_C 	C 	0.57642	0.1328	0.709	-0.216
Mof_C 	C 	0.62395	0.1283	0.7459	0.433
Mof_C 	C 	0.55593	0.3769	0.0294	-0.206
Mof_C 	C 	0.5331	0.3192	0.0307	0.145
Mof_H 	H 	0.5467	0.283	0.0601	0.002
Mof_C 	C 	0.24464	0.2403	0.7492	0.3
Mof_C 	C 	0.2725	0.3046	0.7792	-0.039
Mof_C 	C 	0.31646	0.2985	0.8089	-0.052
Mof_H 	H 	0.3292	0.2545	0.8096	0.088
Mof_C 	C 	0.3412	0.3586	0.8377	0.024
Mof_O 	O 	0.6461	0.1756	0.7461	-0.231
Mof_O 	O 	0.6394	0.0695	0.7808	-0.109
Mof_O 	O 	0.6459	0.1518	0.7176	-0.108
Mof_Cd	Cd	0.79021	0.37771	0.18997	0.514
Mof_Cd	Cd	0.68439	0.35879	0.18053	0.457
Mof_Cd	Cd	0.67759	0.43141	0.04473	0.424
Mof_O 	O 	0.12377	0.0689	0.5705	-0.322
Mof_O 	O 	0.71847	0.3993	0.00346	-0.282
Mof_O 	O 	0.77228	0.4331	0.09413	-0.265
Mof_O 	O 	0.78199	0.94927	0.34394	-0.307
Mof_O 	O 	0.71927	0.9909	0.27558	-0.261
Mof_O 	O 	0.74198	0.2194	0.87422	-0.276
Mof_O 	O 	0.80825	0.1812	0.90561	-0.293
Mof_O 	O 	0.11587	0.1602	0.6224	-0.287
Mof_O 	O 	0.70501	0.2504	0.2245	-0.268
Mof_O 	O 	0.76064	0.3193	0.24818	-0.279
Mof_O 	O 	0.1413	0.3919	0.2991	-0.216
Mof_C 	C 	0.82237	0.0755	0.3379	-0.05
Mof_H 	H 	0.8393	0.0358	0.3583	0.066
Mof_C 	C 	0.1021	0.1158	0.5762	0.364
Mof_C 	C 	0.01219	0.3139	0.1301	-0.252
Mof_H 	H 	0.9998	0.2783	0.0998	0.127
Mof_C 	C 	0.05657	0.3184	0.164	0.169
Mof_H 	H 	0.0728	0.2863	0.1548	-0.009
Mof_C 	C 	0.0068	0.4084	0.1846	-0.231
Mof_H 	H 	0.9901	0.44	0.1933	0.118
Mof_C 	C 	0.77785	0.0694	0.3073	-0.055
Mof_C 	C 	0.7535	0.1294	0.2784	-0.008
Mof_H 	H 	0.7239	0.1258	0.2581	0.071
Mof_C 	C 	0.88751	0.1445	0.3711	0.031
Mof_C 	C 	0.92477	0.1411	0.4024	-0.089
Mof_C 	C 	0.96985	0.1361	0.4445	0.2
Mof_C 	C 	0.9898	0.1873	0.489	-0.238
Mof_H 	H 	0.9746	0.2266	0.4916	0.121
Mof_C 	C 	0.9929	0.0839	0.4423	-0.255
Mof_H 	H 	0.9801	0.0491	0.4114	0.128
Mof_C 	C 	0.78094	0.2229	0.9082	0.315
Mof_C 	C 	0.75793	0.9992	0.3083	0.304
Mof_C 	C 	0.75766	0.4024	0.0425	0.304
Mof_C 	C 	0.78772	0.3647	0.0248	-0.041
Mof_C 	C 	0.77114	0.3174	0.9743	-0.008
Mof_H 	H 	0.7418	0.3112	0.9508	0.067
Mof_C 	C 	0.79815	0.2793	0.9588	-0.049
Mof_C 	C 	0.84227	0.2897	0.9938	-0.041
Mof_H 	H 	0.8606	0.2636	0.9842	0.065
Mof_C 	C 	0.83133	0.3755	0.0589	-0.046
Mof_H 	H 	0.8423	0.4071	0.0926	0.084
Mof_C 	C 	0.85869	0.339	0.0428	0.021
Mof_C 	C 	0.9043	0.3483	0.078	0.032
Mof_C 	C 	0.94167	0.3529	0.1054	-0.085
Mof_C 	C 	0.98765	0.358	0.1397	0.2
Mof_C 	C 	0.0514	0.4141	0.2186	0.153
Mof_H 	H 	0.0638	0.4507	0.248	-0.003
Mof_C 	C 	0.0367	0.0772	0.4843	0.164
Mof_H 	H 	0.052	0.0393	0.4797	-0.014
Mof_C 	C 	0.07642	0.3672	0.209	-0.213
Mof_C 	C 	0.12395	0.3717	0.2459	0.432
Mof_C 	C 	0.05593	0.1231	0.5294	-0.206
Mof_C 	C 	0.0331	0.1808	0.5307	0.145
Mof_H 	H 	0.0467	0.217	0.5601	0.002
Mof_C 	C 	0.74464	0.2597	0.2492	0.3
Mof_C 	C 	0.7725	0.1954	0.2792	-0.039
Mof_C 	C 	0.81646	0.2015	0.3089	-0.052
Mof_H 	H 	0.8292	0.2455	0.3096	0.088
Mof_C 	C 	0.8412	0.1414	0.3377	0.024
Mof_O 	O 	0.1461	0.3244	0.2461	-0.231
Mof_O 	O 	0.1394	0.4305	0.2808	-0.109
Mof_O 	O 	0.1459	0.3482	0.2176	-0.108
Mof_Cd	Cd	0.29021	0.87771	0.18997	0.514
Mof_Cd	Cd	0.18439	0.85879	0.18053	0.457
Mof_Cd	Cd	0.17759	0.93141	0.04473	0.425
Mof_O 	O 	0.62377	0.5689	0.5705	-0.322
Mof_O 	O 	0.21847	0.8993	0.00346	-0.282
Mof_O 	O 	0.27228	0.9331	0.09413	-0.265
Mof_O 	O 	0.28199	0.44927	0.34394	-0.306
Mof_O 	O 	0.21927	0.4909	0.27558	-0.26
Mof_O 	O 	0.24198	0.7194	0.87422	-0.276
Mof_O 	O 	0.30825	0.6812	0.90561	-0.293
Mof_O 	O 	0.61587	0.6602	0.6224	-0.287
Mof_O 	O 	0.20501	0.7504	0.2245	-0.268
Mof_O 	O 	0.26064	0.8193	0.24818	-0.279
Mof_O 	O 	0.6413	0.8919	0.2991	-0.217
Mof_C 	C 	0.32237	0.5755	0.3379	-0.05
Mof_H 	H 	0.3393	0.5358	0.3583	0.066
Mof_C 	C 	0.6021	0.6158	0.5762	0.364
Mof_C 	C 	0.51219	0.8139	0.1301	-0.256
Mof_H 	H 	0.4998	0.7783	0.0998	0.129
Mof_C 	C 	0.55657	0.8184	0.164	0.172
Mof_H 	H 	0.5728	0.7863	0.1548	-0.01
Mof_C 	C 	0.5068	0.9084	0.1846	-0.235
Mof_H 	H 	0.4901	0.94	0.1933	0.12
Mof_C 	C 	0.27785	0.5694	0.3073	-0.055
Mof_C 	C 	0.2535	0.6294	0.2784	-0.008
Mof_H 	H 	0.2239	0.6258	0.2581	0.071
Mof_C 	C 	0.38751	0.6445	0.3711	0.031
Mof_C 	C 	0.42477	0.6411	0.4024	-0.089
Mof_C 	C 	0.46985	0.6361	0.4445	0.2
Mof_C 	C 	0.4898	0.6873	0.489	-0.238
Mof_H 	H 	0.4746	0.7266	0.4916	0.121
Mof_C 	C 	0.4929	0.5839	0.4423	-0.256
Mof_H 	H 	0.4801	0.5491	0.4114	0.128
Mof_C 	C 	0.28094	0.7229	0.9082	0.315
Mof_C 	C 	0.25793	0.4992	0.3083	0.304
Mof_C 	C 	0.25766	0.9024	0.0425	0.303
Mof_C 	C 	0.28772	0.8647	0.0248	-0.04
Mof_C 	C 	0.27114	0.8174	0.9743	-0.009
Mof_H 	H 	0.2418	0.8112	0.9508	0.067
Mof_C 	C 	0.29815	0.7793	0.9588	-0.049
Mof_C 	C 	0.34227	0.7897	0.9938	-0.042
Mof_H 	H 	0.3606	0.7636	0.9842	0.065
Mof_C 	C 	0.33133	0.8755	0.0589	-0.047
Mof_H 	H 	0.3423	0.9071	0.0926	0.084
Mof_C 	C 	0.35869	0.839	0.0428	0.022
Mof_C 	C 	0.4043	0.8483	0.078	0.033
Mof_C 	C 	0.44167	0.8529	0.1054	-0.087
Mof_C 	C 	0.48765	0.858	0.1397	0.204
Mof_C 	C 	0.5514	0.9141	0.2186	0.156
Mof_H 	H 	0.5638	0.9507	0.248	-0.004
Mof_C 	C 	0.5367	0.5772	0.4843	0.164
Mof_H 	H 	0.552	0.5393	0.4797	-0.014
Mof_C 	C 	0.57642	0.8672	0.209	-0.216
Mof_C 	C 	0.62395	0.8717	0.2459	0.433
Mof_C 	C 	0.55593	0.6231	0.5294	-0.206
Mof_C 	C 	0.5331	0.6808	0.5307	0.145
Mof_H 	H 	0.5467	0.717	0.5601	0.002
Mof_C 	C 	0.24464	0.7597	0.2492	0.3
Mof_C 	C 	0.2725	0.6954	0.2792	-0.039
Mof_C 	C 	0.31646	0.7015	0.3089	-0.052
Mof_H 	H 	0.3292	0.7455	0.3096	0.088
Mof_C 	C 	0.3412	0.6414	0.3377	0.024
Mof_O 	O 	0.6461	0.8244	0.2461	-0.231
Mof_O 	O 	0.6394	0.9305	0.2808	-0.109
Mof_O 	O 	0.6459	0.8482	0.2176	-0.108
Mof_Cd	Cd	0.20979	0.37771	0.31003	0.514
Mof_Cd	Cd	0.31561	0.35879	0.31947	0.457
Mof_Cd	Cd	0.32241	0.43141	0.45527	0.424
Mof_O 	O 	0.87623	0.0689	0.9295	-0.321
Mof_O 	O 	0.28153	0.3993	0.49654	-0.282
Mof_O 	O 	0.22772	0.4331	0.40587	-0.265
Mof_O 	O 	0.21801	0.94927	0.15606	-0.306
Mof_O 	O 	0.28073	0.9909	0.22442	-0.261
Mof_O 	O 	0.25802	0.2194	0.62578	-0.276
Mof_O 	O 	0.19175	0.1812	0.59439	-0.293
Mof_O 	O 	0.88413	0.1602	0.8776	-0.286
Mof_O 	O 	0.29499	0.2504	0.2755	-0.268
Mof_O 	O 	0.23936	0.3193	0.25182	-0.279
Mof_O 	O 	0.8587	0.3919	0.2009	-0.217
Mof_C 	C 	0.17763	0.0755	0.1621	-0.05
Mof_H 	H 	0.1607	0.0358	0.1417	0.066
Mof_C 	C 	0.8979	0.1158	0.9238	0.363
Mof_C 	C 	0.98781	0.3139	0.3699	-0.258
Mof_H 	H 	0.0002	0.2783	0.4002	0.129
Mof_C 	C 	0.94343	0.3184	0.336	0.173
Mof_H 	H 	0.9272	0.2863	0.3452	-0.01
Mof_C 	C 	0.9932	0.4084	0.3154	-0.237
Mof_H 	H 	0.0099	0.44	0.3067	0.12
Mof_C 	C 	0.22215	0.0694	0.1927	-0.055
Mof_C 	C 	0.2465	0.1294	0.2216	-0.008
Mof_H 	H 	0.2761	0.1258	0.2419	0.071
Mof_C 	C 	0.11249	0.1445	0.1289	0.031
Mof_C 	C 	0.07523	0.1411	0.0976	-0.088
Mof_C 	C 	0.03015	0.1361	0.0555	0.198
Mof_C 	C 	0.0102	0.1873	0.011	-0.236
Mof_H 	H 	0.0254	0.2266	0.0084	0.121
Mof_C 	C 	0.0071	0.0839	0.0577	-0.252
Mof_H 	H 	0.0199	0.0491	0.0886	0.127
Mof_C 	C 	0.21906	0.2229	0.5918	0.315
Mof_C 	C 	0.24207	0.9992	0.1917	0.304
Mof_C 	C 	0.24234	0.4024	0.4575	0.304
Mof_C 	C 	0.21228	0.3647	0.4752	-0.041
Mof_C 	C 	0.22886	0.3174	0.5257	-0.008
Mof_H 	H 	0.2582	0.3112	0.5492	0.067
Mof_C 	C 	0.20185	0.2793	0.5412	-0.049
Mof_C 	C 	0.15773	0.2897	0.5062	-0.041
Mof_H 	H 	0.1394	0.2636	0.5158	0.065
Mof_C 	C 	0.16867	0.3755	0.4411	-0.046
Mof_H 	H 	0.1577	0.4071	0.4074	0.084
Mof_C 	C 	0.14131	0.339	0.4572	0.021
Mof_C 	C 	0.0957	0.3483	0.422	0.034
Mof_C 	C 	0.05833	0.3529	0.3946	-0.087
Mof_C 	C 	0.01235	0.358	0.3603	0.205
Mof_C 	C 	0.9486	0.4141	0.2814	0.158
Mof_H 	H 	0.9362	0.4507	0.252	-0.005
Mof_C 	C 	0.9633	0.0772	0.0157	0.16
Mof_H 	H 	0.948	0.0393	0.0203	-0.013
Mof_C 	C 	0.92358	0.3672	0.291	-0.217
Mof_C 	C 	0.87605	0.3717	0.2541	0.433
Mof_C 	C 	0.94407	0.1231	0.9706	-0.203
Mof_C 	C 	0.9669	0.1808	0.9693	0.143
Mof_H 	H 	0.9533	0.217	0.9399	0.002
Mof_C 	C 	0.25536	0.2597	0.2508	0.3
Mof_C 	C 	0.2275	0.1954	0.2208	-0.039
Mof_C 	C 	0.18354	0.2015	0.1911	-0.052
Mof_H 	H 	0.1708	0.2455	0.1904	0.088
Mof_C 	C 	0.1588	0.1414	0.1623	0.025
Mof_O 	O 	0.8539	0.3244	0.2539	-0.231
Mof_O 	O 	0.8606	0.4305	0.2192	-0.109
Mof_O 	O 	0.8541	0.3482	0.2824	-0.108
Mof_Cd	Cd	0.70979	0.87771	0.31003	0.514
Mof_Cd	Cd	0.81561	0.85879	0.31947	0.457
Mof_Cd	Cd	0.82241	0.93141	0.45527	0.425
Mof_O 	O 	0.37623	0.5689	0.9295	-0.322
Mof_O 	O 	0.78153	0.8993	0.49654	-0.282
Mof_O 	O 	0.72772	0.9331	0.40587	-0.265
Mof_O 	O 	0.71801	0.44927	0.15606	-0.306
Mof_O 	O 	0.78073	0.4909	0.22442	-0.261
Mof_O 	O 	0.75802	0.7194	0.62578	-0.276
Mof_O 	O 	0.69175	0.6812	0.59439	-0.293
Mof_O 	O 	0.38413	0.6602	0.8776	-0.287
Mof_O 	O 	0.79499	0.7504	0.2755	-0.268
Mof_O 	O 	0.73936	0.8193	0.25182	-0.279
Mof_O 	O 	0.3587	0.8919	0.2009	-0.217
Mof_C 	C 	0.67763	0.5755	0.1621	-0.05
Mof_H 	H 	0.6607	0.5358	0.1417	0.066
Mof_C 	C 	0.3979	0.6158	0.9238	0.364
Mof_C 	C 	0.48781	0.8139	0.3699	-0.256
Mof_H 	H 	0.5002	0.7783	0.4002	0.129
Mof_C 	C 	0.44343	0.8184	0.336	0.172
Mof_H 	H 	0.4272	0.7863	0.3452	-0.01
Mof_C 	C 	0.4932	0.9084	0.3154	-0.235
Mof_H 	H 	0.5099	0.94	0.3067	0.12
Mof_C 	C 	0.72215	0.5694	0.1927	-0.055
Mof_C 	C 	0.7465	0.6294	0.2216	-0.008
Mof_H 	H 	0.7761	0.6258	0.2419	0.071
Mof_C 	C 	0.61249	0.6445	0.1289	0.031
Mof_C 	C 	0.57523	0.6411	0.0976	-0.089
Mof_C 	C 	0.53015	0.6361	0.0555	0.2
Mof_C 	C 	0.5102	0.6873	0.011	-0.238
Mof_H 	H 	0.5254	0.7266	0.0084	0.121
Mof_C 	C 	0.5071	0.5839	0.0577	-0.256
Mof_H 	H 	0.5199	0.5491	0.0886	0.128
Mof_C 	C 	0.71906	0.7229	0.5918	0.315
Mof_C 	C 	0.74207	0.4992	0.1917	0.304
Mof_C 	C 	0.74234	0.9024	0.4575	0.303
Mof_C 	C 	0.71228	0.8647	0.4752	-0.041
Mof_C 	C 	0.72886	0.8174	0.5257	-0.008
Mof_H 	H 	0.7582	0.8112	0.5492	0.067
Mof_C 	C 	0.70185	0.7793	0.5412	-0.049
Mof_C 	C 	0.65773	0.7897	0.5062	-0.041
Mof_H 	H 	0.6394	0.7636	0.5158	0.065
Mof_C 	C 	0.66867	0.8755	0.4411	-0.047
Mof_H 	H 	0.6577	0.9071	0.4074	0.084
Mof_C 	C 	0.64131	0.839	0.4572	0.021
Mof_C 	C 	0.5957	0.8483	0.422	0.033
Mof_C 	C 	0.55833	0.8529	0.3946	-0.087
Mof_C 	C 	0.51235	0.858	0.3603	0.204
Mof_C 	C 	0.4486	0.9141	0.2814	0.156
Mof_H 	H 	0.4362	0.9507	0.252	-0.004
Mof_C 	C 	0.4633	0.5772	0.0157	0.164
Mof_H 	H 	0.448	0.5393	0.0203	-0.014
Mof_C 	C 	0.42358	0.8672	0.291	-0.216
Mof_C 	C 	0.37605	0.8717	0.2541	0.433
Mof_C 	C 	0.44407	0.6231	0.9706	-0.206
Mof_C 	C 	0.4669	0.6808	0.9693	0.145
Mof_H 	H 	0.4533	0.717	0.9399	0.002
Mof_C 	C 	0.75536	0.7597	0.2508	0.3
Mof_C 	C 	0.7275	0.6954	0.2208	-0.039
Mof_C 	C 	0.68354	0.7015	0.1911	-0.052
Mof_H 	H 	0.6708	0.7455	0.1904	0.088
Mof_C 	C 	0.6588	0.6414	0.1623	0.024
Mof_O 	O 	0.3539	0.8244	0.2539	-0.231
Mof_O 	O 	0.3606	0.9305	0.2192	-0.109
Mof_O 	O 	0.3541	0.8482	0.2824	-0.108
_end
