# CIF file generated by openbabel 3.1.0, see https://openbabel.org
data_I
_chemical_name_common 'image0'
_cell_length_a 6.0736
_cell_length_b 10.4912
_cell_length_c 13.579
_cell_angle_alpha 72.133
_cell_angle_beta 89.023
_cell_angle_gamma 89.009
_space_group_name_H-M_alt 'P 1'
_space_group_name_Hall 'P 1'
loop_
    _symmetry_equiv_pos_as_xyz
    x,y,z
loop_
    _atom_site_label
    _atom_site_type_symbol
    _atom_site_fract_x
    _atom_site_fract_y
    _atom_site_fract_z
    _atom_site_occupancy
    Nd1      Nd       0.25094    0.66019    0.70838    1.000
    N1       N        0.07840    0.88640    0.57540    1.000
    N2       N        0.43370    0.55680    0.89790    1.000
    N3       N        0.09020    0.57260    0.55910    1.000
    O1       O        0.45410    0.77030    0.54700    1.000
    O2       O        0.06360    0.69950    0.85530    1.000
    O3       O        0.84820    0.64130    0.69930    1.000
    O4       O        0.55980    0.52420    0.67580    1.000
    C1       C        0.18710    0.93930    0.48620    1.000
    C2       C        0.89160    0.94720    0.58930    1.000
    C3       C        0.31670    0.57420    0.97700    1.000
    C4       C        0.61700    0.48180    0.92130    1.000
    C5       C        0.88410    0.52900    0.57440    1.000
    C6       C        0.20650    0.54390    0.48440    1.000
    C7       C        0.39970    0.86900    0.47230    1.000
    C8       C        0.10980    0.65800    0.94980    1.000
    C9       C        0.75400    0.56810    0.65710    1.000
    H1       H        0.81190    0.91330    0.65060    1.000
    H2       H        0.70190    0.46680    0.86820    1.000
    H3       H        0.35080    0.57310    0.47140    1.000
    O5       O        0.50390    0.91230    0.38970    1.000
    O6       O        0.99880    0.68050    0.02010    1.000
    Nd2      Nd       0.74906    0.33981    0.29162    1.000
    N4       N        0.92160    0.11360    0.42460    1.000
    N5       N        0.56630    0.44320    0.10210    1.000
    N6       N        0.90980    0.42740    0.44090    1.000
    O7       O        0.54590    0.22970    0.45300    1.000
    O8       O        0.93640    0.30050    0.14470    1.000
    O9       O        0.15180    0.35870    0.30070    1.000
    O10      O        0.44020    0.47580    0.32420    1.000
    C10      C        0.81290    0.06070    0.51380    1.000
    C11      C        0.10840    0.05280    0.41070    1.000
    C12      C        0.68330    0.42580    0.02300    1.000
    C13      C        0.38300    0.51820    0.07870    1.000
    C14      C        0.11590    0.47100    0.42560    1.000
    C15      C        0.79350    0.45610    0.51560    1.000
    C16      C        0.60030    0.13100    0.52770    1.000
    C17      C        0.89020    0.34200    0.05020    1.000
    C18      C        0.24600    0.43190    0.34290    1.000
    H4       H        0.18810    0.08670    0.34940    1.000
    H5       H        0.29810    0.53320    0.13180    1.000
    H6       H        0.64920    0.42690    0.52860    1.000
    O11      O        0.49610    0.08770    0.61030    1.000
    O12      O        0.00120    0.31950    0.97990    1.000
