# CIF file generated by openbabel 3.1.0, see https://openbabel.org
data_I
_chemical_name_common 'image0'
_cell_length_a 18.198
_cell_length_b 18.198
_cell_length_c 28.872
_cell_angle_alpha 90
_cell_angle_beta 90
_cell_angle_gamma 90
_space_group_name_H-M_alt 'P 1'
_space_group_name_Hall 'P 1'
loop_
    _symmetry_equiv_pos_as_xyz
    x,y,z
loop_
    _atom_site_label
    _atom_site_type_symbol
    _atom_site_fract_x
    _atom_site_fract_y
    _atom_site_fract_z
    _atom_site_occupancy
    Zn1      Zn       0.24231    0.05531    0.39258    1.000
    N1       N        0.18984    0.04091    0.33198    1.000
    N2       N        0.16033    0.02474    0.25905    1.000
    N3       N        0.34931    0.20112    0.10296    1.000
    N4       N        0.25871    0.12373    0.11560    1.000
    N5       N        0.02174    0.82008    0.09785    1.000
    N6       N        0.09739    0.91115    0.11330    1.000
    O1       O        0.16480    0.06970    0.44074    1.000
    O2       O        0.15894    0.95127    0.42864    1.000
    C1       C        0.12910    0.96880    0.18540    1.000
    H1       H        0.10200    0.93320    0.20100    1.000
    C2       C        0.16550    0.02360    0.20947    1.000
    C3       C        0.20690    0.07590    0.18712    1.000
    H2       H        0.23060    0.11280    0.20370    1.000
    C4       C        0.21256    0.07260    0.13923    1.000
    C5       C        0.17530    0.01960    0.11435    1.000
    H3       H        0.17810    0.01840    0.08220    1.000
    C6       C        0.13380    0.96830    0.13785    1.000
    C7       C        0.21120    0.05100    0.28913    1.000
    H4       H        0.25510    0.07310    0.28050    1.000
    C8       C        0.12180    0.00680    0.32901    1.000
    H5       H        0.09290    0.99360    0.35420    1.000
    C9       C        0.10410    0.99560    0.28503    1.000
    H6       H        0.06200    0.97270    0.27390    1.000
    C10      C        0.31450    0.16240    0.13395    1.000
    H7       H        0.32680    0.16170    0.16520    1.000
    C11      C        0.31360    0.18620    0.06185    1.000
    H8       H        0.32590    0.20650    0.03330    1.000
    C12      C        0.25890    0.13830    0.06885    1.000
    H9       H        0.22730    0.11890    0.04660    1.000
    C13      C        0.03770    0.87370    0.12738    1.000
    H10      H        0.01130    0.88400    0.15420    1.000
    C14      C        0.07340    0.82430    0.06326    1.000
    H11      H        0.07570    0.79340    0.03770    1.000
    C15      C        0.12000    0.87980    0.07190    1.000
    H12      H        0.15960    0.89440    0.05370    1.000
    C16      C        0.13380    0.00900    0.44576    1.000
    C17      C        0.06340    0.00500    0.47297    1.000
    C18      C        0.05280    0.05160    0.51061    1.000
    H13      H        0.08800    0.08690    0.51770    1.000
    C19      C        0.99050    0.04570    0.53740    1.000
    Br1      Br       0.99526    0.10591    0.59616    1.000
    H14      H        0.98500    0.07650    0.56420    1.000
    Zn2      Zn       0.25769    0.44469    0.39258    1.000
    N7       N        0.31016    0.45909    0.33198    1.000
    N8       N        0.33967    0.47526    0.25905    1.000
    N9       N        0.15069    0.29888    0.10296    1.000
    N10      N        0.24129    0.37627    0.11560    1.000
    N11      N        0.47826    0.67992    0.09785    1.000
    N12      N        0.40261    0.58885    0.11330    1.000
    O3       O        0.33520    0.43030    0.44074    1.000
    O4       O        0.34106    0.54873    0.42864    1.000
    C20      C        0.37090    0.53120    0.18540    1.000
    H15      H        0.39800    0.56680    0.20100    1.000
    C21      C        0.33450    0.47640    0.20947    1.000
    C22      C        0.29310    0.42410    0.18712    1.000
    H16      H        0.26940    0.38720    0.20370    1.000
    C23      C        0.28744    0.42740    0.13923    1.000
    C24      C        0.32470    0.48040    0.11435    1.000
    H17      H        0.32190    0.48160    0.08220    1.000
    C25      C        0.36620    0.53170    0.13785    1.000
    C26      C        0.28880    0.44900    0.28913    1.000
    H18      H        0.24490    0.42690    0.28050    1.000
    C27      C        0.37820    0.49320    0.32901    1.000
    H19      H        0.40710    0.50640    0.35420    1.000
    C28      C        0.39590    0.50440    0.28503    1.000
    H20      H        0.43800    0.52730    0.27390    1.000
    C29      C        0.18550    0.33760    0.13395    1.000
    H21      H        0.17320    0.33830    0.16520    1.000
    C30      C        0.18640    0.31380    0.06185    1.000
    H22      H        0.17410    0.29350    0.03330    1.000
    C31      C        0.24110    0.36170    0.06885    1.000
    H23      H        0.27270    0.38110    0.04660    1.000
    C32      C        0.46230    0.62630    0.12738    1.000
    H24      H        0.48870    0.61600    0.15420    1.000
    C33      C        0.42660    0.67570    0.06326    1.000
    H25      H        0.42430    0.70660    0.03770    1.000
    C34      C        0.38000    0.62020    0.07190    1.000
    H26      H        0.34040    0.60560    0.05370    1.000
    C35      C        0.36620    0.49100    0.44576    1.000
    C36      C        0.43660    0.49500    0.47297    1.000
    C37      C        0.44720    0.44840    0.51061    1.000
    H27      H        0.41200    0.41310    0.51770    1.000
    C38      C        0.50950    0.45430    0.53740    1.000
    Br2      Br       0.50474    0.39409    0.59616    1.000
    H28      H        0.51500    0.42350    0.56420    1.000
    Zn3      Zn       0.44469    0.24231    0.89258    1.000
    N13      N        0.45909    0.18984    0.83198    1.000
    N14      N        0.47526    0.16033    0.75905    1.000
    N15      N        0.29888    0.34931    0.60296    1.000
    N16      N        0.37627    0.25871    0.61560    1.000
    N17      N        0.67992    0.02174    0.59785    1.000
    N18      N        0.58885    0.09739    0.61330    1.000
    O5       O        0.43030    0.16480    0.94074    1.000
    O6       O        0.54873    0.15894    0.92864    1.000
    C39      C        0.53120    0.12910    0.68540    1.000
    H29      H        0.56680    0.10200    0.70100    1.000
    C40      C        0.47640    0.16550    0.70947    1.000
    C41      C        0.42410    0.20690    0.68712    1.000
    H30      H        0.38720    0.23060    0.70370    1.000
    C42      C        0.42740    0.21256    0.63923    1.000
    C43      C        0.48040    0.17530    0.61435    1.000
    H31      H        0.48160    0.17810    0.58220    1.000
    C44      C        0.53170    0.13380    0.63785    1.000
    C45      C        0.44900    0.21120    0.78913    1.000
    H32      H        0.42690    0.25510    0.78050    1.000
    C46      C        0.49320    0.12180    0.82901    1.000
    H33      H        0.50640    0.09290    0.85420    1.000
    C47      C        0.50440    0.10410    0.78503    1.000
    H34      H        0.52730    0.06200    0.77390    1.000
    C48      C        0.33760    0.31450    0.63395    1.000
    H35      H        0.33830    0.32680    0.66520    1.000
    C49      C        0.31380    0.31360    0.56185    1.000
    H36      H        0.29350    0.32590    0.53330    1.000
    C50      C        0.36170    0.25890    0.56885    1.000
    H37      H        0.38110    0.22730    0.54660    1.000
    C51      C        0.62630    0.03770    0.62738    1.000
    H38      H        0.61600    0.01130    0.65420    1.000
    C52      C        0.67570    0.07340    0.56326    1.000
    H39      H        0.70660    0.07570    0.53770    1.000
    C53      C        0.62020    0.12000    0.57190    1.000
    H40      H        0.60560    0.15960    0.55370    1.000
    C54      C        0.49100    0.13380    0.94576    1.000
    C55      C        0.49500    0.06340    0.97297    1.000
    C56      C        0.44840    0.05280    0.01061    1.000
    H41      H        0.41310    0.08800    0.01770    1.000
    C57      C        0.45430    0.99050    0.03740    1.000
    Br3      Br       0.39409    0.99526    0.09616    1.000
    H42      H        0.42350    0.98500    0.06420    1.000
    Zn4      Zn       0.05531    0.25769    0.89258    1.000
    N19      N        0.04091    0.31016    0.83198    1.000
    N20      N        0.02474    0.33967    0.75905    1.000
    N21      N        0.20112    0.15069    0.60296    1.000
    N22      N        0.12373    0.24129    0.61560    1.000
    N23      N        0.82008    0.47826    0.59785    1.000
    N24      N        0.91115    0.40261    0.61330    1.000
    O7       O        0.06970    0.33520    0.94074    1.000
    O8       O        0.95127    0.34106    0.92864    1.000
    C58      C        0.96880    0.37090    0.68540    1.000
    H43      H        0.93320    0.39800    0.70100    1.000
    C59      C        0.02360    0.33450    0.70947    1.000
    C60      C        0.07590    0.29310    0.68712    1.000
    H44      H        0.11280    0.26940    0.70370    1.000
    C61      C        0.07260    0.28744    0.63923    1.000
    C62      C        0.01960    0.32470    0.61435    1.000
    H45      H        0.01840    0.32190    0.58220    1.000
    C63      C        0.96830    0.36620    0.63785    1.000
    C64      C        0.05100    0.28880    0.78913    1.000
    H46      H        0.07310    0.24490    0.78050    1.000
    C65      C        0.00680    0.37820    0.82901    1.000
    H47      H        0.99360    0.40710    0.85420    1.000
    C66      C        0.99560    0.39590    0.78503    1.000
    H48      H        0.97270    0.43800    0.77390    1.000
    C67      C        0.16240    0.18550    0.63395    1.000
    H49      H        0.16170    0.17320    0.66520    1.000
    C68      C        0.18620    0.18640    0.56185    1.000
    H50      H        0.20650    0.17410    0.53330    1.000
    C69      C        0.13830    0.24110    0.56885    1.000
    H51      H        0.11890    0.27270    0.54660    1.000
    C70      C        0.87370    0.46230    0.62738    1.000
    H52      H        0.88400    0.48870    0.65420    1.000
    C71      C        0.82430    0.42660    0.56326    1.000
    H53      H        0.79340    0.42430    0.53770    1.000
    C72      C        0.87980    0.38000    0.57190    1.000
    H54      H        0.89440    0.34040    0.55370    1.000
    C73      C        0.00900    0.36620    0.94576    1.000
    C74      C        0.00500    0.43660    0.97297    1.000
    C75      C        0.05160    0.44720    0.01061    1.000
    H55      H        0.08690    0.41200    0.01770    1.000
    C76      C        0.04570    0.50950    0.03740    1.000
    Br4      Br       0.10591    0.50474    0.09616    1.000
    H56      H        0.07650    0.51500    0.06420    1.000
    Zn5      Zn       0.25769    0.05531    0.60742    1.000
    N25      N        0.31016    0.04091    0.66802    1.000
    N26      N        0.33967    0.02474    0.74095    1.000
    N27      N        0.15069    0.20112    0.89704    1.000
    N28      N        0.24129    0.12373    0.88440    1.000
    N29      N        0.47826    0.82008    0.90215    1.000
    N30      N        0.40261    0.91115    0.88670    1.000
    O9       O        0.33520    0.06970    0.55926    1.000
    O10      O        0.34106    0.95127    0.57136    1.000
    C77      C        0.37090    0.96880    0.81460    1.000
    H57      H        0.39800    0.93320    0.79900    1.000
    C78      C        0.33450    0.02360    0.79053    1.000
    C79      C        0.29310    0.07590    0.81288    1.000
    H58      H        0.26940    0.11280    0.79630    1.000
    C80      C        0.28744    0.07260    0.86077    1.000
    C81      C        0.32470    0.01960    0.88565    1.000
    H59      H        0.32190    0.01840    0.91780    1.000
    C82      C        0.36620    0.96830    0.86215    1.000
    C83      C        0.28880    0.05100    0.71087    1.000
    H60      H        0.24490    0.07310    0.71950    1.000
    C84      C        0.37820    0.00680    0.67099    1.000
    H61      H        0.40710    0.99360    0.64580    1.000
    C85      C        0.39590    0.99560    0.71497    1.000
    H62      H        0.43800    0.97270    0.72610    1.000
    C86      C        0.18550    0.16240    0.86605    1.000
    H63      H        0.17320    0.16170    0.83480    1.000
    C87      C        0.18640    0.18620    0.93815    1.000
    H64      H        0.17410    0.20650    0.96670    1.000
    C88      C        0.24110    0.13830    0.93115    1.000
    H65      H        0.27270    0.11890    0.95340    1.000
    C89      C        0.46230    0.87370    0.87262    1.000
    H66      H        0.48870    0.88400    0.84580    1.000
    C90      C        0.42660    0.82430    0.93674    1.000
    H67      H        0.42430    0.79340    0.96230    1.000
    C91      C        0.38000    0.87980    0.92810    1.000
    H68      H        0.34040    0.89440    0.94630    1.000
    C92      C        0.36620    0.00900    0.55424    1.000
    C93      C        0.43660    0.00500    0.52703    1.000
    C94      C        0.44720    0.05160    0.48939    1.000
    H69      H        0.41200    0.08690    0.48230    1.000
    C95      C        0.50950    0.04570    0.46260    1.000
    Br5      Br       0.50474    0.10591    0.40384    1.000
    H70      H        0.51500    0.07650    0.43580    1.000
    Zn6      Zn       0.24231    0.44469    0.60742    1.000
    N31      N        0.18984    0.45909    0.66802    1.000
    N32      N        0.16033    0.47526    0.74095    1.000
    N33      N        0.34931    0.29888    0.89704    1.000
    N34      N        0.25871    0.37627    0.88440    1.000
    N35      N        0.02174    0.67992    0.90215    1.000
    N36      N        0.09739    0.58885    0.88670    1.000
    O11      O        0.16480    0.43030    0.55926    1.000
    O12      O        0.15894    0.54873    0.57136    1.000
    C96      C        0.12910    0.53120    0.81460    1.000
    H71      H        0.10200    0.56680    0.79900    1.000
    C97      C        0.16550    0.47640    0.79053    1.000
    C98      C        0.20690    0.42410    0.81288    1.000
    H72      H        0.23060    0.38720    0.79630    1.000
    C99      C        0.21256    0.42740    0.86077    1.000
    C100     C        0.17530    0.48040    0.88565    1.000
    H73      H        0.17810    0.48160    0.91780    1.000
    C101     C        0.13380    0.53170    0.86215    1.000
    C102     C        0.21120    0.44900    0.71087    1.000
    H74      H        0.25510    0.42690    0.71950    1.000
    C103     C        0.12180    0.49320    0.67099    1.000
    H75      H        0.09290    0.50640    0.64580    1.000
    C104     C        0.10410    0.50440    0.71497    1.000
    H76      H        0.06200    0.52730    0.72610    1.000
    C105     C        0.31450    0.33760    0.86605    1.000
    H77      H        0.32680    0.33830    0.83480    1.000
    C106     C        0.31360    0.31380    0.93815    1.000
    H78      H        0.32590    0.29350    0.96670    1.000
    C107     C        0.25890    0.36170    0.93115    1.000
    H79      H        0.22730    0.38110    0.95340    1.000
    C108     C        0.03770    0.62630    0.87262    1.000
    H80      H        0.01130    0.61600    0.84580    1.000
    C109     C        0.07340    0.67570    0.93674    1.000
    H81      H        0.07570    0.70660    0.96230    1.000
    C110     C        0.12000    0.62020    0.92810    1.000
    H82      H        0.15960    0.60560    0.94630    1.000
    C111     C        0.13380    0.49100    0.55424    1.000
    C112     C        0.06340    0.49500    0.52703    1.000
    C113     C        0.05280    0.44840    0.48939    1.000
    H83      H        0.08800    0.41310    0.48230    1.000
    C114     C        0.99050    0.45430    0.46260    1.000
    Br6      Br       0.99526    0.39409    0.40384    1.000
    H84      H        0.98500    0.42350    0.43580    1.000
    Zn7      Zn       0.05531    0.24231    0.10742    1.000
    N37      N        0.04091    0.18984    0.16802    1.000
    N38      N        0.02474    0.16033    0.24095    1.000
    N39      N        0.20112    0.34931    0.39704    1.000
    N40      N        0.12373    0.25871    0.38440    1.000
    N41      N        0.82008    0.02174    0.40215    1.000
    N42      N        0.91115    0.09739    0.38670    1.000
    O13      O        0.06970    0.16480    0.05926    1.000
    O14      O        0.95127    0.15894    0.07136    1.000
    C115     C        0.96880    0.12910    0.31460    1.000
    H85      H        0.93320    0.10200    0.29900    1.000
    C116     C        0.02360    0.16550    0.29053    1.000
    C117     C        0.07590    0.20690    0.31288    1.000
    H86      H        0.11280    0.23060    0.29630    1.000
    C118     C        0.07260    0.21256    0.36077    1.000
    C119     C        0.01960    0.17530    0.38565    1.000
    H87      H        0.01840    0.17810    0.41780    1.000
    C120     C        0.96830    0.13380    0.36215    1.000
    C121     C        0.05100    0.21120    0.21087    1.000
    H88      H        0.07310    0.25510    0.21950    1.000
    C122     C        0.00680    0.12180    0.17099    1.000
    H89      H        0.99360    0.09290    0.14580    1.000
    C123     C        0.99560    0.10410    0.21497    1.000
    H90      H        0.97270    0.06200    0.22610    1.000
    C124     C        0.16240    0.31450    0.36605    1.000
    H91      H        0.16170    0.32680    0.33480    1.000
    C125     C        0.18620    0.31360    0.43815    1.000
    H92      H        0.20650    0.32590    0.46670    1.000
    C126     C        0.13830    0.25890    0.43115    1.000
    H93      H        0.11890    0.22730    0.45340    1.000
    C127     C        0.87370    0.03770    0.37262    1.000
    H94      H        0.88400    0.01130    0.34580    1.000
    C128     C        0.82430    0.07340    0.43674    1.000
    H95      H        0.79340    0.07570    0.46230    1.000
    C129     C        0.87980    0.12000    0.42810    1.000
    H96      H        0.89440    0.15960    0.44630    1.000
    C130     C        0.00900    0.13380    0.05424    1.000
    C131     C        0.00500    0.06340    0.02703    1.000
    C132     C        0.05160    0.05280    0.98939    1.000
    H97      H        0.08690    0.08800    0.98230    1.000
    C133     C        0.04570    0.99050    0.96260    1.000
    Br7      Br       0.10591    0.99526    0.90384    1.000
    H98      H        0.07650    0.98500    0.93580    1.000
    Zn8      Zn       0.44469    0.25769    0.10742    1.000
    N43      N        0.45909    0.31016    0.16802    1.000
    N44      N        0.47526    0.33967    0.24095    1.000
    N45      N        0.29888    0.15069    0.39704    1.000
    N46      N        0.37627    0.24129    0.38440    1.000
    N47      N        0.67992    0.47826    0.40215    1.000
    N48      N        0.58885    0.40261    0.38670    1.000
    O15      O        0.43030    0.33520    0.05926    1.000
    O16      O        0.54873    0.34106    0.07136    1.000
    C134     C        0.53120    0.37090    0.31460    1.000
    H99      H        0.56680    0.39800    0.29900    1.000
    C135     C        0.47640    0.33450    0.29053    1.000
    C136     C        0.42410    0.29310    0.31288    1.000
    H100     H        0.38720    0.26940    0.29630    1.000
    C137     C        0.42740    0.28744    0.36077    1.000
    C138     C        0.48040    0.32470    0.38565    1.000
    H101     H        0.48160    0.32190    0.41780    1.000
    C139     C        0.53170    0.36620    0.36215    1.000
    C140     C        0.44900    0.28880    0.21087    1.000
    H102     H        0.42690    0.24490    0.21950    1.000
    C141     C        0.49320    0.37820    0.17099    1.000
    H103     H        0.50640    0.40710    0.14580    1.000
    C142     C        0.50440    0.39590    0.21497    1.000
    H104     H        0.52730    0.43800    0.22610    1.000
    C143     C        0.33760    0.18550    0.36605    1.000
    H105     H        0.33830    0.17320    0.33480    1.000
    C144     C        0.31380    0.18640    0.43815    1.000
    H106     H        0.29350    0.17410    0.46670    1.000
    C145     C        0.36170    0.24110    0.43115    1.000
    H107     H        0.38110    0.27270    0.45340    1.000
    C146     C        0.62630    0.46230    0.37262    1.000
    H108     H        0.61600    0.48870    0.34580    1.000
    C147     C        0.67570    0.42660    0.43674    1.000
    H109     H        0.70660    0.42430    0.46230    1.000
    C148     C        0.62020    0.38000    0.42810    1.000
    H110     H        0.60560    0.34040    0.44630    1.000
    C149     C        0.49100    0.36620    0.05424    1.000
    C150     C        0.49500    0.43660    0.02703    1.000
    C151     C        0.44840    0.44720    0.98939    1.000
    H111     H        0.41310    0.41200    0.98230    1.000
    C152     C        0.45430    0.50950    0.96260    1.000
    Br8      Br       0.39409    0.50474    0.90384    1.000
    H112     H        0.42350    0.51500    0.93580    1.000
    Zn9      Zn       0.75769    0.94469    0.60742    1.000
    N49      N        0.81016    0.95909    0.66802    1.000
    N50      N        0.83967    0.97526    0.74095    1.000
    N51      N        0.65069    0.79888    0.89704    1.000
    N52      N        0.74129    0.87627    0.88440    1.000
    N53      N        0.97826    0.17992    0.90215    1.000
    N54      N        0.90261    0.08885    0.88670    1.000
    O17      O        0.83520    0.93030    0.55926    1.000
    O18      O        0.84106    0.04873    0.57136    1.000
    C153     C        0.87090    0.03120    0.81460    1.000
    H113     H        0.89800    0.06680    0.79900    1.000
    C154     C        0.83450    0.97640    0.79053    1.000
    C155     C        0.79310    0.92410    0.81288    1.000
    H114     H        0.76940    0.88720    0.79630    1.000
    C156     C        0.78744    0.92740    0.86077    1.000
    C157     C        0.82470    0.98040    0.88565    1.000
    H115     H        0.82190    0.98160    0.91780    1.000
    C158     C        0.86620    0.03170    0.86215    1.000
    C159     C        0.78880    0.94900    0.71087    1.000
    H116     H        0.74490    0.92690    0.71950    1.000
    C160     C        0.87820    0.99320    0.67099    1.000
    H117     H        0.90710    0.00640    0.64580    1.000
    C161     C        0.89590    0.00440    0.71497    1.000
    H118     H        0.93800    0.02730    0.72610    1.000
    C162     C        0.68550    0.83760    0.86605    1.000
    H119     H        0.67320    0.83830    0.83480    1.000
    C163     C        0.68640    0.81380    0.93815    1.000
    H120     H        0.67410    0.79350    0.96670    1.000
    C164     C        0.74110    0.86170    0.93115    1.000
    H121     H        0.77270    0.88110    0.95340    1.000
    C165     C        0.96230    0.12630    0.87262    1.000
    H122     H        0.98870    0.11600    0.84580    1.000
    C166     C        0.92660    0.17570    0.93674    1.000
    H123     H        0.92430    0.20660    0.96230    1.000
    C167     C        0.88000    0.12020    0.92810    1.000
    H124     H        0.84040    0.10560    0.94630    1.000
    C168     C        0.86620    0.99100    0.55424    1.000
    C169     C        0.93660    0.99500    0.52703    1.000
    C170     C        0.94720    0.94840    0.48939    1.000
    H125     H        0.91200    0.91310    0.48230    1.000
    C171     C        0.00950    0.95430    0.46260    1.000
    Br9      Br       0.00474    0.89409    0.40384    1.000
    H126     H        0.01500    0.92350    0.43580    1.000
    Zn10     Zn       0.74231    0.55531    0.60742    1.000
    N55      N        0.68984    0.54091    0.66802    1.000
    N56      N        0.66033    0.52474    0.74095    1.000
    N57      N        0.84931    0.70112    0.89704    1.000
    N58      N        0.75871    0.62373    0.88440    1.000
    N59      N        0.52174    0.32008    0.90215    1.000
    N60      N        0.59739    0.41115    0.88670    1.000
    O19      O        0.66480    0.56970    0.55926    1.000
    O20      O        0.65894    0.45127    0.57136    1.000
    C172     C        0.62910    0.46880    0.81460    1.000
    H127     H        0.60200    0.43320    0.79900    1.000
    C173     C        0.66550    0.52360    0.79053    1.000
    C174     C        0.70690    0.57590    0.81288    1.000
    H128     H        0.73060    0.61280    0.79630    1.000
    C175     C        0.71256    0.57260    0.86077    1.000
    C176     C        0.67530    0.51960    0.88565    1.000
    H129     H        0.67810    0.51840    0.91780    1.000
    C177     C        0.63380    0.46830    0.86215    1.000
    C178     C        0.71120    0.55100    0.71087    1.000
    H130     H        0.75510    0.57310    0.71950    1.000
    C179     C        0.62180    0.50680    0.67099    1.000
    H131     H        0.59290    0.49360    0.64580    1.000
    C180     C        0.60410    0.49560    0.71497    1.000
    H132     H        0.56200    0.47270    0.72610    1.000
    C181     C        0.81450    0.66240    0.86605    1.000
    H133     H        0.82680    0.66170    0.83480    1.000
    C182     C        0.81360    0.68620    0.93815    1.000
    H134     H        0.82590    0.70650    0.96670    1.000
    C183     C        0.75890    0.63830    0.93115    1.000
    H135     H        0.72730    0.61890    0.95340    1.000
    C184     C        0.53770    0.37370    0.87262    1.000
    H136     H        0.51130    0.38400    0.84580    1.000
    C185     C        0.57340    0.32430    0.93674    1.000
    H137     H        0.57570    0.29340    0.96230    1.000
    C186     C        0.62000    0.37980    0.92810    1.000
    H138     H        0.65960    0.39440    0.94630    1.000
    C187     C        0.63380    0.50900    0.55424    1.000
    C188     C        0.56340    0.50500    0.52703    1.000
    C189     C        0.55280    0.55160    0.48939    1.000
    H139     H        0.58800    0.58690    0.48230    1.000
    C190     C        0.49050    0.54570    0.46260    1.000
    Br10     Br       0.49526    0.60591    0.40384    1.000
    H140     H        0.48500    0.57650    0.43580    1.000
    Zn11     Zn       0.55531    0.75769    0.10742    1.000
    N61      N        0.54091    0.81016    0.16802    1.000
    N62      N        0.52474    0.83967    0.24095    1.000
    N63      N        0.70112    0.65069    0.39704    1.000
    N64      N        0.62373    0.74129    0.38440    1.000
    N65      N        0.32008    0.97826    0.40215    1.000
    N66      N        0.41115    0.90261    0.38670    1.000
    O21      O        0.56970    0.83520    0.05926    1.000
    O22      O        0.45127    0.84106    0.07136    1.000
    C191     C        0.46880    0.87090    0.31460    1.000
    H141     H        0.43320    0.89800    0.29900    1.000
    C192     C        0.52360    0.83450    0.29053    1.000
    C193     C        0.57590    0.79310    0.31288    1.000
    H142     H        0.61280    0.76940    0.29630    1.000
    C194     C        0.57260    0.78744    0.36077    1.000
    C195     C        0.51960    0.82470    0.38565    1.000
    H143     H        0.51840    0.82190    0.41780    1.000
    C196     C        0.46830    0.86620    0.36215    1.000
    C197     C        0.55100    0.78880    0.21087    1.000
    H144     H        0.57310    0.74490    0.21950    1.000
    C198     C        0.50680    0.87820    0.17099    1.000
    H145     H        0.49360    0.90710    0.14580    1.000
    C199     C        0.49560    0.89590    0.21497    1.000
    H146     H        0.47270    0.93800    0.22610    1.000
    C200     C        0.66240    0.68550    0.36605    1.000
    H147     H        0.66170    0.67320    0.33480    1.000
    C201     C        0.68620    0.68640    0.43815    1.000
    H148     H        0.70650    0.67410    0.46670    1.000
    C202     C        0.63830    0.74110    0.43115    1.000
    H149     H        0.61890    0.77270    0.45340    1.000
    C203     C        0.37370    0.96230    0.37262    1.000
    H150     H        0.38400    0.98870    0.34580    1.000
    C204     C        0.32430    0.92660    0.43674    1.000
    H151     H        0.29340    0.92430    0.46230    1.000
    C205     C        0.37980    0.88000    0.42810    1.000
    H152     H        0.39440    0.84040    0.44630    1.000
    C206     C        0.50900    0.86620    0.05424    1.000
    C207     C        0.50500    0.93660    0.02703    1.000
    C208     C        0.55160    0.94720    0.98939    1.000
    H153     H        0.58690    0.91200    0.98230    1.000
    C209     C        0.54570    0.00950    0.96260    1.000
    Br11     Br       0.60591    0.00474    0.90384    1.000
    H154     H        0.57650    0.01500    0.93580    1.000
    Zn12     Zn       0.94469    0.74231    0.10742    1.000
    N67      N        0.95909    0.68984    0.16802    1.000
    N68      N        0.97526    0.66033    0.24095    1.000
    N69      N        0.79888    0.84931    0.39704    1.000
    N70      N        0.87627    0.75871    0.38440    1.000
    N71      N        0.17992    0.52174    0.40215    1.000
    N72      N        0.08885    0.59739    0.38670    1.000
    O23      O        0.93030    0.66480    0.05926    1.000
    O24      O        0.04873    0.65894    0.07136    1.000
    C210     C        0.03120    0.62910    0.31460    1.000
    H155     H        0.06680    0.60200    0.29900    1.000
    C211     C        0.97640    0.66550    0.29053    1.000
    C212     C        0.92410    0.70690    0.31288    1.000
    H156     H        0.88720    0.73060    0.29630    1.000
    C213     C        0.92740    0.71256    0.36077    1.000
    C214     C        0.98040    0.67530    0.38565    1.000
    H157     H        0.98160    0.67810    0.41780    1.000
    C215     C        0.03170    0.63380    0.36215    1.000
    C216     C        0.94900    0.71120    0.21087    1.000
    H158     H        0.92690    0.75510    0.21950    1.000
    C217     C        0.99320    0.62180    0.17099    1.000
    H159     H        0.00640    0.59290    0.14580    1.000
    C218     C        0.00440    0.60410    0.21497    1.000
    H160     H        0.02730    0.56200    0.22610    1.000
    C219     C        0.83760    0.81450    0.36605    1.000
    H161     H        0.83830    0.82680    0.33480    1.000
    C220     C        0.81380    0.81360    0.43815    1.000
    H162     H        0.79350    0.82590    0.46670    1.000
    C221     C        0.86170    0.75890    0.43115    1.000
    H163     H        0.88110    0.72730    0.45340    1.000
    C222     C        0.12630    0.53770    0.37262    1.000
    H164     H        0.11600    0.51130    0.34580    1.000
    C223     C        0.17570    0.57340    0.43674    1.000
    H165     H        0.20660    0.57570    0.46230    1.000
    C224     C        0.12020    0.62000    0.42810    1.000
    H166     H        0.10560    0.65960    0.44630    1.000
    C225     C        0.99100    0.63380    0.05424    1.000
    C226     C        0.99500    0.56340    0.02703    1.000
    C227     C        0.94840    0.55280    0.98939    1.000
    H167     H        0.91310    0.58800    0.98230    1.000
    C228     C        0.95430    0.49050    0.96260    1.000
    Br12     Br       0.89409    0.49526    0.90384    1.000
    H168     H        0.92350    0.48500    0.93580    1.000
    Zn13     Zn       0.74231    0.94469    0.39258    1.000
    N73      N        0.68984    0.95909    0.33198    1.000
    N74      N        0.66033    0.97526    0.25905    1.000
    N75      N        0.84931    0.79888    0.10296    1.000
    N76      N        0.75871    0.87627    0.11560    1.000
    N77      N        0.52174    0.17992    0.09785    1.000
    N78      N        0.59739    0.08885    0.11330    1.000
    O25      O        0.66480    0.93030    0.44074    1.000
    O26      O        0.65894    0.04873    0.42864    1.000
    C229     C        0.62910    0.03120    0.18540    1.000
    H169     H        0.60200    0.06680    0.20100    1.000
    C230     C        0.66550    0.97640    0.20947    1.000
    C231     C        0.70690    0.92410    0.18712    1.000
    H170     H        0.73060    0.88720    0.20370    1.000
    C232     C        0.71256    0.92740    0.13923    1.000
    C233     C        0.67530    0.98040    0.11435    1.000
    H171     H        0.67810    0.98160    0.08220    1.000
    C234     C        0.63380    0.03170    0.13785    1.000
    C235     C        0.71120    0.94900    0.28913    1.000
    H172     H        0.75510    0.92690    0.28050    1.000
    C236     C        0.62180    0.99320    0.32901    1.000
    H173     H        0.59290    0.00640    0.35420    1.000
    C237     C        0.60410    0.00440    0.28503    1.000
    H174     H        0.56200    0.02730    0.27390    1.000
    C238     C        0.81450    0.83760    0.13395    1.000
    H175     H        0.82680    0.83830    0.16520    1.000
    C239     C        0.81360    0.81380    0.06185    1.000
    H176     H        0.82590    0.79350    0.03330    1.000
    C240     C        0.75890    0.86170    0.06885    1.000
    H177     H        0.72730    0.88110    0.04660    1.000
    C241     C        0.53770    0.12630    0.12738    1.000
    H178     H        0.51130    0.11600    0.15420    1.000
    C242     C        0.57340    0.17570    0.06326    1.000
    H179     H        0.57570    0.20660    0.03770    1.000
    C243     C        0.62000    0.12020    0.07190    1.000
    H180     H        0.65960    0.10560    0.05370    1.000
    C244     C        0.63380    0.99100    0.44576    1.000
    C245     C        0.56340    0.99500    0.47297    1.000
    C246     C        0.55280    0.94840    0.51061    1.000
    H181     H        0.58800    0.91310    0.51770    1.000
    C247     C        0.49050    0.95430    0.53740    1.000
    Br13     Br       0.49526    0.89409    0.59616    1.000
    H182     H        0.48500    0.92350    0.56420    1.000
    Zn14     Zn       0.75769    0.55531    0.39258    1.000
    N79      N        0.81016    0.54091    0.33198    1.000
    N80      N        0.83967    0.52474    0.25905    1.000
    N81      N        0.65069    0.70112    0.10296    1.000
    N82      N        0.74129    0.62373    0.11560    1.000
    N83      N        0.97826    0.32008    0.09785    1.000
    N84      N        0.90261    0.41115    0.11330    1.000
    O27      O        0.83520    0.56970    0.44074    1.000
    O28      O        0.84106    0.45127    0.42864    1.000
    C248     C        0.87090    0.46880    0.18540    1.000
    H183     H        0.89800    0.43320    0.20100    1.000
    C249     C        0.83450    0.52360    0.20947    1.000
    C250     C        0.79310    0.57590    0.18712    1.000
    H184     H        0.76940    0.61280    0.20370    1.000
    C251     C        0.78744    0.57260    0.13923    1.000
    C252     C        0.82470    0.51960    0.11435    1.000
    H185     H        0.82190    0.51840    0.08220    1.000
    C253     C        0.86620    0.46830    0.13785    1.000
    C254     C        0.78880    0.55100    0.28913    1.000
    H186     H        0.74490    0.57310    0.28050    1.000
    C255     C        0.87820    0.50680    0.32901    1.000
    H187     H        0.90710    0.49360    0.35420    1.000
    C256     C        0.89590    0.49560    0.28503    1.000
    H188     H        0.93800    0.47270    0.27390    1.000
    C257     C        0.68550    0.66240    0.13395    1.000
    H189     H        0.67320    0.66170    0.16520    1.000
    C258     C        0.68640    0.68620    0.06185    1.000
    H190     H        0.67410    0.70650    0.03330    1.000
    C259     C        0.74110    0.63830    0.06885    1.000
    H191     H        0.77270    0.61890    0.04660    1.000
    C260     C        0.96230    0.37370    0.12738    1.000
    H192     H        0.98870    0.38400    0.15420    1.000
    C261     C        0.92660    0.32430    0.06326    1.000
    H193     H        0.92430    0.29340    0.03770    1.000
    C262     C        0.88000    0.37980    0.07190    1.000
    H194     H        0.84040    0.39440    0.05370    1.000
    C263     C        0.86620    0.50900    0.44576    1.000
    C264     C        0.93660    0.50500    0.47297    1.000
    C265     C        0.94720    0.55160    0.51061    1.000
    H195     H        0.91200    0.58690    0.51770    1.000
    C266     C        0.00950    0.54570    0.53740    1.000
    Br14     Br       0.00474    0.60591    0.59616    1.000
    H196     H        0.01500    0.57650    0.56420    1.000
    Zn15     Zn       0.94469    0.75769    0.89258    1.000
    N85      N        0.95909    0.81016    0.83198    1.000
    N86      N        0.97526    0.83967    0.75905    1.000
    N87      N        0.79888    0.65069    0.60296    1.000
    N88      N        0.87627    0.74129    0.61560    1.000
    N89      N        0.17992    0.97826    0.59785    1.000
    N90      N        0.08885    0.90261    0.61330    1.000
    O29      O        0.93030    0.83520    0.94074    1.000
    O30      O        0.04873    0.84106    0.92864    1.000
    C267     C        0.03120    0.87090    0.68540    1.000
    H197     H        0.06680    0.89800    0.70100    1.000
    C268     C        0.97640    0.83450    0.70947    1.000
    C269     C        0.92410    0.79310    0.68712    1.000
    H198     H        0.88720    0.76940    0.70370    1.000
    C270     C        0.92740    0.78744    0.63923    1.000
    C271     C        0.98040    0.82470    0.61435    1.000
    H199     H        0.98160    0.82190    0.58220    1.000
    C272     C        0.03170    0.86620    0.63785    1.000
    C273     C        0.94900    0.78880    0.78913    1.000
    H200     H        0.92690    0.74490    0.78050    1.000
    C274     C        0.99320    0.87820    0.82901    1.000
    H201     H        0.00640    0.90710    0.85420    1.000
    C275     C        0.00440    0.89590    0.78503    1.000
    H202     H        0.02730    0.93800    0.77390    1.000
    C276     C        0.83760    0.68550    0.63395    1.000
    H203     H        0.83830    0.67320    0.66520    1.000
    C277     C        0.81380    0.68640    0.56185    1.000
    H204     H        0.79350    0.67410    0.53330    1.000
    C278     C        0.86170    0.74110    0.56885    1.000
    H205     H        0.88110    0.77270    0.54660    1.000
    C279     C        0.12630    0.96230    0.62738    1.000
    H206     H        0.11600    0.98870    0.65420    1.000
    C280     C        0.17570    0.92660    0.56326    1.000
    H207     H        0.20660    0.92430    0.53770    1.000
    C281     C        0.12020    0.88000    0.57190    1.000
    H208     H        0.10560    0.84040    0.55370    1.000
    C282     C        0.99100    0.86620    0.94576    1.000
    C283     C        0.99500    0.93660    0.97297    1.000
    C284     C        0.94840    0.94720    0.01061    1.000
    H209     H        0.91310    0.91200    0.01770    1.000
    C285     C        0.95430    0.00950    0.03740    1.000
    Br15     Br       0.89409    0.00474    0.09616    1.000
    H210     H        0.92350    0.01500    0.06420    1.000
    Zn16     Zn       0.55531    0.74231    0.89258    1.000
    N91      N        0.54091    0.68984    0.83198    1.000
    N92      N        0.52474    0.66033    0.75905    1.000
    N93      N        0.70112    0.84931    0.60296    1.000
    N94      N        0.62373    0.75871    0.61560    1.000
    N95      N        0.32008    0.52174    0.59785    1.000
    N96      N        0.41115    0.59739    0.61330    1.000
    O31      O        0.56970    0.66480    0.94074    1.000
    O32      O        0.45127    0.65894    0.92864    1.000
    C286     C        0.46880    0.62910    0.68540    1.000
    H211     H        0.43320    0.60200    0.70100    1.000
    C287     C        0.52360    0.66550    0.70947    1.000
    C288     C        0.57590    0.70690    0.68712    1.000
    H212     H        0.61280    0.73060    0.70370    1.000
    C289     C        0.57260    0.71256    0.63923    1.000
    C290     C        0.51960    0.67530    0.61435    1.000
    H213     H        0.51840    0.67810    0.58220    1.000
    C291     C        0.46830    0.63380    0.63785    1.000
    C292     C        0.55100    0.71120    0.78913    1.000
    H214     H        0.57310    0.75510    0.78050    1.000
    C293     C        0.50680    0.62180    0.82901    1.000
    H215     H        0.49360    0.59290    0.85420    1.000
    C294     C        0.49560    0.60410    0.78503    1.000
    H216     H        0.47270    0.56200    0.77390    1.000
    C295     C        0.66240    0.81450    0.63395    1.000
    H217     H        0.66170    0.82680    0.66520    1.000
    C296     C        0.68620    0.81360    0.56185    1.000
    H218     H        0.70650    0.82590    0.53330    1.000
    C297     C        0.63830    0.75890    0.56885    1.000
    H219     H        0.61890    0.72730    0.54660    1.000
    C298     C        0.37370    0.53770    0.62738    1.000
    H220     H        0.38400    0.51130    0.65420    1.000
    C299     C        0.32430    0.57340    0.56326    1.000
    H221     H        0.29340    0.57570    0.53770    1.000
    C300     C        0.37980    0.62000    0.57190    1.000
    H222     H        0.39440    0.65960    0.55370    1.000
    C301     C        0.50900    0.63380    0.94576    1.000
    C302     C        0.50500    0.56340    0.97297    1.000
    C303     C        0.55160    0.55280    0.01061    1.000
    H223     H        0.58690    0.58800    0.01770    1.000
    C304     C        0.54570    0.49050    0.03740    1.000
    Br16     Br       0.60591    0.49526    0.09616    1.000
    H224     H        0.57650    0.48500    0.06420    1.000
