data_functionalizedCrystal
_audit_creation_method	'EQeq! by Chris Wilmer'
_symmetry_space_group_name_H-M	'P1'
_symmetry_Int_Tables_number	1
_symmetry_cell_setting	triclinic
loop_
_symmetry_equiv_pos_as_xyz
  x,y,z
_cell_length_a	7.1862
_cell_length_b	13.4836
_cell_length_c	13.4836
_cell_angle_alpha	119.431
_cell_angle_beta	97.5329
_cell_angle_gamma	82.4671
loop_
_atom_site_label
_atom_site_type_symbol
_atom_site_fract_x
_atom_site_fract_y
_atom_site_fract_z
_atom_site_charge
Mof_Ba	Ba	0.10959	0.33181	0.84871	1.772
Mof_Ba	Ba	0.39041	0.84871	0.33181	1.794
Mof_Ba	Ba	0.89041	0.66819	0.15129	1.772
Mof_Ba	Ba	0.60959	0.15129	0.66819	1.794
Mof_Ba	Ba	0.25	0.10062	0.10062	1.588
Mof_Ba	Ba	0.75	0.89938	0.89938	1.588
Mof_P 	P 	0.64534	0.43978	0.85432	0.472
Mof_P 	P 	0.10205	0.80278	0.03416	0.454
Mof_P 	P 	0.85466	0.85432	0.43978	0.471
Mof_P 	P 	0.39795	0.03416	0.80278	0.447
Mof_P 	P 	0.35466	0.56022	0.14568	0.472
Mof_P 	P 	0.89795	0.19722	0.96584	0.454
Mof_P 	P 	0.14534	0.14568	0.56022	0.471
Mof_P 	P 	0.60205	0.96584	0.19722	0.447
Mof_H 	H 	0.622	0.606	0.876	0.171
Mof_H 	H 	0.473	0.558	0.79	0.15
Mof_H 	H 	0.27	0.728	0.874	0.005
Mof_H 	H 	0.399	0.792	0.986	0.03
Mof_H 	H 	0.878	0.876	0.606	0.18
Mof_H 	H 	0.027	0.79	0.558	0.163
Mof_H 	H 	0.23	0.874	0.728	0.004
Mof_H 	H 	0.101	0.986	0.792	0.028
Mof_H 	H 	0.378	0.394	0.124	0.171
Mof_H 	H 	0.527	0.442	0.21	0.15
Mof_H 	H 	0.73	0.272	0.126	0.005
Mof_H 	H 	0.601	0.208	0.014	0.03
Mof_H 	H 	0.122	0.124	0.394	0.18
Mof_H 	H 	0.973	0.21	0.442	0.163
Mof_H 	H 	0.77	0.126	0.272	0.004
Mof_H 	H 	0.899	0.014	0.208	0.028
Mof_C 	C 	0.5312	0.5692	0.8558	-0.485
Mof_C 	C 	0.3075	0.73885	0.95115	-0.202
Mof_C 	C 	0.9688	0.8558	0.5692	-0.512
Mof_C 	C 	0.1925	0.95115	0.73885	-0.195
Mof_C 	C 	0.4688	0.4308	0.1442	-0.485
Mof_C 	C 	0.6925	0.26115	0.04885	-0.202
Mof_C 	C 	0.0312	0.1442	0.4308	-0.512
Mof_C 	C 	0.8075	0.04885	0.26115	-0.195
Mof_N 	N 	0.39	0.62832	0.94268	-0.072
Mof_N 	N 	0.11	0.94268	0.62832	-0.067
Mof_N 	N 	0.61	0.37168	0.05732	-0.072
Mof_N 	N 	0.89	0.05732	0.37168	-0.067
Mof_O 	O 	0.7901	0.47637	0.95603	-0.525
Mof_O 	O 	0.49	0.37629	0.85991	-0.465
Mof_O 	O 	0.7382	0.37257	0.74143	-0.515
Mof_O 	O 	0.1475	0.80695	0.14845	-0.534
Mof_O 	O 	0.0709	0.91848	0.03852	-0.559
Mof_O 	O 	0.9369	0.73059	0.96601	-0.493
Mof_O 	O 	0.7099	0.95603	0.47637	-0.532
Mof_O 	O 	0.01	0.85991	0.37629	-0.46
Mof_O 	O 	0.7618	0.74143	0.37257	-0.517
Mof_O 	O 	0.3525	0.14845	0.80695	-0.537
Mof_O 	O 	0.4291	0.03852	0.91848	-0.565
Mof_O 	O 	0.5631	0.96601	0.73059	-0.494
Mof_O 	O 	0.2099	0.52363	0.04397	-0.525
Mof_O 	O 	0.51	0.62371	0.14009	-0.465
Mof_O 	O 	0.2618	0.62743	0.25857	-0.515
Mof_O 	O 	0.8525	0.19305	0.85155	-0.534
Mof_O 	O 	0.9291	0.08152	0.96148	-0.559
Mof_O 	O 	0.0631	0.26941	0.03399	-0.493
Mof_O 	O 	0.2901	0.04397	0.52363	-0.532
Mof_O 	O 	0.99	0.14009	0.62371	-0.46
Mof_O 	O 	0.2382	0.25857	0.62743	-0.517
Mof_O 	O 	0.6475	0.85155	0.19305	-0.537
Mof_O 	O 	0.5709	0.96148	0.08152	-0.565
Mof_O 	O 	0.4369	0.03399	0.26941	-0.494
_end
