# CIF file generated by openbabel 3.1.0, see https://openbabel.org
data_I
_chemical_name_common 'image0'
_cell_length_a 15.1129
_cell_length_b 12.4966
_cell_length_c 16.848
_cell_angle_alpha 90
_cell_angle_beta 90
_cell_angle_gamma 90
_space_group_name_H-M_alt 'P 1'
_space_group_name_Hall 'P 1'
loop_
    _symmetry_equiv_pos_as_xyz
    x,y,z
loop_
    _atom_site_label
    _atom_site_type_symbol
    _atom_site_fract_x
    _atom_site_fract_y
    _atom_site_fract_z
    _atom_site_occupancy
    Cd1      Cd       0.10359    0.01264    0.42593    1.000
    O1       O        0.20860    0.86510    0.45120    1.000
    O2       O        0.20300    0.00680    0.52570    1.000
    O3       O        0.48070    0.62430    0.50560    1.000
    O4       O        0.49800    0.58470    0.63300    1.000
    O5       O        0.40470    0.84880    0.83440    1.000
    O6       O        0.32550    0.98720    0.79790    1.000
    C1       C        0.23200    0.91580    0.51020    1.000
    C2       C        0.29760    0.86710    0.56660    1.000
    C3       C        0.34790    0.77920    0.54590    1.000
    H1       H        0.34430    0.75230    0.49450    1.000
    C4       C        0.46430    0.63970    0.57750    1.000
    C5       C        0.40450    0.72960    0.60090    1.000
    C6       C        0.40750    0.76900    0.67830    1.000
    H2       H        0.44360    0.73600    0.71570    1.000
    C7       C        0.36180    0.90060    0.78380    1.000
    C8       C        0.35710    0.85720    0.70000    1.000
    C9       C        0.30390    0.90690    0.64390    1.000
    H3       H        0.27200    0.96770    0.65790    1.000
    Cd2      Cd       0.39641    0.98736    0.92593    1.000
    O7       O        0.29140    0.13490    0.95120    1.000
    O8       O        0.29700    0.99320    0.02570    1.000
    O9       O        0.01930    0.37570    0.00560    1.000
    O10      O        0.00200    0.41530    0.13300    1.000
    O11      O        0.09530    0.15120    0.33440    1.000
    O12      O        0.17450    0.01280    0.29790    1.000
    C10      C        0.26800    0.08420    0.01020    1.000
    C11      C        0.20240    0.13290    0.06660    1.000
    C12      C        0.15210    0.22080    0.04590    1.000
    H4       H        0.15570    0.24770    0.99450    1.000
    C13      C        0.03570    0.36030    0.07750    1.000
    C14      C        0.09550    0.27040    0.10090    1.000
    C15      C        0.09250    0.23100    0.17830    1.000
    H5       H        0.05640    0.26400    0.21570    1.000
    C16      C        0.13820    0.09940    0.28380    1.000
    C17      C        0.14290    0.14280    0.20000    1.000
    C18      C        0.19610    0.09310    0.14390    1.000
    H6       H        0.22800    0.03230    0.15790    1.000
    Cd3      Cd       0.89641    0.51264    0.07407    1.000
    O13      O        0.79140    0.36510    0.04880    1.000
    O14      O        0.79700    0.50680    0.97430    1.000
    O15      O        0.51930    0.12430    0.99440    1.000
    O16      O        0.50200    0.08470    0.86700    1.000
    O17      O        0.59530    0.34880    0.66560    1.000
    O18      O        0.67450    0.48720    0.70210    1.000
    C19      C        0.76800    0.41580    0.98980    1.000
    C20      C        0.70240    0.36710    0.93340    1.000
    C21      C        0.65210    0.27920    0.95410    1.000
    H7       H        0.65570    0.25230    0.00550    1.000
    C22      C        0.53570    0.13970    0.92250    1.000
    C23      C        0.59550    0.22960    0.89910    1.000
    C24      C        0.59250    0.26900    0.82170    1.000
    H8       H        0.55640    0.23600    0.78430    1.000
    C25      C        0.63820    0.40060    0.71620    1.000
    C26      C        0.64290    0.35720    0.80000    1.000
    C27      C        0.69610    0.40690    0.85610    1.000
    H9       H        0.72800    0.46770    0.84210    1.000
    Cd4      Cd       0.60359    0.48736    0.57407    1.000
    O19      O        0.70860    0.63490    0.54880    1.000
    O20      O        0.70300    0.49320    0.47430    1.000
    O21      O        0.98070    0.87570    0.49440    1.000
    O22      O        0.99800    0.91530    0.36700    1.000
    O23      O        0.90470    0.65120    0.16560    1.000
    O24      O        0.82550    0.51280    0.20210    1.000
    C28      C        0.73200    0.58420    0.48980    1.000
    C29      C        0.79760    0.63290    0.43340    1.000
    C30      C        0.84790    0.72080    0.45410    1.000
    H10      H        0.84430    0.74770    0.50550    1.000
    C31      C        0.96430    0.86030    0.42250    1.000
    C32      C        0.90450    0.77040    0.39910    1.000
    C33      C        0.90750    0.73100    0.32170    1.000
    H11      H        0.94360    0.76400    0.28430    1.000
    C34      C        0.86180    0.59940    0.21620    1.000
    C35      C        0.85710    0.64280    0.30000    1.000
    C36      C        0.80390    0.59310    0.35610    1.000
    H12      H        0.77200    0.53230    0.34210    1.000
    Cd5      Cd       0.89641    0.98736    0.57407    1.000
    O25      O        0.79140    0.13490    0.54880    1.000
    O26      O        0.79700    0.99320    0.47430    1.000
    O27      O        0.51930    0.37570    0.49440    1.000
    O28      O        0.50200    0.41530    0.36700    1.000
    O29      O        0.59530    0.15120    0.16560    1.000
    O30      O        0.67450    0.01280    0.20210    1.000
    C37      C        0.76800    0.08420    0.48980    1.000
    C38      C        0.70240    0.13290    0.43340    1.000
    C39      C        0.65210    0.22080    0.45410    1.000
    H13      H        0.65570    0.24770    0.50550    1.000
    C40      C        0.53570    0.36030    0.42250    1.000
    C41      C        0.59550    0.27040    0.39910    1.000
    C42      C        0.59250    0.23100    0.32170    1.000
    H14      H        0.55640    0.26400    0.28430    1.000
    C43      C        0.63820    0.09940    0.21620    1.000
    C44      C        0.64290    0.14280    0.30000    1.000
    C45      C        0.69610    0.09310    0.35610    1.000
    H15      H        0.72800    0.03230    0.34210    1.000
    Cd6      Cd       0.60359    0.01264    0.07407    1.000
    O31      O        0.70860    0.86510    0.04880    1.000
    O32      O        0.70300    0.00680    0.97430    1.000
    O33      O        0.98070    0.62430    0.99440    1.000
    O34      O        0.99800    0.58470    0.86700    1.000
    O35      O        0.90470    0.84880    0.66560    1.000
    O36      O        0.82550    0.98720    0.70210    1.000
    C46      C        0.73200    0.91580    0.98980    1.000
    C47      C        0.79760    0.86710    0.93340    1.000
    C48      C        0.84790    0.77920    0.95410    1.000
    H16      H        0.84430    0.75230    0.00550    1.000
    C49      C        0.96430    0.63970    0.92250    1.000
    C50      C        0.90450    0.72960    0.89910    1.000
    C51      C        0.90750    0.76900    0.82170    1.000
    H17      H        0.94360    0.73600    0.78430    1.000
    C52      C        0.86180    0.90060    0.71620    1.000
    C53      C        0.85710    0.85720    0.80000    1.000
    C54      C        0.80390    0.90690    0.85610    1.000
    H18      H        0.77200    0.96770    0.84210    1.000
    Cd7      Cd       0.10359    0.48736    0.92593    1.000
    O37      O        0.20860    0.63490    0.95120    1.000
    O38      O        0.20300    0.49320    0.02570    1.000
    O39      O        0.48070    0.87570    0.00560    1.000
    O40      O        0.49800    0.91530    0.13300    1.000
    O41      O        0.40470    0.65120    0.33440    1.000
    O42      O        0.32550    0.51280    0.29790    1.000
    C55      C        0.23200    0.58420    0.01020    1.000
    C56      C        0.29760    0.63290    0.06660    1.000
    C57      C        0.34790    0.72080    0.04590    1.000
    H19      H        0.34430    0.74770    0.99450    1.000
    C58      C        0.46430    0.86030    0.07750    1.000
    C59      C        0.40450    0.77040    0.10090    1.000
    C60      C        0.40750    0.73100    0.17830    1.000
    H20      H        0.44360    0.76400    0.21570    1.000
    C61      C        0.36180    0.59940    0.28380    1.000
    C62      C        0.35710    0.64280    0.20000    1.000
    C63      C        0.30390    0.59310    0.14390    1.000
    H21      H        0.27200    0.53230    0.15790    1.000
    Cd8      Cd       0.39641    0.51264    0.42593    1.000
    O43      O        0.29140    0.36510    0.45120    1.000
    O44      O        0.29700    0.50680    0.52570    1.000
    O45      O        0.01930    0.12430    0.50560    1.000
    O46      O        0.00200    0.08470    0.63300    1.000
    O47      O        0.09530    0.34880    0.83440    1.000
    O48      O        0.17450    0.48720    0.79790    1.000
    C64      C        0.26800    0.41580    0.51020    1.000
    C65      C        0.20240    0.36710    0.56660    1.000
    C66      C        0.15210    0.27920    0.54590    1.000
    H22      H        0.15570    0.25230    0.49450    1.000
    C67      C        0.03570    0.13970    0.57750    1.000
    C68      C        0.09550    0.22960    0.60090    1.000
    C69      C        0.09250    0.26900    0.67830    1.000
    H23      H        0.05640    0.23600    0.71570    1.000
    C70      C        0.13820    0.40060    0.78380    1.000
    C71      C        0.14290    0.35720    0.70000    1.000
    C72      C        0.19610    0.40690    0.64390    1.000
    H24      H        0.22800    0.46770    0.65790    1.000
