data_functionalizedCrystal
_audit_creation_method	'EQeq! by Chris Wilmer'
_symmetry_space_group_name_H-M	'P1'
_symmetry_Int_Tables_number	1
_symmetry_cell_setting	triclinic
loop_
_symmetry_equiv_pos_as_xyz
  x,y,z
_cell_length_a	10.2105
_cell_length_b	10.2105
_cell_length_c	31.2223
_cell_angle_alpha	90
_cell_angle_beta	90
_cell_angle_gamma	120
loop_
_atom_site_label
_atom_site_type_symbol
_atom_site_fract_x
_atom_site_fract_y
_atom_site_fract_z
_atom_site_charge
Mof_O 	O 	0.28224	0.19255	0.02156	-0.447
Mof_O 	O 	0.16627	0.01084	0.06913	-0.626
Mof_O 	O 	0.25472	0.25039	0.13081	-0.481
Mof_O 	O 	0.49572	0.35542	0.14837	-0.556
Mof_C 	C 	0.28158	0.13215	0.05631	0.577
Mof_C 	C 	0.41735	0.20646	0.08514	-0.792
Mof_H 	H 	0.446	0.135	0.0958	0.244
Mof_H 	H 	0.5	0.285	0.0703	0.269
Mof_C 	C 	0.38616	0.27459	0.12442	0.623
Mof_O 	O 	0.94891	0.52588	0.35489	-0.453
Mof_O 	O 	0.83294	0.34417	0.40246	-0.641
Mof_O 	O 	0.92139	0.58372	0.46414	-0.422
Mof_O 	O 	0.16239	0.68875	0.4817	-0.556
Mof_C 	C 	0.94825	0.46548	0.38964	0.704
Mof_C 	C 	0.08402	0.53979	0.41847	-0.915
Mof_H 	H 	0.11267	0.46833	0.42913	0.27
Mof_H 	H 	0.16667	0.61833	0.40363	0.298
Mof_C 	C 	0.05283	0.60792	0.45775	0.546
Mof_O 	O 	0.61557	0.85922	0.68823	-0.449
Mof_O 	O 	0.4996	0.67751	0.7358	-0.639
Mof_O 	O 	0.58805	0.91706	0.79748	-0.516
Mof_O 	O 	0.82905	0.02209	0.81504	-0.572
Mof_C 	C 	0.61491	0.79882	0.72298	0.65
Mof_C 	C 	0.75068	0.87313	0.75181	-0.927
Mof_H 	H 	0.77933	0.80167	0.76247	0.332
Mof_H 	H 	0.83333	0.95167	0.73697	0.382
Mof_C 	C 	0.71949	0.94126	0.79109	0.789
Mof_O 	O 	0.80745	0.08969	0.02156	-0.427
Mof_O 	O 	0.98916	0.15543	0.06913	-0.449
Mof_O 	O 	0.74961	0.00433	0.13081	-0.488
Mof_O 	O 	0.64458	0.1403	0.14837	-0.578
Mof_C 	C 	0.86785	0.14943	0.05631	0.575
Mof_C 	C 	0.79354	0.21089	0.08514	-0.788
Mof_H 	H 	0.865	0.311	0.0958	0.286
Mof_H 	H 	0.715	0.215	0.0703	0.265
Mof_C 	C 	0.72541	0.11157	0.12442	0.632
Mof_O 	O 	0.47412	0.42302	0.35489	-0.48
Mof_O 	O 	0.65583	0.48876	0.40246	-0.624
Mof_O 	O 	0.41628	0.33766	0.46414	-0.545
Mof_O 	O 	0.31125	0.47363	0.4817	-0.582
Mof_C 	C 	0.53452	0.48276	0.38964	0.609
Mof_C 	C 	0.46021	0.54422	0.41847	-0.823
Mof_H 	H 	0.53167	0.64433	0.42913	0.281
Mof_H 	H 	0.38167	0.54833	0.40363	0.275
Mof_C 	C 	0.39208	0.4449	0.45775	0.648
Mof_O 	O 	0.14078	0.75636	0.68823	-0.473
Mof_O 	O 	0.32249	0.8221	0.7358	-0.609
Mof_O 	O 	0.08294	0.671	0.79748	-0.494
Mof_O 	O 	0.97791	0.80697	0.81504	-0.317
Mof_C 	C 	0.20118	0.8161	0.72298	0.582
Mof_C 	C 	0.12687	0.87756	0.75181	-0.721
Mof_H 	H 	0.19833	0.97767	0.76247	0.277
Mof_H 	H 	0.04833	0.88167	0.73697	0.237
Mof_C 	C 	0.05874	0.77824	0.79109	0.456
Mof_O 	O 	0.91031	0.71776	0.02156	-0.327
Mof_O 	O 	0.84457	0.83373	0.06913	-0.418
Mof_O 	O 	0.99567	0.74528	0.13081	-0.359
Mof_O 	O 	0.8597	0.50428	0.14837	-0.528
Mof_C 	C 	0.85057	0.71842	0.05631	0.55
Mof_C 	C 	0.78911	0.58265	0.08514	-0.731
Mof_H 	H 	0.689	0.554	0.0958	0.25
Mof_H 	H 	0.785	0.5	0.0703	0.261
Mof_C 	C 	0.88843	0.61384	0.12442	0.603
Mof_O 	O 	0.57698	0.05109	0.35489	-0.475
Mof_O 	O 	0.51124	0.16706	0.40246	-0.628
Mof_O 	O 	0.66234	0.07861	0.46414	-0.596
Mof_O 	O 	0.52637	0.83761	0.4817	-0.567
Mof_C 	C 	0.51724	0.05175	0.38964	0.495
Mof_C 	C 	0.45578	0.91598	0.41847	-0.698
Mof_H 	H 	0.35567	0.88733	0.42913	0.248
Mof_H 	H 	0.45167	0.83333	0.40363	0.258
Mof_C 	C 	0.5551	0.94717	0.45775	0.747
Mof_O 	O 	0.24364	0.38443	0.68823	-0.481
Mof_O 	O 	0.1779	0.5004	0.7358	-0.635
Mof_O 	O 	0.329	0.41195	0.79748	-0.506
Mof_O 	O 	0.19303	0.17095	0.81504	-0.545
Mof_C 	C 	0.1839	0.38509	0.72298	0.563
Mof_C 	C 	0.12244	0.24932	0.75181	-0.737
Mof_H 	H 	0.02233	0.22067	0.76247	0.195
Mof_H 	H 	0.11833	0.16667	0.73697	0.204
Mof_C 	C 	0.22176	0.28051	0.79109	0.599
Mof_O 	O 	0.71776	0.80745	0.97844	-0.335
Mof_O 	O 	0.83373	0.98916	0.93087	-0.369
Mof_O 	O 	0.74528	0.74961	0.86919	-0.405
Mof_O 	O 	0.50428	0.64458	0.85163	-0.551
Mof_C 	C 	0.71842	0.86785	0.94369	0.559
Mof_C 	C 	0.58265	0.79354	0.91486	-0.75
Mof_H 	H 	0.554	0.865	0.9042	0.278
Mof_H 	H 	0.5	0.715	0.9297	0.266
Mof_C 	C 	0.61384	0.72541	0.87558	0.617
Mof_O 	O 	0.38443	0.14078	0.31177	-0.486
Mof_O 	O 	0.5004	0.32249	0.2642	-0.615
Mof_O 	O 	0.41195	0.08294	0.20252	-0.491
Mof_O 	O 	0.17095	0.97791	0.18496	-0.367
Mof_C 	C 	0.38509	0.20118	0.27702	0.543
Mof_C 	C 	0.24932	0.12687	0.24819	-0.652
Mof_H 	H 	0.22067	0.19833	0.23753	0.2
Mof_H 	H 	0.16667	0.04833	0.26303	0.162
Mof_C 	C 	0.28051	0.05874	0.20891	0.425
Mof_O 	O 	0.05109	0.47412	0.64511	-0.487
Mof_O 	O 	0.16706	0.65583	0.59754	-0.62
Mof_O 	O 	0.07861	0.41628	0.53586	-0.625
Mof_O 	O 	0.83761	0.31125	0.5183	-0.581
Mof_C 	C 	0.05175	0.53452	0.61036	0.5
Mof_C 	C 	0.91598	0.46021	0.58153	-0.708
Mof_H 	H 	0.88733	0.53167	0.57087	0.262
Mof_H 	H 	0.83333	0.38167	0.59637	0.257
Mof_C 	C 	0.94717	0.39208	0.54225	0.755
Mof_O 	O 	0.19255	0.91031	0.97844	-0.344
Mof_O 	O 	0.01084	0.84457	0.93087	-0.532
Mof_O 	O 	0.25039	0.99567	0.86919	-0.391
Mof_O 	O 	0.35542	0.8597	0.85163	-0.53
Mof_C 	C 	0.13215	0.85057	0.94369	0.559
Mof_C 	C 	0.20646	0.78911	0.91486	-0.749
Mof_H 	H 	0.135	0.689	0.9042	0.236
Mof_H 	H 	0.285	0.785	0.9297	0.269
Mof_C 	C 	0.27459	0.88843	0.87558	0.607
Mof_O 	O 	0.85922	0.24364	0.31177	-0.462
Mof_O 	O 	0.67751	0.1779	0.2642	-0.648
Mof_O 	O 	0.91706	0.329	0.20252	-0.521
Mof_O 	O 	0.02209	0.19303	0.18496	-0.653
Mof_C 	C 	0.79882	0.1839	0.27702	0.619
Mof_C 	C 	0.87313	0.12244	0.24819	-0.881
Mof_H 	H 	0.80167	0.02233	0.23753	0.265
Mof_H 	H 	0.95167	0.11833	0.26303	0.32
Mof_C 	C 	0.94126	0.22176	0.20891	0.79
Mof_O 	O 	0.52588	0.57698	0.64511	-0.458
Mof_O 	O 	0.34417	0.51124	0.59754	-0.639
Mof_O 	O 	0.58372	0.66234	0.53586	-0.499
Mof_O 	O 	0.68875	0.52637	0.5183	-0.556
Mof_C 	C 	0.46548	0.51724	0.61036	0.597
Mof_C 	C 	0.53979	0.45578	0.58153	-0.803
Mof_H 	H 	0.46833	0.35567	0.57087	0.252
Mof_H 	H 	0.61833	0.45167	0.59637	0.279
Mof_C 	C 	0.60792	0.5551	0.54225	0.647
Mof_O 	O 	0.08969	0.28224	0.97844	-0.453
Mof_O 	O 	0.15543	0.16627	0.93087	-0.574
Mof_O 	O 	0.00433	0.25472	0.86919	-0.528
Mof_O 	O 	0.1403	0.49572	0.85163	-0.58
Mof_C 	C 	0.14943	0.28158	0.94369	0.587
Mof_C 	C 	0.21089	0.41735	0.91486	-0.811
Mof_H 	H 	0.311	0.446	0.9042	0.273
Mof_H 	H 	0.215	0.5	0.9297	0.275
Mof_C 	C 	0.11157	0.38616	0.87558	0.638
Mof_O 	O 	0.75636	0.61557	0.31177	-0.455
Mof_O 	O 	0.8221	0.4996	0.2642	-0.621
Mof_O 	O 	0.671	0.58805	0.20252	-0.506
Mof_O 	O 	0.80697	0.82905	0.18496	-0.422
Mof_C 	C 	0.8161	0.61491	0.27702	0.633
Mof_C 	C 	0.87756	0.75068	0.24819	-0.855
Mof_H 	H 	0.97767	0.77933	0.23753	0.339
Mof_H 	H 	0.88167	0.83333	0.26303	0.345
Mof_C 	C 	0.77824	0.71949	0.20891	0.638
Mof_O 	O 	0.42302	0.94891	0.64511	-0.463
Mof_O 	O 	0.48876	0.83294	0.59754	-0.634
Mof_O 	O 	0.33766	0.92139	0.53586	-0.443
Mof_O 	O 	0.47363	0.16239	0.5183	-0.57
Mof_C 	C 	0.48276	0.94825	0.61036	0.707
Mof_C 	C 	0.54422	0.08402	0.58153	-0.92
Mof_H 	H 	0.64433	0.11267	0.57087	0.285
Mof_H 	H 	0.54833	0.16667	0.59637	0.295
Mof_C 	C 	0.4449	0.05283	0.54225	0.545
Mof_La	La	-0	0	-0	1.474
Mof_La	La	0.66667	0.33333	0.33333	2.219
Mof_La	La	0.33333	0.66667	0.66667	2.219
Mof_La	La	4.47745e-33	8.9549e-33	0.1317	1.806
Mof_La	La	0.66667	0.33333	0.46504	2.516
Mof_La	La	0.33333	0.66667	0.79837	2.5
Mof_La	La	-0	0	0.8683	1.811
Mof_La	La	0.66667	0.33333	0.20163	2.5
Mof_La	La	0.33333	0.66667	0.53496	2.515
_end
