data_functionalizedCrystal
_audit_creation_method	'EQeq! by Chris Wilmer'
_symmetry_space_group_name_H-M	'P1'
_symmetry_Int_Tables_number	1
_symmetry_cell_setting	triclinic
loop_
_symmetry_equiv_pos_as_xyz
  x,y,z
_cell_length_a	10.041
_cell_length_b	9.22
_cell_length_c	10.469
_cell_angle_alpha	90
_cell_angle_beta	91.6
_cell_angle_gamma	90
loop_
_atom_site_label
_atom_site_type_symbol
_atom_site_fract_x
_atom_site_fract_y
_atom_site_fract_z
_atom_site_charge
Mof_Ga	Ga	0.37134	0.09184	0.83895	3.406
Mof_P 	P 	0.5719	0.83365	0.8742	0.985
Mof_O 	O 	0.6867	0.9343	0.8419	-1.159
Mof_O 	O 	0.581	0.6858	0.8104	-1.075
Mof_O 	O 	0.4405	0.9034	0.8317	-1.06
Mof_O 	O 	0.5707	0.8018	0.0182	-1.091
Mof_Ga	Ga	0.87134	0.59184	0.33895	3.405
Mof_P 	P 	0.0719	0.33365	0.3742	0.983
Mof_O 	O 	0.1867	0.4343	0.3419	-1.162
Mof_O 	O 	0.081	0.1858	0.3104	-1.073
Mof_O 	O 	0.9405	0.4034	0.3317	-1.059
Mof_O 	O 	0.0707	0.3018	0.5182	-1.092
Mof_Ga	Ga	0.12866	0.09184	0.16105	3.379
Mof_P 	P 	0.9281	0.83365	0.1258	0.968
Mof_O 	O 	0.8133	0.9343	0.1581	-1.163
Mof_O 	O 	0.919	0.6858	0.1896	-1.075
Mof_O 	O 	0.0595	0.9034	0.1683	-1.04
Mof_O 	O 	0.9293	0.8018	0.9818	-1.084
Mof_Ga	Ga	0.62866	0.59184	0.66105	3.412
Mof_P 	P 	0.4281	0.33365	0.6258	0.986
Mof_O 	O 	0.3133	0.4343	0.6581	-1.163
Mof_O 	O 	0.419	0.1858	0.6896	-1.074
Mof_O 	O 	0.5595	0.4034	0.6683	-1.063
Mof_O 	O 	0.4293	0.3018	0.4818	-1.091
Mof_Ga	Ga	0.62866	0.90816	0.16105	3.406
Mof_P 	P 	0.4281	0.16635	0.1258	0.985
Mof_O 	O 	0.3133	0.0657	0.1581	-1.159
Mof_O 	O 	0.419	0.3142	0.1896	-1.075
Mof_O 	O 	0.5595	0.0966	0.1683	-1.06
Mof_O 	O 	0.4293	0.1982	0.9818	-1.091
Mof_Ga	Ga	0.12866	0.40816	0.66105	3.405
Mof_P 	P 	0.9281	0.66635	0.6258	0.983
Mof_O 	O 	0.8133	0.5657	0.6581	-1.162
Mof_O 	O 	0.919	0.8142	0.6896	-1.073
Mof_O 	O 	0.0595	0.5966	0.6683	-1.059
Mof_O 	O 	0.9293	0.6982	0.4818	-1.092
Mof_Ga	Ga	0.87134	0.90816	0.83895	3.379
Mof_P 	P 	0.0719	0.16635	0.8742	0.968
Mof_O 	O 	0.1867	0.0657	0.8419	-1.163
Mof_O 	O 	0.081	0.3142	0.8104	-1.075
Mof_O 	O 	0.9405	0.0966	0.8317	-1.04
Mof_O 	O 	0.0707	0.1982	0.0182	-1.084
Mof_Ga	Ga	0.37134	0.40816	0.33895	3.412
Mof_P 	P 	0.5719	0.66635	0.3742	0.986
Mof_O 	O 	0.6867	0.5657	0.3419	-1.163
Mof_O 	O 	0.581	0.8142	0.3104	-1.074
Mof_O 	O 	0.4405	0.5966	0.3317	-1.063
Mof_O 	O 	0.5707	0.6982	0.5182	-1.091
_end
