# CIF file generated by openbabel 3.1.0, see https://openbabel.org
data_I
_chemical_name_common 'image0'
_cell_length_a 11.75
_cell_length_b 9.832
_cell_length_c 14.63
_cell_angle_alpha 90
_cell_angle_beta 97.73
_cell_angle_gamma 90
_space_group_name_H-M_alt 'P 1'
_space_group_name_Hall 'P 1'
loop_
    _symmetry_equiv_pos_as_xyz
    x,y,z
loop_
    _atom_site_label
    _atom_site_type_symbol
    _atom_site_fract_x
    _atom_site_fract_y
    _atom_site_fract_z
    _atom_site_occupancy
    C1       C        0.27500    0.14060    0.21870    1.000
    C2       C        0.15000    0.12290    0.22170    1.000
    C3       C        0.09290    0.20860    0.27600    1.000
    H1       H        0.13340    0.27450    0.31260    1.000
    C4       C        0.97580    0.19540    0.27530    1.000
    H2       H        0.93780    0.25230    0.31200    1.000
    C5       C        0.91430    0.09850    0.22050    1.000
    C6       C        0.97200    0.00740    0.16860    1.000
    C7       C        0.08890    0.01960    0.16930    1.000
    H3       H        0.12750    0.95960    0.13510    1.000
    C8       C        0.91470    0.89250    0.10890    1.000
    C9       C        0.78570    0.09270    0.21820    1.000
    O1       O        0.48850    0.96730    0.91120    1.000
    O2       O        0.33970    0.20080    0.28110    1.000
    O3       O        0.31930    0.08870    0.15130    1.000
    O4       O        0.93180    0.76930    0.13410    1.000
    O5       O        0.85910    0.92570    0.03100    1.000
    O6       O        0.73020    0.00490    0.16840    1.000
    O7       O        0.73630    0.17450    0.26370    1.000
    U1       U        0.34567    0.03086    0.99113    1.000
    U2       U        0.47242    0.85483    0.77893    1.000
    C10      C        0.22500    0.64060    0.28130    1.000
    C11      C        0.35000    0.62290    0.27830    1.000
    C12      C        0.40710    0.70860    0.22400    1.000
    H4       H        0.36660    0.77450    0.18740    1.000
    C13      C        0.52420    0.69540    0.22470    1.000
    H5       H        0.56220    0.75230    0.18800    1.000
    C14      C        0.58570    0.59850    0.27950    1.000
    C15      C        0.52800    0.50740    0.33140    1.000
    C16      C        0.41110    0.51960    0.33070    1.000
    H6       H        0.37250    0.45960    0.36490    1.000
    C17      C        0.58530    0.39250    0.39110    1.000
    C18      C        0.71430    0.59270    0.28180    1.000
    O8       O        0.01150    0.46730    0.58880    1.000
    O9       O        0.16030    0.70080    0.21890    1.000
    O10      O        0.18070    0.58870    0.34870    1.000
    O11      O        0.56820    0.26930    0.36590    1.000
    O12      O        0.64090    0.42570    0.46900    1.000
    O13      O        0.76980    0.50490    0.33160    1.000
    O14      O        0.76370    0.67450    0.23630    1.000
    U3       U        0.15433    0.53086    0.50887    1.000
    U4       U        0.02758    0.35483    0.72107    1.000
    C19      C        0.72500    0.85940    0.78130    1.000
    C20      C        0.85000    0.87710    0.77830    1.000
    C21      C        0.90710    0.79140    0.72400    1.000
    H7       H        0.86660    0.72550    0.68740    1.000
    C22      C        0.02420    0.80460    0.72470    1.000
    H8       H        0.06220    0.74770    0.68800    1.000
    C23      C        0.08570    0.90150    0.77950    1.000
    C24      C        0.02800    0.99260    0.83140    1.000
    C25      C        0.91110    0.98040    0.83070    1.000
    H9       H        0.87250    0.04040    0.86490    1.000
    C26      C        0.08530    0.10750    0.89110    1.000
    C27      C        0.21430    0.90730    0.78180    1.000
    O15      O        0.51150    0.03270    0.08880    1.000
    O16      O        0.66030    0.79920    0.71890    1.000
    O17      O        0.68070    0.91130    0.84870    1.000
    O18      O        0.06820    0.23070    0.86590    1.000
    O19      O        0.14090    0.07430    0.96900    1.000
    O20      O        0.26980    0.99510    0.83160    1.000
    O21      O        0.26370    0.82550    0.73630    1.000
    U5       U        0.65433    0.96914    0.00887    1.000
    U6       U        0.52758    0.14517    0.22107    1.000
    C28      C        0.77500    0.35940    0.71870    1.000
    C29      C        0.65000    0.37710    0.72170    1.000
    C30      C        0.59290    0.29140    0.77600    1.000
    H10      H        0.63340    0.22550    0.81260    1.000
    C31      C        0.47580    0.30460    0.77530    1.000
    H11      H        0.43780    0.24770    0.81200    1.000
    C32      C        0.41430    0.40150    0.72050    1.000
    C33      C        0.47200    0.49260    0.66860    1.000
    C34      C        0.58890    0.48040    0.66930    1.000
    H12      H        0.62750    0.54040    0.63510    1.000
    C35      C        0.41470    0.60750    0.60890    1.000
    C36      C        0.28570    0.40730    0.71820    1.000
    O22      O        0.98850    0.53270    0.41120    1.000
    O23      O        0.83970    0.29920    0.78110    1.000
    O24      O        0.81930    0.41130    0.65130    1.000
    O25      O        0.43180    0.73070    0.63410    1.000
    O26      O        0.35910    0.57430    0.53100    1.000
    O27      O        0.23020    0.49510    0.66840    1.000
    O28      O        0.23630    0.32550    0.76370    1.000
    U7       U        0.84567    0.46914    0.49113    1.000
    U8       U        0.97242    0.64517    0.27893    1.000
