data_functionalizedCrystal
_audit_creation_method	'EQeq! by Chris Wilmer'
_symmetry_space_group_name_H-M	'P1'
_symmetry_Int_Tables_number	1
_symmetry_cell_setting	triclinic
loop_
_symmetry_equiv_pos_as_xyz
  x,y,z
_cell_length_a	20.137
_cell_length_b	10.702
_cell_length_c	11.418
_cell_angle_alpha	90
_cell_angle_beta	90
_cell_angle_gamma	90
loop_
_atom_site_label
_atom_site_type_symbol
_atom_site_fract_x
_atom_site_fract_y
_atom_site_fract_z
_atom_site_charge
Mof_Zn	Zn	0.07895	0.12913	0.45551	1.222
Mof_C 	C 	0.1035	0.8964	0.3426	0.41
Mof_C 	C 	0.142	0.8257	0.2509	-0.155
Mof_C 	C 	0.1247	0.7074	0.2111	0.09
Mof_C 	C 	0.1696	0.6439	0.1392	-0.142
Mof_H 	H 	0.1594	0.5634	0.1145	0.087
Mof_C 	C 	0.228	0.6963	0.1043	0.064
Mof_H 	H 	0.2563	0.6531	0.0543	0.034
Mof_C 	C 	0.2452	0.8168	0.1447	-0.131
Mof_C 	C 	0.2035	0.8779	0.2158	0.08
Mof_H 	H 	0.2152	0.9568	0.2429	0.027
Mof_C 	C 	0.3096	0.8731	0.1036	0.363
Mof_C 	C 	0.0607	0.6454	0.2402	-0
Mof_C 	C 	0.0608	0.5229	0.2829	-0.029
Mof_H 	H 	0.1008	0.4825	0.2979	0.052
Mof_O 	O 	0.0737	0.8383	0.4189	-0.52
Mof_O 	O 	0.1047	0.0162	0.3317	-0.482
Mof_O 	O 	0.322	0.9826	0.1357	-0.315
Mof_O 	O 	0.3462	0.8087	0.0388	-0.452
Mof_O 	O 	0.0552	0.2828	0.3705	-0.481
Mof_Zn	Zn	0.42105	0.87087	0.95551	1.199
Mof_C 	C 	0.3965	0.1036	0.8426	0.436
Mof_C 	C 	0.358	0.1743	0.7509	-0.179
Mof_C 	C 	0.3753	0.2926	0.7111	0.106
Mof_C 	C 	0.3304	0.3561	0.6392	-0.167
Mof_H 	H 	0.3406	0.4366	0.6145	0.084
Mof_C 	C 	0.272	0.3037	0.6043	0.077
Mof_H 	H 	0.2437	0.3469	0.5543	0.011
Mof_C 	C 	0.2548	0.1832	0.6447	-0.16
Mof_C 	C 	0.2965	0.1221	0.7158	0.096
Mof_H 	H 	0.2848	0.0432	0.7429	0.013
Mof_C 	C 	0.1904	0.1269	0.6036	0.371
Mof_C 	C 	0.4393	0.3546	0.7402	-0.029
Mof_C 	C 	0.4392	0.4771	0.7829	-0.015
Mof_H 	H 	0.3992	0.5175	0.7979	0.037
Mof_O 	O 	0.4263	0.1617	0.9189	-0.543
Mof_O 	O 	0.3953	0.9838	0.8317	-0.518
Mof_O 	O 	0.178	0.0174	0.6357	-0.345
Mof_O 	O 	0.1538	0.1913	0.5388	-0.497
Mof_O 	O 	0.4448	0.7172	0.8705	-0.509
Mof_Zn	Zn	0.57895	0.87087	0.95551	1.199
Mof_C 	C 	0.6035	0.1036	0.8426	0.435
Mof_C 	C 	0.642	0.1743	0.7509	-0.177
Mof_C 	C 	0.6247	0.2926	0.7111	0.106
Mof_C 	C 	0.6696	0.3561	0.6392	-0.165
Mof_H 	H 	0.6594	0.4366	0.6145	0.085
Mof_C 	C 	0.728	0.3037	0.6043	0.076
Mof_H 	H 	0.7563	0.3469	0.5543	0.013
Mof_C 	C 	0.7452	0.1832	0.6447	-0.156
Mof_C 	C 	0.7035	0.1221	0.7158	0.094
Mof_H 	H 	0.7152	0.0432	0.7429	0.014
Mof_C 	C 	0.8096	0.1269	0.6036	0.371
Mof_C 	C 	0.5607	0.3546	0.7402	-0.028
Mof_C 	C 	0.5608	0.4771	0.7829	-0.015
Mof_H 	H 	0.6008	0.5175	0.7979	0.038
Mof_O 	O 	0.5737	0.1617	0.9189	-0.543
Mof_O 	O 	0.6047	0.9838	0.8317	-0.517
Mof_O 	O 	0.822	0.0174	0.6357	-0.338
Mof_O 	O 	0.8462	0.1913	0.5388	-0.491
Mof_O 	O 	0.5552	0.7172	0.8705	-0.509
Mof_Zn	Zn	0.92105	0.12913	0.45551	1.229
Mof_C 	C 	0.8965	0.8964	0.3426	0.413
Mof_C 	C 	0.858	0.8257	0.2509	-0.146
Mof_C 	C 	0.8753	0.7074	0.2111	0.088
Mof_C 	C 	0.8304	0.6439	0.1392	-0.136
Mof_H 	H 	0.8406	0.5634	0.1145	0.089
Mof_C 	C 	0.772	0.6963	0.1043	0.063
Mof_H 	H 	0.7437	0.6531	0.0543	0.036
Mof_C 	C 	0.7548	0.8168	0.1447	-0.127
Mof_C 	C 	0.7965	0.8779	0.2158	0.077
Mof_H 	H 	0.7848	0.9568	0.2429	0.03
Mof_C 	C 	0.6904	0.8731	0.1036	0.362
Mof_C 	C 	0.9393	0.6454	0.2402	0.024
Mof_C 	C 	0.9392	0.5229	0.2829	0.002
Mof_H 	H 	0.8992	0.4825	0.2979	0.047
Mof_O 	O 	0.9263	0.8383	0.4189	-0.499
Mof_O 	O 	0.8953	0.0162	0.3317	-0.475
Mof_O 	O 	0.678	0.9826	0.1357	-0.313
Mof_O 	O 	0.6538	0.8087	0.0388	-0.451
Mof_O 	O 	0.9448	0.2828	0.3705	-0.454
Mof_Zn	Zn	3.72487e-33	0.8607	0.5457	1.142
Mof_C 	C 	-2.09616e-33	0.7062	0.2204	-0.104
Mof_H 	H 	-8.70774e-34	0.7883	0.1936	0.066
Mof_C 	C 	-4.48485e-33	0.4605	0.3032	-0.119
Mof_C 	C 	-1.81702e-33	0.3347	0.3517	0.352
Mof_O 	O 	1.13569e-33	0.0627	0.5342	-0.955
Mof_H 	H 	-1.30636e-33	0.1087	0.5919	0.251
Mof_Zn	Zn	0.5	0.1393	0.0457	1.179
Mof_C 	C 	0.5	0.2938	0.7204	-0.046
Mof_H 	H 	0.5	0.2117	0.6936	0.052
Mof_C 	C 	0.5	0.5395	0.8032	-0.117
Mof_C 	C 	0.5	0.6653	0.8517	0.388
Mof_O 	O 	0.5	0.9373	0.0342	-0.89
Mof_H 	H 	0.5	0.8913	0.0919	0.26
_end
