data_functionalizedCrystal
_audit_creation_method	'EQeq! by Chris Wilmer'
_symmetry_space_group_name_H-M	'P1'
_symmetry_Int_Tables_number	1
_symmetry_cell_setting	triclinic
loop_
_symmetry_equiv_pos_as_xyz
  x,y,z
_cell_length_a	13.5835
_cell_length_b	13.5835
_cell_length_c	16.501
_cell_angle_alpha	119.802
_cell_angle_beta	119.802
_cell_angle_gamma	77.622
loop_
_atom_site_label
_atom_site_type_symbol
_atom_site_fract_x
_atom_site_fract_y
_atom_site_fract_z
_atom_site_charge
Mof_N 	N 	0.1137	0.1227	0.8667	-0.213
Mof_N 	N 	0.1095	0.8217	0.8349	-0.216
Mof_C 	C 	0.0403	0.1969	0.8885	0.107
Mof_H 	H 	0.9678	0.1692	0.8655	-0.029
Mof_C 	C 	0.062	0.316	0.9443	-0.228
Mof_H 	H 	0.0055	0.3663	0.9578	0.098
Mof_C 	C 	0.2178	0.1642	0.9048	0.103
Mof_H 	H 	0.2742	0.1124	0.893	-0.027
Mof_C 	C 	0.2458	0.2798	0.9606	-0.223
Mof_H 	H 	0.3205	0.3051	0.9867	0.091
Mof_C 	C 	0.1668	0.3572	0.9783	0.179
Mof_C 	C 	0.1932	0.4826	0.032	-0.243
Mof_C 	C 	0.1627	0.5373	0.9709	0.251
Mof_C 	C 	0.1903	0.6527	0.0201	-0.242
Mof_C 	C 	0.2482	0.714	0.13	0.22
Mof_C 	C 	0.2784	0.6586	0.1912	-0.143
Mof_C 	C 	0.2511	0.5421	0.1413	0.216
Mof_C 	C 	0.1003	0.4725	0.8508	-0.588
Mof_H 	H 	0.1142	0.3914	0.8279	0.189
Mof_H 	H 	0.128	0.5008	0.8212	0.189
Mof_H 	H 	0.0186	0.4838	0.8264	0.182
Mof_C 	C 	0.2859	0.4793	0.2055	-0.557
Mof_H 	H 	0.2237	0.4267	0.1757	0.177
Mof_H 	H 	0.303	0.534	0.2784	0.181
Mof_H 	H 	0.3535	0.4365	0.204	0.178
Mof_C 	C 	0.2785	0.8383	0.1801	-0.575
Mof_H 	H 	0.3058	0.8724	0.2561	0.19
Mof_H 	H 	0.2111	0.8769	0.15	0.186
Mof_H 	H 	0.3381	0.8465	0.1666	0.178
Mof_C 	C 	0.1605	0.7129	0.955	0.185
Mof_C 	C 	0.0535	0.7463	0.9096	-0.233
Mof_H 	H 	0.9945	0.7307	0.9172	0.098
Mof_C 	C 	0.0307	0.8035	0.8516	0.109
Mof_H 	H 	0.9568	0.8302	0.8234	-0.029
Mof_C 	C 	0.2408	0.7314	0.9363	-0.233
Mof_H 	H 	0.3159	0.7071	0.9646	0.092
Mof_C 	C 	0.2118	0.7858	0.8758	0.118
Mof_H 	H 	0.2682	0.7978	0.8632	-0.034
Mof_N 	N 	0.8773	0.8863	0.6333	-0.213
Mof_N 	N 	0.1783	0.8905	0.6651	-0.216
Mof_C 	C 	0.8031	0.9597	0.6115	0.111
Mof_H 	H 	0.8308	0.0322	0.6345	-0.03
Mof_C 	C 	0.684	0.938	0.5557	-0.232
Mof_H 	H 	0.6337	0.9945	0.5422	0.099
Mof_C 	C 	0.8358	0.7822	0.5952	0.104
Mof_H 	H 	0.8876	0.7258	0.607	-0.028
Mof_C 	C 	0.7202	0.7542	0.5394	-0.225
Mof_H 	H 	0.6949	0.6795	0.5133	0.092
Mof_C 	C 	0.6428	0.8332	0.5217	0.183
Mof_C 	C 	0.5174	0.8068	0.468	-0.249
Mof_C 	C 	0.4627	0.8373	0.5291	0.258
Mof_C 	C 	0.3473	0.8097	0.4799	-0.249
Mof_C 	C 	0.286	0.7518	0.37	0.223
Mof_C 	C 	0.3414	0.7216	0.3088	-0.147
Mof_C 	C 	0.4579	0.7489	0.3587	0.22
Mof_C 	C 	0.5275	0.8997	0.6492	-0.594
Mof_H 	H 	0.6086	0.8858	0.6721	0.19
Mof_H 	H 	0.4992	0.872	0.6788	0.191
Mof_H 	H 	0.5162	0.9814	0.6736	0.184
Mof_C 	C 	0.5207	0.7141	0.2945	-0.56
Mof_H 	H 	0.5733	0.7763	0.3243	0.178
Mof_H 	H 	0.466	0.697	0.2216	0.181
Mof_H 	H 	0.5635	0.6465	0.296	0.179
Mof_C 	C 	0.1617	0.7215	0.3199	-0.578
Mof_H 	H 	0.1276	0.6942	0.2439	0.191
Mof_H 	H 	0.1231	0.7889	0.35	0.187
Mof_H 	H 	0.1535	0.6619	0.3334	0.179
Mof_C 	C 	0.2871	0.8395	0.545	0.189
Mof_C 	C 	0.2537	0.9465	0.5904	-0.232
Mof_H 	H 	0.2693	0.0055	0.5828	0.097
Mof_C 	C 	0.1965	0.9693	0.6484	0.11
Mof_H 	H 	0.1698	0.0432	0.6766	-0.03
Mof_C 	C 	0.2686	0.7592	0.5637	-0.234
Mof_H 	H 	0.2929	0.6841	0.5354	0.093
Mof_C 	C 	0.2142	0.7882	0.6242	0.119
Mof_H 	H 	0.2022	0.7318	0.6368	-0.035
Mof_N 	N 	0.8863	0.8773	0.1333	-0.212
Mof_N 	N 	0.8905	0.1783	0.1651	-0.215
Mof_C 	C 	0.9597	0.8031	0.1115	0.108
Mof_H 	H 	0.0322	0.8308	0.1345	-0.028
Mof_C 	C 	0.938	0.684	0.0557	-0.228
Mof_H 	H 	0.9945	0.6337	0.0422	0.098
Mof_C 	C 	0.7822	0.8358	0.0952	0.103
Mof_H 	H 	0.7258	0.8876	0.107	-0.027
Mof_C 	C 	0.7542	0.7202	0.0394	-0.223
Mof_H 	H 	0.6795	0.6949	0.0133	0.091
Mof_C 	C 	0.8332	0.6428	0.0217	0.179
Mof_C 	C 	0.8068	0.5174	0.968	-0.243
Mof_C 	C 	0.8373	0.4627	0.0291	0.251
Mof_C 	C 	0.8097	0.3473	0.9799	-0.242
Mof_C 	C 	0.7518	0.286	0.87	0.22
Mof_C 	C 	0.7216	0.3414	0.8088	-0.143
Mof_C 	C 	0.7489	0.4579	0.8587	0.216
Mof_C 	C 	0.8997	0.5275	0.1492	-0.588
Mof_H 	H 	0.8858	0.6086	0.1721	0.189
Mof_H 	H 	0.872	0.4992	0.1788	0.189
Mof_H 	H 	0.9814	0.5162	0.1736	0.182
Mof_C 	C 	0.7141	0.5207	0.7945	-0.557
Mof_H 	H 	0.7763	0.5733	0.8243	0.177
Mof_H 	H 	0.697	0.466	0.7216	0.181
Mof_H 	H 	0.6465	0.5635	0.796	0.178
Mof_C 	C 	0.7215	0.1617	0.8199	-0.575
Mof_H 	H 	0.6942	0.1276	0.7439	0.19
Mof_H 	H 	0.7889	0.1231	0.85	0.186
Mof_H 	H 	0.6619	0.1535	0.8334	0.178
Mof_C 	C 	0.8395	0.2871	0.045	0.185
Mof_C 	C 	0.9465	0.2537	0.0904	-0.233
Mof_H 	H 	0.0055	0.2693	0.0828	0.098
Mof_C 	C 	0.9693	0.1965	0.1484	0.109
Mof_H 	H 	0.0432	0.1698	0.1766	-0.029
Mof_C 	C 	0.7592	0.2686	0.0637	-0.233
Mof_H 	H 	0.6841	0.2929	0.0354	0.092
Mof_C 	C 	0.7882	0.2142	0.1242	0.118
Mof_H 	H 	0.7318	0.2022	0.1368	-0.034
Mof_N 	N 	0.1227	0.1137	0.3667	-0.213
Mof_N 	N 	0.8217	0.1095	0.3349	-0.216
Mof_C 	C 	0.1969	0.0403	0.3885	0.111
Mof_H 	H 	0.1692	0.9678	0.3655	-0.03
Mof_C 	C 	0.316	0.062	0.4443	-0.232
Mof_H 	H 	0.3663	0.0055	0.4578	0.099
Mof_C 	C 	0.1642	0.2178	0.4048	0.104
Mof_H 	H 	0.1124	0.2742	0.393	-0.028
Mof_C 	C 	0.2798	0.2458	0.4606	-0.225
Mof_H 	H 	0.3051	0.3205	0.4867	0.092
Mof_C 	C 	0.3572	0.1668	0.4783	0.183
Mof_C 	C 	0.4826	0.1932	0.532	-0.249
Mof_C 	C 	0.5373	0.1627	0.4709	0.258
Mof_C 	C 	0.6527	0.1903	0.5201	-0.249
Mof_C 	C 	0.714	0.2482	0.63	0.223
Mof_C 	C 	0.6586	0.2784	0.6912	-0.147
Mof_C 	C 	0.5421	0.2511	0.6413	0.22
Mof_C 	C 	0.4725	0.1003	0.3508	-0.594
Mof_H 	H 	0.3914	0.1142	0.3279	0.19
Mof_H 	H 	0.5008	0.128	0.3212	0.191
Mof_H 	H 	0.4838	0.0186	0.3264	0.184
Mof_C 	C 	0.4793	0.2859	0.7055	-0.56
Mof_H 	H 	0.4267	0.2237	0.6757	0.178
Mof_H 	H 	0.534	0.303	0.7784	0.181
Mof_H 	H 	0.4365	0.3535	0.704	0.179
Mof_C 	C 	0.8383	0.2785	0.6801	-0.578
Mof_H 	H 	0.8724	0.3058	0.7561	0.191
Mof_H 	H 	0.8769	0.2111	0.65	0.187
Mof_H 	H 	0.8465	0.3381	0.6666	0.179
Mof_C 	C 	0.7129	0.1605	0.455	0.189
Mof_C 	C 	0.7463	0.0535	0.4096	-0.232
Mof_H 	H 	0.7307	0.9945	0.4172	0.097
Mof_C 	C 	0.8035	0.0307	0.3516	0.11
Mof_H 	H 	0.8302	0.9568	0.3234	-0.03
Mof_C 	C 	0.7314	0.2408	0.4363	-0.234
Mof_H 	H 	0.7071	0.3159	0.4646	0.093
Mof_C 	C 	0.7858	0.2118	0.3758	0.119
Mof_H 	H 	0.7978	0.2682	0.3632	-0.035
Mof_Ag	Ag	0.069	0.931	0.75	0.588
Mof_Ag	Ag	0.931	0.069	0.25	0.588
_end
