data_functionalizedCrystal
_audit_creation_method	'EQeq! by Chris Wilmer'
_symmetry_space_group_name_H-M	'P1'
_symmetry_Int_Tables_number	1
_symmetry_cell_setting	triclinic
loop_
_symmetry_equiv_pos_as_xyz
  x,y,z
_cell_length_a	10.5621
_cell_length_b	10.5621
_cell_length_c	14.802
_cell_angle_alpha	90.5968
_cell_angle_beta	90.5968
_cell_angle_gamma	105.761
loop_
_atom_site_label
_atom_site_type_symbol
_atom_site_fract_x
_atom_site_fract_y
_atom_site_fract_z
_atom_site_charge
Mof_Dy	Dy	0.82357	0.42673	0.44291	1.799
Mof_Dy	Dy	0.57327	0.17643	0.05709	1.791
Mof_Dy	Dy	0.17643	0.57327	0.55709	1.798
Mof_Dy	Dy	0.42673	0.82357	0.94291	1.79
Mof_H 	H 	0.947	0.3534	0.7456	0.128
Mof_H 	H 	0.939	0.2092	0.7136	0.122
Mof_H 	H 	0.8611	0.7933	0.6999	0.135
Mof_H 	H 	0.8877	0.6753	0.7528	0.142
Mof_H 	H 	0.6564	0.802	0.6701	0.104
Mof_H 	H 	0.5399	0.6741	0.6599	0.09
Mof_H 	H 	0.6466	0.053	0.7544	0.128
Mof_H 	H 	0.7908	0.061	0.7864	0.122
Mof_H 	H 	0.2067	0.1389	0.8001	0.136
Mof_H 	H 	0.3247	0.1123	0.7472	0.143
Mof_H 	H 	0.198	0.3436	0.8299	0.104
Mof_H 	H 	0.3259	0.4601	0.8401	0.091
Mof_H 	H 	0.053	0.6466	0.2544	0.128
Mof_H 	H 	0.061	0.7908	0.2864	0.122
Mof_H 	H 	0.1389	0.2067	0.3001	0.135
Mof_H 	H 	0.1123	0.3247	0.2472	0.142
Mof_H 	H 	0.3436	0.198	0.3299	0.104
Mof_H 	H 	0.4601	0.3259	0.3401	0.09
Mof_H 	H 	0.3534	0.947	0.2456	0.128
Mof_H 	H 	0.2092	0.939	0.2136	0.122
Mof_H 	H 	0.7933	0.8611	0.1999	0.136
Mof_H 	H 	0.6753	0.8877	0.2528	0.143
Mof_H 	H 	0.802	0.6564	0.1701	0.104
Mof_H 	H 	0.6741	0.5399	0.1599	0.091
Mof_C 	C 	0.655	0.5136	0.7315	0.158
Mof_C 	C 	0.8948	0.2784	0.7111	-0.298
Mof_C 	C 	0.8827	0.3185	0.6114	0.475
Mof_C 	C 	0.8428	0.6982	0.7006	-0.34
Mof_C 	C 	0.898	0.6532	0.6165	0.506
Mof_C 	C 	0.6113	0.7209	0.6996	-0.255
Mof_C 	C 	0.5541	0.7547	0.786	0.377
Mof_C 	C 	0.4864	0.345	0.7685	0.158
Mof_C 	C 	0.7216	0.1052	0.7889	-0.297
Mof_C 	C 	0.6815	0.1173	0.8886	0.475
Mof_C 	C 	0.3018	0.1572	0.7994	-0.342
Mof_C 	C 	0.3468	0.102	0.8835	0.51
Mof_C 	C 	0.2791	0.3887	0.8004	-0.255
Mof_C 	C 	0.2453	0.4459	0.714	0.378
Mof_C 	C 	0.345	0.4864	0.2685	0.158
Mof_C 	C 	0.1052	0.7216	0.2889	-0.298
Mof_C 	C 	0.1173	0.6815	0.3886	0.475
Mof_C 	C 	0.1572	0.3018	0.2994	-0.34
Mof_C 	C 	0.102	0.3468	0.3835	0.506
Mof_C 	C 	0.3887	0.2791	0.3004	-0.255
Mof_C 	C 	0.4459	0.2453	0.214	0.377
Mof_C 	C 	0.5136	0.655	0.2315	0.158
Mof_C 	C 	0.2784	0.8948	0.2111	-0.297
Mof_C 	C 	0.3185	0.8827	0.1114	0.475
Mof_C 	C 	0.6982	0.8428	0.2006	-0.342
Mof_C 	C 	0.6532	0.898	0.1165	0.51
Mof_C 	C 	0.7209	0.6113	0.1996	-0.255
Mof_C 	C 	0.7547	0.5541	0.286	0.378
Mof_C 	C 	0.6873	0.3127	0.75	0.161
Mof_C 	C 	0.3127	0.6873	0.25	0.161
Mof_N 	N 	0.742	0.4404	0.7308	-0.165
Mof_N 	N 	0.7021	0.6419	0.7105	-0.052
Mof_N 	N 	0.5596	0.258	0.7692	-0.165
Mof_N 	N 	0.3581	0.2979	0.7895	-0.051
Mof_N 	N 	0.258	0.5596	0.2692	-0.165
Mof_N 	N 	0.2979	0.3581	0.2895	-0.052
Mof_N 	N 	0.4404	0.742	0.2308	-0.165
Mof_N 	N 	0.6419	0.7021	0.2105	-0.051
Mof_N 	N 	0.5275	0.4725	0.75	-0.168
Mof_N 	N 	0.7669	0.2331	0.75	-0.051
Mof_N 	N 	0.4725	0.5275	0.25	-0.168
Mof_N 	N 	0.2331	0.7669	0.25	-0.051
Mof_O 	O 	0.9753	0.4091	0.5801	-0.572
Mof_O 	O 	0.7879	0.2605	0.5651	-0.478
Mof_O 	O 	0.0235	0.6821	0.6151	-0.496
Mof_O 	O 	0.8236	0.5942	0.5543	-0.49
Mof_O 	O 	0.4515	0.7953	0.7792	-0.451
Mof_O 	O 	0.604	0.7494	0.8607	-0.413
Mof_O 	O 	0.5909	0.0247	0.9199	-0.567
Mof_O 	O 	0.7395	0.2121	0.9349	-0.474
Mof_O 	O 	0.3179	0.9765	0.8849	-0.5
Mof_O 	O 	0.4058	0.1764	0.9457	-0.488
Mof_O 	O 	0.2047	0.5485	0.7208	-0.451
Mof_O 	O 	0.2506	0.396	0.6393	-0.413
Mof_O 	O 	0.0247	0.5909	0.4199	-0.572
Mof_O 	O 	0.2121	0.7395	0.4349	-0.478
Mof_O 	O 	0.9765	0.3179	0.3849	-0.496
Mof_O 	O 	0.1764	0.4058	0.4457	-0.49
Mof_O 	O 	0.5485	0.2047	0.2208	-0.451
Mof_O 	O 	0.396	0.2506	0.1393	-0.413
Mof_O 	O 	0.4091	0.9753	0.0801	-0.567
Mof_O 	O 	0.2605	0.7879	0.0651	-0.474
Mof_O 	O 	0.6821	0.0235	0.1151	-0.5
Mof_O 	O 	0.5942	0.8236	0.0543	-0.488
Mof_O 	O 	0.7953	0.4515	0.2792	-0.451
Mof_O 	O 	0.7494	0.604	0.3607	-0.413
_end
