data_functionalizedCrystal
_audit_creation_method	'EQeq! by Chris Wilmer'
_symmetry_space_group_name_H-M	'P1'
_symmetry_Int_Tables_number	1
_symmetry_cell_setting	triclinic
loop_
_symmetry_equiv_pos_as_xyz
  x,y,z
_cell_length_a	10.7675
_cell_length_b	10.7675
_cell_length_c	13.994
_cell_angle_alpha	90
_cell_angle_beta	90
_cell_angle_gamma	90
loop_
_atom_site_label
_atom_site_type_symbol
_atom_site_fract_x
_atom_site_fract_y
_atom_site_fract_z
_atom_site_charge
Mof_Ag	Ag	0.5	0.5	0.18206	0.653
Mof_Ag	Ag	0.5	0.5	0.81794	0.636
Mof_N 	N 	0.1101	0.1101	0.5496	-0.162
Mof_N 	N 	0.3505	0.3505	0.776	-0.17
Mof_N 	N 	0.1696	0.1696	0.7424	-0.141
Mof_C 	C 	0.1906	0.1906	0.5746	0.166
Mof_C 	C 	0.2283	0.2283	0.6722	-0.015
Mof_C 	C 	0.3158	0.3158	0.6886	0.023
Mof_H 	H 	0.3535	0.3535	0.6364	0.022
Mof_C 	C 	0.2919	0.2919	0.8459	0.008
Mof_H 	H 	0.3117	0.3117	0.9088	0.003
Mof_C 	C 	0.2047	0.2047	0.8294	-0.005
Mof_H 	H 	0.167	0.167	0.8817	0.003
Mof_N 	N 	0.8899	0.8899	0.5496	-0.111
Mof_N 	N 	0.6495	0.6495	0.776	-0.166
Mof_N 	N 	0.8304	0.8304	0.7424	-0.105
Mof_C 	C 	0.8094	0.8094	0.5746	0.188
Mof_C 	C 	0.7717	0.7717	0.6722	0.006
Mof_C 	C 	0.6842	0.6842	0.6886	0.032
Mof_H 	H 	0.6465	0.6465	0.6364	0.026
Mof_C 	C 	0.7081	0.7081	0.8459	0.025
Mof_H 	H 	0.6883	0.6883	0.9088	0.01
Mof_C 	C 	0.7953	0.7953	0.8294	0.006
Mof_H 	H 	0.833	0.833	0.8817	0.044
Mof_N 	N 	0.8899	0.8899	0.4504	-0.112
Mof_N 	N 	0.6495	0.6495	0.224	-0.166
Mof_N 	N 	0.8304	0.8304	0.2576	-0.104
Mof_C 	C 	0.8094	0.8094	0.4254	0.189
Mof_C 	C 	0.7717	0.7717	0.3278	0.006
Mof_C 	C 	0.6842	0.6842	0.3114	0.033
Mof_H 	H 	0.6465	0.6465	0.3636	0.026
Mof_C 	C 	0.7081	0.7081	0.1541	0.026
Mof_H 	H 	0.6883	0.6883	0.0912	0.025
Mof_C 	C 	0.7953	0.7953	0.1706	0.009
Mof_H 	H 	0.833	0.833	0.1183	0.055
Mof_N 	N 	0.1101	0.1101	0.4504	-0.162
Mof_N 	N 	0.3505	0.3505	0.224	-0.169
Mof_N 	N 	0.1696	0.1696	0.2576	-0.14
Mof_C 	C 	0.1906	0.1906	0.4254	0.166
Mof_C 	C 	0.2283	0.2283	0.3278	-0.014
Mof_C 	C 	0.3158	0.3158	0.3114	0.024
Mof_H 	H 	0.3535	0.3535	0.3636	0.021
Mof_C 	C 	0.2919	0.2919	0.1541	0.009
Mof_H 	H 	0.3117	0.3117	0.0912	0.017
Mof_C 	C 	0.2047	0.2047	0.1706	-0.002
Mof_H 	H 	0.167	0.167	0.1183	0.014
Mof_O 	O 	0.2459	0.2459	0.5	-0.264
Mof_O 	O 	0.7541	0.7541	0.5	-0.256
Mof_Ag	Ag	1.11031e-32	7.77945e-33	0.68206	0.437
Mof_Ag	Ag	1.54929e-33	0	0.31794	0.442
Mof_N 	N 	0.6101	0.3899	0.0496	-0.144
Mof_N 	N 	0.8505	0.1495	0.276	-0.141
Mof_N 	N 	0.6696	0.3304	0.2424	-0.139
Mof_C 	C 	0.6906	0.3094	0.0746	0.171
Mof_C 	C 	0.7283	0.2717	0.1722	-0
Mof_C 	C 	0.8158	0.1842	0.1886	0.022
Mof_H 	H 	0.8535	0.1465	0.1364	0.036
Mof_C 	C 	0.7919	0.2081	0.3459	0.01
Mof_H 	H 	0.8117	0.1883	0.4088	0.027
Mof_C 	C 	0.7047	0.2953	0.3294	0.011
Mof_H 	H 	0.667	0.333	0.3817	0.022
Mof_N 	N 	0.3899	0.6101	0.0496	-0.144
Mof_N 	N 	0.1495	0.8505	0.276	-0.141
Mof_N 	N 	0.3304	0.6696	0.2424	-0.139
Mof_C 	C 	0.3094	0.6906	0.0746	0.171
Mof_C 	C 	0.2717	0.7283	0.1722	-0
Mof_C 	C 	0.1842	0.8158	0.1886	0.022
Mof_H 	H 	0.1465	0.8535	0.1364	0.036
Mof_C 	C 	0.2081	0.7919	0.3459	0.01
Mof_H 	H 	0.1883	0.8117	0.4088	0.027
Mof_C 	C 	0.2953	0.7047	0.3294	0.011
Mof_H 	H 	0.333	0.667	0.3817	0.022
Mof_N 	N 	0.3899	0.6101	0.9504	-0.165
Mof_N 	N 	0.1495	0.8505	0.724	-0.142
Mof_N 	N 	0.3304	0.6696	0.7576	-0.139
Mof_C 	C 	0.3094	0.6906	0.9254	0.14
Mof_C 	C 	0.2717	0.7283	0.8278	0.001
Mof_C 	C 	0.1842	0.8158	0.8114	0.019
Mof_H 	H 	0.1465	0.8535	0.8636	0.028
Mof_C 	C 	0.2081	0.7919	0.6541	0.009
Mof_H 	H 	0.1883	0.8117	0.5912	0.027
Mof_C 	C 	0.2953	0.7047	0.6706	0.01
Mof_H 	H 	0.333	0.667	0.6183	0.023
Mof_N 	N 	0.6101	0.3899	0.9504	-0.165
Mof_N 	N 	0.8505	0.1495	0.724	-0.142
Mof_N 	N 	0.6696	0.3304	0.7576	-0.139
Mof_C 	C 	0.6906	0.3094	0.9254	0.14
Mof_C 	C 	0.7283	0.2717	0.8278	0.001
Mof_C 	C 	0.8158	0.1842	0.8114	0.019
Mof_H 	H 	0.8535	0.1465	0.8636	0.028
Mof_C 	C 	0.7919	0.2081	0.6541	0.009
Mof_H 	H 	0.8117	0.1883	0.5912	0.027
Mof_C 	C 	0.7047	0.2953	0.6706	0.01
Mof_H 	H 	0.667	0.333	0.6183	0.023
Mof_O 	O 	0.7459	0.2541	-0	-0.229
Mof_O 	O 	0.2541	0.7459	-0	-0.229
_end
