data_functionalizedCrystal
_audit_creation_method	'EQeq! by Chris Wilmer'
_symmetry_space_group_name_H-M	'P1'
_symmetry_Int_Tables_number	1
_symmetry_cell_setting	triclinic
loop_
_symmetry_equiv_pos_as_xyz
  x,y,z
_cell_length_a	19.439
_cell_length_b	12.991
_cell_length_c	9.7163
_cell_angle_alpha	90
_cell_angle_beta	93.31
_cell_angle_gamma	90
loop_
_atom_site_label
_atom_site_type_symbol
_atom_site_fract_x
_atom_site_fract_y
_atom_site_fract_z
_atom_site_charge
Mof_Gd	Gd	0.33255	0.33092	0.09794	2.047
Mof_Gd	Gd	0.12294	0.64739	0.99648	1.847
Mof_S 	S 	0.31044	0.59311	0.96527	0.997
Mof_S 	S 	0.34902	0.11284	0.86784	0.961
Mof_O 	O 	0.3731	0.1693	0.747	-0.569
Mof_O 	O 	0.242	0.1855	0.1079	-0.644
Mof_O 	O 	0.3717	0.17	0.9943	-0.553
Mof_O 	O 	0.3393	0.5092	0.0523	-0.553
Mof_O 	O 	0.2346	0.585	0.9545	-0.539
Mof_O 	O 	0.3173	0.1903	0.2817	-0.617
Mof_O 	O 	0.3399	0.5867	0.8285	-0.522
Mof_O 	O 	0.3301	0.6919	0.0331	-0.571
Mof_O 	O 	0.5379	0.1801	0.1571	-0.578
Mof_O 	O 	0.3812	0.009	0.8716	-0.56
Mof_O 	O 	0.4512	0.3135	0.1692	-0.578
Mof_O 	O 	0.2745	0.1008	0.8554	-0.552
Mof_C 	C 	0.2673	0.146	0.2169	0.675
Mof_H 	H 	0.2493	0.0892	0.2563	-0.21
Mof_Gd	Gd	0.83255	0.83092	0.09794	2.03
Mof_Gd	Gd	0.62294	0.14739	0.99648	1.884
Mof_S 	S 	0.81044	0.09311	0.96527	0.99
Mof_S 	S 	0.84902	0.61284	0.86784	0.961
Mof_O 	O 	0.8731	0.6693	0.747	-0.56
Mof_O 	O 	0.742	0.6855	0.1079	-0.653
Mof_O 	O 	0.8717	0.67	0.9943	-0.536
Mof_O 	O 	0.8393	0.0092	0.0523	-0.542
Mof_O 	O 	0.7346	0.085	0.9545	-0.543
Mof_O 	O 	0.8173	0.6903	0.2817	-0.62
Mof_O 	O 	0.8399	0.0867	0.8285	-0.517
Mof_O 	O 	0.8301	0.1919	0.0331	-0.565
Mof_O 	O 	0.0379	0.6801	0.1571	-0.565
Mof_O 	O 	0.8812	0.509	0.8716	-0.548
Mof_O 	O 	0.9512	0.8135	0.1692	-0.496
Mof_O 	O 	0.7745	0.6008	0.8554	-0.554
Mof_C 	C 	0.7673	0.646	0.2169	0.681
Mof_H 	H 	0.7493	0.5892	0.2563	-0.213
Mof_Gd	Gd	0.66745	0.33092	0.40206	2.041
Mof_Gd	Gd	0.87706	0.64739	0.50352	1.91
Mof_S 	S 	0.68956	0.59311	0.53473	0.997
Mof_S 	S 	0.65098	0.11284	0.63216	0.961
Mof_O 	O 	0.6269	0.1693	0.753	-0.571
Mof_O 	O 	0.758	0.1855	0.3921	-0.649
Mof_O 	O 	0.6283	0.17	0.5057	-0.553
Mof_O 	O 	0.6607	0.5092	0.4477	-0.554
Mof_O 	O 	0.7654	0.585	0.5455	-0.545
Mof_O 	O 	0.6827	0.1903	0.2183	-0.617
Mof_O 	O 	0.6601	0.5867	0.6715	-0.524
Mof_O 	O 	0.6699	0.6919	0.4669	-0.572
Mof_O 	O 	0.4621	0.1801	0.3429	-0.579
Mof_O 	O 	0.6188	0.009	0.6284	-0.56
Mof_O 	O 	0.5488	0.3135	0.3308	-0.578
Mof_O 	O 	0.7255	0.1008	0.6446	-0.555
Mof_C 	C 	0.7327	0.146	0.2831	0.678
Mof_H 	H 	0.7507	0.0892	0.2437	-0.21
Mof_Gd	Gd	0.16745	0.83092	0.40206	2.018
Mof_Gd	Gd	0.37706	0.14739	0.50352	1.886
Mof_S 	S 	0.18956	0.09311	0.53473	0.992
Mof_S 	S 	0.15098	0.61284	0.63216	0.958
Mof_O 	O 	0.1269	0.6693	0.753	-0.578
Mof_O 	O 	0.258	0.6855	0.3921	-0.648
Mof_O 	O 	0.1283	0.67	0.5057	-0.56
Mof_O 	O 	0.1607	0.0092	0.4477	-0.559
Mof_O 	O 	0.2654	0.085	0.5455	-0.542
Mof_O 	O 	0.1827	0.6903	0.2183	-0.614
Mof_O 	O 	0.1601	0.0867	0.6715	-0.527
Mof_O 	O 	0.1699	0.1919	0.4669	-0.571
Mof_O 	O 	0.9621	0.6801	0.3429	-0.497
Mof_O 	O 	0.1188	0.509	0.6284	-0.566
Mof_O 	O 	0.0488	0.8135	0.3308	-0.563
Mof_O 	O 	0.2255	0.6008	0.6446	-0.552
Mof_C 	C 	0.2327	0.646	0.2831	0.675
Mof_H 	H 	0.2507	0.5892	0.2437	-0.21
Mof_Gd	Gd	0.66745	0.66908	0.90206	2.049
Mof_Gd	Gd	0.87706	0.35261	0.00352	1.907
Mof_S 	S 	0.68956	0.40689	0.03473	0.996
Mof_S 	S 	0.65098	0.88716	0.13216	0.961
Mof_O 	O 	0.6269	0.8307	0.253	-0.571
Mof_O 	O 	0.758	0.8145	0.8921	-0.645
Mof_O 	O 	0.6283	0.83	0.0057	-0.556
Mof_O 	O 	0.6607	0.4908	0.9477	-0.553
Mof_O 	O 	0.7654	0.415	0.0455	-0.545
Mof_O 	O 	0.6827	0.8097	0.7183	-0.618
Mof_O 	O 	0.6601	0.4133	0.1715	-0.523
Mof_O 	O 	0.6699	0.3081	0.9669	-0.571
Mof_O 	O 	0.4621	0.8199	0.8429	-0.577
Mof_O 	O 	0.6188	0.991	0.1284	-0.562
Mof_O 	O 	0.5488	0.6865	0.8308	-0.577
Mof_O 	O 	0.7255	0.8992	0.1446	-0.555
Mof_C 	C 	0.7327	0.854	0.7831	0.677
Mof_H 	H 	0.7507	0.9108	0.7437	-0.21
Mof_Gd	Gd	0.16745	0.16908	0.90206	2.007
Mof_Gd	Gd	0.37706	0.85261	0.00352	1.881
Mof_S 	S 	0.18956	0.90689	0.03473	0.983
Mof_S 	S 	0.15098	0.38716	0.13216	0.957
Mof_O 	O 	0.1269	0.3307	0.253	-0.577
Mof_O 	O 	0.258	0.3145	0.8921	-0.649
Mof_O 	O 	0.1283	0.33	0.0057	-0.555
Mof_O 	O 	0.1607	0.9908	0.9477	-0.552
Mof_O 	O 	0.2654	0.915	0.0455	-0.54
Mof_O 	O 	0.1827	0.3097	0.7183	-0.613
Mof_O 	O 	0.1601	0.9133	0.1715	-0.526
Mof_O 	O 	0.1699	0.8081	0.9669	-0.567
Mof_O 	O 	0.9621	0.3199	0.8429	-0.492
Mof_O 	O 	0.1188	0.491	0.1284	-0.564
Mof_O 	O 	0.0488	0.1865	0.8308	-0.562
Mof_O 	O 	0.2255	0.3992	0.1446	-0.552
Mof_C 	C 	0.2327	0.354	0.7831	0.675
Mof_H 	H 	0.2507	0.4108	0.7437	-0.21
Mof_Gd	Gd	0.33255	0.66908	0.59794	2.039
Mof_Gd	Gd	0.12294	0.35261	0.49648	1.844
Mof_S 	S 	0.31044	0.40689	0.46527	0.993
Mof_S 	S 	0.34902	0.88716	0.36784	0.96
Mof_O 	O 	0.3731	0.8307	0.247	-0.57
Mof_O 	O 	0.242	0.8145	0.6079	-0.648
Mof_O 	O 	0.3717	0.83	0.4943	-0.552
Mof_O 	O 	0.3393	0.4908	0.5523	-0.553
Mof_O 	O 	0.2346	0.415	0.4545	-0.538
Mof_O 	O 	0.3173	0.8097	0.7817	-0.616
Mof_O 	O 	0.3399	0.4133	0.3285	-0.523
Mof_O 	O 	0.3301	0.3081	0.5331	-0.571
Mof_O 	O 	0.5379	0.8199	0.6571	-0.579
Mof_O 	O 	0.3812	0.991	0.3716	-0.56
Mof_O 	O 	0.4512	0.6865	0.6692	-0.578
Mof_O 	O 	0.2745	0.8992	0.3554	-0.552
Mof_C 	C 	0.2673	0.854	0.7169	0.675
Mof_H 	H 	0.2493	0.9108	0.7563	-0.21
Mof_Gd	Gd	0.83255	0.16908	0.59794	2.042
Mof_Gd	Gd	0.62294	0.85261	0.49648	1.887
Mof_S 	S 	0.81044	0.90689	0.46527	0.996
Mof_S 	S 	0.84902	0.38716	0.36784	0.962
Mof_O 	O 	0.8731	0.3307	0.247	-0.561
Mof_O 	O 	0.742	0.3145	0.6079	-0.651
Mof_O 	O 	0.8717	0.33	0.4943	-0.541
Mof_O 	O 	0.8393	0.9908	0.5523	-0.547
Mof_O 	O 	0.7346	0.915	0.4545	-0.544
Mof_O 	O 	0.8173	0.3097	0.7817	-0.619
Mof_O 	O 	0.8399	0.9133	0.3285	-0.518
Mof_O 	O 	0.8301	0.8081	0.5331	-0.568
Mof_O 	O 	0.0379	0.3199	0.6571	-0.564
Mof_O 	O 	0.8812	0.491	0.3716	-0.55
Mof_O 	O 	0.9512	0.1865	0.6692	-0.491
Mof_O 	O 	0.7745	0.3992	0.3554	-0.554
Mof_C 	C 	0.7673	0.354	0.7169	0.68
Mof_H 	H 	0.7493	0.4108	0.7563	-0.213
Mof_S 	S 	0.5	0.247	0.25	1.006
Mof_S 	S 	-1.45033e-18	0.747	0.25	0.822
Mof_S 	S 	0.5	0.753	0.75	1.006
Mof_S 	S 	1.48672e-33	0.253	0.75	0.811
_end
