# CIF file generated by openbabel 3.1.0, see https://openbabel.org
data_I
_chemical_name_common 'image0'
_cell_length_a 32.47
_cell_length_b 22.115
_cell_length_c 20.273
_cell_angle_alpha 90
_cell_angle_beta 90
_cell_angle_gamma 90
_space_group_name_H-M_alt 'P 1'
_space_group_name_Hall 'P 1'
loop_
    _symmetry_equiv_pos_as_xyz
    x,y,z
loop_
    _atom_site_label
    _atom_site_type_symbol
    _atom_site_fract_x
    _atom_site_fract_y
    _atom_site_fract_z
    _atom_site_occupancy
    Cu1      Cu       0.96242    0.85432    0.72297    1.000
    Cu2      Cu       0.96112    0.92377    0.58648    1.000
    Cu3      Cu       0.01624    0.81573    0.61089    1.000
    Cu4      Cu       0.96681    0.98549    0.44975    1.000
    C1       C        0.76425    0.88270    0.46030    1.000
    C2       C        0.78910    0.90870    0.40920    1.000
    C3       C        0.78120    0.87480    0.52080    1.000
    C4       C        0.82932    0.92400    0.42100    1.000
    H1       H        0.84520    0.94010    0.38720    1.000
    C5       C        0.84654    0.91580    0.48300    1.000
    C6       C        0.88991    0.93420    0.49670    1.000
    C7       C        0.82258    0.89050    0.53210    1.000
    H2       H        0.83410    0.88360    0.57340    1.000
    C8       C        0.70100    0.81950    0.43180    1.000
    C9       C        0.71891    0.87260    0.44760    1.000
    C10      C        0.69360    0.92220    0.45420    1.000
    H3       H        0.70510    0.95910    0.46610    1.000
    C11      C        0.65141    0.91890    0.44350    1.000
    H4       H        0.63520    0.95340    0.44680    1.000
    C12      C        0.63351    0.86350    0.42780    1.000
    C13      C        0.65840    0.81380    0.42240    1.000
    H5       H        0.64710    0.77630    0.41250    1.000
    C14      C        0.58807    0.85890    0.41700    1.000
    C15      C        0.87957    0.87280    0.76100    1.000
    C16      C        0.84091    0.91280    0.75470    1.000
    C17      C        0.80890    0.90400    0.79840    1.000
    H6       H        0.81050    0.87510    0.83160    1.000
    C18      C        0.77370    0.94040    0.79080    1.000
    H7       H        0.75210    0.93590    0.82050    1.000
    C19      C        0.77013    0.98110    0.74280    1.000
    C20      C        0.80203    0.98840    0.70150    1.000
    C21      C        0.83835    0.95500    0.70690    1.000
    H8       H        0.86020    0.96170    0.67820    1.000
    C22      C        0.99073    0.83270    0.48030    1.000
    C23      C        0.98434    0.80900    0.41100    1.000
    C24      C        0.95068    0.82880    0.37320    1.000
    H9       H        0.93280    0.85800    0.38960    1.000
    C25      C        0.94470    0.80410    0.31140    1.000
    C26      C        0.97190    0.76270    0.28370    1.000
    C27      C        0.00518    0.74500    0.32260    1.000
    H10      H        0.02430    0.71770    0.30570    1.000
    C28      C        0.01035    0.76710    0.38550    1.000
    H11      H        0.03210    0.75310    0.41110    1.000
    C29      C        0.99560    0.83410    0.85450    1.000
    C30      C        0.00104    0.85720    0.92360    1.000
    C31      C        0.97260    0.89660    0.94920    1.000
    H12      H        0.95000    0.90810    0.92400    1.000
    C32      C        0.97750    0.91960    0.01280    1.000
    H13      H        0.95820    0.94690    0.02910    1.000
    C33      C        0.01027    0.90280    0.05220    1.000
    C34      C        0.03843    0.86300    0.02360    1.000
    C35      C        0.03446    0.84040    0.96100    1.000
    H14      H        0.05410    0.81400    0.94410    1.000
    C36      C        0.01047    0.92750    0.12050    1.000
    C37      C        0.97550    0.91400    0.16040    1.000
    H15      H        0.95540    0.88820    0.14390    1.000
    C38      C        0.97052    0.93790    0.22230    1.000
    H16      H        0.94720    0.92800    0.24660    1.000
    C39      C        0.99878    0.97560    0.24870    1.000
    C40      C        0.99362    0.00190    0.31620    1.000
    C41      C        0.03383    0.98940    0.21160    1.000
    H17      H        0.05390    0.01480    0.22900    1.000
    C42      C        0.03880    0.96600    0.15040    1.000
    O1       O        0.90923    0.95898    0.45085    1.000
    O2       O        0.90268    0.92258    0.55421    1.000
    O3       O        0.78810    0.95430    0.30450    1.000
    O4       O        0.75080    0.87690    0.31830    1.000
    O5       O        0.76160    0.76950    0.40410    1.000
    O6       O        0.70640    0.71080    0.43850    1.000
    O7       O        0.57512    0.80829    0.39861    1.000
    O8       O        0.56579    0.90373    0.42651    1.000
    O9       O        0.90943    0.89116    0.72638    1.000
    O10      O        0.87923    0.83040    0.79920    1.000
    O11      O        0.82720    0.03820    0.60790    1.000
    O12      O        0.78250    0.08510    0.65920    1.000
    O13      O        0.00751    0.79652    0.51966    1.000
    O14      O        0.97946    0.88505    0.49344    1.000
    O15      O        0.90496    0.81540    0.21740    1.000
    O16      O        0.88188    0.85060    0.30610    1.000
    O17      O        0.01429    0.78665    0.83951    1.000
    O18      O        0.97273    0.86470    0.81685    1.000
    O19      O        0.10450    0.82280    0.02810    1.000
    O20      O        0.07618    0.84720    0.12020    1.000
    O21      O        0.07968    0.97750    0.05450    1.000
    O22      O        0.10574    0.00080    0.14610    1.000
    O23      O        0.01482    0.04752    0.32947    1.000
    O24      O        0.96902    0.97506    0.35439    1.000
    O25      O        0.97331    0.99926    0.54415    1.000
    H18      H        0.95660    0.03290    0.56070    1.000
    O26      O        0.95951    0.84411    0.62631    1.000
    H19      H        0.93770    0.81730    0.61030    1.000
    O27      O        0.01859    0.82652    0.70669    1.000
    H20      H        0.03960    0.85560    0.72080    1.000
    O28      O        0.77130    0.85610    0.64170    1.000
    O29      O        0.73470    0.79870    0.56560    1.000
    N1       N        0.77520    0.91400    0.33960    1.000
    N2       N        0.76560    0.83360    0.58240    1.000
    N3       N        0.72470    0.76090    0.42570    1.000
    N4       N        0.80020    0.03160    0.64670    1.000
    N5       N        0.90860    0.82360    0.27570    1.000
    N6       N        0.07609    0.84230    0.05980    1.000
    N7       N        0.07741    0.98230    0.11550    1.000
    O30      O        0.75970    0.75710    0.44760    1.000
    O31      O        0.71030    0.71730    0.38530    1.000
    O32      O        0.78740    0.80120    0.63220    1.000
    O33      O        0.72640    0.82590    0.57660    1.000
    Cu5      Cu       0.53758    0.14568    0.72297    1.000
    Cu6      Cu       0.53888    0.07623    0.58648    1.000
    Cu7      Cu       0.48376    0.18427    0.61089    1.000
    Cu8      Cu       0.53319    0.01451    0.44975    1.000
    C43      C        0.73575    0.11730    0.46030    1.000
    C44      C        0.71090    0.09130    0.40920    1.000
    C45      C        0.71880    0.12520    0.52080    1.000
    C46      C        0.67068    0.07600    0.42100    1.000
    H21      H        0.65480    0.05990    0.38720    1.000
    C47      C        0.65346    0.08420    0.48300    1.000
    C48      C        0.61009    0.06580    0.49670    1.000
    C49      C        0.67742    0.10950    0.53210    1.000
    H22      H        0.66590    0.11640    0.57340    1.000
    C50      C        0.79900    0.18050    0.43180    1.000
    C51      C        0.78109    0.12740    0.44760    1.000
    C52      C        0.80640    0.07780    0.45420    1.000
    H23      H        0.79490    0.04090    0.46610    1.000
    C53      C        0.84859    0.08110    0.44350    1.000
    H24      H        0.86480    0.04660    0.44680    1.000
    C54      C        0.86649    0.13650    0.42780    1.000
    C55      C        0.84160    0.18620    0.42240    1.000
    H25      H        0.85290    0.22370    0.41250    1.000
    C56      C        0.91193    0.14110    0.41700    1.000
    C57      C        0.62043    0.12720    0.76100    1.000
    C58      C        0.65909    0.08720    0.75470    1.000
    C59      C        0.69110    0.09600    0.79840    1.000
    H26      H        0.68950    0.12490    0.83160    1.000
    C60      C        0.72630    0.05960    0.79080    1.000
    H27      H        0.74790    0.06410    0.82050    1.000
    C61      C        0.72987    0.01890    0.74280    1.000
    C62      C        0.69797    0.01160    0.70150    1.000
    C63      C        0.66165    0.04500    0.70690    1.000
    H28      H        0.63980    0.03830    0.67820    1.000
    C64      C        0.50927    0.16730    0.48030    1.000
    C65      C        0.51566    0.19100    0.41100    1.000
    C66      C        0.54932    0.17120    0.37320    1.000
    H29      H        0.56720    0.14200    0.38960    1.000
    C67      C        0.55530    0.19590    0.31140    1.000
    C68      C        0.52810    0.23730    0.28370    1.000
    C69      C        0.49482    0.25500    0.32260    1.000
    H30      H        0.47570    0.28230    0.30570    1.000
    C70      C        0.48965    0.23290    0.38550    1.000
    H31      H        0.46790    0.24690    0.41110    1.000
    C71      C        0.50440    0.16590    0.85450    1.000
    C72      C        0.49896    0.14280    0.92360    1.000
    C73      C        0.52740    0.10340    0.94920    1.000
    H32      H        0.55000    0.09190    0.92400    1.000
    C74      C        0.52250    0.08040    0.01280    1.000
    H33      H        0.54180    0.05310    0.02910    1.000
    C75      C        0.48973    0.09720    0.05220    1.000
    C76      C        0.46157    0.13700    0.02360    1.000
    C77      C        0.46554    0.15960    0.96100    1.000
    H34      H        0.44590    0.18600    0.94410    1.000
    C78      C        0.48953    0.07250    0.12050    1.000
    C79      C        0.52450    0.08600    0.16040    1.000
    H35      H        0.54460    0.11180    0.14390    1.000
    C80      C        0.52948    0.06210    0.22230    1.000
    H36      H        0.55280    0.07200    0.24660    1.000
    C81      C        0.50122    0.02440    0.24870    1.000
    C82      C        0.50638    0.99810    0.31620    1.000
    C83      C        0.46617    0.01060    0.21160    1.000
    H37      H        0.44610    0.98520    0.22900    1.000
    C84      C        0.46120    0.03400    0.15040    1.000
    O34      O        0.59077    0.04102    0.45085    1.000
    O35      O        0.59732    0.07742    0.55421    1.000
    O36      O        0.71190    0.04570    0.30450    1.000
    O37      O        0.74920    0.12310    0.31830    1.000
    O38      O        0.73840    0.23050    0.40410    1.000
    O39      O        0.79360    0.28920    0.43850    1.000
    O40      O        0.92488    0.19171    0.39861    1.000
    O41      O        0.93421    0.09627    0.42651    1.000
    O42      O        0.59057    0.10884    0.72638    1.000
    O43      O        0.62077    0.16960    0.79920    1.000
    O44      O        0.67280    0.96180    0.60790    1.000
    O45      O        0.71750    0.91490    0.65920    1.000
    O46      O        0.49249    0.20348    0.51966    1.000
    O47      O        0.52054    0.11495    0.49344    1.000
    O48      O        0.59504    0.18460    0.21740    1.000
    O49      O        0.61812    0.14940    0.30610    1.000
    O50      O        0.48571    0.21335    0.83951    1.000
    O51      O        0.52727    0.13530    0.81685    1.000
    O52      O        0.39550    0.17720    0.02810    1.000
    O53      O        0.42382    0.15280    0.12020    1.000
    O54      O        0.42032    0.02250    0.05450    1.000
    O55      O        0.39426    0.99920    0.14610    1.000
    O56      O        0.48518    0.95248    0.32947    1.000
    O57      O        0.53098    0.02494    0.35439    1.000
    O58      O        0.52669    0.00074    0.54415    1.000
    H38      H        0.54340    0.96710    0.56070    1.000
    O59      O        0.54049    0.15589    0.62631    1.000
    H39      H        0.56230    0.18270    0.61030    1.000
    O60      O        0.48141    0.17348    0.70669    1.000
    H40      H        0.46040    0.14440    0.72080    1.000
    O61      O        0.72870    0.14390    0.64170    1.000
    O62      O        0.76530    0.20130    0.56560    1.000
    N8       N        0.72480    0.08600    0.33960    1.000
    N9       N        0.73440    0.16640    0.58240    1.000
    N10      N        0.77530    0.23910    0.42570    1.000
    N11      N        0.69980    0.96840    0.64670    1.000
    N12      N        0.59140    0.17640    0.27570    1.000
    N13      N        0.42391    0.15770    0.05980    1.000
    N14      N        0.42259    0.01770    0.11550    1.000
    O63      O        0.74030    0.24290    0.44760    1.000
    O64      O        0.78970    0.28270    0.38530    1.000
    O65      O        0.71260    0.19880    0.63220    1.000
    O66      O        0.77360    0.17410    0.57660    1.000
    Cu9      Cu       0.53758    0.35432    0.77703    1.000
    Cu10     Cu       0.53888    0.42377    0.91352    1.000
    Cu11     Cu       0.48376    0.31573    0.88911    1.000
    Cu12     Cu       0.53319    0.48549    0.05025    1.000
    C85      C        0.73575    0.38270    0.03970    1.000
    C86      C        0.71090    0.40870    0.09080    1.000
    C87      C        0.71880    0.37480    0.97920    1.000
    C88      C        0.67068    0.42400    0.07900    1.000
    H41      H        0.65480    0.44010    0.11280    1.000
    C89      C        0.65346    0.41580    0.01700    1.000
    C90      C        0.61009    0.43420    0.00330    1.000
    C91      C        0.67742    0.39050    0.96790    1.000
    H42      H        0.66590    0.38360    0.92660    1.000
    C92      C        0.79900    0.31950    0.06820    1.000
    C93      C        0.78109    0.37260    0.05240    1.000
    C94      C        0.80640    0.42220    0.04580    1.000
    H43      H        0.79490    0.45910    0.03390    1.000
    C95      C        0.84859    0.41890    0.05650    1.000
    H44      H        0.86480    0.45340    0.05320    1.000
    C96      C        0.86649    0.36350    0.07220    1.000
    C97      C        0.84160    0.31380    0.07760    1.000
    H45      H        0.85290    0.27630    0.08750    1.000
    C98      C        0.91193    0.35890    0.08300    1.000
    C99      C        0.62043    0.37280    0.73900    1.000
    C100     C        0.65909    0.41280    0.74530    1.000
    C101     C        0.69110    0.40400    0.70160    1.000
    H46      H        0.68950    0.37510    0.66840    1.000
    C102     C        0.72630    0.44040    0.70920    1.000
    H47      H        0.74790    0.43590    0.67950    1.000
    C103     C        0.72987    0.48110    0.75720    1.000
    C104     C        0.69797    0.48840    0.79850    1.000
    C105     C        0.66165    0.45500    0.79310    1.000
    H48      H        0.63980    0.46170    0.82180    1.000
    C106     C        0.50927    0.33270    0.01970    1.000
    C107     C        0.51566    0.30900    0.08900    1.000
    C108     C        0.54932    0.32880    0.12680    1.000
    H49      H        0.56720    0.35800    0.11040    1.000
    C109     C        0.55530    0.30410    0.18860    1.000
    C110     C        0.52810    0.26270    0.21630    1.000
    C111     C        0.49482    0.24500    0.17740    1.000
    H50      H        0.47570    0.21770    0.19430    1.000
    C112     C        0.48965    0.26710    0.11450    1.000
    H51      H        0.46790    0.25310    0.08890    1.000
    C113     C        0.50440    0.33410    0.64550    1.000
    C114     C        0.49896    0.35720    0.57640    1.000
    C115     C        0.52740    0.39660    0.55080    1.000
    H52      H        0.55000    0.40810    0.57600    1.000
    C116     C        0.52250    0.41960    0.48720    1.000
    H53      H        0.54180    0.44690    0.47090    1.000
    C117     C        0.48973    0.40280    0.44780    1.000
    C118     C        0.46157    0.36300    0.47640    1.000
    C119     C        0.46554    0.34040    0.53900    1.000
    H54      H        0.44590    0.31400    0.55590    1.000
    C120     C        0.48953    0.42750    0.37950    1.000
    C121     C        0.52450    0.41400    0.33960    1.000
    H55      H        0.54460    0.38820    0.35610    1.000
    C122     C        0.52948    0.43790    0.27770    1.000
    H56      H        0.55280    0.42800    0.25340    1.000
    C123     C        0.50122    0.47560    0.25130    1.000
    C124     C        0.50638    0.50190    0.18380    1.000
    C125     C        0.46617    0.48940    0.28840    1.000
    H57      H        0.44610    0.51480    0.27100    1.000
    C126     C        0.46120    0.46600    0.34960    1.000
    O67      O        0.59077    0.45898    0.04915    1.000
    O68      O        0.59732    0.42258    0.94579    1.000
    O69      O        0.71190    0.45430    0.19550    1.000
    O70      O        0.74920    0.37690    0.18170    1.000
    O71      O        0.73840    0.26950    0.09590    1.000
    O72      O        0.79360    0.21080    0.06150    1.000
    O73      O        0.92488    0.30829    0.10139    1.000
    O74      O        0.93421    0.40373    0.07349    1.000
    O75      O        0.59057    0.39116    0.77362    1.000
    O76      O        0.62077    0.33040    0.70080    1.000
    O77      O        0.67280    0.53820    0.89210    1.000
    O78      O        0.71750    0.58510    0.84080    1.000
    O79      O        0.49249    0.29652    0.98034    1.000
    O80      O        0.52054    0.38505    0.00656    1.000
    O81      O        0.59504    0.31540    0.28260    1.000
    O82      O        0.61812    0.35060    0.19390    1.000
    O83      O        0.48571    0.28665    0.66049    1.000
    O84      O        0.52727    0.36470    0.68315    1.000
    O85      O        0.39550    0.32280    0.47190    1.000
    O86      O        0.42382    0.34720    0.37980    1.000
    O87      O        0.42032    0.47750    0.44550    1.000
    O88      O        0.39426    0.50080    0.35390    1.000
    O89      O        0.48518    0.54752    0.17053    1.000
    O90      O        0.53098    0.47506    0.14561    1.000
    O91      O        0.52669    0.49926    0.95585    1.000
    H58      H        0.54340    0.53290    0.93930    1.000
    O92      O        0.54049    0.34411    0.87369    1.000
    H59      H        0.56230    0.31730    0.88970    1.000
    O93      O        0.48141    0.32652    0.79331    1.000
    H60      H        0.46040    0.35560    0.77920    1.000
    O94      O        0.72870    0.35610    0.85830    1.000
    O95      O        0.76530    0.29870    0.93440    1.000
    N15      N        0.72480    0.41400    0.16040    1.000
    N16      N        0.73440    0.33360    0.91760    1.000
    N17      N        0.77530    0.26090    0.07430    1.000
    N18      N        0.69980    0.53160    0.85330    1.000
    N19      N        0.59140    0.32360    0.22430    1.000
    N20      N        0.42391    0.34230    0.44020    1.000
    N21      N        0.42259    0.48230    0.38450    1.000
    O96      O        0.74030    0.25710    0.05240    1.000
    O97      O        0.78970    0.21730    0.11470    1.000
    O98      O        0.71260    0.30120    0.86780    1.000
    O99      O        0.77360    0.32590    0.92340    1.000
    Cu13     Cu       0.96242    0.64568    0.77703    1.000
    Cu14     Cu       0.96112    0.57623    0.91352    1.000
    Cu15     Cu       0.01624    0.68427    0.88911    1.000
    Cu16     Cu       0.96681    0.51451    0.05025    1.000
    C127     C        0.76425    0.61730    0.03970    1.000
    C128     C        0.78910    0.59130    0.09080    1.000
    C129     C        0.78120    0.62520    0.97920    1.000
    C130     C        0.82932    0.57600    0.07900    1.000
    H61      H        0.84520    0.55990    0.11280    1.000
    C131     C        0.84654    0.58420    0.01700    1.000
    C132     C        0.88991    0.56580    0.00330    1.000
    C133     C        0.82258    0.60950    0.96790    1.000
    H62      H        0.83410    0.61640    0.92660    1.000
    C134     C        0.70100    0.68050    0.06820    1.000
    C135     C        0.71891    0.62740    0.05240    1.000
    C136     C        0.69360    0.57780    0.04580    1.000
    H63      H        0.70510    0.54090    0.03390    1.000
    C137     C        0.65141    0.58110    0.05650    1.000
    H64      H        0.63520    0.54660    0.05320    1.000
    C138     C        0.63351    0.63650    0.07220    1.000
    C139     C        0.65840    0.68620    0.07760    1.000
    H65      H        0.64710    0.72370    0.08750    1.000
    C140     C        0.58807    0.64110    0.08300    1.000
    C141     C        0.87957    0.62720    0.73900    1.000
    C142     C        0.84091    0.58720    0.74530    1.000
    C143     C        0.80890    0.59600    0.70160    1.000
    H66      H        0.81050    0.62490    0.66840    1.000
    C144     C        0.77370    0.55960    0.70920    1.000
    H67      H        0.75210    0.56410    0.67950    1.000
    C145     C        0.77013    0.51890    0.75720    1.000
    C146     C        0.80203    0.51160    0.79850    1.000
    C147     C        0.83835    0.54500    0.79310    1.000
    H68      H        0.86020    0.53830    0.82180    1.000
    C148     C        0.99073    0.66730    0.01970    1.000
    C149     C        0.98434    0.69100    0.08900    1.000
    C150     C        0.95068    0.67120    0.12680    1.000
    H69      H        0.93280    0.64200    0.11040    1.000
    C151     C        0.94470    0.69590    0.18860    1.000
    C152     C        0.97190    0.73730    0.21630    1.000
    C153     C        0.00518    0.75500    0.17740    1.000
    H70      H        0.02430    0.78230    0.19430    1.000
    C154     C        0.01035    0.73290    0.11450    1.000
    H71      H        0.03210    0.74690    0.08890    1.000
    C155     C        0.99560    0.66590    0.64550    1.000
    C156     C        0.00104    0.64280    0.57640    1.000
    C157     C        0.97260    0.60340    0.55080    1.000
    H72      H        0.95000    0.59190    0.57600    1.000
    C158     C        0.97750    0.58040    0.48720    1.000
    H73      H        0.95820    0.55310    0.47090    1.000
    C159     C        0.01027    0.59720    0.44780    1.000
    C160     C        0.03843    0.63700    0.47640    1.000
    C161     C        0.03446    0.65960    0.53900    1.000
    H74      H        0.05410    0.68600    0.55590    1.000
    C162     C        0.01047    0.57250    0.37950    1.000
    C163     C        0.97550    0.58600    0.33960    1.000
    H75      H        0.95540    0.61180    0.35610    1.000
    C164     C        0.97052    0.56210    0.27770    1.000
    H76      H        0.94720    0.57200    0.25340    1.000
    C165     C        0.99878    0.52440    0.25130    1.000
    C166     C        0.99362    0.49810    0.18380    1.000
    C167     C        0.03383    0.51060    0.28840    1.000
    H77      H        0.05390    0.48520    0.27100    1.000
    C168     C        0.03880    0.53400    0.34960    1.000
    O100     O        0.90923    0.54102    0.04915    1.000
    O101     O        0.90268    0.57742    0.94579    1.000
    O102     O        0.78810    0.54570    0.19550    1.000
    O103     O        0.75080    0.62310    0.18170    1.000
    O104     O        0.76160    0.73050    0.09590    1.000
    O105     O        0.70640    0.78920    0.06150    1.000
    O106     O        0.57512    0.69171    0.10139    1.000
    O107     O        0.56579    0.59627    0.07349    1.000
    O108     O        0.90943    0.60884    0.77362    1.000
    O109     O        0.87923    0.66960    0.70080    1.000
    O110     O        0.82720    0.46180    0.89210    1.000
    O111     O        0.78250    0.41490    0.84080    1.000
    O112     O        0.00751    0.70348    0.98034    1.000
    O113     O        0.97946    0.61495    0.00656    1.000
    O114     O        0.90496    0.68460    0.28260    1.000
    O115     O        0.88188    0.64940    0.19390    1.000
    O116     O        0.01429    0.71335    0.66049    1.000
    O117     O        0.97273    0.63530    0.68315    1.000
    O118     O        0.10450    0.67720    0.47190    1.000
    O119     O        0.07618    0.65280    0.37980    1.000
    O120     O        0.07968    0.52250    0.44550    1.000
    O121     O        0.10574    0.49920    0.35390    1.000
    O122     O        0.01482    0.45248    0.17053    1.000
    O123     O        0.96902    0.52494    0.14561    1.000
    O124     O        0.97331    0.50074    0.95585    1.000
    H78      H        0.95660    0.46710    0.93930    1.000
    O125     O        0.95951    0.65589    0.87369    1.000
    H79      H        0.93770    0.68270    0.88970    1.000
    O126     O        0.01859    0.67348    0.79331    1.000
    H80      H        0.03960    0.64440    0.77920    1.000
    O127     O        0.77130    0.64390    0.85830    1.000
    O128     O        0.73470    0.70130    0.93440    1.000
    N22      N        0.77520    0.58600    0.16040    1.000
    N23      N        0.76560    0.66640    0.91760    1.000
    N24      N        0.72470    0.73910    0.07430    1.000
    N25      N        0.80020    0.46840    0.85330    1.000
    N26      N        0.90860    0.67640    0.22430    1.000
    N27      N        0.07609    0.65770    0.44020    1.000
    N28      N        0.07741    0.51770    0.38450    1.000
    O129     O        0.75970    0.74290    0.05240    1.000
    O130     O        0.71030    0.78270    0.11470    1.000
    O131     O        0.78740    0.69880    0.86780    1.000
    O132     O        0.72640    0.67410    0.92340    1.000
    Cu17     Cu       0.03758    0.14568    0.27703    1.000
    Cu18     Cu       0.03888    0.07623    0.41352    1.000
    Cu19     Cu       0.98376    0.18427    0.38911    1.000
    Cu20     Cu       0.03319    0.01451    0.55025    1.000
    C169     C        0.23575    0.11730    0.53970    1.000
    C170     C        0.21090    0.09130    0.59080    1.000
    C171     C        0.21880    0.12520    0.47920    1.000
    C172     C        0.17068    0.07600    0.57900    1.000
    H81      H        0.15480    0.05990    0.61280    1.000
    C173     C        0.15346    0.08420    0.51700    1.000
    C174     C        0.11009    0.06580    0.50330    1.000
    C175     C        0.17742    0.10950    0.46790    1.000
    H82      H        0.16590    0.11640    0.42660    1.000
    C176     C        0.29900    0.18050    0.56820    1.000
    C177     C        0.28109    0.12740    0.55240    1.000
    C178     C        0.30640    0.07780    0.54580    1.000
    H83      H        0.29490    0.04090    0.53390    1.000
    C179     C        0.34859    0.08110    0.55650    1.000
    H84      H        0.36480    0.04660    0.55320    1.000
    C180     C        0.36649    0.13650    0.57220    1.000
    C181     C        0.34160    0.18620    0.57760    1.000
    H85      H        0.35290    0.22370    0.58750    1.000
    C182     C        0.41193    0.14110    0.58300    1.000
    C183     C        0.12043    0.12720    0.23900    1.000
    C184     C        0.15909    0.08720    0.24530    1.000
    C185     C        0.19110    0.09600    0.20160    1.000
    H86      H        0.18950    0.12490    0.16840    1.000
    C186     C        0.22630    0.05960    0.20920    1.000
    H87      H        0.24790    0.06410    0.17950    1.000
    C187     C        0.22987    0.01890    0.25720    1.000
    C188     C        0.19797    0.01160    0.29850    1.000
    C189     C        0.16165    0.04500    0.29310    1.000
    H88      H        0.13980    0.03830    0.32180    1.000
    C190     C        0.00927    0.16730    0.51970    1.000
    C191     C        0.01566    0.19100    0.58900    1.000
    C192     C        0.04932    0.17120    0.62680    1.000
    H89      H        0.06720    0.14200    0.61040    1.000
    C193     C        0.05530    0.19590    0.68860    1.000
    C194     C        0.02810    0.23730    0.71630    1.000
    C195     C        0.99482    0.25500    0.67740    1.000
    H90      H        0.97570    0.28230    0.69430    1.000
    C196     C        0.98965    0.23290    0.61450    1.000
    H91      H        0.96790    0.24690    0.58890    1.000
    C197     C        0.00440    0.16590    0.14550    1.000
    C198     C        0.99896    0.14280    0.07640    1.000
    C199     C        0.02740    0.10340    0.05080    1.000
    H92      H        0.05000    0.09190    0.07600    1.000
    C200     C        0.02250    0.08040    0.98720    1.000
    H93      H        0.04180    0.05310    0.97090    1.000
    C201     C        0.98973    0.09720    0.94780    1.000
    C202     C        0.96157    0.13700    0.97640    1.000
    C203     C        0.96554    0.15960    0.03900    1.000
    H94      H        0.94590    0.18600    0.05590    1.000
    C204     C        0.98953    0.07250    0.87950    1.000
    C205     C        0.02450    0.08600    0.83960    1.000
    H95      H        0.04460    0.11180    0.85610    1.000
    C206     C        0.02948    0.06210    0.77770    1.000
    H96      H        0.05280    0.07200    0.75340    1.000
    C207     C        0.00122    0.02440    0.75130    1.000
    C208     C        0.00638    0.99810    0.68380    1.000
    C209     C        0.96617    0.01060    0.78840    1.000
    H97      H        0.94610    0.98520    0.77100    1.000
    C210     C        0.96120    0.03400    0.84960    1.000
    O133     O        0.09077    0.04102    0.54915    1.000
    O134     O        0.09732    0.07742    0.44579    1.000
    O135     O        0.21190    0.04570    0.69550    1.000
    O136     O        0.24920    0.12310    0.68170    1.000
    O137     O        0.23840    0.23050    0.59590    1.000
    O138     O        0.29360    0.28920    0.56150    1.000
    O139     O        0.42488    0.19171    0.60139    1.000
    O140     O        0.43421    0.09627    0.57349    1.000
    O141     O        0.09057    0.10884    0.27362    1.000
    O142     O        0.12077    0.16960    0.20080    1.000
    O143     O        0.17280    0.96180    0.39210    1.000
    O144     O        0.21750    0.91490    0.34080    1.000
    O145     O        0.99249    0.20348    0.48034    1.000
    O146     O        0.02054    0.11495    0.50656    1.000
    O147     O        0.09504    0.18460    0.78260    1.000
    O148     O        0.11812    0.14940    0.69390    1.000
    O149     O        0.98571    0.21335    0.16049    1.000
    O150     O        0.02727    0.13530    0.18315    1.000
    O151     O        0.89550    0.17720    0.97190    1.000
    O152     O        0.92382    0.15280    0.87980    1.000
    O153     O        0.92032    0.02250    0.94550    1.000
    O154     O        0.89426    0.99920    0.85390    1.000
    O155     O        0.98518    0.95248    0.67053    1.000
    O156     O        0.03098    0.02494    0.64561    1.000
    O157     O        0.02669    0.00074    0.45585    1.000
    H98      H        0.04340    0.96710    0.43930    1.000
    O158     O        0.04049    0.15589    0.37369    1.000
    H99      H        0.06230    0.18270    0.38970    1.000
    O159     O        0.98141    0.17348    0.29331    1.000
    H100     H        0.96040    0.14440    0.27920    1.000
    O160     O        0.22870    0.14390    0.35830    1.000
    O161     O        0.26530    0.20130    0.43440    1.000
    N29      N        0.22480    0.08600    0.66040    1.000
    N30      N        0.23440    0.16640    0.41760    1.000
    N31      N        0.27530    0.23910    0.57430    1.000
    N32      N        0.19980    0.96840    0.35330    1.000
    N33      N        0.09140    0.17640    0.72430    1.000
    N34      N        0.92391    0.15770    0.94020    1.000
    N35      N        0.92259    0.01770    0.88450    1.000
    O162     O        0.24030    0.24290    0.55240    1.000
    O163     O        0.28970    0.28270    0.61470    1.000
    O164     O        0.21260    0.19880    0.36780    1.000
    O165     O        0.27360    0.17410    0.42340    1.000
    Cu21     Cu       0.46242    0.85432    0.27703    1.000
    Cu22     Cu       0.46112    0.92377    0.41352    1.000
    Cu23     Cu       0.51624    0.81573    0.38911    1.000
    Cu24     Cu       0.46681    0.98549    0.55025    1.000
    C211     C        0.26425    0.88270    0.53970    1.000
    C212     C        0.28910    0.90870    0.59080    1.000
    C213     C        0.28120    0.87480    0.47920    1.000
    C214     C        0.32932    0.92400    0.57900    1.000
    H101     H        0.34520    0.94010    0.61280    1.000
    C215     C        0.34654    0.91580    0.51700    1.000
    C216     C        0.38991    0.93420    0.50330    1.000
    C217     C        0.32258    0.89050    0.46790    1.000
    H102     H        0.33410    0.88360    0.42660    1.000
    C218     C        0.20100    0.81950    0.56820    1.000
    C219     C        0.21891    0.87260    0.55240    1.000
    C220     C        0.19360    0.92220    0.54580    1.000
    H103     H        0.20510    0.95910    0.53390    1.000
    C221     C        0.15141    0.91890    0.55650    1.000
    H104     H        0.13520    0.95340    0.55320    1.000
    C222     C        0.13351    0.86350    0.57220    1.000
    C223     C        0.15840    0.81380    0.57760    1.000
    H105     H        0.14710    0.77630    0.58750    1.000
    C224     C        0.08807    0.85890    0.58300    1.000
    C225     C        0.37957    0.87280    0.23900    1.000
    C226     C        0.34091    0.91280    0.24530    1.000
    C227     C        0.30890    0.90400    0.20160    1.000
    H106     H        0.31050    0.87510    0.16840    1.000
    C228     C        0.27370    0.94040    0.20920    1.000
    H107     H        0.25210    0.93590    0.17950    1.000
    C229     C        0.27013    0.98110    0.25720    1.000
    C230     C        0.30203    0.98840    0.29850    1.000
    C231     C        0.33835    0.95500    0.29310    1.000
    H108     H        0.36020    0.96170    0.32180    1.000
    C232     C        0.49073    0.83270    0.51970    1.000
    C233     C        0.48434    0.80900    0.58900    1.000
    C234     C        0.45068    0.82880    0.62680    1.000
    H109     H        0.43280    0.85800    0.61040    1.000
    C235     C        0.44470    0.80410    0.68860    1.000
    C236     C        0.47190    0.76270    0.71630    1.000
    C237     C        0.50518    0.74500    0.67740    1.000
    H110     H        0.52430    0.71770    0.69430    1.000
    C238     C        0.51035    0.76710    0.61450    1.000
    H111     H        0.53210    0.75310    0.58890    1.000
    C239     C        0.49560    0.83410    0.14550    1.000
    C240     C        0.50104    0.85720    0.07640    1.000
    C241     C        0.47260    0.89660    0.05080    1.000
    H112     H        0.45000    0.90810    0.07600    1.000
    C242     C        0.47750    0.91960    0.98720    1.000
    H113     H        0.45820    0.94690    0.97090    1.000
    C243     C        0.51027    0.90280    0.94780    1.000
    C244     C        0.53843    0.86300    0.97640    1.000
    C245     C        0.53446    0.84040    0.03900    1.000
    H114     H        0.55410    0.81400    0.05590    1.000
    C246     C        0.51047    0.92750    0.87950    1.000
    C247     C        0.47550    0.91400    0.83960    1.000
    H115     H        0.45540    0.88820    0.85610    1.000
    C248     C        0.47052    0.93790    0.77770    1.000
    H116     H        0.44720    0.92800    0.75340    1.000
    C249     C        0.49878    0.97560    0.75130    1.000
    C250     C        0.49362    0.00190    0.68380    1.000
    C251     C        0.53383    0.98940    0.78840    1.000
    H117     H        0.55390    0.01480    0.77100    1.000
    C252     C        0.53880    0.96600    0.84960    1.000
    O166     O        0.40923    0.95898    0.54915    1.000
    O167     O        0.40268    0.92258    0.44579    1.000
    O168     O        0.28810    0.95430    0.69550    1.000
    O169     O        0.25080    0.87690    0.68170    1.000
    O170     O        0.26160    0.76950    0.59590    1.000
    O171     O        0.20640    0.71080    0.56150    1.000
    O172     O        0.07512    0.80829    0.60139    1.000
    O173     O        0.06579    0.90373    0.57349    1.000
    O174     O        0.40943    0.89116    0.27362    1.000
    O175     O        0.37923    0.83040    0.20080    1.000
    O176     O        0.32720    0.03820    0.39210    1.000
    O177     O        0.28250    0.08510    0.34080    1.000
    O178     O        0.50751    0.79652    0.48034    1.000
    O179     O        0.47946    0.88505    0.50656    1.000
    O180     O        0.40496    0.81540    0.78260    1.000
    O181     O        0.38188    0.85060    0.69390    1.000
    O182     O        0.51429    0.78665    0.16049    1.000
    O183     O        0.47273    0.86470    0.18315    1.000
    O184     O        0.60450    0.82280    0.97190    1.000
    O185     O        0.57618    0.84720    0.87980    1.000
    O186     O        0.57968    0.97750    0.94550    1.000
    O187     O        0.60574    0.00080    0.85390    1.000
    O188     O        0.51482    0.04752    0.67053    1.000
    O189     O        0.46902    0.97506    0.64561    1.000
    O190     O        0.47331    0.99926    0.45585    1.000
    H118     H        0.45660    0.03290    0.43930    1.000
    O191     O        0.45951    0.84411    0.37369    1.000
    H119     H        0.43770    0.81730    0.38970    1.000
    O192     O        0.51859    0.82652    0.29331    1.000
    H120     H        0.53960    0.85560    0.27920    1.000
    O193     O        0.27130    0.85610    0.35830    1.000
    O194     O        0.23470    0.79870    0.43440    1.000
    N36      N        0.27520    0.91400    0.66040    1.000
    N37      N        0.26560    0.83360    0.41760    1.000
    N38      N        0.22470    0.76090    0.57430    1.000
    N39      N        0.30020    0.03160    0.35330    1.000
    N40      N        0.40860    0.82360    0.72430    1.000
    N41      N        0.57609    0.84230    0.94020    1.000
    N42      N        0.57741    0.98230    0.88450    1.000
    O195     O        0.25970    0.75710    0.55240    1.000
    O196     O        0.21030    0.71730    0.61470    1.000
    O197     O        0.28740    0.80120    0.36780    1.000
    O198     O        0.22640    0.82590    0.42340    1.000
    Cu25     Cu       0.46242    0.64568    0.22297    1.000
    Cu26     Cu       0.46112    0.57623    0.08648    1.000
    Cu27     Cu       0.51624    0.68427    0.11089    1.000
    Cu28     Cu       0.46681    0.51451    0.94975    1.000
    C253     C        0.26425    0.61730    0.96030    1.000
    C254     C        0.28910    0.59130    0.90920    1.000
    C255     C        0.28120    0.62520    0.02080    1.000
    C256     C        0.32932    0.57600    0.92100    1.000
    H121     H        0.34520    0.55990    0.88720    1.000
    C257     C        0.34654    0.58420    0.98300    1.000
    C258     C        0.38991    0.56580    0.99670    1.000
    C259     C        0.32258    0.60950    0.03210    1.000
    H122     H        0.33410    0.61640    0.07340    1.000
    C260     C        0.20100    0.68050    0.93180    1.000
    C261     C        0.21891    0.62740    0.94760    1.000
    C262     C        0.19360    0.57780    0.95420    1.000
    H123     H        0.20510    0.54090    0.96610    1.000
    C263     C        0.15141    0.58110    0.94350    1.000
    H124     H        0.13520    0.54660    0.94680    1.000
    C264     C        0.13351    0.63650    0.92780    1.000
    C265     C        0.15840    0.68620    0.92240    1.000
    H125     H        0.14710    0.72370    0.91250    1.000
    C266     C        0.08807    0.64110    0.91700    1.000
    C267     C        0.37957    0.62720    0.26100    1.000
    C268     C        0.34091    0.58720    0.25470    1.000
    C269     C        0.30890    0.59600    0.29840    1.000
    H126     H        0.31050    0.62490    0.33160    1.000
    C270     C        0.27370    0.55960    0.29080    1.000
    H127     H        0.25210    0.56410    0.32050    1.000
    C271     C        0.27013    0.51890    0.24280    1.000
    C272     C        0.30203    0.51160    0.20150    1.000
    C273     C        0.33835    0.54500    0.20690    1.000
    H128     H        0.36020    0.53830    0.17820    1.000
    C274     C        0.49073    0.66730    0.98030    1.000
    C275     C        0.48434    0.69100    0.91100    1.000
    C276     C        0.45068    0.67120    0.87320    1.000
    H129     H        0.43280    0.64200    0.88960    1.000
    C277     C        0.44470    0.69590    0.81140    1.000
    C278     C        0.47190    0.73730    0.78370    1.000
    C279     C        0.50518    0.75500    0.82260    1.000
    H130     H        0.52430    0.78230    0.80570    1.000
    C280     C        0.51035    0.73290    0.88550    1.000
    H131     H        0.53210    0.74690    0.91110    1.000
    C281     C        0.49560    0.66590    0.35450    1.000
    C282     C        0.50104    0.64280    0.42360    1.000
    C283     C        0.47260    0.60340    0.44920    1.000
    H132     H        0.45000    0.59190    0.42400    1.000
    C284     C        0.47750    0.58040    0.51280    1.000
    H133     H        0.45820    0.55310    0.52910    1.000
    C285     C        0.51027    0.59720    0.55220    1.000
    C286     C        0.53843    0.63700    0.52360    1.000
    C287     C        0.53446    0.65960    0.46100    1.000
    H134     H        0.55410    0.68600    0.44410    1.000
    C288     C        0.51047    0.57250    0.62050    1.000
    C289     C        0.47550    0.58600    0.66040    1.000
    H135     H        0.45540    0.61180    0.64390    1.000
    C290     C        0.47052    0.56210    0.72230    1.000
    H136     H        0.44720    0.57200    0.74660    1.000
    C291     C        0.49878    0.52440    0.74870    1.000
    C292     C        0.49362    0.49810    0.81620    1.000
    C293     C        0.53383    0.51060    0.71160    1.000
    H137     H        0.55390    0.48520    0.72900    1.000
    C294     C        0.53880    0.53400    0.65040    1.000
    O199     O        0.40923    0.54102    0.95085    1.000
    O200     O        0.40268    0.57742    0.05421    1.000
    O201     O        0.28810    0.54570    0.80450    1.000
    O202     O        0.25080    0.62310    0.81830    1.000
    O203     O        0.26160    0.73050    0.90410    1.000
    O204     O        0.20640    0.78920    0.93850    1.000
    O205     O        0.07512    0.69171    0.89861    1.000
    O206     O        0.06579    0.59627    0.92651    1.000
    O207     O        0.40943    0.60884    0.22638    1.000
    O208     O        0.37923    0.66960    0.29920    1.000
    O209     O        0.32720    0.46180    0.10790    1.000
    O210     O        0.28250    0.41490    0.15920    1.000
    O211     O        0.50751    0.70348    0.01966    1.000
    O212     O        0.47946    0.61495    0.99344    1.000
    O213     O        0.40496    0.68460    0.71740    1.000
    O214     O        0.38188    0.64940    0.80610    1.000
    O215     O        0.51429    0.71335    0.33951    1.000
    O216     O        0.47273    0.63530    0.31685    1.000
    O217     O        0.60450    0.67720    0.52810    1.000
    O218     O        0.57618    0.65280    0.62020    1.000
    O219     O        0.57968    0.52250    0.55450    1.000
    O220     O        0.60574    0.49920    0.64610    1.000
    O221     O        0.51482    0.45248    0.82947    1.000
    O222     O        0.46902    0.52494    0.85439    1.000
    O223     O        0.47331    0.50074    0.04415    1.000
    H138     H        0.45660    0.46710    0.06070    1.000
    O224     O        0.45951    0.65589    0.12631    1.000
    H139     H        0.43770    0.68270    0.11030    1.000
    O225     O        0.51859    0.67348    0.20669    1.000
    H140     H        0.53960    0.64440    0.22080    1.000
    O226     O        0.27130    0.64390    0.14170    1.000
    O227     O        0.23470    0.70130    0.06560    1.000
    N43      N        0.27520    0.58600    0.83960    1.000
    N44      N        0.26560    0.66640    0.08240    1.000
    N45      N        0.22470    0.73910    0.92570    1.000
    N46      N        0.30020    0.46840    0.14670    1.000
    N47      N        0.40860    0.67640    0.77570    1.000
    N48      N        0.57609    0.65770    0.55980    1.000
    N49      N        0.57741    0.51770    0.61550    1.000
    O228     O        0.25970    0.74290    0.94760    1.000
    O229     O        0.21030    0.78270    0.88530    1.000
    O230     O        0.28740    0.69880    0.13220    1.000
    O231     O        0.22640    0.67410    0.07660    1.000
    Cu29     Cu       0.03758    0.35432    0.22297    1.000
    Cu30     Cu       0.03888    0.42377    0.08648    1.000
    Cu31     Cu       0.98376    0.31573    0.11089    1.000
    Cu32     Cu       0.03319    0.48549    0.94975    1.000
    C295     C        0.23575    0.38270    0.96030    1.000
    C296     C        0.21090    0.40870    0.90920    1.000
    C297     C        0.21880    0.37480    0.02080    1.000
    C298     C        0.17068    0.42400    0.92100    1.000
    H141     H        0.15480    0.44010    0.88720    1.000
    C299     C        0.15346    0.41580    0.98300    1.000
    C300     C        0.11009    0.43420    0.99670    1.000
    C301     C        0.17742    0.39050    0.03210    1.000
    H142     H        0.16590    0.38360    0.07340    1.000
    C302     C        0.29900    0.31950    0.93180    1.000
    C303     C        0.28109    0.37260    0.94760    1.000
    C304     C        0.30640    0.42220    0.95420    1.000
    H143     H        0.29490    0.45910    0.96610    1.000
    C305     C        0.34859    0.41890    0.94350    1.000
    H144     H        0.36480    0.45340    0.94680    1.000
    C306     C        0.36649    0.36350    0.92780    1.000
    C307     C        0.34160    0.31380    0.92240    1.000
    H145     H        0.35290    0.27630    0.91250    1.000
    C308     C        0.41193    0.35890    0.91700    1.000
    C309     C        0.12043    0.37280    0.26100    1.000
    C310     C        0.15909    0.41280    0.25470    1.000
    C311     C        0.19110    0.40400    0.29840    1.000
    H146     H        0.18950    0.37510    0.33160    1.000
    C312     C        0.22630    0.44040    0.29080    1.000
    H147     H        0.24790    0.43590    0.32050    1.000
    C313     C        0.22987    0.48110    0.24280    1.000
    C314     C        0.19797    0.48840    0.20150    1.000
    C315     C        0.16165    0.45500    0.20690    1.000
    H148     H        0.13980    0.46170    0.17820    1.000
    C316     C        0.00927    0.33270    0.98030    1.000
    C317     C        0.01566    0.30900    0.91100    1.000
    C318     C        0.04932    0.32880    0.87320    1.000
    H149     H        0.06720    0.35800    0.88960    1.000
    C319     C        0.05530    0.30410    0.81140    1.000
    C320     C        0.02810    0.26270    0.78370    1.000
    C321     C        0.99482    0.24500    0.82260    1.000
    H150     H        0.97570    0.21770    0.80570    1.000
    C322     C        0.98965    0.26710    0.88550    1.000
    H151     H        0.96790    0.25310    0.91110    1.000
    C323     C        0.00440    0.33410    0.35450    1.000
    C324     C        0.99896    0.35720    0.42360    1.000
    C325     C        0.02740    0.39660    0.44920    1.000
    H152     H        0.05000    0.40810    0.42400    1.000
    C326     C        0.02250    0.41960    0.51280    1.000
    H153     H        0.04180    0.44690    0.52910    1.000
    C327     C        0.98973    0.40280    0.55220    1.000
    C328     C        0.96157    0.36300    0.52360    1.000
    C329     C        0.96554    0.34040    0.46100    1.000
    H154     H        0.94590    0.31400    0.44410    1.000
    C330     C        0.98953    0.42750    0.62050    1.000
    C331     C        0.02450    0.41400    0.66040    1.000
    H155     H        0.04460    0.38820    0.64390    1.000
    C332     C        0.02948    0.43790    0.72230    1.000
    H156     H        0.05280    0.42800    0.74660    1.000
    C333     C        0.00122    0.47560    0.74870    1.000
    C334     C        0.00638    0.50190    0.81620    1.000
    C335     C        0.96617    0.48940    0.71160    1.000
    H157     H        0.94610    0.51480    0.72900    1.000
    C336     C        0.96120    0.46600    0.65040    1.000
    O232     O        0.09077    0.45898    0.95085    1.000
    O233     O        0.09732    0.42258    0.05421    1.000
    O234     O        0.21190    0.45430    0.80450    1.000
    O235     O        0.24920    0.37690    0.81830    1.000
    O236     O        0.23840    0.26950    0.90410    1.000
    O237     O        0.29360    0.21080    0.93850    1.000
    O238     O        0.42488    0.30829    0.89861    1.000
    O239     O        0.43421    0.40373    0.92651    1.000
    O240     O        0.09057    0.39116    0.22638    1.000
    O241     O        0.12077    0.33040    0.29920    1.000
    O242     O        0.17280    0.53820    0.10790    1.000
    O243     O        0.21750    0.58510    0.15920    1.000
    O244     O        0.99249    0.29652    0.01966    1.000
    O245     O        0.02054    0.38505    0.99344    1.000
    O246     O        0.09504    0.31540    0.71740    1.000
    O247     O        0.11812    0.35060    0.80610    1.000
    O248     O        0.98571    0.28665    0.33951    1.000
    O249     O        0.02727    0.36470    0.31685    1.000
    O250     O        0.89550    0.32280    0.52810    1.000
    O251     O        0.92382    0.34720    0.62020    1.000
    O252     O        0.92032    0.47750    0.55450    1.000
    O253     O        0.89426    0.50080    0.64610    1.000
    O254     O        0.98518    0.54752    0.82947    1.000
    O255     O        0.03098    0.47506    0.85439    1.000
    O256     O        0.02669    0.49926    0.04415    1.000
    H158     H        0.04340    0.53290    0.06070    1.000
    O257     O        0.04049    0.34411    0.12631    1.000
    H159     H        0.06230    0.31730    0.11030    1.000
    O258     O        0.98141    0.32652    0.20669    1.000
    H160     H        0.96040    0.35560    0.22080    1.000
    O259     O        0.22870    0.35610    0.14170    1.000
    O260     O        0.26530    0.29870    0.06560    1.000
    N50      N        0.22480    0.41400    0.83960    1.000
    N51      N        0.23440    0.33360    0.08240    1.000
    N52      N        0.27530    0.26090    0.92570    1.000
    N53      N        0.19980    0.53160    0.14670    1.000
    N54      N        0.09140    0.32360    0.77570    1.000
    N55      N        0.92391    0.34230    0.55980    1.000
    N56      N        0.92259    0.48230    0.61550    1.000
    O261     O        0.24030    0.25710    0.94760    1.000
    O262     O        0.28970    0.21730    0.88530    1.000
    O263     O        0.21260    0.30120    0.13220    1.000
    O264     O        0.27360    0.32590    0.07660    1.000
    Cu33     Cu       0.02288    0.75000    0.75000    1.000
    Cu34     Cu       0.47712    0.25000    0.75000    1.000
    Cu35     Cu       0.97712    0.25000    0.25000    1.000
    Cu36     Cu       0.52288    0.75000    0.25000    1.000
