data_functionalizedCrystal
_audit_creation_method	'EQeq! by Chris Wilmer'
_symmetry_space_group_name_H-M	'P1'
_symmetry_Int_Tables_number	1
_symmetry_cell_setting	triclinic
loop_
_symmetry_equiv_pos_as_xyz
  x,y,z
_cell_length_a	17.0627
_cell_length_b	18.8861
_cell_length_c	31.6438
_cell_angle_alpha	90
_cell_angle_beta	90
_cell_angle_gamma	90
loop_
_atom_site_label
_atom_site_type_symbol
_atom_site_fract_x
_atom_site_fract_y
_atom_site_fract_z
_atom_site_charge
Mof_Cs	Cs	0.56131	0.60049	0.8138	3.281
Mof_Cs	Cs	0.43869	0.89951	0.3138	3.279
Mof_Cs	Cs	0.06131	0.39951	0.6862	3.279
Mof_Cs	Cs	0.93869	0.10049	0.1862	3.281
Mof_Cs	Cs	0.43869	0.39951	0.1862	3.281
Mof_Cs	Cs	0.56131	0.10049	0.6862	3.279
Mof_Cs	Cs	0.93869	0.60049	0.3138	3.279
Mof_Cs	Cs	0.06131	0.89951	0.8138	3.281
Mof_K 	K 	0.8609	0.28067	0.77894	1.479
Mof_K 	K 	0.1391	0.21933	0.27894	1.478
Mof_K 	K 	0.3609	0.71933	0.72106	1.477
Mof_K 	K 	0.6391	0.78067	0.22106	1.477
Mof_K 	K 	0.1391	0.71933	0.22106	1.479
Mof_K 	K 	0.8609	0.78067	0.72106	1.478
Mof_K 	K 	0.6391	0.28067	0.27894	1.478
Mof_K 	K 	0.3609	0.21933	0.77894	1.478
Mof_Mo	Mo	0.73714	0.44847	0.79974	1.17
Mof_Mo	Mo	0.91811	0.47627	0.78001	1.384
Mof_Mo	Mo	0.92545	0.58494	0.67978	1.367
Mof_Mo	Mo	0.86979	0.72198	0.60654	0.883
Mof_Mo	Mo	0.87718	0.81654	0.50133	1.07
Mof_Mo	Mo	0.61079	0.69832	0.92951	1.2
Mof_Mo	Mo	0.26286	0.05153	0.29974	1.17
Mof_Mo	Mo	0.08189	0.02373	0.28001	1.383
Mof_Mo	Mo	0.07456	0.91506	0.17978	1.367
Mof_Mo	Mo	0.13021	0.77802	0.10654	0.883
Mof_Mo	Mo	0.12282	0.68346	0.00133	1.069
Mof_Mo	Mo	0.38921	0.80168	0.42951	1.2
Mof_Mo	Mo	0.23714	0.55153	0.70026	1.171
Mof_Mo	Mo	0.41811	0.52373	0.71999	1.384
Mof_Mo	Mo	0.42544	0.41506	0.82022	1.366
Mof_Mo	Mo	0.36979	0.27802	0.89346	0.882
Mof_Mo	Mo	0.37718	0.18346	0.99867	1.067
Mof_Mo	Mo	0.11079	0.30168	0.57049	1.2
Mof_Mo	Mo	0.76286	0.94847	0.20026	1.17
Mof_Mo	Mo	0.58189	0.97627	0.21999	1.381
Mof_Mo	Mo	0.57455	0.08494	0.32022	1.366
Mof_Mo	Mo	0.63021	0.22198	0.39346	0.883
Mof_Mo	Mo	0.62282	0.31654	0.49867	1.07
Mof_Mo	Mo	0.88921	0.19832	0.07049	1.2
Mof_Mo	Mo	0.26286	0.55153	0.20026	1.17
Mof_Mo	Mo	0.08189	0.52373	0.21999	1.384
Mof_Mo	Mo	0.07456	0.41506	0.32022	1.367
Mof_Mo	Mo	0.13021	0.27802	0.39346	0.883
Mof_Mo	Mo	0.12282	0.18346	0.49867	1.07
Mof_Mo	Mo	0.38921	0.30168	0.07049	1.2
Mof_Mo	Mo	0.73714	0.94847	0.70026	1.17
Mof_Mo	Mo	0.91811	0.97627	0.71999	1.383
Mof_Mo	Mo	0.92545	0.08494	0.82022	1.367
Mof_Mo	Mo	0.86979	0.22198	0.89346	0.883
Mof_Mo	Mo	0.87718	0.31654	0.99867	1.069
Mof_Mo	Mo	0.61079	0.19832	0.57049	1.2
Mof_Mo	Mo	0.76286	0.44847	0.29974	1.171
Mof_Mo	Mo	0.58189	0.47627	0.28001	1.384
Mof_Mo	Mo	0.57455	0.58494	0.17978	1.366
Mof_Mo	Mo	0.63021	0.72198	0.10654	0.882
Mof_Mo	Mo	0.62282	0.81654	0.00133	1.067
Mof_Mo	Mo	0.88921	0.69832	0.42951	1.2
Mof_Mo	Mo	0.23714	0.05153	0.79974	1.17
Mof_Mo	Mo	0.41811	0.02373	0.78001	1.381
Mof_Mo	Mo	0.42544	0.91506	0.67978	1.366
Mof_Mo	Mo	0.36979	0.77802	0.60654	0.883
Mof_Mo	Mo	0.37718	0.68346	0.50133	1.07
Mof_Mo	Mo	0.11079	0.80168	0.92951	1.2
Mof_P 	P 	0.77059	0.59895	0.75025	0.446
Mof_P 	P 	0.77916	0.46475	0.69932	0.449
Mof_P 	P 	0.79294	0.64942	0.51441	0.423
Mof_P 	P 	0.96815	0.65534	0.52146	0.435
Mof_P 	P 	0.22941	0.90105	0.25025	0.446
Mof_P 	P 	0.22084	0.03525	0.19932	0.45
Mof_P 	P 	0.20706	0.85058	0.01441	0.422
Mof_P 	P 	0.03185	0.84466	0.02146	0.435
Mof_P 	P 	0.27059	0.40105	0.74975	0.446
Mof_P 	P 	0.27916	0.53525	0.80068	0.449
Mof_P 	P 	0.29294	0.35058	0.98559	0.422
Mof_P 	P 	0.46815	0.34466	0.97854	0.434
Mof_P 	P 	0.72941	0.09895	0.24975	0.445
Mof_P 	P 	0.72084	0.96475	0.30068	0.448
Mof_P 	P 	0.70706	0.14942	0.48559	0.423
Mof_P 	P 	0.53185	0.15534	0.47854	0.434
Mof_P 	P 	0.22941	0.40105	0.24975	0.446
Mof_P 	P 	0.22084	0.53525	0.30068	0.449
Mof_P 	P 	0.20706	0.35058	0.48559	0.423
Mof_P 	P 	0.03185	0.34466	0.47854	0.435
Mof_P 	P 	0.77059	0.09895	0.74975	0.446
Mof_P 	P 	0.77916	0.96475	0.80068	0.45
Mof_P 	P 	0.79294	0.14942	0.98559	0.422
Mof_P 	P 	0.96815	0.15534	0.97854	0.435
Mof_P 	P 	0.72941	0.59895	0.25025	0.446
Mof_P 	P 	0.72084	0.46475	0.19932	0.449
Mof_P 	P 	0.70706	0.64942	0.01441	0.422
Mof_P 	P 	0.53185	0.65534	0.02146	0.434
Mof_P 	P 	0.27059	0.90105	0.75025	0.445
Mof_P 	P 	0.27916	0.03525	0.69932	0.448
Mof_P 	P 	0.29294	0.85058	0.51441	0.423
Mof_P 	P 	0.46815	0.84466	0.52146	0.434
Mof_H 	H 	0.6251	0.5191	0.6784	-0.038
Mof_H 	H 	0.6107	0.5837	0.7084	-0.12
Mof_H 	H 	0.6991	0.6527	0.6708	-0.013
Mof_H 	H 	0.7243	0.5874	0.6432	0.077
Mof_H 	H 	0.6033	0.5833	0.6111	-0.012
Mof_H 	H 	0.5699	0.6406	0.6421	-0.065
Mof_H 	H 	0.6876	0.6711	0.5866	0.114
Mof_H 	H 	0.6451	0.7228	0.6117	0.031
Mof_H 	H 	0.5824	0.6515	0.5447	0.067
Mof_H 	H 	0.6035	0.7323	0.5446	0.083
Mof_H 	H 	0.5341	0.7046	0.5725	0.046
Mof_H 	H 	0.8487	0.4986	0.4991	0.04
Mof_H 	H 	0.9374	0.506	0.5107	0.061
Mof_H 	H 	0.8954	0.5445	0.58	0.097
Mof_H 	H 	0.8109	0.5201	0.5672	0.084
Mof_H 	H 	0.9414	0.4302	0.5767	-0.046
Mof_H 	H 	0.8676	0.4312	0.6062	-0.054
Mof_H 	H 	0.8733	0.3801	0.5258	0.136
Mof_H 	H 	0.798	0.3968	0.5446	0.082
Mof_H 	H 	0.8957	0.2945	0.5757	0.029
Mof_H 	H 	0.8203	0.2783	0.5491	0.027
Mof_H 	H 	0.8126	0.3113	0.5943	-0.017
Mof_H 	H 	0.3749	0.9809	0.1784	-0.038
Mof_H 	H 	0.3893	0.9163	0.2084	-0.121
Mof_H 	H 	0.3009	0.8473	0.1708	-0.012
Mof_H 	H 	0.2757	0.9126	0.1432	0.077
Mof_H 	H 	0.3967	0.9167	0.1111	-0.013
Mof_H 	H 	0.4301	0.8594	0.1421	-0.065
Mof_H 	H 	0.3124	0.8289	0.0866	0.114
Mof_H 	H 	0.3549	0.7772	0.1117	0.031
Mof_H 	H 	0.4176	0.8485	0.0447	0.066
Mof_H 	H 	0.3965	0.7677	0.0446	0.082
Mof_H 	H 	0.4659	0.7954	0.0725	0.046
Mof_H 	H 	0.1513	0.0014	0.9991	0.038
Mof_H 	H 	0.0626	0.994	0.0107	0.06
Mof_H 	H 	0.1046	0.9555	0.08	0.098
Mof_H 	H 	0.1891	0.9799	0.0672	0.085
Mof_H 	H 	0.0586	0.0698	0.0767	-0.047
Mof_H 	H 	0.1324	0.0688	0.1062	-0.055
Mof_H 	H 	0.1267	0.1199	0.0258	0.137
Mof_H 	H 	0.202	0.1032	0.0446	0.082
Mof_H 	H 	0.1043	0.2055	0.0757	0.029
Mof_H 	H 	0.1797	0.2217	0.0491	0.027
Mof_H 	H 	0.1874	0.1887	0.0943	-0.017
Mof_H 	H 	0.1251	0.4809	0.8216	-0.038
Mof_H 	H 	0.1107	0.4163	0.7916	-0.12
Mof_H 	H 	0.1991	0.3473	0.8292	-0.013
Mof_H 	H 	0.2243	0.4126	0.8568	0.077
Mof_H 	H 	0.1033	0.4167	0.8889	-0.012
Mof_H 	H 	0.0699	0.3594	0.8579	-0.065
Mof_H 	H 	0.1876	0.3289	0.9134	0.114
Mof_H 	H 	0.1451	0.2772	0.8883	0.031
Mof_H 	H 	0.0824	0.3485	0.9553	0.067
Mof_H 	H 	0.1035	0.2677	0.9554	0.082
Mof_H 	H 	0.0341	0.2954	0.9275	0.046
Mof_H 	H 	0.3487	0.5014	0.0009	0.04
Mof_H 	H 	0.4374	0.494	0.9893	0.061
Mof_H 	H 	0.3954	0.4555	0.92	0.097
Mof_H 	H 	0.3109	0.4799	0.9328	0.084
Mof_H 	H 	0.4414	0.5698	0.9233	-0.046
Mof_H 	H 	0.3676	0.5688	0.8938	-0.054
Mof_H 	H 	0.3733	0.6199	0.9742	0.136
Mof_H 	H 	0.298	0.6032	0.9554	0.082
Mof_H 	H 	0.3957	0.7055	0.9243	0.029
Mof_H 	H 	0.3203	0.7217	0.9509	0.027
Mof_H 	H 	0.3126	0.6887	0.9057	-0.017
Mof_H 	H 	0.8749	0.0191	0.3216	-0.038
Mof_H 	H 	0.8893	0.0837	0.2916	-0.12
Mof_H 	H 	0.8009	0.1527	0.3292	-0.013
Mof_H 	H 	0.7757	0.0874	0.3568	0.077
Mof_H 	H 	0.8967	0.0833	0.3889	-0.013
Mof_H 	H 	0.9301	0.1406	0.3579	-0.065
Mof_H 	H 	0.8124	0.1711	0.4134	0.114
Mof_H 	H 	0.8549	0.2228	0.3883	0.031
Mof_H 	H 	0.9176	0.1515	0.4553	0.067
Mof_H 	H 	0.8965	0.2323	0.4554	0.083
Mof_H 	H 	0.9659	0.2046	0.4275	0.046
Mof_H 	H 	0.6513	0.9986	0.5009	0.04
Mof_H 	H 	0.5626	0.006	0.4893	0.06
Mof_H 	H 	0.6046	0.0445	0.42	0.097
Mof_H 	H 	0.6891	0.0201	0.4328	0.084
Mof_H 	H 	0.5586	0.9302	0.4233	-0.046
Mof_H 	H 	0.6324	0.9312	0.3938	-0.055
Mof_H 	H 	0.6267	0.8801	0.4742	0.136
Mof_H 	H 	0.702	0.8968	0.4554	0.082
Mof_H 	H 	0.6043	0.7945	0.4243	0.029
Mof_H 	H 	0.6797	0.7783	0.4509	0.027
Mof_H 	H 	0.6874	0.8113	0.4057	-0.017
Mof_H 	H 	0.3749	0.4809	0.3216	-0.038
Mof_H 	H 	0.3893	0.4163	0.2916	-0.12
Mof_H 	H 	0.3009	0.3473	0.3292	-0.013
Mof_H 	H 	0.2757	0.4126	0.3568	0.077
Mof_H 	H 	0.3967	0.4167	0.3889	-0.012
Mof_H 	H 	0.4301	0.3594	0.3579	-0.065
Mof_H 	H 	0.3124	0.3289	0.4134	0.114
Mof_H 	H 	0.3549	0.2772	0.3883	0.031
Mof_H 	H 	0.4176	0.3485	0.4553	0.067
Mof_H 	H 	0.3965	0.2677	0.4554	0.083
Mof_H 	H 	0.4659	0.2954	0.4275	0.046
Mof_H 	H 	0.1513	0.5014	0.5009	0.04
Mof_H 	H 	0.0626	0.494	0.4893	0.061
Mof_H 	H 	0.1046	0.4555	0.42	0.097
Mof_H 	H 	0.1891	0.4799	0.4328	0.084
Mof_H 	H 	0.0586	0.5698	0.4233	-0.046
Mof_H 	H 	0.1324	0.5688	0.3938	-0.054
Mof_H 	H 	0.1267	0.6199	0.4742	0.136
Mof_H 	H 	0.202	0.6032	0.4554	0.082
Mof_H 	H 	0.1043	0.7055	0.4243	0.029
Mof_H 	H 	0.1797	0.7217	0.4509	0.027
Mof_H 	H 	0.1874	0.6887	0.4057	-0.017
Mof_H 	H 	0.6251	0.0191	0.8216	-0.038
Mof_H 	H 	0.6107	0.0837	0.7916	-0.121
Mof_H 	H 	0.6991	0.1527	0.8292	-0.012
Mof_H 	H 	0.7243	0.0874	0.8568	0.077
Mof_H 	H 	0.6033	0.0833	0.8889	-0.013
Mof_H 	H 	0.5699	0.1406	0.8579	-0.065
Mof_H 	H 	0.6876	0.1711	0.9134	0.114
Mof_H 	H 	0.6451	0.2228	0.8883	0.031
Mof_H 	H 	0.5824	0.1515	0.9553	0.066
Mof_H 	H 	0.6035	0.2323	0.9554	0.082
Mof_H 	H 	0.5341	0.2046	0.9275	0.046
Mof_H 	H 	0.8487	0.9986	0.0009	0.038
Mof_H 	H 	0.9374	0.006	0.9893	0.06
Mof_H 	H 	0.8954	0.0445	0.92	0.098
Mof_H 	H 	0.8109	0.0201	0.9328	0.085
Mof_H 	H 	0.9414	0.9302	0.9233	-0.047
Mof_H 	H 	0.8676	0.9312	0.8938	-0.055
Mof_H 	H 	0.8733	0.8801	0.9742	0.137
Mof_H 	H 	0.798	0.8968	0.9554	0.082
Mof_H 	H 	0.8957	0.7945	0.9243	0.029
Mof_H 	H 	0.8203	0.7783	0.9509	0.027
Mof_H 	H 	0.8126	0.8113	0.9057	-0.017
Mof_H 	H 	0.8749	0.5191	0.1784	-0.038
Mof_H 	H 	0.8893	0.5837	0.2084	-0.12
Mof_H 	H 	0.8009	0.6527	0.1708	-0.013
Mof_H 	H 	0.7757	0.5874	0.1432	0.077
Mof_H 	H 	0.8967	0.5833	0.1111	-0.012
Mof_H 	H 	0.9301	0.6406	0.1421	-0.065
Mof_H 	H 	0.8124	0.6711	0.0866	0.114
Mof_H 	H 	0.8549	0.7228	0.1117	0.031
Mof_H 	H 	0.9176	0.6515	0.0447	0.067
Mof_H 	H 	0.8965	0.7323	0.0446	0.082
Mof_H 	H 	0.9659	0.7046	0.0725	0.046
Mof_H 	H 	0.6513	0.4986	0.9991	0.04
Mof_H 	H 	0.5626	0.506	0.0107	0.061
Mof_H 	H 	0.6046	0.5445	0.08	0.097
Mof_H 	H 	0.6891	0.5201	0.0672	0.084
Mof_H 	H 	0.5586	0.4302	0.0767	-0.046
Mof_H 	H 	0.6324	0.4312	0.1062	-0.054
Mof_H 	H 	0.6267	0.3801	0.0258	0.136
Mof_H 	H 	0.702	0.3968	0.0446	0.082
Mof_H 	H 	0.6043	0.2945	0.0757	0.029
Mof_H 	H 	0.6797	0.2783	0.0491	0.027
Mof_H 	H 	0.6874	0.3113	0.0943	-0.017
Mof_H 	H 	0.1251	0.9809	0.6784	-0.038
Mof_H 	H 	0.1107	0.9163	0.7084	-0.12
Mof_H 	H 	0.1991	0.8473	0.6708	-0.013
Mof_H 	H 	0.2243	0.9126	0.6432	0.077
Mof_H 	H 	0.1033	0.9167	0.6111	-0.013
Mof_H 	H 	0.0699	0.8594	0.6421	-0.065
Mof_H 	H 	0.1876	0.8289	0.5866	0.114
Mof_H 	H 	0.1451	0.7772	0.6117	0.031
Mof_H 	H 	0.0824	0.8485	0.5447	0.067
Mof_H 	H 	0.1035	0.7677	0.5446	0.083
Mof_H 	H 	0.0341	0.7954	0.5725	0.046
Mof_H 	H 	0.3487	0.0014	0.4991	0.04
Mof_H 	H 	0.4374	0.994	0.5107	0.06
Mof_H 	H 	0.3954	0.9555	0.58	0.097
Mof_H 	H 	0.3109	0.9799	0.5672	0.084
Mof_H 	H 	0.4414	0.0698	0.5767	-0.046
Mof_H 	H 	0.3676	0.0688	0.6062	-0.055
Mof_H 	H 	0.3733	0.1199	0.5258	0.136
Mof_H 	H 	0.298	0.1032	0.5446	0.082
Mof_H 	H 	0.3957	0.2055	0.5757	0.029
Mof_H 	H 	0.3203	0.2217	0.5491	0.027
Mof_H 	H 	0.3126	0.1887	0.5943	-0.017
Mof_C 	C 	0.7129	0.531	0.72227	-0.072
Mof_C 	C 	0.6503	0.5591	0.69199	0.039
Mof_C 	C 	0.6806	0.6092	0.65785	-0.176
Mof_C 	C 	0.6164	0.6257	0.62688	0.028
Mof_C 	C 	0.5852	0.6936	0.56162	-0.215
Mof_C 	C 	0.8837	0.60244	0.50278	-0.01
Mof_C 	C 	0.8856	0.52479	0.51642	-0.062
Mof_C 	C 	0.8663	0.5112	0.56275	-0.188
Mof_C 	C 	0.8851	0.437	0.57729	0.093
Mof_C 	C 	0.8436	0.3103	0.56903	-0.114
Mof_C 	C 	0.2871	0.969	0.22227	-0.073
Mof_C 	C 	0.3497	0.9409	0.19199	0.04
Mof_C 	C 	0.3194	0.8908	0.15785	-0.177
Mof_C 	C 	0.3836	0.8743	0.12688	0.028
Mof_C 	C 	0.4148	0.8064	0.06162	-0.215
Mof_C 	C 	0.1163	0.89756	0.00278	-0.012
Mof_C 	C 	0.1144	0.97521	0.01642	-0.059
Mof_C 	C 	0.1337	0.9888	0.06275	-0.192
Mof_C 	C 	0.1149	0.063	0.07729	0.096
Mof_C 	C 	0.1564	0.1897	0.06903	-0.113
Mof_C 	C 	0.2129	0.469	0.77773	-0.072
Mof_C 	C 	0.1503	0.4409	0.80801	0.039
Mof_C 	C 	0.1806	0.3908	0.84215	-0.176
Mof_C 	C 	0.1164	0.3743	0.87312	0.028
Mof_C 	C 	0.0852	0.3064	0.93838	-0.215
Mof_C 	C 	0.3837	0.39756	0.99722	-0.011
Mof_C 	C 	0.3856	0.47521	0.98358	-0.062
Mof_C 	C 	0.3663	0.4888	0.93725	-0.188
Mof_C 	C 	0.3851	0.563	0.92271	0.093
Mof_C 	C 	0.3436	0.6897	0.93097	-0.113
Mof_C 	C 	0.7871	0.031	0.27773	-0.071
Mof_C 	C 	0.8497	0.0591	0.30801	0.039
Mof_C 	C 	0.8194	0.1092	0.34215	-0.176
Mof_C 	C 	0.8836	0.1257	0.37312	0.028
Mof_C 	C 	0.9148	0.1936	0.43838	-0.215
Mof_C 	C 	0.6163	0.10244	0.49722	-0.011
Mof_C 	C 	0.6144	0.02479	0.48358	-0.061
Mof_C 	C 	0.6337	0.0112	0.43725	-0.189
Mof_C 	C 	0.6149	0.937	0.42271	0.093
Mof_C 	C 	0.6564	0.8103	0.43097	-0.113
Mof_C 	C 	0.2871	0.469	0.27773	-0.072
Mof_C 	C 	0.3497	0.4409	0.30801	0.039
Mof_C 	C 	0.3194	0.3908	0.34215	-0.176
Mof_C 	C 	0.3836	0.3743	0.37312	0.028
Mof_C 	C 	0.4148	0.3064	0.43838	-0.215
Mof_C 	C 	0.1163	0.39756	0.49722	-0.01
Mof_C 	C 	0.1144	0.47521	0.48358	-0.062
Mof_C 	C 	0.1337	0.4888	0.43725	-0.188
Mof_C 	C 	0.1149	0.563	0.42271	0.093
Mof_C 	C 	0.1564	0.6897	0.43097	-0.114
Mof_C 	C 	0.7129	0.031	0.77773	-0.073
Mof_C 	C 	0.6503	0.0591	0.80801	0.04
Mof_C 	C 	0.6806	0.1092	0.84215	-0.177
Mof_C 	C 	0.6164	0.1257	0.87312	0.028
Mof_C 	C 	0.5852	0.1936	0.93838	-0.215
Mof_C 	C 	0.8837	0.10244	0.99722	-0.012
Mof_C 	C 	0.8856	0.02479	0.98358	-0.059
Mof_C 	C 	0.8663	0.0112	0.93725	-0.192
Mof_C 	C 	0.8851	0.937	0.92271	0.096
Mof_C 	C 	0.8436	0.8103	0.93097	-0.113
Mof_C 	C 	0.7871	0.531	0.22227	-0.072
Mof_C 	C 	0.8497	0.5591	0.19199	0.039
Mof_C 	C 	0.8194	0.6092	0.15785	-0.176
Mof_C 	C 	0.8836	0.6257	0.12688	0.028
Mof_C 	C 	0.9148	0.6936	0.06162	-0.215
Mof_C 	C 	0.6163	0.60244	0.00278	-0.011
Mof_C 	C 	0.6144	0.52479	0.01642	-0.062
Mof_C 	C 	0.6337	0.5112	0.06275	-0.188
Mof_C 	C 	0.6149	0.437	0.07729	0.093
Mof_C 	C 	0.6564	0.3103	0.06903	-0.113
Mof_C 	C 	0.2129	0.969	0.72227	-0.071
Mof_C 	C 	0.1503	0.9409	0.69199	0.039
Mof_C 	C 	0.1806	0.8908	0.65785	-0.176
Mof_C 	C 	0.1164	0.8743	0.62688	0.028
Mof_C 	C 	0.0852	0.8064	0.56162	-0.215
Mof_C 	C 	0.3837	0.89756	0.50278	-0.011
Mof_C 	C 	0.3856	0.97521	0.51642	-0.061
Mof_C 	C 	0.3663	0.9888	0.56275	-0.189
Mof_C 	C 	0.3851	0.063	0.57729	0.093
Mof_C 	C 	0.3436	0.1897	0.56903	-0.113
Mof_N 	N 	0.64019	0.68206	0.5972	-0.213
Mof_N 	N 	0.8472	0.38254	0.55044	-0.248
Mof_N 	N 	0.35981	0.81794	0.0972	-0.214
Mof_N 	N 	0.1528	0.11746	0.05044	-0.248
Mof_N 	N 	0.14019	0.31794	0.9028	-0.213
Mof_N 	N 	0.3472	0.61746	0.94956	-0.248
Mof_N 	N 	0.85981	0.18206	0.4028	-0.213
Mof_N 	N 	0.6528	0.88254	0.44956	-0.248
Mof_N 	N 	0.35981	0.31794	0.4028	-0.213
Mof_N 	N 	0.1528	0.61746	0.44956	-0.248
Mof_N 	N 	0.64019	0.18206	0.9028	-0.214
Mof_N 	N 	0.8472	0.88254	0.94956	-0.248
Mof_N 	N 	0.85981	0.68206	0.0972	-0.213
Mof_N 	N 	0.6528	0.38254	0.05044	-0.248
Mof_N 	N 	0.14019	0.81794	0.5972	-0.213
Mof_N 	N 	0.3472	0.11746	0.55044	-0.248
Mof_O 	O 	0.6911	0.4853	0.84209	-0.73
Mof_O 	O 	0.83863	0.43228	0.81926	-0.739
Mof_O 	O 	0.67376	0.49345	0.75584	-0.591
Mof_O 	O 	0.81653	0.43411	0.74052	-0.62
Mof_O 	O 	0.80872	0.55217	0.78538	-0.514
Mof_O 	O 	0.97108	0.40025	0.77293	-0.936
Mof_O 	O 	0.94521	0.52817	0.73359	-0.828
Mof_O 	O 	0.98935	0.53613	0.64984	-0.768
Mof_O 	O 	0.87202	0.63445	0.63704	-0.636
Mof_O 	O 	0.83914	0.5021	0.67176	-0.447
Mof_O 	O 	0.83171	0.62959	0.72059	-0.621
Mof_O 	O 	0.87248	0.79002	0.55745	-0.58
Mof_O 	O 	0.95632	0.67104	0.56792	-0.385
Mof_O 	O 	0.78916	0.66598	0.56115	-0.355
Mof_O 	O 	0.61455	0.79588	0.93919	-0.608
Mof_O 	O 	0.95941	0.72187	0.49289	-0.41
Mof_O 	O 	0.80488	0.7174	0.48726	-0.447
Mof_O 	O 	0.5287	0.6891	0.89893	-0.756
Mof_O 	O 	0.89073	0.60603	0.45732	-0.427
Mof_O 	O 	0.71783	0.65396	0.76956	-0.671
Mof_O 	O 	0.7322	0.40868	0.67745	-0.398
Mof_O 	O 	0.72421	0.60694	0.49915	-0.299
Mof_O 	O 	0.0443	0.61785	0.51306	-0.282
Mof_O 	O 	0.3089	0.0147	0.34209	-0.73
Mof_O 	O 	0.16137	0.06772	0.31926	-0.739
Mof_O 	O 	0.32624	0.00655	0.25584	-0.591
Mof_O 	O 	0.18347	0.06589	0.24052	-0.62
Mof_O 	O 	0.19128	0.94783	0.28538	-0.514
Mof_O 	O 	0.02892	0.09975	0.27293	-0.936
Mof_O 	O 	0.05479	0.97183	0.23359	-0.828
Mof_O 	O 	0.01065	0.96387	0.14984	-0.769
Mof_O 	O 	0.12798	0.86555	0.13704	-0.636
Mof_O 	O 	0.16086	0.9979	0.17176	-0.448
Mof_O 	O 	0.16829	0.87041	0.22059	-0.621
Mof_O 	O 	0.12752	0.70998	0.05745	-0.579
Mof_O 	O 	0.04368	0.82896	0.06792	-0.385
Mof_O 	O 	0.21084	0.83402	0.06115	-0.355
Mof_O 	O 	0.38545	0.70412	0.43919	-0.609
Mof_O 	O 	0.04059	0.77813	0.99289	-0.41
Mof_O 	O 	0.19512	0.7826	0.98726	-0.447
Mof_O 	O 	0.4713	0.8109	0.39893	-0.756
Mof_O 	O 	0.10927	0.89397	0.95732	-0.426
Mof_O 	O 	0.28217	0.84604	0.26956	-0.671
Mof_O 	O 	0.2678	0.09132	0.17745	-0.398
Mof_O 	O 	0.27579	0.89306	0.99915	-0.299
Mof_O 	O 	0.9557	0.88215	0.01306	-0.283
Mof_O 	O 	0.1911	0.5147	0.65791	-0.73
Mof_O 	O 	0.33863	0.56772	0.68074	-0.739
Mof_O 	O 	0.17376	0.50655	0.74416	-0.591
Mof_O 	O 	0.31653	0.56589	0.75948	-0.62
Mof_O 	O 	0.30872	0.44783	0.71462	-0.514
Mof_O 	O 	0.47108	0.59975	0.72707	-0.937
Mof_O 	O 	0.44521	0.47183	0.76641	-0.828
Mof_O 	O 	0.48935	0.46387	0.85016	-0.769
Mof_O 	O 	0.37202	0.36555	0.86296	-0.636
Mof_O 	O 	0.33914	0.4979	0.82824	-0.447
Mof_O 	O 	0.33171	0.37041	0.77941	-0.621
Mof_O 	O 	0.37248	0.20998	0.94255	-0.579
Mof_O 	O 	0.45632	0.32896	0.93208	-0.385
Mof_O 	O 	0.28916	0.33402	0.93885	-0.355
Mof_O 	O 	0.11455	0.20412	0.56081	-0.609
Mof_O 	O 	0.45941	0.27813	0.00711	-0.41
Mof_O 	O 	0.30488	0.2826	0.01274	-0.446
Mof_O 	O 	0.0287	0.3109	0.60107	-0.756
Mof_O 	O 	0.39073	0.39397	0.04268	-0.427
Mof_O 	O 	0.21783	0.34604	0.73044	-0.671
Mof_O 	O 	0.2322	0.59132	0.82255	-0.399
Mof_O 	O 	0.22421	0.39306	0.00085	-0.299
Mof_O 	O 	0.5443	0.38215	0.98694	-0.283
Mof_O 	O 	0.8089	0.9853	0.15791	-0.731
Mof_O 	O 	0.66137	0.93228	0.18074	-0.739
Mof_O 	O 	0.82624	0.99345	0.24416	-0.592
Mof_O 	O 	0.68347	0.93411	0.25948	-0.619
Mof_O 	O 	0.69128	0.05217	0.21462	-0.513
Mof_O 	O 	0.52892	0.90025	0.22707	-0.936
Mof_O 	O 	0.55479	0.02817	0.26641	-0.827
Mof_O 	O 	0.51065	0.03613	0.35016	-0.769
Mof_O 	O 	0.62798	0.13445	0.36296	-0.636
Mof_O 	O 	0.66086	0.0021	0.32824	-0.447
Mof_O 	O 	0.66829	0.12959	0.27941	-0.621
Mof_O 	O 	0.62752	0.29002	0.44255	-0.58
Mof_O 	O 	0.54368	0.17104	0.43208	-0.385
Mof_O 	O 	0.71084	0.16598	0.43885	-0.355
Mof_O 	O 	0.88545	0.29588	0.06081	-0.609
Mof_O 	O 	0.54059	0.22187	0.50711	-0.41
Mof_O 	O 	0.69512	0.2174	0.51274	-0.447
Mof_O 	O 	0.9713	0.1891	0.10107	-0.756
Mof_O 	O 	0.60927	0.10603	0.54268	-0.427
Mof_O 	O 	0.78217	0.15396	0.23044	-0.671
Mof_O 	O 	0.7678	0.90868	0.32255	-0.399
Mof_O 	O 	0.77579	0.10694	0.50085	-0.3
Mof_O 	O 	0.4557	0.11785	0.48694	-0.282
Mof_O 	O 	0.3089	0.5147	0.15791	-0.73
Mof_O 	O 	0.16137	0.56772	0.18074	-0.739
Mof_O 	O 	0.32624	0.50655	0.24416	-0.591
Mof_O 	O 	0.18347	0.56589	0.25948	-0.62
Mof_O 	O 	0.19128	0.44783	0.21462	-0.514
Mof_O 	O 	0.02892	0.59975	0.22707	-0.936
Mof_O 	O 	0.05479	0.47183	0.26641	-0.828
Mof_O 	O 	0.01065	0.46387	0.35016	-0.768
Mof_O 	O 	0.12798	0.36555	0.36296	-0.636
Mof_O 	O 	0.16086	0.4979	0.32824	-0.447
Mof_O 	O 	0.16829	0.37041	0.27941	-0.621
Mof_O 	O 	0.12752	0.20998	0.44255	-0.58
Mof_O 	O 	0.04368	0.32896	0.43208	-0.385
Mof_O 	O 	0.21084	0.33402	0.43885	-0.355
Mof_O 	O 	0.38545	0.20412	0.06081	-0.608
Mof_O 	O 	0.04059	0.27813	0.50711	-0.41
Mof_O 	O 	0.19512	0.2826	0.51274	-0.447
Mof_O 	O 	0.4713	0.3109	0.10107	-0.756
Mof_O 	O 	0.10927	0.39397	0.54268	-0.427
Mof_O 	O 	0.28217	0.34604	0.23044	-0.671
Mof_O 	O 	0.2678	0.59132	0.32255	-0.398
Mof_O 	O 	0.27579	0.39306	0.50085	-0.299
Mof_O 	O 	0.9557	0.38215	0.48694	-0.282
Mof_O 	O 	0.6911	0.9853	0.65791	-0.73
Mof_O 	O 	0.83863	0.93228	0.68074	-0.739
Mof_O 	O 	0.67376	0.99345	0.74416	-0.591
Mof_O 	O 	0.81653	0.93411	0.75948	-0.62
Mof_O 	O 	0.80872	0.05217	0.71462	-0.514
Mof_O 	O 	0.97108	0.90025	0.72707	-0.936
Mof_O 	O 	0.94521	0.02817	0.76641	-0.828
Mof_O 	O 	0.98935	0.03613	0.85016	-0.769
Mof_O 	O 	0.87202	0.13445	0.86296	-0.636
Mof_O 	O 	0.83914	0.0021	0.82824	-0.448
Mof_O 	O 	0.83171	0.12959	0.77941	-0.621
Mof_O 	O 	0.87248	0.29002	0.94255	-0.579
Mof_O 	O 	0.95632	0.17104	0.93208	-0.385
Mof_O 	O 	0.78916	0.16598	0.93885	-0.355
Mof_O 	O 	0.61455	0.29588	0.56081	-0.609
Mof_O 	O 	0.95941	0.22187	0.00711	-0.41
Mof_O 	O 	0.80488	0.2174	0.01274	-0.447
Mof_O 	O 	0.5287	0.1891	0.60107	-0.756
Mof_O 	O 	0.89073	0.10603	0.04268	-0.426
Mof_O 	O 	0.71783	0.15396	0.73044	-0.671
Mof_O 	O 	0.7322	0.90868	0.82255	-0.398
Mof_O 	O 	0.72421	0.10694	0.00085	-0.299
Mof_O 	O 	0.0443	0.11785	0.98694	-0.283
Mof_O 	O 	0.8089	0.4853	0.34209	-0.73
Mof_O 	O 	0.66137	0.43228	0.31926	-0.739
Mof_O 	O 	0.82624	0.49345	0.25584	-0.591
Mof_O 	O 	0.68347	0.43411	0.24052	-0.62
Mof_O 	O 	0.69128	0.55217	0.28538	-0.514
Mof_O 	O 	0.52892	0.40025	0.27293	-0.937
Mof_O 	O 	0.55479	0.52817	0.23359	-0.828
Mof_O 	O 	0.51065	0.53613	0.14984	-0.769
Mof_O 	O 	0.62798	0.63445	0.13704	-0.636
Mof_O 	O 	0.66086	0.5021	0.17176	-0.447
Mof_O 	O 	0.66829	0.62959	0.22059	-0.621
Mof_O 	O 	0.62752	0.79002	0.05745	-0.579
Mof_O 	O 	0.54368	0.67104	0.06792	-0.385
Mof_O 	O 	0.71084	0.66598	0.06115	-0.355
Mof_O 	O 	0.88545	0.79588	0.43919	-0.609
Mof_O 	O 	0.54059	0.72187	0.99289	-0.41
Mof_O 	O 	0.69512	0.7174	0.98726	-0.446
Mof_O 	O 	0.9713	0.6891	0.39893	-0.756
Mof_O 	O 	0.60927	0.60603	0.95732	-0.427
Mof_O 	O 	0.78217	0.65396	0.26956	-0.671
Mof_O 	O 	0.7678	0.40868	0.17745	-0.399
Mof_O 	O 	0.77579	0.60694	0.99915	-0.299
Mof_O 	O 	0.4557	0.61785	0.01306	-0.283
Mof_O 	O 	0.1911	0.0147	0.84209	-0.731
Mof_O 	O 	0.33863	0.06772	0.81926	-0.739
Mof_O 	O 	0.17376	0.00655	0.75584	-0.592
Mof_O 	O 	0.31653	0.06589	0.74052	-0.619
Mof_O 	O 	0.30872	0.94783	0.78538	-0.513
Mof_O 	O 	0.47108	0.09975	0.77293	-0.936
Mof_O 	O 	0.44521	0.97183	0.73359	-0.827
Mof_O 	O 	0.48935	0.96387	0.64984	-0.769
Mof_O 	O 	0.37202	0.86555	0.63704	-0.636
Mof_O 	O 	0.33914	0.9979	0.67176	-0.447
Mof_O 	O 	0.33171	0.87041	0.72059	-0.621
Mof_O 	O 	0.37248	0.70998	0.55745	-0.58
Mof_O 	O 	0.45632	0.82896	0.56792	-0.385
Mof_O 	O 	0.28916	0.83402	0.56115	-0.355
Mof_O 	O 	0.11455	0.70412	0.93919	-0.609
Mof_O 	O 	0.45941	0.77813	0.49289	-0.41
Mof_O 	O 	0.30488	0.7826	0.48726	-0.447
Mof_O 	O 	0.0287	0.8109	0.89893	-0.756
Mof_O 	O 	0.39073	0.89397	0.45732	-0.427
Mof_O 	O 	0.21783	0.84604	0.76956	-0.671
Mof_O 	O 	0.2322	0.09132	0.67745	-0.399
Mof_O 	O 	0.22421	0.89306	0.49915	-0.3
Mof_O 	O 	0.5443	0.88215	0.51306	-0.282
_end
