# CIF file generated by openbabel 3.1.0, see https://openbabel.org
data_I
_chemical_name_common 'MOGXUB_clean'
_cell_length_a 10.0545
_cell_length_b 15.2938
_cell_length_c 20.4466
_cell_angle_alpha 90
_cell_angle_beta 90
_cell_angle_gamma 90
_space_group_name_H-M_alt 'P 1'
_space_group_name_Hall 'P 1'
loop_
    _symmetry_equiv_pos_as_xyz
    x,y,z
loop_
    _atom_site_label
    _atom_site_type_symbol
    _atom_site_fract_x
    _atom_site_fract_y
    _atom_site_fract_z
    _atom_site_occupancy
    Ag1      Ag       0.39758    0.91127    0.58785    1.000
    Ag2      Ag       0.55290    0.87012    0.47329    1.000
    Ag3      Ag       0.10242    0.08873    0.08785    1.000
    Ag4      Ag       0.94710    0.12988    0.97329    1.000
    Ag5      Ag       0.60242    0.41127    0.41215    1.000
    Ag6      Ag       0.44710    0.37012    0.52671    1.000
    Ag7      Ag       0.89758    0.58873    0.91215    1.000
    Ag8      Ag       0.05290    0.62988    0.02671    1.000
    Ag9      Ag       0.60242    0.08873    0.41215    1.000
    Ag10     Ag       0.44710    0.12988    0.52671    1.000
    Ag11     Ag       0.89758    0.91127    0.91215    1.000
    Ag12     Ag       0.05290    0.87012    0.02671    1.000
    Ag13     Ag       0.39758    0.58873    0.58785    1.000
    Ag14     Ag       0.55290    0.62988    0.47329    1.000
    Ag15     Ag       0.10242    0.41127    0.08785    1.000
    Ag16     Ag       0.94710    0.37012    0.97329    1.000
    Ag17     Ag       0.34660    0.75000    0.65707    1.000
    Ag18     Ag       0.32488    0.75000    0.46093    1.000
    Ag19     Ag       0.70767    0.75000    0.55688    1.000
    Ag20     Ag       0.15340    0.25000    0.15707    1.000
    Ag21     Ag       0.17512    0.25000    0.96093    1.000
    Ag22     Ag       0.79233    0.25000    0.05688    1.000
    Ag23     Ag       0.65340    0.25000    0.34293    1.000
    Ag24     Ag       0.67512    0.25000    0.53907    1.000
    Ag25     Ag       0.29233    0.25000    0.44312    1.000
    Ag26     Ag       0.84660    0.75000    0.84293    1.000
    Ag27     Ag       0.82488    0.75000    0.03907    1.000
    Ag28     Ag       0.20767    0.75000    0.94312    1.000
    C1       C        0.46790    0.78970    0.55330    1.000
    C2       C        0.22920    0.93800    0.70810    1.000
    C3       C        0.15040    0.99110    0.76010    1.000
    C4       C        0.23040    0.01100    0.82260    1.000
    C5       C        0.15990    0.07250    0.87150    1.000
    C6       C        0.83370    0.93260    0.48550    1.000
    C7       C        0.96100    0.98640    0.47000    1.000
    C8       C        0.03210    0.21030    0.05330    1.000
    C9       C        0.27080    0.06200    0.20810    1.000
    C10      C        0.34960    0.00890    0.26010    1.000
    C11      C        0.26960    0.98900    0.32260    1.000
    C12      C        0.34010    0.92750    0.37150    1.000
    C13      C        0.66630    0.06740    0.98550    1.000
    C14      C        0.53900    0.01360    0.97000    1.000
    C15      C        0.53210    0.28970    0.44670    1.000
    C16      C        0.77080    0.43800    0.29190    1.000
    C17      C        0.84960    0.49110    0.23990    1.000
    C18      C        0.76960    0.51100    0.17740    1.000
    C19      C        0.84010    0.57250    0.12850    1.000
    C20      C        0.16630    0.43260    0.51450    1.000
    C21      C        0.03900    0.48640    0.53000    1.000
    C22      C        0.96790    0.71030    0.94670    1.000
    C23      C        0.72920    0.56200    0.79190    1.000
    C24      C        0.65040    0.50890    0.73990    1.000
    C25      C        0.73040    0.48900    0.67740    1.000
    C26      C        0.65990    0.42750    0.62850    1.000
    C27      C        0.33370    0.56740    0.01450    1.000
    C28      C        0.46100    0.51360    0.03000    1.000
    C29      C        0.53210    0.21030    0.44670    1.000
    C30      C        0.77080    0.06200    0.29190    1.000
    C31      C        0.84960    0.00890    0.23990    1.000
    C32      C        0.76960    0.98900    0.17740    1.000
    C33      C        0.84010    0.92750    0.12850    1.000
    C34      C        0.16630    0.06740    0.51450    1.000
    C35      C        0.03900    0.01360    0.53000    1.000
    C36      C        0.96790    0.78970    0.94670    1.000
    C37      C        0.72920    0.93800    0.79190    1.000
    C38      C        0.65040    0.99110    0.73990    1.000
    C39      C        0.73040    0.01100    0.67740    1.000
    C40      C        0.65990    0.07250    0.62850    1.000
    C41      C        0.33370    0.93260    0.01450    1.000
    C42      C        0.46100    0.98640    0.03000    1.000
    C43      C        0.46790    0.71030    0.55330    1.000
    C44      C        0.22920    0.56200    0.70810    1.000
    C45      C        0.15040    0.50890    0.76010    1.000
    C46      C        0.23040    0.48900    0.82260    1.000
    C47      C        0.15990    0.42750    0.87150    1.000
    C48      C        0.83370    0.56740    0.48550    1.000
    C49      C        0.96100    0.51360    0.47000    1.000
    C50      C        0.03210    0.28970    0.05330    1.000
    C51      C        0.27080    0.43800    0.20810    1.000
    C52      C        0.34960    0.49110    0.26010    1.000
    C53      C        0.26960    0.51100    0.32260    1.000
    C54      C        0.34010    0.57250    0.37150    1.000
    C55      C        0.66630    0.43260    0.98550    1.000
    C56      C        0.53900    0.48640    0.97000    1.000
    O1       O        0.28080    0.98130    0.66400    1.000
    O2       O        0.23130    0.85810    0.71690    1.000
    O3       O        0.06150    0.04090    0.89990    1.000
    O4       O        0.20700    0.14730    0.87620    1.000
    O5       O        0.72840    0.97210    0.48190    1.000
    O6       O        0.85480    0.85310    0.49760    1.000
    O7       O        0.21920    0.01870    0.16400    1.000
    O8       O        0.26870    0.14190    0.21690    1.000
    O9       O        0.43850    0.95910    0.39990    1.000
    O10      O        0.29300    0.85270    0.37620    1.000
    O11      O        0.77160    0.02790    0.98190    1.000
    O12      O        0.64520    0.14690    0.99760    1.000
    O13      O        0.71920    0.48130    0.33600    1.000
    O14      O        0.76870    0.35810    0.28310    1.000
    O15      O        0.93850    0.54090    0.10010    1.000
    O16      O        0.79300    0.64730    0.12380    1.000
    O17      O        0.27160    0.47210    0.51810    1.000
    O18      O        0.14520    0.35310    0.50240    1.000
    O19      O        0.78080    0.51870    0.83600    1.000
    O20      O        0.73130    0.64190    0.78310    1.000
    O21      O        0.56150    0.45910    0.60010    1.000
    O22      O        0.70700    0.35270    0.62380    1.000
    O23      O        0.22840    0.52790    0.01810    1.000
    O24      O        0.35480    0.64690    0.00240    1.000
    O25      O        0.71920    0.01870    0.33600    1.000
    O26      O        0.76870    0.14190    0.28310    1.000
    O27      O        0.93850    0.95910    0.10010    1.000
    O28      O        0.79300    0.85270    0.12380    1.000
    O29      O        0.27160    0.02790    0.51810    1.000
    O30      O        0.14520    0.14690    0.50240    1.000
    O31      O        0.78080    0.98130    0.83600    1.000
    O32      O        0.73130    0.85810    0.78310    1.000
    O33      O        0.56150    0.04090    0.60010    1.000
    O34      O        0.70700    0.14730    0.62380    1.000
    O35      O        0.22840    0.97210    0.01810    1.000
    O36      O        0.35480    0.85310    0.00240    1.000
    O37      O        0.28080    0.51870    0.66400    1.000
    O38      O        0.23130    0.64190    0.71690    1.000
    O39      O        0.06150    0.45910    0.89990    1.000
    O40      O        0.20700    0.35270    0.87620    1.000
    O41      O        0.72840    0.52790    0.48190    1.000
    O42      O        0.85480    0.64690    0.49760    1.000
    O43      O        0.21920    0.48130    0.16400    1.000
    O44      O        0.26870    0.35810    0.21690    1.000
    O45      O        0.43850    0.54090    0.39990    1.000
    O46      O        0.29300    0.64730    0.37620    1.000
    O47      O        0.77160    0.47210    0.98190    1.000
    O48      O        0.64520    0.35310    0.99760    1.000
    F1       F        0.10990    0.06850    0.73593    1.000
    F2       F        0.03930    0.94590    0.77680    1.000
    F3       F        0.34570    0.04580    0.80300    1.000
    F4       F        0.25890    0.93480    0.85250    1.000
    F5       F        0.93710    0.05860    0.43400    1.000
    F6       F        0.04950    0.93810    0.43360    1.000
    F7       F        0.39010    0.93150    0.23593    1.000
    F8       F        0.46070    0.05410    0.27680    1.000
    F9       F        0.15430    0.95420    0.30300    1.000
    F10      F        0.24110    0.06520    0.35250    1.000
    F11      F        0.56290    0.94140    0.93400    1.000
    F12      F        0.45050    0.06190    0.93360    1.000
    F13      F        0.89010    0.56850    0.26407    1.000
    F14      F        0.96070    0.44590    0.22320    1.000
    F15      F        0.65430    0.54580    0.19700    1.000
    F16      F        0.74110    0.43480    0.14750    1.000
    F17      F        0.06290    0.55860    0.56600    1.000
    F18      F        0.95050    0.43810    0.56640    1.000
    F19      F        0.60990    0.43150    0.76407    1.000
    F20      F        0.53930    0.55410    0.72320    1.000
    F21      F        0.84570    0.45420    0.69700    1.000
    F22      F        0.75890    0.56520    0.64750    1.000
    F23      F        0.43710    0.44140    0.06600    1.000
    F24      F        0.54950    0.56190    0.06640    1.000
    F25      F        0.89010    0.93150    0.26407    1.000
    F26      F        0.96070    0.05410    0.22320    1.000
    F27      F        0.65430    0.95420    0.19700    1.000
    F28      F        0.74110    0.06520    0.14750    1.000
    F29      F        0.06290    0.94140    0.56600    1.000
    F30      F        0.95050    0.06190    0.56640    1.000
    F31      F        0.60990    0.06850    0.76407    1.000
    F32      F        0.53930    0.94590    0.72320    1.000
    F33      F        0.84570    0.04580    0.69700    1.000
    F34      F        0.75890    0.93480    0.64750    1.000
    F35      F        0.43710    0.05860    0.06600    1.000
    F36      F        0.54950    0.93810    0.06640    1.000
    F37      F        0.10990    0.43150    0.73593    1.000
    F38      F        0.03930    0.55410    0.77680    1.000
    F39      F        0.34570    0.45420    0.80300    1.000
    F40      F        0.25890    0.56520    0.85250    1.000
    F41      F        0.93710    0.44140    0.43400    1.000
    F42      F        0.04950    0.56190    0.43360    1.000
    F43      F        0.39010    0.56850    0.23593    1.000
    F44      F        0.46070    0.44590    0.27680    1.000
    F45      F        0.15430    0.54580    0.30300    1.000
    F46      F        0.24110    0.43480    0.35250    1.000
    F47      F        0.56290    0.55860    0.93400    1.000
    F48      F        0.45050    0.43810    0.93360    1.000
