# CIF file generated by openbabel 3.1.0, see https://openbabel.org
data_I
_chemical_name_common 'image0'
_cell_length_a 21.96
_cell_length_b 7.655
_cell_length_c 6.167
_cell_angle_alpha 90
_cell_angle_beta 91.47
_cell_angle_gamma 90
_space_group_name_H-M_alt 'P 1'
_space_group_name_Hall 'P 1'
loop_
    _symmetry_equiv_pos_as_xyz
    x,y,z
loop_
    _atom_site_label
    _atom_site_type_symbol
    _atom_site_fract_x
    _atom_site_fract_y
    _atom_site_fract_z
    _atom_site_occupancy
    Ce1      Ce       0.64534    0.25424    0.05018    1.000
    O1       O        0.54406    0.36220    0.88560    1.000
    O2       O        0.53758    0.14450    0.14830    1.000
    O3       O        0.65551    0.20370    0.65350    1.000
    O4       O        0.65939    0.04520    0.35320    1.000
    O5       O        0.63765    0.94460    0.90550    1.000
    H1       H        0.60660    0.88470    0.94410    1.000
    O6       O        0.76297    0.89200    0.71720    1.000
    H2       H        0.75980    0.98030    0.80000    1.000
    O7       O        0.66438    0.53980    0.86230    1.000
    O8       O        0.74996    0.64770    0.00550    1.000
    C1       C        0.65570    0.06120    0.55490    1.000
    C2       C        0.65090    0.89490    0.68870    1.000
    H3       H        0.61730    0.82370    0.62980    1.000
    C3       C        0.71000    0.78670    0.68740    1.000
    H4       H        0.71220    0.72840    0.54640    1.000
    C4       C        0.70730    0.64690    0.86220    1.000
    Ce2      Ce       0.14534    0.75424    0.05018    1.000
    O9       O        0.04406    0.86220    0.88560    1.000
    O10      O        0.03758    0.64450    0.14830    1.000
    O11      O        0.15551    0.70370    0.65350    1.000
    O12      O        0.15939    0.54520    0.35320    1.000
    O13      O        0.13765    0.44460    0.90550    1.000
    H5       H        0.10660    0.38470    0.94410    1.000
    O14      O        0.26297    0.39200    0.71720    1.000
    H6       H        0.25980    0.48030    0.80000    1.000
    O15      O        0.16438    0.03980    0.86230    1.000
    O16      O        0.24996    0.14770    0.00550    1.000
    C5       C        0.15570    0.56120    0.55490    1.000
    C6       C        0.15090    0.39490    0.68870    1.000
    H7       H        0.11730    0.32370    0.62980    1.000
    C7       C        0.21000    0.28670    0.68740    1.000
    H8       H        0.21220    0.22840    0.54640    1.000
    C8       C        0.20730    0.14690    0.86220    1.000
    Ce3      Ce       0.35466    0.25424    0.94982    1.000
    O17      O        0.45594    0.36220    0.11440    1.000
    O18      O        0.46242    0.14450    0.85170    1.000
    O19      O        0.34449    0.20370    0.34650    1.000
    O20      O        0.34061    0.04520    0.64680    1.000
    O21      O        0.36235    0.94460    0.09450    1.000
    H9       H        0.39340    0.88470    0.05590    1.000
    O22      O        0.23703    0.89200    0.28280    1.000
    H10      H        0.24020    0.98030    0.20000    1.000
    O23      O        0.33562    0.53980    0.13770    1.000
    O24      O        0.25004    0.64770    0.99450    1.000
    C9       C        0.34430    0.06120    0.44510    1.000
    C10      C        0.34910    0.89490    0.31130    1.000
    H11      H        0.38270    0.82370    0.37020    1.000
    C11      C        0.29000    0.78670    0.31260    1.000
    H12      H        0.28780    0.72840    0.45360    1.000
    C12      C        0.29270    0.64690    0.13780    1.000
    Ce4      Ce       0.85466    0.75424    0.94982    1.000
    O25      O        0.95594    0.86220    0.11440    1.000
    O26      O        0.96242    0.64450    0.85170    1.000
    O27      O        0.84449    0.70370    0.34650    1.000
    O28      O        0.84061    0.54520    0.64680    1.000
    O29      O        0.86235    0.44460    0.09450    1.000
    H13      H        0.89340    0.38470    0.05590    1.000
    O30      O        0.73703    0.39200    0.28280    1.000
    H14      H        0.74020    0.48030    0.20000    1.000
    O31      O        0.83562    0.03980    0.13770    1.000
    O32      O        0.75004    0.14770    0.99450    1.000
    C13      C        0.84430    0.56120    0.44510    1.000
    C14      C        0.84910    0.39490    0.31130    1.000
    H15      H        0.88270    0.32370    0.37020    1.000
    C15      C        0.79000    0.28670    0.31260    1.000
    H16      H        0.78780    0.22840    0.45360    1.000
    C16      C        0.79270    0.14690    0.13780    1.000
    S1       S        0.50000    0.25470    0.00000    1.000
    S2       S        0.00000    0.75470    0.00000    1.000
