# CIF file generated by openbabel 3.1.0, see https://openbabel.org
data_I
_chemical_name_common 'image0'
_cell_length_a 21.9362
_cell_length_b 16.7329
_cell_length_c 25.5715
_cell_angle_alpha 90
_cell_angle_beta 115.324
_cell_angle_gamma 90
_space_group_name_H-M_alt 'P 1'
_space_group_name_Hall 'P 1'
loop_
    _symmetry_equiv_pos_as_xyz
    x,y,z
loop_
    _atom_site_label
    _atom_site_type_symbol
    _atom_site_fract_x
    _atom_site_fract_y
    _atom_site_fract_z
    _atom_site_occupancy
    Ag1      Ag       0.34428    0.95836    0.36767    1.000
    Ag2      Ag       0.32166    0.25405    0.86719    1.000
    C1       C        0.59740    0.47050    0.00000    1.000
    C2       C        0.12350    0.25630    0.50100    1.000
    C3       C        0.03290    0.31090    0.41010    1.000
    H1       H        0.05410    0.28970    0.38860    1.000
    C4       C        0.72010    0.65030    0.89170    1.000
    H2       H        0.70060    0.65400    0.85150    1.000
    C5       C        0.06020    0.30140    0.46870    1.000
    C6       C        0.50270    0.38440    0.99530    1.000
    H3       H        0.52220    0.38370    0.03550    1.000
    C7       C        0.53270    0.42610    0.96590    1.000
    C8       C        0.29780    0.08390    0.50500    1.000
    H4       H        0.31990    0.08750    0.54510    1.000
    C9       C        0.44350    0.34380    0.96420    1.000
    H5       H        0.42360    0.31630    0.98450    1.000
    C10      C        0.68130    0.55150    0.00580    1.000
    C11      C        0.20970    0.22530    0.58660    1.000
    C12      C        0.77670    0.63760    0.00880    1.000
    H6       H        0.79750    0.63480    0.04890    1.000
    C13      C        0.23610    0.06580    0.38880    1.000
    H7       H        0.21450    0.05910    0.34890    1.000
    C14      C        0.71130    0.49290    0.15110    1.000
    C15      C        0.24260    0.23590    0.65020    1.000
    C16      C        0.02560    0.33470    0.49820    1.000
    H8       H        0.04230    0.32950    0.53810    1.000
    C17      C        0.96720    0.37450    0.46790    1.000
    H9       H        0.94530    0.39700    0.48840    1.000
    C18      C        0.67920    0.50170    0.08680    1.000
    C19      C        0.71440    0.60060    0.97670    1.000
    C20      C        0.20540    0.17250    0.50450    1.000
    C21      C        0.67820    0.45720    0.17980    1.000
    H10      H        0.63420    0.43920    0.15960    1.000
    C22      C        0.23560    0.12190    0.47410    1.000
    C23      C        0.32540    0.04100    0.47430    1.000
    H11      H        0.36750    0.01770    0.49480    1.000
    C24      C        0.68660    0.60840    0.91770    1.000
    H12      H        0.64500    0.58540    0.89520    1.000
    C25      C        0.97320    0.35240    0.38340    1.000
    H13      H        0.95540    0.35920    0.34350    1.000
    C26      C        0.20440    0.11120    0.41450    1.000
    H14      H        0.16260    0.13440    0.39250    1.000
    C27      C        0.50160    0.42540    0.90660    1.000
    H15      H        0.51970    0.45390    0.88540    1.000
    C28      C        0.80520    0.50620    0.24170    1.000
    H16      H        0.84920    0.52380    0.26290    1.000
    C29      C        0.80650    0.67900    0.97810    1.000
    H17      H        0.84810    0.70320    0.99910    1.000
    C30      C        0.71090    0.44820    0.23920    1.000
    H18      H        0.68780    0.42440    0.25830    1.000
    C31      C        0.77710    0.51760    0.18260    1.000
    H19      H        0.80160    0.54110    0.16470    1.000
    C32      C        0.44350    0.38190    0.87890    1.000
    H20      H        0.42400    0.38010    0.83870    1.000
    C33      C        0.21500    0.28680    0.67670    1.000
    H21      H        0.17640    0.31610    0.65480    1.000
    C34      C        0.30110    0.19650    0.68430    1.000
    H22      H        0.32290    0.16430    0.66790    1.000
    C35      C        0.32670    0.20570    0.74310    1.000
    H23      H        0.36590    0.17790    0.76560    1.000
    C36      C        0.24530    0.29350    0.73610    1.000
    H24      H        0.22710    0.32910    0.75360    1.000
    N1       N        0.29580    0.03080    0.41730    1.000
    N2       N        0.93940    0.38340    0.41090    1.000
    N3       N        0.30020    0.25090    0.77020    1.000
    N4       N        0.14800    0.21100    0.47170    1.000
    N5       N        0.15270    0.26690    0.55820    1.000
    N6       N        0.23770    0.17710    0.56210    1.000
    N7       N        0.77940    0.68570    0.92160    1.000
    N8       N        0.41340    0.34200    0.90680    1.000
    N9       N        0.77460    0.47250    0.27040    1.000
    N10      N        0.62520    0.51160    0.97230    1.000
    N11      N        0.62240    0.46260    0.05780    1.000
    N12      N        0.71040    0.54920    0.06370    1.000
    Ag3      Ag       0.84428    0.45836    0.36767    1.000
    Ag4      Ag       0.82166    0.75405    0.86719    1.000
    C37      C        0.09740    0.97050    0.00000    1.000
    C38      C        0.62350    0.75630    0.50100    1.000
    C39      C        0.53290    0.81090    0.41010    1.000
    H25      H        0.55410    0.78970    0.38860    1.000
    C40      C        0.22010    0.15030    0.89170    1.000
    H26      H        0.20060    0.15400    0.85150    1.000
    C41      C        0.56020    0.80140    0.46870    1.000
    C42      C        0.00270    0.88440    0.99530    1.000
    H27      H        0.02220    0.88370    0.03550    1.000
    C43      C        0.03270    0.92610    0.96590    1.000
    C44      C        0.79780    0.58390    0.50500    1.000
    H28      H        0.81990    0.58750    0.54510    1.000
    C45      C        0.94350    0.84380    0.96420    1.000
    H29      H        0.92360    0.81630    0.98450    1.000
    C46      C        0.18130    0.05150    0.00580    1.000
    C47      C        0.70970    0.72530    0.58660    1.000
    C48      C        0.27670    0.13760    0.00880    1.000
    H30      H        0.29750    0.13480    0.04890    1.000
    C49      C        0.73610    0.56580    0.38880    1.000
    H31      H        0.71450    0.55910    0.34890    1.000
    C50      C        0.21130    0.99290    0.15110    1.000
    C51      C        0.74260    0.73590    0.65020    1.000
    C52      C        0.52560    0.83470    0.49820    1.000
    H32      H        0.54230    0.82950    0.53810    1.000
    C53      C        0.46720    0.87450    0.46790    1.000
    H33      H        0.44530    0.89700    0.48840    1.000
    C54      C        0.17920    0.00170    0.08680    1.000
    C55      C        0.21440    0.10060    0.97670    1.000
    C56      C        0.70540    0.67250    0.50450    1.000
    C57      C        0.17820    0.95720    0.17980    1.000
    H34      H        0.13420    0.93920    0.15960    1.000
    C58      C        0.73560    0.62190    0.47410    1.000
    C59      C        0.82540    0.54100    0.47430    1.000
    H35      H        0.86750    0.51770    0.49480    1.000
    C60      C        0.18660    0.10840    0.91770    1.000
    H36      H        0.14500    0.08540    0.89520    1.000
    C61      C        0.47320    0.85240    0.38340    1.000
    H37      H        0.45540    0.85920    0.34350    1.000
    C62      C        0.70440    0.61120    0.41450    1.000
    H38      H        0.66260    0.63440    0.39250    1.000
    C63      C        0.00160    0.92540    0.90660    1.000
    H39      H        0.01970    0.95390    0.88540    1.000
    C64      C        0.30520    0.00620    0.24170    1.000
    H40      H        0.34920    0.02380    0.26290    1.000
    C65      C        0.30650    0.17900    0.97810    1.000
    H41      H        0.34810    0.20320    0.99910    1.000
    C66      C        0.21090    0.94820    0.23920    1.000
    H42      H        0.18780    0.92440    0.25830    1.000
    C67      C        0.27710    0.01760    0.18260    1.000
    H43      H        0.30160    0.04110    0.16470    1.000
    C68      C        0.94350    0.88190    0.87890    1.000
    H44      H        0.92400    0.88010    0.83870    1.000
    C69      C        0.71500    0.78680    0.67670    1.000
    H45      H        0.67640    0.81610    0.65480    1.000
    C70      C        0.80110    0.69650    0.68430    1.000
    H46      H        0.82290    0.66430    0.66790    1.000
    C71      C        0.82670    0.70570    0.74310    1.000
    H47      H        0.86590    0.67790    0.76560    1.000
    C72      C        0.74530    0.79350    0.73610    1.000
    H48      H        0.72710    0.82910    0.75360    1.000
    N13      N        0.79580    0.53080    0.41730    1.000
    N14      N        0.43940    0.88340    0.41090    1.000
    N15      N        0.80020    0.75090    0.77020    1.000
    N16      N        0.64800    0.71100    0.47170    1.000
    N17      N        0.65270    0.76690    0.55820    1.000
    N18      N        0.73770    0.67710    0.56210    1.000
    N19      N        0.27940    0.18570    0.92160    1.000
    N20      N        0.91340    0.84200    0.90680    1.000
    N21      N        0.27460    0.97250    0.27040    1.000
    N22      N        0.12520    0.01160    0.97230    1.000
    N23      N        0.12240    0.96260    0.05780    1.000
    N24      N        0.21040    0.04920    0.06370    1.000
    Ag5      Ag       0.65572    0.95836    0.13233    1.000
    Ag6      Ag       0.67834    0.25405    0.63281    1.000
    C73      C        0.40260    0.47050    0.50000    1.000
    C74      C        0.87650    0.25630    0.99900    1.000
    C75      C        0.96710    0.31090    0.08990    1.000
    H49      H        0.94590    0.28970    0.11140    1.000
    C76      C        0.27990    0.65030    0.60830    1.000
    H50      H        0.29940    0.65400    0.64850    1.000
    C77      C        0.93980    0.30140    0.03130    1.000
    C78      C        0.49730    0.38440    0.50470    1.000
    H51      H        0.47780    0.38370    0.46450    1.000
    C79      C        0.46730    0.42610    0.53410    1.000
    C80      C        0.70220    0.08390    0.99500    1.000
    H52      H        0.68010    0.08750    0.95490    1.000
    C81      C        0.55650    0.34380    0.53580    1.000
    H53      H        0.57640    0.31630    0.51550    1.000
    C82      C        0.31870    0.55150    0.49420    1.000
    C83      C        0.79030    0.22530    0.91340    1.000
    C84      C        0.22330    0.63760    0.49120    1.000
    H54      H        0.20250    0.63480    0.45110    1.000
    C85      C        0.76390    0.06580    0.11120    1.000
    H55      H        0.78550    0.05910    0.15110    1.000
    C86      C        0.28870    0.49290    0.34890    1.000
    C87      C        0.75740    0.23590    0.84980    1.000
    C88      C        0.97440    0.33470    0.00180    1.000
    H56      H        0.95770    0.32950    0.96190    1.000
    C89      C        0.03280    0.37450    0.03210    1.000
    H57      H        0.05470    0.39700    0.01160    1.000
    C90      C        0.32080    0.50170    0.41320    1.000
    C91      C        0.28560    0.60060    0.52330    1.000
    C92      C        0.79460    0.17250    0.99550    1.000
    C93      C        0.32180    0.45720    0.32020    1.000
    H58      H        0.36580    0.43920    0.34040    1.000
    C94      C        0.76440    0.12190    0.02590    1.000
    C95      C        0.67460    0.04100    0.02570    1.000
    H59      H        0.63250    0.01770    0.00520    1.000
    C96      C        0.31340    0.60840    0.58230    1.000
    H60      H        0.35500    0.58540    0.60480    1.000
    C97      C        0.02680    0.35240    0.11660    1.000
    H61      H        0.04460    0.35920    0.15650    1.000
    C98      C        0.79560    0.11120    0.08550    1.000
    H62      H        0.83740    0.13440    0.10750    1.000
    C99      C        0.49840    0.42540    0.59340    1.000
    H63      H        0.48030    0.45390    0.61460    1.000
    C100     C        0.19480    0.50620    0.25830    1.000
    H64      H        0.15080    0.52380    0.23710    1.000
    C101     C        0.19350    0.67900    0.52190    1.000
    H65      H        0.15190    0.70320    0.50090    1.000
    C102     C        0.28910    0.44820    0.26080    1.000
    H66      H        0.31220    0.42440    0.24170    1.000
    C103     C        0.22290    0.51760    0.31740    1.000
    H67      H        0.19840    0.54110    0.33530    1.000
    C104     C        0.55650    0.38190    0.62110    1.000
    H68      H        0.57600    0.38010    0.66130    1.000
    C105     C        0.78500    0.28680    0.82330    1.000
    H69      H        0.82360    0.31610    0.84520    1.000
    C106     C        0.69890    0.19650    0.81570    1.000
    H70      H        0.67710    0.16430    0.83210    1.000
    C107     C        0.67330    0.20570    0.75690    1.000
    H71      H        0.63410    0.17790    0.73440    1.000
    C108     C        0.75470    0.29350    0.76390    1.000
    H72      H        0.77290    0.32910    0.74640    1.000
    N25      N        0.70420    0.03080    0.08270    1.000
    N26      N        0.06060    0.38340    0.08910    1.000
    N27      N        0.69980    0.25090    0.72980    1.000
    N28      N        0.85200    0.21100    0.02830    1.000
    N29      N        0.84730    0.26690    0.94180    1.000
    N30      N        0.76230    0.17710    0.93790    1.000
    N31      N        0.22060    0.68570    0.57840    1.000
    N32      N        0.58660    0.34200    0.59320    1.000
    N33      N        0.22540    0.47250    0.22960    1.000
    N34      N        0.37480    0.51160    0.52770    1.000
    N35      N        0.37760    0.46260    0.44220    1.000
    N36      N        0.28960    0.54920    0.43630    1.000
    Ag7      Ag       0.15572    0.45836    0.13233    1.000
    Ag8      Ag       0.17834    0.75405    0.63281    1.000
    C109     C        0.90260    0.97050    0.50000    1.000
    C110     C        0.37650    0.75630    0.99900    1.000
    C111     C        0.46710    0.81090    0.08990    1.000
    H73      H        0.44590    0.78970    0.11140    1.000
    C112     C        0.77990    0.15030    0.60830    1.000
    H74      H        0.79940    0.15400    0.64850    1.000
    C113     C        0.43980    0.80140    0.03130    1.000
    C114     C        0.99730    0.88440    0.50470    1.000
    H75      H        0.97780    0.88370    0.46450    1.000
    C115     C        0.96730    0.92610    0.53410    1.000
    C116     C        0.20220    0.58390    0.99500    1.000
    H76      H        0.18010    0.58750    0.95490    1.000
    C117     C        0.05650    0.84380    0.53580    1.000
    H77      H        0.07640    0.81630    0.51550    1.000
    C118     C        0.81870    0.05150    0.49420    1.000
    C119     C        0.29030    0.72530    0.91340    1.000
    C120     C        0.72330    0.13760    0.49120    1.000
    H78      H        0.70250    0.13480    0.45110    1.000
    C121     C        0.26390    0.56580    0.11120    1.000
    H79      H        0.28550    0.55910    0.15110    1.000
    C122     C        0.78870    0.99290    0.34890    1.000
    C123     C        0.25740    0.73590    0.84980    1.000
    C124     C        0.47440    0.83470    0.00180    1.000
    H80      H        0.45770    0.82950    0.96190    1.000
    C125     C        0.53280    0.87450    0.03210    1.000
    H81      H        0.55470    0.89700    0.01160    1.000
    C126     C        0.82080    0.00170    0.41320    1.000
    C127     C        0.78560    0.10060    0.52330    1.000
    C128     C        0.29460    0.67250    0.99550    1.000
    C129     C        0.82180    0.95720    0.32020    1.000
    H82      H        0.86580    0.93920    0.34040    1.000
    C130     C        0.26440    0.62190    0.02590    1.000
    C131     C        0.17460    0.54100    0.02570    1.000
    H83      H        0.13250    0.51770    0.00520    1.000
    C132     C        0.81340    0.10840    0.58230    1.000
    H84      H        0.85500    0.08540    0.60480    1.000
    C133     C        0.52680    0.85240    0.11660    1.000
    H85      H        0.54460    0.85920    0.15650    1.000
    C134     C        0.29560    0.61120    0.08550    1.000
    H86      H        0.33740    0.63440    0.10750    1.000
    C135     C        0.99840    0.92540    0.59340    1.000
    H87      H        0.98030    0.95390    0.61460    1.000
    C136     C        0.69480    0.00620    0.25830    1.000
    H88      H        0.65080    0.02380    0.23710    1.000
    C137     C        0.69350    0.17900    0.52190    1.000
    H89      H        0.65190    0.20320    0.50090    1.000
    C138     C        0.78910    0.94820    0.26080    1.000
    H90      H        0.81220    0.92440    0.24170    1.000
    C139     C        0.72290    0.01760    0.31740    1.000
    H91      H        0.69840    0.04110    0.33530    1.000
    C140     C        0.05650    0.88190    0.62110    1.000
    H92      H        0.07600    0.88010    0.66130    1.000
    C141     C        0.28500    0.78680    0.82330    1.000
    H93      H        0.32360    0.81610    0.84520    1.000
    C142     C        0.19890    0.69650    0.81570    1.000
    H94      H        0.17710    0.66430    0.83210    1.000
    C143     C        0.17330    0.70570    0.75690    1.000
    H95      H        0.13410    0.67790    0.73440    1.000
    C144     C        0.25470    0.79350    0.76390    1.000
    H96      H        0.27290    0.82910    0.74640    1.000
    N37      N        0.20420    0.53080    0.08270    1.000
    N38      N        0.56060    0.88340    0.08910    1.000
    N39      N        0.19980    0.75090    0.72980    1.000
    N40      N        0.35200    0.71100    0.02830    1.000
    N41      N        0.34730    0.76690    0.94180    1.000
    N42      N        0.26230    0.67710    0.93790    1.000
    N43      N        0.72060    0.18570    0.57840    1.000
    N44      N        0.08660    0.84200    0.59320    1.000
    N45      N        0.72540    0.97250    0.22960    1.000
    N46      N        0.87480    0.01160    0.52770    1.000
    N47      N        0.87760    0.96260    0.44220    1.000
    N48      N        0.78960    0.04920    0.43630    1.000
    Ag9      Ag       0.65572    0.04164    0.63233    1.000
    Ag10     Ag       0.67834    0.74595    0.13281    1.000
    C145     C        0.40260    0.52950    0.00000    1.000
    C146     C        0.87650    0.74370    0.49900    1.000
    C147     C        0.96710    0.68910    0.58990    1.000
    H97      H        0.94590    0.71030    0.61140    1.000
    C148     C        0.27990    0.34970    0.10830    1.000
    H98      H        0.29940    0.34600    0.14850    1.000
    C149     C        0.93980    0.69860    0.53130    1.000
    C150     C        0.49730    0.61560    0.00470    1.000
    H99      H        0.47780    0.61630    0.96450    1.000
    C151     C        0.46730    0.57390    0.03410    1.000
    C152     C        0.70220    0.91610    0.49500    1.000
    H100     H        0.68010    0.91250    0.45490    1.000
    C153     C        0.55650    0.65620    0.03580    1.000
    H101     H        0.57640    0.68370    0.01550    1.000
    C154     C        0.31870    0.44850    0.99420    1.000
    C155     C        0.79030    0.77470    0.41340    1.000
    C156     C        0.22330    0.36240    0.99120    1.000
    H102     H        0.20250    0.36520    0.95110    1.000
    C157     C        0.76390    0.93420    0.61120    1.000
    H103     H        0.78550    0.94090    0.65110    1.000
    C158     C        0.28870    0.50710    0.84890    1.000
    C159     C        0.75740    0.76410    0.34980    1.000
    C160     C        0.97440    0.66530    0.50180    1.000
    H104     H        0.95770    0.67050    0.46190    1.000
    C161     C        0.03280    0.62550    0.53210    1.000
    H105     H        0.05470    0.60300    0.51160    1.000
    C162     C        0.32080    0.49830    0.91320    1.000
    C163     C        0.28560    0.39940    0.02330    1.000
    C164     C        0.79460    0.82750    0.49550    1.000
    C165     C        0.32180    0.54280    0.82020    1.000
    H106     H        0.36580    0.56080    0.84040    1.000
    C166     C        0.76440    0.87810    0.52590    1.000
    C167     C        0.67460    0.95900    0.52570    1.000
    H107     H        0.63250    0.98230    0.50520    1.000
    C168     C        0.31340    0.39160    0.08230    1.000
    H108     H        0.35500    0.41460    0.10480    1.000
    C169     C        0.02680    0.64760    0.61660    1.000
    H109     H        0.04460    0.64080    0.65650    1.000
    C170     C        0.79560    0.88880    0.58550    1.000
    H110     H        0.83740    0.86560    0.60750    1.000
    C171     C        0.49840    0.57460    0.09340    1.000
    H111     H        0.48030    0.54610    0.11460    1.000
    C172     C        0.19480    0.49380    0.75830    1.000
    H112     H        0.15080    0.47620    0.73710    1.000
    C173     C        0.19350    0.32100    0.02190    1.000
    H113     H        0.15190    0.29680    0.00090    1.000
    C174     C        0.28910    0.55180    0.76080    1.000
    H114     H        0.31220    0.57560    0.74170    1.000
    C175     C        0.22290    0.48240    0.81740    1.000
    H115     H        0.19840    0.45890    0.83530    1.000
    C176     C        0.55650    0.61810    0.12110    1.000
    H116     H        0.57600    0.61990    0.16130    1.000
    C177     C        0.78500    0.71320    0.32330    1.000
    H117     H        0.82360    0.68390    0.34520    1.000
    C178     C        0.69890    0.80350    0.31570    1.000
    H118     H        0.67710    0.83570    0.33210    1.000
    C179     C        0.67330    0.79430    0.25690    1.000
    H119     H        0.63410    0.82210    0.23440    1.000
    C180     C        0.75470    0.70650    0.26390    1.000
    H120     H        0.77290    0.67090    0.24640    1.000
    N49      N        0.70420    0.96920    0.58270    1.000
    N50      N        0.06060    0.61660    0.58910    1.000
    N51      N        0.69980    0.74910    0.22980    1.000
    N52      N        0.85200    0.78900    0.52830    1.000
    N53      N        0.84730    0.73310    0.44180    1.000
    N54      N        0.76230    0.82290    0.43790    1.000
    N55      N        0.22060    0.31430    0.07840    1.000
    N56      N        0.58660    0.65800    0.09320    1.000
    N57      N        0.22540    0.52750    0.72960    1.000
    N58      N        0.37480    0.48840    0.02770    1.000
    N59      N        0.37760    0.53740    0.94220    1.000
    N60      N        0.28960    0.45080    0.93630    1.000
    Ag11     Ag       0.15572    0.54164    0.63233    1.000
    Ag12     Ag       0.17834    0.24595    0.13281    1.000
    C181     C        0.90260    0.02950    0.00000    1.000
    C182     C        0.37650    0.24370    0.49900    1.000
    C183     C        0.46710    0.18910    0.58990    1.000
    H121     H        0.44590    0.21030    0.61140    1.000
    C184     C        0.77990    0.84970    0.10830    1.000
    H122     H        0.79940    0.84600    0.14850    1.000
    C185     C        0.43980    0.19860    0.53130    1.000
    C186     C        0.99730    0.11560    0.00470    1.000
    H123     H        0.97780    0.11630    0.96450    1.000
    C187     C        0.96730    0.07390    0.03410    1.000
    C188     C        0.20220    0.41610    0.49500    1.000
    H124     H        0.18010    0.41250    0.45490    1.000
    C189     C        0.05650    0.15620    0.03580    1.000
    H125     H        0.07640    0.18370    0.01550    1.000
    C190     C        0.81870    0.94850    0.99420    1.000
    C191     C        0.29030    0.27470    0.41340    1.000
    C192     C        0.72330    0.86240    0.99120    1.000
    H126     H        0.70250    0.86520    0.95110    1.000
    C193     C        0.26390    0.43420    0.61120    1.000
    H127     H        0.28550    0.44090    0.65110    1.000
    C194     C        0.78870    0.00710    0.84890    1.000
    C195     C        0.25740    0.26410    0.34980    1.000
    C196     C        0.47440    0.16530    0.50180    1.000
    H128     H        0.45770    0.17050    0.46190    1.000
    C197     C        0.53280    0.12550    0.53210    1.000
    H129     H        0.55470    0.10300    0.51160    1.000
    C198     C        0.82080    0.99830    0.91320    1.000
    C199     C        0.78560    0.89940    0.02330    1.000
    C200     C        0.29460    0.32750    0.49550    1.000
    C201     C        0.82180    0.04280    0.82020    1.000
    H130     H        0.86580    0.06080    0.84040    1.000
    C202     C        0.26440    0.37810    0.52590    1.000
    C203     C        0.17460    0.45900    0.52570    1.000
    H131     H        0.13250    0.48230    0.50520    1.000
    C204     C        0.81340    0.89160    0.08230    1.000
    H132     H        0.85500    0.91460    0.10480    1.000
    C205     C        0.52680    0.14760    0.61660    1.000
    H133     H        0.54460    0.14080    0.65650    1.000
    C206     C        0.29560    0.38880    0.58550    1.000
    H134     H        0.33740    0.36560    0.60750    1.000
    C207     C        0.99840    0.07460    0.09340    1.000
    H135     H        0.98030    0.04610    0.11460    1.000
    C208     C        0.69480    0.99380    0.75830    1.000
    H136     H        0.65080    0.97620    0.73710    1.000
    C209     C        0.69350    0.82100    0.02190    1.000
    H137     H        0.65190    0.79680    0.00090    1.000
    C210     C        0.78910    0.05180    0.76080    1.000
    H138     H        0.81220    0.07560    0.74170    1.000
    C211     C        0.72290    0.98240    0.81740    1.000
    H139     H        0.69840    0.95890    0.83530    1.000
    C212     C        0.05650    0.11810    0.12110    1.000
    H140     H        0.07600    0.11990    0.16130    1.000
    C213     C        0.28500    0.21320    0.32330    1.000
    H141     H        0.32360    0.18390    0.34520    1.000
    C214     C        0.19890    0.30350    0.31570    1.000
    H142     H        0.17710    0.33570    0.33210    1.000
    C215     C        0.17330    0.29430    0.25690    1.000
    H143     H        0.13410    0.32210    0.23440    1.000
    C216     C        0.25470    0.20650    0.26390    1.000
    H144     H        0.27290    0.17090    0.24640    1.000
    N61      N        0.20420    0.46920    0.58270    1.000
    N62      N        0.56060    0.11660    0.58910    1.000
    N63      N        0.19980    0.24910    0.22980    1.000
    N64      N        0.35200    0.28900    0.52830    1.000
    N65      N        0.34730    0.23310    0.44180    1.000
    N66      N        0.26230    0.32290    0.43790    1.000
    N67      N        0.72060    0.81430    0.07840    1.000
    N68      N        0.08660    0.15800    0.09320    1.000
    N69      N        0.72540    0.02750    0.72960    1.000
    N70      N        0.87480    0.98840    0.02770    1.000
    N71      N        0.87760    0.03740    0.94220    1.000
    N72      N        0.78960    0.95080    0.93630    1.000
    Ag13     Ag       0.34428    0.04164    0.86767    1.000
    Ag14     Ag       0.32166    0.74595    0.36719    1.000
    C217     C        0.59740    0.52950    0.50000    1.000
    C218     C        0.12350    0.74370    0.00100    1.000
    C219     C        0.03290    0.68910    0.91010    1.000
    H145     H        0.05410    0.71030    0.88860    1.000
    C220     C        0.72010    0.34970    0.39170    1.000
    H146     H        0.70060    0.34600    0.35150    1.000
    C221     C        0.06020    0.69860    0.96870    1.000
    C222     C        0.50270    0.61560    0.49530    1.000
    H147     H        0.52220    0.61630    0.53550    1.000
    C223     C        0.53270    0.57390    0.46590    1.000
    C224     C        0.29780    0.91610    0.00500    1.000
    H148     H        0.31990    0.91250    0.04510    1.000
    C225     C        0.44350    0.65620    0.46420    1.000
    H149     H        0.42360    0.68370    0.48450    1.000
    C226     C        0.68130    0.44850    0.50580    1.000
    C227     C        0.20970    0.77470    0.08660    1.000
    C228     C        0.77670    0.36240    0.50880    1.000
    H150     H        0.79750    0.36520    0.54890    1.000
    C229     C        0.23610    0.93420    0.88880    1.000
    H151     H        0.21450    0.94090    0.84890    1.000
    C230     C        0.71130    0.50710    0.65110    1.000
    C231     C        0.24260    0.76410    0.15020    1.000
    C232     C        0.02560    0.66530    0.99820    1.000
    H152     H        0.04230    0.67050    0.03810    1.000
    C233     C        0.96720    0.62550    0.96790    1.000
    H153     H        0.94530    0.60300    0.98840    1.000
    C234     C        0.67920    0.49830    0.58680    1.000
    C235     C        0.71440    0.39940    0.47670    1.000
    C236     C        0.20540    0.82750    0.00450    1.000
    C237     C        0.67820    0.54280    0.67980    1.000
    H154     H        0.63420    0.56080    0.65960    1.000
    C238     C        0.23560    0.87810    0.97410    1.000
    C239     C        0.32540    0.95900    0.97430    1.000
    H155     H        0.36750    0.98230    0.99480    1.000
    C240     C        0.68660    0.39160    0.41770    1.000
    H156     H        0.64500    0.41460    0.39520    1.000
    C241     C        0.97320    0.64760    0.88340    1.000
    H157     H        0.95540    0.64080    0.84350    1.000
    C242     C        0.20440    0.88880    0.91450    1.000
    H158     H        0.16260    0.86560    0.89250    1.000
    C243     C        0.50160    0.57460    0.40660    1.000
    H159     H        0.51970    0.54610    0.38540    1.000
    C244     C        0.80520    0.49380    0.74170    1.000
    H160     H        0.84920    0.47620    0.76290    1.000
    C245     C        0.80650    0.32100    0.47810    1.000
    H161     H        0.84810    0.29680    0.49910    1.000
    C246     C        0.71090    0.55180    0.73920    1.000
    H162     H        0.68780    0.57560    0.75830    1.000
    C247     C        0.77710    0.48240    0.68260    1.000
    H163     H        0.80160    0.45890    0.66470    1.000
    C248     C        0.44350    0.61810    0.37890    1.000
    H164     H        0.42400    0.61990    0.33870    1.000
    C249     C        0.21500    0.71320    0.17670    1.000
    H165     H        0.17640    0.68390    0.15480    1.000
    C250     C        0.30110    0.80350    0.18430    1.000
    H166     H        0.32290    0.83570    0.16790    1.000
    C251     C        0.32670    0.79430    0.24310    1.000
    H167     H        0.36590    0.82210    0.26560    1.000
    C252     C        0.24530    0.70650    0.23610    1.000
    H168     H        0.22710    0.67090    0.25360    1.000
    N73      N        0.29580    0.96920    0.91730    1.000
    N74      N        0.93940    0.61660    0.91090    1.000
    N75      N        0.30020    0.74910    0.27020    1.000
    N76      N        0.14800    0.78900    0.97170    1.000
    N77      N        0.15270    0.73310    0.05820    1.000
    N78      N        0.23770    0.82290    0.06210    1.000
    N79      N        0.77940    0.31430    0.42160    1.000
    N80      N        0.41340    0.65800    0.40680    1.000
    N81      N        0.77460    0.52750    0.77040    1.000
    N82      N        0.62520    0.48840    0.47230    1.000
    N83      N        0.62240    0.53740    0.55780    1.000
    N84      N        0.71040    0.45080    0.56370    1.000
    Ag15     Ag       0.84428    0.54164    0.86767    1.000
    Ag16     Ag       0.82166    0.24595    0.36719    1.000
    C253     C        0.09740    0.02950    0.50000    1.000
    C254     C        0.62350    0.24370    0.00100    1.000
    C255     C        0.53290    0.18910    0.91010    1.000
    H169     H        0.55410    0.21030    0.88860    1.000
    C256     C        0.22010    0.84970    0.39170    1.000
    H170     H        0.20060    0.84600    0.35150    1.000
    C257     C        0.56020    0.19860    0.96870    1.000
    C258     C        0.00270    0.11560    0.49530    1.000
    H171     H        0.02220    0.11630    0.53550    1.000
    C259     C        0.03270    0.07390    0.46590    1.000
    C260     C        0.79780    0.41610    0.00500    1.000
    H172     H        0.81990    0.41250    0.04510    1.000
    C261     C        0.94350    0.15620    0.46420    1.000
    H173     H        0.92360    0.18370    0.48450    1.000
    C262     C        0.18130    0.94850    0.50580    1.000
    C263     C        0.70970    0.27470    0.08660    1.000
    C264     C        0.27670    0.86240    0.50880    1.000
    H174     H        0.29750    0.86520    0.54890    1.000
    C265     C        0.73610    0.43420    0.88880    1.000
    H175     H        0.71450    0.44090    0.84890    1.000
    C266     C        0.21130    0.00710    0.65110    1.000
    C267     C        0.74260    0.26410    0.15020    1.000
    C268     C        0.52560    0.16530    0.99820    1.000
    H176     H        0.54230    0.17050    0.03810    1.000
    C269     C        0.46720    0.12550    0.96790    1.000
    H177     H        0.44530    0.10300    0.98840    1.000
    C270     C        0.17920    0.99830    0.58680    1.000
    C271     C        0.21440    0.89940    0.47670    1.000
    C272     C        0.70540    0.32750    0.00450    1.000
    C273     C        0.17820    0.04280    0.67980    1.000
    H178     H        0.13420    0.06080    0.65960    1.000
    C274     C        0.73560    0.37810    0.97410    1.000
    C275     C        0.82540    0.45900    0.97430    1.000
    H179     H        0.86750    0.48230    0.99480    1.000
    C276     C        0.18660    0.89160    0.41770    1.000
    H180     H        0.14500    0.91460    0.39520    1.000
    C277     C        0.47320    0.14760    0.88340    1.000
    H181     H        0.45540    0.14080    0.84350    1.000
    C278     C        0.70440    0.38880    0.91450    1.000
    H182     H        0.66260    0.36560    0.89250    1.000
    C279     C        0.00160    0.07460    0.40660    1.000
    H183     H        0.01970    0.04610    0.38540    1.000
    C280     C        0.30520    0.99380    0.74170    1.000
    H184     H        0.34920    0.97620    0.76290    1.000
    C281     C        0.30650    0.82100    0.47810    1.000
    H185     H        0.34810    0.79680    0.49910    1.000
    C282     C        0.21090    0.05180    0.73920    1.000
    H186     H        0.18780    0.07560    0.75830    1.000
    C283     C        0.27710    0.98240    0.68260    1.000
    H187     H        0.30160    0.95890    0.66470    1.000
    C284     C        0.94350    0.11810    0.37890    1.000
    H188     H        0.92400    0.11990    0.33870    1.000
    C285     C        0.71500    0.21320    0.17670    1.000
    H189     H        0.67640    0.18390    0.15480    1.000
    C286     C        0.80110    0.30350    0.18430    1.000
    H190     H        0.82290    0.33570    0.16790    1.000
    C287     C        0.82670    0.29430    0.24310    1.000
    H191     H        0.86590    0.32210    0.26560    1.000
    C288     C        0.74530    0.20650    0.23610    1.000
    H192     H        0.72710    0.17090    0.25360    1.000
    N85      N        0.79580    0.46920    0.91730    1.000
    N86      N        0.43940    0.11660    0.91090    1.000
    N87      N        0.80020    0.24910    0.27020    1.000
    N88      N        0.64800    0.28900    0.97170    1.000
    N89      N        0.65270    0.23310    0.05820    1.000
    N90      N        0.73770    0.32290    0.06210    1.000
    N91      N        0.27940    0.81430    0.42160    1.000
    N92      N        0.91340    0.15800    0.40680    1.000
    N93      N        0.27460    0.02750    0.77040    1.000
    N94      N        0.12520    0.98840    0.47230    1.000
    N95      N        0.12240    0.03740    0.55780    1.000
    N96      N        0.21040    0.95080    0.56370    1.000
