data_functionalizedCrystal
_audit_creation_method	'EQeq! by Chris Wilmer'
_symmetry_space_group_name_H-M	'P1'
_symmetry_Int_Tables_number	1
_symmetry_cell_setting	triclinic
loop_
_symmetry_equiv_pos_as_xyz
  x,y,z
_cell_length_a	9.5792
_cell_length_b	14.1333
_cell_length_c	22.7191
_cell_angle_alpha	78.2965
_cell_angle_beta	77.8297
_cell_angle_gamma	70.1909
loop_
_atom_site_label
_atom_site_type_symbol
_atom_site_fract_x
_atom_site_fract_y
_atom_site_fract_z
_atom_site_charge
Mof_Sn	Sn	0.61514	0.86501	0.23417	1.175
Mof_Sn	Sn	0.40501	0.24798	0.49518	1.203
Mof_Sn	Sn	0.68405	0.18722	0.0344	1.152
Mof_Sn	Sn	0.28568	0.36501	0.73417	1.179
Mof_Sn	Sn	0.85183	0.74798	0.99518	1.192
Mof_Sn	Sn	0.09433	0.68722	0.5344	1.14
Mof_H 	H 	0.5692	0.0158	0.3452	0.02
Mof_H 	H 	0.4016	0.3111	0.2741	0.033
Mof_H 	H 	0.4478	0.2584	0.1784	0.061
Mof_H 	H 	0.834	0.9463	0.2007	0.14
Mof_H 	H 	0.8165	0.905	0.1432	0.172
Mof_H 	H 	0.9797	0.7835	0.2381	0.006
Mof_H 	H 	0.9556	0.7378	0.1832	0.01
Mof_H 	H 	0.1044	0.8922	0.1642	0.024
Mof_H 	H 	0.0855	0.8416	0.1106	0.029
Mof_H 	H 	0.2393	0.6804	0.1578	0.125
Mof_H 	H 	0.3274	0.7611	0.1287	0.132
Mof_H 	H 	0.275	0.7436	0.2006	0.128
Mof_H 	H 	0.4176	0.8426	0.3292	0.153
Mof_H 	H 	0.4034	0.783	0.2796	0.161
Mof_H 	H 	0.2648	0.9948	0.281	-0.002
Mof_H 	H 	0.2482	0.9332	0.2324	0.002
Mof_H 	H 	0.1428	0.9015	0.3597	0.022
Mof_H 	H 	0.1307	0.8359	0.3125	0.027
Mof_H 	H 	0.9742	0.9982	0.2638	0.126
Mof_H 	H 	0.8997	0.9462	0.3262	0.146
Mof_H 	H 	0.9601	0.0389	0.3263	0.136
Mof_H 	H 	0.7828	0.5222	0.9924	0.006
Mof_H 	H 	0.5337	0.452	0.1536	0.034
Mof_H 	H 	0.5467	0.5943	0.1859	0.052
Mof_H 	H 	0.5156	0.3894	0.434	0.163
Mof_H 	H 	0.6523	0.2911	0.4497	0.151
Mof_H 	H 	0.485	0.4245	0.5377	0.037
Mof_H 	H 	0.6382	0.3339	0.5455	0.008
Mof_H 	H 	0.6212	0.5113	0.4541	0.024
Mof_H 	H 	0.7739	0.4227	0.4659	0.027
Mof_H 	H 	0.7277	0.4655	0.5681	0.135
Mof_H 	H 	0.7652	0.5519	0.5157	0.135
Mof_H 	H 	0.5952	0.5636	0.547	0.144
Mof_H 	H 	0.1729	0.1957	0.5525	0.169
Mof_H 	H 	0.3026	0.0954	0.5344	0.155
Mof_H 	H 	0.2458	0.1323	0.4345	0.002
Mof_H 	H 	0.1242	0.2378	0.4488	0.009
Mof_H 	H 	0.0924	0.0472	0.503	0.046
Mof_H 	H 	0.9685	0.1549	0.5117	0.043
Mof_H 	H 	0.0654	0.0684	0.402	0.115
Mof_H 	H 	0.9019	0.0877	0.4419	0.121
Mof_H 	H 	0.9556	0.182	0.4056	0.112
Mof_H 	H 	0.8704	0.7797	0.4211	0.017
Mof_H 	H 	0.8901	0.5468	0.3384	0.033
Mof_H 	H 	0.0512	0.4365	0.4017	0.06
Mof_H 	H 	0.9088	0.0709	0.0907	0.144
Mof_H 	H 	0.775	0.1215	0.1407	0.146
Mof_H 	H 	0.8474	0.2756	0.1136	0.014
Mof_H 	H 	0.9886	0.2175	0.0681	0.006
Mof_H 	H 	0.0821	0.0952	0.1532	0.031
Mof_H 	H 	0.9421	0.155	0.1984	0.03
Mof_H 	H 	0.0273	0.2973	0.1785	0.126
Mof_H 	H 	0.1688	0.2012	0.1934	0.133
Mof_H 	H 	0.1535	0.2515	0.1243	0.13
Mof_H 	H 	0.4997	0.1609	0.9739	0.157
Mof_H 	H 	0.5657	0.2478	0.9344	0.144
Mof_H 	H 	0.3918	0.3715	0.9861	0.011
Mof_H 	H 	0.345	0.2899	0.0395	0.024
Mof_H 	H 	0.282	0.3213	0.9193	0.021
Mof_H 	H 	0.2327	0.2419	0.9735	0.022
Mof_H 	H 	0.1195	0.4575	0.9721	0.141
Mof_H 	H 	0.0274	0.3909	0.9583	0.159
Mof_H 	H 	0.0677	0.377	0.025	0.144
Mof_H 	H 	0.0698	0.5158	0.8452	0.016
Mof_H 	H 	0.0132	0.8111	0.7741	0.031
Mof_H 	H 	0.1154	0.7584	0.6784	0.062
Mof_H 	H 	0.019	0.4463	0.7007	0.141
Mof_H 	H 	0.1353	0.405	0.6432	0.171
Mof_H 	H 	0.9987	0.2835	0.7381	0.009
Mof_H 	H 	0.1234	0.2378	0.6832	0.012
Mof_H 	H 	0.8392	0.3922	0.6642	0.022
Mof_H 	H 	0.9623	0.3416	0.6106	0.026
Mof_H 	H 	0.9225	0.1804	0.6578	0.129
Mof_H 	H 	0.7828	0.2611	0.6287	0.132
Mof_H 	H 	0.7808	0.2436	0.7006	0.131
Mof_H 	H 	0.4106	0.3426	0.8292	0.155
Mof_H 	H 	0.534	0.283	0.7796	0.162
Mof_H 	H 	0.4594	0.4948	0.781	-0.001
Mof_H 	H 	0.5862	0.4332	0.7324	0.001
Mof_H 	H 	0.596	0.4015	0.8597	0.027
Mof_H 	H 	0.7209	0.3359	0.8125	0.031
Mof_H 	H 	0.7638	0.4982	0.7638	0.12
Mof_H 	H 	0.8279	0.4462	0.8262	0.14
Mof_H 	H 	0.6747	0.5389	0.8263	0.124
Mof_H 	H 	0.7026	0.0222	0.4924	0.016
Mof_H 	H 	0.8607	0.952	0.6536	0.037
Mof_H 	H 	0.6731	0.0943	0.6859	0.048
Mof_H 	H 	0.661	0.8894	0.934	0.17
Mof_H 	H 	0.6069	0.7911	0.9497	0.159
Mof_H 	H 	0.5528	0.9245	0.0377	0.017
Mof_H 	H 	0.4824	0.8339	0.0455	-0.01
Mof_H 	H 	0.4134	0.0113	0.9541	0.06
Mof_H 	H 	0.3375	0.9227	0.9659	0.055
Mof_H 	H 	0.2387	0.9655	0.0681	0.096
Mof_H 	H 	0.1672	0.0519	0.0157	0.102
Mof_H 	H 	0.2942	0.0636	0.047	0.111
Mof_H 	H 	0.0789	0.6957	0.0525	0.168
Mof_H 	H 	0.0676	0.5954	0.0344	0.153
Mof_H 	H 	0.1874	0.6323	0.9345	-0.002
Mof_H 	H 	0.1892	0.7378	0.9488	0.005
Mof_H 	H 	0.3574	0.5472	0.003	0.06
Mof_H 	H 	0.3649	0.6549	0.0117	0.057
Mof_H 	H 	0.4642	0.5684	0.902	0.107
Mof_H 	H 	0.5685	0.5877	0.9419	0.11
Mof_H 	H 	0.4568	0.682	0.9056	0.103
Mof_H 	H 	0.9288	0.2797	0.9211	0.017
Mof_H 	H 	0.2247	0.0468	0.8384	0.038
Mof_H 	H 	0.1106	0.9365	0.9017	0.049
Mof_H 	H 	0.9296	0.5709	0.5907	0.139
Mof_H 	H 	0.9628	0.6215	0.6407	0.144
Mof_H 	H 	0.7634	0.7756	0.6136	0.016
Mof_H 	H 	0.7258	0.7175	0.5681	0.006
Mof_H 	H 	0.6695	0.5952	0.6532	0.026
Mof_H 	H 	0.7045	0.655	0.6984	0.024
Mof_H 	H 	0.4969	0.7973	0.6785	0.128
Mof_H 	H 	0.4366	0.7012	0.6934	0.134
Mof_H 	H 	0.4707	0.7515	0.6243	0.132
Mof_H 	H 	0.3655	0.6609	0.4739	0.16
Mof_H 	H 	0.2521	0.7478	0.4344	0.146
Mof_H 	H 	0.2506	0.8715	0.4861	0.003
Mof_H 	H 	0.3256	0.7899	0.5395	0.011
Mof_H 	H 	0.4774	0.8213	0.4193	0.03
Mof_H 	H 	0.5519	0.7419	0.4735	0.033
Mof_H 	H 	0.4509	0.9575	0.4721	0.126
Mof_H 	H 	0.6234	0.8909	0.4583	0.145
Mof_H 	H 	0.5303	0.877	0.525	0.124
Mof_C 	C 	0.5372	0.0657	0.3117	0.06
Mof_C 	C 	0.4874	0.1674	0.3182	-0.105
Mof_C 	C 	0.4432	0.2412	0.2694	0.009
Mof_C 	C 	0.4615	0.2098	0.214	-0.065
Mof_C 	C 	0.4998	0.1076	0.2102	-0.041
Mof_C 	C 	0.5044	0.0686	0.154	0.318
Mof_C 	C 	0.4703	0.1983	0.3803	0.307
Mof_C 	C 	0.8233	0.8871	0.1871	-0.493
Mof_C 	C 	0.9644	0.799	0.195	0.064
Mof_C 	C 	0.1006	0.8286	0.1536	-0.035
Mof_C 	C 	0.2486	0.7462	0.1608	-0.365
Mof_C 	C 	0.4098	0.8486	0.2858	-0.507
Mof_C 	C 	0.2619	0.9281	0.2751	0.064
Mof_C 	C 	0.1295	0.9044	0.3172	-0.029
Mof_C 	C 	0.9776	0.9784	0.3076	-0.386
Mof_C 	C 	0.7351	0.536	0.0322	0.067
Mof_C 	C 	0.6601	0.4713	0.0691	-0.11
Mof_C 	C 	0.5872	0.4941	0.1277	0.005
Mof_C 	C 	0.5949	0.5778	0.1466	-0.061
Mof_C 	C 	0.673	0.6382	0.1084	-0.03
Mof_C 	C 	0.6871	0.7302	0.1266	0.333
Mof_C 	C 	0.6524	0.3785	0.0487	0.309
Mof_C 	C 	0.5542	0.3356	0.4672	-0.502
Mof_C 	C 	0.5824	0.3868	0.5156	0.037
Mof_C 	C 	0.6738	0.4609	0.4857	-0.011
Mof_C 	C 	0.6921	0.5153	0.5333	-0.388
Mof_C 	C 	0.2497	0.1668	0.5188	-0.525
Mof_C 	C 	0.1691	0.1664	0.4666	0.075
Mof_C 	C 	0.0508	0.1172	0.4826	-0.068
Mof_C 	C 	0.988	0.1135	0.4283	-0.327
Mof_C 	C 	0.9109	0.71	0.416	0.064
Mof_C 	C 	0.8683	0.6759	0.3713	-0.112
Mof_C 	C 	0.9208	0.572	0.3676	0.016
Mof_C 	C 	0.0138	0.5071	0.4047	-0.066
Mof_C 	C 	0.0544	0.5466	0.4484	-0.035
Mof_C 	C 	0.1627	0.48	0.4898	0.332
Mof_C 	C 	0.7687	0.7479	0.3281	0.302
Mof_C 	C 	0.8336	0.1362	0.1004	-0.477
Mof_C 	C 	0.9197	0.2082	0.1064	0.042
Mof_C 	C 	0.0109	0.1631	0.1599	-0.04
Mof_C 	C 	0.0982	0.2348	0.1644	-0.363
Mof_C 	C 	0.522	0.2235	0.9759	-0.488
Mof_C 	C 	0.3751	0.3042	0.995	0.025
Mof_C 	C 	0.2505	0.3088	0.9638	-0.003
Mof_C 	C 	0.1031	0.3908	0.9814	-0.415
Mof_C 	C 	0.0854	0.5657	0.8117	0.061
Mof_C 	C 	0.027	0.6674	0.8182	-0.109
Mof_C 	C 	0.0462	0.7412	0.7694	0.011
Mof_C 	C 	0.1147	0.7098	0.714	-0.068
Mof_C 	C 	0.1824	0.6076	0.7102	-0.039
Mof_C 	C 	0.273	0.5686	0.654	0.309
Mof_C 	C 	0.9511	0.6983	0.8803	0.309
Mof_C 	C 	0.1025	0.3871	0.6871	-0.491
Mof_C 	C 	0.0416	0.299	0.695	0.055
Mof_C 	C 	0.9172	0.3286	0.6536	-0.026
Mof_C 	C 	0.8444	0.2462	0.6608	-0.373
Mof_C 	C 	0.4558	0.3486	0.7858	-0.51
Mof_C 	C 	0.5349	0.4281	0.7751	0.07
Mof_C 	C 	0.6489	0.4044	0.8172	-0.04
Mof_C 	C 	0.7364	0.4784	0.8076	-0.361
Mof_C 	C 	0.6967	0.036	0.5322	0.059
Mof_C 	C 	0.7995	0.9713	0.5691	-0.11
Mof_C 	C 	0.791	0.9941	0.6277	-0.01
Mof_C 	C 	0.6807	0.0778	0.6466	-0.045
Mof_C 	C 	0.5804	0.1382	0.6084	-0.036
Mof_C 	C 	0.4561	0.2302	0.6266	0.335
Mof_C 	C 	0.9204	0.8785	0.5487	0.31
Mof_C 	C 	0.643	0.8356	0.9672	-0.535
Mof_C 	C 	0.5152	0.8868	0.0156	0.107
Mof_C 	C 	0.3796	0.9609	0.9857	-0.123
Mof_C 	C 	0.2593	0.0153	0.0333	-0.264
Mof_C 	C 	0.0647	0.6668	0.0188	-0.516
Mof_C 	C 	0.1979	0.6664	0.9666	0.082
Mof_C 	C 	0.3494	0.6172	0.9826	-0.105
Mof_C 	C 	0.4702	0.6135	0.9283	-0.302
Mof_C 	C 	0.9631	0.21	0.916	0.06
Mof_C 	C 	0.0845	0.1759	0.8713	-0.107
Mof_C 	C 	0.1396	0.072	0.8676	0.003
Mof_C 	C 	0.0744	0.0071	0.9047	-0.048
Mof_C 	C 	0.9506	0.0466	0.9484	-0.028
Mof_C 	C 	0.8675	0.98	0.9898	0.306
Mof_C 	C 	0.1553	0.2479	0.8281	0.299
Mof_C 	C 	0.9298	0.6362	0.6004	-0.469
Mof_C 	C 	0.7657	0.7082	0.6064	0.033
Mof_C 	C 	0.6661	0.6631	0.6599	-0.027
Mof_C 	C 	0.5026	0.7348	0.6644	-0.372
Mof_C 	C 	0.2786	0.7235	0.4759	-0.493
Mof_C 	C 	0.3257	0.8042	0.495	0.055
Mof_C 	C 	0.4769	0.8088	0.4638	-0.036
Mof_C 	C 	0.5247	0.8908	0.4814	-0.366
Mof_N 	N 	0.5408	0.0364	0.2584	-0.176
Mof_N 	N 	0.7412	0.6191	0.0523	-0.179
Mof_N 	N 	0.0081	0.6464	0.452	-0.18
Mof_N 	N 	0.1644	0.5364	0.7584	-0.179
Mof_N 	N 	0.5874	0.1191	0.5523	-0.179
Mof_N 	N 	0.8935	0.1464	0.952	-0.181
Mof_O 	O 	0.5124	0.9769	0.1579	-0.378
Mof_O 	O 	0.5021	0.1319	0.1043	-0.35
Mof_O 	O 	0.3805	0.2827	0.3909	-0.351
Mof_O 	O 	0.541	0.1374	0.421	-0.362
Mof_O 	O 	0.7704	0.7762	0.0916	-0.39
Mof_O 	O 	0.6172	0.7511	0.1797	-0.376
Mof_O 	O 	0.5701	0.331	0.0824	-0.36
Mof_O 	O 	0.7369	0.3459	0.0015	-0.351
Mof_O 	O 	0.2068	0.5212	0.5236	-0.383
Mof_O 	O 	0.2023	0.3857	0.4879	-0.375
Mof_O 	O 	0.7339	0.7116	0.2888	-0.353
Mof_O 	O 	0.721	0.8425	0.3307	-0.344
Mof_O 	O 	0.3528	0.4769	0.6579	-0.373
Mof_O 	O 	0.2617	0.6319	0.6043	-0.349
Mof_O 	O 	0.9459	0.7827	0.8909	-0.352
Mof_O 	O 	0.9006	0.6374	0.921	-0.364
Mof_O 	O 	0.3618	0.2762	0.5916	-0.394
Mof_O 	O 	0.452	0.2511	0.6797	-0.377
Mof_O 	O 	0.0165	0.831	0.5824	-0.361
Mof_O 	O 	0.9157	0.8459	0.5015	-0.355
Mof_O 	O 	0.7484	0.0212	0.0236	-0.365
Mof_O 	O 	0.9241	0.8857	0.9879	-0.372
Mof_O 	O 	0.2657	0.2116	0.7888	-0.352
Mof_O 	O 	0.1058	0.3425	0.8307	-0.343
_end
