data_functionalizedCrystal
_audit_creation_method	'EQeq! by Chris Wilmer'
_symmetry_space_group_name_H-M	'P1'
_symmetry_Int_Tables_number	1
_symmetry_cell_setting	triclinic
loop_
_symmetry_equiv_pos_as_xyz
  x,y,z
_cell_length_a	18.8317
_cell_length_b	18.8317
_cell_length_c	38.5698
_cell_angle_alpha	90
_cell_angle_beta	90
_cell_angle_gamma	120
loop_
_atom_site_label
_atom_site_type_symbol
_atom_site_fract_x
_atom_site_fract_y
_atom_site_fract_z
_atom_site_charge
Mof_O 	O 	0.55552	0.70306	0.33002	-0.46
Mof_O 	O 	0.63282	0.74215	0.37719	-0.47
Mof_C 	C 	0.5715	0.6934	0.36081	0.411
Mof_C 	C 	0.5283	0.5987	0.41126	-0.003
Mof_H 	H 	0.5763	0.6364	0.4224	0.049
Mof_C 	C 	0.5139	0.6136	0.37744	-0.112
Mof_C 	C 	0.4541	0.4421	0.4794	-0.109
Mof_C 	C 	0.5376	0.7109	0.2375	0.257
Mof_C 	C 	0.5117	0.6982	0.2038	-0.46
Mof_H 	H 	0.5485	0.6725	0.2476	-0.058
Mof_H 	H 	0.5051	0.6528	0.1914	0.194
Mof_H 	H 	0.362	0.459	0.503	0.017
Mof_H 	H 	0.4432	0.3911	0.468	0.055
Mof_C 	C 	0.4191	0.4828	0.4899	0.022
Mof_O 	O 	0.22219	0.03639	0.66335	-0.46
Mof_O 	O 	0.29949	0.07548	0.71052	-0.47
Mof_C 	C 	0.23817	0.02673	0.69414	0.411
Mof_C 	C 	0.19497	0.93203	0.74459	-0.003
Mof_H 	H 	0.24297	0.96973	0.75573	0.049
Mof_C 	C 	0.18057	0.94693	0.71077	-0.112
Mof_C 	C 	0.12077	0.77543	0.81273	-0.109
Mof_C 	C 	0.20427	0.04423	0.57083	0.257
Mof_C 	C 	0.17837	0.03153	0.53713	-0.46
Mof_H 	H 	0.21517	0.00583	0.58093	-0.058
Mof_H 	H 	0.17177	0.98613	0.52473	0.194
Mof_H 	H 	0.02867	0.79233	0.83633	0.017
Mof_H 	H 	0.10987	0.72443	0.80133	0.055
Mof_C 	C 	0.08577	0.81613	0.82323	0.022
Mof_O 	O 	0.88885	0.36973	0.99669	-0.46
Mof_O 	O 	0.96615	0.40882	0.04386	-0.47
Mof_C 	C 	0.90483	0.36007	0.02748	0.411
Mof_C 	C 	0.86163	0.26537	0.07793	-0.003
Mof_H 	H 	0.90963	0.30307	0.08907	0.049
Mof_C 	C 	0.84723	0.28027	0.04411	-0.113
Mof_C 	C 	0.78743	0.10877	0.14607	-0.109
Mof_C 	C 	0.87093	0.37757	0.90417	0.257
Mof_C 	C 	0.84503	0.36487	0.87047	-0.46
Mof_H 	H 	0.88183	0.33917	0.91427	-0.058
Mof_H 	H 	0.83843	0.31947	0.85807	0.194
Mof_H 	H 	0.69533	0.12567	0.16967	0.017
Mof_H 	H 	0.77653	0.05777	0.13467	0.055
Mof_C 	C 	0.75243	0.14947	0.15657	0.022
Mof_O 	O 	0.29694	0.85246	0.33002	-0.46
Mof_O 	O 	0.25785	0.89067	0.37719	-0.47
Mof_C 	C 	0.3066	0.8781	0.36081	0.41
Mof_C 	C 	0.4013	0.9296	0.41126	-0.004
Mof_H 	H 	0.3636	0.9399	0.4224	0.048
Mof_C 	C 	0.3864	0.9003	0.37744	-0.114
Mof_C 	C 	0.5579	0.012	0.4794	-0.11
Mof_C 	C 	0.2891	0.8267	0.2375	0.256
Mof_C 	C 	0.3018	0.8135	0.2038	-0.461
Mof_H 	H 	0.3275	0.876	0.2476	-0.059
Mof_H 	H 	0.3472	0.8523	0.1914	0.193
Mof_H 	H 	0.541	0.903	0.503	0.016
Mof_H 	H 	0.6089	0.0521	0.468	0.054
Mof_C 	C 	0.5172	0.9363	0.4899	0.021
Mof_O 	O 	0.96361	0.18579	0.66335	-0.461
Mof_O 	O 	0.92452	0.224	0.71052	-0.471
Mof_C 	C 	0.97327	0.21143	0.69414	0.41
Mof_C 	C 	0.06797	0.26293	0.74459	-0.004
Mof_H 	H 	0.03027	0.27323	0.75573	0.048
Mof_C 	C 	0.05307	0.23363	0.71077	-0.113
Mof_C 	C 	0.22457	0.34533	0.81273	-0.11
Mof_C 	C 	0.95577	0.16003	0.57083	0.257
Mof_C 	C 	0.96847	0.14683	0.53713	-0.462
Mof_H 	H 	0.99417	0.20933	0.58093	-0.059
Mof_H 	H 	0.01387	0.18563	0.52473	0.193
Mof_H 	H 	0.20767	0.23633	0.83633	0.016
Mof_H 	H 	0.27557	0.38543	0.80133	0.054
Mof_C 	C 	0.18387	0.26963	0.82323	0.021
Mof_O 	O 	0.63027	0.51913	0.99669	-0.461
Mof_O 	O 	0.59118	0.55734	0.04386	-0.471
Mof_C 	C 	0.63993	0.54477	0.02748	0.41
Mof_C 	C 	0.73463	0.59627	0.07793	-0.004
Mof_H 	H 	0.69693	0.60657	0.08907	0.048
Mof_C 	C 	0.71973	0.56697	0.04411	-0.114
Mof_C 	C 	0.89123	0.67867	0.14607	-0.11
Mof_C 	C 	0.62243	0.49337	0.90417	0.256
Mof_C 	C 	0.63513	0.48017	0.87047	-0.461
Mof_H 	H 	0.66083	0.54267	0.91427	-0.059
Mof_H 	H 	0.68053	0.51897	0.85807	0.193
Mof_H 	H 	0.87433	0.56967	0.16967	0.016
Mof_H 	H 	0.94223	0.71877	0.13467	0.054
Mof_C 	C 	0.85053	0.60297	0.15657	0.021
Mof_O 	O 	0.14754	0.44448	0.33002	-0.461
Mof_O 	O 	0.10933	0.36718	0.37719	-0.471
Mof_C 	C 	0.1219	0.4285	0.36081	0.41
Mof_C 	C 	0.0704	0.4717	0.41126	-0.004
Mof_H 	H 	0.0601	0.4237	0.4224	0.048
Mof_C 	C 	0.0997	0.4861	0.37744	-0.114
Mof_C 	C 	0.988	0.5459	0.4794	-0.11
Mof_C 	C 	0.1733	0.4624	0.2375	0.256
Mof_C 	C 	0.1865	0.4883	0.2038	-0.461
Mof_H 	H 	0.124	0.4515	0.2476	-0.059
Mof_H 	H 	0.1477	0.4949	0.1914	0.193
Mof_H 	H 	0.097	0.638	0.503	0.016
Mof_H 	H 	0.9479	0.5568	0.468	0.054
Mof_C 	C 	0.0637	0.5809	0.4899	0.021
Mof_O 	O 	0.81421	0.77781	0.66335	-0.461
Mof_O 	O 	0.776	0.70051	0.71052	-0.471
Mof_C 	C 	0.78857	0.76183	0.69414	0.41
Mof_C 	C 	0.73707	0.80503	0.74459	-0.004
Mof_H 	H 	0.72677	0.75703	0.75573	0.048
Mof_C 	C 	0.76637	0.81943	0.71077	-0.113
Mof_C 	C 	0.65467	0.87923	0.81273	-0.11
Mof_C 	C 	0.83997	0.79573	0.57083	0.256
Mof_C 	C 	0.85317	0.82163	0.53713	-0.461
Mof_H 	H 	0.79067	0.78483	0.58093	-0.059
Mof_H 	H 	0.81437	0.82823	0.52473	0.193
Mof_H 	H 	0.76367	0.97133	0.83633	0.016
Mof_H 	H 	0.61457	0.89013	0.80133	0.054
Mof_C 	C 	0.73037	0.91423	0.82323	0.021
Mof_O 	O 	0.48087	0.11115	0.99669	-0.461
Mof_O 	O 	0.44266	0.03385	0.04386	-0.471
Mof_C 	C 	0.45523	0.09517	0.02748	0.41
Mof_C 	C 	0.40373	0.13837	0.07793	-0.004
Mof_H 	H 	0.39343	0.09037	0.08907	0.048
Mof_C 	C 	0.43303	0.15277	0.04411	-0.114
Mof_C 	C 	0.32133	0.21257	0.14607	-0.11
Mof_C 	C 	0.50663	0.12907	0.90417	0.256
Mof_C 	C 	0.51983	0.15497	0.87047	-0.461
Mof_H 	H 	0.45733	0.11817	0.91427	-0.059
Mof_H 	H 	0.48103	0.16157	0.85807	0.193
Mof_H 	H 	0.43033	0.30467	0.16967	0.016
Mof_H 	H 	0.28123	0.22347	0.13467	0.054
Mof_C 	C 	0.39703	0.24757	0.15657	0.021
Mof_O 	O 	0.70306	0.55552	0.66998	-0.461
Mof_O 	O 	0.74215	0.63282	0.62281	-0.471
Mof_C 	C 	0.6934	0.5715	0.63919	0.41
Mof_C 	C 	0.5987	0.5283	0.58874	-0.004
Mof_H 	H 	0.6364	0.5763	0.5776	0.048
Mof_C 	C 	0.6136	0.5139	0.62256	-0.113
Mof_C 	C 	0.4421	0.4541	0.5206	-0.11
Mof_C 	C 	0.7109	0.5376	0.7625	0.256
Mof_C 	C 	0.6982	0.5117	0.7962	-0.461
Mof_H 	H 	0.6725	0.5485	0.7524	-0.059
Mof_H 	H 	0.6528	0.5051	0.8086	0.193
Mof_H 	H 	0.459	0.362	0.497	0.016
Mof_H 	H 	0.3911	0.4432	0.532	0.054
Mof_C 	C 	0.4828	0.4191	0.5101	0.021
Mof_O 	O 	0.36973	0.88885	0.00331	-0.461
Mof_O 	O 	0.40882	0.96615	0.95614	-0.471
Mof_C 	C 	0.36007	0.90483	0.97252	0.41
Mof_C 	C 	0.26537	0.86163	0.92207	-0.004
Mof_H 	H 	0.30307	0.90963	0.91093	0.048
Mof_C 	C 	0.28027	0.84723	0.95589	-0.114
Mof_C 	C 	0.10877	0.78743	0.85393	-0.11
Mof_C 	C 	0.37757	0.87093	0.09583	0.256
Mof_C 	C 	0.36487	0.84503	0.12953	-0.461
Mof_H 	H 	0.33917	0.88183	0.08573	-0.059
Mof_H 	H 	0.31947	0.83843	0.14193	0.193
Mof_H 	H 	0.12567	0.69533	0.83033	0.016
Mof_H 	H 	0.05777	0.77653	0.86533	0.054
Mof_C 	C 	0.14947	0.75243	0.84343	0.021
Mof_O 	O 	0.03639	0.22219	0.33665	-0.461
Mof_O 	O 	0.07548	0.29949	0.28948	-0.471
Mof_C 	C 	0.02673	0.23817	0.30586	0.41
Mof_C 	C 	0.93203	0.19497	0.25541	-0.004
Mof_H 	H 	0.96973	0.24297	0.24427	0.048
Mof_C 	C 	0.94693	0.18057	0.28923	-0.113
Mof_C 	C 	0.77543	0.12077	0.18727	-0.11
Mof_C 	C 	0.04423	0.20427	0.42917	0.256
Mof_C 	C 	0.03153	0.17837	0.46287	-0.461
Mof_H 	H 	0.00583	0.21517	0.41907	-0.059
Mof_H 	H 	0.98613	0.17177	0.47527	0.193
Mof_H 	H 	0.79233	0.02867	0.16367	0.016
Mof_H 	H 	0.72443	0.10987	0.19867	0.054
Mof_C 	C 	0.81613	0.08577	0.17677	0.021
Mof_O 	O 	0.85246	0.29694	0.66998	-0.461
Mof_O 	O 	0.89067	0.25785	0.62281	-0.471
Mof_C 	C 	0.8781	0.3066	0.63919	0.41
Mof_C 	C 	0.9296	0.4013	0.58874	-0.004
Mof_H 	H 	0.9399	0.3636	0.5776	0.048
Mof_C 	C 	0.9003	0.3864	0.62256	-0.114
Mof_C 	C 	0.012	0.5579	0.5206	-0.11
Mof_C 	C 	0.8267	0.2891	0.7625	0.256
Mof_C 	C 	0.8135	0.3018	0.7962	-0.461
Mof_H 	H 	0.876	0.3275	0.7524	-0.059
Mof_H 	H 	0.8523	0.3472	0.8086	0.193
Mof_H 	H 	0.903	0.541	0.497	0.016
Mof_H 	H 	0.0521	0.6089	0.532	0.054
Mof_C 	C 	0.9363	0.5172	0.5101	0.021
Mof_O 	O 	0.51913	0.63027	0.00331	-0.461
Mof_O 	O 	0.55734	0.59118	0.95614	-0.471
Mof_C 	C 	0.54477	0.63993	0.97252	0.41
Mof_C 	C 	0.59627	0.73463	0.92207	-0.004
Mof_H 	H 	0.60657	0.69693	0.91093	0.048
Mof_C 	C 	0.56697	0.71973	0.95589	-0.114
Mof_C 	C 	0.67867	0.89123	0.85393	-0.11
Mof_C 	C 	0.49337	0.62243	0.09583	0.256
Mof_C 	C 	0.48017	0.63513	0.12953	-0.461
Mof_H 	H 	0.54267	0.66083	0.08573	-0.059
Mof_H 	H 	0.51897	0.68053	0.14193	0.193
Mof_H 	H 	0.56967	0.87433	0.83033	0.016
Mof_H 	H 	0.71877	0.94223	0.86533	0.054
Mof_C 	C 	0.60297	0.85053	0.84343	0.021
Mof_O 	O 	0.18579	0.96361	0.33665	-0.461
Mof_O 	O 	0.224	0.92452	0.28948	-0.471
Mof_C 	C 	0.21143	0.97327	0.30586	0.41
Mof_C 	C 	0.26293	0.06797	0.25541	-0.004
Mof_H 	H 	0.27323	0.03027	0.24427	0.048
Mof_C 	C 	0.23363	0.05307	0.28923	-0.113
Mof_C 	C 	0.34533	0.22457	0.18727	-0.11
Mof_C 	C 	0.16003	0.95577	0.42917	0.257
Mof_C 	C 	0.14683	0.96847	0.46287	-0.462
Mof_H 	H 	0.20933	0.99417	0.41907	-0.059
Mof_H 	H 	0.18563	0.01387	0.47527	0.193
Mof_H 	H 	0.23633	0.20767	0.16367	0.016
Mof_H 	H 	0.38543	0.27557	0.19867	0.054
Mof_C 	C 	0.26963	0.18387	0.17677	0.021
Mof_O 	O 	0.44448	0.14754	0.66998	-0.461
Mof_O 	O 	0.36718	0.10933	0.62281	-0.471
Mof_C 	C 	0.4285	0.1219	0.63919	0.41
Mof_C 	C 	0.4717	0.0704	0.58874	-0.004
Mof_H 	H 	0.4237	0.0601	0.5776	0.048
Mof_C 	C 	0.4861	0.0997	0.62256	-0.114
Mof_C 	C 	0.5459	0.988	0.5206	-0.11
Mof_C 	C 	0.4624	0.1733	0.7625	0.256
Mof_C 	C 	0.4883	0.1865	0.7962	-0.461
Mof_H 	H 	0.4515	0.124	0.7524	-0.059
Mof_H 	H 	0.4949	0.1477	0.8086	0.193
Mof_H 	H 	0.638	0.097	0.497	0.016
Mof_H 	H 	0.5568	0.9479	0.532	0.054
Mof_C 	C 	0.5809	0.0637	0.5101	0.021
Mof_O 	O 	0.11115	0.48087	0.00331	-0.461
Mof_O 	O 	0.03385	0.44266	0.95614	-0.471
Mof_C 	C 	0.09517	0.45523	0.97252	0.41
Mof_C 	C 	0.13837	0.40373	0.92207	-0.004
Mof_H 	H 	0.09037	0.39343	0.91093	0.048
Mof_C 	C 	0.15277	0.43303	0.95589	-0.114
Mof_C 	C 	0.21257	0.32133	0.85393	-0.11
Mof_C 	C 	0.12907	0.50663	0.09583	0.256
Mof_C 	C 	0.15497	0.51983	0.12953	-0.461
Mof_H 	H 	0.11817	0.45733	0.08573	-0.059
Mof_H 	H 	0.16157	0.48103	0.14193	0.193
Mof_H 	H 	0.30467	0.43033	0.83033	0.016
Mof_H 	H 	0.22347	0.28123	0.86533	0.054
Mof_C 	C 	0.24757	0.39703	0.84343	0.021
Mof_O 	O 	0.77781	0.81421	0.33665	-0.461
Mof_O 	O 	0.70051	0.776	0.28948	-0.471
Mof_C 	C 	0.76183	0.78857	0.30586	0.41
Mof_C 	C 	0.80503	0.73707	0.25541	-0.004
Mof_H 	H 	0.75703	0.72677	0.24427	0.048
Mof_C 	C 	0.81943	0.76637	0.28923	-0.113
Mof_C 	C 	0.87923	0.65467	0.18727	-0.11
Mof_C 	C 	0.79573	0.83997	0.42917	0.256
Mof_C 	C 	0.82163	0.85317	0.46287	-0.461
Mof_H 	H 	0.78483	0.79067	0.41907	-0.059
Mof_H 	H 	0.82823	0.81437	0.47527	0.193
Mof_H 	H 	0.97133	0.76367	0.16367	0.016
Mof_H 	H 	0.89013	0.61457	0.19867	0.054
Mof_C 	C 	0.91423	0.73037	0.17677	0.021
Mof_O 	O 	0.44448	0.29694	0.66998	-0.461
Mof_O 	O 	0.36718	0.25785	0.62281	-0.471
Mof_C 	C 	0.4285	0.3066	0.63919	0.41
Mof_C 	C 	0.4717	0.4013	0.58874	-0.004
Mof_H 	H 	0.4237	0.3636	0.5776	0.048
Mof_C 	C 	0.4861	0.3864	0.62256	-0.113
Mof_C 	C 	0.5459	0.5579	0.5206	-0.11
Mof_C 	C 	0.4624	0.2891	0.7625	0.256
Mof_C 	C 	0.4883	0.3018	0.7962	-0.461
Mof_H 	H 	0.4515	0.3275	0.7524	-0.059
Mof_H 	H 	0.4949	0.3472	0.8086	0.193
Mof_H 	H 	0.638	0.541	0.497	0.016
Mof_H 	H 	0.5568	0.6089	0.532	0.054
Mof_C 	C 	0.5809	0.5172	0.5101	0.021
Mof_O 	O 	0.11115	0.63027	0.00331	-0.461
Mof_O 	O 	0.03385	0.59118	0.95614	-0.471
Mof_C 	C 	0.09517	0.63993	0.97252	0.41
Mof_C 	C 	0.13837	0.73463	0.92207	-0.004
Mof_H 	H 	0.09037	0.69693	0.91093	0.048
Mof_C 	C 	0.15277	0.71973	0.95589	-0.114
Mof_C 	C 	0.21257	0.89123	0.85393	-0.11
Mof_C 	C 	0.12907	0.62243	0.09583	0.256
Mof_C 	C 	0.15497	0.63513	0.12953	-0.461
Mof_H 	H 	0.11817	0.66083	0.08573	-0.059
Mof_H 	H 	0.16157	0.68053	0.14193	0.193
Mof_H 	H 	0.30467	0.87433	0.83033	0.016
Mof_H 	H 	0.22347	0.94223	0.86533	0.054
Mof_C 	C 	0.24757	0.85053	0.84343	0.021
Mof_O 	O 	0.77781	0.96361	0.33665	-0.461
Mof_O 	O 	0.70051	0.92452	0.28948	-0.471
Mof_C 	C 	0.76183	0.97327	0.30586	0.41
Mof_C 	C 	0.80503	0.06797	0.25541	-0.004
Mof_H 	H 	0.75703	0.03027	0.24427	0.048
Mof_C 	C 	0.81943	0.05307	0.28923	-0.113
Mof_C 	C 	0.87923	0.22457	0.18727	-0.11
Mof_C 	C 	0.79573	0.95577	0.42917	0.256
Mof_C 	C 	0.82163	0.96847	0.46287	-0.461
Mof_H 	H 	0.78483	0.99417	0.41907	-0.059
Mof_H 	H 	0.82823	0.01387	0.47527	0.193
Mof_H 	H 	0.97133	0.20767	0.16367	0.016
Mof_H 	H 	0.89013	0.27557	0.19867	0.054
Mof_C 	C 	0.91423	0.18387	0.17677	0.021
Mof_O 	O 	0.70306	0.14754	0.66998	-0.461
Mof_O 	O 	0.74215	0.10933	0.62281	-0.471
Mof_C 	C 	0.6934	0.1219	0.63919	0.41
Mof_C 	C 	0.5987	0.0704	0.58874	-0.004
Mof_H 	H 	0.6364	0.0601	0.5776	0.048
Mof_C 	C 	0.6136	0.0997	0.62256	-0.114
Mof_C 	C 	0.4421	0.988	0.5206	-0.11
Mof_C 	C 	0.7109	0.1733	0.7625	0.256
Mof_C 	C 	0.6982	0.1865	0.7962	-0.461
Mof_H 	H 	0.6725	0.124	0.7524	-0.059
Mof_H 	H 	0.6528	0.1477	0.8086	0.193
Mof_H 	H 	0.459	0.097	0.497	0.016
Mof_H 	H 	0.3911	0.9479	0.532	0.054
Mof_C 	C 	0.4828	0.0637	0.5101	0.021
Mof_O 	O 	0.36973	0.48087	0.00331	-0.461
Mof_O 	O 	0.40882	0.44266	0.95614	-0.471
Mof_C 	C 	0.36007	0.45523	0.97252	0.41
Mof_C 	C 	0.26537	0.40373	0.92207	-0.004
Mof_H 	H 	0.30307	0.39343	0.91093	0.048
Mof_C 	C 	0.28027	0.43303	0.95589	-0.114
Mof_C 	C 	0.10877	0.32133	0.85393	-0.11
Mof_C 	C 	0.37757	0.50663	0.09583	0.256
Mof_C 	C 	0.36487	0.51983	0.12953	-0.461
Mof_H 	H 	0.33917	0.45733	0.08573	-0.059
Mof_H 	H 	0.31947	0.48103	0.14193	0.193
Mof_H 	H 	0.12567	0.43033	0.83033	0.016
Mof_H 	H 	0.05777	0.28123	0.86533	0.054
Mof_C 	C 	0.14947	0.39703	0.84343	0.021
Mof_O 	O 	0.03639	0.81421	0.33665	-0.461
Mof_O 	O 	0.07548	0.776	0.28948	-0.471
Mof_C 	C 	0.02673	0.78857	0.30586	0.41
Mof_C 	C 	0.93203	0.73707	0.25541	-0.004
Mof_H 	H 	0.96973	0.72677	0.24427	0.048
Mof_C 	C 	0.94693	0.76637	0.28923	-0.113
Mof_C 	C 	0.77543	0.65467	0.18727	-0.11
Mof_C 	C 	0.04423	0.83997	0.42917	0.257
Mof_C 	C 	0.03153	0.85317	0.46287	-0.462
Mof_H 	H 	0.00583	0.79067	0.41907	-0.059
Mof_H 	H 	0.98613	0.81437	0.47527	0.193
Mof_H 	H 	0.79233	0.76367	0.16367	0.016
Mof_H 	H 	0.72443	0.61457	0.19867	0.054
Mof_C 	C 	0.81613	0.73037	0.17677	0.021
Mof_O 	O 	0.85246	0.55552	0.66998	-0.461
Mof_O 	O 	0.89067	0.63282	0.62281	-0.471
Mof_C 	C 	0.8781	0.5715	0.63919	0.41
Mof_C 	C 	0.9296	0.5283	0.58874	-0.004
Mof_H 	H 	0.9399	0.5763	0.5776	0.048
Mof_C 	C 	0.9003	0.5139	0.62256	-0.114
Mof_C 	C 	0.012	0.4541	0.5206	-0.11
Mof_C 	C 	0.8267	0.5376	0.7625	0.256
Mof_C 	C 	0.8135	0.5117	0.7962	-0.461
Mof_H 	H 	0.876	0.5485	0.7524	-0.059
Mof_H 	H 	0.8523	0.5051	0.8086	0.193
Mof_H 	H 	0.903	0.362	0.497	0.016
Mof_H 	H 	0.0521	0.4432	0.532	0.054
Mof_C 	C 	0.9363	0.4191	0.5101	0.021
Mof_O 	O 	0.51913	0.88885	0.00331	-0.461
Mof_O 	O 	0.55734	0.96615	0.95614	-0.471
Mof_C 	C 	0.54477	0.90483	0.97252	0.41
Mof_C 	C 	0.59627	0.86163	0.92207	-0.004
Mof_H 	H 	0.60657	0.90963	0.91093	0.048
Mof_C 	C 	0.56697	0.84723	0.95589	-0.114
Mof_C 	C 	0.67867	0.78743	0.85393	-0.11
Mof_C 	C 	0.49337	0.87093	0.09583	0.256
Mof_C 	C 	0.48017	0.84503	0.12953	-0.461
Mof_H 	H 	0.54267	0.88183	0.08573	-0.059
Mof_H 	H 	0.51897	0.83843	0.14193	0.193
Mof_H 	H 	0.56967	0.69533	0.83033	0.016
Mof_H 	H 	0.71877	0.77653	0.86533	0.054
Mof_C 	C 	0.60297	0.75243	0.84343	0.021
Mof_O 	O 	0.18579	0.22219	0.33665	-0.461
Mof_O 	O 	0.224	0.29949	0.28948	-0.471
Mof_C 	C 	0.21143	0.23817	0.30586	0.41
Mof_C 	C 	0.26293	0.19497	0.25541	-0.004
Mof_H 	H 	0.27323	0.24297	0.24427	0.048
Mof_C 	C 	0.23363	0.18057	0.28923	-0.113
Mof_C 	C 	0.34533	0.12077	0.18727	-0.11
Mof_C 	C 	0.16003	0.20427	0.42917	0.256
Mof_C 	C 	0.14683	0.17837	0.46287	-0.461
Mof_H 	H 	0.20933	0.21517	0.41907	-0.059
Mof_H 	H 	0.18563	0.17177	0.47527	0.193
Mof_H 	H 	0.23633	0.02867	0.16367	0.016
Mof_H 	H 	0.38543	0.10987	0.19867	0.054
Mof_C 	C 	0.26963	0.08577	0.17677	0.021
Mof_O 	O 	0.29694	0.44448	0.33002	-0.461
Mof_O 	O 	0.25785	0.36718	0.37719	-0.471
Mof_C 	C 	0.3066	0.4285	0.36081	0.41
Mof_C 	C 	0.4013	0.4717	0.41126	-0.004
Mof_H 	H 	0.3636	0.4237	0.4224	0.048
Mof_C 	C 	0.3864	0.4861	0.37744	-0.113
Mof_C 	C 	0.5579	0.5459	0.4794	-0.11
Mof_C 	C 	0.2891	0.4624	0.2375	0.256
Mof_C 	C 	0.3018	0.4883	0.2038	-0.461
Mof_H 	H 	0.3275	0.4515	0.2476	-0.059
Mof_H 	H 	0.3472	0.4949	0.1914	0.193
Mof_H 	H 	0.541	0.638	0.503	0.016
Mof_H 	H 	0.6089	0.5568	0.468	0.054
Mof_C 	C 	0.5172	0.5809	0.4899	0.021
Mof_O 	O 	0.96361	0.77781	0.66335	-0.461
Mof_O 	O 	0.92452	0.70051	0.71052	-0.471
Mof_C 	C 	0.97327	0.76183	0.69414	0.41
Mof_C 	C 	0.06797	0.80503	0.74459	-0.004
Mof_H 	H 	0.03027	0.75703	0.75573	0.048
Mof_C 	C 	0.05307	0.81943	0.71077	-0.113
Mof_C 	C 	0.22457	0.87923	0.81273	-0.11
Mof_C 	C 	0.95577	0.79573	0.57083	0.256
Mof_C 	C 	0.96847	0.82163	0.53713	-0.461
Mof_H 	H 	0.99417	0.78483	0.58093	-0.059
Mof_H 	H 	0.01387	0.82823	0.52473	0.193
Mof_H 	H 	0.20767	0.97133	0.83633	0.016
Mof_H 	H 	0.27557	0.89013	0.80133	0.054
Mof_C 	C 	0.18387	0.91423	0.82323	0.021
Mof_O 	O 	0.63027	0.11115	0.99669	-0.461
Mof_O 	O 	0.59118	0.03385	0.04386	-0.471
Mof_C 	C 	0.63993	0.09517	0.02748	0.41
Mof_C 	C 	0.73463	0.13837	0.07793	-0.004
Mof_H 	H 	0.69693	0.09037	0.08907	0.048
Mof_C 	C 	0.71973	0.15277	0.04411	-0.114
Mof_C 	C 	0.89123	0.21257	0.14607	-0.11
Mof_C 	C 	0.62243	0.12907	0.90417	0.256
Mof_C 	C 	0.63513	0.15497	0.87047	-0.461
Mof_H 	H 	0.66083	0.11817	0.91427	-0.059
Mof_H 	H 	0.68053	0.16157	0.85807	0.193
Mof_H 	H 	0.87433	0.30467	0.16967	0.016
Mof_H 	H 	0.94223	0.22347	0.13467	0.054
Mof_C 	C 	0.85053	0.24757	0.15657	0.021
Mof_O 	O 	0.14754	0.70306	0.33002	-0.461
Mof_O 	O 	0.10933	0.74215	0.37719	-0.471
Mof_C 	C 	0.1219	0.6934	0.36081	0.41
Mof_C 	C 	0.0704	0.5987	0.41126	-0.004
Mof_H 	H 	0.0601	0.6364	0.4224	0.048
Mof_C 	C 	0.0997	0.6136	0.37744	-0.114
Mof_C 	C 	0.988	0.4421	0.4794	-0.11
Mof_C 	C 	0.1733	0.7109	0.2375	0.256
Mof_C 	C 	0.1865	0.6982	0.2038	-0.461
Mof_H 	H 	0.124	0.6725	0.2476	-0.059
Mof_H 	H 	0.1477	0.6528	0.1914	0.193
Mof_H 	H 	0.097	0.459	0.503	0.016
Mof_H 	H 	0.9479	0.3911	0.468	0.054
Mof_C 	C 	0.0637	0.4828	0.4899	0.021
Mof_O 	O 	0.81421	0.03639	0.66335	-0.461
Mof_O 	O 	0.776	0.07548	0.71052	-0.471
Mof_C 	C 	0.78857	0.02673	0.69414	0.41
Mof_C 	C 	0.73707	0.93203	0.74459	-0.004
Mof_H 	H 	0.72677	0.96973	0.75573	0.048
Mof_C 	C 	0.76637	0.94693	0.71077	-0.113
Mof_C 	C 	0.65467	0.77543	0.81273	-0.11
Mof_C 	C 	0.83997	0.04423	0.57083	0.257
Mof_C 	C 	0.85317	0.03153	0.53713	-0.462
Mof_H 	H 	0.79067	0.00583	0.58093	-0.059
Mof_H 	H 	0.81437	0.98613	0.52473	0.193
Mof_H 	H 	0.76367	0.79233	0.83633	0.016
Mof_H 	H 	0.61457	0.72443	0.80133	0.054
Mof_C 	C 	0.73037	0.81613	0.82323	0.021
Mof_O 	O 	0.48087	0.36973	0.99669	-0.461
Mof_O 	O 	0.44266	0.40882	0.04386	-0.471
Mof_C 	C 	0.45523	0.36007	0.02748	0.41
Mof_C 	C 	0.40373	0.26537	0.07793	-0.004
Mof_H 	H 	0.39343	0.30307	0.08907	0.048
Mof_C 	C 	0.43303	0.28027	0.04411	-0.114
Mof_C 	C 	0.32133	0.10877	0.14607	-0.11
Mof_C 	C 	0.50663	0.37757	0.90417	0.256
Mof_C 	C 	0.51983	0.36487	0.87047	-0.461
Mof_H 	H 	0.45733	0.33917	0.91427	-0.059
Mof_H 	H 	0.48103	0.31947	0.85807	0.193
Mof_H 	H 	0.43033	0.12567	0.16967	0.016
Mof_H 	H 	0.28123	0.05777	0.13467	0.054
Mof_C 	C 	0.39703	0.14947	0.15657	0.021
Mof_O 	O 	0.55552	0.85246	0.33002	-0.461
Mof_O 	O 	0.63282	0.89067	0.37719	-0.471
Mof_C 	C 	0.5715	0.8781	0.36081	0.41
Mof_C 	C 	0.5283	0.9296	0.41126	-0.004
Mof_H 	H 	0.5763	0.9399	0.4224	0.048
Mof_C 	C 	0.5139	0.9003	0.37744	-0.114
Mof_C 	C 	0.4541	0.012	0.4794	-0.11
Mof_C 	C 	0.5376	0.8267	0.2375	0.256
Mof_C 	C 	0.5117	0.8135	0.2038	-0.461
Mof_H 	H 	0.5485	0.876	0.2476	-0.059
Mof_H 	H 	0.5051	0.8523	0.1914	0.193
Mof_H 	H 	0.362	0.903	0.503	0.016
Mof_H 	H 	0.4432	0.0521	0.468	0.054
Mof_C 	C 	0.4191	0.9363	0.4899	0.021
Mof_O 	O 	0.22219	0.18579	0.66335	-0.461
Mof_O 	O 	0.29949	0.224	0.71052	-0.471
Mof_C 	C 	0.23817	0.21143	0.69414	0.41
Mof_C 	C 	0.19497	0.26293	0.74459	-0.004
Mof_H 	H 	0.24297	0.27323	0.75573	0.048
Mof_C 	C 	0.18057	0.23363	0.71077	-0.113
Mof_C 	C 	0.12077	0.34533	0.81273	-0.11
Mof_C 	C 	0.20427	0.16003	0.57083	0.256
Mof_C 	C 	0.17837	0.14683	0.53713	-0.461
Mof_H 	H 	0.21517	0.20933	0.58093	-0.059
Mof_H 	H 	0.17177	0.18563	0.52473	0.193
Mof_H 	H 	0.02867	0.23633	0.83633	0.016
Mof_H 	H 	0.10987	0.38543	0.80133	0.054
Mof_C 	C 	0.08577	0.26963	0.82323	0.021
Mof_O 	O 	0.88885	0.51913	0.99669	-0.461
Mof_O 	O 	0.96615	0.55734	0.04386	-0.471
Mof_C 	C 	0.90483	0.54477	0.02748	0.41
Mof_C 	C 	0.86163	0.59627	0.07793	-0.004
Mof_H 	H 	0.90963	0.60657	0.08907	0.048
Mof_C 	C 	0.84723	0.56697	0.04411	-0.114
Mof_C 	C 	0.78743	0.67867	0.14607	-0.11
Mof_C 	C 	0.87093	0.49337	0.90417	0.256
Mof_C 	C 	0.84503	0.48017	0.87047	-0.461
Mof_H 	H 	0.88183	0.54267	0.91427	-0.059
Mof_H 	H 	0.83843	0.51897	0.85807	0.193
Mof_H 	H 	0.69533	0.56967	0.16967	0.016
Mof_H 	H 	0.77653	0.71877	0.13467	0.054
Mof_C 	C 	0.75243	0.60297	0.15657	0.021
Mof_Zn	Zn	0.61407	0.80703	0.30146	1.221
Mof_N 	N 	0.5486	0.7743	0.25713	-0.317
Mof_C 	C 	0.4976	0.7488	0.1904	0.436
Mof_N 	N 	0.451	0.7255	0.1562	-0.14
Mof_Zn	Zn	0.28074	0.14037	0.63479	1.221
Mof_N 	N 	0.21527	0.10763	0.59046	-0.316
Mof_C 	C 	0.16427	0.08213	0.52373	0.436
Mof_N 	N 	0.11767	0.05883	0.48953	-0.14
Mof_Zn	Zn	0.9474	0.4737	0.96813	1.221
Mof_N 	N 	0.88193	0.44097	0.9238	-0.317
Mof_C 	C 	0.83093	0.41547	0.85707	0.436
Mof_N 	N 	0.78433	0.39217	0.82287	-0.14
Mof_Zn	Zn	0.19297	0.80703	0.30146	1.221
Mof_N 	N 	0.2257	0.7743	0.25713	-0.317
Mof_C 	C 	0.2512	0.7488	0.1904	0.436
Mof_N 	N 	0.2745	0.7255	0.1562	-0.14
Mof_Zn	Zn	0.85963	0.14037	0.63479	1.221
Mof_N 	N 	0.89237	0.10763	0.59046	-0.317
Mof_C 	C 	0.91787	0.08213	0.52373	0.437
Mof_N 	N 	0.94117	0.05883	0.48953	-0.14
Mof_Zn	Zn	0.5263	0.4737	0.96813	1.221
Mof_N 	N 	0.55903	0.44097	0.9238	-0.317
Mof_C 	C 	0.58453	0.41547	0.85707	0.436
Mof_N 	N 	0.60783	0.39217	0.82287	-0.14
Mof_Zn	Zn	0.19297	0.38593	0.30146	1.221
Mof_N 	N 	0.2257	0.4514	0.25713	-0.317
Mof_C 	C 	0.2512	0.5024	0.1904	0.436
Mof_N 	N 	0.2745	0.549	0.1562	-0.14
Mof_Zn	Zn	0.85963	0.71926	0.63479	1.221
Mof_N 	N 	0.89237	0.78473	0.59046	-0.316
Mof_C 	C 	0.91787	0.83573	0.52373	0.436
Mof_N 	N 	0.94117	0.88233	0.48953	-0.14
Mof_Zn	Zn	0.5263	0.0526	0.96813	1.221
Mof_N 	N 	0.55903	0.11807	0.9238	-0.317
Mof_C 	C 	0.58453	0.16907	0.85707	0.436
Mof_N 	N 	0.60783	0.21567	0.82287	-0.14
Mof_Zn	Zn	0.80703	0.61407	0.69854	1.221
Mof_N 	N 	0.7743	0.5486	0.74287	-0.317
Mof_C 	C 	0.7488	0.4976	0.8096	0.436
Mof_N 	N 	0.7255	0.451	0.8438	-0.14
Mof_Zn	Zn	0.4737	0.9474	0.03187	1.221
Mof_N 	N 	0.44097	0.88193	0.0762	-0.317
Mof_C 	C 	0.41547	0.83093	0.14293	0.436
Mof_N 	N 	0.39217	0.78433	0.17713	-0.14
Mof_Zn	Zn	0.14037	0.28074	0.36521	1.221
Mof_N 	N 	0.10763	0.21527	0.40954	-0.316
Mof_C 	C 	0.08213	0.16427	0.47627	0.436
Mof_N 	N 	0.05883	0.11767	0.51047	-0.14
Mof_Zn	Zn	0.80703	0.19297	0.69854	1.221
Mof_N 	N 	0.7743	0.2257	0.74287	-0.317
Mof_C 	C 	0.7488	0.2512	0.8096	0.436
Mof_N 	N 	0.7255	0.2745	0.8438	-0.14
Mof_Zn	Zn	0.4737	0.5263	0.03187	1.221
Mof_N 	N 	0.44097	0.55903	0.0762	-0.317
Mof_C 	C 	0.41547	0.58453	0.14293	0.436
Mof_N 	N 	0.39217	0.60783	0.17713	-0.14
Mof_Zn	Zn	0.14037	0.85963	0.36521	1.221
Mof_N 	N 	0.10763	0.89237	0.40954	-0.317
Mof_C 	C 	0.08213	0.91787	0.47627	0.437
Mof_N 	N 	0.05883	0.94117	0.51047	-0.14
Mof_Zn	Zn	0.38593	0.19297	0.69854	1.221
Mof_N 	N 	0.4514	0.2257	0.74287	-0.317
Mof_C 	C 	0.5024	0.2512	0.8096	0.436
Mof_N 	N 	0.549	0.2745	0.8438	-0.14
Mof_Zn	Zn	0.0526	0.5263	0.03187	1.221
Mof_N 	N 	0.11807	0.55903	0.0762	-0.317
Mof_C 	C 	0.16907	0.58453	0.14293	0.436
Mof_N 	N 	0.21567	0.60783	0.17713	-0.14
Mof_Zn	Zn	0.71926	0.85963	0.36521	1.221
Mof_N 	N 	0.78473	0.89237	0.40954	-0.316
Mof_C 	C 	0.83573	0.91787	0.47627	0.436
Mof_N 	N 	0.88233	0.94117	0.51047	-0.14
Mof_C 	C 	0.44344	0.55656	0.3609	0.056
Mof_H 	H 	0.4342	0.5658	0.3381	0.044
Mof_C 	C 	0.4717	0.5283	0.42862	-0.012
Mof_C 	C 	0.4865	0.5135	0.46546	-0.01
Mof_H 	H 	0.5165	0.4835	0.4669	0.082
Mof_C 	C 	0.11011	0.88989	0.69423	0.056
Mof_H 	H 	0.10087	0.89913	0.67143	0.044
Mof_C 	C 	0.13837	0.86163	0.76195	-0.012
Mof_C 	C 	0.15317	0.84683	0.79879	-0.01
Mof_H 	H 	0.18317	0.81683	0.80023	0.082
Mof_C 	C 	0.77677	0.22323	0.02757	0.056
Mof_H 	H 	0.76753	0.23247	0.00477	0.044
Mof_C 	C 	0.80503	0.19497	0.09529	-0.012
Mof_C 	C 	0.81983	0.18017	0.13213	-0.009
Mof_H 	H 	0.84983	0.15017	0.13357	0.082
Mof_C 	C 	0.44344	0.88688	0.3609	0.056
Mof_H 	H 	0.4342	0.8684	0.3381	0.044
Mof_C 	C 	0.4717	0.9434	0.42862	-0.012
Mof_C 	C 	0.4865	0.973	0.46546	-0.01
Mof_H 	H 	0.5165	0.033	0.4669	0.082
Mof_C 	C 	0.11011	0.22021	0.69423	0.056
Mof_H 	H 	0.10087	0.20173	0.67143	0.044
Mof_C 	C 	0.13837	0.27673	0.76195	-0.012
Mof_C 	C 	0.15317	0.30633	0.79879	-0.01
Mof_H 	H 	0.18317	0.36633	0.80023	0.082
Mof_C 	C 	0.77677	0.55355	0.02757	0.056
Mof_H 	H 	0.76753	0.53507	0.00477	0.044
Mof_C 	C 	0.80503	0.61007	0.09529	-0.012
Mof_C 	C 	0.81983	0.63967	0.13213	-0.009
Mof_H 	H 	0.84983	0.69967	0.13357	0.082
Mof_C 	C 	0.11312	0.55656	0.3609	0.056
Mof_H 	H 	0.1316	0.5658	0.3381	0.044
Mof_C 	C 	0.0566	0.5283	0.42862	-0.012
Mof_C 	C 	0.027	0.5135	0.46546	-0.01
Mof_H 	H 	0.967	0.4835	0.4669	0.082
Mof_C 	C 	0.77979	0.88989	0.69423	0.056
Mof_H 	H 	0.79827	0.89913	0.67143	0.044
Mof_C 	C 	0.72327	0.86163	0.76195	-0.012
Mof_C 	C 	0.69367	0.84683	0.79879	-0.01
Mof_H 	H 	0.63367	0.81683	0.80023	0.082
Mof_C 	C 	0.44645	0.22323	0.02757	0.056
Mof_H 	H 	0.46493	0.23247	0.00477	0.044
Mof_C 	C 	0.38993	0.19497	0.09529	-0.012
Mof_C 	C 	0.36033	0.18017	0.13213	-0.009
Mof_H 	H 	0.30033	0.15017	0.13357	0.082
Mof_C 	C 	0.55656	0.44344	0.6391	0.056
Mof_H 	H 	0.5658	0.4342	0.6619	0.044
Mof_C 	C 	0.5283	0.4717	0.57138	-0.012
Mof_C 	C 	0.5135	0.4865	0.53454	-0.01
Mof_H 	H 	0.4835	0.5165	0.5331	0.082
Mof_C 	C 	0.22323	0.77677	0.97243	0.056
Mof_H 	H 	0.23247	0.76753	0.99523	0.044
Mof_C 	C 	0.19497	0.80503	0.90471	-0.012
Mof_C 	C 	0.18017	0.81983	0.86787	-0.009
Mof_H 	H 	0.15017	0.84983	0.86643	0.082
Mof_C 	C 	0.88989	0.11011	0.30577	0.056
Mof_H 	H 	0.89913	0.10087	0.32857	0.044
Mof_C 	C 	0.86163	0.13837	0.23805	-0.012
Mof_C 	C 	0.84683	0.15317	0.20121	-0.01
Mof_H 	H 	0.81683	0.18317	0.19977	0.082
Mof_C 	C 	0.88688	0.44344	0.6391	0.056
Mof_H 	H 	0.8684	0.4342	0.6619	0.044
Mof_C 	C 	0.9434	0.4717	0.57138	-0.012
Mof_C 	C 	0.973	0.4865	0.53454	-0.01
Mof_H 	H 	0.033	0.5165	0.5331	0.082
Mof_C 	C 	0.55355	0.77677	0.97243	0.056
Mof_H 	H 	0.53507	0.76753	0.99523	0.044
Mof_C 	C 	0.61007	0.80503	0.90471	-0.012
Mof_C 	C 	0.63967	0.81983	0.86787	-0.009
Mof_H 	H 	0.69967	0.84983	0.86643	0.082
Mof_C 	C 	0.22021	0.11011	0.30577	0.056
Mof_H 	H 	0.20173	0.10087	0.32857	0.044
Mof_C 	C 	0.27673	0.13837	0.23805	-0.012
Mof_C 	C 	0.30633	0.15317	0.20121	-0.01
Mof_H 	H 	0.36633	0.18317	0.19977	0.082
Mof_C 	C 	0.55656	0.11312	0.6391	0.056
Mof_H 	H 	0.5658	0.1316	0.6619	0.044
Mof_C 	C 	0.5283	0.0566	0.57138	-0.012
Mof_C 	C 	0.5135	0.027	0.53454	-0.01
Mof_H 	H 	0.4835	0.967	0.5331	0.082
Mof_C 	C 	0.22323	0.44645	0.97243	0.056
Mof_H 	H 	0.23247	0.46493	0.99523	0.044
Mof_C 	C 	0.19497	0.38993	0.90471	-0.012
Mof_C 	C 	0.18017	0.36033	0.86787	-0.009
Mof_H 	H 	0.15017	0.30033	0.86643	0.082
Mof_C 	C 	0.88989	0.77979	0.30577	0.056
Mof_H 	H 	0.89913	0.79827	0.32857	0.044
Mof_C 	C 	0.86163	0.72327	0.23805	-0.012
Mof_C 	C 	0.84683	0.69367	0.20121	-0.01
Mof_H 	H 	0.81683	0.63367	0.19977	0.082
_end
