data_functionalizedCrystal
_audit_creation_method	'EQeq! by Chris Wilmer'
_symmetry_space_group_name_H-M	'P1'
_symmetry_Int_Tables_number	1
_symmetry_cell_setting	triclinic
loop_
_symmetry_equiv_pos_as_xyz
  x,y,z
_cell_length_a	15.217
_cell_length_b	9.8509
_cell_length_c	18.2741
_cell_angle_alpha	90
_cell_angle_beta	102.036
_cell_angle_gamma	90
loop_
_atom_site_label
_atom_site_type_symbol
_atom_site_fract_x
_atom_site_fract_y
_atom_site_fract_z
_atom_site_charge
Mof_Zn	Zn	0.2136	0.44449	0.03534	1.219
Mof_O 	O 	0.09974	0.3412	0.02796	-0.582
Mof_O 	O 	0.0738	0.8747	0.57872	-0.446
Mof_O 	O 	0.21854	0.928	0.62005	-0.426
Mof_O 	O 	0.20981	0.5504	0.94403	-0.445
Mof_O 	O 	0.3041	0.3096	0.08889	-0.496
Mof_O 	O 	0.1606	0.2331	0.9435	-0.294
Mof_O 	O 	0.05978	0.5674	0.91526	-0.442
Mof_O 	O 	0.38602	0.4415	0.03364	-0.633
Mof_C 	C 	0.1058	0.2372	0.9845	0.244
Mof_C 	C 	0.048	0.1172	0.9913	0.355
Mof_C 	C 	0.0091	0.1028	0.0525	-0.65
Mof_H 	H 	0.0152	0.173	0.0888	0.222
Mof_C 	C 	0.9614	0.9867	0.0614	0.543
Mof_H 	H 	0.9348	0.9777	0.1038	-0.104
Mof_C 	C 	0.1457	0.872	0.6266	0.368
Mof_C 	C 	0.1457	0.7957	0.6981	-0.063
Mof_C 	C 	0.1359	0.5851	0.902	0.386
Mof_C 	C 	0.1403	0.6565	0.8304	-0.091
Mof_C 	C 	0.062	0.6851	0.7789	-0.002
Mof_H 	H 	0.006	0.6579	0.7893	0.04
Mof_C 	C 	0.0637	0.7522	0.7131	-0.029
Mof_H 	H 	0.0093	0.769	0.678	0.053
Mof_C 	C 	0.2216	0.6976	0.8144	0.004
Mof_H 	H 	0.2762	0.6773	0.8484	0.033
Mof_C 	C 	0.2235	0.7676	0.7492	-0.027
Mof_H 	H 	0.2795	0.7969	0.7396	0.055
Mof_C 	C 	0.3775	0.3444	0.0747	0.48
Mof_H 	H 	0.4295	0.2939	0.0965	-0.182
Mof_Zn	Zn	0.7864	0.94449	0.46466	1.252
Mof_O 	O 	0.90026	0.8412	0.47204	-0.509
Mof_O 	O 	0.9262	0.3747	0.92128	-0.409
Mof_O 	O 	0.78146	0.428	0.87995	-0.444
Mof_O 	O 	0.79019	0.0504	0.55597	-0.509
Mof_O 	O 	0.6959	0.8096	0.41111	-0.447
Mof_O 	O 	0.8394	0.7331	0.5565	-0.308
Mof_O 	O 	0.94022	0.0674	0.58474	-0.451
Mof_O 	O 	0.61398	0.9415	0.46636	-0.561
Mof_C 	C 	0.8942	0.7372	0.5155	0.358
Mof_C 	C 	0.952	0.6172	0.5087	-0.16
Mof_C 	C 	0.9909	0.6028	0.4475	0.152
Mof_H 	H 	0.9848	0.673	0.4112	0.018
Mof_C 	C 	0.0386	0.4867	0.4386	-0.185
Mof_H 	H 	0.0652	0.4777	0.3962	0.092
Mof_C 	C 	0.8543	0.372	0.8734	0.362
Mof_C 	C 	0.8543	0.2957	0.8019	-0.052
Mof_C 	C 	0.8641	0.0851	0.598	0.391
Mof_C 	C 	0.8597	0.1565	0.6696	-0.105
Mof_C 	C 	0.938	0.1851	0.7211	0.009
Mof_H 	H 	0.994	0.1579	0.7107	0.05
Mof_C 	C 	0.9363	0.2522	0.7869	-0.037
Mof_H 	H 	0.9907	0.269	0.822	0.077
Mof_C 	C 	0.7784	0.1976	0.6856	0.009
Mof_H 	H 	0.7238	0.1773	0.6516	0.012
Mof_C 	C 	0.7765	0.2676	0.7508	-0.041
Mof_H 	H 	0.7205	0.2969	0.7604	0.048
Mof_C 	C 	0.6225	0.8444	0.4253	0.462
Mof_H 	H 	0.5705	0.7939	0.4035	-0.148
Mof_Zn	Zn	0.7864	0.55551	0.96466	1.247
Mof_O 	O 	0.90026	0.6588	0.97204	-0.487
Mof_O 	O 	0.9262	0.1253	0.42128	-0.446
Mof_O 	O 	0.78146	0.072	0.37995	-0.487
Mof_O 	O 	0.79019	0.4496	0.05597	-0.511
Mof_O 	O 	0.6959	0.6904	0.91111	-0.432
Mof_O 	O 	0.8394	0.7669	0.0565	-0.341
Mof_O 	O 	0.94022	0.4326	0.08474	-0.447
Mof_O 	O 	0.61398	0.5585	0.96636	-0.561
Mof_C 	C 	0.8942	0.7628	0.0155	0.4
Mof_C 	C 	0.952	0.8828	0.0087	-0.475
Mof_C 	C 	0.9909	0.8972	0.9475	0.595
Mof_H 	H 	0.9848	0.827	0.9112	-0.11
Mof_C 	C 	0.0386	0.0133	0.9386	-0.57
Mof_H 	H 	0.0652	0.0223	0.8962	0.202
Mof_C 	C 	0.8543	0.128	0.3734	0.369
Mof_C 	C 	0.8543	0.2043	0.3019	-0.07
Mof_C 	C 	0.8641	0.4149	0.098	0.389
Mof_C 	C 	0.8597	0.3435	0.1696	-0.098
Mof_C 	C 	0.938	0.3149	0.2211	-0
Mof_H 	H 	0.994	0.3421	0.2107	0.057
Mof_C 	C 	0.9363	0.2478	0.2869	-0.028
Mof_H 	H 	0.9907	0.231	0.322	0.07
Mof_C 	C 	0.7784	0.3024	0.1856	-0.002
Mof_H 	H 	0.7238	0.3227	0.1516	0.011
Mof_C 	C 	0.7765	0.2324	0.2508	-0.032
Mof_H 	H 	0.7205	0.2031	0.2604	0.034
Mof_C 	C 	0.6225	0.6556	0.9253	0.459
Mof_H 	H 	0.5705	0.7061	0.9035	-0.134
Mof_Zn	Zn	0.2136	0.05551	0.53534	1.21
Mof_O 	O 	0.09974	0.1588	0.52796	-0.561
Mof_O 	O 	0.0738	0.6253	0.07872	-0.489
Mof_O 	O 	0.21854	0.572	0.12005	-0.472
Mof_O 	O 	0.20981	0.9496	0.44403	-0.447
Mof_O 	O 	0.3041	0.1904	0.58889	-0.481
Mof_O 	O 	0.1606	0.2669	0.4435	-0.329
Mof_O 	O 	0.05978	0.9326	0.41526	-0.438
Mof_O 	O 	0.38602	0.0585	0.53364	-0.635
Mof_C 	C 	0.1058	0.2628	0.4845	0.281
Mof_C 	C 	0.048	0.3828	0.4913	0.033
Mof_C 	C 	0.0091	0.3972	0.5525	-0.193
Mof_H 	H 	0.0152	0.327	0.5888	0.091
Mof_C 	C 	0.9614	0.5133	0.5614	0.156
Mof_H 	H 	0.9348	0.5223	0.6038	0.009
Mof_C 	C 	0.1457	0.628	0.1266	0.376
Mof_C 	C 	0.1457	0.7043	0.1981	-0.084
Mof_C 	C 	0.1359	0.9149	0.402	0.383
Mof_C 	C 	0.1403	0.8435	0.3304	-0.084
Mof_C 	C 	0.062	0.8149	0.2789	-0.014
Mof_H 	H 	0.006	0.8421	0.2893	0.047
Mof_C 	C 	0.0637	0.7478	0.2131	-0.018
Mof_H 	H 	0.0093	0.731	0.178	0.042
Mof_C 	C 	0.2216	0.8024	0.3144	-0.009
Mof_H 	H 	0.2762	0.8227	0.3484	0.031
Mof_C 	C 	0.2235	0.7324	0.2492	-0.017
Mof_H 	H 	0.2795	0.7031	0.2396	0.041
Mof_C 	C 	0.3775	0.1556	0.5747	0.477
Mof_H 	H 	0.4295	0.2061	0.5965	-0.168
Mof_Zn	Zn	-0	0.5	-0	1.201
Mof_Zn	Zn	-2.12174e-17	9.42244e-33	0.5	1.199
Mof_Zn	Zn	0.5	0.5	-0	1.122
Mof_Zn	Zn	0.5	9.42244e-33	0.5	1.122
_end
