data_functionalizedCrystal
_audit_creation_method	'EQeq! by Chris Wilmer'
_symmetry_space_group_name_H-M	'P1'
_symmetry_Int_Tables_number	1
_symmetry_cell_setting	triclinic
loop_
_symmetry_equiv_pos_as_xyz
  x,y,z
_cell_length_a	16.846
_cell_length_b	14.179
_cell_length_c	18.754
_cell_angle_alpha	90
_cell_angle_beta	97.701
_cell_angle_gamma	90
loop_
_atom_site_label
_atom_site_type_symbol
_atom_site_fract_x
_atom_site_fract_y
_atom_site_fract_z
_atom_site_charge
Mof_C 	C 	0.308	0.6254	0.97021	-0.156
Mof_H 	H 	0.2552	0.6063	0.97	0.088
Mof_C 	C 	0.36405	0.603	0.02657	0.153
Mof_C 	C 	0.44117	0.63083	0.02683	0.026
Mof_H 	H 	0.4796	0.6154	0.0654	0.021
Mof_Co	Co	0.04017	0.71858	0.16799	1.175
Mof_C 	C 	0.16253	0.5631	0.19682	0.371
Mof_O 	O 	0.12882	0.62831	0.15898	-0.436
Mof_O 	O 	0.13927	0.53032	0.25142	-0.304
Mof_H 	H 	0.9565	0.5904	0.2288	0.189
Mof_C 	C 	0.46225	0.68119	0.97074	-0.181
Mof_H 	H 	0.5151	0.7003	0.9709	0.059
Mof_N 	N 	0.40621	0.70366	0.91438	-0.342
Mof_C 	C 	0.32909	0.67578	0.91412	0.135
Mof_H 	H 	0.2907	0.6912	0.8755	-0.006
Mof_C 	C 	0.39798	0.3372	0.20394	0.402
Mof_O 	O 	0.45149	0.31074	0.16773	-0.476
Mof_O 	O 	0.3831	0.299	0.26076	-0.415
Mof_C 	C 	0.35057	0.4205	0.17446	-0.131
Mof_C 	C 	0.28115	0.4509	0.20202	0.055
Mof_H 	H 	0.2638	0.4194	0.2406	0.035
Mof_C 	C 	0.23881	0.528	0.17147	-0.113
Mof_C 	C 	0.26709	0.5761	0.11581	0.024
Mof_H 	H 	0.2391	0.6287	0.0966	0.036
Mof_C 	C 	0.33606	0.5487	0.08739	-0.079
Mof_C 	C 	0.37574	0.4697	0.11698	0.032
Mof_H 	H 	0.4208	0.4485	0.098	0.028
Mof_N 	N 	0.43648	0.70101	0.92183	0.136
Mof_C 	C 	0.37584	0.70142	0.0332	-0.185
Mof_H 	H 	0.3599	0.7339	0.072	0.096
Mof_C 	C 	0.41235	0.75036	0.98068	0.153
Mof_H 	H 	0.4205	0.8151	0.9848	-0.047
Mof_C 	C 	0.4241	0.60273	0.91551	0.071
Mof_H 	H 	0.44	0.5702	0.8767	0.005
Mof_C 	C 	0.38757	0.55379	0.96803	-0.138
Mof_H 	H 	0.3794	0.489	0.9639	0.079
Mof_Ni	Ni	0.95983	0.71858	0.33201	1.085
Mof_C 	C 	0.808	0.1254	0.97021	-0.117
Mof_H 	H 	0.7552	0.1063	0.97	0.071
Mof_C 	C 	0.86405	0.103	0.02657	0.139
Mof_C 	C 	0.94117	0.13083	0.02683	0.023
Mof_H 	H 	0.9796	0.1154	0.0654	0.009
Mof_Co	Co	0.54017	0.21858	0.16799	1.166
Mof_C 	C 	0.66253	0.0631	0.19682	0.371
Mof_O 	O 	0.62882	0.12831	0.15898	-0.442
Mof_O 	O 	0.63927	0.03032	0.25142	-0.312
Mof_H 	H 	0.4565	0.0904	0.2288	0.221
Mof_C 	C 	0.96225	0.18119	0.97074	-0.177
Mof_H 	H 	0.0151	0.2003	0.9709	0.088
Mof_N 	N 	0.90621	0.20366	0.91438	-0.231
Mof_C 	C 	0.82909	0.17578	0.91412	0.072
Mof_H 	H 	0.7907	0.1912	0.8755	0.014
Mof_C 	C 	0.89798	0.8372	0.20394	0.404
Mof_O 	O 	0.95149	0.81074	0.16773	-0.497
Mof_O 	O 	0.8831	0.799	0.26076	-0.424
Mof_C 	C 	0.85057	0.9205	0.17446	-0.138
Mof_C 	C 	0.78115	0.9509	0.20202	0.058
Mof_H 	H 	0.7638	0.9194	0.2406	0.031
Mof_C 	C 	0.73881	0.028	0.17147	-0.118
Mof_C 	C 	0.76709	0.0761	0.11581	0.023
Mof_H 	H 	0.7391	0.1287	0.0966	0.035
Mof_C 	C 	0.83606	0.0487	0.08739	-0.079
Mof_C 	C 	0.87574	0.9697	0.11698	0.033
Mof_H 	H 	0.9208	0.9485	0.098	0.02
Mof_N 	N 	0.93648	0.20101	0.92183	0.024
Mof_C 	C 	0.87584	0.20142	0.0332	-0.181
Mof_H 	H 	0.8599	0.2339	0.072	0.092
Mof_C 	C 	0.91235	0.25036	0.98068	0.143
Mof_H 	H 	0.9205	0.3151	0.9848	-0.05
Mof_C 	C 	0.9241	0.10273	0.91551	0.079
Mof_H 	H 	0.94	0.0702	0.8767	-0.008
Mof_C 	C 	0.88757	0.05379	0.96803	-0.146
Mof_H 	H 	0.8794	0.989	0.9639	0.076
Mof_Ni	Ni	0.45983	0.21858	0.33201	1.097
Mof_C 	C 	0.692	0.6254	0.52979	-0.155
Mof_H 	H 	0.7448	0.6063	0.53	0.083
Mof_C 	C 	0.63595	0.603	0.47343	0.151
Mof_C 	C 	0.55883	0.63083	0.47317	0.02
Mof_H 	H 	0.5204	0.6154	0.4346	0.022
Mof_C 	C 	0.83747	0.5631	0.30318	0.367
Mof_O 	O 	0.87118	0.62831	0.34102	-0.435
Mof_O 	O 	0.86073	0.53032	0.24858	-0.314
Mof_H 	H 	0.0435	0.5904	0.2712	0.219
Mof_C 	C 	0.53775	0.68119	0.52926	-0.173
Mof_H 	H 	0.4849	0.7003	0.5291	0.06
Mof_N 	N 	0.59379	0.70366	0.58562	-0.331
Mof_C 	C 	0.67091	0.67578	0.58588	0.133
Mof_H 	H 	0.7093	0.6912	0.6245	-0.007
Mof_C 	C 	0.60202	0.3372	0.29606	0.4
Mof_O 	O 	0.54851	0.31074	0.33227	-0.465
Mof_O 	O 	0.6169	0.299	0.23924	-0.425
Mof_C 	C 	0.64943	0.4205	0.32554	-0.132
Mof_C 	C 	0.71885	0.4509	0.29798	0.055
Mof_H 	H 	0.7362	0.4194	0.2594	0.031
Mof_C 	C 	0.76119	0.528	0.32853	-0.117
Mof_C 	C 	0.73291	0.5761	0.38419	0.023
Mof_H 	H 	0.7609	0.6287	0.4034	0.035
Mof_C 	C 	0.66394	0.5487	0.41261	-0.08
Mof_C 	C 	0.62426	0.4697	0.38302	0.031
Mof_H 	H 	0.5792	0.4485	0.402	0.028
Mof_N 	N 	0.56352	0.70101	0.57817	0.131
Mof_C 	C 	0.62416	0.70142	0.4668	-0.181
Mof_H 	H 	0.6401	0.7339	0.428	0.095
Mof_C 	C 	0.58765	0.75036	0.51932	0.149
Mof_H 	H 	0.5795	0.8151	0.5152	-0.042
Mof_C 	C 	0.5759	0.60273	0.58449	0.069
Mof_H 	H 	0.56	0.5702	0.6233	0.007
Mof_C 	C 	0.61243	0.55379	0.53197	-0.136
Mof_H 	H 	0.6206	0.489	0.5361	0.077
Mof_C 	C 	0.192	0.1254	0.52979	-0.196
Mof_H 	H 	0.2448	0.1063	0.53	0.099
Mof_C 	C 	0.13595	0.103	0.47343	0.165
Mof_C 	C 	0.05883	0.13083	0.47317	0.022
Mof_H 	H 	0.0204	0.1154	0.4346	0.034
Mof_C 	C 	0.33747	0.0631	0.30318	0.368
Mof_O 	O 	0.37118	0.12831	0.34102	-0.428
Mof_O 	O 	0.36073	0.03032	0.24858	-0.309
Mof_H 	H 	0.5435	0.0904	0.2712	0.222
Mof_C 	C 	0.03775	0.18119	0.52926	-0.177
Mof_H 	H 	0.9849	0.2003	0.5291	0.032
Mof_N 	N 	0.09379	0.20366	0.58562	-0.443
Mof_C 	C 	0.17091	0.17578	0.58588	0.196
Mof_H 	H 	0.2093	0.1912	0.6245	-0.027
Mof_C 	C 	0.10202	0.8372	0.29606	0.398
Mof_O 	O 	0.04851	0.81074	0.33227	-0.446
Mof_O 	O 	0.1169	0.799	0.23924	-0.419
Mof_C 	C 	0.14943	0.9205	0.32554	-0.125
Mof_C 	C 	0.21885	0.9509	0.29798	0.054
Mof_H 	H 	0.2362	0.9194	0.2594	0.034
Mof_C 	C 	0.26119	0.028	0.32853	-0.113
Mof_C 	C 	0.23291	0.0761	0.38419	0.025
Mof_H 	H 	0.2609	0.1287	0.4034	0.035
Mof_C 	C 	0.16394	0.0487	0.41261	-0.081
Mof_C 	C 	0.12426	0.9697	0.38302	0.031
Mof_H 	H 	0.0792	0.9485	0.402	0.035
Mof_N 	N 	0.06352	0.20101	0.57817	0.245
Mof_C 	C 	0.12416	0.20142	0.4668	-0.184
Mof_H 	H 	0.1401	0.2339	0.428	0.099
Mof_C 	C 	0.08765	0.25036	0.51932	0.158
Mof_H 	H 	0.0795	0.3151	0.5152	-0.038
Mof_C 	C 	0.0759	0.10273	0.58449	0.061
Mof_H 	H 	0.06	0.0702	0.6233	0.02
Mof_C 	C 	0.11243	0.05379	0.53197	-0.127
Mof_H 	H 	0.1206	0.989	0.5361	0.079
Mof_C 	C 	0.692	0.3746	0.02979	-0.155
Mof_H 	H 	0.7448	0.3937	0.03	0.083
Mof_C 	C 	0.63595	0.397	0.97343	0.151
Mof_C 	C 	0.55883	0.36917	0.97317	0.025
Mof_H 	H 	0.5204	0.3846	0.9346	0.02
Mof_Co	Co	0.95983	0.28142	0.83201	1.153
Mof_C 	C 	0.83747	0.4369	0.80318	0.371
Mof_O 	O 	0.87118	0.37169	0.84102	-0.447
Mof_O 	O 	0.86073	0.46968	0.74858	-0.316
Mof_H 	H 	0.0435	0.4096	0.7712	0.218
Mof_C 	C 	0.53775	0.31881	0.02926	-0.181
Mof_H 	H 	0.4849	0.2997	0.0291	0.06
Mof_N 	N 	0.59379	0.29634	0.08562	-0.343
Mof_C 	C 	0.67091	0.32422	0.08588	0.134
Mof_H 	H 	0.7093	0.3088	0.1245	-0.008
Mof_C 	C 	0.60202	0.6628	0.79606	0.402
Mof_O 	O 	0.54851	0.68926	0.83227	-0.476
Mof_O 	O 	0.6169	0.701	0.73924	-0.417
Mof_C 	C 	0.64943	0.5795	0.82554	-0.133
Mof_C 	C 	0.71885	0.5491	0.79798	0.056
Mof_H 	H 	0.7362	0.5806	0.7594	0.031
Mof_C 	C 	0.76119	0.472	0.82853	-0.119
Mof_C 	C 	0.73291	0.4239	0.88419	0.024
Mof_H 	H 	0.7609	0.3713	0.9034	0.034
Mof_C 	C 	0.66394	0.4513	0.91261	-0.081
Mof_C 	C 	0.62426	0.5303	0.88302	0.032
Mof_H 	H 	0.5792	0.5515	0.902	0.027
Mof_N 	N 	0.56352	0.29899	0.07817	0.137
Mof_C 	C 	0.62416	0.29858	0.9668	-0.185
Mof_H 	H 	0.6401	0.2661	0.928	0.096
Mof_C 	C 	0.58765	0.24964	0.01932	0.154
Mof_H 	H 	0.5795	0.1849	0.0152	-0.047
Mof_C 	C 	0.5759	0.39727	0.08449	0.071
Mof_H 	H 	0.56	0.4298	0.1233	0.005
Mof_C 	C 	0.61243	0.44621	0.03197	-0.137
Mof_H 	H 	0.6206	0.511	0.0361	0.078
Mof_Ni	Ni	0.04017	0.28142	0.66799	1.106
Mof_C 	C 	0.192	0.8746	0.02979	-0.194
Mof_H 	H 	0.2448	0.8937	0.03	0.098
Mof_C 	C 	0.13595	0.897	0.97343	0.164
Mof_C 	C 	0.05883	0.86917	0.97317	0.026
Mof_H 	H 	0.0204	0.8846	0.9346	0.032
Mof_Co	Co	0.45983	0.78142	0.83201	1.166
Mof_C 	C 	0.33747	0.9369	0.80318	0.371
Mof_O 	O 	0.37118	0.87169	0.84102	-0.441
Mof_O 	O 	0.36073	0.96968	0.74858	-0.311
Mof_H 	H 	0.5435	0.9096	0.7712	0.221
Mof_C 	C 	0.03775	0.81881	0.02926	-0.185
Mof_H 	H 	0.9849	0.7997	0.0291	0.032
Mof_N 	N 	0.09379	0.79634	0.08562	-0.451
Mof_C 	C 	0.17091	0.82422	0.08588	0.196
Mof_H 	H 	0.2093	0.8088	0.1245	-0.028
Mof_C 	C 	0.10202	0.1628	0.79606	0.399
Mof_O 	O 	0.04851	0.18926	0.83227	-0.457
Mof_O 	O 	0.1169	0.201	0.73924	-0.41
Mof_C 	C 	0.14943	0.0795	0.82554	-0.127
Mof_C 	C 	0.21885	0.0491	0.79798	0.055
Mof_H 	H 	0.2362	0.0806	0.7594	0.034
Mof_C 	C 	0.26119	0.972	0.82853	-0.116
Mof_C 	C 	0.23291	0.9239	0.88419	0.026
Mof_H 	H 	0.2609	0.8713	0.9034	0.035
Mof_C 	C 	0.16394	0.9513	0.91261	-0.082
Mof_C 	C 	0.12426	0.0303	0.88302	0.032
Mof_H 	H 	0.0792	0.0515	0.902	0.035
Mof_N 	N 	0.06352	0.79899	0.07817	0.247
Mof_C 	C 	0.12416	0.79858	0.9668	-0.188
Mof_H 	H 	0.1401	0.7661	0.928	0.1
Mof_C 	C 	0.08765	0.74964	0.01932	0.163
Mof_H 	H 	0.0795	0.6849	0.0152	-0.043
Mof_C 	C 	0.0759	0.89727	0.08449	0.063
Mof_H 	H 	0.06	0.9298	0.1233	0.018
Mof_C 	C 	0.11243	0.94621	0.03197	-0.128
Mof_H 	H 	0.1206	0.011	0.0361	0.079
Mof_Ni	Ni	0.54017	0.78142	0.66799	1.098
Mof_C 	C 	0.308	0.3746	0.47021	-0.156
Mof_H 	H 	0.2552	0.3937	0.47	0.087
Mof_C 	C 	0.36405	0.397	0.52657	0.152
Mof_C 	C 	0.44117	0.36917	0.52683	0.02
Mof_H 	H 	0.4796	0.3846	0.5654	0.022
Mof_C 	C 	0.16253	0.4369	0.69682	0.367
Mof_O 	O 	0.12882	0.37169	0.65898	-0.423
Mof_O 	O 	0.13927	0.46968	0.75142	-0.302
Mof_H 	H 	0.9565	0.4096	0.7288	0.189
Mof_C 	C 	0.46225	0.31881	0.47074	-0.173
Mof_H 	H 	0.5151	0.2997	0.4709	0.06
Mof_N 	N 	0.40621	0.29634	0.41438	-0.332
Mof_C 	C 	0.32909	0.32422	0.41412	0.133
Mof_H 	H 	0.2907	0.3088	0.3755	-0.004
Mof_C 	C 	0.39798	0.6628	0.70394	0.4
Mof_O 	O 	0.45149	0.68926	0.66773	-0.465
Mof_O 	O 	0.3831	0.701	0.76076	-0.423
Mof_C 	C 	0.35057	0.5795	0.67446	-0.129
Mof_C 	C 	0.28115	0.5491	0.70202	0.054
Mof_H 	H 	0.2638	0.5806	0.7406	0.035
Mof_C 	C 	0.23881	0.472	0.67147	-0.111
Mof_C 	C 	0.26709	0.4239	0.61581	0.023
Mof_H 	H 	0.2391	0.3713	0.5966	0.037
Mof_C 	C 	0.33606	0.4513	0.58739	-0.078
Mof_C 	C 	0.37574	0.5303	0.61698	0.031
Mof_H 	H 	0.4208	0.5515	0.598	0.028
Mof_N 	N 	0.43648	0.29899	0.42183	0.132
Mof_C 	C 	0.37584	0.29858	0.5332	-0.182
Mof_H 	H 	0.3599	0.2661	0.572	0.095
Mof_C 	C 	0.41235	0.24964	0.48068	0.149
Mof_H 	H 	0.4205	0.1849	0.4848	-0.042
Mof_C 	C 	0.4241	0.39727	0.41551	0.07
Mof_H 	H 	0.44	0.4298	0.3767	0.007
Mof_C 	C 	0.38757	0.44621	0.46803	-0.136
Mof_H 	H 	0.3794	0.511	0.4639	0.078
Mof_C 	C 	0.808	0.8746	0.47021	-0.116
Mof_H 	H 	0.7552	0.8937	0.47	0.071
Mof_C 	C 	0.86405	0.897	0.52657	0.138
Mof_C 	C 	0.94117	0.86917	0.52683	0.018
Mof_H 	H 	0.9796	0.8846	0.5654	0.011
Mof_C 	C 	0.66253	0.9369	0.69682	0.367
Mof_O 	O 	0.62882	0.87169	0.65898	-0.429
Mof_O 	O 	0.63927	0.96968	0.75142	-0.31
Mof_H 	H 	0.4565	0.9096	0.7288	0.222
Mof_C 	C 	0.96225	0.81881	0.47074	-0.169
Mof_H 	H 	0.0151	0.7997	0.4709	0.088
Mof_N 	N 	0.90621	0.79634	0.41438	-0.221
Mof_C 	C 	0.82909	0.82422	0.41412	0.07
Mof_H 	H 	0.7907	0.8088	0.3755	0.015
Mof_C 	C 	0.89798	0.1628	0.70394	0.403
Mof_O 	O 	0.95149	0.18926	0.66773	-0.486
Mof_O 	O 	0.8831	0.201	0.76076	-0.432
Mof_C 	C 	0.85057	0.0795	0.67446	-0.136
Mof_C 	C 	0.78115	0.0491	0.70202	0.056
Mof_H 	H 	0.7638	0.0806	0.7406	0.032
Mof_C 	C 	0.73881	0.972	0.67147	-0.116
Mof_C 	C 	0.76709	0.9239	0.61581	0.021
Mof_H 	H 	0.7391	0.8713	0.5966	0.036
Mof_C 	C 	0.83606	0.9513	0.58739	-0.078
Mof_C 	C 	0.87574	0.0303	0.61698	0.031
Mof_H 	H 	0.9208	0.0515	0.598	0.021
Mof_N 	N 	0.93648	0.79899	0.42183	0.019
Mof_C 	C 	0.87584	0.79858	0.5332	-0.179
Mof_H 	H 	0.8599	0.7661	0.572	0.091
Mof_C 	C 	0.91235	0.74964	0.48068	0.139
Mof_H 	H 	0.9205	0.6849	0.4848	-0.046
Mof_C 	C 	0.9241	0.89727	0.41551	0.077
Mof_H 	H 	0.94	0.9298	0.3767	-0.006
Mof_C 	C 	0.88757	0.94621	0.46803	-0.144
Mof_H 	H 	0.8794	0.011	0.4639	0.076
Mof_O 	O 	-6.40249e-18	0.63045	0.25	-0.629
Mof_O 	O 	0.5	0.13045	0.25	-0.674
Mof_O 	O 	-1.2805e-17	0.36955	0.75	-0.628
Mof_O 	O 	0.5	0.86955	0.75	-0.674
_end
