# CIF file generated by openbabel 3.1.0, see https://openbabel.org
data_I
_chemical_name_common 'image0'
_cell_length_a 11.6692
_cell_length_b 12.2365
_cell_length_c 13.6586
_cell_angle_alpha 65.229
_cell_angle_beta 67.518
_cell_angle_gamma 88.435
_space_group_name_H-M_alt 'P 1'
_space_group_name_Hall 'P 1'
loop_
    _symmetry_equiv_pos_as_xyz
    x,y,z
loop_
    _atom_site_label
    _atom_site_type_symbol
    _atom_site_fract_x
    _atom_site_fract_y
    _atom_site_fract_z
    _atom_site_occupancy
    Eu1      Eu       0.43318    0.33010    0.32575    1.000
    O1       O        0.47680    0.53120    0.30920    1.000
    O2       O        0.53740    0.68900    0.32030    1.000
    O3       O        0.43450    0.65590    0.55690    1.000
    O4       O        0.48260    0.83150    0.55100    1.000
    O5       O        0.49730    0.80020    0.77910    1.000
    O6       O        0.55500    0.62900    0.87160    1.000
    O7       O        0.14200    0.16570    0.31910    1.000
    O8       O        0.26550    0.17310    0.40490    1.000
    O9       O        0.26680    0.44230    0.29420    1.000
    O10      O        0.08270    0.36710    0.31290    1.000
    H1       H        0.12250    0.31530    0.29860    1.000
    O11      O        0.71660    0.54840    0.42300    1.000
    O12      O        0.71070    0.69180    0.48160    1.000
    C1       C        0.50910    0.64360    0.26450    1.000
    C2       C        0.50750    0.72650    0.14730    1.000
    C3       C        0.50390    0.85200    0.11840    1.000
    H2       H        0.50160    0.87900    0.17330    1.000
    C4       C        0.50350    0.93530    0.01280    1.000
    C5       C        0.50960    0.89130    0.93240    1.000
    H3       H        0.51220    0.94560    0.85910    1.000
    C6       C        0.51190    0.76780    0.95790    1.000
    C7       C        0.52070    0.72910    0.86550    1.000
    C8       C        0.51050    0.68500    0.06630    1.000
    H4       H        0.51150    0.60300    0.08410    1.000
    C9       C        0.42400    0.76880    0.52810    1.000
    C10      C        0.33560    0.82190    0.47080    1.000
    C11      C        0.31800    0.94180    0.44290    1.000
    H5       H        0.36470    0.99100    0.45550    1.000
    C12      C        0.23080    0.98870    0.39620    1.000
    C13      C        0.21130    0.11900    0.37120    1.000
    C14      C        0.16190    0.91660    0.37660    1.000
    H6       H        0.10260    0.94850    0.34680    1.000
    C15      C        0.17970    0.79750    0.40060    1.000
    C16      C        0.26570    0.75000    0.45010    1.000
    H7       H        0.27640    0.66910    0.46950    1.000
    C17      C        0.10600    0.71670    0.38180    1.000
    C18      C        0.97770    0.71800    0.40670    1.000
    H8       H        0.93750    0.77470    0.43080    1.000
    C19      C        0.91040    0.63560    0.39590    1.000
    C20      C        0.76880    0.62690    0.43590    1.000
    C21      C        0.96830    0.55010    0.35940    1.000
    H9       H        0.92260    0.49600    0.35100    1.000
    C22      C        0.09430    0.54600    0.33580    1.000
    C23      C        0.15590    0.44610    0.31100    1.000
    C24      C        0.16380    0.62970    0.34540    1.000
    H10      H        0.24890    0.62790    0.32750    1.000
    Eu2      Eu       0.56682    0.66990    0.67425    1.000
    O13      O        0.52320    0.46880    0.69080    1.000
    O14      O        0.46260    0.31100    0.67970    1.000
    O15      O        0.56550    0.34410    0.44310    1.000
    O16      O        0.51740    0.16850    0.44900    1.000
    O17      O        0.50270    0.19980    0.22090    1.000
    O18      O        0.44500    0.37100    0.12840    1.000
    O19      O        0.85800    0.83430    0.68090    1.000
    O20      O        0.73450    0.82690    0.59510    1.000
    O21      O        0.73320    0.55770    0.70580    1.000
    O22      O        0.91730    0.63290    0.68710    1.000
    H11      H        0.87750    0.68470    0.70140    1.000
    O23      O        0.28340    0.45160    0.57700    1.000
    O24      O        0.28930    0.30820    0.51840    1.000
    C25      C        0.49090    0.35640    0.73550    1.000
    C26      C        0.49250    0.27350    0.85270    1.000
    C27      C        0.49610    0.14800    0.88160    1.000
    H12      H        0.49840    0.12100    0.82670    1.000
    C28      C        0.49650    0.06470    0.98720    1.000
    C29      C        0.49040    0.10870    0.06760    1.000
    H13      H        0.48780    0.05440    0.14090    1.000
    C30      C        0.48810    0.23220    0.04210    1.000
    C31      C        0.47930    0.27090    0.13450    1.000
    C32      C        0.48950    0.31500    0.93370    1.000
    H14      H        0.48850    0.39700    0.91590    1.000
    C33      C        0.57600    0.23120    0.47190    1.000
    C34      C        0.66440    0.17810    0.52920    1.000
    C35      C        0.68200    0.05820    0.55710    1.000
    H15      H        0.63530    0.00900    0.54450    1.000
    C36      C        0.76920    0.01130    0.60380    1.000
    C37      C        0.78870    0.88100    0.62880    1.000
    C38      C        0.83810    0.08340    0.62340    1.000
    H16      H        0.89740    0.05150    0.65320    1.000
    C39      C        0.82030    0.20250    0.59940    1.000
    C40      C        0.73430    0.25000    0.54990    1.000
    H17      H        0.72360    0.33090    0.53050    1.000
    C41      C        0.89400    0.28330    0.61820    1.000
    C42      C        0.02230    0.28200    0.59330    1.000
    H18      H        0.06250    0.22530    0.56920    1.000
    C43      C        0.08960    0.36440    0.60410    1.000
    C44      C        0.23120    0.37310    0.56410    1.000
    C45      C        0.03170    0.44990    0.64060    1.000
    H19      H        0.07740    0.50400    0.64900    1.000
    C46      C        0.90570    0.45400    0.66420    1.000
    C47      C        0.84410    0.55390    0.68900    1.000
    C48      C        0.83620    0.37030    0.65460    1.000
    H20      H        0.75110    0.37210    0.67250    1.000
    Eu3      Eu       0.50000    0.50000    0.50000    1.000
