# CIF file generated by openbabel 3.1.0, see https://openbabel.org
data_I
_chemical_name_common 'AGESIP_clean'
_cell_length_a 5.6437
_cell_length_b 9.1507
_cell_length_c 12.8357
_cell_angle_alpha 90
_cell_angle_beta 90
_cell_angle_gamma 95.892
_space_group_name_H-M_alt 'P 1'
_space_group_name_Hall 'P 1'
loop_
    _symmetry_equiv_pos_as_xyz
    x,y,z
loop_
    _atom_site_label
    _atom_site_type_symbol
    _atom_site_fract_x
    _atom_site_fract_y
    _atom_site_fract_z
    _atom_site_occupancy
    Cu1      Cu       0.01236    0.53936    0.11172    1.000
    Cu2      Cu       0.98764    0.96064    0.61172    1.000
    Cu3      Cu       0.98764    0.46064    0.88828    1.000
    Cu4      Cu       0.01236    0.03936    0.38828    1.000
    Cu5      Cu       0.50000    0.00000    0.50000    1.000
    Cu6      Cu       0.50000    0.50000    0.00000    1.000
    H1       H        0.77700    0.83900    0.46700    1.000
    H2       H        0.22300    0.66100    0.96700    1.000
    H3       H        0.22300    0.16100    0.53300    1.000
    H4       H        0.77700    0.33900    0.03300    1.000
    C1       C        0.36670    0.75860    0.21143    1.000
    C2       C        0.46000    0.86050    0.29159    1.000
    C3       C        0.69390    0.87480    0.24292    1.000
    C4       C        0.60510    0.76740    0.16248    1.000
    C5       C        0.63330    0.74140    0.71143    1.000
    C6       C        0.54000    0.63950    0.79159    1.000
    C7       C        0.30610    0.62520    0.74292    1.000
    C8       C        0.39490    0.73260    0.66248    1.000
    C9       C        0.63330    0.24140    0.78857    1.000
    C10      C        0.54000    0.13950    0.70841    1.000
    C11      C        0.30610    0.12520    0.75708    1.000
    C12      C        0.39490    0.23260    0.83752    1.000
    C13      C        0.36670    0.25860    0.28857    1.000
    C14      C        0.46000    0.36050    0.20841    1.000
    C15      C        0.69390    0.37480    0.25708    1.000
    C16      C        0.60510    0.26740    0.33752    1.000
    O1       O        0.16350    0.69460    0.19792    1.000
    O2       O        0.36200    0.90940    0.37197    1.000
    O3       O        0.89160    0.94790    0.25912    1.000
    O4       O        0.69520    0.70690    0.08709    1.000
    O5       O        0.80590    0.91582    0.48290    1.000
    O6       O        0.83650    0.80540    0.69792    1.000
    O7       O        0.63800    0.59060    0.87197    1.000
    O8       O        0.10840    0.55210    0.75912    1.000
    O9       O        0.30480    0.79310    0.58709    1.000
    O10      O        0.19410    0.58418    0.98290    1.000
    O11      O        0.83650    0.30540    0.80208    1.000
    O12      O        0.63800    0.09060    0.62803    1.000
    O13      O        0.10840    0.05210    0.74088    1.000
    O14      O        0.30480    0.29310    0.91291    1.000
    O15      O        0.19410    0.08418    0.51710    1.000
    O16      O        0.16350    0.19460    0.30208    1.000
    O17      O        0.36200    0.40940    0.12803    1.000
    O18      O        0.89160    0.44790    0.24088    1.000
    O19      O        0.69520    0.20690    0.41291    1.000
    O20      O        0.80590    0.41582    0.01710    1.000
