# CIF file generated by openbabel 3.1.0, see https://openbabel.org
data_I
_chemical_name_common 'BUYNAL_charged'
_cell_length_a 14.0756
_cell_length_b 14.0756
_cell_length_c 14.0756
_cell_angle_alpha 108.347
_cell_angle_beta 108.347
_cell_angle_gamma 108.347
_space_group_name_H-M_alt 'P 1'
_space_group_name_Hall 'P 1'
loop_
    _symmetry_equiv_pos_as_xyz
    x,y,z
loop_
    _atom_site_label
    _atom_site_type_symbol
    _atom_site_fract_x
    _atom_site_fract_y
    _atom_site_fract_z
    _atom_site_occupancy
    Zn1      Zn       0.00000    0.00000    0.00000    1.000
    H1       H        0.26800    0.10640    0.20070    1.000
    H2       H        0.32670    0.05420    0.34990    1.000
    H3       H        0.99510    0.88640    0.17280    1.000
    H4       H        0.20130    0.94110    0.43360    1.000
    H5       H        0.07250    0.86440    0.34960    1.000
    H6       H        0.16660    0.75290    0.36190    1.000
    H7       H        0.24370    0.81450    0.31800    1.000
    H8       H        0.21620    0.62810    0.26820    1.000
    H9       H        0.21090    0.46250    0.15950    1.000
    H10      H        0.92130    0.64870    0.02470    1.000
    H11      H        0.20070    0.26800    0.10640    1.000
    H12      H        0.34990    0.32670    0.05420    1.000
    H13      H        0.17280    0.99510    0.88640    1.000
    H14      H        0.43360    0.20130    0.94110    1.000
    H15      H        0.34960    0.07250    0.86440    1.000
    H16      H        0.36190    0.16660    0.75290    1.000
    H17      H        0.31800    0.24370    0.81450    1.000
    H18      H        0.26820    0.21620    0.62810    1.000
    H19      H        0.15950    0.21090    0.46250    1.000
    H20      H        0.02470    0.92130    0.64870    1.000
    H21      H        0.10640    0.20070    0.26800    1.000
    H22      H        0.05420    0.34990    0.32670    1.000
    H23      H        0.88640    0.17280    0.99510    1.000
    H24      H        0.94110    0.43360    0.20130    1.000
    H25      H        0.86440    0.34960    0.07250    1.000
    H26      H        0.75290    0.36190    0.16660    1.000
    H27      H        0.81450    0.31800    0.24370    1.000
    H28      H        0.62810    0.26820    0.21620    1.000
    H29      H        0.46250    0.15950    0.21090    1.000
    H30      H        0.64870    0.02470    0.92130    1.000
    H31      H        0.73200    0.89360    0.79930    1.000
    H32      H        0.67330    0.94580    0.65010    1.000
    H33      H        0.00490    0.11360    0.82720    1.000
    H34      H        0.79870    0.05890    0.56640    1.000
    H35      H        0.92750    0.13560    0.65040    1.000
    H36      H        0.83340    0.24710    0.63810    1.000
    H37      H        0.75630    0.18550    0.68200    1.000
    H38      H        0.78380    0.37190    0.73180    1.000
    H39      H        0.78910    0.53750    0.84050    1.000
    H40      H        0.07870    0.35130    0.97530    1.000
    H41      H        0.79930    0.73200    0.89360    1.000
    H42      H        0.65010    0.67330    0.94580    1.000
    H43      H        0.82720    0.00490    0.11360    1.000
    H44      H        0.56640    0.79870    0.05890    1.000
    H45      H        0.65040    0.92750    0.13560    1.000
    H46      H        0.63810    0.83340    0.24710    1.000
    H47      H        0.68200    0.75630    0.18550    1.000
    H48      H        0.73180    0.78380    0.37190    1.000
    H49      H        0.84050    0.78910    0.53750    1.000
    H50      H        0.97530    0.07870    0.35130    1.000
    H51      H        0.89360    0.79930    0.73200    1.000
    H52      H        0.94580    0.65010    0.67330    1.000
    H53      H        0.11360    0.82720    0.00490    1.000
    H54      H        0.05890    0.56640    0.79870    1.000
    H55      H        0.13560    0.65040    0.92750    1.000
    H56      H        0.24710    0.63810    0.83340    1.000
    H57      H        0.18550    0.68200    0.75630    1.000
    H58      H        0.37190    0.73180    0.78380    1.000
    H59      H        0.53750    0.84050    0.78910    1.000
    H60      H        0.35130    0.97530    0.07870    1.000
    C1       C        0.22002    0.05550    0.21408    1.000
    C2       C        0.25315    0.02745    0.29660    1.000
    C3       C        0.07009    0.93538    0.19823    1.000
    C4       C        0.14745    0.89015    0.35510    1.000
    C5       C        0.16980    0.79032    0.31498    1.000
    C6       C        0.08669    0.61853    0.14598    1.000
    C7       C        0.16246    0.58453    0.19301    1.000
    C8       C        0.15837    0.48433    0.12750    1.000
    C9       C        0.00154    0.55145    0.03211    1.000
    C10      C        0.92081    0.58247    0.98252    1.000
    C11      C        0.21408    0.22002    0.05550    1.000
    C12      C        0.29660    0.25315    0.02745    1.000
    C13      C        0.19823    0.07009    0.93538    1.000
    C14      C        0.35510    0.14745    0.89015    1.000
    C15      C        0.31498    0.16980    0.79032    1.000
    C16      C        0.14598    0.08669    0.61853    1.000
    C17      C        0.19301    0.16246    0.58453    1.000
    C18      C        0.12750    0.15837    0.48433    1.000
    C19      C        0.03211    0.00154    0.55145    1.000
    C20      C        0.98252    0.92081    0.58247    1.000
    C21      C        0.05550    0.21408    0.22002    1.000
    C22      C        0.02745    0.29660    0.25315    1.000
    C23      C        0.93538    0.19823    0.07009    1.000
    C24      C        0.89015    0.35510    0.14745    1.000
    C25      C        0.79032    0.31498    0.16980    1.000
    C26      C        0.61853    0.14598    0.08669    1.000
    C27      C        0.58453    0.19301    0.16246    1.000
    C28      C        0.48433    0.12750    0.15837    1.000
    C29      C        0.55145    0.03211    0.00154    1.000
    C30      C        0.58247    0.98252    0.92081    1.000
    C31      C        0.77998    0.94450    0.78592    1.000
    C32      C        0.74685    0.97255    0.70340    1.000
    C33      C        0.92991    0.06462    0.80177    1.000
    C34      C        0.85255    0.10985    0.64490    1.000
    C35      C        0.83020    0.20968    0.68502    1.000
    C36      C        0.91331    0.38147    0.85402    1.000
    C37      C        0.83754    0.41547    0.80699    1.000
    C38      C        0.84163    0.51567    0.87250    1.000
    C39      C        0.99846    0.44855    0.96789    1.000
    C40      C        0.07919    0.41753    0.01748    1.000
    C41      C        0.78592    0.77998    0.94450    1.000
    C42      C        0.70340    0.74685    0.97255    1.000
    C43      C        0.80177    0.92991    0.06462    1.000
    C44      C        0.64490    0.85255    0.10985    1.000
    C45      C        0.68502    0.83020    0.20968    1.000
    C46      C        0.85402    0.91331    0.38147    1.000
    C47      C        0.80699    0.83754    0.41547    1.000
    C48      C        0.87250    0.84163    0.51567    1.000
    C49      C        0.96789    0.99846    0.44855    1.000
    C50      C        0.01748    0.07919    0.41753    1.000
    C51      C        0.94450    0.78592    0.77998    1.000
    C52      C        0.97255    0.70340    0.74685    1.000
    C53      C        0.06462    0.80177    0.92991    1.000
    C54      C        0.10985    0.64490    0.85255    1.000
    C55      C        0.20968    0.68502    0.83020    1.000
    C56      C        0.38147    0.85402    0.91331    1.000
    C57      C        0.41547    0.80699    0.83754    1.000
    C58      C        0.51567    0.87250    0.84163    1.000
    C59      C        0.44855    0.96789    0.99846    1.000
    C60      C        0.41753    0.01748    0.07919    1.000
    N1       N        0.10410    0.99773    0.15161    1.000
    N2       N        0.15683    0.95121    0.28676    1.000
    N3       N        0.15161    0.10410    0.99773    1.000
    N4       N        0.28676    0.15683    0.95121    1.000
    N5       N        0.99773    0.15161    0.10410    1.000
    N6       N        0.95121    0.28676    0.15683    1.000
    N7       N        0.89590    0.00227    0.84839    1.000
    N8       N        0.84317    0.04879    0.71324    1.000
    N9       N        0.84839    0.89590    0.00227    1.000
    N10      N        0.71324    0.84317    0.04879    1.000
    N11      N        0.00227    0.84839    0.89590    1.000
    N12      N        0.04879    0.71324    0.84317    1.000
    O1       O        0.08445    0.71632    0.20205    1.000
    O2       O        0.20205    0.08445    0.71632    1.000
    O3       O        0.71632    0.20205    0.08445    1.000
    O4       O        0.91555    0.28368    0.79795    1.000
    O5       O        0.79795    0.91555    0.28368    1.000
    O6       O        0.28368    0.79795    0.91555    1.000
    N13      N        0.38230    0.38230    0.38230    1.000
    O7       O        0.44340    0.35310    0.34470    1.000
    O8       O        0.34470    0.44340    0.35310    1.000
    O9       O        0.35310    0.34470    0.44340    1.000
    N14      N        0.61770    0.61770    0.61770    1.000
    O10      O        0.55660    0.64690    0.65530    1.000
    O11      O        0.65530    0.55660    0.64690    1.000
    O12      O        0.64690    0.65530    0.55660    1.000
