data_functionalizedCrystal
_audit_creation_method	'EQeq! by Chris Wilmer'
_symmetry_space_group_name_H-M	'P1'
_symmetry_Int_Tables_number	1
_symmetry_cell_setting	triclinic
loop_
_symmetry_equiv_pos_as_xyz
  x,y,z
_cell_length_a	14.6524
_cell_length_b	15.5911
_cell_length_c	15.5911
_cell_angle_alpha	106.104
_cell_angle_beta	94.5845
_cell_angle_gamma	85.4155
loop_
_atom_site_label
_atom_site_type_symbol
_atom_site_fract_x
_atom_site_fract_y
_atom_site_fract_z
_atom_site_charge
Mof_Cu	Cu	0.02188	0.24817	0.64443	0.907
Mof_Cu	Cu	0.47812	0.64443	0.24817	0.907
Mof_Cu	Cu	0.97812	0.75183	0.35557	0.907
Mof_Cu	Cu	0.52188	0.35557	0.75183	0.907
Mof_Cu	Cu	0.75	0.14103	0.14103	0.907
Mof_Cu	Cu	0.25	0.85897	0.85897	0.907
Mof_H 	H 	0.1895	0.4929	0.5589	0.058
Mof_H 	H 	0.0319	0.31	0.2732	0.077
Mof_H 	H 	0.9334	0.2263	0.1653	0.012
Mof_H 	H 	0.7806	0.1936	0.348	0.029
Mof_H 	H 	0.8735	0.2779	0.4617	0.088
Mof_H 	H 	0.0602	0.0357	0.3545	0.055
Mof_H 	H 	0.2366	0.1963	0.6951	0.093
Mof_H 	H 	0.3626	0.2639	0.7743	0.017
Mof_H 	H 	0.4471	0.3089	0.5587	0.005
Mof_H 	H 	0.3218	0.2437	0.4735	0.078
Mof_H 	H 	0.6198	0.8482	0.011	0.058
Mof_H 	H 	0.5813	0.03	0.782	0.08
Mof_H 	H 	0.5534	0.1432	0.7116	0.018
Mof_H 	H 	0.5669	0.3269	0.9411	0.026
Mof_H 	H 	0.5979	0.2199	0.0187	0.078
Mof_H 	H 	0.3105	0.5589	0.4929	0.057
Mof_H 	H 	0.4681	0.2732	0.31	0.077
Mof_H 	H 	0.5666	0.1653	0.2263	0.01
Mof_H 	H 	0.7194	0.348	0.1936	0.028
Mof_H 	H 	0.6265	0.4617	0.2779	0.088
Mof_H 	H 	0.4398	0.3545	0.0357	0.056
Mof_H 	H 	0.2634	0.6951	0.1963	0.093
Mof_H 	H 	0.1374	0.7743	0.2639	0.017
Mof_H 	H 	0.0529	0.5587	0.3089	0.005
Mof_H 	H 	0.1782	0.4735	0.2437	0.078
Mof_H 	H 	0.8802	0.011	0.8482	0.057
Mof_H 	H 	0.9187	0.782	0.03	0.08
Mof_H 	H 	0.9466	0.7116	0.1432	0.017
Mof_H 	H 	0.9331	0.9411	0.3269	0.025
Mof_H 	H 	0.9021	0.0187	0.2199	0.082
Mof_H 	H 	0.8105	0.5071	0.4411	0.057
Mof_H 	H 	0.9681	0.69	0.7268	0.076
Mof_H 	H 	0.0666	0.7737	0.8347	0.011
Mof_H 	H 	0.2194	0.8064	0.652	0.028
Mof_H 	H 	0.1265	0.7221	0.5383	0.088
Mof_H 	H 	0.9398	0.9643	0.6455	0.055
Mof_H 	H 	0.7634	0.8037	0.3049	0.093
Mof_H 	H 	0.6374	0.7361	0.2257	0.017
Mof_H 	H 	0.5529	0.6911	0.4413	0.005
Mof_H 	H 	0.6782	0.7563	0.5265	0.078
Mof_H 	H 	0.3802	0.1518	0.989	0.058
Mof_H 	H 	0.4187	0.97	0.218	0.08
Mof_H 	H 	0.4466	0.8568	0.2884	0.018
Mof_H 	H 	0.4331	0.6731	0.0589	0.026
Mof_H 	H 	0.4021	0.7801	0.9813	0.078
Mof_H 	H 	0.6895	0.4411	0.5071	0.057
Mof_H 	H 	0.5319	0.7268	0.69	0.077
Mof_H 	H 	0.4334	0.8347	0.7737	0.01
Mof_H 	H 	0.2806	0.652	0.8064	0.028
Mof_H 	H 	0.3735	0.5383	0.7221	0.088
Mof_H 	H 	0.5602	0.6455	0.9643	0.056
Mof_H 	H 	0.7366	0.3049	0.8037	0.093
Mof_H 	H 	0.8626	0.2257	0.7361	0.017
Mof_H 	H 	0.9471	0.4413	0.6911	0.005
Mof_H 	H 	0.8218	0.5265	0.7563	0.078
Mof_H 	H 	0.1198	0.989	0.1518	0.057
Mof_H 	H 	0.0813	0.218	0.97	0.08
Mof_H 	H 	0.0534	0.2884	0.8568	0.017
Mof_H 	H 	0.0669	0.0589	0.6731	0.025
Mof_H 	H 	0.0979	0.9813	0.7801	0.082
Mof_C 	C 	0.1366	0.40007	0.67293	0.313
Mof_C 	C 	0.1067	0.40132	0.57888	-0.033
Mof_C 	C 	0.1441	0.45128	0.53412	-0.038
Mof_C 	C 	0.0285	0.35403	0.44977	0.035
Mof_C 	C 	0.9651	0.3032	0.38	0.064
Mof_C 	C 	0.9806	0.28683	0.29057	-0.122
Mof_C 	C 	0.9214	0.2367	0.2265	0.074
Mof_C 	C 	0.8325	0.21797	0.33283	0.077
Mof_C 	C 	0.8877	0.26771	0.40109	-0.121
Mof_C 	C 	0.9516	0.11078	0.50402	0.295
Mof_C 	C 	0.0482	0.11496	0.4825	-0.028
Mof_C 	C 	0.0894	0.07387	0.40593	-0.031
Mof_C 	C 	0.1875	0.16585	0.52171	0.036
Mof_C 	C 	0.2653	0.21158	0.57528	0.069
Mof_C 	C 	0.2792	0.21919	0.66545	-0.124
Mof_C 	C 	0.3542	0.25958	0.71226	0.097
Mof_C 	C 	0.4031	0.28593	0.58667	0.084
Mof_C 	C 	0.3292	0.24672	0.53528	-0.128
Mof_C 	C 	0.6871	0.98344	0.15976	0.288
Mof_C 	C 	0.6509	0.97877	0.06563	-0.032
Mof_C 	C 	0.621	0.90618	0.00262	-0.041
Mof_C 	C 	0.6126	0.04319	0.95621	0.033
Mof_C 	C 	0.5937	0.1125	0.9087	0.064
Mof_C 	C 	0.5794	0.09077	0.81643	-0.117
Mof_C 	C 	0.5622	0.15898	0.77502	0.081
Mof_C 	C 	0.5704	0.26567	0.90829	0.072
Mof_C 	C 	0.5888	0.20222	0.95538	-0.112
Mof_C 	C 	0.3634	0.67293	0.40007	0.313
Mof_C 	C 	0.3933	0.57888	0.40132	-0.033
Mof_C 	C 	0.3559	0.53412	0.45128	-0.038
Mof_C 	C 	0.4715	0.44977	0.35403	0.036
Mof_C 	C 	0.5349	0.38	0.3032	0.063
Mof_C 	C 	0.5194	0.29057	0.28683	-0.124
Mof_C 	C 	0.5786	0.2265	0.2367	0.075
Mof_C 	C 	0.6675	0.33283	0.21797	0.077
Mof_C 	C 	0.6123	0.40109	0.26771	-0.121
Mof_C 	C 	0.5484	0.50402	0.11078	0.293
Mof_C 	C 	0.4518	0.4825	0.11496	-0.026
Mof_C 	C 	0.4106	0.40593	0.07387	-0.032
Mof_C 	C 	0.3125	0.52171	0.16585	0.036
Mof_C 	C 	0.2347	0.57528	0.21158	0.069
Mof_C 	C 	0.2208	0.66545	0.21919	-0.124
Mof_C 	C 	0.1458	0.71226	0.25958	0.097
Mof_C 	C 	0.0969	0.58667	0.28593	0.085
Mof_C 	C 	0.1708	0.53528	0.24672	-0.128
Mof_C 	C 	0.8129	0.15976	0.98344	0.29
Mof_C 	C 	0.8491	0.06563	0.97877	-0.032
Mof_C 	C 	0.879	0.00262	0.90618	-0.038
Mof_C 	C 	0.8874	0.95621	0.04319	0.03
Mof_C 	C 	0.9063	0.9087	0.1125	0.067
Mof_C 	C 	0.9206	0.81643	0.09077	-0.119
Mof_C 	C 	0.9378	0.77502	0.15898	0.082
Mof_C 	C 	0.9296	0.90829	0.26567	0.074
Mof_C 	C 	0.9112	0.95538	0.20222	-0.118
Mof_C 	C 	0.8634	0.59993	0.32707	0.313
Mof_C 	C 	0.8933	0.59868	0.42112	-0.033
Mof_C 	C 	0.8559	0.54872	0.46588	-0.038
Mof_C 	C 	0.9715	0.64597	0.55023	0.035
Mof_C 	C 	0.0349	0.6968	0.62	0.064
Mof_C 	C 	0.0194	0.71317	0.70943	-0.122
Mof_C 	C 	0.0786	0.7633	0.7735	0.074
Mof_C 	C 	0.1675	0.78203	0.66717	0.077
Mof_C 	C 	0.1123	0.73229	0.59891	-0.121
Mof_C 	C 	0.0484	0.88922	0.49598	0.295
Mof_C 	C 	0.9518	0.88504	0.5175	-0.028
Mof_C 	C 	0.9106	0.92613	0.59407	-0.031
Mof_C 	C 	0.8125	0.83415	0.47829	0.036
Mof_C 	C 	0.7347	0.78842	0.42472	0.069
Mof_C 	C 	0.7208	0.78081	0.33455	-0.124
Mof_C 	C 	0.6458	0.74042	0.28774	0.097
Mof_C 	C 	0.5969	0.71407	0.41333	0.084
Mof_C 	C 	0.6708	0.75328	0.46472	-0.128
Mof_C 	C 	0.3129	0.01656	0.84024	0.288
Mof_C 	C 	0.3491	0.02123	0.93437	-0.032
Mof_C 	C 	0.379	0.09382	0.99738	-0.041
Mof_C 	C 	0.3874	0.95681	0.04379	0.033
Mof_C 	C 	0.4063	0.8875	0.0913	0.064
Mof_C 	C 	0.4206	0.90923	0.18357	-0.117
Mof_C 	C 	0.4378	0.84102	0.22498	0.081
Mof_C 	C 	0.4296	0.73433	0.09171	0.072
Mof_C 	C 	0.4112	0.79778	0.04462	-0.112
Mof_C 	C 	0.6366	0.32707	0.59993	0.313
Mof_C 	C 	0.6067	0.42112	0.59868	-0.033
Mof_C 	C 	0.6441	0.46588	0.54872	-0.038
Mof_C 	C 	0.5285	0.55023	0.64597	0.036
Mof_C 	C 	0.4651	0.62	0.6968	0.063
Mof_C 	C 	0.4806	0.70943	0.71317	-0.124
Mof_C 	C 	0.4214	0.7735	0.7633	0.075
Mof_C 	C 	0.3325	0.66717	0.78203	0.077
Mof_C 	C 	0.3877	0.59891	0.73229	-0.121
Mof_C 	C 	0.4516	0.49598	0.88922	0.293
Mof_C 	C 	0.5482	0.5175	0.88504	-0.026
Mof_C 	C 	0.5894	0.59407	0.92613	-0.032
Mof_C 	C 	0.6875	0.47829	0.83415	0.036
Mof_C 	C 	0.7653	0.42472	0.78842	0.069
Mof_C 	C 	0.7792	0.33455	0.78081	-0.124
Mof_C 	C 	0.8542	0.28774	0.74042	0.097
Mof_C 	C 	0.9031	0.41333	0.71407	0.085
Mof_C 	C 	0.8292	0.46472	0.75328	-0.128
Mof_C 	C 	0.1871	0.84024	0.01656	0.29
Mof_C 	C 	0.1509	0.93437	0.02123	-0.032
Mof_C 	C 	0.121	0.99738	0.09382	-0.038
Mof_C 	C 	0.1126	0.04379	0.95681	0.03
Mof_C 	C 	0.0937	0.0913	0.8875	0.067
Mof_C 	C 	0.0794	0.18357	0.90923	-0.119
Mof_C 	C 	0.0622	0.22498	0.84102	0.082
Mof_C 	C 	0.0704	0.09171	0.73433	0.074
Mof_C 	C 	0.0888	0.04462	0.79778	-0.118
Mof_S 	S 	0.09842	0.42912	0.42726	-0.007
Mof_S 	S 	0.20063	0.10003	0.41435	0.009
Mof_S 	S 	0.58597	0.93384	0.90652	-0.001
Mof_S 	S 	0.40158	0.42726	0.42912	-0.007
Mof_S 	S 	0.29937	0.41435	0.10003	0.01
Mof_S 	S 	0.91403	0.90652	0.93384	-0.002
Mof_S 	S 	0.90158	0.57088	0.57274	-0.007
Mof_S 	S 	0.79937	0.89997	0.58565	0.009
Mof_S 	S 	0.41403	0.06616	0.09348	-0.001
Mof_S 	S 	0.59842	0.57274	0.57088	-0.007
Mof_S 	S 	0.70063	0.58565	0.89997	0.01
Mof_S 	S 	0.08597	0.09348	0.06616	-0.002
Mof_N 	N 	0.0395	0.34731	0.53091	-0.14
Mof_N 	N 	0.848	0.20206	0.24608	-0.202
Mof_N 	N 	0.1039	0.16749	0.54851	-0.185
Mof_N 	N 	0.4161	0.29315	0.67469	-0.215
Mof_N 	N 	0.646	0.0563	0.03926	-0.161
Mof_N 	N 	0.55727	0.24552	0.81936	-0.19
Mof_N 	N 	0.4605	0.53091	0.34731	-0.14
Mof_N 	N 	0.652	0.24608	0.20206	-0.202
Mof_N 	N 	0.3961	0.54851	0.16749	-0.185
Mof_N 	N 	0.0839	0.67469	0.29315	-0.215
Mof_N 	N 	0.854	0.03926	0.0563	-0.16
Mof_N 	N 	0.94273	0.81936	0.24552	-0.191
Mof_N 	N 	0.9605	0.65269	0.46909	-0.14
Mof_N 	N 	0.152	0.79794	0.75392	-0.202
Mof_N 	N 	0.8961	0.83251	0.45149	-0.185
Mof_N 	N 	0.5839	0.70685	0.32531	-0.215
Mof_N 	N 	0.354	0.9437	0.96074	-0.161
Mof_N 	N 	0.44273	0.75448	0.18064	-0.19
Mof_N 	N 	0.5395	0.46909	0.65269	-0.14
Mof_N 	N 	0.348	0.75392	0.79794	-0.202
Mof_N 	N 	0.6039	0.45149	0.83251	-0.185
Mof_N 	N 	0.9161	0.32531	0.70685	-0.215
Mof_N 	N 	0.146	0.96074	0.9437	-0.16
Mof_N 	N 	0.05727	0.18064	0.75448	-0.191
Mof_O 	O 	0.1061	0.34169	0.70329	-0.374
Mof_O 	O 	0.19096	0.45543	0.71443	-0.234
Mof_O 	O 	0.93042	0.16337	0.57939	-0.356
Mof_O 	O 	0.89991	0.06026	0.45098	-0.23
Mof_O 	O 	0.7183	0.05801	0.20449	-0.367
Mof_O 	O 	0.68473	0.91757	0.18927	-0.231
Mof_O 	O 	0.3939	0.70329	0.34169	-0.374
Mof_O 	O 	0.30904	0.71443	0.45543	-0.234
Mof_O 	O 	0.56958	0.57939	0.16337	-0.357
Mof_O 	O 	0.60009	0.45098	0.06026	-0.23
Mof_O 	O 	0.7817	0.20449	0.05801	-0.368
Mof_O 	O 	0.81527	0.18927	0.91757	-0.231
Mof_O 	O 	0.8939	0.65831	0.29671	-0.374
Mof_O 	O 	0.80904	0.54457	0.28557	-0.234
Mof_O 	O 	0.06958	0.83663	0.42061	-0.356
Mof_O 	O 	0.10009	0.93974	0.54902	-0.23
Mof_O 	O 	0.2817	0.94199	0.79551	-0.367
Mof_O 	O 	0.31527	0.08243	0.81073	-0.231
Mof_O 	O 	0.6061	0.29671	0.65831	-0.374
Mof_O 	O 	0.69096	0.28557	0.54457	-0.234
Mof_O 	O 	0.43042	0.42061	0.83663	-0.357
Mof_O 	O 	0.39991	0.54902	0.93974	-0.23
Mof_O 	O 	0.2183	0.79551	0.94199	-0.368
Mof_O 	O 	0.18473	0.81073	0.08243	-0.231
_end
