# CIF file generated by openbabel 3.1.0, see https://openbabel.org
data_I
_chemical_name_common 'image0'
_cell_length_a 12.3245
_cell_length_b 12.3245
_cell_length_c 5.961
_cell_angle_alpha 90
_cell_angle_beta 90
_cell_angle_gamma 90
_space_group_name_H-M_alt 'P 1'
_space_group_name_Hall 'P 1'
loop_
    _symmetry_equiv_pos_as_xyz
    x,y,z
loop_
    _atom_site_label
    _atom_site_type_symbol
    _atom_site_fract_x
    _atom_site_fract_y
    _atom_site_fract_z
    _atom_site_occupancy
    Cu1      Cu       0.65916    0.12645    0.45449    1.000
    Cu2      Cu       0.86395    0.02542    0.58787    1.000
    S1       S        0.86909    0.02343    0.20870    1.000
    N1       N        0.75450    0.05310    0.83270    1.000
    C1       C        0.75580    0.05600    0.05650    1.000
    N2       N        0.28240    0.25460    0.95770    1.000
    N3       N        0.65430    0.09390    0.76560    1.000
    N4       N        0.65910    0.09340    0.13850    1.000
    C2       C        0.59950    0.11500    0.95200    1.000
    C3       C        0.48910    0.16030    0.95560    1.000
    C4       C        0.42420    0.15300    0.77700    1.000
    H1       H        0.44810    0.11720    0.64870    1.000
    C5       C        0.31830    0.19990    0.78110    1.000
    H2       H        0.27330    0.19200    0.65690    1.000
    C6       C        0.34440    0.25880    0.13800    1.000
    H3       H        0.31770    0.29400    0.26480    1.000
    C7       C        0.42290    0.15550    0.13960    1.000
    H4       H        0.44480    0.11870    0.26800    1.000
    C8       C        0.44850    0.21330    0.76700    1.000
    C9       C        0.34680    0.25920    0.77300    1.000
    C10      C        0.32570    0.20470    0.13200    1.000
    C11      C        0.45030    0.21200    0.14900    1.000
    Cu3      Cu       0.86310    0.02400    0.33520    1.000
    H5       H        0.49020    0.21770    0.63760    1.000
    H6       H        0.32130    0.29480    0.64630    1.000
    H7       H        0.28470    0.20350    0.26270    1.000
    H8       H        0.49170    0.21560    0.27960    1.000
    S2       S        0.87080    0.02250    0.71600    1.000
    Cu4      Cu       0.34084    0.87355    0.45449    1.000
    Cu5      Cu       0.13605    0.97458    0.58787    1.000
    S3       S        0.13091    0.97657    0.20870    1.000
    N5       N        0.24550    0.94690    0.83270    1.000
    C12      C        0.24420    0.94400    0.05650    1.000
    N6       N        0.71760    0.74540    0.95770    1.000
    N7       N        0.34570    0.90610    0.76560    1.000
    N8       N        0.34090    0.90660    0.13850    1.000
    C13      C        0.40050    0.88500    0.95200    1.000
    C14      C        0.51090    0.83970    0.95560    1.000
    C15      C        0.57580    0.84700    0.77700    1.000
    H9       H        0.55190    0.88280    0.64870    1.000
    C16      C        0.68170    0.80010    0.78110    1.000
    H10      H        0.72670    0.80800    0.65690    1.000
    C17      C        0.65560    0.74120    0.13800    1.000
    H11      H        0.68230    0.70600    0.26480    1.000
    C18      C        0.57710    0.84450    0.13960    1.000
    H12      H        0.55520    0.88130    0.26800    1.000
    C19      C        0.55150    0.78670    0.76700    1.000
    C20      C        0.65320    0.74080    0.77300    1.000
    C21      C        0.67430    0.79530    0.13200    1.000
    C22      C        0.54970    0.78800    0.14900    1.000
    Cu6      Cu       0.13690    0.97600    0.33520    1.000
    H13      H        0.50980    0.78230    0.63760    1.000
    H14      H        0.67870    0.70520    0.64630    1.000
    H15      H        0.71530    0.79650    0.26270    1.000
    H16      H        0.50830    0.78440    0.27960    1.000
    S4       S        0.12920    0.97750    0.71600    1.000
    Cu7      Cu       0.87355    0.65916    0.95449    1.000
    Cu8      Cu       0.97458    0.86395    0.08787    1.000
    S5       S        0.97657    0.86909    0.70870    1.000
    N9       N        0.94690    0.75450    0.33270    1.000
    C23      C        0.94400    0.75580    0.55650    1.000
    N10      N        0.74540    0.28240    0.45770    1.000
    N11      N        0.90610    0.65430    0.26560    1.000
    N12      N        0.90660    0.65910    0.63850    1.000
    C24      C        0.88500    0.59950    0.45200    1.000
    C25      C        0.83970    0.48910    0.45560    1.000
    C26      C        0.84700    0.42420    0.27700    1.000
    H17      H        0.88280    0.44810    0.14870    1.000
    C27      C        0.80010    0.31830    0.28110    1.000
    H18      H        0.80800    0.27330    0.15690    1.000
    C28      C        0.74120    0.34440    0.63800    1.000
    H19      H        0.70600    0.31770    0.76480    1.000
    C29      C        0.84450    0.42290    0.63960    1.000
    H20      H        0.88130    0.44480    0.76800    1.000
    C30      C        0.78670    0.44850    0.26700    1.000
    C31      C        0.74080    0.34680    0.27300    1.000
    C32      C        0.79530    0.32570    0.63200    1.000
    C33      C        0.78800    0.45030    0.64900    1.000
    Cu9      Cu       0.97600    0.86310    0.83520    1.000
    H21      H        0.78230    0.49020    0.13760    1.000
    H22      H        0.70520    0.32130    0.14630    1.000
    H23      H        0.79650    0.28470    0.76270    1.000
    H24      H        0.78440    0.49170    0.77960    1.000
    S6       S        0.97750    0.87080    0.21600    1.000
    Cu10     Cu       0.12645    0.34084    0.95449    1.000
    Cu11     Cu       0.02542    0.13605    0.08787    1.000
    S7       S        0.02343    0.13091    0.70870    1.000
    N13      N        0.05310    0.24550    0.33270    1.000
    C34      C        0.05600    0.24420    0.55650    1.000
    N14      N        0.25460    0.71760    0.45770    1.000
    N15      N        0.09390    0.34570    0.26560    1.000
    N16      N        0.09340    0.34090    0.63850    1.000
    C35      C        0.11500    0.40050    0.45200    1.000
    C36      C        0.16030    0.51090    0.45560    1.000
    C37      C        0.15300    0.57580    0.27700    1.000
    H25      H        0.11720    0.55190    0.14870    1.000
    C38      C        0.19990    0.68170    0.28110    1.000
    H26      H        0.19200    0.72670    0.15690    1.000
    C39      C        0.25880    0.65560    0.63800    1.000
    H27      H        0.29400    0.68230    0.76480    1.000
    C40      C        0.15550    0.57710    0.63960    1.000
    H28      H        0.11870    0.55520    0.76800    1.000
    C41      C        0.21330    0.55150    0.26700    1.000
    C42      C        0.25920    0.65320    0.27300    1.000
    C43      C        0.20470    0.67430    0.63200    1.000
    C44      C        0.21200    0.54970    0.64900    1.000
    Cu12     Cu       0.02400    0.13690    0.83520    1.000
    H29      H        0.21770    0.50980    0.13760    1.000
    H30      H        0.29480    0.67870    0.14630    1.000
    H31      H        0.20350    0.71530    0.76270    1.000
    H32      H        0.21560    0.50830    0.77960    1.000
    S8       S        0.02250    0.12920    0.21600    1.000
