data_functionalizedCrystal
_audit_creation_method	'EQeq! by Chris Wilmer'
_symmetry_space_group_name_H-M	'P1'
_symmetry_Int_Tables_number	1
_symmetry_cell_setting	triclinic
loop_
_symmetry_equiv_pos_as_xyz
  x,y,z
_cell_length_a	10.39
_cell_length_b	12.295
_cell_length_c	12.497
_cell_angle_alpha	79.31
_cell_angle_beta	68.2
_cell_angle_gamma	69.58
loop_
_atom_site_label
_atom_site_type_symbol
_atom_site_fract_x
_atom_site_fract_y
_atom_site_fract_z
_atom_site_charge
Mof_Cd	Cd	0.40038	0.69632	0.02158	0.474
Mof_Cd	Cd	0.04869	0.52707	0.81438	0.476
Mof_S 	S 	0.7352	0.51493	0.00492	0.789
Mof_O 	O 	0.3835	0.8766	0.0645	-0.267
Mof_O 	O 	0.1907	0.8679	0.0407	-0.268
Mof_O 	O 	0.8266	0.5043	0.069	-0.363
Mof_O 	O 	0.6687	0.4221	0.0423	-0.357
Mof_O 	O 	0.8211	0.5085	0.8845	-0.351
Mof_O 	O 	0.6297	0.6289	0.0268	-0.344
Mof_O 	O 	0.0295	0.5785	0.6302	-0.268
Mof_O 	O 	0.247	0.5415	0.6381	-0.262
Mof_N 	N 	0.3173	0.6415	0.2167	-0.137
Mof_N 	N 	0.0492	0.2803	0.1426	-0.13
Mof_C 	C 	0.1595	0.5689	0.5841	0.284
Mof_C 	C 	0.2168	0.5938	0.4538	0.004
Mof_C 	C 	0.1221	0.6251	0.39	-0.088
Mof_H 	H 	0.0246	0.6293	0.4253	0.089
Mof_C 	C 	0.1788	0.6495	0.273	0.078
Mof_H 	H 	0.1155	0.6732	0.2307	0.028
Mof_C 	C 	0.4074	0.6106	0.2796	0.065
Mof_H 	H 	0.505	0.6052	0.2418	0.042
Mof_C 	C 	0.3611	0.5867	0.3968	-0.084
Mof_H 	H 	0.4261	0.566	0.4374	0.086
Mof_C 	C 	0.2585	0.922	0.0632	0.291
Mof_C 	C 	0.1834	0.0474	0.0896	-0.013
Mof_C 	C 	0.0457	0.1075	0.0825	-0.055
Mof_H 	H 	0.9956	0.0704	0.0611	0.076
Mof_C 	C 	0.2503	0.1086	0.1236	-0.074
Mof_H 	H 	0.3426	0.0718	0.1293	0.086
Mof_C 	C 	0.9843	0.2231	0.1076	0.042
Mof_H 	H 	0.8937	0.2633	0.1	0.046
Mof_C 	C 	0.1807	0.2233	0.1488	0.07
Mof_H 	H 	0.228	0.2624	0.1712	0.036
Mof_Cd	Cd	0.59962	0.30368	0.97842	0.473
Mof_Cd	Cd	0.95131	0.47293	0.18562	0.475
Mof_S 	S 	0.2648	0.48507	0.99508	0.789
Mof_O 	O 	0.6165	0.1234	0.9355	-0.267
Mof_O 	O 	0.8093	0.1321	0.9593	-0.268
Mof_O 	O 	0.1734	0.4957	0.931	-0.363
Mof_O 	O 	0.3313	0.5779	0.9577	-0.357
Mof_O 	O 	0.1789	0.4915	0.1155	-0.351
Mof_O 	O 	0.3703	0.3711	0.9732	-0.344
Mof_O 	O 	0.9705	0.4215	0.3698	-0.268
Mof_O 	O 	0.753	0.4585	0.3619	-0.262
Mof_N 	N 	0.6827	0.3585	0.7833	-0.137
Mof_N 	N 	0.9508	0.7197	0.8574	-0.13
Mof_C 	C 	0.8405	0.4311	0.4159	0.284
Mof_C 	C 	0.7832	0.4062	0.5462	0.004
Mof_C 	C 	0.8779	0.3749	0.61	-0.088
Mof_H 	H 	0.9754	0.3707	0.5747	0.089
Mof_C 	C 	0.8212	0.3505	0.727	0.078
Mof_H 	H 	0.8845	0.3268	0.7693	0.028
Mof_C 	C 	0.5926	0.3894	0.7204	0.065
Mof_H 	H 	0.495	0.3948	0.7582	0.042
Mof_C 	C 	0.6389	0.4133	0.6032	-0.084
Mof_H 	H 	0.5739	0.434	0.5626	0.086
Mof_C 	C 	0.7415	0.078	0.9368	0.291
Mof_C 	C 	0.8166	0.9526	0.9104	-0.013
Mof_C 	C 	0.9543	0.8925	0.9175	-0.055
Mof_H 	H 	0.0044	0.9296	0.9389	0.076
Mof_C 	C 	0.7497	0.8914	0.8764	-0.074
Mof_H 	H 	0.6574	0.9282	0.8707	0.086
Mof_C 	C 	0.0157	0.7769	0.8924	0.042
Mof_H 	H 	0.1063	0.7367	0.9	0.046
Mof_C 	C 	0.8193	0.7767	0.8512	0.07
Mof_H 	H 	0.772	0.7376	0.8288	0.036
_end
