# CIF file generated by openbabel 3.1.0, see https://openbabel.org
data_I
_chemical_name_common 'image0'
_cell_length_a 13.5416
_cell_length_b 13.5416
_cell_length_c 8.114
_cell_angle_alpha 90
_cell_angle_beta 90
_cell_angle_gamma 120
_space_group_name_H-M_alt 'P 1'
_space_group_name_Hall 'P 1'
loop_
    _symmetry_equiv_pos_as_xyz
    x,y,z
loop_
    _atom_site_label
    _atom_site_type_symbol
    _atom_site_fract_x
    _atom_site_fract_y
    _atom_site_fract_z
    _atom_site_occupancy
    Mn1      Mn       0.29530    0.33142    0.54425    1.000
    O1       O        0.22640    0.17630    0.40750    1.000
    C1       C        0.53090    0.32040    0.56070    1.000
    C2       C        0.35280    0.55380    0.77320    1.000
    O2       O        0.23790    0.05410    0.24430    1.000
    C3       C        0.26110    0.15400    0.28080    1.000
    N1       N        0.33970    0.20620    0.00050    1.000
    H1       H        0.40370    0.25410    0.94550    1.000
    H2       H        0.27920    0.19610    0.94110    1.000
    C4       C        0.33900    0.25230    0.16460    1.000
    H3       H        0.41650    0.28410    0.20810    1.000
    N2       N        0.36240    0.42340    0.30470    1.000
    H4       H        0.34620    0.48020    0.29790    1.000
    H5       H        0.43870    0.45500    0.30340    1.000
    C5       C        0.31460    0.34920    0.16050    1.000
    H6       H        0.34690    0.39360    0.06110    1.000
    H7       H        0.23280    0.31860    0.15750    1.000
    N3       N        0.45120    0.31850    0.61160    1.000
    N4       N        0.36260    0.49320    0.69020    1.000
    Mn2      Mn       0.66858    0.96388    0.54425    1.000
    O3       O        0.82370    0.05010    0.40750    1.000
    C6       C        0.67960    0.21050    0.56070    1.000
    C7       C        0.44620    0.79900    0.77320    1.000
    O4       O        0.94590    0.18380    0.24430    1.000
    C8       C        0.84600    0.10710    0.28080    1.000
    N5       N        0.79380    0.13350    0.00050    1.000
    H8       H        0.74590    0.14960    0.94550    1.000
    H9       H        0.80390    0.08310    0.94110    1.000
    C9       C        0.74770    0.08670    0.16460    1.000
    H10      H        0.71590    0.13240    0.20810    1.000
    N6       N        0.57660    0.93900    0.30470    1.000
    H11      H        0.51980    0.86600    0.29790    1.000
    H12      H        0.54500    0.98370    0.30340    1.000
    C10      C        0.65080    0.96540    0.16050    1.000
    H13      H        0.60640    0.95330    0.06110    1.000
    H14      H        0.68140    0.91420    0.15750    1.000
    N7       N        0.68150    0.13270    0.61160    1.000
    N8       N        0.50680    0.86940    0.69020    1.000
    Mn3      Mn       0.03612    0.70470    0.54425    1.000
    O5       O        0.94990    0.77360    0.40750    1.000
    C11      C        0.78950    0.46910    0.56070    1.000
    C12      C        0.20100    0.64720    0.77320    1.000
    O6       O        0.81620    0.76210    0.24430    1.000
    C13      C        0.89290    0.73890    0.28080    1.000
    N9       N        0.86650    0.66030    0.00050    1.000
    H15      H        0.85040    0.59630    0.94550    1.000
    H16      H        0.91690    0.72080    0.94110    1.000
    C14      C        0.91330    0.66100    0.16460    1.000
    H17      H        0.86760    0.58350    0.20810    1.000
    N10      N        0.06100    0.63760    0.30470    1.000
    H18      H        0.13400    0.65380    0.29790    1.000
    H19      H        0.01630    0.56130    0.30340    1.000
    C15      C        0.03460    0.68540    0.16050    1.000
    H20      H        0.04670    0.65310    0.06110    1.000
    H21      H        0.08580    0.76720    0.15750    1.000
    N11      N        0.86730    0.54880    0.61160    1.000
    N12      N        0.13060    0.63740    0.69020    1.000
    Mn4      Mn       0.70470    0.66858    0.04425    1.000
    O7       O        0.77360    0.82370    0.90750    1.000
    C16      C        0.46910    0.67960    0.06070    1.000
    C17      C        0.64720    0.44620    0.27320    1.000
    O8       O        0.76210    0.94590    0.74430    1.000
    C18      C        0.73890    0.84600    0.78080    1.000
    N13      N        0.66030    0.79380    0.50050    1.000
    H22      H        0.59630    0.74590    0.44550    1.000
    H23      H        0.72080    0.80390    0.44110    1.000
    C19      C        0.66100    0.74770    0.66460    1.000
    H24      H        0.58350    0.71590    0.70810    1.000
    N14      N        0.63760    0.57660    0.80470    1.000
    H25      H        0.65380    0.51980    0.79790    1.000
    H26      H        0.56130    0.54500    0.80340    1.000
    C20      C        0.68540    0.65080    0.66050    1.000
    H27      H        0.65310    0.60640    0.56110    1.000
    H28      H        0.76720    0.68140    0.65750    1.000
    N15      N        0.54880    0.68150    0.11160    1.000
    N16      N        0.63740    0.50680    0.19020    1.000
    Mn5      Mn       0.33142    0.03612    0.04425    1.000
    O9       O        0.17630    0.94990    0.90750    1.000
    C21      C        0.32040    0.78950    0.06070    1.000
    C22      C        0.55380    0.20100    0.27320    1.000
    O10      O        0.05410    0.81620    0.74430    1.000
    C23      C        0.15400    0.89290    0.78080    1.000
    N17      N        0.20620    0.86650    0.50050    1.000
    H29      H        0.25410    0.85040    0.44550    1.000
    H30      H        0.19610    0.91690    0.44110    1.000
    C24      C        0.25230    0.91330    0.66460    1.000
    H31      H        0.28410    0.86760    0.70810    1.000
    N18      N        0.42340    0.06100    0.80470    1.000
    H32      H        0.48020    0.13400    0.79790    1.000
    H33      H        0.45500    0.01630    0.80340    1.000
    C25      C        0.34920    0.03460    0.66050    1.000
    H34      H        0.39360    0.04670    0.56110    1.000
    H35      H        0.31860    0.08580    0.65750    1.000
    N19      N        0.31850    0.86730    0.11160    1.000
    N20      N        0.49320    0.13060    0.19020    1.000
    Mn6      Mn       0.96388    0.29530    0.04425    1.000
    O11      O        0.05010    0.22640    0.90750    1.000
    C26      C        0.21050    0.53090    0.06070    1.000
    C27      C        0.79900    0.35280    0.27320    1.000
    O12      O        0.18380    0.23790    0.74430    1.000
    C28      C        0.10710    0.26110    0.78080    1.000
    N21      N        0.13350    0.33970    0.50050    1.000
    H36      H        0.14960    0.40370    0.44550    1.000
    H37      H        0.08310    0.27920    0.44110    1.000
    C29      C        0.08670    0.33900    0.66460    1.000
    H38      H        0.13240    0.41650    0.70810    1.000
    N22      N        0.93900    0.36240    0.80470    1.000
    H39      H        0.86600    0.34620    0.79790    1.000
    H40      H        0.98370    0.43870    0.80340    1.000
    C30      C        0.96540    0.31460    0.66050    1.000
    H41      H        0.95330    0.34690    0.56110    1.000
    H42      H        0.91420    0.23280    0.65750    1.000
    N23      N        0.13270    0.45120    0.11160    1.000
    N24      N        0.86940    0.36260    0.19020    1.000
    Cr1      Cr       0.33333    0.66667    0.92350    1.000
    Cr2      Cr       0.66667    0.33333    0.42350    1.000
