data_functionalizedCrystal
_audit_creation_method	'EQeq! by Chris Wilmer'
_symmetry_space_group_name_H-M	'P1'
_symmetry_Int_Tables_number	1
_symmetry_cell_setting	triclinic
loop_
_symmetry_equiv_pos_as_xyz
  x,y,z
_cell_length_a	24.8319
_cell_length_b	33.532
_cell_length_c	18.7099
_cell_angle_alpha	90
_cell_angle_beta	90
_cell_angle_gamma	90
loop_
_atom_site_label
_atom_site_type_symbol
_atom_site_fract_x
_atom_site_fract_y
_atom_site_fract_z
_atom_site_charge
Mof_Cu	Cu	0.79021	0.73236	0.53475	0.908
Mof_O 	O 	0.82202	0.72896	0.4398	-0.398
Mof_O 	O 	0.75336	0.75792	0.3804	-0.402
Mof_O 	O 	0.958	0.5706	0.3707	-0.164
Mof_O 	O 	0.81847	0.78646	0.5453	-0.399
Mof_O 	O 	0.75082	0.81641	0.4862	-0.395
Mof_O 	O 	0.94509	0.86501	0.6776	-0.381
Mof_O 	O 	0.94378	0.93168	0.6764	-0.382
Mof_O 	O 	0.6114	0.9704	0.5157	-0.202
Mof_C 	C 	0.7984	0.74111	0.3838	0.354
Mof_C 	C 	0.8258	0.73223	0.3141	-0.086
Mof_C 	C 	0.8756	0.71164	0.3118	0.008
Mof_H 	H 	0.892	0.7052	0.355	0.056
Mof_C 	C 	0.9513	0.6424	0.3009	-0.025
Mof_H 	H 	0.9187	0.6327	0.318	0.072
Mof_C 	C 	0.7943	0.81635	0.5223	0.351
Mof_C 	C 	0.8165	0.85672	0.5412	-0.072
Mof_C 	C 	0.7909	0.8913	0.5186	-0.013
Mof_H 	H 	0.7611	0.8893	0.4886	0.06
Mof_C 	C 	0.8084	0.9285	0.5397	-0.013
Mof_C 	C 	0.8533	0.93011	0.583	-0.013
Mof_H 	H 	0.866	0.9549	0.5975	0.059
Mof_C 	C 	0.88	0.89637	0.6058	-0.071
Mof_C 	C 	0.8608	0.85943	0.584	0.022
Mof_H 	H 	0.8783	0.8363	0.5987	0.063
Mof_C 	C 	0.9268	0.89856	0.6568	0.352
Mof_C 	C 	0.7784	0.96498	0.5187	0.073
Mof_C 	C 	0.7221	0.96637	0.5194	-0.081
Mof_H 	H 	0.7027	0.944	0.5334	0.087
Mof_Cu	Cu	0.29021	0.23236	0.53475	0.908
Mof_O 	O 	0.32202	0.22896	0.4398	-0.401
Mof_O 	O 	0.25336	0.25792	0.3804	-0.404
Mof_O 	O 	0.458	0.0706	0.3707	-0.22
Mof_O 	O 	0.31847	0.28646	0.5453	-0.403
Mof_O 	O 	0.25082	0.31641	0.4862	-0.397
Mof_O 	O 	0.44509	0.36501	0.6776	-0.402
Mof_O 	O 	0.44378	0.43168	0.6764	-0.404
Mof_O 	O 	0.1114	0.4704	0.5157	-0.217
Mof_C 	C 	0.2984	0.24111	0.3838	0.353
Mof_C 	C 	0.3258	0.23223	0.3141	-0.083
Mof_C 	C 	0.3756	0.21164	0.3118	-0.006
Mof_H 	H 	0.392	0.2052	0.355	0.055
Mof_C 	C 	0.4513	0.1424	0.3009	-0.06
Mof_H 	H 	0.4187	0.1327	0.318	0.078
Mof_C 	C 	0.2943	0.31635	0.5223	0.353
Mof_C 	C 	0.3165	0.35672	0.5412	-0.079
Mof_C 	C 	0.2909	0.3913	0.5186	-0.011
Mof_H 	H 	0.2611	0.3893	0.4886	0.057
Mof_C 	C 	0.3084	0.4285	0.5397	-0.018
Mof_C 	C 	0.3533	0.43011	0.583	-0.009
Mof_H 	H 	0.366	0.4549	0.5975	0.053
Mof_C 	C 	0.38	0.39637	0.6058	-0.081
Mof_C 	C 	0.3608	0.35943	0.584	0.026
Mof_H 	H 	0.3783	0.3363	0.5987	0.057
Mof_C 	C 	0.4268	0.39856	0.6568	0.357
Mof_C 	C 	0.2784	0.46498	0.5187	0.066
Mof_C 	C 	0.2221	0.46637	0.5194	-0.086
Mof_H 	H 	0.2027	0.444	0.5334	0.086
Mof_Cu	Cu	0.20979	0.26764	0.03475	0.904
Mof_O 	O 	0.17798	0.27104	0.9398	-0.401
Mof_O 	O 	0.24664	0.24208	0.8804	-0.402
Mof_O 	O 	0.042	0.4294	0.8707	-0.209
Mof_O 	O 	0.18153	0.21354	0.0453	-0.405
Mof_O 	O 	0.24918	0.18359	0.9862	-0.387
Mof_O 	O 	0.05491	0.13499	0.1776	-0.414
Mof_O 	O 	0.05622	0.06832	0.1764	-0.416
Mof_O 	O 	0.3886	0.0296	0.0157	-0.207
Mof_C 	C 	0.2016	0.25889	0.8838	0.355
Mof_C 	C 	0.1742	0.26777	0.8141	-0.091
Mof_C 	C 	0.1244	0.28836	0.8118	0.008
Mof_H 	H 	0.108	0.2948	0.855	0.048
Mof_C 	C 	0.0487	0.3576	0.8009	-0.069
Mof_H 	H 	0.0813	0.3673	0.818	0.081
Mof_C 	C 	0.2057	0.18365	0.0223	0.34
Mof_C 	C 	0.1835	0.14328	0.0412	-0.072
Mof_C 	C 	0.2091	0.1087	0.0186	-0.031
Mof_H 	H 	0.2389	0.1107	0.9886	0.07
Mof_C 	C 	0.1916	0.0715	0.0397	-0.014
Mof_C 	C 	0.1467	0.06989	0.083	-0.012
Mof_H 	H 	0.134	0.0451	0.0975	0.049
Mof_C 	C 	0.12	0.10363	0.1058	-0.084
Mof_C 	C 	0.1392	0.14057	0.084	0.021
Mof_H 	H 	0.1217	0.1637	0.0987	0.054
Mof_C 	C 	0.0732	0.10144	0.1568	0.356
Mof_C 	C 	0.2216	0.03502	0.0187	0.067
Mof_C 	C 	0.2779	0.03363	0.0194	-0.087
Mof_H 	H 	0.2973	0.056	0.0334	0.086
Mof_Cu	Cu	0.70979	0.76764	0.03475	0.906
Mof_O 	O 	0.67798	0.77104	0.9398	-0.397
Mof_O 	O 	0.74664	0.74208	0.8804	-0.399
Mof_O 	O 	0.542	0.9294	0.8707	-0.217
Mof_O 	O 	0.68153	0.71354	0.0453	-0.401
Mof_O 	O 	0.74918	0.68359	0.9862	-0.384
Mof_O 	O 	0.55491	0.63499	0.1776	-0.402
Mof_O 	O 	0.55622	0.56832	0.1764	-0.404
Mof_O 	O 	0.8886	0.5296	0.0157	-0.197
Mof_C 	C 	0.7016	0.75889	0.8838	0.351
Mof_C 	C 	0.6742	0.76777	0.8141	-0.079
Mof_C 	C 	0.6244	0.78836	0.8118	-0.008
Mof_H 	H 	0.608	0.7948	0.855	0.057
Mof_C 	C 	0.5487	0.8576	0.8009	-0.06
Mof_H 	H 	0.5813	0.8673	0.818	0.079
Mof_C 	C 	0.7057	0.68365	0.0223	0.338
Mof_C 	C 	0.6835	0.64328	0.0412	-0.066
Mof_C 	C 	0.7091	0.6087	0.0186	-0.034
Mof_H 	H 	0.7389	0.6107	0.9886	0.074
Mof_C 	C 	0.6916	0.5715	0.0397	-0.009
Mof_C 	C 	0.6467	0.56989	0.083	-0.016
Mof_H 	H 	0.634	0.5451	0.0975	0.055
Mof_C 	C 	0.62	0.60363	0.1058	-0.075
Mof_C 	C 	0.6392	0.64057	0.084	0.017
Mof_H 	H 	0.6217	0.6637	0.0987	0.059
Mof_C 	C 	0.5732	0.60144	0.1568	0.355
Mof_C 	C 	0.7216	0.53502	0.0187	0.067
Mof_C 	C 	0.7779	0.53363	0.0194	-0.088
Mof_H 	H 	0.7973	0.556	0.0334	0.089
Mof_Cu	Cu	0.20979	0.73236	0.96525	0.909
Mof_O 	O 	0.17798	0.72896	0.0602	-0.409
Mof_O 	O 	0.24664	0.75792	0.1196	-0.404
Mof_O 	O 	0.042	0.5706	0.1293	-0.211
Mof_O 	O 	0.18153	0.78646	0.9547	-0.408
Mof_O 	O 	0.24918	0.81641	0.0138	-0.406
Mof_O 	O 	0.05491	0.86501	0.8224	-0.414
Mof_O 	O 	0.05622	0.93168	0.8236	-0.414
Mof_O 	O 	0.3886	0.9704	0.9843	-0.192
Mof_C 	C 	0.2016	0.74111	0.1162	0.356
Mof_C 	C 	0.1742	0.73223	0.1859	-0.093
Mof_C 	C 	0.1244	0.71164	0.1882	0.009
Mof_H 	H 	0.108	0.7052	0.145	0.046
Mof_C 	C 	0.0487	0.6424	0.1991	-0.07
Mof_H 	H 	0.0813	0.6327	0.182	0.08
Mof_C 	C 	0.2057	0.81635	0.9777	0.368
Mof_C 	C 	0.1835	0.85672	0.9588	-0.096
Mof_C 	C 	0.2091	0.8913	0.9814	0.018
Mof_H 	H 	0.2389	0.8893	0.0114	0.042
Mof_C 	C 	0.1916	0.9285	0.9603	-0.035
Mof_C 	C 	0.1467	0.93011	0.917	0.004
Mof_H 	H 	0.134	0.9549	0.9025	0.048
Mof_C 	C 	0.12	0.89637	0.8942	-0.094
Mof_C 	C 	0.1392	0.85943	0.916	0.039
Mof_H 	H 	0.1217	0.8363	0.9013	0.049
Mof_C 	C 	0.0732	0.89856	0.8432	0.36
Mof_C 	C 	0.2216	0.96498	0.9813	0.086
Mof_C 	C 	0.2779	0.96637	0.9806	-0.077
Mof_H 	H 	0.2973	0.944	0.9666	0.087
Mof_Cu	Cu	0.70979	0.23236	0.96525	0.91
Mof_O 	O 	0.67798	0.22896	0.0602	-0.405
Mof_O 	O 	0.74664	0.25792	0.1196	-0.401
Mof_O 	O 	0.542	0.0706	0.1293	-0.221
Mof_O 	O 	0.68153	0.28646	0.9547	-0.404
Mof_O 	O 	0.74918	0.31641	0.0138	-0.403
Mof_O 	O 	0.55491	0.36501	0.8224	-0.402
Mof_O 	O 	0.55622	0.43168	0.8236	-0.403
Mof_O 	O 	0.8886	0.4704	0.9843	-0.189
Mof_C 	C 	0.7016	0.24111	0.1162	0.352
Mof_C 	C 	0.6742	0.23223	0.1859	-0.081
Mof_C 	C 	0.6244	0.21164	0.1882	-0.007
Mof_H 	H 	0.608	0.2052	0.145	0.055
Mof_C 	C 	0.5487	0.1424	0.1991	-0.06
Mof_H 	H 	0.5813	0.1327	0.182	0.078
Mof_C 	C 	0.7057	0.31635	0.9777	0.366
Mof_C 	C 	0.6835	0.35672	0.9588	-0.09
Mof_C 	C 	0.7091	0.3913	0.9814	0.014
Mof_H 	H 	0.7389	0.3893	0.0114	0.045
Mof_C 	C 	0.6916	0.4285	0.9603	-0.03
Mof_C 	C 	0.6467	0.43011	0.917	0.001
Mof_H 	H 	0.634	0.4549	0.9025	0.051
Mof_C 	C 	0.62	0.39637	0.8942	-0.087
Mof_C 	C 	0.6392	0.35943	0.916	0.036
Mof_H 	H 	0.6217	0.3363	0.9013	0.054
Mof_C 	C 	0.5732	0.39856	0.8432	0.359
Mof_C 	C 	0.7216	0.46498	0.9813	0.082
Mof_C 	C 	0.7779	0.46637	0.9806	-0.084
Mof_H 	H 	0.7973	0.444	0.9666	0.09
Mof_Cu	Cu	0.79021	0.26764	0.46525	0.909
Mof_O 	O 	0.82202	0.27104	0.5602	-0.397
Mof_O 	O 	0.75336	0.24208	0.6196	-0.401
Mof_O 	O 	0.958	0.4294	0.6293	-0.163
Mof_O 	O 	0.81847	0.21354	0.4547	-0.398
Mof_O 	O 	0.75082	0.18359	0.5138	-0.395
Mof_O 	O 	0.94509	0.13499	0.3224	-0.38
Mof_O 	O 	0.94378	0.06832	0.3236	-0.383
Mof_O 	O 	0.6114	0.0296	0.4843	-0.207
Mof_C 	C 	0.7984	0.25889	0.6162	0.355
Mof_C 	C 	0.8258	0.26777	0.6859	-0.085
Mof_C 	C 	0.8756	0.28836	0.6882	0.008
Mof_H 	H 	0.892	0.2948	0.645	0.057
Mof_C 	C 	0.9513	0.3576	0.6991	-0.025
Mof_H 	H 	0.9187	0.3673	0.682	0.072
Mof_C 	C 	0.7943	0.18365	0.4777	0.352
Mof_C 	C 	0.8165	0.14328	0.4588	-0.073
Mof_C 	C 	0.7909	0.1087	0.4814	-0.013
Mof_H 	H 	0.7611	0.1107	0.5114	0.06
Mof_C 	C 	0.8084	0.0715	0.4603	-0.014
Mof_C 	C 	0.8533	0.06989	0.417	-0.012
Mof_H 	H 	0.866	0.0451	0.4025	0.057
Mof_C 	C 	0.88	0.10363	0.3942	-0.072
Mof_C 	C 	0.8608	0.14057	0.416	0.022
Mof_H 	H 	0.8783	0.1637	0.4013	0.063
Mof_C 	C 	0.9268	0.10144	0.3432	0.352
Mof_C 	C 	0.7784	0.03502	0.4813	0.069
Mof_C 	C 	0.7221	0.03363	0.4806	-0.087
Mof_H 	H 	0.7027	0.056	0.4666	0.088
Mof_Cu	Cu	0.29021	0.76764	0.46525	0.908
Mof_O 	O 	0.32202	0.77104	0.5602	-0.401
Mof_O 	O 	0.25336	0.74208	0.6196	-0.403
Mof_O 	O 	0.458	0.9294	0.6293	-0.218
Mof_O 	O 	0.31847	0.71354	0.4547	-0.403
Mof_O 	O 	0.25082	0.68359	0.5138	-0.397
Mof_O 	O 	0.44509	0.63499	0.3224	-0.402
Mof_O 	O 	0.44378	0.56832	0.3236	-0.404
Mof_O 	O 	0.1114	0.5296	0.4843	-0.217
Mof_C 	C 	0.2984	0.75889	0.6162	0.353
Mof_C 	C 	0.3258	0.76777	0.6859	-0.082
Mof_C 	C 	0.3756	0.78836	0.6882	-0.006
Mof_H 	H 	0.392	0.7948	0.645	0.056
Mof_C 	C 	0.4513	0.8576	0.6991	-0.06
Mof_H 	H 	0.4187	0.8673	0.682	0.079
Mof_C 	C 	0.2943	0.68365	0.4777	0.353
Mof_C 	C 	0.3165	0.64328	0.4588	-0.079
Mof_C 	C 	0.2909	0.6087	0.4814	-0.011
Mof_H 	H 	0.2611	0.6107	0.5114	0.057
Mof_C 	C 	0.3084	0.5715	0.4603	-0.018
Mof_C 	C 	0.3533	0.56989	0.417	-0.009
Mof_H 	H 	0.366	0.5451	0.4025	0.053
Mof_C 	C 	0.38	0.60363	0.3942	-0.081
Mof_C 	C 	0.3608	0.64057	0.416	0.026
Mof_H 	H 	0.3783	0.6637	0.4013	0.056
Mof_C 	C 	0.4268	0.60144	0.3432	0.357
Mof_C 	C 	0.2784	0.53502	0.4813	0.067
Mof_C 	C 	0.2221	0.53363	0.4806	-0.086
Mof_H 	H 	0.2027	0.556	0.4666	0.086
Mof_Cu	Cu	0.20979	0.26764	0.46525	0.907
Mof_O 	O 	0.17798	0.27104	0.5602	-0.405
Mof_O 	O 	0.24664	0.24208	0.6196	-0.403
Mof_O 	O 	0.042	0.4294	0.6293	-0.21
Mof_O 	O 	0.18153	0.21354	0.4547	-0.406
Mof_O 	O 	0.24918	0.18359	0.5138	-0.397
Mof_O 	O 	0.05491	0.13499	0.3224	-0.414
Mof_O 	O 	0.05622	0.06832	0.3236	-0.416
Mof_O 	O 	0.3886	0.0296	0.4843	-0.207
Mof_C 	C 	0.2016	0.25889	0.6162	0.356
Mof_C 	C 	0.1742	0.26777	0.6859	-0.092
Mof_C 	C 	0.1244	0.28836	0.6882	0.008
Mof_H 	H 	0.108	0.2948	0.645	0.047
Mof_C 	C 	0.0487	0.3576	0.6991	-0.07
Mof_H 	H 	0.0813	0.3673	0.682	0.081
Mof_C 	C 	0.2057	0.18365	0.4777	0.354
Mof_C 	C 	0.1835	0.14328	0.4588	-0.084
Mof_C 	C 	0.2091	0.1087	0.4814	-0.008
Mof_H 	H 	0.2389	0.1107	0.5114	0.056
Mof_C 	C 	0.1916	0.0715	0.4603	-0.023
Mof_C 	C 	0.1467	0.06989	0.417	-0.005
Mof_H 	H 	0.134	0.0451	0.4025	0.047
Mof_C 	C 	0.12	0.10363	0.3942	-0.089
Mof_C 	C 	0.1392	0.14057	0.416	0.03
Mof_H 	H 	0.1217	0.1637	0.4013	0.051
Mof_C 	C 	0.0732	0.10144	0.3432	0.358
Mof_C 	C 	0.2216	0.03502	0.4813	0.07
Mof_C 	C 	0.2779	0.03363	0.4806	-0.088
Mof_H 	H 	0.2973	0.056	0.4666	0.088
Mof_Cu	Cu	0.70979	0.76764	0.46525	0.908
Mof_O 	O 	0.67798	0.77104	0.5602	-0.401
Mof_O 	O 	0.74664	0.74208	0.6196	-0.399
Mof_O 	O 	0.542	0.9294	0.6293	-0.218
Mof_O 	O 	0.68153	0.71354	0.4547	-0.402
Mof_O 	O 	0.74918	0.68359	0.5138	-0.394
Mof_O 	O 	0.55491	0.63499	0.3224	-0.402
Mof_O 	O 	0.55622	0.56832	0.3236	-0.404
Mof_O 	O 	0.8886	0.5296	0.4843	-0.197
Mof_C 	C 	0.7016	0.75889	0.6162	0.352
Mof_C 	C 	0.6742	0.76777	0.6859	-0.079
Mof_C 	C 	0.6244	0.78836	0.6882	-0.008
Mof_H 	H 	0.608	0.7948	0.645	0.056
Mof_C 	C 	0.5487	0.8576	0.6991	-0.06
Mof_H 	H 	0.5813	0.8673	0.682	0.079
Mof_C 	C 	0.7057	0.68365	0.4777	0.352
Mof_C 	C 	0.6835	0.64328	0.4588	-0.077
Mof_C 	C 	0.7091	0.6087	0.4814	-0.011
Mof_H 	H 	0.7389	0.6107	0.5114	0.06
Mof_C 	C 	0.6916	0.5715	0.4603	-0.018
Mof_C 	C 	0.6467	0.56989	0.417	-0.009
Mof_H 	H 	0.634	0.5451	0.4025	0.053
Mof_C 	C 	0.62	0.60363	0.3942	-0.081
Mof_C 	C 	0.6392	0.64057	0.416	0.026
Mof_H 	H 	0.6217	0.6637	0.4013	0.057
Mof_C 	C 	0.5732	0.60144	0.3432	0.357
Mof_C 	C 	0.7216	0.53502	0.4813	0.07
Mof_C 	C 	0.7779	0.53363	0.4806	-0.089
Mof_H 	H 	0.7973	0.556	0.4666	0.09
Mof_Cu	Cu	0.79021	0.73236	0.96525	0.912
Mof_O 	O 	0.82202	0.72896	0.0602	-0.401
Mof_O 	O 	0.75336	0.75792	0.1196	-0.402
Mof_O 	O 	0.958	0.5706	0.1293	-0.165
Mof_O 	O 	0.81847	0.78646	0.9547	-0.4
Mof_O 	O 	0.75082	0.81641	0.0138	-0.404
Mof_O 	O 	0.94509	0.86501	0.8224	-0.38
Mof_O 	O 	0.94378	0.93168	0.8236	-0.381
Mof_O 	O 	0.6114	0.9704	0.9843	-0.192
Mof_C 	C 	0.7984	0.74111	0.1162	0.355
Mof_C 	C 	0.8258	0.73223	0.1859	-0.086
Mof_C 	C 	0.8756	0.71164	0.1882	0.009
Mof_H 	H 	0.892	0.7052	0.145	0.056
Mof_C 	C 	0.9513	0.6424	0.1991	-0.025
Mof_H 	H 	0.9187	0.6327	0.182	0.071
Mof_C 	C 	0.7943	0.81635	0.9777	0.365
Mof_C 	C 	0.8165	0.85672	0.9588	-0.085
Mof_C 	C 	0.7909	0.8913	0.9814	0.012
Mof_H 	H 	0.7611	0.8893	0.0114	0.046
Mof_C 	C 	0.8084	0.9285	0.9603	-0.026
Mof_C 	C 	0.8533	0.93011	0.917	-0.003
Mof_H 	H 	0.866	0.9549	0.9025	0.057
Mof_C 	C 	0.88	0.89637	0.8942	-0.077
Mof_C 	C 	0.8608	0.85943	0.916	0.032
Mof_H 	H 	0.8783	0.8363	0.9013	0.06
Mof_C 	C 	0.9268	0.89856	0.8432	0.354
Mof_C 	C 	0.7784	0.96498	0.9813	0.085
Mof_C 	C 	0.7221	0.96637	0.9806	-0.075
Mof_H 	H 	0.7027	0.944	0.9666	0.087
Mof_Cu	Cu	0.29021	0.23236	0.96525	0.91
Mof_O 	O 	0.32202	0.22896	0.0602	-0.405
Mof_O 	O 	0.25336	0.25792	0.1196	-0.405
Mof_O 	O 	0.458	0.0706	0.1293	-0.221
Mof_O 	O 	0.31847	0.28646	0.9547	-0.404
Mof_O 	O 	0.25082	0.31641	0.0138	-0.407
Mof_O 	O 	0.44509	0.36501	0.8224	-0.402
Mof_O 	O 	0.44378	0.43168	0.8236	-0.404
Mof_O 	O 	0.1114	0.4704	0.9843	-0.208
Mof_C 	C 	0.2984	0.24111	0.1162	0.354
Mof_C 	C 	0.3258	0.23223	0.1859	-0.083
Mof_C 	C 	0.3756	0.21164	0.1882	-0.005
Mof_H 	H 	0.392	0.2052	0.145	0.054
Mof_C 	C 	0.4513	0.1424	0.1991	-0.06
Mof_H 	H 	0.4187	0.1327	0.182	0.078
Mof_C 	C 	0.2943	0.31635	0.9777	0.367
Mof_C 	C 	0.3165	0.35672	0.9588	-0.092
Mof_C 	C 	0.2909	0.3913	0.9814	0.015
Mof_H 	H 	0.2611	0.3893	0.0114	0.042
Mof_C 	C 	0.3084	0.4285	0.9603	-0.03
Mof_C 	C 	0.3533	0.43011	0.917	0.001
Mof_H 	H 	0.366	0.4549	0.9025	0.051
Mof_C 	C 	0.38	0.39637	0.8942	-0.087
Mof_C 	C 	0.3608	0.35943	0.916	0.036
Mof_H 	H 	0.3783	0.3363	0.9013	0.054
Mof_C 	C 	0.4268	0.39856	0.8432	0.359
Mof_C 	C 	0.2784	0.46498	0.9813	0.079
Mof_C 	C 	0.2221	0.46637	0.9806	-0.08
Mof_H 	H 	0.2027	0.444	0.9666	0.086
Mof_Cu	Cu	0.79021	0.26764	0.03475	0.907
Mof_O 	O 	0.82202	0.27104	0.9398	-0.393
Mof_O 	O 	0.75336	0.24208	0.8804	-0.4
Mof_O 	O 	0.958	0.4294	0.8707	-0.162
Mof_O 	O 	0.81847	0.21354	0.0453	-0.397
Mof_O 	O 	0.75082	0.18359	0.9862	-0.385
Mof_O 	O 	0.94509	0.13499	0.1776	-0.38
Mof_O 	O 	0.94378	0.06832	0.1764	-0.383
Mof_O 	O 	0.6114	0.0296	0.0157	-0.206
Mof_C 	C 	0.7984	0.25889	0.8838	0.354
Mof_C 	C 	0.8258	0.26777	0.8141	-0.084
Mof_C 	C 	0.8756	0.28836	0.8118	0.008
Mof_H 	H 	0.892	0.2948	0.855	0.058
Mof_C 	C 	0.9513	0.3576	0.8009	-0.025
Mof_H 	H 	0.9187	0.3673	0.818	0.072
Mof_C 	C 	0.7943	0.18365	0.0223	0.338
Mof_C 	C 	0.8165	0.14328	0.0412	-0.061
Mof_C 	C 	0.7909	0.1087	0.0186	-0.036
Mof_H 	H 	0.7611	0.1107	0.9886	0.073
Mof_C 	C 	0.8084	0.0715	0.0397	-0.005
Mof_C 	C 	0.8533	0.06989	0.083	-0.019
Mof_H 	H 	0.866	0.0451	0.0975	0.059
Mof_C 	C 	0.88	0.10363	0.1058	-0.067
Mof_C 	C 	0.8608	0.14057	0.084	0.013
Mof_H 	H 	0.8783	0.1637	0.0987	0.065
Mof_C 	C 	0.9268	0.10144	0.1568	0.35
Mof_C 	C 	0.7784	0.03502	0.0187	0.067
Mof_C 	C 	0.7221	0.03363	0.0194	-0.085
Mof_H 	H 	0.7027	0.056	0.0334	0.086
Mof_Cu	Cu	0.29021	0.76764	0.03475	0.906
Mof_O 	O 	0.32202	0.77104	0.9398	-0.397
Mof_O 	O 	0.25336	0.74208	0.8804	-0.402
Mof_O 	O 	0.458	0.9294	0.8707	-0.217
Mof_O 	O 	0.31847	0.71354	0.0453	-0.401
Mof_O 	O 	0.25082	0.68359	0.9862	-0.388
Mof_O 	O 	0.44509	0.63499	0.1776	-0.402
Mof_O 	O 	0.44378	0.56832	0.1764	-0.404
Mof_O 	O 	0.1114	0.5296	0.0157	-0.217
Mof_C 	C 	0.2984	0.75889	0.8838	0.353
Mof_C 	C 	0.3258	0.76777	0.8141	-0.081
Mof_C 	C 	0.3756	0.78836	0.8118	-0.006
Mof_H 	H 	0.392	0.7948	0.855	0.056
Mof_C 	C 	0.4513	0.8576	0.8009	-0.06
Mof_H 	H 	0.4187	0.8673	0.818	0.079
Mof_C 	C 	0.2943	0.68365	0.0223	0.34
Mof_C 	C 	0.3165	0.64328	0.0412	-0.067
Mof_C 	C 	0.2909	0.6087	0.0186	-0.034
Mof_H 	H 	0.2611	0.6107	0.9886	0.071
Mof_C 	C 	0.3084	0.5715	0.0397	-0.009
Mof_C 	C 	0.3533	0.56989	0.083	-0.016
Mof_H 	H 	0.366	0.5451	0.0975	0.054
Mof_C 	C 	0.38	0.60363	0.1058	-0.076
Mof_C 	C 	0.3608	0.64057	0.084	0.018
Mof_H 	H 	0.3783	0.6637	0.0987	0.059
Mof_C 	C 	0.4268	0.60144	0.1568	0.355
Mof_C 	C 	0.2784	0.53502	0.0187	0.064
Mof_C 	C 	0.2221	0.53363	0.0194	-0.084
Mof_H 	H 	0.2027	0.556	0.0334	0.084
Mof_Cu	Cu	0.20979	0.73236	0.53475	0.907
Mof_O 	O 	0.17798	0.72896	0.4398	-0.405
Mof_O 	O 	0.24664	0.75792	0.3804	-0.403
Mof_O 	O 	0.042	0.5706	0.3707	-0.21
Mof_O 	O 	0.18153	0.78646	0.5453	-0.406
Mof_O 	O 	0.24918	0.81641	0.4862	-0.397
Mof_O 	O 	0.05491	0.86501	0.6776	-0.413
Mof_O 	O 	0.05622	0.93168	0.6764	-0.414
Mof_O 	O 	0.3886	0.9704	0.5157	-0.201
Mof_C 	C 	0.2016	0.74111	0.3838	0.356
Mof_C 	C 	0.1742	0.73223	0.3141	-0.093
Mof_C 	C 	0.1244	0.71164	0.3118	0.009
Mof_H 	H 	0.108	0.7052	0.355	0.046
Mof_C 	C 	0.0487	0.6424	0.3009	-0.07
Mof_H 	H 	0.0813	0.6327	0.318	0.081
Mof_C 	C 	0.2057	0.81635	0.5223	0.354
Mof_C 	C 	0.1835	0.85672	0.5412	-0.083
Mof_C 	C 	0.2091	0.8913	0.5186	-0.008
Mof_H 	H 	0.2389	0.8893	0.4886	0.057
Mof_C 	C 	0.1916	0.9285	0.5397	-0.022
Mof_C 	C 	0.1467	0.93011	0.583	-0.005
Mof_H 	H 	0.134	0.9549	0.5975	0.05
Mof_C 	C 	0.12	0.89637	0.6058	-0.088
Mof_C 	C 	0.1392	0.85943	0.584	0.029
Mof_H 	H 	0.1217	0.8363	0.5987	0.052
Mof_C 	C 	0.0732	0.89856	0.6568	0.358
Mof_C 	C 	0.2216	0.96498	0.5187	0.074
Mof_C 	C 	0.2779	0.96637	0.5194	-0.083
Mof_H 	H 	0.2973	0.944	0.5334	0.087
Mof_Cu	Cu	0.70979	0.23236	0.53475	0.908
Mof_O 	O 	0.67798	0.22896	0.4398	-0.401
Mof_O 	O 	0.74664	0.25792	0.3804	-0.4
Mof_O 	O 	0.542	0.0706	0.3707	-0.22
Mof_O 	O 	0.68153	0.28646	0.5453	-0.402
Mof_O 	O 	0.74918	0.31641	0.4862	-0.394
Mof_O 	O 	0.55491	0.36501	0.6776	-0.402
Mof_O 	O 	0.55622	0.43168	0.6764	-0.403
Mof_O 	O 	0.8886	0.4704	0.5157	-0.197
Mof_C 	C 	0.7016	0.24111	0.3838	0.352
Mof_C 	C 	0.6742	0.23223	0.3141	-0.081
Mof_C 	C 	0.6244	0.21164	0.3118	-0.007
Mof_H 	H 	0.608	0.2052	0.355	0.056
Mof_C 	C 	0.5487	0.1424	0.3009	-0.06
Mof_H 	H 	0.5813	0.1327	0.318	0.078
Mof_C 	C 	0.7057	0.31635	0.5223	0.352
Mof_C 	C 	0.6835	0.35672	0.5412	-0.077
Mof_C 	C 	0.7091	0.3913	0.5186	-0.011
Mof_H 	H 	0.7389	0.3893	0.4886	0.06
Mof_C 	C 	0.6916	0.4285	0.5397	-0.018
Mof_C 	C 	0.6467	0.43011	0.583	-0.009
Mof_H 	H 	0.634	0.4549	0.5975	0.053
Mof_C 	C 	0.62	0.39637	0.6058	-0.08
Mof_C 	C 	0.6392	0.35943	0.584	0.026
Mof_H 	H 	0.6217	0.3363	0.5987	0.057
Mof_C 	C 	0.5732	0.39856	0.6568	0.356
Mof_C 	C 	0.7216	0.46498	0.5187	0.07
Mof_C 	C 	0.7779	0.46637	0.5194	-0.089
Mof_H 	H 	0.7973	0.444	0.5334	0.09
Mof_Cu	Cu	2.11877e-33	0.85895	0.75	0.892
Mof_Cu	Cu	2.11877e-33	0.93796	0.75	0.885
Mof_Cu	Cu	0.5	0.35895	0.75	0.912
Mof_Cu	Cu	0.5	0.43796	0.75	0.904
Mof_Cu	Cu	-9.14095e-34	0.14105	0.25	0.892
Mof_Cu	Cu	-2.53445e-33	0.06204	0.25	0.883
Mof_Cu	Cu	0.5	0.64105	0.25	0.912
Mof_Cu	Cu	0.5	0.56204	0.25	0.904
Mof_C 	C 	0.8024	0.7417	0.25	0.036
Mof_H 	H 	0.7695	0.755	0.25	0.054
Mof_C 	C 	0.901	0.7007	0.25	-0.05
Mof_C 	C 	0.9515	0.6791	0.25	0.144
Mof_C 	C 	0.3024	0.2417	0.25	0.031
Mof_H 	H 	0.2695	0.255	0.25	0.053
Mof_C 	C 	0.401	0.2007	0.25	-0.032
Mof_C 	C 	0.4515	0.1791	0.25	0.084
Mof_C 	C 	0.1976	0.2583	0.75	0.038
Mof_H 	H 	0.2305	0.245	0.75	0.052
Mof_C 	C 	0.099	0.2993	0.75	-0.056
Mof_C 	C 	0.0485	0.3209	0.75	0.121
Mof_C 	C 	0.6976	0.7583	0.75	0.028
Mof_H 	H 	0.7305	0.745	0.75	0.058
Mof_C 	C 	0.599	0.7993	0.75	-0.03
Mof_C 	C 	0.5485	0.8209	0.75	0.084
Mof_C 	C 	0.1976	0.7417	0.25	0.039
Mof_H 	H 	0.2305	0.755	0.25	0.052
Mof_C 	C 	0.099	0.7007	0.25	-0.057
Mof_C 	C 	0.0485	0.6791	0.25	0.121
Mof_C 	C 	0.6976	0.2417	0.25	0.029
Mof_H 	H 	0.7305	0.255	0.25	0.057
Mof_C 	C 	0.599	0.2007	0.25	-0.031
Mof_C 	C 	0.5485	0.1791	0.25	0.084
Mof_C 	C 	0.8024	0.2583	0.75	0.035
Mof_H 	H 	0.7695	0.245	0.75	0.055
Mof_C 	C 	0.901	0.2993	0.75	-0.049
Mof_C 	C 	0.9515	0.3209	0.75	0.144
Mof_C 	C 	0.3024	0.7583	0.75	0.03
Mof_H 	H 	0.2695	0.745	0.75	0.054
Mof_C 	C 	0.401	0.7993	0.75	-0.031
Mof_C 	C 	0.4515	0.8209	0.75	0.084
Mof_C 	C 	-1.06362e-32	0.6958	0.25	-0.243
Mof_H 	H 	-4.1548e-33	0.7235	0.25	0.109
Mof_C 	C 	0.5	0.1958	0.25	-0.148
Mof_H 	H 	0.5	0.2235	0.25	0.093
Mof_C 	C 	-1.0844e-32	0.3042	0.75	-0.242
Mof_H 	H 	2.11877e-33	0.2765	0.75	0.11
Mof_C 	C 	0.5	0.8042	0.75	-0.148
Mof_H 	H 	0.5	0.7765	0.75	0.093
Mof_C 	C 	-2.33105e-33	0.6235	0.322	-0.05
Mof_C 	C 	-5.44745e-33	0.5865	0.366	0.284
Mof_C 	C 	0.5	0.1235	0.322	-0.024
Mof_C 	C 	0.5	0.0865	0.366	0.35
Mof_C 	C 	2.32218e-33	0.3765	0.822	-0.049
Mof_C 	C 	-1.05163e-32	0.4135	0.866	0.284
Mof_C 	C 	0.5	0.8765	0.822	-0.022
Mof_C 	C 	0.5	0.9135	0.866	0.35
Mof_C 	C 	5.36391e-33	0.6235	0.178	-0.05
Mof_C 	C 	-4.4825e-33	0.5865	0.134	0.284
Mof_C 	C 	0.5	0.1235	0.178	-0.024
Mof_C 	C 	0.5	0.0865	0.134	0.35
Mof_C 	C 	-4.56604e-33	0.3765	0.678	-0.05
Mof_C 	C 	-4.69034e-33	0.4135	0.634	0.284
Mof_C 	C 	0.5	0.8765	0.678	-0.023
Mof_C 	C 	0.5	0.9135	0.634	0.349
Mof_C 	C 	0.8055	0	0.5	-0.131
Mof_H 	H 	0.843	0	0.5	0.086
Mof_C 	C 	0.6954	0	0.5	-0.006
Mof_C 	C 	0.6348	0	0.5	0.315
Mof_C 	C 	0.3055	0.5	0.5	-0.124
Mof_H 	H 	0.343	0.5	0.5	0.081
Mof_C 	C 	0.1954	0.5	0.5	-0.006
Mof_C 	C 	0.1348	0.5	0.5	0.325
Mof_C 	C 	0.1945	0	-0	-0.144
Mof_H 	H 	0.157	0	-0	0.081
Mof_C 	C 	0.3046	0	-0	-0.011
Mof_C 	C 	0.3652	0	-0	0.305
Mof_C 	C 	0.6945	0.5	-0	-0.136
Mof_H 	H 	0.657	0.5	-0	0.084
Mof_C 	C 	0.8046	0.5	-0	-0.003
Mof_C 	C 	0.8652	0.5	-0	0.309
Mof_C 	C 	0.1945	0	0.5	-0.133
Mof_H 	H 	0.157	0	0.5	0.079
Mof_C 	C 	0.3046	0	0.5	-0.005
Mof_C 	C 	0.3652	0	0.5	0.315
Mof_C 	C 	0.6945	0.5	0.5	-0.125
Mof_H 	H 	0.657	0.5	0.5	0.082
Mof_C 	C 	0.8046	0.5	0.5	0.004
Mof_C 	C 	0.8652	0.5	0.5	0.318
Mof_C 	C 	0.8055	0	-0	-0.142
Mof_H 	H 	0.843	0	-0	0.088
Mof_C 	C 	0.6954	0	-0	-0.012
Mof_C 	C 	0.6348	0	-0	0.306
Mof_C 	C 	0.3055	0.5	-0	-0.135
Mof_H 	H 	0.343	0.5	-0	0.083
Mof_C 	C 	0.1954	0.5	-0	-0.012
Mof_C 	C 	0.1348	0.5	-0	0.315
_end
