# CIF file generated by openbabel 3.1.0, see https://openbabel.org
data_I
_chemical_name_common 'image0'
_cell_length_a 34.4885
_cell_length_b 34.4885
_cell_length_c 34.4885
_cell_angle_alpha 90
_cell_angle_beta 90
_cell_angle_gamma 90
_space_group_name_H-M_alt 'P 1'
_space_group_name_Hall 'P 1'
loop_
    _symmetry_equiv_pos_as_xyz
    x,y,z
loop_
    _atom_site_label
    _atom_site_type_symbol
    _atom_site_fract_x
    _atom_site_fract_y
    _atom_site_fract_z
    _atom_site_occupancy
    C1       C        0.87558    0.03517    0.07321    1.000
    H1       H        0.86570    0.05420    0.08950    1.000
    C2       C        0.90413    0.98498    0.05365    1.000
    H2       H        0.91810    0.96190    0.05300    1.000
    C3       C        0.88980    0.00326    0.02221    1.000
    C4       C        0.89960    0.98830    0.98350    1.000
    H3       H        0.91480    0.96610    0.98350    1.000
    C5       C        0.85150    0.04430    0.92130    1.000
    H4       H        0.85030    0.02740    0.90030    1.000
    N1       N        0.89060    0.00100    0.94940    1.000
    N2       N        0.86980    0.03480    0.95280    1.000
    C6       C        0.83270    0.08230    0.91958    1.000
    C7       C        0.80960    0.10200    0.89400    1.000
    H5       H        0.80650    0.09600    0.86790    1.000
    C8       C        0.80437    0.12825    0.94970    1.000
    H6       H        0.79700    0.14510    0.96940    1.000
    N3       N        0.87100    0.03601    0.03499    1.000
    N4       N        0.89542    0.00481    0.08614    1.000
    N5       N        0.82826    0.09881    0.95519    1.000
    N6       N        0.79177    0.13149    0.91295    1.000
    Cu1      Cu       0.85991    0.08173    0.00098    1.000
    C9       C        0.88710    0.00090    0.98000    1.000
    H7       H        0.89390    0.97820    0.96710    1.000
    C10      C        0.85920    0.05220    0.90490    1.000
    H8       H        0.86180    0.05250    0.87810    1.000
    N7       N        0.87520    0.03080    0.96100    1.000
    N8       N        0.87960    0.02530    0.92170    1.000
    Zn1      Zn       0.91827    0.99902    0.14009    1.000
    C11      C        0.37558    0.53517    0.57321    1.000
    H9       H        0.36570    0.55420    0.58950    1.000
    C12      C        0.40413    0.48498    0.55365    1.000
    H10      H        0.41810    0.46190    0.55300    1.000
    C13      C        0.38980    0.50326    0.52221    1.000
    C14      C        0.39960    0.48830    0.48350    1.000
    H11      H        0.41480    0.46610    0.48350    1.000
    C15      C        0.35150    0.54430    0.42130    1.000
    H12      H        0.35030    0.52740    0.40030    1.000
    N9       N        0.39060    0.50100    0.44940    1.000
    N10      N        0.36980    0.53480    0.45280    1.000
    C16      C        0.33270    0.58230    0.41958    1.000
    C17      C        0.30960    0.60200    0.39400    1.000
    H13      H        0.30650    0.59600    0.36790    1.000
    C18      C        0.30437    0.62825    0.44970    1.000
    H14      H        0.29700    0.64510    0.46940    1.000
    N11      N        0.37100    0.53601    0.53499    1.000
    N12      N        0.39542    0.50481    0.58614    1.000
    N13      N        0.32826    0.59881    0.45519    1.000
    N14      N        0.29177    0.63149    0.41295    1.000
    Cu2      Cu       0.35991    0.58173    0.50098    1.000
    C19      C        0.38710    0.50090    0.48000    1.000
    H15      H        0.39390    0.47820    0.46710    1.000
    C20      C        0.35920    0.55220    0.40490    1.000
    H16      H        0.36180    0.55250    0.37810    1.000
    N15      N        0.37520    0.53080    0.46100    1.000
    N16      N        0.37960    0.52530    0.42170    1.000
    Zn2      Zn       0.41827    0.49902    0.64009    1.000
    C21      C        0.62442    0.96483    0.57321    1.000
    H17      H        0.63430    0.94580    0.58950    1.000
    C22      C        0.59587    0.01502    0.55365    1.000
    H18      H        0.58190    0.03810    0.55300    1.000
    C23      C        0.61020    0.99674    0.52221    1.000
    C24      C        0.60040    0.01170    0.48350    1.000
    H19      H        0.58520    0.03390    0.48350    1.000
    C25      C        0.64850    0.95570    0.42130    1.000
    H20      H        0.64970    0.97260    0.40030    1.000
    N17      N        0.60940    0.99900    0.44940    1.000
    N18      N        0.63020    0.96520    0.45280    1.000
    C26      C        0.66730    0.91770    0.41958    1.000
    C27      C        0.69040    0.89800    0.39400    1.000
    H21      H        0.69350    0.90400    0.36790    1.000
    C28      C        0.69563    0.87175    0.44970    1.000
    H22      H        0.70300    0.85490    0.46940    1.000
    N19      N        0.62900    0.96399    0.53499    1.000
    N20      N        0.60458    0.99519    0.58614    1.000
    N21      N        0.67174    0.90119    0.45519    1.000
    N22      N        0.70823    0.86851    0.41295    1.000
    Cu3      Cu       0.64009    0.91827    0.50098    1.000
    C29      C        0.61290    0.99910    0.48000    1.000
    H23      H        0.60610    0.02180    0.46710    1.000
    C30      C        0.64080    0.94780    0.40490    1.000
    H24      H        0.63820    0.94750    0.37810    1.000
    N23      N        0.62480    0.96920    0.46100    1.000
    N24      N        0.62040    0.97470    0.42170    1.000
    Zn3      Zn       0.58173    0.00098    0.64009    1.000
    C31      C        0.12442    0.46483    0.07321    1.000
    H25      H        0.13430    0.44580    0.08950    1.000
    C32      C        0.09587    0.51502    0.05365    1.000
    H26      H        0.08190    0.53810    0.05300    1.000
    C33      C        0.11020    0.49674    0.02221    1.000
    C34      C        0.10040    0.51170    0.98350    1.000
    H27      H        0.08520    0.53390    0.98350    1.000
    C35      C        0.14850    0.45570    0.92130    1.000
    H28      H        0.14970    0.47260    0.90030    1.000
    N25      N        0.10940    0.49900    0.94940    1.000
    N26      N        0.13020    0.46520    0.95280    1.000
    C36      C        0.16730    0.41770    0.91958    1.000
    C37      C        0.19040    0.39800    0.89400    1.000
    H29      H        0.19350    0.40400    0.86790    1.000
    C38      C        0.19563    0.37175    0.94970    1.000
    H30      H        0.20300    0.35490    0.96940    1.000
    N27      N        0.12900    0.46399    0.03499    1.000
    N28      N        0.10458    0.49519    0.08614    1.000
    N29      N        0.17174    0.40119    0.95519    1.000
    N30      N        0.20823    0.36851    0.91295    1.000
    Cu4      Cu       0.14009    0.41827    0.00098    1.000
    C39      C        0.11290    0.49910    0.98000    1.000
    H31      H        0.10610    0.52180    0.96710    1.000
    C40      C        0.14080    0.44780    0.90490    1.000
    H32      H        0.13820    0.44750    0.87810    1.000
    N31      N        0.12480    0.46920    0.96100    1.000
    N32      N        0.12040    0.47470    0.92170    1.000
    Zn4      Zn       0.08173    0.50098    0.14009    1.000
    C41      C        0.12442    0.53517    0.42679    1.000
    H33      H        0.13430    0.55420    0.41050    1.000
    C42      C        0.09587    0.48498    0.44635    1.000
    H34      H        0.08190    0.46190    0.44700    1.000
    C43      C        0.11020    0.50326    0.47779    1.000
    C44      C        0.10040    0.48830    0.51650    1.000
    H35      H        0.08520    0.46610    0.51650    1.000
    C45      C        0.14850    0.54430    0.57870    1.000
    H36      H        0.14970    0.52740    0.59970    1.000
    N33      N        0.10940    0.50100    0.55060    1.000
    N34      N        0.13020    0.53480    0.54720    1.000
    C46      C        0.16730    0.58230    0.58042    1.000
    C47      C        0.19040    0.60200    0.60600    1.000
    H37      H        0.19350    0.59600    0.63210    1.000
    C48      C        0.19563    0.62825    0.55030    1.000
    H38      H        0.20300    0.64510    0.53060    1.000
    N35      N        0.12900    0.53601    0.46501    1.000
    N36      N        0.10458    0.50481    0.41386    1.000
    N37      N        0.17174    0.59881    0.54481    1.000
    N38      N        0.20823    0.63149    0.58705    1.000
    Cu5      Cu       0.14009    0.58173    0.49902    1.000
    C49      C        0.11290    0.50090    0.52000    1.000
    H39      H        0.10610    0.47820    0.53290    1.000
    C50      C        0.14080    0.55220    0.59510    1.000
    H40      H        0.13820    0.55250    0.62190    1.000
    N39      N        0.12480    0.53080    0.53900    1.000
    N40      N        0.12040    0.52530    0.57830    1.000
    Zn5      Zn       0.08173    0.49902    0.35991    1.000
    C51      C        0.62442    0.03517    0.92679    1.000
    H41      H        0.63430    0.05420    0.91050    1.000
    C52      C        0.59587    0.98498    0.94635    1.000
    H42      H        0.58190    0.96190    0.94700    1.000
    C53      C        0.61020    0.00326    0.97779    1.000
    C54      C        0.60040    0.98830    0.01650    1.000
    H43      H        0.58520    0.96610    0.01650    1.000
    C55      C        0.64850    0.04430    0.07870    1.000
    H44      H        0.64970    0.02740    0.09970    1.000
    N41      N        0.60940    0.00100    0.05060    1.000
    N42      N        0.63020    0.03480    0.04720    1.000
    C56      C        0.66730    0.08230    0.08042    1.000
    C57      C        0.69040    0.10200    0.10600    1.000
    H45      H        0.69350    0.09600    0.13210    1.000
    C58      C        0.69563    0.12825    0.05030    1.000
    H46      H        0.70300    0.14510    0.03060    1.000
    N43      N        0.62900    0.03601    0.96501    1.000
    N44      N        0.60458    0.00481    0.91386    1.000
    N45      N        0.67174    0.09881    0.04481    1.000
    N46      N        0.70823    0.13149    0.08705    1.000
    Cu6      Cu       0.64009    0.08173    0.99902    1.000
    C59      C        0.61290    0.00090    0.02000    1.000
    H47      H        0.60610    0.97820    0.03290    1.000
    C60      C        0.64080    0.05220    0.09510    1.000
    H48      H        0.63820    0.05250    0.12190    1.000
    N47      N        0.62480    0.03080    0.03900    1.000
    N48      N        0.62040    0.02530    0.07830    1.000
    Zn6      Zn       0.58173    0.99902    0.85991    1.000
    C61      C        0.37558    0.46483    0.92679    1.000
    H49      H        0.36570    0.44580    0.91050    1.000
    C62      C        0.40413    0.51502    0.94635    1.000
    H50      H        0.41810    0.53810    0.94700    1.000
    C63      C        0.38980    0.49674    0.97779    1.000
    C64      C        0.39960    0.51170    0.01650    1.000
    H51      H        0.41480    0.53390    0.01650    1.000
    C65      C        0.35150    0.45570    0.07870    1.000
    H52      H        0.35030    0.47260    0.09970    1.000
    N49      N        0.39060    0.49900    0.05060    1.000
    N50      N        0.36980    0.46520    0.04720    1.000
    C66      C        0.33270    0.41770    0.08042    1.000
    C67      C        0.30960    0.39800    0.10600    1.000
    H53      H        0.30650    0.40400    0.13210    1.000
    C68      C        0.30437    0.37175    0.05030    1.000
    H54      H        0.29700    0.35490    0.03060    1.000
    N51      N        0.37100    0.46399    0.96501    1.000
    N52      N        0.39542    0.49519    0.91386    1.000
    N53      N        0.32826    0.40119    0.04481    1.000
    N54      N        0.29177    0.36851    0.08705    1.000
    Cu7      Cu       0.35991    0.41827    0.99902    1.000
    C69      C        0.38710    0.49910    0.02000    1.000
    H55      H        0.39390    0.52180    0.03290    1.000
    C70      C        0.35920    0.44780    0.09510    1.000
    H56      H        0.36180    0.44750    0.12190    1.000
    N55      N        0.37520    0.46920    0.03900    1.000
    N56      N        0.37960    0.47470    0.07830    1.000
    Zn7      Zn       0.41827    0.50098    0.85991    1.000
    C71      C        0.87558    0.96483    0.42679    1.000
    H57      H        0.86570    0.94580    0.41050    1.000
    C72      C        0.90413    0.01502    0.44635    1.000
    H58      H        0.91810    0.03810    0.44700    1.000
    C73      C        0.88980    0.99674    0.47779    1.000
    C74      C        0.89960    0.01170    0.51650    1.000
    H59      H        0.91480    0.03390    0.51650    1.000
    C75      C        0.85150    0.95570    0.57870    1.000
    H60      H        0.85030    0.97260    0.59970    1.000
    N57      N        0.89060    0.99900    0.55060    1.000
    N58      N        0.86980    0.96520    0.54720    1.000
    C76      C        0.83270    0.91770    0.58042    1.000
    C77      C        0.80960    0.89800    0.60600    1.000
    H61      H        0.80650    0.90400    0.63210    1.000
    C78      C        0.80437    0.87175    0.55030    1.000
    H62      H        0.79700    0.85490    0.53060    1.000
    N59      N        0.87100    0.96399    0.46501    1.000
    N60      N        0.89542    0.99519    0.41386    1.000
    N61      N        0.82826    0.90119    0.54481    1.000
    N62      N        0.79177    0.86851    0.58705    1.000
    Cu8      Cu       0.85991    0.91827    0.49902    1.000
    C79      C        0.88710    0.99910    0.52000    1.000
    H63      H        0.89390    0.02180    0.53290    1.000
    C80      C        0.85920    0.94780    0.59510    1.000
    H64      H        0.86180    0.94750    0.62190    1.000
    N63      N        0.87520    0.96920    0.53900    1.000
    N64      N        0.87960    0.97470    0.57830    1.000
    Zn8      Zn       0.91827    0.00098    0.35991    1.000
    C81      C        0.07321    0.87558    0.03517    1.000
    H65      H        0.08950    0.86570    0.05420    1.000
    C82      C        0.05365    0.90413    0.98498    1.000
    H66      H        0.05300    0.91810    0.96190    1.000
    C83      C        0.02221    0.88980    0.00326    1.000
    C84      C        0.98350    0.89960    0.98830    1.000
    H67      H        0.98350    0.91480    0.96610    1.000
    C85      C        0.92130    0.85150    0.04430    1.000
    H68      H        0.90030    0.85030    0.02740    1.000
    N65      N        0.94940    0.89060    0.00100    1.000
    N66      N        0.95280    0.86980    0.03480    1.000
    C86      C        0.91958    0.83270    0.08230    1.000
    C87      C        0.89400    0.80960    0.10200    1.000
    H69      H        0.86790    0.80650    0.09600    1.000
    C88      C        0.94970    0.80437    0.12825    1.000
    H70      H        0.96940    0.79700    0.14510    1.000
    N67      N        0.03499    0.87100    0.03601    1.000
    N68      N        0.08614    0.89542    0.00481    1.000
    N69      N        0.95519    0.82826    0.09881    1.000
    N70      N        0.91295    0.79177    0.13149    1.000
    Cu9      Cu       0.00098    0.85991    0.08173    1.000
    C89      C        0.98000    0.88710    0.00090    1.000
    H71      H        0.96710    0.89390    0.97820    1.000
    C90      C        0.90490    0.85920    0.05220    1.000
    H72      H        0.87810    0.86180    0.05250    1.000
    N71      N        0.96100    0.87520    0.03080    1.000
    N72      N        0.92170    0.87960    0.02530    1.000
    Zn9      Zn       0.14009    0.91827    0.99902    1.000
    C91      C        0.57321    0.37558    0.53517    1.000
    H73      H        0.58950    0.36570    0.55420    1.000
    C92      C        0.55365    0.40413    0.48498    1.000
    H74      H        0.55300    0.41810    0.46190    1.000
    C93      C        0.52221    0.38980    0.50326    1.000
    C94      C        0.48350    0.39960    0.48830    1.000
    H75      H        0.48350    0.41480    0.46610    1.000
    C95      C        0.42130    0.35150    0.54430    1.000
    H76      H        0.40030    0.35030    0.52740    1.000
    N73      N        0.44940    0.39060    0.50100    1.000
    N74      N        0.45280    0.36980    0.53480    1.000
    C96      C        0.41958    0.33270    0.58230    1.000
    C97      C        0.39400    0.30960    0.60200    1.000
    H77      H        0.36790    0.30650    0.59600    1.000
    C98      C        0.44970    0.30437    0.62825    1.000
    H78      H        0.46940    0.29700    0.64510    1.000
    N75      N        0.53499    0.37100    0.53601    1.000
    N76      N        0.58614    0.39542    0.50481    1.000
    N77      N        0.45519    0.32826    0.59881    1.000
    N78      N        0.41295    0.29177    0.63149    1.000
    Cu10     Cu       0.50098    0.35991    0.58173    1.000
    C99      C        0.48000    0.38710    0.50090    1.000
    H79      H        0.46710    0.39390    0.47820    1.000
    C100     C        0.40490    0.35920    0.55220    1.000
    H80      H        0.37810    0.36180    0.55250    1.000
    N79      N        0.46100    0.37520    0.53080    1.000
    N80      N        0.42170    0.37960    0.52530    1.000
    Zn10     Zn       0.64009    0.41827    0.49902    1.000
    C101     C        0.57321    0.62442    0.96483    1.000
    H81      H        0.58950    0.63430    0.94580    1.000
    C102     C        0.55365    0.59587    0.01502    1.000
    H82      H        0.55300    0.58190    0.03810    1.000
    C103     C        0.52221    0.61020    0.99674    1.000
    C104     C        0.48350    0.60040    0.01170    1.000
    H83      H        0.48350    0.58520    0.03390    1.000
    C105     C        0.42130    0.64850    0.95570    1.000
    H84      H        0.40030    0.64970    0.97260    1.000
    N81      N        0.44940    0.60940    0.99900    1.000
    N82      N        0.45280    0.63020    0.96520    1.000
    C106     C        0.41958    0.66730    0.91770    1.000
    C107     C        0.39400    0.69040    0.89800    1.000
    H85      H        0.36790    0.69350    0.90400    1.000
    C108     C        0.44970    0.69563    0.87175    1.000
    H86      H        0.46940    0.70300    0.85490    1.000
    N83      N        0.53499    0.62900    0.96399    1.000
    N84      N        0.58614    0.60458    0.99519    1.000
    N85      N        0.45519    0.67174    0.90119    1.000
    N86      N        0.41295    0.70823    0.86851    1.000
    Cu11     Cu       0.50098    0.64009    0.91827    1.000
    C109     C        0.48000    0.61290    0.99910    1.000
    H87      H        0.46710    0.60610    0.02180    1.000
    C110     C        0.40490    0.64080    0.94780    1.000
    H88      H        0.37810    0.63820    0.94750    1.000
    N87      N        0.46100    0.62480    0.96920    1.000
    N88      N        0.42170    0.62040    0.97470    1.000
    Zn11     Zn       0.64009    0.58173    0.00098    1.000
    C111     C        0.07321    0.12442    0.46483    1.000
    H89      H        0.08950    0.13430    0.44580    1.000
    C112     C        0.05365    0.09587    0.51502    1.000
    H90      H        0.05300    0.08190    0.53810    1.000
    C113     C        0.02221    0.11020    0.49674    1.000
    C114     C        0.98350    0.10040    0.51170    1.000
    H91      H        0.98350    0.08520    0.53390    1.000
    C115     C        0.92130    0.14850    0.45570    1.000
    H92      H        0.90030    0.14970    0.47260    1.000
    N89      N        0.94940    0.10940    0.49900    1.000
    N90      N        0.95280    0.13020    0.46520    1.000
    C116     C        0.91958    0.16730    0.41770    1.000
    C117     C        0.89400    0.19040    0.39800    1.000
    H93      H        0.86790    0.19350    0.40400    1.000
    C118     C        0.94970    0.19563    0.37175    1.000
    H94      H        0.96940    0.20300    0.35490    1.000
    N91      N        0.03499    0.12900    0.46399    1.000
    N92      N        0.08614    0.10458    0.49519    1.000
    N93      N        0.95519    0.17174    0.40119    1.000
    N94      N        0.91295    0.20823    0.36851    1.000
    Cu12     Cu       0.00098    0.14009    0.41827    1.000
    C119     C        0.98000    0.11290    0.49910    1.000
    H95      H        0.96710    0.10610    0.52180    1.000
    C120     C        0.90490    0.14080    0.44780    1.000
    H96      H        0.87810    0.13820    0.44750    1.000
    N95      N        0.96100    0.12480    0.46920    1.000
    N96      N        0.92170    0.12040    0.47470    1.000
    Zn12     Zn       0.14009    0.08173    0.50098    1.000
    C121     C        0.42679    0.12442    0.53517    1.000
    H97      H        0.41050    0.13430    0.55420    1.000
    C122     C        0.44635    0.09587    0.48498    1.000
    H98      H        0.44700    0.08190    0.46190    1.000
    C123     C        0.47779    0.11020    0.50326    1.000
    C124     C        0.51650    0.10040    0.48830    1.000
    H99      H        0.51650    0.08520    0.46610    1.000
    C125     C        0.57870    0.14850    0.54430    1.000
    H100     H        0.59970    0.14970    0.52740    1.000
    N97      N        0.55060    0.10940    0.50100    1.000
    N98      N        0.54720    0.13020    0.53480    1.000
    C126     C        0.58042    0.16730    0.58230    1.000
    C127     C        0.60600    0.19040    0.60200    1.000
    H101     H        0.63210    0.19350    0.59600    1.000
    C128     C        0.55030    0.19563    0.62825    1.000
    H102     H        0.53060    0.20300    0.64510    1.000
    N99      N        0.46501    0.12900    0.53601    1.000
    N100     N        0.41386    0.10458    0.50481    1.000
    N101     N        0.54481    0.17174    0.59881    1.000
    N102     N        0.58705    0.20823    0.63149    1.000
    Cu13     Cu       0.49902    0.14009    0.58173    1.000
    C129     C        0.52000    0.11290    0.50090    1.000
    H103     H        0.53290    0.10610    0.47820    1.000
    C130     C        0.59510    0.14080    0.55220    1.000
    H104     H        0.62190    0.13820    0.55250    1.000
    N103     N        0.53900    0.12480    0.53080    1.000
    N104     N        0.57830    0.12040    0.52530    1.000
    Zn13     Zn       0.35991    0.08173    0.49902    1.000
    C131     C        0.92679    0.62442    0.03517    1.000
    H105     H        0.91050    0.63430    0.05420    1.000
    C132     C        0.94635    0.59587    0.98498    1.000
    H106     H        0.94700    0.58190    0.96190    1.000
    C133     C        0.97779    0.61020    0.00326    1.000
    C134     C        0.01650    0.60040    0.98830    1.000
    H107     H        0.01650    0.58520    0.96610    1.000
    C135     C        0.07870    0.64850    0.04430    1.000
    H108     H        0.09970    0.64970    0.02740    1.000
    N105     N        0.05060    0.60940    0.00100    1.000
    N106     N        0.04720    0.63020    0.03480    1.000
    C136     C        0.08042    0.66730    0.08230    1.000
    C137     C        0.10600    0.69040    0.10200    1.000
    H109     H        0.13210    0.69350    0.09600    1.000
    C138     C        0.05030    0.69563    0.12825    1.000
    H110     H        0.03060    0.70300    0.14510    1.000
    N107     N        0.96501    0.62900    0.03601    1.000
    N108     N        0.91386    0.60458    0.00481    1.000
    N109     N        0.04481    0.67174    0.09881    1.000
    N110     N        0.08705    0.70823    0.13149    1.000
    Cu14     Cu       0.99902    0.64009    0.08173    1.000
    C139     C        0.02000    0.61290    0.00090    1.000
    H111     H        0.03290    0.60610    0.97820    1.000
    C140     C        0.09510    0.64080    0.05220    1.000
    H112     H        0.12190    0.63820    0.05250    1.000
    N111     N        0.03900    0.62480    0.03080    1.000
    N112     N        0.07830    0.62040    0.02530    1.000
    Zn14     Zn       0.85991    0.58173    0.99902    1.000
    C141     C        0.92679    0.37558    0.46483    1.000
    H113     H        0.91050    0.36570    0.44580    1.000
    C142     C        0.94635    0.40413    0.51502    1.000
    H114     H        0.94700    0.41810    0.53810    1.000
    C143     C        0.97779    0.38980    0.49674    1.000
    C144     C        0.01650    0.39960    0.51170    1.000
    H115     H        0.01650    0.41480    0.53390    1.000
    C145     C        0.07870    0.35150    0.45570    1.000
    H116     H        0.09970    0.35030    0.47260    1.000
    N113     N        0.05060    0.39060    0.49900    1.000
    N114     N        0.04720    0.36980    0.46520    1.000
    C146     C        0.08042    0.33270    0.41770    1.000
    C147     C        0.10600    0.30960    0.39800    1.000
    H117     H        0.13210    0.30650    0.40400    1.000
    C148     C        0.05030    0.30437    0.37175    1.000
    H118     H        0.03060    0.29700    0.35490    1.000
    N115     N        0.96501    0.37100    0.46399    1.000
    N116     N        0.91386    0.39542    0.49519    1.000
    N117     N        0.04481    0.32826    0.40119    1.000
    N118     N        0.08705    0.29177    0.36851    1.000
    Cu15     Cu       0.99902    0.35991    0.41827    1.000
    C149     C        0.02000    0.38710    0.49910    1.000
    H119     H        0.03290    0.39390    0.52180    1.000
    C150     C        0.09510    0.35920    0.44780    1.000
    H120     H        0.12190    0.36180    0.44750    1.000
    N119     N        0.03900    0.37520    0.46920    1.000
    N120     N        0.07830    0.37960    0.47470    1.000
    Zn15     Zn       0.85991    0.41827    0.50098    1.000
    C151     C        0.42679    0.87558    0.96483    1.000
    H121     H        0.41050    0.86570    0.94580    1.000
    C152     C        0.44635    0.90413    0.01502    1.000
    H122     H        0.44700    0.91810    0.03810    1.000
    C153     C        0.47779    0.88980    0.99674    1.000
    C154     C        0.51650    0.89960    0.01170    1.000
    H123     H        0.51650    0.91480    0.03390    1.000
    C155     C        0.57870    0.85150    0.95570    1.000
    H124     H        0.59970    0.85030    0.97260    1.000
    N121     N        0.55060    0.89060    0.99900    1.000
    N122     N        0.54720    0.86980    0.96520    1.000
    C156     C        0.58042    0.83270    0.91770    1.000
    C157     C        0.60600    0.80960    0.89800    1.000
    H125     H        0.63210    0.80650    0.90400    1.000
    C158     C        0.55030    0.80437    0.87175    1.000
    H126     H        0.53060    0.79700    0.85490    1.000
    N123     N        0.46501    0.87100    0.96399    1.000
    N124     N        0.41386    0.89542    0.99519    1.000
    N125     N        0.54481    0.82826    0.90119    1.000
    N126     N        0.58705    0.79177    0.86851    1.000
    Cu16     Cu       0.49902    0.85991    0.91827    1.000
    C159     C        0.52000    0.88710    0.99910    1.000
    H127     H        0.53290    0.89390    0.02180    1.000
    C160     C        0.59510    0.85920    0.94780    1.000
    H128     H        0.62190    0.86180    0.94750    1.000
    N127     N        0.53900    0.87520    0.96920    1.000
    N128     N        0.57830    0.87960    0.97470    1.000
    Zn16     Zn       0.35991    0.91827    0.00098    1.000
    C161     C        0.03517    0.07321    0.87558    1.000
    H129     H        0.05420    0.08950    0.86570    1.000
    C162     C        0.98498    0.05365    0.90413    1.000
    H130     H        0.96190    0.05300    0.91810    1.000
    C163     C        0.00326    0.02221    0.88980    1.000
    C164     C        0.98830    0.98350    0.89960    1.000
    H131     H        0.96610    0.98350    0.91480    1.000
    C165     C        0.04430    0.92130    0.85150    1.000
    H132     H        0.02740    0.90030    0.85030    1.000
    N129     N        0.00100    0.94940    0.89060    1.000
    N130     N        0.03480    0.95280    0.86980    1.000
    C166     C        0.08230    0.91958    0.83270    1.000
    C167     C        0.10200    0.89400    0.80960    1.000
    H133     H        0.09600    0.86790    0.80650    1.000
    C168     C        0.12825    0.94970    0.80437    1.000
    H134     H        0.14510    0.96940    0.79700    1.000
    N131     N        0.03601    0.03499    0.87100    1.000
    N132     N        0.00481    0.08614    0.89542    1.000
    N133     N        0.09881    0.95519    0.82826    1.000
    N134     N        0.13149    0.91295    0.79177    1.000
    Cu17     Cu       0.08173    0.00098    0.85991    1.000
    C169     C        0.00090    0.98000    0.88710    1.000
    H135     H        0.97820    0.96710    0.89390    1.000
    C170     C        0.05220    0.90490    0.85920    1.000
    H136     H        0.05250    0.87810    0.86180    1.000
    N135     N        0.03080    0.96100    0.87520    1.000
    N136     N        0.02530    0.92170    0.87960    1.000
    Zn17     Zn       0.99902    0.14009    0.91827    1.000
    C171     C        0.53517    0.57321    0.37558    1.000
    H137     H        0.55420    0.58950    0.36570    1.000
    C172     C        0.48498    0.55365    0.40413    1.000
    H138     H        0.46190    0.55300    0.41810    1.000
    C173     C        0.50326    0.52221    0.38980    1.000
    C174     C        0.48830    0.48350    0.39960    1.000
    H139     H        0.46610    0.48350    0.41480    1.000
    C175     C        0.54430    0.42130    0.35150    1.000
    H140     H        0.52740    0.40030    0.35030    1.000
    N137     N        0.50100    0.44940    0.39060    1.000
    N138     N        0.53480    0.45280    0.36980    1.000
    C176     C        0.58230    0.41958    0.33270    1.000
    C177     C        0.60200    0.39400    0.30960    1.000
    H141     H        0.59600    0.36790    0.30650    1.000
    C178     C        0.62825    0.44970    0.30437    1.000
    H142     H        0.64510    0.46940    0.29700    1.000
    N139     N        0.53601    0.53499    0.37100    1.000
    N140     N        0.50481    0.58614    0.39542    1.000
    N141     N        0.59881    0.45519    0.32826    1.000
    N142     N        0.63149    0.41295    0.29177    1.000
    Cu18     Cu       0.58173    0.50098    0.35991    1.000
    C179     C        0.50090    0.48000    0.38710    1.000
    H143     H        0.47820    0.46710    0.39390    1.000
    C180     C        0.55220    0.40490    0.35920    1.000
    H144     H        0.55250    0.37810    0.36180    1.000
    N143     N        0.53080    0.46100    0.37520    1.000
    N144     N        0.52530    0.42170    0.37960    1.000
    Zn18     Zn       0.49902    0.64009    0.41827    1.000
    C181     C        0.96483    0.57321    0.62442    1.000
    H145     H        0.94580    0.58950    0.63430    1.000
    C182     C        0.01502    0.55365    0.59587    1.000
    H146     H        0.03810    0.55300    0.58190    1.000
    C183     C        0.99674    0.52221    0.61020    1.000
    C184     C        0.01170    0.48350    0.60040    1.000
    H147     H        0.03390    0.48350    0.58520    1.000
    C185     C        0.95570    0.42130    0.64850    1.000
    H148     H        0.97260    0.40030    0.64970    1.000
    N145     N        0.99900    0.44940    0.60940    1.000
    N146     N        0.96520    0.45280    0.63020    1.000
    C186     C        0.91770    0.41958    0.66730    1.000
    C187     C        0.89800    0.39400    0.69040    1.000
    H149     H        0.90400    0.36790    0.69350    1.000
    C188     C        0.87175    0.44970    0.69563    1.000
    H150     H        0.85490    0.46940    0.70300    1.000
    N147     N        0.96399    0.53499    0.62900    1.000
    N148     N        0.99519    0.58614    0.60458    1.000
    N149     N        0.90119    0.45519    0.67174    1.000
    N150     N        0.86851    0.41295    0.70823    1.000
    Cu19     Cu       0.91827    0.50098    0.64009    1.000
    C189     C        0.99910    0.48000    0.61290    1.000
    H151     H        0.02180    0.46710    0.60610    1.000
    C190     C        0.94780    0.40490    0.64080    1.000
    H152     H        0.94750    0.37810    0.63820    1.000
    N151     N        0.96920    0.46100    0.62480    1.000
    N152     N        0.97470    0.42170    0.62040    1.000
    Zn19     Zn       0.00098    0.64009    0.58173    1.000
    C191     C        0.46483    0.07321    0.12442    1.000
    H153     H        0.44580    0.08950    0.13430    1.000
    C192     C        0.51502    0.05365    0.09587    1.000
    H154     H        0.53810    0.05300    0.08190    1.000
    C193     C        0.49674    0.02221    0.11020    1.000
    C194     C        0.51170    0.98350    0.10040    1.000
    H155     H        0.53390    0.98350    0.08520    1.000
    C195     C        0.45570    0.92130    0.14850    1.000
    H156     H        0.47260    0.90030    0.14970    1.000
    N153     N        0.49900    0.94940    0.10940    1.000
    N154     N        0.46520    0.95280    0.13020    1.000
    C196     C        0.41770    0.91958    0.16730    1.000
    C197     C        0.39800    0.89400    0.19040    1.000
    H157     H        0.40400    0.86790    0.19350    1.000
    C198     C        0.37175    0.94970    0.19563    1.000
    H158     H        0.35490    0.96940    0.20300    1.000
    N155     N        0.46399    0.03499    0.12900    1.000
    N156     N        0.49519    0.08614    0.10458    1.000
    N157     N        0.40119    0.95519    0.17174    1.000
    N158     N        0.36851    0.91295    0.20823    1.000
    Cu20     Cu       0.41827    0.00098    0.14009    1.000
    C199     C        0.49910    0.98000    0.11290    1.000
    H159     H        0.52180    0.96710    0.10610    1.000
    C200     C        0.44780    0.90490    0.14080    1.000
    H160     H        0.44750    0.87810    0.13820    1.000
    N159     N        0.46920    0.96100    0.12480    1.000
    N160     N        0.47470    0.92170    0.12040    1.000
    Zn20     Zn       0.50098    0.14009    0.08173    1.000
    C201     C        0.53517    0.42679    0.12442    1.000
    H161     H        0.55420    0.41050    0.13430    1.000
    C202     C        0.48498    0.44635    0.09587    1.000
    H162     H        0.46190    0.44700    0.08190    1.000
    C203     C        0.50326    0.47779    0.11020    1.000
    C204     C        0.48830    0.51650    0.10040    1.000
    H163     H        0.46610    0.51650    0.08520    1.000
    C205     C        0.54430    0.57870    0.14850    1.000
    H164     H        0.52740    0.59970    0.14970    1.000
    N161     N        0.50100    0.55060    0.10940    1.000
    N162     N        0.53480    0.54720    0.13020    1.000
    C206     C        0.58230    0.58042    0.16730    1.000
    C207     C        0.60200    0.60600    0.19040    1.000
    H165     H        0.59600    0.63210    0.19350    1.000
    C208     C        0.62825    0.55030    0.19563    1.000
    H166     H        0.64510    0.53060    0.20300    1.000
    N163     N        0.53601    0.46501    0.12900    1.000
    N164     N        0.50481    0.41386    0.10458    1.000
    N165     N        0.59881    0.54481    0.17174    1.000
    N166     N        0.63149    0.58705    0.20823    1.000
    Cu21     Cu       0.58173    0.49902    0.14009    1.000
    C209     C        0.50090    0.52000    0.11290    1.000
    H167     H        0.47820    0.53290    0.10610    1.000
    C210     C        0.55220    0.59510    0.14080    1.000
    H168     H        0.55250    0.62190    0.13820    1.000
    N167     N        0.53080    0.53900    0.12480    1.000
    N168     N        0.52530    0.57830    0.12040    1.000
    Zn21     Zn       0.49902    0.35991    0.08173    1.000
    C211     C        0.03517    0.92679    0.62442    1.000
    H169     H        0.05420    0.91050    0.63430    1.000
    C212     C        0.98498    0.94635    0.59587    1.000
    H170     H        0.96190    0.94700    0.58190    1.000
    C213     C        0.00326    0.97779    0.61020    1.000
    C214     C        0.98830    0.01650    0.60040    1.000
    H171     H        0.96610    0.01650    0.58520    1.000
    C215     C        0.04430    0.07870    0.64850    1.000
    H172     H        0.02740    0.09970    0.64970    1.000
    N169     N        0.00100    0.05060    0.60940    1.000
    N170     N        0.03480    0.04720    0.63020    1.000
    C216     C        0.08230    0.08042    0.66730    1.000
    C217     C        0.10200    0.10600    0.69040    1.000
    H173     H        0.09600    0.13210    0.69350    1.000
    C218     C        0.12825    0.05030    0.69563    1.000
    H174     H        0.14510    0.03060    0.70300    1.000
    N171     N        0.03601    0.96501    0.62900    1.000
    N172     N        0.00481    0.91386    0.60458    1.000
    N173     N        0.09881    0.04481    0.67174    1.000
    N174     N        0.13149    0.08705    0.70823    1.000
    Cu22     Cu       0.08173    0.99902    0.64009    1.000
    C219     C        0.00090    0.02000    0.61290    1.000
    H175     H        0.97820    0.03290    0.60610    1.000
    C220     C        0.05220    0.09510    0.64080    1.000
    H176     H        0.05250    0.12190    0.63820    1.000
    N175     N        0.03080    0.03900    0.62480    1.000
    N176     N        0.02530    0.07830    0.62040    1.000
    Zn22     Zn       0.99902    0.85991    0.58173    1.000
    C221     C        0.46483    0.92679    0.37558    1.000
    H177     H        0.44580    0.91050    0.36570    1.000
    C222     C        0.51502    0.94635    0.40413    1.000
    H178     H        0.53810    0.94700    0.41810    1.000
    C223     C        0.49674    0.97779    0.38980    1.000
    C224     C        0.51170    0.01650    0.39960    1.000
    H179     H        0.53390    0.01650    0.41480    1.000
    C225     C        0.45570    0.07870    0.35150    1.000
    H180     H        0.47260    0.09970    0.35030    1.000
    N177     N        0.49900    0.05060    0.39060    1.000
    N178     N        0.46520    0.04720    0.36980    1.000
    C226     C        0.41770    0.08042    0.33270    1.000
    C227     C        0.39800    0.10600    0.30960    1.000
    H181     H        0.40400    0.13210    0.30650    1.000
    C228     C        0.37175    0.05030    0.30437    1.000
    H182     H        0.35490    0.03060    0.29700    1.000
    N179     N        0.46399    0.96501    0.37100    1.000
    N180     N        0.49519    0.91386    0.39542    1.000
    N181     N        0.40119    0.04481    0.32826    1.000
    N182     N        0.36851    0.08705    0.29177    1.000
    Cu23     Cu       0.41827    0.99902    0.35991    1.000
    C229     C        0.49910    0.02000    0.38710    1.000
    H183     H        0.52180    0.03290    0.39390    1.000
    C230     C        0.44780    0.09510    0.35920    1.000
    H184     H        0.44750    0.12190    0.36180    1.000
    N183     N        0.46920    0.03900    0.37520    1.000
    N184     N        0.47470    0.07830    0.37960    1.000
    Zn23     Zn       0.50098    0.85991    0.41827    1.000
    C231     C        0.96483    0.42679    0.87558    1.000
    H185     H        0.94580    0.41050    0.86570    1.000
    C232     C        0.01502    0.44635    0.90413    1.000
    H186     H        0.03810    0.44700    0.91810    1.000
    C233     C        0.99674    0.47779    0.88980    1.000
    C234     C        0.01170    0.51650    0.89960    1.000
    H187     H        0.03390    0.51650    0.91480    1.000
    C235     C        0.95570    0.57870    0.85150    1.000
    H188     H        0.97260    0.59970    0.85030    1.000
    N185     N        0.99900    0.55060    0.89060    1.000
    N186     N        0.96520    0.54720    0.86980    1.000
    C236     C        0.91770    0.58042    0.83270    1.000
    C237     C        0.89800    0.60600    0.80960    1.000
    H189     H        0.90400    0.63210    0.80650    1.000
    C238     C        0.87175    0.55030    0.80437    1.000
    H190     H        0.85490    0.53060    0.79700    1.000
    N187     N        0.96399    0.46501    0.87100    1.000
    N188     N        0.99519    0.41386    0.89542    1.000
    N189     N        0.90119    0.54481    0.82826    1.000
    N190     N        0.86851    0.58705    0.79177    1.000
    Cu24     Cu       0.91827    0.49902    0.85991    1.000
    C239     C        0.99910    0.52000    0.88710    1.000
    H191     H        0.02180    0.53290    0.89390    1.000
    C240     C        0.94780    0.59510    0.85920    1.000
    H192     H        0.94750    0.62190    0.86180    1.000
    N191     N        0.96920    0.53900    0.87520    1.000
    N192     N        0.97470    0.57830    0.87960    1.000
    Zn24     Zn       0.00098    0.35991    0.91827    1.000
    C241     C        0.78517    0.12558    0.17679    1.000
    H193     H        0.80420    0.11570    0.16050    1.000
    C242     C        0.73498    0.15413    0.19635    1.000
    H194     H        0.71190    0.16810    0.19700    1.000
    C243     C        0.75326    0.13980    0.22779    1.000
    C244     C        0.73830    0.14960    0.26650    1.000
    H195     H        0.71610    0.16480    0.26650    1.000
    C245     C        0.79430    0.10150    0.32870    1.000
    H196     H        0.77740    0.10030    0.34970    1.000
    N193     N        0.75100    0.14060    0.30060    1.000
    N194     N        0.78480    0.11980    0.29720    1.000
    C246     C        0.83230    0.08270    0.33042    1.000
    C247     C        0.85200    0.05960    0.35600    1.000
    H197     H        0.84600    0.05650    0.38210    1.000
    C248     C        0.87825    0.05437    0.30030    1.000
    H198     H        0.89510    0.04700    0.28060    1.000
    N195     N        0.78601    0.12100    0.21501    1.000
    N196     N        0.75481    0.14542    0.16386    1.000
    N197     N        0.84881    0.07826    0.29481    1.000
    N198     N        0.88149    0.04177    0.33705    1.000
    Cu25     Cu       0.83173    0.10991    0.24902    1.000
    C249     C        0.75090    0.13710    0.27000    1.000
    H199     H        0.72820    0.14390    0.28290    1.000
    C250     C        0.80220    0.10920    0.34510    1.000
    H200     H        0.80250    0.11180    0.37190    1.000
    N199     N        0.78080    0.12520    0.28900    1.000
    N200     N        0.77530    0.12960    0.32830    1.000
    Zn25     Zn       0.74902    0.16827    0.10991    1.000
    C251     C        0.28517    0.62558    0.67679    1.000
    H201     H        0.30420    0.61570    0.66050    1.000
    C252     C        0.23498    0.65413    0.69635    1.000
    H202     H        0.21190    0.66810    0.69700    1.000
    C253     C        0.25326    0.63980    0.72779    1.000
    C254     C        0.23830    0.64960    0.76650    1.000
    H203     H        0.21610    0.66480    0.76650    1.000
    C255     C        0.29430    0.60150    0.82870    1.000
    H204     H        0.27740    0.60030    0.84970    1.000
    N201     N        0.25100    0.64060    0.80060    1.000
    N202     N        0.28480    0.61980    0.79720    1.000
    C256     C        0.33230    0.58270    0.83042    1.000
    C257     C        0.35200    0.55960    0.85600    1.000
    H205     H        0.34600    0.55650    0.88210    1.000
    C258     C        0.37825    0.55437    0.80030    1.000
    H206     H        0.39510    0.54700    0.78060    1.000
    N203     N        0.28601    0.62100    0.71501    1.000
    N204     N        0.25481    0.64542    0.66386    1.000
    N205     N        0.34881    0.57826    0.79481    1.000
    N206     N        0.38149    0.54177    0.83705    1.000
    Cu26     Cu       0.33173    0.60991    0.74902    1.000
    C259     C        0.25090    0.63710    0.77000    1.000
    H207     H        0.22820    0.64390    0.78290    1.000
    C260     C        0.30220    0.60920    0.84510    1.000
    H208     H        0.30250    0.61180    0.87190    1.000
    N207     N        0.28080    0.62520    0.78900    1.000
    N208     N        0.27530    0.62960    0.82830    1.000
    Zn26     Zn       0.24902    0.66827    0.60991    1.000
    C261     C        0.71483    0.87442    0.67679    1.000
    H209     H        0.69580    0.88430    0.66050    1.000
    C262     C        0.76502    0.84587    0.69635    1.000
    H210     H        0.78810    0.83190    0.69700    1.000
    C263     C        0.74674    0.86020    0.72779    1.000
    C264     C        0.76170    0.85040    0.76650    1.000
    H211     H        0.78390    0.83520    0.76650    1.000
    C265     C        0.70570    0.89850    0.82870    1.000
    H212     H        0.72260    0.89970    0.84970    1.000
    N209     N        0.74900    0.85940    0.80060    1.000
    N210     N        0.71520    0.88020    0.79720    1.000
    C266     C        0.66770    0.91730    0.83042    1.000
    C267     C        0.64800    0.94040    0.85600    1.000
    H213     H        0.65400    0.94350    0.88210    1.000
    C268     C        0.62175    0.94563    0.80030    1.000
    H214     H        0.60490    0.95300    0.78060    1.000
    N211     N        0.71399    0.87900    0.71501    1.000
    N212     N        0.74519    0.85458    0.66386    1.000
    N213     N        0.65119    0.92174    0.79481    1.000
    N214     N        0.61851    0.95823    0.83705    1.000
    Cu27     Cu       0.66827    0.89009    0.74902    1.000
    C269     C        0.74910    0.86290    0.77000    1.000
    H215     H        0.77180    0.85610    0.78290    1.000
    C270     C        0.69780    0.89080    0.84510    1.000
    H216     H        0.69750    0.88820    0.87190    1.000
    N215     N        0.71920    0.87480    0.78900    1.000
    N216     N        0.72470    0.87040    0.82830    1.000
    Zn27     Zn       0.75098    0.83173    0.60991    1.000
    C271     C        0.21483    0.37442    0.17679    1.000
    H217     H        0.19580    0.38430    0.16050    1.000
    C272     C        0.26502    0.34587    0.19635    1.000
    H218     H        0.28810    0.33190    0.19700    1.000
    C273     C        0.24674    0.36020    0.22779    1.000
    C274     C        0.26170    0.35040    0.26650    1.000
    H219     H        0.28390    0.33520    0.26650    1.000
    C275     C        0.20570    0.39850    0.32870    1.000
    H220     H        0.22260    0.39970    0.34970    1.000
    N217     N        0.24900    0.35940    0.30060    1.000
    N218     N        0.21520    0.38020    0.29720    1.000
    C276     C        0.16770    0.41730    0.33042    1.000
    C277     C        0.14800    0.44040    0.35600    1.000
    H221     H        0.15400    0.44350    0.38210    1.000
    C278     C        0.12175    0.44563    0.30030    1.000
    H222     H        0.10490    0.45300    0.28060    1.000
    N219     N        0.21399    0.37900    0.21501    1.000
    N220     N        0.24519    0.35458    0.16386    1.000
    N221     N        0.15119    0.42174    0.29481    1.000
    N222     N        0.11851    0.45823    0.33705    1.000
    Cu28     Cu       0.16827    0.39009    0.24902    1.000
    C279     C        0.24910    0.36290    0.27000    1.000
    H223     H        0.27180    0.35610    0.28290    1.000
    C280     C        0.19780    0.39080    0.34510    1.000
    H224     H        0.19750    0.38820    0.37190    1.000
    N223     N        0.21920    0.37480    0.28900    1.000
    N224     N        0.22470    0.37040    0.32830    1.000
    Zn28     Zn       0.25098    0.33173    0.10991    1.000
    C281     C        0.28517    0.37442    0.82321    1.000
    H225     H        0.30420    0.38430    0.83950    1.000
    C282     C        0.23498    0.34587    0.80365    1.000
    H226     H        0.21190    0.33190    0.80300    1.000
    C283     C        0.25326    0.36020    0.77221    1.000
    C284     C        0.23830    0.35040    0.73350    1.000
    H227     H        0.21610    0.33520    0.73350    1.000
    C285     C        0.29430    0.39850    0.67130    1.000
    H228     H        0.27740    0.39970    0.65030    1.000
    N225     N        0.25100    0.35940    0.69940    1.000
    N226     N        0.28480    0.38020    0.70280    1.000
    C286     C        0.33230    0.41730    0.66958    1.000
    C287     C        0.35200    0.44040    0.64400    1.000
    H229     H        0.34600    0.44350    0.61790    1.000
    C288     C        0.37825    0.44563    0.69970    1.000
    H230     H        0.39510    0.45300    0.71940    1.000
    N227     N        0.28601    0.37900    0.78499    1.000
    N228     N        0.25481    0.35458    0.83614    1.000
    N229     N        0.34881    0.42174    0.70519    1.000
    N230     N        0.38149    0.45823    0.66295    1.000
    Cu29     Cu       0.33173    0.39009    0.75098    1.000
    C289     C        0.25090    0.36290    0.73000    1.000
    H231     H        0.22820    0.35610    0.71710    1.000
    C290     C        0.30220    0.39080    0.65490    1.000
    H232     H        0.30250    0.38820    0.62810    1.000
    N231     N        0.28080    0.37480    0.71100    1.000
    N232     N        0.27530    0.37040    0.67170    1.000
    Zn29     Zn       0.24902    0.33173    0.89009    1.000
    C291     C        0.78517    0.87442    0.32321    1.000
    H233     H        0.80420    0.88430    0.33950    1.000
    C292     C        0.73498    0.84587    0.30365    1.000
    H234     H        0.71190    0.83190    0.30300    1.000
    C293     C        0.75326    0.86020    0.27221    1.000
    C294     C        0.73830    0.85040    0.23350    1.000
    H235     H        0.71610    0.83520    0.23350    1.000
    C295     C        0.79430    0.89850    0.17130    1.000
    H236     H        0.77740    0.89970    0.15030    1.000
    N233     N        0.75100    0.85940    0.19940    1.000
    N234     N        0.78480    0.88020    0.20280    1.000
    C296     C        0.83230    0.91730    0.16958    1.000
    C297     C        0.85200    0.94040    0.14400    1.000
    H237     H        0.84600    0.94350    0.11790    1.000
    C298     C        0.87825    0.94563    0.19970    1.000
    H238     H        0.89510    0.95300    0.21940    1.000
    N235     N        0.78601    0.87900    0.28499    1.000
    N236     N        0.75481    0.85458    0.33614    1.000
    N237     N        0.84881    0.92174    0.20519    1.000
    N238     N        0.88149    0.95823    0.16295    1.000
    Cu30     Cu       0.83173    0.89009    0.25098    1.000
    C299     C        0.75090    0.86290    0.23000    1.000
    H239     H        0.72820    0.85610    0.21710    1.000
    C300     C        0.80220    0.89080    0.15490    1.000
    H240     H        0.80250    0.88820    0.12810    1.000
    N239     N        0.78080    0.87480    0.21100    1.000
    N240     N        0.77530    0.87040    0.17170    1.000
    Zn30     Zn       0.74902    0.83173    0.39009    1.000
    C301     C        0.21483    0.62558    0.32321    1.000
    H241     H        0.19580    0.61570    0.33950    1.000
    C302     C        0.26502    0.65413    0.30365    1.000
    H242     H        0.28810    0.66810    0.30300    1.000
    C303     C        0.24674    0.63980    0.27221    1.000
    C304     C        0.26170    0.64960    0.23350    1.000
    H243     H        0.28390    0.66480    0.23350    1.000
    C305     C        0.20570    0.60150    0.17130    1.000
    H244     H        0.22260    0.60030    0.15030    1.000
    N241     N        0.24900    0.64060    0.19940    1.000
    N242     N        0.21520    0.61980    0.20280    1.000
    C306     C        0.16770    0.58270    0.16958    1.000
    C307     C        0.14800    0.55960    0.14400    1.000
    H245     H        0.15400    0.55650    0.11790    1.000
    C308     C        0.12175    0.55437    0.19970    1.000
    H246     H        0.10490    0.54700    0.21940    1.000
    N243     N        0.21399    0.62100    0.28499    1.000
    N244     N        0.24519    0.64542    0.33614    1.000
    N245     N        0.15119    0.57826    0.20519    1.000
    N246     N        0.11851    0.54177    0.16295    1.000
    Cu31     Cu       0.16827    0.60991    0.25098    1.000
    C309     C        0.24910    0.63710    0.23000    1.000
    H247     H        0.27180    0.64390    0.21710    1.000
    C310     C        0.19780    0.60920    0.15490    1.000
    H248     H        0.19750    0.61180    0.12810    1.000
    N247     N        0.21920    0.62520    0.21100    1.000
    N248     N        0.22470    0.62960    0.17170    1.000
    Zn31     Zn       0.25098    0.66827    0.39009    1.000
    C311     C        0.71483    0.12558    0.82321    1.000
    H249     H        0.69580    0.11570    0.83950    1.000
    C312     C        0.76502    0.15413    0.80365    1.000
    H250     H        0.78810    0.16810    0.80300    1.000
    C313     C        0.74674    0.13980    0.77221    1.000
    C314     C        0.76170    0.14960    0.73350    1.000
    H251     H        0.78390    0.16480    0.73350    1.000
    C315     C        0.70570    0.10150    0.67130    1.000
    H252     H        0.72260    0.10030    0.65030    1.000
    N249     N        0.74900    0.14060    0.69940    1.000
    N250     N        0.71520    0.11980    0.70280    1.000
    C316     C        0.66770    0.08270    0.66958    1.000
    C317     C        0.64800    0.05960    0.64400    1.000
    H253     H        0.65400    0.05650    0.61790    1.000
    C318     C        0.62175    0.05437    0.69970    1.000
    H254     H        0.60490    0.04700    0.71940    1.000
    N251     N        0.71399    0.12100    0.78499    1.000
    N252     N        0.74519    0.14542    0.83614    1.000
    N253     N        0.65119    0.07826    0.70519    1.000
    N254     N        0.61851    0.04177    0.66295    1.000
    Cu32     Cu       0.66827    0.10991    0.75098    1.000
    C319     C        0.74910    0.13710    0.73000    1.000
    H255     H        0.77180    0.14390    0.71710    1.000
    C320     C        0.69780    0.10920    0.65490    1.000
    H256     H        0.69750    0.11180    0.62810    1.000
    N255     N        0.71920    0.12520    0.71100    1.000
    N256     N        0.72470    0.12960    0.67170    1.000
    Zn32     Zn       0.75098    0.16827    0.89009    1.000
    C321     C        0.62558    0.32321    0.21483    1.000
    H257     H        0.61570    0.33950    0.19580    1.000
    C322     C        0.65413    0.30365    0.26502    1.000
    H258     H        0.66810    0.30300    0.28810    1.000
    C323     C        0.63980    0.27221    0.24674    1.000
    C324     C        0.64960    0.23350    0.26170    1.000
    H259     H        0.66480    0.23350    0.28390    1.000
    C325     C        0.60150    0.17130    0.20570    1.000
    H260     H        0.60030    0.15030    0.22260    1.000
    N257     N        0.64060    0.19940    0.24900    1.000
    N258     N        0.61980    0.20280    0.21520    1.000
    C326     C        0.58270    0.16958    0.16770    1.000
    C327     C        0.55960    0.14400    0.14800    1.000
    H261     H        0.55650    0.11790    0.15400    1.000
    C328     C        0.55437    0.19970    0.12175    1.000
    H262     H        0.54700    0.21940    0.10490    1.000
    N259     N        0.62100    0.28499    0.21399    1.000
    N260     N        0.64542    0.33614    0.24519    1.000
    N261     N        0.57826    0.20519    0.15119    1.000
    N262     N        0.54177    0.16295    0.11851    1.000
    Cu33     Cu       0.60991    0.25098    0.16827    1.000
    C329     C        0.63710    0.23000    0.24910    1.000
    H263     H        0.64390    0.21710    0.27180    1.000
    C330     C        0.60920    0.15490    0.19780    1.000
    H264     H        0.61180    0.12810    0.19750    1.000
    N263     N        0.62520    0.21100    0.21920    1.000
    N264     N        0.62960    0.17170    0.22470    1.000
    Zn33     Zn       0.66827    0.39009    0.25098    1.000
    C331     C        0.12558    0.82321    0.71483    1.000
    H265     H        0.11570    0.83950    0.69580    1.000
    C332     C        0.15413    0.80365    0.76502    1.000
    H266     H        0.16810    0.80300    0.78810    1.000
    C333     C        0.13980    0.77221    0.74674    1.000
    C334     C        0.14960    0.73350    0.76170    1.000
    H267     H        0.16480    0.73350    0.78390    1.000
    C335     C        0.10150    0.67130    0.70570    1.000
    H268     H        0.10030    0.65030    0.72260    1.000
    N265     N        0.14060    0.69940    0.74900    1.000
    N266     N        0.11980    0.70280    0.71520    1.000
    C336     C        0.08270    0.66958    0.66770    1.000
    C337     C        0.05960    0.64400    0.64800    1.000
    H269     H        0.05650    0.61790    0.65400    1.000
    C338     C        0.05437    0.69970    0.62175    1.000
    H270     H        0.04700    0.71940    0.60490    1.000
    N267     N        0.12100    0.78499    0.71399    1.000
    N268     N        0.14542    0.83614    0.74519    1.000
    N269     N        0.07826    0.70519    0.65119    1.000
    N270     N        0.04177    0.66295    0.61851    1.000
    Cu34     Cu       0.10991    0.75098    0.66827    1.000
    C339     C        0.13710    0.73000    0.74910    1.000
    H271     H        0.14390    0.71710    0.77180    1.000
    C340     C        0.10920    0.65490    0.69780    1.000
    H272     H        0.11180    0.62810    0.69750    1.000
    N271     N        0.12520    0.71100    0.71920    1.000
    N272     N        0.12960    0.67170    0.72470    1.000
    Zn34     Zn       0.16827    0.89009    0.75098    1.000
    C341     C        0.37442    0.82321    0.28517    1.000
    H273     H        0.38430    0.83950    0.30420    1.000
    C342     C        0.34587    0.80365    0.23498    1.000
    H274     H        0.33190    0.80300    0.21190    1.000
    C343     C        0.36020    0.77221    0.25326    1.000
    C344     C        0.35040    0.73350    0.23830    1.000
    H275     H        0.33520    0.73350    0.21610    1.000
    C345     C        0.39850    0.67130    0.29430    1.000
    H276     H        0.39970    0.65030    0.27740    1.000
    N273     N        0.35940    0.69940    0.25100    1.000
    N274     N        0.38020    0.70280    0.28480    1.000
    C346     C        0.41730    0.66958    0.33230    1.000
    C347     C        0.44040    0.64400    0.35200    1.000
    H277     H        0.44350    0.61790    0.34600    1.000
    C348     C        0.44563    0.69970    0.37825    1.000
    H278     H        0.45300    0.71940    0.39510    1.000
    N275     N        0.37900    0.78499    0.28601    1.000
    N276     N        0.35458    0.83614    0.25481    1.000
    N277     N        0.42174    0.70519    0.34881    1.000
    N278     N        0.45823    0.66295    0.38149    1.000
    Cu35     Cu       0.39009    0.75098    0.33173    1.000
    C349     C        0.36290    0.73000    0.25090    1.000
    H279     H        0.35610    0.71710    0.22820    1.000
    C350     C        0.39080    0.65490    0.30220    1.000
    H280     H        0.38820    0.62810    0.30250    1.000
    N279     N        0.37480    0.71100    0.28080    1.000
    N280     N        0.37040    0.67170    0.27530    1.000
    Zn35     Zn       0.33173    0.89009    0.24902    1.000
    C351     C        0.87442    0.32321    0.78517    1.000
    H281     H        0.88430    0.33950    0.80420    1.000
    C352     C        0.84587    0.30365    0.73498    1.000
    H282     H        0.83190    0.30300    0.71190    1.000
    C353     C        0.86020    0.27221    0.75326    1.000
    C354     C        0.85040    0.23350    0.73830    1.000
    H283     H        0.83520    0.23350    0.71610    1.000
    C355     C        0.89850    0.17130    0.79430    1.000
    H284     H        0.89970    0.15030    0.77740    1.000
    N281     N        0.85940    0.19940    0.75100    1.000
    N282     N        0.88020    0.20280    0.78480    1.000
    C356     C        0.91730    0.16958    0.83230    1.000
    C357     C        0.94040    0.14400    0.85200    1.000
    H285     H        0.94350    0.11790    0.84600    1.000
    C358     C        0.94563    0.19970    0.87825    1.000
    H286     H        0.95300    0.21940    0.89510    1.000
    N283     N        0.87900    0.28499    0.78601    1.000
    N284     N        0.85458    0.33614    0.75481    1.000
    N285     N        0.92174    0.20519    0.84881    1.000
    N286     N        0.95823    0.16295    0.88149    1.000
    Cu36     Cu       0.89009    0.25098    0.83173    1.000
    C359     C        0.86290    0.23000    0.75090    1.000
    H287     H        0.85610    0.21710    0.72820    1.000
    C360     C        0.89080    0.15490    0.80220    1.000
    H288     H        0.88820    0.12810    0.80250    1.000
    N287     N        0.87480    0.21100    0.78080    1.000
    N288     N        0.87040    0.17170    0.77530    1.000
    Zn36     Zn       0.83173    0.39009    0.74902    1.000
    C361     C        0.87442    0.67679    0.71483    1.000
    H289     H        0.88430    0.66050    0.69580    1.000
    C362     C        0.84587    0.69635    0.76502    1.000
    H290     H        0.83190    0.69700    0.78810    1.000
    C363     C        0.86020    0.72779    0.74674    1.000
    C364     C        0.85040    0.76650    0.76170    1.000
    H291     H        0.83520    0.76650    0.78390    1.000
    C365     C        0.89850    0.82870    0.70570    1.000
    H292     H        0.89970    0.84970    0.72260    1.000
    N289     N        0.85940    0.80060    0.74900    1.000
    N290     N        0.88020    0.79720    0.71520    1.000
    C366     C        0.91730    0.83042    0.66770    1.000
    C367     C        0.94040    0.85600    0.64800    1.000
    H293     H        0.94350    0.88210    0.65400    1.000
    C368     C        0.94563    0.80030    0.62175    1.000
    H294     H        0.95300    0.78060    0.60490    1.000
    N291     N        0.87900    0.71501    0.71399    1.000
    N292     N        0.85458    0.66386    0.74519    1.000
    N293     N        0.92174    0.79481    0.65119    1.000
    N294     N        0.95823    0.83705    0.61851    1.000
    Cu37     Cu       0.89009    0.74902    0.66827    1.000
    C369     C        0.86290    0.77000    0.74910    1.000
    H295     H        0.85610    0.78290    0.77180    1.000
    C370     C        0.89080    0.84510    0.69780    1.000
    H296     H        0.88820    0.87190    0.69750    1.000
    N295     N        0.87480    0.78900    0.71920    1.000
    N296     N        0.87040    0.82830    0.72470    1.000
    Zn37     Zn       0.83173    0.60991    0.75098    1.000
    C371     C        0.37442    0.17679    0.21483    1.000
    H297     H        0.38430    0.16050    0.19580    1.000
    C372     C        0.34587    0.19635    0.26502    1.000
    H298     H        0.33190    0.19700    0.28810    1.000
    C373     C        0.36020    0.22779    0.24674    1.000
    C374     C        0.35040    0.26650    0.26170    1.000
    H299     H        0.33520    0.26650    0.28390    1.000
    C375     C        0.39850    0.32870    0.20570    1.000
    H300     H        0.39970    0.34970    0.22260    1.000
    N297     N        0.35940    0.30060    0.24900    1.000
    N298     N        0.38020    0.29720    0.21520    1.000
    C376     C        0.41730    0.33042    0.16770    1.000
    C377     C        0.44040    0.35600    0.14800    1.000
    H301     H        0.44350    0.38210    0.15400    1.000
    C378     C        0.44563    0.30030    0.12175    1.000
    H302     H        0.45300    0.28060    0.10490    1.000
    N299     N        0.37900    0.21501    0.21399    1.000
    N300     N        0.35458    0.16386    0.24519    1.000
    N301     N        0.42174    0.29481    0.15119    1.000
    N302     N        0.45823    0.33705    0.11851    1.000
    Cu38     Cu       0.39009    0.24902    0.16827    1.000
    C379     C        0.36290    0.27000    0.24910    1.000
    H303     H        0.35610    0.28290    0.27180    1.000
    C380     C        0.39080    0.34510    0.19780    1.000
    H304     H        0.38820    0.37190    0.19750    1.000
    N303     N        0.37480    0.28900    0.21920    1.000
    N304     N        0.37040    0.32830    0.22470    1.000
    Zn38     Zn       0.33173    0.10991    0.25098    1.000
    C381     C        0.12558    0.17679    0.78517    1.000
    H305     H        0.11570    0.16050    0.80420    1.000
    C382     C        0.15413    0.19635    0.73498    1.000
    H306     H        0.16810    0.19700    0.71190    1.000
    C383     C        0.13980    0.22779    0.75326    1.000
    C384     C        0.14960    0.26650    0.73830    1.000
    H307     H        0.16480    0.26650    0.71610    1.000
    C385     C        0.10150    0.32870    0.79430    1.000
    H308     H        0.10030    0.34970    0.77740    1.000
    N305     N        0.14060    0.30060    0.75100    1.000
    N306     N        0.11980    0.29720    0.78480    1.000
    C386     C        0.08270    0.33042    0.83230    1.000
    C387     C        0.05960    0.35600    0.85200    1.000
    H309     H        0.05650    0.38210    0.84600    1.000
    C388     C        0.05437    0.30030    0.87825    1.000
    H310     H        0.04700    0.28060    0.89510    1.000
    N307     N        0.12100    0.21501    0.78601    1.000
    N308     N        0.14542    0.16386    0.75481    1.000
    N309     N        0.07826    0.29481    0.84881    1.000
    N310     N        0.04177    0.33705    0.88149    1.000
    Cu39     Cu       0.10991    0.24902    0.83173    1.000
    C389     C        0.13710    0.27000    0.75090    1.000
    H311     H        0.14390    0.28290    0.72820    1.000
    C390     C        0.10920    0.34510    0.80220    1.000
    H312     H        0.11180    0.37190    0.80250    1.000
    N311     N        0.12520    0.28900    0.78080    1.000
    N312     N        0.12960    0.32830    0.77530    1.000
    Zn39     Zn       0.16827    0.10991    0.74902    1.000
    C391     C        0.62558    0.67679    0.28517    1.000
    H313     H        0.61570    0.66050    0.30420    1.000
    C392     C        0.65413    0.69635    0.23498    1.000
    H314     H        0.66810    0.69700    0.21190    1.000
    C393     C        0.63980    0.72779    0.25326    1.000
    C394     C        0.64960    0.76650    0.23830    1.000
    H315     H        0.66480    0.76650    0.21610    1.000
    C395     C        0.60150    0.82870    0.29430    1.000
    H316     H        0.60030    0.84970    0.27740    1.000
    N313     N        0.64060    0.80060    0.25100    1.000
    N314     N        0.61980    0.79720    0.28480    1.000
    C396     C        0.58270    0.83042    0.33230    1.000
    C397     C        0.55960    0.85600    0.35200    1.000
    H317     H        0.55650    0.88210    0.34600    1.000
    C398     C        0.55437    0.80030    0.37825    1.000
    H318     H        0.54700    0.78060    0.39510    1.000
    N315     N        0.62100    0.71501    0.28601    1.000
    N316     N        0.64542    0.66386    0.25481    1.000
    N317     N        0.57826    0.79481    0.34881    1.000
    N318     N        0.54177    0.83705    0.38149    1.000
    Cu40     Cu       0.60991    0.74902    0.33173    1.000
    C399     C        0.63710    0.77000    0.25090    1.000
    H319     H        0.64390    0.78290    0.22820    1.000
    C400     C        0.60920    0.84510    0.30220    1.000
    H320     H        0.61180    0.87190    0.30250    1.000
    N319     N        0.62520    0.78900    0.28080    1.000
    N320     N        0.62960    0.82830    0.27530    1.000
    Zn40     Zn       0.66827    0.60991    0.24902    1.000
    C401     C        0.82321    0.28517    0.37442    1.000
    H321     H        0.83950    0.30420    0.38430    1.000
    C402     C        0.80365    0.23498    0.34587    1.000
    H322     H        0.80300    0.21190    0.33190    1.000
    C403     C        0.77221    0.25326    0.36020    1.000
    C404     C        0.73350    0.23830    0.35040    1.000
    H323     H        0.73350    0.21610    0.33520    1.000
    C405     C        0.67130    0.29430    0.39850    1.000
    H324     H        0.65030    0.27740    0.39970    1.000
    N321     N        0.69940    0.25100    0.35940    1.000
    N322     N        0.70280    0.28480    0.38020    1.000
    C406     C        0.66958    0.33230    0.41730    1.000
    C407     C        0.64400    0.35200    0.44040    1.000
    H325     H        0.61790    0.34600    0.44350    1.000
    C408     C        0.69970    0.37825    0.44563    1.000
    H326     H        0.71940    0.39510    0.45300    1.000
    N323     N        0.78499    0.28601    0.37900    1.000
    N324     N        0.83614    0.25481    0.35458    1.000
    N325     N        0.70519    0.34881    0.42174    1.000
    N326     N        0.66295    0.38149    0.45823    1.000
    Cu41     Cu       0.75098    0.33173    0.39009    1.000
    C409     C        0.73000    0.25090    0.36290    1.000
    H327     H        0.71710    0.22820    0.35610    1.000
    C410     C        0.65490    0.30220    0.39080    1.000
    H328     H        0.62810    0.30250    0.38820    1.000
    N327     N        0.71100    0.28080    0.37480    1.000
    N328     N        0.67170    0.27530    0.37040    1.000
    Zn41     Zn       0.89009    0.24902    0.33173    1.000
    C411     C        0.32321    0.78517    0.87442    1.000
    H329     H        0.33950    0.80420    0.88430    1.000
    C412     C        0.30365    0.73498    0.84587    1.000
    H330     H        0.30300    0.71190    0.83190    1.000
    C413     C        0.27221    0.75326    0.86020    1.000
    C414     C        0.23350    0.73830    0.85040    1.000
    H331     H        0.23350    0.71610    0.83520    1.000
    C415     C        0.17130    0.79430    0.89850    1.000
    H332     H        0.15030    0.77740    0.89970    1.000
    N329     N        0.19940    0.75100    0.85940    1.000
    N330     N        0.20280    0.78480    0.88020    1.000
    C416     C        0.16958    0.83230    0.91730    1.000
    C417     C        0.14400    0.85200    0.94040    1.000
    H333     H        0.11790    0.84600    0.94350    1.000
    C418     C        0.19970    0.87825    0.94563    1.000
    H334     H        0.21940    0.89510    0.95300    1.000
    N331     N        0.28499    0.78601    0.87900    1.000
    N332     N        0.33614    0.75481    0.85458    1.000
    N333     N        0.20519    0.84881    0.92174    1.000
    N334     N        0.16295    0.88149    0.95823    1.000
    Cu42     Cu       0.25098    0.83173    0.89009    1.000
    C419     C        0.23000    0.75090    0.86290    1.000
    H335     H        0.21710    0.72820    0.85610    1.000
    C420     C        0.15490    0.80220    0.89080    1.000
    H336     H        0.12810    0.80250    0.88820    1.000
    N335     N        0.21100    0.78080    0.87480    1.000
    N336     N        0.17170    0.77530    0.87040    1.000
    Zn42     Zn       0.39009    0.74902    0.83173    1.000
    C421     C        0.32321    0.21483    0.62558    1.000
    H337     H        0.33950    0.19580    0.61570    1.000
    C422     C        0.30365    0.26502    0.65413    1.000
    H338     H        0.30300    0.28810    0.66810    1.000
    C423     C        0.27221    0.24674    0.63980    1.000
    C424     C        0.23350    0.26170    0.64960    1.000
    H339     H        0.23350    0.28390    0.66480    1.000
    C425     C        0.17130    0.20570    0.60150    1.000
    H340     H        0.15030    0.22260    0.60030    1.000
    N337     N        0.19940    0.24900    0.64060    1.000
    N338     N        0.20280    0.21520    0.61980    1.000
    C426     C        0.16958    0.16770    0.58270    1.000
    C427     C        0.14400    0.14800    0.55960    1.000
    H341     H        0.11790    0.15400    0.55650    1.000
    C428     C        0.19970    0.12175    0.55437    1.000
    H342     H        0.21940    0.10490    0.54700    1.000
    N339     N        0.28499    0.21399    0.62100    1.000
    N340     N        0.33614    0.24519    0.64542    1.000
    N341     N        0.20519    0.15119    0.57826    1.000
    N342     N        0.16295    0.11851    0.54177    1.000
    Cu43     Cu       0.25098    0.16827    0.60991    1.000
    C429     C        0.23000    0.24910    0.63710    1.000
    H343     H        0.21710    0.27180    0.64390    1.000
    C430     C        0.15490    0.19780    0.60920    1.000
    H344     H        0.12810    0.19750    0.61180    1.000
    N343     N        0.21100    0.21920    0.62520    1.000
    N344     N        0.17170    0.22470    0.62960    1.000
    Zn43     Zn       0.39009    0.25098    0.66827    1.000
    C431     C        0.82321    0.71483    0.12558    1.000
    H345     H        0.83950    0.69580    0.11570    1.000
    C432     C        0.80365    0.76502    0.15413    1.000
    H346     H        0.80300    0.78810    0.16810    1.000
    C433     C        0.77221    0.74674    0.13980    1.000
    C434     C        0.73350    0.76170    0.14960    1.000
    H347     H        0.73350    0.78390    0.16480    1.000
    C435     C        0.67130    0.70570    0.10150    1.000
    H348     H        0.65030    0.72260    0.10030    1.000
    N345     N        0.69940    0.74900    0.14060    1.000
    N346     N        0.70280    0.71520    0.11980    1.000
    C436     C        0.66958    0.66770    0.08270    1.000
    C437     C        0.64400    0.64800    0.05960    1.000
    H349     H        0.61790    0.65400    0.05650    1.000
    C438     C        0.69970    0.62175    0.05437    1.000
    H350     H        0.71940    0.60490    0.04700    1.000
    N347     N        0.78499    0.71399    0.12100    1.000
    N348     N        0.83614    0.74519    0.14542    1.000
    N349     N        0.70519    0.65119    0.07826    1.000
    N350     N        0.66295    0.61851    0.04177    1.000
    Cu44     Cu       0.75098    0.66827    0.10991    1.000
    C439     C        0.73000    0.74910    0.13710    1.000
    H351     H        0.71710    0.77180    0.14390    1.000
    C440     C        0.65490    0.69780    0.10920    1.000
    H352     H        0.62810    0.69750    0.11180    1.000
    N351     N        0.71100    0.71920    0.12520    1.000
    N352     N        0.67170    0.72470    0.12960    1.000
    Zn44     Zn       0.89009    0.75098    0.16827    1.000
    C441     C        0.17679    0.78517    0.12558    1.000
    H353     H        0.16050    0.80420    0.11570    1.000
    C442     C        0.19635    0.73498    0.15413    1.000
    H354     H        0.19700    0.71190    0.16810    1.000
    C443     C        0.22779    0.75326    0.13980    1.000
    C444     C        0.26650    0.73830    0.14960    1.000
    H355     H        0.26650    0.71610    0.16480    1.000
    C445     C        0.32870    0.79430    0.10150    1.000
    H356     H        0.34970    0.77740    0.10030    1.000
    N353     N        0.30060    0.75100    0.14060    1.000
    N354     N        0.29720    0.78480    0.11980    1.000
    C446     C        0.33042    0.83230    0.08270    1.000
    C447     C        0.35600    0.85200    0.05960    1.000
    H357     H        0.38210    0.84600    0.05650    1.000
    C448     C        0.30030    0.87825    0.05437    1.000
    H358     H        0.28060    0.89510    0.04700    1.000
    N355     N        0.21501    0.78601    0.12100    1.000
    N356     N        0.16386    0.75481    0.14542    1.000
    N357     N        0.29481    0.84881    0.07826    1.000
    N358     N        0.33705    0.88149    0.04177    1.000
    Cu45     Cu       0.24902    0.83173    0.10991    1.000
    C449     C        0.27000    0.75090    0.13710    1.000
    H359     H        0.28290    0.72820    0.14390    1.000
    C450     C        0.34510    0.80220    0.10920    1.000
    H360     H        0.37190    0.80250    0.11180    1.000
    N359     N        0.28900    0.78080    0.12520    1.000
    N360     N        0.32830    0.77530    0.12960    1.000
    Zn45     Zn       0.10991    0.74902    0.16827    1.000
    C451     C        0.67679    0.28517    0.62558    1.000
    H361     H        0.66050    0.30420    0.61570    1.000
    C452     C        0.69635    0.23498    0.65413    1.000
    H362     H        0.69700    0.21190    0.66810    1.000
    C453     C        0.72779    0.25326    0.63980    1.000
    C454     C        0.76650    0.23830    0.64960    1.000
    H363     H        0.76650    0.21610    0.66480    1.000
    C455     C        0.82870    0.29430    0.60150    1.000
    H364     H        0.84970    0.27740    0.60030    1.000
    N361     N        0.80060    0.25100    0.64060    1.000
    N362     N        0.79720    0.28480    0.61980    1.000
    C456     C        0.83042    0.33230    0.58270    1.000
    C457     C        0.85600    0.35200    0.55960    1.000
    H365     H        0.88210    0.34600    0.55650    1.000
    C458     C        0.80030    0.37825    0.55437    1.000
    H366     H        0.78060    0.39510    0.54700    1.000
    N363     N        0.71501    0.28601    0.62100    1.000
    N364     N        0.66386    0.25481    0.64542    1.000
    N365     N        0.79481    0.34881    0.57826    1.000
    N366     N        0.83705    0.38149    0.54177    1.000
    Cu46     Cu       0.74902    0.33173    0.60991    1.000
    C459     C        0.77000    0.25090    0.63710    1.000
    H367     H        0.78290    0.22820    0.64390    1.000
    C460     C        0.84510    0.30220    0.60920    1.000
    H368     H        0.87190    0.30250    0.61180    1.000
    N367     N        0.78900    0.28080    0.62520    1.000
    N368     N        0.82830    0.27530    0.62960    1.000
    Zn46     Zn       0.60991    0.24902    0.66827    1.000
    C461     C        0.67679    0.71483    0.87442    1.000
    H369     H        0.66050    0.69580    0.88430    1.000
    C462     C        0.69635    0.76502    0.84587    1.000
    H370     H        0.69700    0.78810    0.83190    1.000
    C463     C        0.72779    0.74674    0.86020    1.000
    C464     C        0.76650    0.76170    0.85040    1.000
    H371     H        0.76650    0.78390    0.83520    1.000
    C465     C        0.82870    0.70570    0.89850    1.000
    H372     H        0.84970    0.72260    0.89970    1.000
    N369     N        0.80060    0.74900    0.85940    1.000
    N370     N        0.79720    0.71520    0.88020    1.000
    C466     C        0.83042    0.66770    0.91730    1.000
    C467     C        0.85600    0.64800    0.94040    1.000
    H373     H        0.88210    0.65400    0.94350    1.000
    C468     C        0.80030    0.62175    0.94563    1.000
    H374     H        0.78060    0.60490    0.95300    1.000
    N371     N        0.71501    0.71399    0.87900    1.000
    N372     N        0.66386    0.74519    0.85458    1.000
    N373     N        0.79481    0.65119    0.92174    1.000
    N374     N        0.83705    0.61851    0.95823    1.000
    Cu47     Cu       0.74902    0.66827    0.89009    1.000
    C469     C        0.77000    0.74910    0.86290    1.000
    H375     H        0.78290    0.77180    0.85610    1.000
    C470     C        0.84510    0.69780    0.89080    1.000
    H376     H        0.87190    0.69750    0.88820    1.000
    N375     N        0.78900    0.71920    0.87480    1.000
    N376     N        0.82830    0.72470    0.87040    1.000
    Zn47     Zn       0.60991    0.75098    0.83173    1.000
    C471     C        0.17679    0.21483    0.37442    1.000
    H377     H        0.16050    0.19580    0.38430    1.000
    C472     C        0.19635    0.26502    0.34587    1.000
    H378     H        0.19700    0.28810    0.33190    1.000
    C473     C        0.22779    0.24674    0.36020    1.000
    C474     C        0.26650    0.26170    0.35040    1.000
    H379     H        0.26650    0.28390    0.33520    1.000
    C475     C        0.32870    0.20570    0.39850    1.000
    H380     H        0.34970    0.22260    0.39970    1.000
    N377     N        0.30060    0.24900    0.35940    1.000
    N378     N        0.29720    0.21520    0.38020    1.000
    C476     C        0.33042    0.16770    0.41730    1.000
    C477     C        0.35600    0.14800    0.44040    1.000
    H381     H        0.38210    0.15400    0.44350    1.000
    C478     C        0.30030    0.12175    0.44563    1.000
    H382     H        0.28060    0.10490    0.45300    1.000
    N379     N        0.21501    0.21399    0.37900    1.000
    N380     N        0.16386    0.24519    0.35458    1.000
    N381     N        0.29481    0.15119    0.42174    1.000
    N382     N        0.33705    0.11851    0.45823    1.000
    Cu48     Cu       0.24902    0.16827    0.39009    1.000
    C479     C        0.27000    0.24910    0.36290    1.000
    H383     H        0.28290    0.27180    0.35610    1.000
    C480     C        0.34510    0.19780    0.39080    1.000
    H384     H        0.37190    0.19750    0.38820    1.000
    N383     N        0.28900    0.21920    0.37480    1.000
    N384     N        0.32830    0.22470    0.37040    1.000
    Zn48     Zn       0.10991    0.25098    0.33173    1.000
    C481     C        0.12442    0.96483    0.92679    1.000
    H385     H        0.13430    0.94580    0.91050    1.000
    C482     C        0.09587    0.01502    0.94635    1.000
    H386     H        0.08190    0.03810    0.94700    1.000
    C483     C        0.11020    0.99674    0.97779    1.000
    C484     C        0.10040    0.01170    0.01650    1.000
    H387     H        0.08520    0.03390    0.01650    1.000
    C485     C        0.14850    0.95570    0.07870    1.000
    H388     H        0.14970    0.97260    0.09970    1.000
    N385     N        0.10940    0.99900    0.05060    1.000
    N386     N        0.13020    0.96520    0.04720    1.000
    C486     C        0.16730    0.91770    0.08042    1.000
    C487     C        0.19040    0.89800    0.10600    1.000
    H389     H        0.19350    0.90400    0.13210    1.000
    C488     C        0.19563    0.87175    0.05030    1.000
    H390     H        0.20300    0.85490    0.03060    1.000
    N387     N        0.12900    0.96399    0.96501    1.000
    N388     N        0.10458    0.99519    0.91386    1.000
    N389     N        0.17174    0.90119    0.04481    1.000
    N390     N        0.20823    0.86851    0.08705    1.000
    C489     C        0.11290    0.99910    0.02000    1.000
    H391     H        0.10610    0.02180    0.03290    1.000
    C490     C        0.14080    0.94780    0.09510    1.000
    H392     H        0.13820    0.94750    0.12190    1.000
    N391     N        0.12480    0.96920    0.03900    1.000
    N392     N        0.12040    0.97470    0.07830    1.000
    C491     C        0.62442    0.46483    0.42679    1.000
    H393     H        0.63430    0.44580    0.41050    1.000
    C492     C        0.59587    0.51502    0.44635    1.000
    H394     H        0.58190    0.53810    0.44700    1.000
    C493     C        0.61020    0.49674    0.47779    1.000
    C494     C        0.60040    0.51170    0.51650    1.000
    H395     H        0.58520    0.53390    0.51650    1.000
    C495     C        0.64850    0.45570    0.57870    1.000
    H396     H        0.64970    0.47260    0.59970    1.000
    N393     N        0.60940    0.49900    0.55060    1.000
    N394     N        0.63020    0.46520    0.54720    1.000
    C496     C        0.66730    0.41770    0.58042    1.000
    C497     C        0.69040    0.39800    0.60600    1.000
    H397     H        0.69350    0.40400    0.63210    1.000
    C498     C        0.69563    0.37175    0.55030    1.000
    H398     H        0.70300    0.35490    0.53060    1.000
    N395     N        0.62900    0.46399    0.46501    1.000
    N396     N        0.60458    0.49519    0.41386    1.000
    N397     N        0.67174    0.40119    0.54481    1.000
    N398     N        0.70823    0.36851    0.58705    1.000
    C499     C        0.61290    0.49910    0.52000    1.000
    H399     H        0.60610    0.52180    0.53290    1.000
    C500     C        0.64080    0.44780    0.59510    1.000
    H400     H        0.63820    0.44750    0.62190    1.000
    N399     N        0.62480    0.46920    0.53900    1.000
    N400     N        0.62040    0.47470    0.57830    1.000
    C501     C        0.37558    0.03517    0.42679    1.000
    H401     H        0.36570    0.05420    0.41050    1.000
    C502     C        0.40413    0.98498    0.44635    1.000
    H402     H        0.41810    0.96190    0.44700    1.000
    C503     C        0.38980    0.00326    0.47779    1.000
    C504     C        0.39960    0.98830    0.51650    1.000
    H403     H        0.41480    0.96610    0.51650    1.000
    C505     C        0.35150    0.04430    0.57870    1.000
    H404     H        0.35030    0.02740    0.59970    1.000
    N401     N        0.39060    0.00100    0.55060    1.000
    N402     N        0.36980    0.03480    0.54720    1.000
    C506     C        0.33270    0.08230    0.58042    1.000
    C507     C        0.30960    0.10200    0.60600    1.000
    H405     H        0.30650    0.09600    0.63210    1.000
    C508     C        0.30437    0.12825    0.55030    1.000
    H406     H        0.29700    0.14510    0.53060    1.000
    N403     N        0.37100    0.03601    0.46501    1.000
    N404     N        0.39542    0.00481    0.41386    1.000
    N405     N        0.32826    0.09881    0.54481    1.000
    N406     N        0.29177    0.13149    0.58705    1.000
    C509     C        0.38710    0.00090    0.52000    1.000
    H407     H        0.39390    0.97820    0.53290    1.000
    C510     C        0.35920    0.05220    0.59510    1.000
    H408     H        0.36180    0.05250    0.62190    1.000
    N407     N        0.37520    0.03080    0.53900    1.000
    N408     N        0.37960    0.02530    0.57830    1.000
    C511     C        0.87558    0.53517    0.92679    1.000
    H409     H        0.86570    0.55420    0.91050    1.000
    C512     C        0.90413    0.48498    0.94635    1.000
    H410     H        0.91810    0.46190    0.94700    1.000
    C513     C        0.88980    0.50326    0.97779    1.000
    C514     C        0.89960    0.48830    0.01650    1.000
    H411     H        0.91480    0.46610    0.01650    1.000
    C515     C        0.85150    0.54430    0.07870    1.000
    H412     H        0.85030    0.52740    0.09970    1.000
    N409     N        0.89060    0.50100    0.05060    1.000
    N410     N        0.86980    0.53480    0.04720    1.000
    C516     C        0.83270    0.58230    0.08042    1.000
    C517     C        0.80960    0.60200    0.10600    1.000
    H413     H        0.80650    0.59600    0.13210    1.000
    C518     C        0.80437    0.62825    0.05030    1.000
    H414     H        0.79700    0.64510    0.03060    1.000
    N411     N        0.87100    0.53601    0.96501    1.000
    N412     N        0.89542    0.50481    0.91386    1.000
    N413     N        0.82826    0.59881    0.04481    1.000
    N414     N        0.79177    0.63149    0.08705    1.000
    C519     C        0.88710    0.50090    0.02000    1.000
    H415     H        0.89390    0.47820    0.03290    1.000
    C520     C        0.85920    0.55220    0.09510    1.000
    H416     H        0.86180    0.55250    0.12190    1.000
    N415     N        0.87520    0.53080    0.03900    1.000
    N416     N        0.87960    0.52530    0.07830    1.000
    C521     C        0.87558    0.46483    0.57321    1.000
    H417     H        0.86570    0.44580    0.58950    1.000
    C522     C        0.90413    0.51502    0.55365    1.000
    H418     H        0.91810    0.53810    0.55300    1.000
    C523     C        0.88980    0.49674    0.52221    1.000
    C524     C        0.89960    0.51170    0.48350    1.000
    H419     H        0.91480    0.53390    0.48350    1.000
    C525     C        0.85150    0.45570    0.42130    1.000
    H420     H        0.85030    0.47260    0.40030    1.000
    N417     N        0.89060    0.49900    0.44940    1.000
    N418     N        0.86980    0.46520    0.45280    1.000
    C526     C        0.83270    0.41770    0.41958    1.000
    C527     C        0.80960    0.39800    0.39400    1.000
    H421     H        0.80650    0.40400    0.36790    1.000
    C528     C        0.80437    0.37175    0.44970    1.000
    H422     H        0.79700    0.35490    0.46940    1.000
    N419     N        0.87100    0.46399    0.53499    1.000
    N420     N        0.89542    0.49519    0.58614    1.000
    N421     N        0.82826    0.40119    0.45519    1.000
    N422     N        0.79177    0.36851    0.41295    1.000
    C529     C        0.88710    0.49910    0.48000    1.000
    H423     H        0.89390    0.52180    0.46710    1.000
    C530     C        0.85920    0.44780    0.40490    1.000
    H424     H        0.86180    0.44750    0.37810    1.000
    N423     N        0.87520    0.46920    0.46100    1.000
    N424     N        0.87960    0.47470    0.42170    1.000
    C531     C        0.37558    0.96483    0.07321    1.000
    H425     H        0.36570    0.94580    0.08950    1.000
    C532     C        0.40413    0.01502    0.05365    1.000
    H426     H        0.41810    0.03810    0.05300    1.000
    C533     C        0.38980    0.99674    0.02221    1.000
    C534     C        0.39960    0.01170    0.98350    1.000
    H427     H        0.41480    0.03390    0.98350    1.000
    C535     C        0.35150    0.95570    0.92130    1.000
    H428     H        0.35030    0.97260    0.90030    1.000
    N425     N        0.39060    0.99900    0.94940    1.000
    N426     N        0.36980    0.96520    0.95280    1.000
    C536     C        0.33270    0.91770    0.91958    1.000
    C537     C        0.30960    0.89800    0.89400    1.000
    H429     H        0.30650    0.90400    0.86790    1.000
    C538     C        0.30437    0.87175    0.94970    1.000
    H430     H        0.29700    0.85490    0.96940    1.000
    N427     N        0.37100    0.96399    0.03499    1.000
    N428     N        0.39542    0.99519    0.08614    1.000
    N429     N        0.32826    0.90119    0.95519    1.000
    N430     N        0.29177    0.86851    0.91295    1.000
    C539     C        0.38710    0.99910    0.98000    1.000
    H431     H        0.39390    0.02180    0.96710    1.000
    C540     C        0.35920    0.94780    0.90490    1.000
    H432     H        0.36180    0.94750    0.87810    1.000
    N431     N        0.37520    0.96920    0.96100    1.000
    N432     N        0.37960    0.97470    0.92170    1.000
    C541     C        0.62442    0.53517    0.07321    1.000
    H433     H        0.63430    0.55420    0.08950    1.000
    C542     C        0.59587    0.48498    0.05365    1.000
    H434     H        0.58190    0.46190    0.05300    1.000
    C543     C        0.61020    0.50326    0.02221    1.000
    C544     C        0.60040    0.48830    0.98350    1.000
    H435     H        0.58520    0.46610    0.98350    1.000
    C545     C        0.64850    0.54430    0.92130    1.000
    H436     H        0.64970    0.52740    0.90030    1.000
    N433     N        0.60940    0.50100    0.94940    1.000
    N434     N        0.63020    0.53480    0.95280    1.000
    C546     C        0.66730    0.58230    0.91958    1.000
    C547     C        0.69040    0.60200    0.89400    1.000
    H437     H        0.69350    0.59600    0.86790    1.000
    C548     C        0.69563    0.62825    0.94970    1.000
    H438     H        0.70300    0.64510    0.96940    1.000
    N435     N        0.62900    0.53601    0.03499    1.000
    N436     N        0.60458    0.50481    0.08614    1.000
    N437     N        0.67174    0.59881    0.95519    1.000
    N438     N        0.70823    0.63149    0.91295    1.000
    C549     C        0.61290    0.50090    0.98000    1.000
    H439     H        0.60610    0.47820    0.96710    1.000
    C550     C        0.64080    0.55220    0.90490    1.000
    H440     H        0.63820    0.55250    0.87810    1.000
    N439     N        0.62480    0.53080    0.96100    1.000
    N440     N        0.62040    0.52530    0.92170    1.000
    C551     C        0.12442    0.03517    0.57321    1.000
    H441     H        0.13430    0.05420    0.58950    1.000
    C552     C        0.09587    0.98498    0.55365    1.000
    H442     H        0.08190    0.96190    0.55300    1.000
    C553     C        0.11020    0.00326    0.52221    1.000
    C554     C        0.10040    0.98830    0.48350    1.000
    H443     H        0.08520    0.96610    0.48350    1.000
    C555     C        0.14850    0.04430    0.42130    1.000
    H444     H        0.14970    0.02740    0.40030    1.000
    N441     N        0.10940    0.00100    0.44940    1.000
    N442     N        0.13020    0.03480    0.45280    1.000
    C556     C        0.16730    0.08230    0.41958    1.000
    C557     C        0.19040    0.10200    0.39400    1.000
    H445     H        0.19350    0.09600    0.36790    1.000
    C558     C        0.19563    0.12825    0.44970    1.000
    H446     H        0.20300    0.14510    0.46940    1.000
    N443     N        0.12900    0.03601    0.53499    1.000
    N444     N        0.10458    0.00481    0.58614    1.000
    N445     N        0.17174    0.09881    0.45519    1.000
    N446     N        0.20823    0.13149    0.41295    1.000
    C559     C        0.11290    0.00090    0.48000    1.000
    H447     H        0.10610    0.97820    0.46710    1.000
    C560     C        0.14080    0.05220    0.40490    1.000
    H448     H        0.13820    0.05250    0.37810    1.000
    N447     N        0.12480    0.03080    0.46100    1.000
    N448     N        0.12040    0.02530    0.42170    1.000
    C561     C        0.92679    0.12442    0.96483    1.000
    H449     H        0.91050    0.13430    0.94580    1.000
    C562     C        0.94635    0.09587    0.01502    1.000
    H450     H        0.94700    0.08190    0.03810    1.000
    C563     C        0.97779    0.11020    0.99674    1.000
    C564     C        0.01650    0.10040    0.01170    1.000
    H451     H        0.01650    0.08520    0.03390    1.000
    C565     C        0.07870    0.14850    0.95570    1.000
    H452     H        0.09970    0.14970    0.97260    1.000
    N449     N        0.05060    0.10940    0.99900    1.000
    N450     N        0.04720    0.13020    0.96520    1.000
    C566     C        0.08042    0.16730    0.91770    1.000
    C567     C        0.10600    0.19040    0.89800    1.000
    H453     H        0.13210    0.19350    0.90400    1.000
    C568     C        0.05030    0.19563    0.87175    1.000
    H454     H        0.03060    0.20300    0.85490    1.000
    N451     N        0.96501    0.12900    0.96399    1.000
    N452     N        0.91386    0.10458    0.99519    1.000
    N453     N        0.04481    0.17174    0.90119    1.000
    N454     N        0.08705    0.20823    0.86851    1.000
    C569     C        0.02000    0.11290    0.99910    1.000
    H455     H        0.03290    0.10610    0.02180    1.000
    C570     C        0.09510    0.14080    0.94780    1.000
    H456     H        0.12190    0.13820    0.94750    1.000
    N455     N        0.03900    0.12480    0.96920    1.000
    N456     N        0.07830    0.12040    0.97470    1.000
    C571     C        0.42679    0.62442    0.46483    1.000
    H457     H        0.41050    0.63430    0.44580    1.000
    C572     C        0.44635    0.59587    0.51502    1.000
    H458     H        0.44700    0.58190    0.53810    1.000
    C573     C        0.47779    0.61020    0.49674    1.000
    C574     C        0.51650    0.60040    0.51170    1.000
    H459     H        0.51650    0.58520    0.53390    1.000
    C575     C        0.57870    0.64850    0.45570    1.000
    H460     H        0.59970    0.64970    0.47260    1.000
    N457     N        0.55060    0.60940    0.49900    1.000
    N458     N        0.54720    0.63020    0.46520    1.000
    C576     C        0.58042    0.66730    0.41770    1.000
    C577     C        0.60600    0.69040    0.39800    1.000
    H461     H        0.63210    0.69350    0.40400    1.000
    C578     C        0.55030    0.69563    0.37175    1.000
    H462     H        0.53060    0.70300    0.35490    1.000
    N459     N        0.46501    0.62900    0.46399    1.000
    N460     N        0.41386    0.60458    0.49519    1.000
    N461     N        0.54481    0.67174    0.40119    1.000
    N462     N        0.58705    0.70823    0.36851    1.000
    C579     C        0.52000    0.61290    0.49910    1.000
    H463     H        0.53290    0.60610    0.52180    1.000
    C580     C        0.59510    0.64080    0.44780    1.000
    H464     H        0.62190    0.63820    0.44750    1.000
    N463     N        0.53900    0.62480    0.46920    1.000
    N464     N        0.57830    0.62040    0.47470    1.000
    C581     C        0.42679    0.37558    0.03517    1.000
    H465     H        0.41050    0.36570    0.05420    1.000
    C582     C        0.44635    0.40413    0.98498    1.000
    H466     H        0.44700    0.41810    0.96190    1.000
    C583     C        0.47779    0.38980    0.00326    1.000
    C584     C        0.51650    0.39960    0.98830    1.000
    H467     H        0.51650    0.41480    0.96610    1.000
    C585     C        0.57870    0.35150    0.04430    1.000
    H468     H        0.59970    0.35030    0.02740    1.000
    N465     N        0.55060    0.39060    0.00100    1.000
    N466     N        0.54720    0.36980    0.03480    1.000
    C586     C        0.58042    0.33270    0.08230    1.000
    C587     C        0.60600    0.30960    0.10200    1.000
    H469     H        0.63210    0.30650    0.09600    1.000
    C588     C        0.55030    0.30437    0.12825    1.000
    H470     H        0.53060    0.29700    0.14510    1.000
    N467     N        0.46501    0.37100    0.03601    1.000
    N468     N        0.41386    0.39542    0.00481    1.000
    N469     N        0.54481    0.32826    0.09881    1.000
    N470     N        0.58705    0.29177    0.13149    1.000
    C589     C        0.52000    0.38710    0.00090    1.000
    H471     H        0.53290    0.39390    0.97820    1.000
    C590     C        0.59510    0.35920    0.05220    1.000
    H472     H        0.62190    0.36180    0.05250    1.000
    N471     N        0.53900    0.37520    0.03080    1.000
    N472     N        0.57830    0.37960    0.02530    1.000
    C591     C        0.92679    0.87558    0.53517    1.000
    H473     H        0.91050    0.86570    0.55420    1.000
    C592     C        0.94635    0.90413    0.48498    1.000
    H474     H        0.94700    0.91810    0.46190    1.000
    C593     C        0.97779    0.88980    0.50326    1.000
    C594     C        0.01650    0.89960    0.48830    1.000
    H475     H        0.01650    0.91480    0.46610    1.000
    C595     C        0.07870    0.85150    0.54430    1.000
    H476     H        0.09970    0.85030    0.52740    1.000
    N473     N        0.05060    0.89060    0.50100    1.000
    N474     N        0.04720    0.86980    0.53480    1.000
    C596     C        0.08042    0.83270    0.58230    1.000
    C597     C        0.10600    0.80960    0.60200    1.000
    H477     H        0.13210    0.80650    0.59600    1.000
    C598     C        0.05030    0.80437    0.62825    1.000
    H478     H        0.03060    0.79700    0.64510    1.000
    N475     N        0.96501    0.87100    0.53601    1.000
    N476     N        0.91386    0.89542    0.50481    1.000
    N477     N        0.04481    0.82826    0.59881    1.000
    N478     N        0.08705    0.79177    0.63149    1.000
    C599     C        0.02000    0.88710    0.50090    1.000
    H479     H        0.03290    0.89390    0.47820    1.000
    C600     C        0.09510    0.85920    0.55220    1.000
    H480     H        0.12190    0.86180    0.55250    1.000
    N479     N        0.03900    0.87520    0.53080    1.000
    N480     N        0.07830    0.87960    0.52530    1.000
    C601     C        0.57321    0.87558    0.46483    1.000
    H481     H        0.58950    0.86570    0.44580    1.000
    C602     C        0.55365    0.90413    0.51502    1.000
    H482     H        0.55300    0.91810    0.53810    1.000
    C603     C        0.52221    0.88980    0.49674    1.000
    C604     C        0.48350    0.89960    0.51170    1.000
    H483     H        0.48350    0.91480    0.53390    1.000
    C605     C        0.42130    0.85150    0.45570    1.000
    H484     H        0.40030    0.85030    0.47260    1.000
    N481     N        0.44940    0.89060    0.49900    1.000
    N482     N        0.45280    0.86980    0.46520    1.000
    C606     C        0.41958    0.83270    0.41770    1.000
    C607     C        0.39400    0.80960    0.39800    1.000
    H485     H        0.36790    0.80650    0.40400    1.000
    C608     C        0.44970    0.80437    0.37175    1.000
    H486     H        0.46940    0.79700    0.35490    1.000
    N483     N        0.53499    0.87100    0.46399    1.000
    N484     N        0.58614    0.89542    0.49519    1.000
    N485     N        0.45519    0.82826    0.40119    1.000
    N486     N        0.41295    0.79177    0.36851    1.000
    C609     C        0.48000    0.88710    0.49910    1.000
    H487     H        0.46710    0.89390    0.52180    1.000
    C610     C        0.40490    0.85920    0.44780    1.000
    H488     H        0.37810    0.86180    0.44750    1.000
    N487     N        0.46100    0.87520    0.46920    1.000
    N488     N        0.42170    0.87960    0.47470    1.000
    C611     C        0.07321    0.37558    0.96483    1.000
    H489     H        0.08950    0.36570    0.94580    1.000
    C612     C        0.05365    0.40413    0.01502    1.000
    H490     H        0.05300    0.41810    0.03810    1.000
    C613     C        0.02221    0.38980    0.99674    1.000
    C614     C        0.98350    0.39960    0.01170    1.000
    H491     H        0.98350    0.41480    0.03390    1.000
    C615     C        0.92130    0.35150    0.95570    1.000
    H492     H        0.90030    0.35030    0.97260    1.000
    N489     N        0.94940    0.39060    0.99900    1.000
    N490     N        0.95280    0.36980    0.96520    1.000
    C616     C        0.91958    0.33270    0.91770    1.000
    C617     C        0.89400    0.30960    0.89800    1.000
    H493     H        0.86790    0.30650    0.90400    1.000
    C618     C        0.94970    0.30437    0.87175    1.000
    H494     H        0.96940    0.29700    0.85490    1.000
    N491     N        0.03499    0.37100    0.96399    1.000
    N492     N        0.08614    0.39542    0.99519    1.000
    N493     N        0.95519    0.32826    0.90119    1.000
    N494     N        0.91295    0.29177    0.86851    1.000
    C619     C        0.98000    0.38710    0.99910    1.000
    H495     H        0.96710    0.39390    0.02180    1.000
    C620     C        0.90490    0.35920    0.94780    1.000
    H496     H        0.87810    0.36180    0.94750    1.000
    N495     N        0.96100    0.37520    0.96920    1.000
    N496     N        0.92170    0.37960    0.97470    1.000
    C621     C        0.07321    0.62442    0.53517    1.000
    H497     H        0.08950    0.63430    0.55420    1.000
    C622     C        0.05365    0.59587    0.48498    1.000
    H498     H        0.05300    0.58190    0.46190    1.000
    C623     C        0.02221    0.61020    0.50326    1.000
    C624     C        0.98350    0.60040    0.48830    1.000
    H499     H        0.98350    0.58520    0.46610    1.000
    C625     C        0.92130    0.64850    0.54430    1.000
    H500     H        0.90030    0.64970    0.52740    1.000
    N497     N        0.94940    0.60940    0.50100    1.000
    N498     N        0.95280    0.63020    0.53480    1.000
    C626     C        0.91958    0.66730    0.58230    1.000
    C627     C        0.89400    0.69040    0.60200    1.000
    H501     H        0.86790    0.69350    0.59600    1.000
    C628     C        0.94970    0.69563    0.62825    1.000
    H502     H        0.96940    0.70300    0.64510    1.000
    N499     N        0.03499    0.62900    0.53601    1.000
    N500     N        0.08614    0.60458    0.50481    1.000
    N501     N        0.95519    0.67174    0.59881    1.000
    N502     N        0.91295    0.70823    0.63149    1.000
    C629     C        0.98000    0.61290    0.50090    1.000
    H503     H        0.96710    0.60610    0.47820    1.000
    C630     C        0.90490    0.64080    0.55220    1.000
    H504     H        0.87810    0.63820    0.55250    1.000
    N503     N        0.96100    0.62480    0.53080    1.000
    N504     N        0.92170    0.62040    0.52530    1.000
    C631     C        0.57321    0.12442    0.03517    1.000
    H505     H        0.58950    0.13430    0.05420    1.000
    C632     C        0.55365    0.09587    0.98498    1.000
    H506     H        0.55300    0.08190    0.96190    1.000
    C633     C        0.52221    0.11020    0.00326    1.000
    C634     C        0.48350    0.10040    0.98830    1.000
    H507     H        0.48350    0.08520    0.96610    1.000
    C635     C        0.42130    0.14850    0.04430    1.000
    H508     H        0.40030    0.14970    0.02740    1.000
    N505     N        0.44940    0.10940    0.00100    1.000
    N506     N        0.45280    0.13020    0.03480    1.000
    C636     C        0.41958    0.16730    0.08230    1.000
    C637     C        0.39400    0.19040    0.10200    1.000
    H509     H        0.36790    0.19350    0.09600    1.000
    C638     C        0.44970    0.19563    0.12825    1.000
    H510     H        0.46940    0.20300    0.14510    1.000
    N507     N        0.53499    0.12900    0.03601    1.000
    N508     N        0.58614    0.10458    0.00481    1.000
    N509     N        0.45519    0.17174    0.09881    1.000
    N510     N        0.41295    0.20823    0.13149    1.000
    C639     C        0.48000    0.11290    0.00090    1.000
    H511     H        0.46710    0.10610    0.97820    1.000
    C640     C        0.40490    0.14080    0.05220    1.000
    H512     H        0.37810    0.13820    0.05250    1.000
    N511     N        0.46100    0.12480    0.03080    1.000
    N512     N        0.42170    0.12040    0.02530    1.000
    C641     C        0.96483    0.92679    0.12442    1.000
    H513     H        0.94580    0.91050    0.13430    1.000
    C642     C        0.01502    0.94635    0.09587    1.000
    H514     H        0.03810    0.94700    0.08190    1.000
    C643     C        0.99674    0.97779    0.11020    1.000
    C644     C        0.01170    0.01650    0.10040    1.000
    H515     H        0.03390    0.01650    0.08520    1.000
    C645     C        0.95570    0.07870    0.14850    1.000
    H516     H        0.97260    0.09970    0.14970    1.000
    N513     N        0.99900    0.05060    0.10940    1.000
    N514     N        0.96520    0.04720    0.13020    1.000
    C646     C        0.91770    0.08042    0.16730    1.000
    C647     C        0.89800    0.10600    0.19040    1.000
    H517     H        0.90400    0.13210    0.19350    1.000
    C648     C        0.87175    0.05030    0.19563    1.000
    H518     H        0.85490    0.03060    0.20300    1.000
    N515     N        0.96399    0.96501    0.12900    1.000
    N516     N        0.99519    0.91386    0.10458    1.000
    N517     N        0.90119    0.04481    0.17174    1.000
    N518     N        0.86851    0.08705    0.20823    1.000
    C649     C        0.99910    0.02000    0.11290    1.000
    H519     H        0.02180    0.03290    0.10610    1.000
    C650     C        0.94780    0.09510    0.14080    1.000
    H520     H        0.94750    0.12190    0.13820    1.000
    N519     N        0.96920    0.03900    0.12480    1.000
    N520     N        0.97470    0.07830    0.12040    1.000
    C651     C        0.46483    0.42679    0.62442    1.000
    H521     H        0.44580    0.41050    0.63430    1.000
    C652     C        0.51502    0.44635    0.59587    1.000
    H522     H        0.53810    0.44700    0.58190    1.000
    C653     C        0.49674    0.47779    0.61020    1.000
    C654     C        0.51170    0.51650    0.60040    1.000
    H523     H        0.53390    0.51650    0.58520    1.000
    C655     C        0.45570    0.57870    0.64850    1.000
    H524     H        0.47260    0.59970    0.64970    1.000
    N521     N        0.49900    0.55060    0.60940    1.000
    N522     N        0.46520    0.54720    0.63020    1.000
    C656     C        0.41770    0.58042    0.66730    1.000
    C657     C        0.39800    0.60600    0.69040    1.000
    H525     H        0.40400    0.63210    0.69350    1.000
    C658     C        0.37175    0.55030    0.69563    1.000
    H526     H        0.35490    0.53060    0.70300    1.000
    N523     N        0.46399    0.46501    0.62900    1.000
    N524     N        0.49519    0.41386    0.60458    1.000
    N525     N        0.40119    0.54481    0.67174    1.000
    N526     N        0.36851    0.58705    0.70823    1.000
    C659     C        0.49910    0.52000    0.61290    1.000
    H527     H        0.52180    0.53290    0.60610    1.000
    C660     C        0.44780    0.59510    0.64080    1.000
    H528     H        0.44750    0.62190    0.63820    1.000
    N527     N        0.46920    0.53900    0.62480    1.000
    N528     N        0.47470    0.57830    0.62040    1.000
    C661     C        0.03517    0.42679    0.37558    1.000
    H529     H        0.05420    0.41050    0.36570    1.000
    C662     C        0.98498    0.44635    0.40413    1.000
    H530     H        0.96190    0.44700    0.41810    1.000
    C663     C        0.00326    0.47779    0.38980    1.000
    C664     C        0.98830    0.51650    0.39960    1.000
    H531     H        0.96610    0.51650    0.41480    1.000
    C665     C        0.04430    0.57870    0.35150    1.000
    H532     H        0.02740    0.59970    0.35030    1.000
    N529     N        0.00100    0.55060    0.39060    1.000
    N530     N        0.03480    0.54720    0.36980    1.000
    C666     C        0.08230    0.58042    0.33270    1.000
    C667     C        0.10200    0.60600    0.30960    1.000
    H533     H        0.09600    0.63210    0.30650    1.000
    C668     C        0.12825    0.55030    0.30437    1.000
    H534     H        0.14510    0.53060    0.29700    1.000
    N531     N        0.03601    0.46501    0.37100    1.000
    N532     N        0.00481    0.41386    0.39542    1.000
    N533     N        0.09881    0.54481    0.32826    1.000
    N534     N        0.13149    0.58705    0.29177    1.000
    C669     C        0.00090    0.52000    0.38710    1.000
    H535     H        0.97820    0.53290    0.39390    1.000
    C670     C        0.05220    0.59510    0.35920    1.000
    H536     H        0.05250    0.62190    0.36180    1.000
    N535     N        0.03080    0.53900    0.37520    1.000
    N536     N        0.02530    0.57830    0.37960    1.000
    C671     C        0.53517    0.92679    0.87558    1.000
    H537     H        0.55420    0.91050    0.86570    1.000
    C672     C        0.48498    0.94635    0.90413    1.000
    H538     H        0.46190    0.94700    0.91810    1.000
    C673     C        0.50326    0.97779    0.88980    1.000
    C674     C        0.48830    0.01650    0.89960    1.000
    H539     H        0.46610    0.01650    0.91480    1.000
    C675     C        0.54430    0.07870    0.85150    1.000
    H540     H        0.52740    0.09970    0.85030    1.000
    N537     N        0.50100    0.05060    0.89060    1.000
    N538     N        0.53480    0.04720    0.86980    1.000
    C676     C        0.58230    0.08042    0.83270    1.000
    C677     C        0.60200    0.10600    0.80960    1.000
    H541     H        0.59600    0.13210    0.80650    1.000
    C678     C        0.62825    0.05030    0.80437    1.000
    H542     H        0.64510    0.03060    0.79700    1.000
    N539     N        0.53601    0.96501    0.87100    1.000
    N540     N        0.50481    0.91386    0.89542    1.000
    N541     N        0.59881    0.04481    0.82826    1.000
    N542     N        0.63149    0.08705    0.79177    1.000
    C679     C        0.50090    0.02000    0.88710    1.000
    H543     H        0.47820    0.03290    0.89390    1.000
    C680     C        0.55220    0.09510    0.85920    1.000
    H544     H        0.55250    0.12190    0.86180    1.000
    N543     N        0.53080    0.03900    0.87520    1.000
    N544     N        0.52530    0.07830    0.87960    1.000
    C681     C        0.46483    0.57321    0.87558    1.000
    H545     H        0.44580    0.58950    0.86570    1.000
    C682     C        0.51502    0.55365    0.90413    1.000
    H546     H        0.53810    0.55300    0.91810    1.000
    C683     C        0.49674    0.52221    0.88980    1.000
    C684     C        0.51170    0.48350    0.89960    1.000
    H547     H        0.53390    0.48350    0.91480    1.000
    C685     C        0.45570    0.42130    0.85150    1.000
    H548     H        0.47260    0.40030    0.85030    1.000
    N545     N        0.49900    0.44940    0.89060    1.000
    N546     N        0.46520    0.45280    0.86980    1.000
    C686     C        0.41770    0.41958    0.83270    1.000
    C687     C        0.39800    0.39400    0.80960    1.000
    H549     H        0.40400    0.36790    0.80650    1.000
    C688     C        0.37175    0.44970    0.80437    1.000
    H550     H        0.35490    0.46940    0.79700    1.000
    N547     N        0.46399    0.53499    0.87100    1.000
    N548     N        0.49519    0.58614    0.89542    1.000
    N549     N        0.40119    0.45519    0.82826    1.000
    N550     N        0.36851    0.41295    0.79177    1.000
    C689     C        0.49910    0.48000    0.88710    1.000
    H551     H        0.52180    0.46710    0.89390    1.000
    C690     C        0.44780    0.40490    0.85920    1.000
    H552     H        0.44750    0.37810    0.86180    1.000
    N551     N        0.46920    0.46100    0.87520    1.000
    N552     N        0.47470    0.42170    0.87960    1.000
    C691     C        0.96483    0.07321    0.37558    1.000
    H553     H        0.94580    0.08950    0.36570    1.000
    C692     C        0.01502    0.05365    0.40413    1.000
    H554     H        0.03810    0.05300    0.41810    1.000
    C693     C        0.99674    0.02221    0.38980    1.000
    C694     C        0.01170    0.98350    0.39960    1.000
    H555     H        0.03390    0.98350    0.41480    1.000
    C695     C        0.95570    0.92130    0.35150    1.000
    H556     H        0.97260    0.90030    0.35030    1.000
    N553     N        0.99900    0.94940    0.39060    1.000
    N554     N        0.96520    0.95280    0.36980    1.000
    C696     C        0.91770    0.91958    0.33270    1.000
    C697     C        0.89800    0.89400    0.30960    1.000
    H557     H        0.90400    0.86790    0.30650    1.000
    C698     C        0.87175    0.94970    0.30437    1.000
    H558     H        0.85490    0.96940    0.29700    1.000
    N555     N        0.96399    0.03499    0.37100    1.000
    N556     N        0.99519    0.08614    0.39542    1.000
    N557     N        0.90119    0.95519    0.32826    1.000
    N558     N        0.86851    0.91295    0.29177    1.000
    C699     C        0.99910    0.98000    0.38710    1.000
    H559     H        0.02180    0.96710    0.39390    1.000
    C700     C        0.94780    0.90490    0.35920    1.000
    H560     H        0.94750    0.87810    0.36180    1.000
    N559     N        0.96920    0.96100    0.37520    1.000
    N560     N        0.97470    0.92170    0.37960    1.000
    C701     C        0.53517    0.07321    0.62442    1.000
    H561     H        0.55420    0.08950    0.63430    1.000
    C702     C        0.48498    0.05365    0.59587    1.000
    H562     H        0.46190    0.05300    0.58190    1.000
    C703     C        0.50326    0.02221    0.61020    1.000
    C704     C        0.48830    0.98350    0.60040    1.000
    H563     H        0.46610    0.98350    0.58520    1.000
    C705     C        0.54430    0.92130    0.64850    1.000
    H564     H        0.52740    0.90030    0.64970    1.000
    N561     N        0.50100    0.94940    0.60940    1.000
    N562     N        0.53480    0.95280    0.63020    1.000
    C706     C        0.58230    0.91958    0.66730    1.000
    C707     C        0.60200    0.89400    0.69040    1.000
    H565     H        0.59600    0.86790    0.69350    1.000
    C708     C        0.62825    0.94970    0.69563    1.000
    H566     H        0.64510    0.96940    0.70300    1.000
    N563     N        0.53601    0.03499    0.62900    1.000
    N564     N        0.50481    0.08614    0.60458    1.000
    N565     N        0.59881    0.95519    0.67174    1.000
    N566     N        0.63149    0.91295    0.70823    1.000
    C709     C        0.50090    0.98000    0.61290    1.000
    H567     H        0.47820    0.96710    0.60610    1.000
    C710     C        0.55220    0.90490    0.64080    1.000
    H568     H        0.55250    0.87810    0.63820    1.000
    N567     N        0.53080    0.96100    0.62480    1.000
    N568     N        0.52530    0.92170    0.62040    1.000
    C711     C        0.03517    0.57321    0.12442    1.000
    H569     H        0.05420    0.58950    0.13430    1.000
    C712     C        0.98498    0.55365    0.09587    1.000
    H570     H        0.96190    0.55300    0.08190    1.000
    C713     C        0.00326    0.52221    0.11020    1.000
    C714     C        0.98830    0.48350    0.10040    1.000
    H571     H        0.96610    0.48350    0.08520    1.000
    C715     C        0.04430    0.42130    0.14850    1.000
    H572     H        0.02740    0.40030    0.14970    1.000
    N569     N        0.00100    0.44940    0.10940    1.000
    N570     N        0.03480    0.45280    0.13020    1.000
    C716     C        0.08230    0.41958    0.16730    1.000
    C717     C        0.10200    0.39400    0.19040    1.000
    H573     H        0.09600    0.36790    0.19350    1.000
    C718     C        0.12825    0.44970    0.19563    1.000
    H574     H        0.14510    0.46940    0.20300    1.000
    N571     N        0.03601    0.53499    0.12900    1.000
    N572     N        0.00481    0.58614    0.10458    1.000
    N573     N        0.09881    0.45519    0.17174    1.000
    N574     N        0.13149    0.41295    0.20823    1.000
    C719     C        0.00090    0.48000    0.11290    1.000
    H575     H        0.97820    0.46710    0.10610    1.000
    C720     C        0.05220    0.40490    0.14080    1.000
    H576     H        0.05250    0.37810    0.13820    1.000
    N575     N        0.03080    0.46100    0.12480    1.000
    N576     N        0.02530    0.42170    0.12040    1.000
    C721     C        0.21483    0.87442    0.82321    1.000
    H577     H        0.19580    0.88430    0.83950    1.000
    C722     C        0.26502    0.84587    0.80365    1.000
    H578     H        0.28810    0.83190    0.80300    1.000
    C723     C        0.24674    0.86020    0.77221    1.000
    C724     C        0.26170    0.85040    0.73350    1.000
    H579     H        0.28390    0.83520    0.73350    1.000
    C725     C        0.20570    0.89850    0.67130    1.000
    H580     H        0.22260    0.89970    0.65030    1.000
    N577     N        0.24900    0.85940    0.69940    1.000
    N578     N        0.21520    0.88020    0.70280    1.000
    C726     C        0.16770    0.91730    0.66958    1.000
    C727     C        0.14800    0.94040    0.64400    1.000
    H581     H        0.15400    0.94350    0.61790    1.000
    C728     C        0.12175    0.94563    0.69970    1.000
    H582     H        0.10490    0.95300    0.71940    1.000
    N579     N        0.21399    0.87900    0.78499    1.000
    N580     N        0.24519    0.85458    0.83614    1.000
    N581     N        0.15119    0.92174    0.70519    1.000
    N582     N        0.11851    0.95823    0.66295    1.000
    C729     C        0.24910    0.86290    0.73000    1.000
    H583     H        0.27180    0.85610    0.71710    1.000
    C730     C        0.19780    0.89080    0.65490    1.000
    H584     H        0.19750    0.88820    0.62810    1.000
    N583     N        0.21920    0.87480    0.71100    1.000
    N584     N        0.22470    0.87040    0.67170    1.000
    C731     C        0.71483    0.37442    0.32321    1.000
    H585     H        0.69580    0.38430    0.33950    1.000
    C732     C        0.76502    0.34587    0.30365    1.000
    H586     H        0.78810    0.33190    0.30300    1.000
    C733     C        0.74674    0.36020    0.27221    1.000
    C734     C        0.76170    0.35040    0.23350    1.000
    H587     H        0.78390    0.33520    0.23350    1.000
    C735     C        0.70570    0.39850    0.17130    1.000
    H588     H        0.72260    0.39970    0.15030    1.000
    N585     N        0.74900    0.35940    0.19940    1.000
    N586     N        0.71520    0.38020    0.20280    1.000
    C736     C        0.66770    0.41730    0.16958    1.000
    C737     C        0.64800    0.44040    0.14400    1.000
    H589     H        0.65400    0.44350    0.11790    1.000
    C738     C        0.62175    0.44563    0.19970    1.000
    H590     H        0.60490    0.45300    0.21940    1.000
    N587     N        0.71399    0.37900    0.28499    1.000
    N588     N        0.74519    0.35458    0.33614    1.000
    N589     N        0.65119    0.42174    0.20519    1.000
    N590     N        0.61851    0.45823    0.16295    1.000
    C739     C        0.74910    0.36290    0.23000    1.000
    H591     H        0.77180    0.35610    0.21710    1.000
    C740     C        0.69780    0.39080    0.15490    1.000
    H592     H        0.69750    0.38820    0.12810    1.000
    N591     N        0.71920    0.37480    0.21100    1.000
    N592     N        0.72470    0.37040    0.17170    1.000
    C741     C        0.28517    0.12558    0.32321    1.000
    H593     H        0.30420    0.11570    0.33950    1.000
    C742     C        0.23498    0.15413    0.30365    1.000
    H594     H        0.21190    0.16810    0.30300    1.000
    C743     C        0.25326    0.13980    0.27221    1.000
    C744     C        0.23830    0.14960    0.23350    1.000
    H595     H        0.21610    0.16480    0.23350    1.000
    C745     C        0.29430    0.10150    0.17130    1.000
    H596     H        0.27740    0.10030    0.15030    1.000
    N593     N        0.25100    0.14060    0.19940    1.000
    N594     N        0.28480    0.11980    0.20280    1.000
    C746     C        0.33230    0.08270    0.16958    1.000
    C747     C        0.35200    0.05960    0.14400    1.000
    H597     H        0.34600    0.05650    0.11790    1.000
    C748     C        0.37825    0.05437    0.19970    1.000
    H598     H        0.39510    0.04700    0.21940    1.000
    N595     N        0.28601    0.12100    0.28499    1.000
    N596     N        0.25481    0.14542    0.33614    1.000
    N597     N        0.34881    0.07826    0.20519    1.000
    N598     N        0.38149    0.04177    0.16295    1.000
    C749     C        0.25090    0.13710    0.23000    1.000
    H599     H        0.22820    0.14390    0.21710    1.000
    C750     C        0.30220    0.10920    0.15490    1.000
    H600     H        0.30250    0.11180    0.12810    1.000
    N599     N        0.28080    0.12520    0.21100    1.000
    N600     N        0.27530    0.12960    0.17170    1.000
    C751     C        0.78517    0.62558    0.82321    1.000
    H601     H        0.80420    0.61570    0.83950    1.000
    C752     C        0.73498    0.65413    0.80365    1.000
    H602     H        0.71190    0.66810    0.80300    1.000
    C753     C        0.75326    0.63980    0.77221    1.000
    C754     C        0.73830    0.64960    0.73350    1.000
    H603     H        0.71610    0.66480    0.73350    1.000
    C755     C        0.79430    0.60150    0.67130    1.000
    H604     H        0.77740    0.60030    0.65030    1.000
    N601     N        0.75100    0.64060    0.69940    1.000
    N602     N        0.78480    0.61980    0.70280    1.000
    C756     C        0.83230    0.58270    0.66958    1.000
    C757     C        0.85200    0.55960    0.64400    1.000
    H605     H        0.84600    0.55650    0.61790    1.000
    C758     C        0.87825    0.55437    0.69970    1.000
    H606     H        0.89510    0.54700    0.71940    1.000
    N603     N        0.78601    0.62100    0.78499    1.000
    N604     N        0.75481    0.64542    0.83614    1.000
    N605     N        0.84881    0.57826    0.70519    1.000
    N606     N        0.88149    0.54177    0.66295    1.000
    C759     C        0.75090    0.63710    0.73000    1.000
    H607     H        0.72820    0.64390    0.71710    1.000
    C760     C        0.80220    0.60920    0.65490    1.000
    H608     H        0.80250    0.61180    0.62810    1.000
    N607     N        0.78080    0.62520    0.71100    1.000
    N608     N        0.77530    0.62960    0.67170    1.000
    C761     C        0.71483    0.62558    0.17679    1.000
    H609     H        0.69580    0.61570    0.16050    1.000
    C762     C        0.76502    0.65413    0.19635    1.000
    H610     H        0.78810    0.66810    0.19700    1.000
    C763     C        0.74674    0.63980    0.22779    1.000
    C764     C        0.76170    0.64960    0.26650    1.000
    H611     H        0.78390    0.66480    0.26650    1.000
    C765     C        0.70570    0.60150    0.32870    1.000
    H612     H        0.72260    0.60030    0.34970    1.000
    N609     N        0.74900    0.64060    0.30060    1.000
    N610     N        0.71520    0.61980    0.29720    1.000
    C766     C        0.66770    0.58270    0.33042    1.000
    C767     C        0.64800    0.55960    0.35600    1.000
    H613     H        0.65400    0.55650    0.38210    1.000
    C768     C        0.62175    0.55437    0.30030    1.000
    H614     H        0.60490    0.54700    0.28060    1.000
    N611     N        0.71399    0.62100    0.21501    1.000
    N612     N        0.74519    0.64542    0.16386    1.000
    N613     N        0.65119    0.57826    0.29481    1.000
    N614     N        0.61851    0.54177    0.33705    1.000
    C769     C        0.74910    0.63710    0.27000    1.000
    H615     H        0.77180    0.64390    0.28290    1.000
    C770     C        0.69780    0.60920    0.34510    1.000
    H616     H        0.69750    0.61180    0.37190    1.000
    N615     N        0.71920    0.62520    0.28900    1.000
    N616     N        0.72470    0.62960    0.32830    1.000
    C771     C        0.21483    0.12558    0.67679    1.000
    H617     H        0.19580    0.11570    0.66050    1.000
    C772     C        0.26502    0.15413    0.69635    1.000
    H618     H        0.28810    0.16810    0.69700    1.000
    C773     C        0.24674    0.13980    0.72779    1.000
    C774     C        0.26170    0.14960    0.76650    1.000
    H619     H        0.28390    0.16480    0.76650    1.000
    C775     C        0.20570    0.10150    0.82870    1.000
    H620     H        0.22260    0.10030    0.84970    1.000
    N617     N        0.24900    0.14060    0.80060    1.000
    N618     N        0.21520    0.11980    0.79720    1.000
    C776     C        0.16770    0.08270    0.83042    1.000
    C777     C        0.14800    0.05960    0.85600    1.000
    H621     H        0.15400    0.05650    0.88210    1.000
    C778     C        0.12175    0.05437    0.80030    1.000
    H622     H        0.10490    0.04700    0.78060    1.000
    N619     N        0.21399    0.12100    0.71501    1.000
    N620     N        0.24519    0.14542    0.66386    1.000
    N621     N        0.15119    0.07826    0.79481    1.000
    N622     N        0.11851    0.04177    0.83705    1.000
    C779     C        0.24910    0.13710    0.77000    1.000
    H623     H        0.27180    0.14390    0.78290    1.000
    C780     C        0.19780    0.10920    0.84510    1.000
    H624     H        0.19750    0.11180    0.87190    1.000
    N623     N        0.21920    0.12520    0.78900    1.000
    N624     N        0.22470    0.12960    0.82830    1.000
    C781     C        0.78517    0.37442    0.67679    1.000
    H625     H        0.80420    0.38430    0.66050    1.000
    C782     C        0.73498    0.34587    0.69635    1.000
    H626     H        0.71190    0.33190    0.69700    1.000
    C783     C        0.75326    0.36020    0.72779    1.000
    C784     C        0.73830    0.35040    0.76650    1.000
    H627     H        0.71610    0.33520    0.76650    1.000
    C785     C        0.79430    0.39850    0.82870    1.000
    H628     H        0.77740    0.39970    0.84970    1.000
    N625     N        0.75100    0.35940    0.80060    1.000
    N626     N        0.78480    0.38020    0.79720    1.000
    C786     C        0.83230    0.41730    0.83042    1.000
    C787     C        0.85200    0.44040    0.85600    1.000
    H629     H        0.84600    0.44350    0.88210    1.000
    C788     C        0.87825    0.44563    0.80030    1.000
    H630     H        0.89510    0.45300    0.78060    1.000
    N627     N        0.78601    0.37900    0.71501    1.000
    N628     N        0.75481    0.35458    0.66386    1.000
    N629     N        0.84881    0.42174    0.79481    1.000
    N630     N        0.88149    0.45823    0.83705    1.000
    C789     C        0.75090    0.36290    0.77000    1.000
    H631     H        0.72820    0.35610    0.78290    1.000
    C790     C        0.80220    0.39080    0.84510    1.000
    H632     H        0.80250    0.38820    0.87190    1.000
    N631     N        0.78080    0.37480    0.78900    1.000
    N632     N        0.77530    0.37040    0.82830    1.000
    C791     C        0.28517    0.87442    0.17679    1.000
    H633     H        0.30420    0.88430    0.16050    1.000
    C792     C        0.23498    0.84587    0.19635    1.000
    H634     H        0.21190    0.83190    0.19700    1.000
    C793     C        0.25326    0.86020    0.22779    1.000
    C794     C        0.23830    0.85040    0.26650    1.000
    H635     H        0.21610    0.83520    0.26650    1.000
    C795     C        0.29430    0.89850    0.32870    1.000
    H636     H        0.27740    0.89970    0.34970    1.000
    N633     N        0.25100    0.85940    0.30060    1.000
    N634     N        0.28480    0.88020    0.29720    1.000
    C796     C        0.33230    0.91730    0.33042    1.000
    C797     C        0.35200    0.94040    0.35600    1.000
    H637     H        0.34600    0.94350    0.38210    1.000
    C798     C        0.37825    0.94563    0.30030    1.000
    H638     H        0.39510    0.95300    0.28060    1.000
    N635     N        0.28601    0.87900    0.21501    1.000
    N636     N        0.25481    0.85458    0.16386    1.000
    N637     N        0.34881    0.92174    0.29481    1.000
    N638     N        0.38149    0.95823    0.33705    1.000
    C799     C        0.25090    0.86290    0.27000    1.000
    H639     H        0.22820    0.85610    0.28290    1.000
    C800     C        0.30220    0.89080    0.34510    1.000
    H640     H        0.30250    0.88820    0.37190    1.000
    N639     N        0.28080    0.87480    0.28900    1.000
    N640     N        0.27530    0.87040    0.32830    1.000
    C801     C        0.37442    0.67679    0.78517    1.000
    H641     H        0.38430    0.66050    0.80420    1.000
    C802     C        0.34587    0.69635    0.73498    1.000
    H642     H        0.33190    0.69700    0.71190    1.000
    C803     C        0.36020    0.72779    0.75326    1.000
    C804     C        0.35040    0.76650    0.73830    1.000
    H643     H        0.33520    0.76650    0.71610    1.000
    C805     C        0.39850    0.82870    0.79430    1.000
    H644     H        0.39970    0.84970    0.77740    1.000
    N641     N        0.35940    0.80060    0.75100    1.000
    N642     N        0.38020    0.79720    0.78480    1.000
    C806     C        0.41730    0.83042    0.83230    1.000
    C807     C        0.44040    0.85600    0.85200    1.000
    H645     H        0.44350    0.88210    0.84600    1.000
    C808     C        0.44563    0.80030    0.87825    1.000
    H646     H        0.45300    0.78060    0.89510    1.000
    N643     N        0.37900    0.71501    0.78601    1.000
    N644     N        0.35458    0.66386    0.75481    1.000
    N645     N        0.42174    0.79481    0.84881    1.000
    N646     N        0.45823    0.83705    0.88149    1.000
    C809     C        0.36290    0.77000    0.75090    1.000
    H647     H        0.35610    0.78290    0.72820    1.000
    C810     C        0.39080    0.84510    0.80220    1.000
    H648     H        0.38820    0.87190    0.80250    1.000
    N647     N        0.37480    0.78900    0.78080    1.000
    N648     N        0.37040    0.82830    0.77530    1.000
    C811     C        0.87442    0.17679    0.28517    1.000
    H649     H        0.88430    0.16050    0.30420    1.000
    C812     C        0.84587    0.19635    0.23498    1.000
    H650     H        0.83190    0.19700    0.21190    1.000
    C813     C        0.86020    0.22779    0.25326    1.000
    C814     C        0.85040    0.26650    0.23830    1.000
    H651     H        0.83520    0.26650    0.21610    1.000
    C815     C        0.89850    0.32870    0.29430    1.000
    H652     H        0.89970    0.34970    0.27740    1.000
    N649     N        0.85940    0.30060    0.25100    1.000
    N650     N        0.88020    0.29720    0.28480    1.000
    C816     C        0.91730    0.33042    0.33230    1.000
    C817     C        0.94040    0.35600    0.35200    1.000
    H653     H        0.94350    0.38210    0.34600    1.000
    C818     C        0.94563    0.30030    0.37825    1.000
    H654     H        0.95300    0.28060    0.39510    1.000
    N651     N        0.87900    0.21501    0.28601    1.000
    N652     N        0.85458    0.16386    0.25481    1.000
    N653     N        0.92174    0.29481    0.34881    1.000
    N654     N        0.95823    0.33705    0.38149    1.000
    C819     C        0.86290    0.27000    0.25090    1.000
    H655     H        0.85610    0.28290    0.22820    1.000
    C820     C        0.89080    0.34510    0.30220    1.000
    H656     H        0.88820    0.37190    0.30250    1.000
    N655     N        0.87480    0.28900    0.28080    1.000
    N656     N        0.87040    0.32830    0.27530    1.000
    C821     C        0.62558    0.17679    0.71483    1.000
    H657     H        0.61570    0.16050    0.69580    1.000
    C822     C        0.65413    0.19635    0.76502    1.000
    H658     H        0.66810    0.19700    0.78810    1.000
    C823     C        0.63980    0.22779    0.74674    1.000
    C824     C        0.64960    0.26650    0.76170    1.000
    H659     H        0.66480    0.26650    0.78390    1.000
    C825     C        0.60150    0.32870    0.70570    1.000
    H660     H        0.60030    0.34970    0.72260    1.000
    N657     N        0.64060    0.30060    0.74900    1.000
    N658     N        0.61980    0.29720    0.71520    1.000
    C826     C        0.58270    0.33042    0.66770    1.000
    C827     C        0.55960    0.35600    0.64800    1.000
    H661     H        0.55650    0.38210    0.65400    1.000
    C828     C        0.55437    0.30030    0.62175    1.000
    H662     H        0.54700    0.28060    0.60490    1.000
    N659     N        0.62100    0.21501    0.71399    1.000
    N660     N        0.64542    0.16386    0.74519    1.000
    N661     N        0.57826    0.29481    0.65119    1.000
    N662     N        0.54177    0.33705    0.61851    1.000
    C829     C        0.63710    0.27000    0.74910    1.000
    H663     H        0.64390    0.28290    0.77180    1.000
    C830     C        0.60920    0.34510    0.69780    1.000
    H664     H        0.61180    0.37190    0.69750    1.000
    N663     N        0.62520    0.28900    0.71920    1.000
    N664     N        0.62960    0.32830    0.72470    1.000
    C831     C        0.12558    0.67679    0.21483    1.000
    H665     H        0.11570    0.66050    0.19580    1.000
    C832     C        0.15413    0.69635    0.26502    1.000
    H666     H        0.16810    0.69700    0.28810    1.000
    C833     C        0.13980    0.72779    0.24674    1.000
    C834     C        0.14960    0.76650    0.26170    1.000
    H667     H        0.16480    0.76650    0.28390    1.000
    C835     C        0.10150    0.82870    0.20570    1.000
    H668     H        0.10030    0.84970    0.22260    1.000
    N665     N        0.14060    0.80060    0.24900    1.000
    N666     N        0.11980    0.79720    0.21520    1.000
    C836     C        0.08270    0.83042    0.16770    1.000
    C837     C        0.05960    0.85600    0.14800    1.000
    H669     H        0.05650    0.88210    0.15400    1.000
    C838     C        0.05437    0.80030    0.12175    1.000
    H670     H        0.04700    0.78060    0.10490    1.000
    N667     N        0.12100    0.71501    0.21399    1.000
    N668     N        0.14542    0.66386    0.24519    1.000
    N669     N        0.07826    0.79481    0.15119    1.000
    N670     N        0.04177    0.83705    0.11851    1.000
    C839     C        0.13710    0.77000    0.24910    1.000
    H671     H        0.14390    0.78290    0.27180    1.000
    C840     C        0.10920    0.84510    0.19780    1.000
    H672     H        0.11180    0.87190    0.19750    1.000
    N671     N        0.12520    0.78900    0.21920    1.000
    N672     N        0.12960    0.82830    0.22470    1.000
    C841     C        0.12558    0.32321    0.28517    1.000
    H673     H        0.11570    0.33950    0.30420    1.000
    C842     C        0.15413    0.30365    0.23498    1.000
    H674     H        0.16810    0.30300    0.21190    1.000
    C843     C        0.13980    0.27221    0.25326    1.000
    C844     C        0.14960    0.23350    0.23830    1.000
    H675     H        0.16480    0.23350    0.21610    1.000
    C845     C        0.10150    0.17130    0.29430    1.000
    H676     H        0.10030    0.15030    0.27740    1.000
    N673     N        0.14060    0.19940    0.25100    1.000
    N674     N        0.11980    0.20280    0.28480    1.000
    C846     C        0.08270    0.16958    0.33230    1.000
    C847     C        0.05960    0.14400    0.35200    1.000
    H677     H        0.05650    0.11790    0.34600    1.000
    C848     C        0.05437    0.19970    0.37825    1.000
    H678     H        0.04700    0.21940    0.39510    1.000
    N675     N        0.12100    0.28499    0.28601    1.000
    N676     N        0.14542    0.33614    0.25481    1.000
    N677     N        0.07826    0.20519    0.34881    1.000
    N678     N        0.04177    0.16295    0.38149    1.000
    C849     C        0.13710    0.23000    0.25090    1.000
    H679     H        0.14390    0.21710    0.22820    1.000
    C850     C        0.10920    0.15490    0.30220    1.000
    H680     H        0.11180    0.12810    0.30250    1.000
    N679     N        0.12520    0.21100    0.28080    1.000
    N680     N        0.12960    0.17170    0.27530    1.000
    C851     C        0.62558    0.82321    0.78517    1.000
    H681     H        0.61570    0.83950    0.80420    1.000
    C852     C        0.65413    0.80365    0.73498    1.000
    H682     H        0.66810    0.80300    0.71190    1.000
    C853     C        0.63980    0.77221    0.75326    1.000
    C854     C        0.64960    0.73350    0.73830    1.000
    H683     H        0.66480    0.73350    0.71610    1.000
    C855     C        0.60150    0.67130    0.79430    1.000
    H684     H        0.60030    0.65030    0.77740    1.000
    N681     N        0.64060    0.69940    0.75100    1.000
    N682     N        0.61980    0.70280    0.78480    1.000
    C856     C        0.58270    0.66958    0.83230    1.000
    C857     C        0.55960    0.64400    0.85200    1.000
    H685     H        0.55650    0.61790    0.84600    1.000
    C858     C        0.55437    0.69970    0.87825    1.000
    H686     H        0.54700    0.71940    0.89510    1.000
    N683     N        0.62100    0.78499    0.78601    1.000
    N684     N        0.64542    0.83614    0.75481    1.000
    N685     N        0.57826    0.70519    0.84881    1.000
    N686     N        0.54177    0.66295    0.88149    1.000
    C859     C        0.63710    0.73000    0.75090    1.000
    H687     H        0.64390    0.71710    0.72820    1.000
    C860     C        0.60920    0.65490    0.80220    1.000
    H688     H        0.61180    0.62810    0.80250    1.000
    N687     N        0.62520    0.71100    0.78080    1.000
    N688     N        0.62960    0.67170    0.77530    1.000
    C861     C        0.87442    0.82321    0.21483    1.000
    H689     H        0.88430    0.83950    0.19580    1.000
    C862     C        0.84587    0.80365    0.26502    1.000
    H690     H        0.83190    0.80300    0.28810    1.000
    C863     C        0.86020    0.77221    0.24674    1.000
    C864     C        0.85040    0.73350    0.26170    1.000
    H691     H        0.83520    0.73350    0.28390    1.000
    C865     C        0.89850    0.67130    0.20570    1.000
    H692     H        0.89970    0.65030    0.22260    1.000
    N689     N        0.85940    0.69940    0.24900    1.000
    N690     N        0.88020    0.70280    0.21520    1.000
    C866     C        0.91730    0.66958    0.16770    1.000
    C867     C        0.94040    0.64400    0.14800    1.000
    H693     H        0.94350    0.61790    0.15400    1.000
    C868     C        0.94563    0.69970    0.12175    1.000
    H694     H        0.95300    0.71940    0.10490    1.000
    N691     N        0.87900    0.78499    0.21399    1.000
    N692     N        0.85458    0.83614    0.24519    1.000
    N693     N        0.92174    0.70519    0.15119    1.000
    N694     N        0.95823    0.66295    0.11851    1.000
    C869     C        0.86290    0.73000    0.24910    1.000
    H695     H        0.85610    0.71710    0.27180    1.000
    C870     C        0.89080    0.65490    0.19780    1.000
    H696     H        0.88820    0.62810    0.19750    1.000
    N695     N        0.87480    0.71100    0.21920    1.000
    N696     N        0.87040    0.67170    0.22470    1.000
    C871     C        0.37442    0.32321    0.71483    1.000
    H697     H        0.38430    0.33950    0.69580    1.000
    C872     C        0.34587    0.30365    0.76502    1.000
    H698     H        0.33190    0.30300    0.78810    1.000
    C873     C        0.36020    0.27221    0.74674    1.000
    C874     C        0.35040    0.23350    0.76170    1.000
    H699     H        0.33520    0.23350    0.78390    1.000
    C875     C        0.39850    0.17130    0.70570    1.000
    H700     H        0.39970    0.15030    0.72260    1.000
    N697     N        0.35940    0.19940    0.74900    1.000
    N698     N        0.38020    0.20280    0.71520    1.000
    C876     C        0.41730    0.16958    0.66770    1.000
    C877     C        0.44040    0.14400    0.64800    1.000
    H701     H        0.44350    0.11790    0.65400    1.000
    C878     C        0.44563    0.19970    0.62175    1.000
    H702     H        0.45300    0.21940    0.60490    1.000
    N699     N        0.37900    0.28499    0.71399    1.000
    N700     N        0.35458    0.33614    0.74519    1.000
    N701     N        0.42174    0.20519    0.65119    1.000
    N702     N        0.45823    0.16295    0.61851    1.000
    C879     C        0.36290    0.23000    0.74910    1.000
    H703     H        0.35610    0.21710    0.77180    1.000
    C880     C        0.39080    0.15490    0.69780    1.000
    H704     H        0.38820    0.12810    0.69750    1.000
    N703     N        0.37480    0.21100    0.71920    1.000
    N704     N        0.37040    0.17170    0.72470    1.000
    C881     C        0.17679    0.71483    0.62558    1.000
    H705     H        0.16050    0.69580    0.61570    1.000
    C882     C        0.19635    0.76502    0.65413    1.000
    H706     H        0.19700    0.78810    0.66810    1.000
    C883     C        0.22779    0.74674    0.63980    1.000
    C884     C        0.26650    0.76170    0.64960    1.000
    H707     H        0.26650    0.78390    0.66480    1.000
    C885     C        0.32870    0.70570    0.60150    1.000
    H708     H        0.34970    0.72260    0.60030    1.000
    N705     N        0.30060    0.74900    0.64060    1.000
    N706     N        0.29720    0.71520    0.61980    1.000
    C886     C        0.33042    0.66770    0.58270    1.000
    C887     C        0.35600    0.64800    0.55960    1.000
    H709     H        0.38210    0.65400    0.55650    1.000
    C888     C        0.30030    0.62175    0.55437    1.000
    H710     H        0.28060    0.60490    0.54700    1.000
    N707     N        0.21501    0.71399    0.62100    1.000
    N708     N        0.16386    0.74519    0.64542    1.000
    N709     N        0.29481    0.65119    0.57826    1.000
    N710     N        0.33705    0.61851    0.54177    1.000
    C889     C        0.27000    0.74910    0.63710    1.000
    H711     H        0.28290    0.77180    0.64390    1.000
    C890     C        0.34510    0.69780    0.60920    1.000
    H712     H        0.37190    0.69750    0.61180    1.000
    N711     N        0.28900    0.71920    0.62520    1.000
    N712     N        0.32830    0.72470    0.62960    1.000
    C891     C        0.67679    0.21483    0.12558    1.000
    H713     H        0.66050    0.19580    0.11570    1.000
    C892     C        0.69635    0.26502    0.15413    1.000
    H714     H        0.69700    0.28810    0.16810    1.000
    C893     C        0.72779    0.24674    0.13980    1.000
    C894     C        0.76650    0.26170    0.14960    1.000
    H715     H        0.76650    0.28390    0.16480    1.000
    C895     C        0.82870    0.20570    0.10150    1.000
    H716     H        0.84970    0.22260    0.10030    1.000
    N713     N        0.80060    0.24900    0.14060    1.000
    N714     N        0.79720    0.21520    0.11980    1.000
    C896     C        0.83042    0.16770    0.08270    1.000
    C897     C        0.85600    0.14800    0.05960    1.000
    H717     H        0.88210    0.15400    0.05650    1.000
    C898     C        0.80030    0.12175    0.05437    1.000
    H718     H        0.78060    0.10490    0.04700    1.000
    N715     N        0.71501    0.21399    0.12100    1.000
    N716     N        0.66386    0.24519    0.14542    1.000
    N717     N        0.79481    0.15119    0.07826    1.000
    N718     N        0.83705    0.11851    0.04177    1.000
    C899     C        0.77000    0.24910    0.13710    1.000
    H719     H        0.78290    0.27180    0.14390    1.000
    C900     C        0.84510    0.19780    0.10920    1.000
    H720     H        0.87190    0.19750    0.11180    1.000
    N719     N        0.78900    0.21920    0.12520    1.000
    N720     N        0.82830    0.22470    0.12960    1.000
    C901     C        0.67679    0.78517    0.37442    1.000
    H721     H        0.66050    0.80420    0.38430    1.000
    C902     C        0.69635    0.73498    0.34587    1.000
    H722     H        0.69700    0.71190    0.33190    1.000
    C903     C        0.72779    0.75326    0.36020    1.000
    C904     C        0.76650    0.73830    0.35040    1.000
    H723     H        0.76650    0.71610    0.33520    1.000
    C905     C        0.82870    0.79430    0.39850    1.000
    H724     H        0.84970    0.77740    0.39970    1.000
    N721     N        0.80060    0.75100    0.35940    1.000
    N722     N        0.79720    0.78480    0.38020    1.000
    C906     C        0.83042    0.83230    0.41730    1.000
    C907     C        0.85600    0.85200    0.44040    1.000
    H725     H        0.88210    0.84600    0.44350    1.000
    C908     C        0.80030    0.87825    0.44563    1.000
    H726     H        0.78060    0.89510    0.45300    1.000
    N723     N        0.71501    0.78601    0.37900    1.000
    N724     N        0.66386    0.75481    0.35458    1.000
    N725     N        0.79481    0.84881    0.42174    1.000
    N726     N        0.83705    0.88149    0.45823    1.000
    C909     C        0.77000    0.75090    0.36290    1.000
    H727     H        0.78290    0.72820    0.35610    1.000
    C910     C        0.84510    0.80220    0.39080    1.000
    H728     H        0.87190    0.80250    0.38820    1.000
    N727     N        0.78900    0.78080    0.37480    1.000
    N728     N        0.82830    0.77530    0.37040    1.000
    C911     C        0.17679    0.28517    0.87442    1.000
    H729     H        0.16050    0.30420    0.88430    1.000
    C912     C        0.19635    0.23498    0.84587    1.000
    H730     H        0.19700    0.21190    0.83190    1.000
    C913     C        0.22779    0.25326    0.86020    1.000
    C914     C        0.26650    0.23830    0.85040    1.000
    H731     H        0.26650    0.21610    0.83520    1.000
    C915     C        0.32870    0.29430    0.89850    1.000
    H732     H        0.34970    0.27740    0.89970    1.000
    N729     N        0.30060    0.25100    0.85940    1.000
    N730     N        0.29720    0.28480    0.88020    1.000
    C916     C        0.33042    0.33230    0.91730    1.000
    C917     C        0.35600    0.35200    0.94040    1.000
    H733     H        0.38210    0.34600    0.94350    1.000
    C918     C        0.30030    0.37825    0.94563    1.000
    H734     H        0.28060    0.39510    0.95300    1.000
    N731     N        0.21501    0.28601    0.87900    1.000
    N732     N        0.16386    0.25481    0.85458    1.000
    N733     N        0.29481    0.34881    0.92174    1.000
    N734     N        0.33705    0.38149    0.95823    1.000
    C919     C        0.27000    0.25090    0.86290    1.000
    H735     H        0.28290    0.22820    0.85610    1.000
    C920     C        0.34510    0.30220    0.89080    1.000
    H736     H        0.37190    0.30250    0.88820    1.000
    N735     N        0.28900    0.28080    0.87480    1.000
    N736     N        0.32830    0.27530    0.87040    1.000
    C921     C        0.82321    0.21483    0.87442    1.000
    H737     H        0.83950    0.19580    0.88430    1.000
    C922     C        0.80365    0.26502    0.84587    1.000
    H738     H        0.80300    0.28810    0.83190    1.000
    C923     C        0.77221    0.24674    0.86020    1.000
    C924     C        0.73350    0.26170    0.85040    1.000
    H739     H        0.73350    0.28390    0.83520    1.000
    C925     C        0.67130    0.20570    0.89850    1.000
    H740     H        0.65030    0.22260    0.89970    1.000
    N737     N        0.69940    0.24900    0.85940    1.000
    N738     N        0.70280    0.21520    0.88020    1.000
    C926     C        0.66958    0.16770    0.91730    1.000
    C927     C        0.64400    0.14800    0.94040    1.000
    H741     H        0.61790    0.15400    0.94350    1.000
    C928     C        0.69970    0.12175    0.94563    1.000
    H742     H        0.71940    0.10490    0.95300    1.000
    N739     N        0.78499    0.21399    0.87900    1.000
    N740     N        0.83614    0.24519    0.85458    1.000
    N741     N        0.70519    0.15119    0.92174    1.000
    N742     N        0.66295    0.11851    0.95823    1.000
    C929     C        0.73000    0.24910    0.86290    1.000
    H743     H        0.71710    0.27180    0.85610    1.000
    C930     C        0.65490    0.19780    0.89080    1.000
    H744     H        0.62810    0.19750    0.88820    1.000
    N743     N        0.71100    0.21920    0.87480    1.000
    N744     N        0.67170    0.22470    0.87040    1.000
    C931     C        0.32321    0.71483    0.37442    1.000
    H745     H        0.33950    0.69580    0.38430    1.000
    C932     C        0.30365    0.76502    0.34587    1.000
    H746     H        0.30300    0.78810    0.33190    1.000
    C933     C        0.27221    0.74674    0.36020    1.000
    C934     C        0.23350    0.76170    0.35040    1.000
    H747     H        0.23350    0.78390    0.33520    1.000
    C935     C        0.17130    0.70570    0.39850    1.000
    H748     H        0.15030    0.72260    0.39970    1.000
    N745     N        0.19940    0.74900    0.35940    1.000
    N746     N        0.20280    0.71520    0.38020    1.000
    C936     C        0.16958    0.66770    0.41730    1.000
    C937     C        0.14400    0.64800    0.44040    1.000
    H749     H        0.11790    0.65400    0.44350    1.000
    C938     C        0.19970    0.62175    0.44563    1.000
    H750     H        0.21940    0.60490    0.45300    1.000
    N747     N        0.28499    0.71399    0.37900    1.000
    N748     N        0.33614    0.74519    0.35458    1.000
    N749     N        0.20519    0.65119    0.42174    1.000
    N750     N        0.16295    0.61851    0.45823    1.000
    C939     C        0.23000    0.74910    0.36290    1.000
    H751     H        0.21710    0.77180    0.35610    1.000
    C940     C        0.15490    0.69780    0.39080    1.000
    H752     H        0.12810    0.69750    0.38820    1.000
    N751     N        0.21100    0.71920    0.37480    1.000
    N752     N        0.17170    0.72470    0.37040    1.000
    C941     C        0.32321    0.28517    0.12558    1.000
    H753     H        0.33950    0.30420    0.11570    1.000
    C942     C        0.30365    0.23498    0.15413    1.000
    H754     H        0.30300    0.21190    0.16810    1.000
    C943     C        0.27221    0.25326    0.13980    1.000
    C944     C        0.23350    0.23830    0.14960    1.000
    H755     H        0.23350    0.21610    0.16480    1.000
    C945     C        0.17130    0.29430    0.10150    1.000
    H756     H        0.15030    0.27740    0.10030    1.000
    N753     N        0.19940    0.25100    0.14060    1.000
    N754     N        0.20280    0.28480    0.11980    1.000
    C946     C        0.16958    0.33230    0.08270    1.000
    C947     C        0.14400    0.35200    0.05960    1.000
    H757     H        0.11790    0.34600    0.05650    1.000
    C948     C        0.19970    0.37825    0.05437    1.000
    H758     H        0.21940    0.39510    0.04700    1.000
    N755     N        0.28499    0.28601    0.12100    1.000
    N756     N        0.33614    0.25481    0.14542    1.000
    N757     N        0.20519    0.34881    0.07826    1.000
    N758     N        0.16295    0.38149    0.04177    1.000
    C949     C        0.23000    0.25090    0.13710    1.000
    H759     H        0.21710    0.22820    0.14390    1.000
    C950     C        0.15490    0.30220    0.10920    1.000
    H760     H        0.12810    0.30250    0.11180    1.000
    N759     N        0.21100    0.28080    0.12520    1.000
    N760     N        0.17170    0.27530    0.12960    1.000
    C951     C        0.82321    0.78517    0.62558    1.000
    H761     H        0.83950    0.80420    0.61570    1.000
    C952     C        0.80365    0.73498    0.65413    1.000
    H762     H        0.80300    0.71190    0.66810    1.000
    C953     C        0.77221    0.75326    0.63980    1.000
    C954     C        0.73350    0.73830    0.64960    1.000
    H763     H        0.73350    0.71610    0.66480    1.000
    C955     C        0.67130    0.79430    0.60150    1.000
    H764     H        0.65030    0.77740    0.60030    1.000
    N761     N        0.69940    0.75100    0.64060    1.000
    N762     N        0.70280    0.78480    0.61980    1.000
    C956     C        0.66958    0.83230    0.58270    1.000
    C957     C        0.64400    0.85200    0.55960    1.000
    H765     H        0.61790    0.84600    0.55650    1.000
    C958     C        0.69970    0.87825    0.55437    1.000
    H766     H        0.71940    0.89510    0.54700    1.000
    N763     N        0.78499    0.78601    0.62100    1.000
    N764     N        0.83614    0.75481    0.64542    1.000
    N765     N        0.70519    0.84881    0.57826    1.000
    N766     N        0.66295    0.88149    0.54177    1.000
    C959     C        0.73000    0.75090    0.63710    1.000
    H767     H        0.71710    0.72820    0.64390    1.000
    C960     C        0.65490    0.80220    0.60920    1.000
    H768     H        0.62810    0.80250    0.61180    1.000
    N767     N        0.71100    0.78080    0.62520    1.000
    N768     N        0.67170    0.77530    0.62960    1.000
