# CIF file generated by openbabel 3.1.0, see https://openbabel.org
data_I
_chemical_name_common 'MUBZUG'
_cell_length_a 21.983
_cell_length_b 21.983
_cell_length_c 21.983
_cell_angle_alpha 90
_cell_angle_beta 90
_cell_angle_gamma 90
_space_group_name_H-M_alt 'P 1'
_space_group_name_Hall 'P 1'
loop_
    _symmetry_equiv_pos_as_xyz
    x,y,z
loop_
    _atom_site_label
    _atom_site_type_symbol
    _atom_site_fract_x
    _atom_site_fract_y
    _atom_site_fract_z
    _atom_site_occupancy
    X1       C        0.55777    0.00058    0.62807    1.000
    C2       C        0.50199    0.00010    0.65941    1.000
    X3       C        0.44609    0.99969    0.62843    1.000
    C4       C        0.44554    0.00002    0.56392    1.000
    C5       C        0.50138    0.00024    0.53124    1.000
    C6       C        0.55764    0.00040    0.56337    1.000
    C7       C        0.61217    0.00036    0.52984    1.000
    C8       C        0.61174    0.00008    0.46640    1.000
    C9       C        0.55675    0.00006    0.43351    1.000
    C10      C        0.50090    0.00029    0.46622    1.000
    C11      C        0.39055    0.00012    0.53120    1.000
    C12      C        0.39007    0.00048    0.46777    1.000
    C13      C        0.44459    0.00053    0.43417    1.000
    X14      C        0.44432    0.00080    0.36949    1.000
    C15      C        0.50004    0.00031    0.33802    1.000
    X16      C        0.55610    0.99981    0.36888    1.000
    H17      H        0.65590    0.00043    0.55251    1.000
    H18      H        0.65520    0.99998    0.44323    1.000
    H19      H        0.34715    0.00001    0.55446    1.000
    H20      H        0.34631    0.00061    0.44517    1.000
    H21      H        0.50197    0.00002    0.70879    1.000
    H22      H        0.49977    0.00031    0.28860    1.000
    X23      C        0.44224    0.37200    0.00067    1.000
    C24      C        0.49796    0.34065    0.00014    1.000
    X25      C        0.55383    0.37161    0.99970    1.000
    C26      C        0.55443    0.43610    0.00004    1.000
    C27      C        0.49862    0.46879    0.00031    1.000
    C28      C        0.44235    0.43668    0.00050    1.000
    C29      C        0.38781    0.47020    0.00051    1.000
    C30      C        0.38826    0.53363    0.00025    1.000
    C31      C        0.44327    0.56649    0.00019    1.000
    C32      C        0.49910    0.53377    0.00036    1.000
    C33      C        0.60944    0.46879    0.00010    1.000
    C34      C        0.60994    0.53220    0.00047    1.000
    C35      C        0.55542    0.56580    0.00057    1.000
    X36      C        0.55566    0.63045    0.00085    1.000
    C37      C        0.50000    0.66194    0.00042    1.000
    X38      C        0.44397    0.63110    0.99996    1.000
    H39      H        0.34409    0.44753    0.00061    1.000
    H40      H        0.34481    0.55683    0.00018    1.000
    H41      H        0.65283    0.44550    0.99995    1.000
    H42      H        0.65370    0.55481    0.00057    1.000
    H43      H        0.49798    0.29126    0.00005    1.000
    H44      H        0.50028    0.71136    0.00042    1.000
    X45      C        0.00048    0.36959    0.44442    1.000
    C46      C        0.00001    0.33807    0.50004    1.000
    X47      C        0.99966    0.36893    0.55605    1.000
    C48      C        0.00003    0.43351    0.55676    1.000
    C49      C        0.00025    0.46621    0.50095    1.000
    C50      C        0.00036    0.43421    0.44465    1.000
    C51      C        0.00033    0.46778    0.39012    1.000
    C52      C        0.00012    0.53116    0.39062    1.000
    C53      C        0.00014    0.56381    0.44564    1.000
    C54      C        0.00034    0.53115    0.50144    1.000
    C55      C        0.00017    0.46633    0.61179    1.000
    C56      C        0.00055    0.52973    0.61224    1.000
    C57      C        0.00061    0.56323    0.55769    1.000
    X58      C        0.00090    0.62786    0.55779    1.000
    C59      C        0.00045    0.65925    0.50210    1.000
    X60      C        0.99996    0.62826    0.44626    1.000
    H61      H        0.00036    0.44519    0.34635    1.000
    H62      H        0.00002    0.55444    0.34722    1.000
    H63      H        0.00007    0.44314    0.65524    1.000
    H64      H        0.00070    0.55239    0.65598    1.000
    H65      H        0.99991    0.28865    0.49975    1.000
    H66      H        0.00046    0.70864    0.50209    1.000
    O67      O        0.84386    0.00176    0.91858    1.000
    O68      O        0.15624    0.99799    0.91919    1.000
    O69      O        0.99762    0.08141    0.84290    1.000
    O70      O        0.00255    0.91781    0.84308    1.000
    O71      O        0.00211    0.84200    0.91582    1.000
    O72      O        0.99789    0.15755    0.91533    1.000
    O73      O        0.08411    0.99806    0.84333    1.000
    O74      O        0.91623    0.00131    0.84298    1.000
    Zr75     Zr       0.00010    0.99974    0.89258    1.000
    O76      O        0.05476    0.94418    0.94500    1.000
    O77      O        0.94540    0.05563    0.94466    1.000
    X78      C        0.85993    0.00253    0.86186    1.000
    X79      C        0.14031    0.99692    0.86246    1.000
    X80      C        0.99658    0.13817    0.85909    1.000
    X81      C        0.00340    0.86108    0.85949    1.000
    H82      H        0.08062    0.08113    0.91908    1.000
    O83      O        0.05427    0.05557    0.94505    1.000
    H84      H        0.91943    0.91855    0.91909    1.000
    O85      O        0.94576    0.94418    0.94503    1.000
    O86      O        0.15620    0.00252    0.08131    1.000
    O87      O        0.84373    0.99766    0.08083    1.000
    O88      O        0.08401    0.15805    0.00163    1.000
    O89      O        0.08454    0.84238    0.99851    1.000
    O90      O        0.91576    0.84204    0.00197    1.000
    O91      O        0.91554    0.15766    0.99804    1.000
    O92      O        0.00205    0.08195    0.15711    1.000
    O93      O        0.99759    0.91847    0.15718    1.000
    O94      O        0.00159    0.15788    0.08449    1.000
    O95      O        0.99820    0.84238    0.08471    1.000
    O96      O        0.15597    0.08178    0.00227    1.000
    O97      O        0.84387    0.08111    0.99741    1.000
    O98      O        0.84393    0.91843    0.00217    1.000
    O99      O        0.15616    0.91900    0.99805    1.000
    O100     O        0.08395    0.00198    0.15703    1.000
    O101     O        0.91582    0.99835    0.15674    1.000
    Zr102    Zr       0.10555    0.00025    0.00020    1.000
    Zr103    Zr       0.89443    0.99981    0.99983    1.000
    Zr104    Zr       0.99986    0.10924    0.99995    1.000
    Zr105    Zr       0.00010    0.89074    0.00018    1.000
    Zr106    Zr       0.99992    0.00017    0.10752    1.000
    O107     O        0.94540    0.94421    0.05527    1.000
    O108     O        0.05453    0.05605    0.05535    1.000
    X109     C        0.14024    0.00335    0.13804    1.000
    X110     C        0.85962    0.99688    0.13757    1.000
    X111     C        0.14015    0.13866    0.00293    1.000
    X112     C        0.14058    0.86209    0.99723    1.000
    X113     C        0.85963    0.86155    0.00314    1.000
    X114     C        0.85951    0.13800    0.99662    1.000
    X115     C        0.00289    0.13869    0.14082    1.000
    X116     C        0.99677    0.86172    0.14093    1.000
    H117     H        0.91910    0.08109    0.08077    1.000
    O118     O        0.94553    0.05554    0.05487    1.000
    H119     H        0.08073    0.91912    0.08116    1.000
    O120     O        0.05433    0.94460    0.05514    1.000
    C121     C        0.29230    0.00429    0.26465    1.000
    C122     C        0.23269    0.99587    0.28642    1.000
    C123     C        0.18270    0.99639    0.24603    1.000
    X128     C        0.19158    0.00512    0.18310    1.000
    C125     C        0.25167    0.01427    0.16222    1.000
    C126     C        0.30111    0.01383    0.20236    1.000
    C127     C        0.34512    0.00275    0.30487    1.000
    X124     C        0.39102    0.00173    0.33592    1.000
    H129     H        0.22484    0.98849    0.33449    1.000
    H130     H        0.13738    0.98917    0.26392    1.000
    H131     H        0.26092    0.02160    0.11440    1.000
    H132     H        0.34656    0.02061    0.18452    1.000
    C133     C        0.70752    0.99602    0.26364    1.000
    C134     C        0.69885    0.98570    0.20149    1.000
    C135     C        0.74834    0.98518    0.16150    1.000
    X140     C        0.80828    0.99505    0.18246    1.000
    C137     C        0.81701    0.00450    0.24528    1.000
    C138     C        0.76697    0.00509    0.28551    1.000
    C139     C        0.65474    0.99770    0.30369    1.000
    X136     C        0.60899    0.99882    0.33483    1.000
    H141     H        0.65348    0.97839    0.18365    1.000
    H142     H        0.73927    0.97726    0.11373    1.000
    H143     H        0.86224    0.01228    0.26317    1.000
    H144     H        0.77464    0.01307    0.33352    1.000
    C145     C        0.70889    0.00350    0.73408    1.000
    C146     C        0.76882    0.99678    0.71265    1.000
    C147     C        0.81841    0.99715    0.75348    1.000
    X152     C        0.80883    0.00406    0.81655    1.000
    C149     C        0.74839    0.01139    0.83714    1.000
    C150     C        0.69934    0.01109    0.79653    1.000
    C151     C        0.65653    0.00224    0.69330    1.000
    X148     C        0.61092    0.00137    0.66185    1.000
    H153     H        0.77724    0.99091    0.66446    1.000
    H154     H        0.86401    0.99138    0.73580    1.000
    H155     H        0.73861    0.01722    0.88506    1.000
    H156     H        0.65360    0.01651    0.81411    1.000
    C157     C        0.29196    0.99598    0.73596    1.000
    C158     C        0.23237    0.00430    0.71419    1.000
    C159     C        0.18250    0.00377    0.75460    1.000
    X164     C        0.19155    0.99513    0.81750    1.000
    C161     C        0.25163    0.98605    0.83838    1.000
    C162     C        0.30096    0.98651    0.79821    1.000
    C163     C        0.34454    0.99757    0.69570    1.000
    X160     C        0.39015    0.99866    0.66442    1.000
    H165     H        0.22447    0.01162    0.66612    1.000
    H166     H        0.13715    0.01092    0.73677    1.000
    H167     H        0.26092    0.97880    0.88621    1.000
    H168     H        0.34646    0.97980    0.81596    1.000
    C169     C        0.29134    0.26599    0.00375    1.000
    C170     C        0.23155    0.28746    0.99630    1.000
    C171     C        0.18194    0.24672    0.99672    1.000
    X176     C        0.19138    0.18373    0.00442    1.000
    C173     C        0.25168    0.16308    0.01246    1.000
    C174     C        0.30079    0.20361    0.01211    1.000
    C175     C        0.34365    0.30672    0.00242    1.000
    X172     C        0.38917    0.33821    0.00150    1.000
    H177     H        0.22325    0.33559    0.98981    1.000
    H178     H        0.13643    0.26442    0.99034    1.000
    H179     H        0.26130    0.11520    0.01889    1.000
    H180     H        0.34646    0.18605    0.01808    1.000
    C181     C        0.29284    0.73645    0.99642    1.000
    C182     C        0.30153    0.79868    0.98655    1.000
    C183     C        0.25200    0.83862    0.98608    1.000
    X188     C        0.19208    0.81747    0.99553    1.000
    C185     C        0.18338    0.75459    0.00461    1.000
    C186     C        0.23342    0.71444    0.00516    1.000
    C187     C        0.34553    0.69640    0.99798    1.000
    X184     C        0.39117    0.66519    0.99902    1.000
    H189     H        0.34691    0.81660    0.97954    1.000
    H190     H        0.26101    0.88645    0.97849    1.000
    H191     H        0.13816    0.73658    0.01210    1.000
    H192     H        0.22578    0.66637    0.01280    1.000
    C193     C        0.70743    0.73535    0.00414    1.000
    C194     C        0.76699    0.71346    0.99590    1.000
    C195     C        0.81698    0.75377    0.99636    1.000
    X200     C        0.80815    0.81674    0.00485    1.000
    C197     C        0.74809    0.83777    0.01376    1.000
    C198     C        0.69863    0.79768    0.01338    1.000
    C199     C        0.65470    0.69514    0.00270    1.000
    X196     C        0.60889    0.66404    0.00172    1.000
    H201     H        0.77480    0.66535    0.98873    1.000
    H202     H        0.86228    0.73578    0.98929    1.000
    H203     H        0.73892    0.88565    0.02086    1.000
    H204     H        0.65317    0.81558    0.01999    1.000
    C205     C        0.70770    0.26403    0.99582    1.000
    C206     C        0.76714    0.28582    0.00486    1.000
    C207     C        0.81704    0.24552    0.00428    1.000
    X212     C        0.80815    0.18271    0.99487    1.000
    C209     C        0.74822    0.16178    0.98511    1.000
    C210     C        0.69883    0.20188    0.98561    1.000
    C211     C        0.65518    0.30424    0.99748    1.000
    X208     C        0.60966    0.33559    0.99862    1.000
    H213     H        0.77491    0.33382    0.01278    1.000
    H214     H        0.86229    0.26336    0.01202    1.000
    H215     H        0.73911    0.11401    0.97726    1.000
    H216     H        0.65340    0.18415    0.97837    1.000
    C217     C        0.00386    0.26517    0.29254    1.000
    C218     C        0.99428    0.28685    0.23310    1.000
    C219     C        0.99482    0.24649    0.18316    1.000
    X224     C        0.00472    0.18375    0.19201    1.000
    C221     C        0.01504    0.16300    0.25194    1.000
    C222     C        0.01457    0.20311    0.30131    1.000
    C223     C        0.00228    0.30524    0.34528    1.000
    X220     C        0.00130    0.33614    0.39117    1.000
    H225     H        0.98596    0.33479    0.22537    1.000
    H226     H        0.98664    0.26422    0.13794    1.000
    H227     H        0.02331    0.11532    0.26110    1.000
    H228     H        0.02224    0.18543    0.34669    1.000
    C229     C        0.99564    0.26407    0.70729    1.000
    C230     C        0.98384    0.20219    0.69873    1.000
    C231     C        0.98326    0.16225    0.74819    1.000
    X236     C        0.99456    0.18304    0.80791    1.000
    C233     C        0.00544    0.24563    0.81655    1.000
    C234     C        0.00609    0.28581    0.76654    1.000
    C235     C        0.99747    0.30395    0.65457    1.000
    X232     C        0.99864    0.33496    0.60885    1.000
    H237     H        0.97546    0.18453    0.65347    1.000
    H238     H        0.97418    0.11466    0.73927    1.000
    H239     H        0.01439    0.26332    0.86163    1.000
    H240     H        0.01523    0.33364    0.77404    1.000
    C241     C        0.00430    0.73344    0.70877    1.000
    C242     C        0.01343    0.79566    0.69926    1.000
    C243     C        0.01386    0.83623    0.74827    1.000
    X248     C        0.00510    0.81577    0.80853    1.000
    C245     C        0.99669    0.75290    0.81807    1.000
    C246     C        0.99620    0.71210    0.76853    1.000
    C247     C        0.00280    0.69282    0.65648    1.000
    X244     C        0.00180    0.66153    0.61087    1.000
    H249     H        0.01992    0.81308    0.65360    1.000
    H250     H        0.02087    0.88401    0.73857    1.000
    H251     H        0.98973    0.73538    0.86357    1.000
    H252     H        0.98910    0.66406    0.77682    1.000
    C253     C        0.99599    0.73538    0.29229    1.000
    C254     C        0.00583    0.71376    0.23291    1.000
    C255     C        0.00518    0.75411    0.18307    1.000
    X260     C        0.99490    0.81676    0.19202    1.000
    C257     C        0.98426    0.83746    0.25189    1.000
    C258     C        0.98484    0.79733    0.30118    1.000
    C259     C        0.99776    0.69530    0.34482    1.000
    X256     C        0.99892    0.66415    0.39042    1.000
    H261     H        0.01446    0.66587    0.22518    1.000
    H262     H        0.01361    0.73649    0.13786    1.000
    H263     H        0.97570    0.88510    0.26104    1.000
    H264     H        0.97696    0.81489    0.34657    1.000
