# CIF file generated by openbabel 3.1.0, see https://openbabel.org
data_I
_chemical_name_common 'image0'
_cell_length_a 14.6163
_cell_length_b 23.1639
_cell_length_c 15.7113
_cell_angle_alpha 90
_cell_angle_beta 108.061
_cell_angle_gamma 90
_space_group_name_H-M_alt 'P 1'
_space_group_name_Hall 'P 1'
loop_
    _symmetry_equiv_pos_as_xyz
    x,y,z
loop_
    _atom_site_label
    _atom_site_type_symbol
    _atom_site_fract_x
    _atom_site_fract_y
    _atom_site_fract_z
    _atom_site_occupancy
    Cd1      Cd       0.73518    0.43898    0.08513    1.000
    Cd2      Cd       0.76406    0.30267    0.20212    1.000
    O1       O        0.54640    0.40770    0.01720    1.000
    O2       O        0.39350    0.48510    0.06700    1.000
    O3       O        0.83010    0.34513    0.09940    1.000
    O4       O        0.27740    0.54871    0.05800    1.000
    O5       O        0.65030    0.37831    0.14160    1.000
    O6       O        0.39130    0.01854    0.36740    1.000
    O7       O        0.66970    0.27775    0.70310    1.000
    O8       O        0.89800    0.42775    0.11910    1.000
    C1       C        0.28400    0.21300    0.23040    1.000
    O9       O        0.23990    0.02669    0.36340    1.000
    O10      O        0.65430    0.24323    0.56960    1.000
    C2       C        0.35390    0.17450    0.21900    1.000
    H1       H        0.39140    0.18470    0.18310    1.000
    C3       C        0.50610    0.32680    0.19890    1.000
    H2       H        0.56690    0.33000    0.24080    1.000
    N1       N        0.26830    0.26689    0.18610    1.000
    C4       C        0.54940    0.32000    0.58040    1.000
    N2       N        0.34760    0.44841    0.45440    1.000
    C5       C        0.48480    0.31100    0.49680    1.000
    H3       H        0.48800    0.27690    0.46650    1.000
    C6       C        0.48950    0.34954    0.11330    1.000
    C7       C        0.43370    0.29966    0.22230    1.000
    H4       H        0.44590    0.28470    0.27970    1.000
    C8       C        0.33850    0.49457    0.19190    1.000
    C9       C        0.41720    0.46612    0.24720    1.000
    H5       H        0.46810    0.45660    0.22610    1.000
    C10      C        0.31670    0.49090    0.50580    1.000
    C11      C        0.41190    0.40410    0.50030    1.000
    C12      C        0.54190    0.37030    0.62470    1.000
    H6       H        0.58350    0.37630    0.68220    1.000
    C13      C        0.34340    0.29460    0.16130    1.000
    C14      C        0.56570    0.38094    0.08820    1.000
    C15      C        0.42150    0.45160    0.33290    1.000
    H7       H        0.47650    0.43370    0.36990    1.000
    O11      O        0.26270    0.67040    0.66450    1.000
    C16      C        0.26210    0.50720    0.22380    1.000
    H8       H        0.20940    0.52730    0.18750    1.000
    C17      C        0.22960    0.19800    0.28600    1.000
    H9       H        0.18710    0.22420    0.29820    1.000
    C18      C        0.36640    0.12160    0.26130    1.000
    H10      H        0.41520    0.09710    0.25710    1.000
    C19      C        0.62960    0.27780    0.62040    1.000
    C20      C        0.30650    0.10490    0.31020    1.000
    C21      C        0.33620    0.51127    0.09890    1.000
    C22      C        0.00420    0.28860    0.11600    1.000
    H11      H        0.94860    0.26660    0.09410    1.000
    C23      C        0.26320    0.49020    0.30880    1.000
    H12      H        0.20990    0.49680    0.32780    1.000
    C24      C        0.34470    0.46310    0.36560    1.000
    C25      C        0.99750    0.34640    0.13170    1.000
    C26      C        0.39800    0.34410    0.05230    1.000
    H13      H        0.38540    0.35870    0.99460    1.000
    C27      C        0.31550    0.04600    0.35050    1.000
    C28      C        0.47390    0.41190    0.58570    1.000
    H14      H        0.47000    0.44530    0.61720    1.000
    C29      C        0.24010    0.14280    0.32280    1.000
    H15      H        0.20120    0.13150    0.35680    1.000
    C30      C        0.17750    0.29430    0.16620    1.000
    C31      C        0.32510    0.31680    0.07680    1.000
    H16      H        0.26380    0.31370    0.03580    1.000
    C32      C        0.09340    0.26280    0.13270    1.000
    H17      H        0.09700    0.22360    0.12130    1.000
    O12      O        0.18460    0.60280    0.71670    1.000
    C33      C        0.33000    0.54970    0.49520    1.000
    H18      H        0.35840    0.56190    0.45300    1.000
    C34      C        0.41490    0.35160    0.45660    1.000
    H19      H        0.37030    0.34410    0.40100    1.000
    C35      C        0.27570    0.47330    0.57080    1.000
    H20      H        0.26800    0.43430    0.58080    1.000
    C36      C        0.90100    0.37290    0.11560    1.000
    C37      C        0.08240    0.37890    0.16300    1.000
    H21      H        0.07890    0.41840    0.17200    1.000
    C38      C        0.30160    0.58980    0.54630    1.000
    H22      H        0.31010    0.62890    0.53740    1.000
    C39      C        0.17180    0.35250    0.18060    1.000
    H23      H        0.22770    0.37430    0.20220    1.000
    C40      C        0.24630    0.51600    0.62120    1.000
    H24      H        0.21630    0.50470    0.66280    1.000
    C41      C        0.26090    0.57320    0.61030    1.000
    C42      C        0.23220    0.61940    0.66690    1.000
    Cd3      Cd       0.26482    0.93898    0.41487    1.000
    Cd4      Cd       0.23594    0.80267    0.29788    1.000
    O13      O        0.45360    0.90770    0.48280    1.000
    O14      O        0.60650    0.98510    0.43300    1.000
    O15      O        0.16990    0.84513    0.40060    1.000
    O16      O        0.72260    0.04871    0.44200    1.000
    O17      O        0.34970    0.87831    0.35840    1.000
    O18      O        0.60870    0.51854    0.13260    1.000
    O19      O        0.33030    0.77775    0.79690    1.000
    O20      O        0.10200    0.92775    0.38090    1.000
    C43      C        0.71600    0.71300    0.26960    1.000
    O21      O        0.76010    0.52669    0.13660    1.000
    O22      O        0.34570    0.74323    0.93040    1.000
    C44      C        0.64610    0.67450    0.28100    1.000
    H25      H        0.60860    0.68470    0.31690    1.000
    C45      C        0.49390    0.82680    0.30110    1.000
    H26      H        0.43310    0.83000    0.25920    1.000
    N3       N        0.73170    0.76689    0.31390    1.000
    C46      C        0.45060    0.82000    0.91960    1.000
    N4       N        0.65240    0.94841    0.04560    1.000
    C47      C        0.51520    0.81100    0.00320    1.000
    H27      H        0.51200    0.77690    0.03350    1.000
    C48      C        0.51050    0.84954    0.38670    1.000
    C49      C        0.56630    0.79966    0.27770    1.000
    H28      H        0.55410    0.78470    0.22030    1.000
    C50      C        0.66150    0.99457    0.30810    1.000
    C51      C        0.58280    0.96612    0.25280    1.000
    H29      H        0.53190    0.95660    0.27390    1.000
    C52      C        0.68330    0.99090    0.99420    1.000
    C53      C        0.58810    0.90410    0.99970    1.000
    C54      C        0.45810    0.87030    0.87530    1.000
    H30      H        0.41650    0.87630    0.81780    1.000
    C55      C        0.65660    0.79460    0.33870    1.000
    C56      C        0.43430    0.88094    0.41180    1.000
    C57      C        0.57850    0.95160    0.16710    1.000
    H31      H        0.52350    0.93370    0.13010    1.000
    O23      O        0.73730    0.17040    0.83550    1.000
    C58      C        0.73790    0.00720    0.27620    1.000
    H32      H        0.79060    0.02730    0.31250    1.000
    C59      C        0.77040    0.69800    0.21400    1.000
    H33      H        0.81290    0.72420    0.20180    1.000
    C60      C        0.63360    0.62160    0.23870    1.000
    H34      H        0.58480    0.59710    0.24290    1.000
    C61      C        0.37040    0.77780    0.87960    1.000
    C62      C        0.69350    0.60490    0.18980    1.000
    C63      C        0.66380    0.01127    0.40110    1.000
    C64      C        0.99580    0.78860    0.38400    1.000
    H35      H        0.05140    0.76660    0.40590    1.000
    C65      C        0.73680    0.99020    0.19120    1.000
    H36      H        0.79010    0.99680    0.17220    1.000
    C66      C        0.65530    0.96310    0.13440    1.000
    C67      C        0.00250    0.84640    0.36830    1.000
    C68      C        0.60200    0.84410    0.44770    1.000
    H37      H        0.61460    0.85870    0.50540    1.000
    C69      C        0.68450    0.54600    0.14950    1.000
    C70      C        0.52610    0.91190    0.91430    1.000
    H38      H        0.53000    0.94530    0.88280    1.000
    C71      C        0.75990    0.64280    0.17720    1.000
    H39      H        0.79880    0.63150    0.14320    1.000
    C72      C        0.82250    0.79430    0.33380    1.000
    C73      C        0.67490    0.81680    0.42320    1.000
    H40      H        0.73620    0.81370    0.46420    1.000
    C74      C        0.90660    0.76280    0.36730    1.000
    H41      H        0.90300    0.72360    0.37870    1.000
    O24      O        0.81540    0.10280    0.78330    1.000
    C75      C        0.67000    0.04970    0.00480    1.000
    H42      H        0.64160    0.06190    0.04700    1.000
    C76      C        0.58510    0.85160    0.04340    1.000
    H43      H        0.62970    0.84410    0.09900    1.000
    C77      C        0.72430    0.97330    0.92920    1.000
    H44      H        0.73200    0.93430    0.91920    1.000
    C78      C        0.09900    0.87290    0.38440    1.000
    C79      C        0.91760    0.87890    0.33700    1.000
    H45      H        0.92110    0.91840    0.32800    1.000
    C80      C        0.69840    0.08980    0.95370    1.000
    H46      H        0.68990    0.12890    0.96260    1.000
    C81      C        0.82820    0.85250    0.31940    1.000
    H47      H        0.77230    0.87430    0.29780    1.000
    C82      C        0.75370    0.01600    0.87880    1.000
    H48      H        0.78370    0.00470    0.83720    1.000
    C83      C        0.73910    0.07320    0.88970    1.000
    C84      C        0.76780    0.11940    0.83310    1.000
    Cd5      Cd       0.26482    0.56102    0.91487    1.000
    Cd6      Cd       0.23594    0.69733    0.79788    1.000
    O25      O        0.45360    0.59230    0.98280    1.000
    O26      O        0.60650    0.51490    0.93300    1.000
    O27      O        0.16990    0.65487    0.90060    1.000
    O28      O        0.72260    0.45129    0.94200    1.000
    O29      O        0.34970    0.62169    0.85840    1.000
    O30      O        0.60870    0.98146    0.63260    1.000
    O31      O        0.33030    0.72225    0.29690    1.000
    O32      O        0.10200    0.57225    0.88090    1.000
    C85      C        0.71600    0.78700    0.76960    1.000
    O33      O        0.76010    0.97331    0.63660    1.000
    O34      O        0.34570    0.75677    0.43040    1.000
    C86      C        0.64610    0.82550    0.78100    1.000
    H49      H        0.60860    0.81530    0.81690    1.000
    C87      C        0.49390    0.67320    0.80110    1.000
    H50      H        0.43310    0.67000    0.75920    1.000
    N5       N        0.73170    0.73311    0.81390    1.000
    C88      C        0.45060    0.68000    0.41960    1.000
    N6       N        0.65240    0.55159    0.54560    1.000
    C89      C        0.51520    0.68900    0.50320    1.000
    H51      H        0.51200    0.72310    0.53350    1.000
    C90      C        0.51050    0.65046    0.88670    1.000
    C91      C        0.56630    0.70034    0.77770    1.000
    H52      H        0.55410    0.71530    0.72030    1.000
    C92      C        0.66150    0.50543    0.80810    1.000
    C93      C        0.58280    0.53388    0.75280    1.000
    H53      H        0.53190    0.54340    0.77390    1.000
    C94      C        0.68330    0.50910    0.49420    1.000
    C95      C        0.58810    0.59590    0.49970    1.000
    C96      C        0.45810    0.62970    0.37530    1.000
    H54      H        0.41650    0.62370    0.31780    1.000
    C97      C        0.65660    0.70540    0.83870    1.000
    C98      C        0.43430    0.61906    0.91180    1.000
    C99      C        0.57850    0.54840    0.66710    1.000
    H55      H        0.52350    0.56630    0.63010    1.000
    O35      O        0.73730    0.32960    0.33550    1.000
    C100     C        0.73790    0.49280    0.77620    1.000
    H56      H        0.79060    0.47270    0.81250    1.000
    C101     C        0.77040    0.80200    0.71400    1.000
    H57      H        0.81290    0.77580    0.70180    1.000
    C102     C        0.63360    0.87840    0.73870    1.000
    H58      H        0.58480    0.90290    0.74290    1.000
    C103     C        0.37040    0.72220    0.37960    1.000
    C104     C        0.69350    0.89510    0.68980    1.000
    C105     C        0.66380    0.48873    0.90110    1.000
    C106     C        0.99580    0.71140    0.88400    1.000
    H59      H        0.05140    0.73340    0.90590    1.000
    C107     C        0.73680    0.50980    0.69120    1.000
    H60      H        0.79010    0.50320    0.67220    1.000
    C108     C        0.65530    0.53690    0.63440    1.000
    C109     C        0.00250    0.65360    0.86830    1.000
    C110     C        0.60200    0.65590    0.94770    1.000
    H61      H        0.61460    0.64130    0.00540    1.000
    C111     C        0.68450    0.95400    0.64950    1.000
    C112     C        0.52610    0.58810    0.41430    1.000
    H62      H        0.53000    0.55470    0.38280    1.000
    C113     C        0.75990    0.85720    0.67720    1.000
    H63      H        0.79880    0.86850    0.64320    1.000
    C114     C        0.82250    0.70570    0.83380    1.000
    C115     C        0.67490    0.68320    0.92320    1.000
    H64      H        0.73620    0.68630    0.96420    1.000
    C116     C        0.90660    0.73720    0.86730    1.000
    H65      H        0.90300    0.77640    0.87870    1.000
    O36      O        0.81540    0.39720    0.28330    1.000
    C117     C        0.67000    0.45030    0.50480    1.000
    H66      H        0.64160    0.43810    0.54700    1.000
    C118     C        0.58510    0.64840    0.54340    1.000
    H67      H        0.62970    0.65590    0.59900    1.000
    C119     C        0.72430    0.52670    0.42920    1.000
    H68      H        0.73200    0.56570    0.41920    1.000
    C120     C        0.09900    0.62710    0.88440    1.000
    C121     C        0.91760    0.62110    0.83700    1.000
    H69      H        0.92110    0.58160    0.82800    1.000
    C122     C        0.69840    0.41020    0.45370    1.000
    H70      H        0.68990    0.37110    0.46260    1.000
    C123     C        0.82820    0.64750    0.81940    1.000
    H71      H        0.77230    0.62570    0.79780    1.000
    C124     C        0.75370    0.48400    0.37880    1.000
    H72      H        0.78370    0.49530    0.33720    1.000
    C125     C        0.73910    0.42680    0.38970    1.000
    C126     C        0.76780    0.38060    0.33310    1.000
    Cd7      Cd       0.73518    0.06102    0.58513    1.000
    Cd8      Cd       0.76406    0.19733    0.70212    1.000
    O37      O        0.54640    0.09230    0.51720    1.000
    O38      O        0.39350    0.01490    0.56700    1.000
    O39      O        0.83010    0.15487    0.59940    1.000
    O40      O        0.27740    0.95129    0.55800    1.000
    O41      O        0.65030    0.12169    0.64160    1.000
    O42      O        0.39130    0.48146    0.86740    1.000
    O43      O        0.66970    0.22225    0.20310    1.000
    O44      O        0.89800    0.07225    0.61910    1.000
    C127     C        0.28400    0.28700    0.73040    1.000
    O45      O        0.23990    0.47331    0.86340    1.000
    O46      O        0.65430    0.25677    0.06960    1.000
    C128     C        0.35390    0.32550    0.71900    1.000
    H73      H        0.39140    0.31530    0.68310    1.000
    C129     C        0.50610    0.17320    0.69890    1.000
    H74      H        0.56690    0.17000    0.74080    1.000
    N7       N        0.26830    0.23311    0.68610    1.000
    C130     C        0.54940    0.18000    0.08040    1.000
    N8       N        0.34760    0.05159    0.95440    1.000
    C131     C        0.48480    0.18900    0.99680    1.000
    H75      H        0.48800    0.22310    0.96650    1.000
    C132     C        0.48950    0.15046    0.61330    1.000
    C133     C        0.43370    0.20034    0.72230    1.000
    H76      H        0.44590    0.21530    0.77970    1.000
    C134     C        0.33850    0.00543    0.69190    1.000
    C135     C        0.41720    0.03388    0.74720    1.000
    H77      H        0.46810    0.04340    0.72610    1.000
    C136     C        0.31670    0.00910    0.00580    1.000
    C137     C        0.41190    0.09590    0.00030    1.000
    C138     C        0.54190    0.12970    0.12470    1.000
    H78      H        0.58350    0.12370    0.18220    1.000
    C139     C        0.34340    0.20540    0.66130    1.000
    C140     C        0.56570    0.11906    0.58820    1.000
    C141     C        0.42150    0.04840    0.83290    1.000
    H79      H        0.47650    0.06630    0.86990    1.000
    O47      O        0.26270    0.82960    0.16450    1.000
    C142     C        0.26210    0.99280    0.72380    1.000
    H80      H        0.20940    0.97270    0.68750    1.000
    C143     C        0.22960    0.30200    0.78600    1.000
    H81      H        0.18710    0.27580    0.79820    1.000
    C144     C        0.36640    0.37840    0.76130    1.000
    H82      H        0.41520    0.40290    0.75710    1.000
    C145     C        0.62960    0.22220    0.12040    1.000
    C146     C        0.30650    0.39510    0.81020    1.000
    C147     C        0.33620    0.98873    0.59890    1.000
    C148     C        0.00420    0.21140    0.61600    1.000
    H83      H        0.94860    0.23340    0.59410    1.000
    C149     C        0.26320    0.00980    0.80880    1.000
    H84      H        0.20990    0.00320    0.82780    1.000
    C150     C        0.34470    0.03690    0.86560    1.000
    C151     C        0.99750    0.15360    0.63170    1.000
    C152     C        0.39800    0.15590    0.55230    1.000
    H85      H        0.38540    0.14130    0.49460    1.000
    C153     C        0.31550    0.45400    0.85050    1.000
    C154     C        0.47390    0.08810    0.08570    1.000
    H86      H        0.47000    0.05470    0.11720    1.000
    C155     C        0.24010    0.35720    0.82280    1.000
    H87      H        0.20120    0.36850    0.85680    1.000
    C156     C        0.17750    0.20570    0.66620    1.000
    C157     C        0.32510    0.18320    0.57680    1.000
    H88      H        0.26380    0.18630    0.53580    1.000
    C158     C        0.09340    0.23720    0.63270    1.000
    H89      H        0.09700    0.27640    0.62130    1.000
    O48      O        0.18460    0.89720    0.21670    1.000
    C159     C        0.33000    0.95030    0.99520    1.000
    H90      H        0.35840    0.93810    0.95300    1.000
    C160     C        0.41490    0.14840    0.95660    1.000
    H91      H        0.37030    0.15590    0.90100    1.000
    C161     C        0.27570    0.02670    0.07080    1.000
    H92      H        0.26800    0.06570    0.08080    1.000
    C162     C        0.90100    0.12710    0.61560    1.000
    C163     C        0.08240    0.12110    0.66300    1.000
    H93      H        0.07890    0.08160    0.67200    1.000
    C164     C        0.30160    0.91020    0.04630    1.000
    H94      H        0.31010    0.87110    0.03740    1.000
    C165     C        0.17180    0.14750    0.68060    1.000
    H95      H        0.22770    0.12570    0.70220    1.000
    C166     C        0.24630    0.98400    0.12120    1.000
    H96      H        0.21630    0.99530    0.16280    1.000
    C167     C        0.26090    0.92680    0.11030    1.000
    C168     C        0.23220    0.88060    0.16690    1.000
    Cd9      Cd       0.50000    0.50000    0.00000    1.000
    Cd10     Cd       0.50000    0.00000    0.50000    1.000
