data_functionalizedCrystal
_audit_creation_method	'EQeq! by Chris Wilmer'
_symmetry_space_group_name_H-M	'P1'
_symmetry_Int_Tables_number	1
_symmetry_cell_setting	triclinic
loop_
_symmetry_equiv_pos_as_xyz
  x,y,z
_cell_length_a	7.283
_cell_length_b	10.262
_cell_length_c	18.119
_cell_angle_alpha	90
_cell_angle_beta	90
_cell_angle_gamma	94.119
loop_
_atom_site_label
_atom_site_type_symbol
_atom_site_fract_x
_atom_site_fract_y
_atom_site_fract_z
_atom_site_charge
Mof_Cu	Cu	0.86248	0.21424	0.90574	0.919
Mof_Cu	Cu	0.03635	0.92923	0.93156	0.935
Mof_Cu	Cu	0.63752	0.28576	0.40574	0.92
Mof_Cu	Cu	0.46365	0.57077	0.43156	0.941
Mof_Cu	Cu	0.13752	0.78576	0.09426	0.92
Mof_Cu	Cu	0.96365	0.07077	0.06844	0.936
Mof_Cu	Cu	0.36248	0.71424	0.59426	0.92
Mof_Cu	Cu	0.53635	0.42923	0.56844	0.941
Mof_H 	H 	0.7754	0.164	0.6917	0.044
Mof_H 	H 	0.9328	0.7997	0.7064	0.029
Mof_H 	H 	0.771	0.938	0.5119	0.025
Mof_H 	H 	0.7246	0.336	0.1917	0.041
Mof_H 	H 	0.5672	0.7003	0.2064	0.027
Mof_H 	H 	0.729	0.562	0.0119	0.024
Mof_H 	H 	0.2246	0.836	0.3083	0.044
Mof_H 	H 	0.0672	0.2003	0.2936	0.029
Mof_H 	H 	0.229	0.062	0.4881	0.025
Mof_H 	H 	0.2754	0.664	0.8083	0.041
Mof_H 	H 	0.4328	0.2997	0.7936	0.027
Mof_H 	H 	0.271	0.438	0.9881	0.024
Mof_C 	C 	0.8544	0.8496	0.604	-0.164
Mof_C 	C 	0.7647	0.0689	0.5949	-0.144
Mof_C 	C 	0.7969	0.0847	0.6696	0.076
Mof_C 	C 	0.8608	0.9851	0.7125	-0.135
Mof_C 	C 	0.8958	0.0082	0.792	0.385
Mof_C 	C 	0.8895	0.8675	0.6787	0.08
Mof_C 	C 	0.7931	0.9501	0.5621	0.082
Mof_C 	C 	0.6905	0.18	0.5531	0.404
Mof_C 	C 	0.6456	0.6504	0.104	-0.166
Mof_C 	C 	0.7353	0.4311	0.0949	-0.142
Mof_C 	C 	0.7031	0.4153	0.1696	0.083
Mof_C 	C 	0.6392	0.5149	0.2125	-0.146
Mof_C 	C 	0.6042	0.4918	0.292	0.395
Mof_C 	C 	0.6105	0.6325	0.1787	0.084
Mof_C 	C 	0.7069	0.5499	0.0621	0.079
Mof_C 	C 	0.8095	0.32	0.0531	0.4
Mof_C 	C 	0.1456	0.1504	0.396	-0.164
Mof_C 	C 	0.2353	0.9311	0.4051	-0.144
Mof_C 	C 	0.2031	0.9153	0.3304	0.076
Mof_C 	C 	0.1392	0.0149	0.2875	-0.135
Mof_C 	C 	0.1042	0.9918	0.208	0.385
Mof_C 	C 	0.1105	0.1325	0.3213	0.08
Mof_C 	C 	0.2069	0.0499	0.4379	0.082
Mof_C 	C 	0.3095	0.82	0.4469	0.404
Mof_C 	C 	0.3544	0.3496	0.896	-0.166
Mof_C 	C 	0.2647	0.5689	0.9051	-0.142
Mof_C 	C 	0.2969	0.5847	0.8304	0.083
Mof_C 	C 	0.3608	0.4851	0.7875	-0.146
Mof_C 	C 	0.3958	0.5082	0.708	0.395
Mof_C 	C 	0.3895	0.3675	0.8213	0.084
Mof_C 	C 	0.2931	0.4501	0.9379	0.079
Mof_C 	C 	0.1905	0.68	0.9469	0.4
Mof_S 	S 	0.8714	0.69243	0.56487	0.57
Mof_S 	S 	0.6286	0.80757	0.06487	0.567
Mof_S 	S 	0.1286	0.30757	0.43513	0.57
Mof_S 	S 	0.3714	0.19243	0.93513	0.567
Mof_O 	O 	0.9418	0.9159	0.8322	-0.378
Mof_O 	O 	0.8682	0.0577	0.966	-0.486
Mof_O 	O 	0.654	0.1632	0.4863	-0.432
Mof_O 	O 	0.8724	0.1235	0.8138	-0.41
Mof_O 	O 	0.8495	0.7028	0.487	-0.295
Mof_O 	O 	0.6716	0.2822	0.5896	-0.4
Mof_O 	O 	0.7235	0.6138	0.5991	-0.378
Mof_O 	O 	0.0438	0.6498	0.5892	-0.327
Mof_O 	O 	0.5582	0.5841	0.3322	-0.385
Mof_O 	O 	0.6318	0.4423	0.466	-0.487
Mof_O 	O 	0.846	0.3368	0.9863	-0.428
Mof_O 	O 	0.6276	0.3765	0.3138	-0.412
Mof_O 	O 	0.6505	0.7972	0.987	-0.295
Mof_O 	O 	0.8284	0.2178	0.0896	-0.401
Mof_O 	O 	0.7765	0.8862	0.0991	-0.376
Mof_O 	O 	0.4562	0.8502	0.0892	-0.324
Mof_O 	O 	0.0582	0.0841	0.1678	-0.378
Mof_O 	O 	0.1318	0.9423	0.034	-0.486
Mof_O 	O 	0.346	0.8368	0.5137	-0.432
Mof_O 	O 	0.1276	0.8765	0.1862	-0.41
Mof_O 	O 	0.1505	0.2972	0.513	-0.295
Mof_O 	O 	0.3284	0.7178	0.4104	-0.4
Mof_O 	O 	0.2765	0.3862	0.4009	-0.378
Mof_O 	O 	0.9562	0.3502	0.4108	-0.327
Mof_O 	O 	0.4418	0.4159	0.6678	-0.385
Mof_O 	O 	0.3682	0.5577	0.534	-0.487
Mof_O 	O 	0.154	0.6632	0.0137	-0.428
Mof_O 	O 	0.3724	0.6235	0.6862	-0.412
Mof_O 	O 	0.3495	0.2028	0.013	-0.295
Mof_O 	O 	0.1716	0.7822	0.9104	-0.401
Mof_O 	O 	0.2235	0.1138	0.9009	-0.376
Mof_O 	O 	0.5438	0.1498	0.9108	-0.324
_end
