data_functionalizedCrystal
_audit_creation_method	'EQeq! by Chris Wilmer'
_symmetry_space_group_name_H-M	'P1'
_symmetry_Int_Tables_number	1
_symmetry_cell_setting	triclinic
loop_
_symmetry_equiv_pos_as_xyz
  x,y,z
_cell_length_a	7.7165
_cell_length_b	21.746
_cell_length_c	21.746
_cell_angle_alpha	120
_cell_angle_beta	90
_cell_angle_gamma	90
loop_
_atom_site_label
_atom_site_type_symbol
_atom_site_fract_x
_atom_site_fract_y
_atom_site_fract_z
_atom_site_charge
Mof_Zn	Zn	7.98805e-33	0.5	0.5	1.209
Mof_Zn	Zn	7.98805e-33	3.5975e-17	0.5	1.197
Mof_Zn	Zn	-0	0.5	-0	1.2
Mof_H 	H 	0.4377	0.3452	0.3821	0.279
Mof_H 	H 	0.3205	0.3198	0.3128	0.259
Mof_H 	H 	0.3269	0.2736	0.3514	0.253
Mof_H 	H 	0.0858	0.2775	0.4067	0.204
Mof_H 	H 	0.9199	0.2113	0.4156	0.014
Mof_H 	H 	0.7159	0.1397	0.4257	0.074
Mof_H 	H 	0.4209	0.3087	0.5461	0.068
Mof_H 	H 	0.6186	0.38	0.5304	0.023
Mof_H 	H 	0.5835	0.0918	0.4808	0.098
Mof_H 	H 	0.3789	0.0177	0.4834	-0.019
Mof_H 	H 	0.0095	0.1523	0.5158	-0.032
Mof_H 	H 	0.2041	0.2319	0.5159	0.061
Mof_H 	H 	0.4377	0.0369	0.6548	0.3
Mof_H 	H 	0.3205	0.993	0.6802	0.319
Mof_H 	H 	0.3269	0.0778	0.7264	0.283
Mof_H 	H 	0.0858	0.1292	0.7225	0.205
Mof_H 	H 	0.9199	0.2043	0.7887	0.015
Mof_H 	H 	0.7159	0.286	0.8603	0.078
Mof_H 	H 	0.4209	0.2374	0.6913	0.069
Mof_H 	H 	0.6186	0.1504	0.62	0.02
Mof_H 	H 	0.5835	0.389	0.9082	0.102
Mof_H 	H 	0.3789	0.4657	0.9823	0.011
Mof_H 	H 	0.0095	0.3635	0.8477	-0.03
Mof_H 	H 	0.2041	0.284	0.7681	0.06
Mof_H 	H 	0.4377	0.6179	0.9631	0.272
Mof_H 	H 	0.3205	0.6872	0.007	0.223
Mof_H 	H 	0.3269	0.6486	0.9222	0.244
Mof_H 	H 	0.0858	0.5933	0.8708	0.209
Mof_H 	H 	0.9199	0.5844	0.7957	0.018
Mof_H 	H 	0.7159	0.5743	0.714	0.077
Mof_H 	H 	0.4209	0.4539	0.7626	0.068
Mof_H 	H 	0.6186	0.4696	0.8496	0.024
Mof_H 	H 	0.5835	0.5192	0.611	0.1
Mof_H 	H 	0.3789	0.5166	0.5343	-0.004
Mof_H 	H 	0.0095	0.4842	0.6365	-0.031
Mof_H 	H 	0.2041	0.4841	0.716	0.061
Mof_H 	H 	0.5623	0.6548	0.6179	0.255
Mof_H 	H 	0.6795	0.6802	0.6872	0.254
Mof_H 	H 	0.6731	0.7264	0.6486	0.247
Mof_H 	H 	0.9142	0.7225	0.5933	0.159
Mof_H 	H 	0.0801	0.7887	0.5844	-0.014
Mof_H 	H 	0.2841	0.8603	0.5743	0.05
Mof_H 	H 	0.5791	0.6913	0.4539	0.062
Mof_H 	H 	0.3814	0.62	0.4696	0.04
Mof_H 	H 	0.4165	0.9082	0.5192	0.096
Mof_H 	H 	0.6211	0.9823	0.5166	0.015
Mof_H 	H 	0.9905	0.8477	0.4842	0.036
Mof_H 	H 	0.7959	0.7681	0.4841	0.087
Mof_H 	H 	0.5623	0.9631	0.3452	0.234
Mof_H 	H 	0.6795	0.007	0.3198	0.195
Mof_H 	H 	0.6731	0.9222	0.2736	0.217
Mof_H 	H 	0.9142	0.8708	0.2775	0.157
Mof_H 	H 	0.0801	0.7957	0.2113	-0.016
Mof_H 	H 	0.2841	0.714	0.1397	0.046
Mof_H 	H 	0.5791	0.7626	0.3087	0.061
Mof_H 	H 	0.3814	0.8496	0.38	0.043
Mof_H 	H 	0.4165	0.611	0.0918	0.092
Mof_H 	H 	0.6211	0.5343	0.0177	-0.015
Mof_H 	H 	0.9905	0.6365	0.1523	0.035
Mof_H 	H 	0.7959	0.716	0.2319	0.088
Mof_H 	H 	0.5623	0.3821	0.0369	0.261
Mof_H 	H 	0.6795	0.3128	0.993	0.289
Mof_H 	H 	0.6731	0.3514	0.0778	0.255
Mof_H 	H 	0.9142	0.4067	0.1292	0.152
Mof_H 	H 	0.0801	0.4156	0.2043	-0.019
Mof_H 	H 	0.2841	0.4257	0.286	0.046
Mof_H 	H 	0.5791	0.5461	0.2374	0.062
Mof_H 	H 	0.3814	0.5304	0.1504	0.039
Mof_H 	H 	0.4165	0.4808	0.389	0.093
Mof_H 	H 	0.6211	0.4834	0.4657	-0.001
Mof_H 	H 	0.9905	0.5158	0.3635	0.036
Mof_H 	H 	0.7959	0.5159	0.284	0.087
Mof_C 	C 	0.329	0.32188	0.35877	-0.859
Mof_C 	C 	0.17764	0.36364	0.40504	0.562
Mof_C 	C 	0.06061	0.32617	0.4236	-0.648
Mof_C 	C 	0.91076	0.35338	0.46445	0.475
Mof_C 	C 	0.78746	0.30382	0.47091	-0.174
Mof_C 	C 	0.81579	0.23171	0.44113	0.081
Mof_C 	C 	0.69512	0.18938	0.44798	-0.127
Mof_C 	C 	0.54643	0.21604	0.48566	0.045
Mof_C 	C 	0.521	0.28798	0.51776	-0.125
Mof_C 	C 	0.6405	0.33049	0.50898	0.075
Mof_C 	C 	0.41842	0.1682	0.49173	0.062
Mof_C 	C 	0.46498	0.10535	0.48633	-0.164
Mof_C 	C 	0.34189	0.06181	0.48889	0.086
Mof_C 	C 	0.12845	0.13951	0.50786	0.076
Mof_C 	C 	0.243	0.18665	0.50667	-0.152
Mof_C 	C 	0.329	0.03689	0.67812	-0.964
Mof_C 	C 	0.17764	0.0414	0.63636	0.546
Mof_C 	C 	0.06061	0.09743	0.67383	-0.648
Mof_C 	C 	0.91076	0.11107	0.64662	0.472
Mof_C 	C 	0.78746	0.16709	0.69618	-0.176
Mof_C 	C 	0.81579	0.20942	0.76829	0.083
Mof_C 	C 	0.69512	0.2586	0.81062	-0.129
Mof_C 	C 	0.54643	0.26962	0.78396	0.048
Mof_C 	C 	0.521	0.22978	0.71202	-0.128
Mof_C 	C 	0.6405	0.17849	0.66951	0.076
Mof_C 	C 	0.41842	0.32353	0.8318	0.06
Mof_C 	C 	0.46498	0.38098	0.89465	-0.154
Mof_C 	C 	0.34189	0.42708	0.93819	0.086
Mof_C 	C 	0.12845	0.36835	0.86049	0.076
Mof_C 	C 	0.243	0.32002	0.81335	-0.147
Mof_C 	C 	0.329	0.64123	0.96311	-0.79
Mof_C 	C 	0.17764	0.59496	0.9586	0.587
Mof_C 	C 	0.06061	0.5764	0.90257	-0.647
Mof_C 	C 	0.91076	0.53555	0.88893	0.478
Mof_C 	C 	0.78746	0.52909	0.83291	-0.171
Mof_C 	C 	0.81579	0.55887	0.79058	0.083
Mof_C 	C 	0.69512	0.55202	0.7414	-0.124
Mof_C 	C 	0.54643	0.51434	0.73038	0.046
Mof_C 	C 	0.521	0.48224	0.77022	-0.124
Mof_C 	C 	0.6405	0.49102	0.82151	0.076
Mof_C 	C 	0.41842	0.50827	0.67647	0.063
Mof_C 	C 	0.46498	0.51367	0.61902	-0.159
Mof_C 	C 	0.34189	0.51111	0.57292	0.087
Mof_C 	C 	0.12845	0.49214	0.63165	0.077
Mof_C 	C 	0.243	0.49333	0.67998	-0.149
Mof_C 	C 	0.671	0.67812	0.64123	-0.777
Mof_C 	C 	0.82236	0.63636	0.59496	0.461
Mof_C 	C 	0.93939	0.67383	0.5764	-0.334
Mof_C 	C 	0.08924	0.64662	0.53555	0.208
Mof_C 	C 	0.21254	0.69618	0.52909	-0.097
Mof_C 	C 	0.18421	0.76829	0.55887	0.004
Mof_C 	C 	0.30488	0.81062	0.55202	-0.097
Mof_C 	C 	0.45357	0.78396	0.51434	0.017
Mof_C 	C 	0.479	0.71202	0.48224	-0.09
Mof_C 	C 	0.3595	0.66951	0.49102	0.009
Mof_C 	C 	0.58158	0.8318	0.50827	0.075
Mof_C 	C 	0.53502	0.89465	0.51367	-0.156
Mof_C 	C 	0.65811	0.93819	0.51111	0.093
Mof_C 	C 	0.87155	0.86049	0.49214	0.092
Mof_C 	C 	0.757	0.81335	0.49333	-0.137
Mof_C 	C 	0.671	0.96311	0.32188	-0.673
Mof_C 	C 	0.82236	0.9586	0.36364	0.474
Mof_C 	C 	0.93939	0.90257	0.32617	-0.332
Mof_C 	C 	0.08924	0.88893	0.35338	0.21
Mof_C 	C 	0.21254	0.83291	0.30382	-0.095
Mof_C 	C 	0.18421	0.79058	0.23171	0.002
Mof_C 	C 	0.30488	0.7414	0.18938	-0.095
Mof_C 	C 	0.45357	0.73038	0.21604	0.013
Mof_C 	C 	0.479	0.77022	0.28798	-0.088
Mof_C 	C 	0.3595	0.82151	0.33049	0.007
Mof_C 	C 	0.58158	0.67647	0.1682	0.077
Mof_C 	C 	0.53502	0.61902	0.10535	-0.166
Mof_C 	C 	0.65811	0.57292	0.06181	0.093
Mof_C 	C 	0.87155	0.63165	0.13951	0.092
Mof_C 	C 	0.757	0.67998	0.18665	-0.142
Mof_C 	C 	0.671	0.35877	0.03689	-0.843
Mof_C 	C 	0.82236	0.40504	0.0414	0.434
Mof_C 	C 	0.93939	0.4236	0.09743	-0.328
Mof_C 	C 	0.08924	0.46445	0.11107	0.2
Mof_C 	C 	0.21254	0.47091	0.16709	-0.098
Mof_C 	C 	0.18421	0.44113	0.20942	0.001
Mof_C 	C 	0.30488	0.44798	0.2586	-0.098
Mof_C 	C 	0.45357	0.48566	0.26962	0.014
Mof_C 	C 	0.479	0.51776	0.22978	-0.09
Mof_C 	C 	0.3595	0.50898	0.17849	0.007
Mof_C 	C 	0.58158	0.49173	0.32353	0.074
Mof_C 	C 	0.53502	0.48633	0.38098	-0.161
Mof_C 	C 	0.65811	0.48889	0.42708	0.092
Mof_C 	C 	0.87155	0.50786	0.36835	0.091
Mof_C 	C 	0.757	0.50667	0.32002	-0.14
Mof_N 	N 	0.17498	0.07658	0.49842	-0.252
Mof_N 	N 	0.17498	0.42184	0.92342	-0.239
Mof_N 	N 	0.17498	0.50158	0.57816	-0.246
Mof_N 	N 	0.82502	0.92342	0.50158	-0.208
Mof_N 	N 	0.82502	0.57816	0.07658	-0.221
Mof_N 	N 	0.82502	0.49842	0.42184	-0.216
Mof_O 	O 	0.8651	0.418	0.49692	-0.428
Mof_O 	O 	0.16697	0.4277	0.42224	-0.517
Mof_O 	O 	0.8651	0.07892	0.582	-0.436
Mof_O 	O 	0.16697	0.99454	0.5723	-0.48
Mof_O 	O 	0.8651	0.50308	0.92108	-0.417
Mof_O 	O 	0.16697	0.57776	0.00546	-0.548
Mof_O 	O 	0.1349	0.582	0.50308	-0.421
Mof_O 	O 	0.83303	0.5723	0.57776	-0.431
Mof_O 	O 	0.1349	0.92108	0.418	-0.408
Mof_O 	O 	0.83303	0.00546	0.4277	-0.462
Mof_O 	O 	0.1349	0.49692	0.07892	-0.428
Mof_O 	O 	0.83303	0.42224	0.99454	-0.397
_end
