data_functionalizedCrystal
_audit_creation_method	'EQeq! by Chris Wilmer'
_symmetry_space_group_name_H-M	'P1'
_symmetry_Int_Tables_number	1
_symmetry_cell_setting	triclinic
loop_
_symmetry_equiv_pos_as_xyz
  x,y,z
_cell_length_a	7.177
_cell_length_b	10.396
_cell_length_c	11.121
_cell_angle_alpha	90
_cell_angle_beta	90
_cell_angle_gamma	90
loop_
_atom_site_label
_atom_site_type_symbol
_atom_site_fract_x
_atom_site_fract_y
_atom_site_fract_z
_atom_site_charge
Mof_Zn	Zn	0.37744	0.07091	0.04091	1.202
Mof_Zn	Zn	0.12256	0.92909	0.54091	1.202
Mof_Zn	Zn	0.62256	0.57091	0.45909	1.202
Mof_Zn	Zn	0.87744	0.42909	0.95909	1.199
Mof_H 	H 	0.7879	0.1236	0.8194	0.134
Mof_H 	H 	0.6519	0.0032	0.802	0.126
Mof_H 	H 	0.6203	0.2403	0.6743	0
Mof_H 	H 	0.4877	0.1192	0.6513	0.003
Mof_H 	H 	0.3416	0.2771	0.7723	0.078
Mof_H 	H 	0.313	0.041	0.816	0.124
Mof_H 	H 	0.199	0.129	0.866	0.135
Mof_H 	H 	0.7121	0.8764	0.3194	0.14
Mof_H 	H 	0.8481	0.9968	0.302	0.131
Mof_H 	H 	0.8797	0.7597	0.1743	-0.004
Mof_H 	H 	0.0123	0.8808	0.1513	-0.009
Mof_H 	H 	0.1584	0.7229	0.2723	0.081
Mof_H 	H 	0.187	0.959	0.316	0.12
Mof_H 	H 	0.301	0.871	0.366	0.132
Mof_H 	H 	0.2121	0.6236	0.6806	0.138
Mof_H 	H 	0.3481	0.5032	0.698	0.127
Mof_H 	H 	0.3797	0.7403	0.8257	-0.001
Mof_H 	H 	0.5123	0.6192	0.8487	0
Mof_H 	H 	0.6584	0.7771	0.7277	0.078
Mof_H 	H 	0.687	0.541	0.684	0.12
Mof_H 	H 	0.801	0.629	0.634	0.131
Mof_H 	H 	0.2879	0.3764	0.1806	0.137
Mof_H 	H 	0.1519	0.4968	0.198	0.127
Mof_H 	H 	0.1203	0.2597	0.3257	0.001
Mof_H 	H 	0.9877	0.3808	0.3487	-0
Mof_H 	H 	0.8416	0.2229	0.2277	0.077
Mof_H 	H 	0.813	0.459	0.184	0.122
Mof_H 	H 	0.699	0.371	0.134	0.133
Mof_C 	C 	0.8378	0.0246	0.66171	0.377
Mof_C 	C 	0.7112	0.0765	0.75991	-0.351
Mof_C 	C 	0.5606	0.1652	0.71338	0.075
Mof_C 	C 	0.5365	0.2826	0.90942	0.367
Mof_C 	C 	0.428	0.2134	0.81014	-0.161
Mof_C 	C 	0.6622	0.9754	0.16171	0.384
Mof_C 	C 	0.7888	0.9235	0.25991	-0.363
Mof_C 	C 	0.9394	0.8348	0.21338	0.098
Mof_C 	C 	0.9635	0.7174	0.40942	0.374
Mof_C 	C 	0.072	0.7866	0.31014	-0.174
Mof_C 	C 	0.1622	0.5246	0.83829	0.38
Mof_C 	C 	0.2888	0.5765	0.74009	-0.354
Mof_C 	C 	0.4394	0.6652	0.78662	0.078
Mof_C 	C 	0.4635	0.7826	0.59058	0.37
Mof_C 	C 	0.572	0.7134	0.68986	-0.163
Mof_C 	C 	0.3378	0.4754	0.33829	0.38
Mof_C 	C 	0.2112	0.4235	0.24009	-0.354
Mof_C 	C 	0.0606	0.3348	0.28662	0.078
Mof_C 	C 	0.0365	0.2174	0.09058	0.362
Mof_C 	C 	0.928	0.2866	0.18986	-0.16
Mof_N 	N 	0.3144	0.10852	0.86095	-0.363
Mof_N 	N 	0.1856	0.89148	0.36095	-0.36
Mof_N 	N 	0.6856	0.60852	0.63905	-0.361
Mof_N 	N 	0.8144	0.39148	0.13905	-0.362
Mof_O 	O 	0.9839	0.96448	0.69676	-0.455
Mof_O 	O 	0.8024	0.03898	0.55321	-0.378
Mof_O 	O 	0.5204	0.24491	0.01569	-0.453
Mof_O 	O 	0.64	0.373	0.87486	-0.464
Mof_O 	O 	0.5161	0.03552	0.19676	-0.455
Mof_O 	O 	0.6976	0.96102	0.05321	-0.375
Mof_O 	O 	0.9796	0.75509	0.51569	-0.457
Mof_O 	O 	0.86	0.627	0.37486	-0.464
Mof_O 	O 	0.0161	0.46448	0.80324	-0.451
Mof_O 	O 	0.1976	0.53898	0.94679	-0.376
Mof_O 	O 	0.4796	0.74491	0.48431	-0.455
Mof_O 	O 	0.36	0.873	0.62514	-0.463
Mof_O 	O 	0.4839	0.53552	0.30324	-0.454
Mof_O 	O 	0.3024	0.46102	0.44679	-0.377
Mof_O 	O 	0.0204	0.25509	0.98431	-0.446
Mof_O 	O 	0.14	0.127	0.12514	-0.46
_end
