data_functionalizedCrystal
_audit_creation_method	'EQeq! by Chris Wilmer'
_symmetry_space_group_name_H-M	'P1'
_symmetry_Int_Tables_number	1
_symmetry_cell_setting	triclinic
loop_
_symmetry_equiv_pos_as_xyz
  x,y,z
_cell_length_a	10.252
_cell_length_b	13.228
_cell_length_c	20.553
_cell_angle_alpha	90
_cell_angle_beta	90
_cell_angle_gamma	90
loop_
_atom_site_label
_atom_site_type_symbol
_atom_site_fract_x
_atom_site_fract_y
_atom_site_fract_z
_atom_site_charge
Mof_C 	C 	0.6897	0.4804	0.2704	0.126
Mof_H 	H 	0.6872	0.4402	0.3075	-0.024
Mof_C 	C 	0.6413	0.5936	0.1998	-0.069
Mof_C 	C 	0.7469	0.5436	0.1779	-0.066
Mof_C 	C 	0.555	0.6746	0.172	0.338
Mof_C 	C 	0.8319	0.5441	0.1197	0.33
Mof_C 	C 	0.4105	0.7397	0.4102	0.099
Mof_H 	H 	0.3663	0.6835	0.4261	-0.011
Mof_C 	C 	0.4284	0.8217	0.4511	-0.2
Mof_H 	H 	0.3963	0.8197	0.4934	0.103
Mof_C 	C 	0.4937	0.9063	0.4293	0.129
Mof_C 	C 	0.5347	0.9037	0.3652	-0.189
Mof_H 	H 	0.5771	0.9594	0.3475	0.084
Mof_C 	C 	0.5133	0.8195	0.3274	0.095
Mof_H 	H 	0.542	0.8198	0.2845	-0.026
Mof_C 	C 	0.5191	0.9947	0.4698	-0.096
Mof_H 	H 	0.5659	0.0477	0.4513	0.067
Mof_N 	N 	0.6046	0.5546	0.2587	-0.258
Mof_N 	N 	0.7765	0.47	0.2246	-0.263
Mof_N 	N 	0.4532	0.7379	0.3499	-0.284
Mof_O 	O 	0.9243	0.4807	0.1199	-0.404
Mof_O 	O 	0.8062	0.603	0.0728	-0.425
Mof_O 	O 	0.4507	0.6895	0.2035	-0.421
Mof_O 	O 	0.5835	0.7219	0.122	-0.447
Mof_Zn	Zn	0.43702	0.61067	0.29377	1.196
Mof_C 	C 	0.8103	0.0196	0.2704	0.126
Mof_H 	H 	0.8128	0.0598	0.3075	-0.023
Mof_C 	C 	0.8587	0.9064	0.1998	-0.068
Mof_C 	C 	0.7531	0.9564	0.1779	-0.065
Mof_C 	C 	0.945	0.8254	0.172	0.34
Mof_C 	C 	0.6681	0.9559	0.1197	0.33
Mof_C 	C 	0.0895	0.7603	0.4102	0.1
Mof_H 	H 	0.1337	0.8165	0.4261	-0.011
Mof_C 	C 	0.0716	0.6783	0.4511	-0.199
Mof_H 	H 	0.1037	0.6803	0.4934	0.104
Mof_C 	C 	0.0063	0.5937	0.4293	0.129
Mof_C 	C 	0.9653	0.5963	0.3652	-0.189
Mof_H 	H 	0.9229	0.5406	0.3475	0.084
Mof_C 	C 	0.9867	0.6805	0.3274	0.095
Mof_H 	H 	0.958	0.6802	0.2845	-0.026
Mof_C 	C 	0.9809	0.5053	0.4698	-0.096
Mof_H 	H 	0.9341	0.4523	0.4513	0.067
Mof_N 	N 	0.8954	0.9454	0.2587	-0.258
Mof_N 	N 	0.7235	0.03	0.2246	-0.263
Mof_N 	N 	0.0468	0.7621	0.3499	-0.285
Mof_O 	O 	0.5757	0.0193	0.1199	-0.403
Mof_O 	O 	0.6938	0.897	0.0728	-0.425
Mof_O 	O 	0.0493	0.8105	0.2035	-0.421
Mof_O 	O 	0.9165	0.7781	0.122	-0.447
Mof_Zn	Zn	0.06298	0.88933	0.29377	1.196
Mof_C 	C 	0.3103	0.9804	0.2296	0.125
Mof_H 	H 	0.3128	0.9402	0.1925	-0.023
Mof_C 	C 	0.3587	0.0936	0.3002	-0.068
Mof_C 	C 	0.2531	0.0436	0.3221	-0.065
Mof_C 	C 	0.445	0.1746	0.328	0.339
Mof_C 	C 	0.1681	0.0441	0.3803	0.332
Mof_C 	C 	0.5895	0.2397	0.0898	0.1
Mof_H 	H 	0.6337	0.1835	0.0739	-0.01
Mof_C 	C 	0.5716	0.3217	0.0489	-0.199
Mof_H 	H 	0.6037	0.3197	0.0066	0.104
Mof_C 	C 	0.5063	0.4063	0.0707	0.129
Mof_C 	C 	0.4653	0.4037	0.1348	-0.189
Mof_H 	H 	0.4229	0.4594	0.1525	0.084
Mof_C 	C 	0.4867	0.3195	0.1726	0.095
Mof_H 	H 	0.458	0.3198	0.2155	-0.026
Mof_C 	C 	0.4809	0.4947	0.0302	-0.096
Mof_H 	H 	0.4341	0.5477	0.0487	0.067
Mof_N 	N 	0.3954	0.0546	0.2413	-0.257
Mof_N 	N 	0.2235	0.97	0.2754	-0.263
Mof_N 	N 	0.5468	0.2379	0.1501	-0.284
Mof_O 	O 	0.0757	0.9807	0.3801	-0.405
Mof_O 	O 	0.1938	0.103	0.4272	-0.425
Mof_O 	O 	0.5493	0.1895	0.2965	-0.421
Mof_O 	O 	0.4165	0.2219	0.378	-0.447
Mof_Zn	Zn	0.56298	0.11067	0.20623	1.196
Mof_C 	C 	0.1897	0.5196	0.2296	0.127
Mof_H 	H 	0.1872	0.5598	0.1925	-0.023
Mof_C 	C 	0.1413	0.4064	0.3002	-0.068
Mof_C 	C 	0.2469	0.4564	0.3221	-0.065
Mof_C 	C 	0.055	0.3254	0.328	0.34
Mof_C 	C 	0.3319	0.4559	0.3803	0.331
Mof_C 	C 	0.9105	0.2603	0.0898	0.099
Mof_H 	H 	0.8663	0.3165	0.0739	-0.01
Mof_C 	C 	0.9284	0.1783	0.0489	-0.196
Mof_H 	H 	0.8963	0.1803	0.0066	0.103
Mof_C 	C 	0.9937	0.0937	0.0707	0.124
Mof_C 	C 	0.0347	0.0963	0.1348	-0.185
Mof_H 	H 	0.0771	0.0406	0.1525	0.084
Mof_C 	C 	0.0133	0.1805	0.1726	0.094
Mof_H 	H 	0.042	0.1802	0.2155	-0.026
Mof_C 	C 	0.0191	0.0053	0.0302	-0.092
Mof_H 	H 	0.0659	0.9523	0.0487	0.064
Mof_N 	N 	0.1046	0.4454	0.2413	-0.258
Mof_N 	N 	0.2765	0.53	0.2754	-0.263
Mof_N 	N 	0.9532	0.2621	0.1501	-0.284
Mof_O 	O 	0.4243	0.5193	0.3801	-0.404
Mof_O 	O 	0.3062	0.397	0.4272	-0.425
Mof_O 	O 	0.9507	0.3105	0.2965	-0.422
Mof_O 	O 	0.0835	0.2781	0.378	-0.447
Mof_Zn	Zn	0.93702	0.38933	0.20623	1.196
Mof_C 	C 	0.3103	0.5196	0.7296	0.127
Mof_H 	H 	0.3128	0.5598	0.6925	-0.023
Mof_C 	C 	0.3587	0.4064	0.8002	-0.068
Mof_C 	C 	0.2531	0.4564	0.8221	-0.065
Mof_C 	C 	0.445	0.3254	0.828	0.339
Mof_C 	C 	0.1681	0.4559	0.8803	0.331
Mof_C 	C 	0.5895	0.2603	0.5898	0.1
Mof_H 	H 	0.6337	0.3165	0.5739	-0.01
Mof_C 	C 	0.5716	0.1783	0.5489	-0.199
Mof_H 	H 	0.6037	0.1803	0.5066	0.104
Mof_C 	C 	0.5063	0.0937	0.5707	0.129
Mof_C 	C 	0.4653	0.0963	0.6348	-0.189
Mof_H 	H 	0.4229	0.0406	0.6525	0.084
Mof_C 	C 	0.4867	0.1805	0.6726	0.095
Mof_H 	H 	0.458	0.1802	0.7155	-0.026
Mof_C 	C 	0.4809	0.0053	0.5302	-0.096
Mof_H 	H 	0.4341	0.9523	0.5487	0.067
Mof_N 	N 	0.3954	0.4454	0.7413	-0.258
Mof_N 	N 	0.2235	0.53	0.7754	-0.263
Mof_N 	N 	0.5468	0.2621	0.6501	-0.284
Mof_O 	O 	0.0757	0.5193	0.8801	-0.404
Mof_O 	O 	0.1938	0.397	0.9272	-0.425
Mof_O 	O 	0.5493	0.3105	0.7965	-0.421
Mof_O 	O 	0.4165	0.2781	0.878	-0.447
Mof_Zn	Zn	0.56298	0.38933	0.70623	1.196
Mof_C 	C 	0.1897	0.9804	0.7296	0.126
Mof_H 	H 	0.1872	0.9402	0.6925	-0.023
Mof_C 	C 	0.1413	0.0936	0.8002	-0.068
Mof_C 	C 	0.2469	0.0436	0.8221	-0.065
Mof_C 	C 	0.055	0.1746	0.828	0.34
Mof_C 	C 	0.3319	0.0441	0.8803	0.33
Mof_C 	C 	0.9105	0.2397	0.5898	0.1
Mof_H 	H 	0.8663	0.1835	0.5739	-0.011
Mof_C 	C 	0.9284	0.3217	0.5489	-0.199
Mof_H 	H 	0.8963	0.3197	0.5066	0.104
Mof_C 	C 	0.9937	0.4063	0.5707	0.129
Mof_C 	C 	0.0347	0.4037	0.6348	-0.189
Mof_H 	H 	0.0771	0.4594	0.6525	0.084
Mof_C 	C 	0.0133	0.3195	0.6726	0.095
Mof_H 	H 	0.042	0.3198	0.7155	-0.026
Mof_C 	C 	0.0191	0.4947	0.5302	-0.096
Mof_H 	H 	0.0659	0.5477	0.5487	0.067
Mof_N 	N 	0.1046	0.0546	0.7413	-0.258
Mof_N 	N 	0.2765	0.97	0.7754	-0.263
Mof_N 	N 	0.9532	0.2379	0.6501	-0.285
Mof_O 	O 	0.4243	0.9807	0.8801	-0.403
Mof_O 	O 	0.3062	0.103	0.9272	-0.425
Mof_O 	O 	0.9507	0.1895	0.7965	-0.421
Mof_O 	O 	0.0835	0.2219	0.878	-0.447
Mof_Zn	Zn	0.93702	0.11067	0.70623	1.196
Mof_C 	C 	0.6897	0.0196	0.7704	0.125
Mof_H 	H 	0.6872	0.0598	0.8075	-0.023
Mof_C 	C 	0.6413	0.9064	0.6998	-0.068
Mof_C 	C 	0.7469	0.9564	0.6779	-0.065
Mof_C 	C 	0.555	0.8254	0.672	0.339
Mof_C 	C 	0.8319	0.9559	0.6197	0.332
Mof_C 	C 	0.4105	0.7603	0.9102	0.1
Mof_H 	H 	0.3663	0.8165	0.9261	-0.01
Mof_C 	C 	0.4284	0.6783	0.9511	-0.199
Mof_H 	H 	0.3963	0.6803	0.9934	0.104
Mof_C 	C 	0.4937	0.5937	0.9293	0.129
Mof_C 	C 	0.5347	0.5963	0.8652	-0.189
Mof_H 	H 	0.5771	0.5406	0.8475	0.084
Mof_C 	C 	0.5133	0.6805	0.8274	0.095
Mof_H 	H 	0.542	0.6802	0.7845	-0.026
Mof_C 	C 	0.5191	0.5053	0.9698	-0.096
Mof_H 	H 	0.5659	0.4523	0.9513	0.067
Mof_N 	N 	0.6046	0.9454	0.7587	-0.257
Mof_N 	N 	0.7765	0.03	0.7246	-0.263
Mof_N 	N 	0.4532	0.7621	0.8499	-0.284
Mof_O 	O 	0.9243	0.0193	0.6199	-0.405
Mof_O 	O 	0.8062	0.897	0.5728	-0.425
Mof_O 	O 	0.4507	0.8105	0.7035	-0.421
Mof_O 	O 	0.5835	0.7781	0.622	-0.447
Mof_Zn	Zn	0.43702	0.88933	0.79377	1.196
Mof_C 	C 	0.8103	0.4804	0.7704	0.127
Mof_H 	H 	0.8128	0.4402	0.8075	-0.023
Mof_C 	C 	0.8587	0.5936	0.6998	-0.068
Mof_C 	C 	0.7531	0.5436	0.6779	-0.065
Mof_C 	C 	0.945	0.6746	0.672	0.34
Mof_C 	C 	0.6681	0.5441	0.6197	0.331
Mof_C 	C 	0.0895	0.7397	0.9102	0.099
Mof_H 	H 	0.1337	0.6835	0.9261	-0.01
Mof_C 	C 	0.0716	0.8217	0.9511	-0.196
Mof_H 	H 	0.1037	0.8197	0.9934	0.103
Mof_C 	C 	0.0063	0.9063	0.9293	0.124
Mof_C 	C 	0.9653	0.9037	0.8652	-0.185
Mof_H 	H 	0.9229	0.9594	0.8475	0.084
Mof_C 	C 	0.9867	0.8195	0.8274	0.094
Mof_H 	H 	0.958	0.8198	0.7845	-0.026
Mof_C 	C 	0.9809	0.9947	0.9698	-0.092
Mof_H 	H 	0.9341	0.0477	0.9513	0.064
Mof_N 	N 	0.8954	0.5546	0.7587	-0.258
Mof_N 	N 	0.7235	0.47	0.7246	-0.263
Mof_N 	N 	0.0468	0.7379	0.8499	-0.284
Mof_O 	O 	0.5757	0.4807	0.6199	-0.404
Mof_O 	O 	0.6938	0.603	0.5728	-0.425
Mof_O 	O 	0.0493	0.6895	0.7035	-0.422
Mof_O 	O 	0.9165	0.7219	0.622	-0.447
Mof_Zn	Zn	0.06298	0.61067	0.79377	1.196
Mof_Zn	Zn	0.75	0.75	0.07546	1.216
Mof_Zn	Zn	0.25	0.25	0.42454	1.216
Mof_Zn	Zn	0.25	0.25	0.92454	1.216
Mof_Zn	Zn	0.75	0.75	0.57546	1.216
_end
