data_functionalizedCrystal
_audit_creation_method	'EQeq! by Chris Wilmer'
_symmetry_space_group_name_H-M	'P1'
_symmetry_Int_Tables_number	1
_symmetry_cell_setting	triclinic
loop_
_symmetry_equiv_pos_as_xyz
  x,y,z
_cell_length_a	9.0008
_cell_length_b	27.8944
_cell_length_c	10.9798
_cell_angle_alpha	90
_cell_angle_beta	98.694
_cell_angle_gamma	90
loop_
_atom_site_label
_atom_site_type_symbol
_atom_site_fract_x
_atom_site_fract_y
_atom_site_fract_z
_atom_site_charge
Mof_Mo	Mo	0.4125	0.3511	0.62619	0.981
Mof_C 	C 	0.6583	0.47334	0.3374	0.073
Mof_H 	H 	0.7435	0.48705	0.3826	-0.013
Mof_C 	C 	0.5724	0.50131	0.2491	-0.124
Mof_H 	H 	0.5987	0.53307	0.2377	0.053
Mof_C 	C 	0.4463	0.48144	0.1776	0.053
Mof_C 	C 	0.4147	0.43385	0.2012	-0.139
Mof_H 	H 	0.3325	0.41876	0.1554	0.049
Mof_C 	C 	0.5049	0.40911	0.2922	0.073
Mof_H 	H 	0.4802	0.37744	0.3066	-0.037
Mof_C 	C 	0.3457	0.50964	0.0833	0.05
Mof_C 	C 	0.3495	0.55956	0.0852	-0.093
Mof_H 	H 	0.418	0.57559	0.143	0.037
Mof_C 	C 	0.279	0.66388	0.1109	-0.121
Mof_H 	H 	0.2955	0.64732	0.1852	0.04
Mof_C 	C 	0.2832	0.71342	0.1106	0.009
Mof_H 	H 	0.3083	0.72996	0.1844	-0.002
Mof_N 	N 	0.6264	0.42797	0.3616	-0.236
Mof_O 	O 	0.1679	0.81507	0.91501	-0.38
Mof_O 	O 	0.5668	0.38462	0.5937	-0.561
Mof_Mo	Mo	0.9125	0.8511	0.12619	0.953
Mof_C 	C 	0.1583	0.97334	0.8374	0.078
Mof_H 	H 	0.2435	0.98705	0.8826	-0.006
Mof_C 	C 	0.0724	0.00131	0.7491	-0.126
Mof_H 	H 	0.0987	0.03307	0.7377	0.055
Mof_C 	C 	0.9463	0.98144	0.6776	0.059
Mof_C 	C 	0.9147	0.93385	0.7012	-0.149
Mof_H 	H 	0.8325	0.91876	0.6554	0.057
Mof_C 	C 	0.0049	0.90911	0.7922	0.092
Mof_H 	H 	0.9802	0.87744	0.8066	-0.04
Mof_C 	C 	0.8457	0.00964	0.5833	0.059
Mof_C 	C 	0.8495	0.05956	0.5852	-0.101
Mof_H 	H 	0.918	0.07559	0.643	0.042
Mof_C 	C 	0.779	0.16388	0.6109	-0.118
Mof_H 	H 	0.7955	0.14732	0.6852	0.04
Mof_C 	C 	0.7832	0.21342	0.6106	0.004
Mof_H 	H 	0.8083	0.22996	0.6844	0.003
Mof_N 	N 	0.1264	0.92797	0.8616	-0.232
Mof_O 	O 	0.6679	0.31507	0.41501	-0.414
Mof_O 	O 	0.0668	0.88462	0.0937	-0.561
Mof_Mo	Mo	0.0875	0.3511	0.37381	0.963
Mof_C 	C 	0.8417	0.47334	0.6626	0.076
Mof_H 	H 	0.7565	0.48705	0.6174	-0.014
Mof_C 	C 	0.9276	0.50131	0.7509	-0.125
Mof_H 	H 	0.9013	0.53307	0.7623	0.056
Mof_C 	C 	0.0537	0.48144	0.8224	0.062
Mof_C 	C 	0.0853	0.43385	0.7988	-0.155
Mof_H 	H 	0.1675	0.41876	0.8446	0.065
Mof_C 	C 	0.9951	0.40911	0.7078	0.1
Mof_H 	H 	0.0198	0.37744	0.6934	-0.047
Mof_C 	C 	0.1543	0.50964	0.9167	0.071
Mof_C 	C 	0.1505	0.55956	0.9148	-0.062
Mof_H 	H 	0.082	0.57559	0.857	0.033
Mof_C 	C 	0.221	0.66388	0.8891	-0.093
Mof_H 	H 	0.2045	0.64732	0.8148	0.035
Mof_C 	C 	0.2168	0.71342	0.8894	0.036
Mof_H 	H 	0.1917	0.72996	0.8156	-0.006
Mof_N 	N 	0.8736	0.42797	0.6384	-0.24
Mof_O 	O 	0.3321	0.81507	0.08499	-0.412
Mof_O 	O 	0.9332	0.38462	0.4063	-0.556
Mof_Mo	Mo	0.5875	0.8511	0.87381	1.021
Mof_C 	C 	0.3417	0.97334	0.1626	0.072
Mof_H 	H 	0.2565	0.98705	0.1174	-0.019
Mof_C 	C 	0.4276	0.00131	0.2509	-0.125
Mof_H 	H 	0.4013	0.03307	0.2623	0.053
Mof_C 	C 	0.5537	0.98144	0.3224	0.053
Mof_C 	C 	0.5853	0.93385	0.2988	-0.139
Mof_H 	H 	0.6675	0.91876	0.3446	0.053
Mof_C 	C 	0.4951	0.90911	0.2078	0.072
Mof_H 	H 	0.5198	0.87744	0.1934	-0.039
Mof_C 	C 	0.6543	0.00964	0.4167	0.06
Mof_C 	C 	0.6505	0.05956	0.4148	-0.102
Mof_H 	H 	0.582	0.07559	0.357	0.041
Mof_C 	C 	0.721	0.16388	0.3891	-0.119
Mof_H 	H 	0.7045	0.14732	0.3148	0.04
Mof_C 	C 	0.7168	0.21342	0.3894	0.005
Mof_H 	H 	0.6917	0.22996	0.3156	-0
Mof_N 	N 	0.3736	0.92797	0.1384	-0.241
Mof_O 	O 	0.8321	0.31507	0.58499	-0.41
Mof_O 	O 	0.4332	0.88462	0.9063	-0.554
Mof_Co	Co	0.75	0.38332	0.5	1.161
Mof_Co	Co	0.25	0.88332	-0	1.147
Mof_C 	C 	0.25	0.58532	-0	0
Mof_C 	C 	0.25	0.63855	-0	-0.002
Mof_C 	C 	0.25	0.7388	-0	-0.157
Mof_C 	C 	0.25	0.79274	-0	0.246
Mof_N 	N 	0.25	0.48461	-0	-0.148
Mof_C 	C 	0.75	0.08532	0.5	0.034
Mof_C 	C 	0.75	0.13855	0.5	0.021
Mof_C 	C 	0.75	0.2388	0.5	-0.128
Mof_C 	C 	0.75	0.29274	0.5	0.277
Mof_N 	N 	0.75	0.98461	0.5	-0.132
Mof_O 	O 	0.25	0.36112	0.5	-0.605
Mof_O 	O 	0.75	0.86112	-0	-0.631
Mof_Mo	Mo	0.5875	0.6489	0.37381	0.971
Mof_C 	C 	0.3417	0.52666	0.6626	0.074
Mof_H 	H 	0.2565	0.51295	0.6174	-0.013
Mof_C 	C 	0.4276	0.49869	0.7509	-0.122
Mof_H 	H 	0.4013	0.46693	0.7623	0.055
Mof_C 	C 	0.5537	0.51856	0.8224	0.057
Mof_C 	C 	0.5853	0.56615	0.7988	-0.136
Mof_H 	H 	0.6675	0.58124	0.8446	0.06
Mof_C 	C 	0.4951	0.59089	0.7078	0.076
Mof_H 	H 	0.5198	0.62256	0.6934	-0.034
Mof_C 	C 	0.6543	0.49036	0.9167	0.074
Mof_C 	C 	0.6505	0.44044	0.9148	-0.06
Mof_H 	H 	0.582	0.42441	0.857	0.032
Mof_C 	C 	0.721	0.33612	0.8891	-0.092
Mof_H 	H 	0.7045	0.35268	0.8148	0.035
Mof_C 	C 	0.7168	0.28658	0.8894	0.038
Mof_H 	H 	0.6917	0.27004	0.8156	-0.007
Mof_N 	N 	0.3736	0.57203	0.6384	-0.236
Mof_O 	O 	0.8321	0.18493	0.08499	-0.41
Mof_O 	O 	0.4332	0.61538	0.4063	-0.56
Mof_Mo	Mo	0.0875	0.1489	0.87381	1.005
Mof_C 	C 	0.8417	0.02666	0.1626	0.076
Mof_H 	H 	0.7565	0.01295	0.1174	-0.021
Mof_C 	C 	0.9276	0.99869	0.2509	-0.132
Mof_H 	H 	0.9013	0.96693	0.2623	0.055
Mof_C 	C 	0.0537	0.01856	0.3224	0.06
Mof_C 	C 	0.0853	0.06615	0.2988	-0.155
Mof_H 	H 	0.1675	0.08124	0.3446	0.058
Mof_C 	C 	0.9951	0.09089	0.2078	0.092
Mof_H 	H 	0.0198	0.12256	0.1934	-0.048
Mof_C 	C 	0.1543	0.99036	0.4167	0.058
Mof_C 	C 	0.1505	0.94044	0.4148	-0.101
Mof_H 	H 	0.082	0.92441	0.357	0.042
Mof_C 	C 	0.221	0.83612	0.3891	-0.119
Mof_H 	H 	0.2045	0.85268	0.3148	0.04
Mof_C 	C 	0.2168	0.78658	0.3894	0.005
Mof_H 	H 	0.1917	0.77004	0.3156	0.001
Mof_N 	N 	0.8736	0.07203	0.1384	-0.245
Mof_O 	O 	0.3321	0.68493	0.58499	-0.412
Mof_O 	O 	0.9332	0.11538	0.9063	-0.547
Mof_Mo	Mo	0.9125	0.6489	0.62619	0.973
Mof_C 	C 	0.1583	0.52666	0.3374	0.076
Mof_H 	H 	0.2435	0.51295	0.3826	-0.013
Mof_C 	C 	0.0724	0.49869	0.2491	-0.127
Mof_H 	H 	0.0987	0.46693	0.2377	0.054
Mof_C 	C 	0.9463	0.51856	0.1776	0.059
Mof_C 	C 	0.9147	0.56615	0.2012	-0.156
Mof_H 	H 	0.8325	0.58124	0.1554	0.055
Mof_C 	C 	0.0049	0.59089	0.2922	0.094
Mof_H 	H 	0.9802	0.62256	0.3066	-0.048
Mof_C 	C 	0.8457	0.49036	0.0833	0.047
Mof_C 	C 	0.8495	0.44044	0.0852	-0.091
Mof_H 	H 	0.918	0.42441	0.143	0.037
Mof_C 	C 	0.779	0.33612	0.1109	-0.12
Mof_H 	H 	0.7955	0.35268	0.1852	0.04
Mof_C 	C 	0.7832	0.28658	0.1106	0.009
Mof_H 	H 	0.8083	0.27004	0.1844	-0.001
Mof_N 	N 	0.1264	0.57203	0.3616	-0.24
Mof_O 	O 	0.6679	0.18493	0.91501	-0.38
Mof_O 	O 	0.0668	0.61538	0.5937	-0.557
Mof_Mo	Mo	0.4125	0.1489	0.12619	0.964
Mof_C 	C 	0.6583	0.02666	0.8374	0.074
Mof_H 	H 	0.7435	0.01295	0.8826	-0.004
Mof_C 	C 	0.5724	0.99869	0.7491	-0.12
Mof_H 	H 	0.5987	0.96693	0.7377	0.054
Mof_C 	C 	0.4463	0.01856	0.6776	0.053
Mof_C 	C 	0.4147	0.06615	0.7012	-0.136
Mof_H 	H 	0.3325	0.08124	0.6554	0.052
Mof_C 	C 	0.5049	0.09089	0.7922	0.075
Mof_H 	H 	0.4802	0.12256	0.8066	-0.032
Mof_C 	C 	0.3457	0.99036	0.5833	0.06
Mof_C 	C 	0.3495	0.94044	0.5852	-0.101
Mof_H 	H 	0.418	0.92441	0.643	0.041
Mof_C 	C 	0.279	0.83612	0.6109	-0.119
Mof_H 	H 	0.2955	0.85268	0.6852	0.039
Mof_C 	C 	0.2832	0.78658	0.6106	0.004
Mof_H 	H 	0.3083	0.77004	0.6844	0.002
Mof_N 	N 	0.6264	0.07203	0.8616	-0.228
Mof_O 	O 	0.1679	0.68493	0.41501	-0.412
Mof_O 	O 	0.5668	0.11538	0.0937	-0.567
Mof_Co	Co	0.25	0.61668	0.5	1.161
Mof_Co	Co	0.75	0.11668	-0	1.147
Mof_C 	C 	0.75	0.41468	-0	-0.002
Mof_C 	C 	0.75	0.36145	-0	-0.003
Mof_C 	C 	0.75	0.2612	-0	-0.158
Mof_C 	C 	0.75	0.20726	-0	0.244
Mof_N 	N 	0.75	0.51539	-0	-0.149
Mof_C 	C 	0.25	0.91468	0.5	0.033
Mof_C 	C 	0.25	0.86145	0.5	0.021
Mof_C 	C 	0.25	0.7612	0.5	-0.128
Mof_C 	C 	0.25	0.70726	0.5	0.277
Mof_N 	N 	0.25	0.01539	0.5	-0.132
Mof_O 	O 	0.75	0.63888	0.5	-0.605
Mof_O 	O 	0.25	0.13888	-0	-0.629
_end
