data_functionalizedCrystal
_audit_creation_method	'EQeq! by Chris Wilmer'
_symmetry_space_group_name_H-M	'P1'
_symmetry_Int_Tables_number	1
_symmetry_cell_setting	triclinic
loop_
_symmetry_equiv_pos_as_xyz
  x,y,z
_cell_length_a	16.5428
_cell_length_b	16.5428
_cell_length_c	24.3988
_cell_angle_alpha	90
_cell_angle_beta	90
_cell_angle_gamma	120
loop_
_atom_site_label
_atom_site_type_symbol
_atom_site_fract_x
_atom_site_fract_y
_atom_site_fract_z
_atom_site_charge
Mof_La	La	0.08098	0.08098	-0	1.883
Mof_La	La	-6.02067e-17	0.91902	0.33333	2.043
Mof_La	La	0.91902	0	0.66667	2.04
Mof_La	La	0.91902	0.91902	0.5	2.303
Mof_La	La	1.85073e-18	0.08098	0.83333	1.897
Mof_La	La	0.08098	0	0.16667	1.881
Mof_H 	H 	0.9831	0.3221	0.0019	-0.03
Mof_H 	H 	0.8873	0.3874	0.9923	0.106
Mof_H 	H 	0.7197	0.1752	0.8925	0.072
Mof_H 	H 	0.8109	0.1063	0.9065	0.002
Mof_H 	H 	0.8498	0.4711	0.9388	0.074
Mof_H 	H 	0.8748	0.6066	0.9834	0.092
Mof_H 	H 	0.9585	0.7683	0.982	0.042
Mof_H 	H 	0.339	0.0169	0.33523	0.006
Mof_H 	H 	0.5001	0.1127	0.32563	0.055
Mof_H 	H 	0.4555	0.2803	0.22583	0.057
Mof_H 	H 	0.2954	0.1891	0.23983	0.033
Mof_H 	H 	0.6213	0.1502	0.27213	0.061
Mof_H 	H 	0.7318	0.1252	0.31673	0.072
Mof_H 	H 	0.8098	0.0415	0.31533	-0.004
Mof_H 	H 	0.6779	0.661	0.66857	0.022
Mof_H 	H 	0.6126	0.4999	0.65897	0.065
Mof_H 	H 	0.8248	0.5445	0.55917	0.075
Mof_H 	H 	0.8937	0.7046	0.57317	0.034
Mof_H 	H 	0.5289	0.3787	0.60547	0.069
Mof_H 	H 	0.3934	0.2682	0.65007	0.073
Mof_H 	H 	0.2317	0.1902	0.64867	0.014
Mof_H 	H 	0.0169	0.6779	0.5019	0.007
Mof_H 	H 	0.1127	0.6126	0.4923	0.055
Mof_H 	H 	0.2803	0.8248	0.3925	0.07
Mof_H 	H 	0.1891	0.8937	0.4065	0.043
Mof_H 	H 	0.1502	0.5289	0.4388	0.062
Mof_H 	H 	0.1252	0.3934	0.4834	0.069
Mof_H 	H 	0.0415	0.2317	0.482	-0.006
Mof_H 	H 	0.661	0.9831	0.83523	0.04
Mof_H 	H 	0.4999	0.8873	0.82563	0.078
Mof_H 	H 	0.5445	0.7197	0.72583	0.069
Mof_H 	H 	0.7046	0.8109	0.73983	0.022
Mof_H 	H 	0.3787	0.8498	0.77213	0.076
Mof_H 	H 	0.2682	0.8748	0.81673	0.085
Mof_H 	H 	0.1902	0.9585	0.81533	0.035
Mof_H 	H 	0.3221	0.339	0.16857	0.018
Mof_H 	H 	0.3874	0.5001	0.15897	0.065
Mof_H 	H 	0.1752	0.4555	0.05917	0.049
Mof_H 	H 	0.1063	0.2954	0.07317	0.009
Mof_H 	H 	0.4711	0.6213	0.10547	0.066
Mof_H 	H 	0.6066	0.7318	0.15007	0.08
Mof_H 	H 	0.7683	0.8098	0.14867	0.013
Mof_H 	H 	0.661	0.6779	0.33143	0.022
Mof_H 	H 	0.4999	0.6126	0.34103	0.065
Mof_H 	H 	0.5445	0.8248	0.44083	0.075
Mof_H 	H 	0.7046	0.8937	0.42683	0.034
Mof_H 	H 	0.3787	0.5289	0.39453	0.069
Mof_H 	H 	0.2682	0.3934	0.34993	0.073
Mof_H 	H 	0.1902	0.2317	0.35133	0.014
Mof_H 	H 	0.3221	0.9831	0.9981	0.107
Mof_H 	H 	0.3874	0.8873	0.0077	0.042
Mof_H 	H 	0.1752	0.7197	0.1075	0.046
Mof_H 	H 	0.1063	0.8109	0.0935	0.022
Mof_H 	H 	0.4711	0.8498	0.0612	0.075
Mof_H 	H 	0.6066	0.8748	0.0166	0.078
Mof_H 	H 	0.7683	0.9585	0.018	0.023
Mof_H 	H 	0.0169	0.339	0.66477	0.006
Mof_H 	H 	0.1127	0.5001	0.67437	0.055
Mof_H 	H 	0.2803	0.4555	0.77417	0.061
Mof_H 	H 	0.1891	0.2954	0.76017	0.033
Mof_H 	H 	0.1502	0.6213	0.72787	0.062
Mof_H 	H 	0.1252	0.7318	0.68327	0.073
Mof_H 	H 	0.0415	0.8098	0.68467	-0.004
Mof_H 	H 	0.339	0.3221	0.83143	0.021
Mof_H 	H 	0.5001	0.3874	0.84103	0.067
Mof_H 	H 	0.4555	0.1752	0.94083	0.06
Mof_H 	H 	0.2954	0.1063	0.92683	0.023
Mof_H 	H 	0.6213	0.4711	0.89453	0.068
Mof_H 	H 	0.7318	0.6066	0.84993	0.082
Mof_H 	H 	0.8098	0.7683	0.85133	0.016
Mof_H 	H 	0.6779	0.0169	0.4981	0.007
Mof_H 	H 	0.6126	0.1127	0.5077	0.055
Mof_H 	H 	0.8248	0.2803	0.6075	0.069
Mof_H 	H 	0.8937	0.1891	0.5935	0.043
Mof_H 	H 	0.5289	0.1502	0.5612	0.062
Mof_H 	H 	0.3934	0.1252	0.5166	0.069
Mof_H 	H 	0.2317	0.0415	0.518	-0.006
Mof_H 	H 	0.9831	0.661	0.16477	0.036
Mof_H 	H 	0.8873	0.4999	0.17437	0.072
Mof_H 	H 	0.7197	0.5445	0.27417	0.068
Mof_H 	H 	0.8109	0.7046	0.26017	0.022
Mof_H 	H 	0.8498	0.3787	0.22787	0.075
Mof_H 	H 	0.8748	0.2682	0.18327	0.078
Mof_H 	H 	0.9585	0.1902	0.18467	0.033
Mof_H 	H 	0.6138	0.2276	0.91667	0.057
Mof_H 	H 	0.6138	0.3862	0.25	0.067
Mof_H 	H 	0.7724	0.3862	0.58333	0.077
Mof_H 	H 	0.3862	0.7724	0.41667	0.077
Mof_H 	H 	0.3862	0.6138	0.75	0.068
Mof_H 	H 	0.2276	0.6138	0.08333	0.059
Mof_C 	C 	0.974	0.1734	0.9609	0.481
Mof_C 	C 	0.9073	0.2093	0.9552	-0.21
Mof_C 	C 	0.9298	0.2923	0.9803	0.174
Mof_C 	C 	0.8727	0.3326	0.9738	-0.179
Mof_C 	C 	0.7945	0.2911	0.9396	0.081
Mof_C 	C 	0.7723	0.2049	0.9147	-0.151
Mof_C 	C 	0.8273	0.1634	0.9227	0.089
Mof_C 	C 	0.7405	0.3385	0.9276	0.026
Mof_C 	C 	0.7871	0.4379	0.929	-0.101
Mof_C 	C 	0.8628	0.639	0.9565	-0.134
Mof_C 	C 	0.9122	0.736	0.956	0.095
Mof_C 	C 	0.1994	0.026	0.29423	0.29
Mof_C 	C 	0.302	0.0927	0.28853	-0.118
Mof_C 	C 	0.3625	0.0702	0.31363	0.016
Mof_C 	C 	0.4599	0.1273	0.30713	-0.104
Mof_C 	C 	0.4966	0.2055	0.27293	0.024
Mof_C 	C 	0.4326	0.2277	0.24803	-0.099
Mof_C 	C 	0.3361	0.1727	0.25603	0.009
Mof_C 	C 	0.598	0.2595	0.26093	0.044
Mof_C 	C 	0.6508	0.2129	0.26233	-0.117
Mof_C 	C 	0.7762	0.1372	0.28983	-0.138
Mof_C 	C 	0.8238	0.0878	0.28933	0.077
Mof_C 	C 	0.8266	0.8006	0.62757	0.387
Mof_C 	C 	0.7907	0.698	0.62187	-0.142
Mof_C 	C 	0.7077	0.6375	0.64697	0.043
Mof_C 	C 	0.6674	0.5401	0.64047	-0.111
Mof_C 	C 	0.7089	0.5034	0.60627	0.038
Mof_C 	C 	0.7951	0.5674	0.58137	-0.107
Mof_C 	C 	0.8366	0.6639	0.58937	0.037
Mof_C 	C 	0.6615	0.402	0.59427	0.047
Mof_C 	C 	0.5621	0.3492	0.59567	-0.117
Mof_C 	C 	0.361	0.2238	0.62317	-0.134
Mof_C 	C 	0.264	0.1762	0.62267	0.066
Mof_C 	C 	0.026	0.8266	0.4609	0.297
Mof_C 	C 	0.0927	0.7907	0.4552	-0.116
Mof_C 	C 	0.0702	0.7077	0.4803	0.018
Mof_C 	C 	0.1273	0.6674	0.4738	-0.103
Mof_C 	C 	0.2055	0.7089	0.4396	0.027
Mof_C 	C 	0.2277	0.7951	0.4147	-0.096
Mof_C 	C 	0.1727	0.8366	0.4227	0.015
Mof_C 	C 	0.2595	0.6615	0.4276	0.048
Mof_C 	C 	0.2129	0.5621	0.429	-0.118
Mof_C 	C 	0.1372	0.361	0.4565	-0.137
Mof_C 	C 	0.0878	0.264	0.456	0.066
Mof_C 	C 	0.8006	0.974	0.79423	0.465
Mof_C 	C 	0.698	0.9073	0.78853	-0.159
Mof_C 	C 	0.6375	0.9298	0.81363	0.063
Mof_C 	C 	0.5401	0.8727	0.80713	-0.115
Mof_C 	C 	0.5034	0.7945	0.77293	0.046
Mof_C 	C 	0.5674	0.7723	0.74803	-0.115
Mof_C 	C 	0.6639	0.8273	0.75603	0.052
Mof_C 	C 	0.402	0.7405	0.76093	0.045
Mof_C 	C 	0.3492	0.7871	0.76233	-0.113
Mof_C 	C 	0.2238	0.8628	0.78983	-0.134
Mof_C 	C 	0.1762	0.9122	0.78933	0.081
Mof_C 	C 	0.1734	0.1994	0.12757	0.379
Mof_C 	C 	0.2093	0.302	0.12187	-0.151
Mof_C 	C 	0.2923	0.3625	0.14697	0.04
Mof_C 	C 	0.3326	0.4599	0.14047	-0.116
Mof_C 	C 	0.2911	0.4966	0.10627	0.031
Mof_C 	C 	0.2049	0.4326	0.08137	-0.115
Mof_C 	C 	0.1634	0.3361	0.08937	0.028
Mof_C 	C 	0.3385	0.598	0.09427	0.041
Mof_C 	C 	0.4379	0.6508	0.09567	-0.118
Mof_C 	C 	0.639	0.7762	0.12317	-0.141
Mof_C 	C 	0.736	0.8238	0.12267	0.093
Mof_C 	C 	0.8006	0.8266	0.37243	0.387
Mof_C 	C 	0.698	0.7907	0.37813	-0.142
Mof_C 	C 	0.6375	0.7077	0.35303	0.043
Mof_C 	C 	0.5401	0.6674	0.35953	-0.111
Mof_C 	C 	0.5034	0.7089	0.39373	0.038
Mof_C 	C 	0.5674	0.7951	0.41863	-0.107
Mof_C 	C 	0.6639	0.8366	0.41063	0.037
Mof_C 	C 	0.402	0.6615	0.40573	0.047
Mof_C 	C 	0.3492	0.5621	0.40433	-0.117
Mof_C 	C 	0.2238	0.361	0.37683	-0.134
Mof_C 	C 	0.1762	0.264	0.37733	0.066
Mof_C 	C 	0.1734	0.974	0.0391	0.445
Mof_C 	C 	0.2093	0.9073	0.0448	-0.118
Mof_C 	C 	0.2923	0.9298	0.0197	-0.057
Mof_C 	C 	0.3326	0.8727	0.0262	-0.054
Mof_C 	C 	0.2911	0.7945	0.0604	0.004
Mof_C 	C 	0.2049	0.7723	0.0853	-0.087
Mof_C 	C 	0.1634	0.8273	0.0773	0.007
Mof_C 	C 	0.3385	0.7405	0.0724	0.053
Mof_C 	C 	0.4379	0.7871	0.071	-0.122
Mof_C 	C 	0.639	0.8628	0.0435	-0.141
Mof_C 	C 	0.736	0.9122	0.044	0.094
Mof_C 	C 	0.026	0.1994	0.70577	0.293
Mof_C 	C 	0.0927	0.302	0.71147	-0.12
Mof_C 	C 	0.0702	0.3625	0.68637	0.018
Mof_C 	C 	0.1273	0.4599	0.69287	-0.105
Mof_C 	C 	0.2055	0.4966	0.72707	0.026
Mof_C 	C 	0.2277	0.4326	0.75197	-0.1
Mof_C 	C 	0.1727	0.3361	0.74397	0.012
Mof_C 	C 	0.2595	0.598	0.73907	0.045
Mof_C 	C 	0.2129	0.6508	0.73767	-0.115
Mof_C 	C 	0.1372	0.7762	0.71017	-0.139
Mof_C 	C 	0.0878	0.8238	0.71067	0.079
Mof_C 	C 	0.1994	0.1734	0.87243	0.379
Mof_C 	C 	0.302	0.2093	0.87813	-0.143
Mof_C 	C 	0.3625	0.2923	0.85303	0.042
Mof_C 	C 	0.4599	0.3326	0.85953	-0.114
Mof_C 	C 	0.4966	0.2911	0.89373	0.038
Mof_C 	C 	0.4326	0.2049	0.91863	-0.11
Mof_C 	C 	0.3361	0.1634	0.91063	0.031
Mof_C 	C 	0.598	0.3385	0.90573	0.037
Mof_C 	C 	0.6508	0.4379	0.90433	-0.106
Mof_C 	C 	0.7762	0.639	0.87683	-0.138
Mof_C 	C 	0.8238	0.736	0.87733	0.094
Mof_C 	C 	0.8266	0.026	0.5391	0.296
Mof_C 	C 	0.7907	0.0927	0.5448	-0.116
Mof_C 	C 	0.7077	0.0702	0.5197	0.018
Mof_C 	C 	0.6674	0.1273	0.5262	-0.103
Mof_C 	C 	0.7089	0.2055	0.5604	0.027
Mof_C 	C 	0.7951	0.2277	0.5853	-0.096
Mof_C 	C 	0.8366	0.1727	0.5773	0.014
Mof_C 	C 	0.6615	0.2595	0.5724	0.048
Mof_C 	C 	0.5621	0.2129	0.571	-0.118
Mof_C 	C 	0.361	0.1372	0.5435	-0.137
Mof_C 	C 	0.264	0.0878	0.544	0.066
Mof_C 	C 	0.974	0.8006	0.20577	0.465
Mof_C 	C 	0.9073	0.698	0.21147	-0.162
Mof_C 	C 	0.9298	0.6375	0.18637	0.06
Mof_C 	C 	0.8727	0.5401	0.19287	-0.117
Mof_C 	C 	0.7945	0.5034	0.22707	0.043
Mof_C 	C 	0.7723	0.5674	0.25197	-0.116
Mof_C 	C 	0.8273	0.6639	0.24397	0.051
Mof_C 	C 	0.7405	0.402	0.23907	0.043
Mof_C 	C 	0.7871	0.3492	0.23767	-0.116
Mof_C 	C 	0.8628	0.2238	0.21017	-0.133
Mof_C 	C 	0.9122	0.1762	0.21067	0.078
Mof_C 	C 	0.6462	0.2924	0.91667	-0.099
Mof_C 	C 	0.7423	0.4846	0.91667	0.044
Mof_C 	C 	0.7953	0.5906	0.91667	0.07
Mof_C 	C 	0.8927	0.7854	0.91667	-0.173
Mof_C 	C 	0.9449	0.8898	0.91667	0.55
Mof_C 	C 	0.6462	0.3538	0.25	-0.116
Mof_C 	C 	0.7423	0.2577	0.25	0.047
Mof_C 	C 	0.7953	0.2047	0.25	0.057
Mof_C 	C 	0.8927	0.1073	0.25	-0.171
Mof_C 	C 	0.9449	0.0551	0.25	0.481
Mof_C 	C 	0.7076	0.3538	0.58333	-0.118
Mof_C 	C 	0.5154	0.2577	0.58333	0.048
Mof_C 	C 	0.4094	0.2047	0.58333	0.051
Mof_C 	C 	0.2146	0.1073	0.58333	-0.169
Mof_C 	C 	0.1102	0.0551	0.58333	0.414
Mof_C 	C 	0.3538	0.7076	0.41667	-0.118
Mof_C 	C 	0.2577	0.5154	0.41667	0.048
Mof_C 	C 	0.2047	0.4094	0.41667	0.051
Mof_C 	C 	0.1073	0.2146	0.41667	-0.169
Mof_C 	C 	0.0551	0.1102	0.41667	0.415
Mof_C 	C 	0.3538	0.6462	0.75	-0.114
Mof_C 	C 	0.2577	0.7423	0.75	0.048
Mof_C 	C 	0.2047	0.7953	0.75	0.06
Mof_C 	C 	0.1073	0.8927	0.75	-0.172
Mof_C 	C 	0.0551	0.9449	0.75	0.482
Mof_C 	C 	0.2924	0.6462	0.08333	-0.121
Mof_C 	C 	0.4846	0.7423	0.08333	0.049
Mof_C 	C 	0.5906	0.7953	0.08333	0.063
Mof_C 	C 	0.7854	0.8927	0.08333	-0.186
Mof_C 	C 	0.8898	0.9449	0.08333	0.555
Mof_O 	O 	0.9641	0.1059	0.9302	-0.544
Mof_O 	O 	0.037	0.2085	0.9956	-0.507
Mof_O 	O 	0.0016	0.9298	0.9551	-0.516
Mof_O 	O 	0.1418	0.0359	0.26353	-0.567
Mof_O 	O 	0.1715	0.963	0.32893	-0.399
Mof_O 	O 	0.9282	0.9984	0.28843	-0.424
Mof_O 	O 	0.8941	0.8582	0.59687	-0.564
Mof_O 	O 	0.7915	0.8285	0.66227	-0.457
Mof_O 	O 	0.0702	0.0718	0.62177	-0.543
Mof_O 	O 	0.0359	0.8941	0.4302	-0.573
Mof_O 	O 	0.963	0.7915	0.4956	-0.416
Mof_O 	O 	0.9984	0.0702	0.4551	-0.491
Mof_O 	O 	0.8582	0.9641	0.76353	-0.533
Mof_O 	O 	0.8285	0.037	0.82893	-0.514
Mof_O 	O 	0.0718	0.0016	0.78843	-0.568
Mof_O 	O 	0.1059	0.1418	0.09687	-0.574
Mof_O 	O 	0.2085	0.1715	0.16227	-0.465
Mof_O 	O 	0.9298	0.9282	0.12177	-0.456
Mof_O 	O 	0.8582	0.8941	0.40313	-0.564
Mof_O 	O 	0.8285	0.7915	0.33773	-0.457
Mof_O 	O 	0.0718	0.0702	0.37823	-0.544
Mof_O 	O 	0.1059	0.9641	0.0698	-0.547
Mof_O 	O 	0.2085	0.037	0.0044	-0.547
Mof_O 	O 	0.9298	0.0016	0.0449	-0.548
Mof_O 	O 	0.0359	0.1418	0.73647	-0.568
Mof_O 	O 	0.963	0.1715	0.67107	-0.401
Mof_O 	O 	0.9984	0.9282	0.71157	-0.426
Mof_O 	O 	0.1418	0.1059	0.90313	-0.56
Mof_O 	O 	0.1715	0.2085	0.83773	-0.463
Mof_O 	O 	0.9282	0.9298	0.87823	-0.452
Mof_O 	O 	0.8941	0.0359	0.5698	-0.573
Mof_O 	O 	0.7915	0.963	0.5044	-0.416
Mof_O 	O 	0.0702	0.9984	0.5449	-0.49
Mof_O 	O 	0.9641	0.8582	0.23647	-0.532
Mof_O 	O 	0.037	0.8285	0.17107	-0.518
Mof_O 	O 	0.0016	0.0718	0.21157	-0.568
_end
