# CIF file generated by openbabel 3.1.0, see https://openbabel.org
data_I
_chemical_name_common 'MINCER_clean'
_cell_length_a 8.5886
_cell_length_b 9.4086
_cell_length_c 9.4282
_cell_angle_alpha 119.931
_cell_angle_beta 116.514
_cell_angle_gamma 90
_space_group_name_H-M_alt 'P 1'
_space_group_name_Hall 'P 1'
loop_
    _symmetry_equiv_pos_as_xyz
    x,y,z
loop_
    _atom_site_label
    _atom_site_type_symbol
    _atom_site_fract_x
    _atom_site_fract_y
    _atom_site_fract_z
    _atom_site_occupancy
    Ba1      Ba       0.75000    0.91920    0.00000    1.000
    Ba2      Ba       0.25000    0.08080    0.00000    1.000
    H1       H        0.42500    0.78300    0.02400    1.000
    H2       H        0.34800    0.71070    0.83940    1.000
    H3       H        0.07500    0.75900    0.97600    1.000
    H4       H        0.15200    0.87130    0.16060    1.000
    H5       H        0.57500    0.21700    0.97600    1.000
    H6       H        0.65200    0.28930    0.16060    1.000
    H7       H        0.92500    0.24100    0.02400    1.000
    H8       H        0.84800    0.12870    0.83940    1.000
    C1       C        0.31360    0.42320    0.49960    1.000
    C2       C        0.18640    0.92360    0.50040    1.000
    C3       C        0.68640    0.57680    0.50040    1.000
    C4       C        0.81360    0.07640    0.49960    1.000
    N1       N        0.48030    0.52620    0.56360    1.000
    N2       N        0.24320    0.47510    0.61080    1.000
    N3       N        0.08980    0.35110    0.51160    1.000
    N4       N        0.07040    0.23120    0.34780    1.000
    N5       N        0.21130    0.27320    0.33540    1.000
    N6       N        0.01970    0.96260    0.43640    1.000
    N7       N        0.25680    0.86430    0.38920    1.000
    N8       N        0.41020    0.83950    0.48840    1.000
    N9       N        0.42960    0.88340    0.65220    1.000
    N10      N        0.28870    0.93780    0.66460    1.000
    N11      N        0.51970    0.47380    0.43640    1.000
    N12      N        0.75680    0.52490    0.38920    1.000
    N13      N        0.91020    0.64890    0.48840    1.000
    N14      N        0.92960    0.76880    0.65220    1.000
    N15      N        0.78870    0.72680    0.66460    1.000
    N16      N        0.98030    0.03740    0.56360    1.000
    N17      N        0.74320    0.13570    0.61080    1.000
    N18      N        0.58980    0.16050    0.51160    1.000
    N19      N        0.57040    0.11660    0.34780    1.000
    N20      N        0.71130    0.06220    0.33540    1.000
    O1       O        0.40550    0.80470    0.94360    1.000
    O2       O        0.09450    0.86110    0.05640    1.000
    O3       O        0.59450    0.19530    0.05640    1.000
    O4       O        0.90550    0.13890    0.94360    1.000
