# CIF file generated by openbabel 3.1.0, see https://openbabel.org
data_I
_chemical_name_common 'image0'
_cell_length_a 13.9999
_cell_length_b 14.647
_cell_length_c 42.04
_cell_angle_alpha 90
_cell_angle_beta 97.948
_cell_angle_gamma 90
_space_group_name_H-M_alt 'P 1'
_space_group_name_Hall 'P 1'
loop_
    _symmetry_equiv_pos_as_xyz
    x,y,z
loop_
    _atom_site_label
    _atom_site_type_symbol
    _atom_site_fract_x
    _atom_site_fract_y
    _atom_site_fract_z
    _atom_site_occupancy
    C1       C        0.56530    0.66800    0.23601    1.000
    C2       C        0.48110    0.60770    0.22279    1.000
    C3       C        0.44240    0.54370    0.24177    1.000
    H1       H        0.46650    0.53870    0.26340    1.000
    C4       C        0.36900    0.48800    0.22869    1.000
    C5       C        0.32860    0.49810    0.19644    1.000
    H2       H        0.27920    0.45930    0.18780    1.000
    C6       C        0.36110    0.56450    0.17751    1.000
    C7       C        0.44050    0.61670    0.19067    1.000
    H3       H        0.46700    0.65850    0.17770    1.000
    C8       C        0.32840    0.41750    0.24947    1.000
    C9       C        0.31630    0.58010    0.14385    1.000
    C10      C        0.27310    0.50920    0.12461    1.000
    H4       H        0.27250    0.45020    0.13280    1.000
    C11      C        0.23120    0.52680    0.09341    1.000
    H5       H        0.20460    0.47810    0.08100    1.000
    C12      C        0.22690    0.61230    0.07975    1.000
    C13      C        0.27020    0.68080    0.09871    1.000
    H6       H        0.27030    0.73960    0.09030    1.000
    C14      C        0.31400    0.66590    0.13007    1.000
    H7       H        0.34230    0.71470    0.14200    1.000
    C15      C        0.17930    0.63060    0.04620    1.000
    C16      C        0.14610    0.55830    0.02627    1.000
    H8       H        0.15470    0.49850    0.03360    1.000
    C17      C        0.10010    0.57520    0.99538    1.000
    H9       H        0.07790    0.52680    0.98200    1.000
    C18      C        0.08730    0.66450    0.98441    1.000
    C19      C        0.12040    0.73680    0.00433    1.000
    H10      H        0.11180    0.79660    0.99700    1.000
    C20      C        0.16640    0.71990    0.03523    1.000
    H11      H        0.18860    0.76830    0.04860    1.000
    C21      C        0.03360    0.68250    0.95072    1.000
    C22      C        0.00680    0.61210    0.92864    1.000
    H12      H        0.02370    0.55220    0.93420    1.000
    C23      C        0.95630    0.62970    0.89913    1.000
    H13      H        0.93830    0.58180    0.88510    1.000
    C24      C        0.93180    0.71810    0.89001    1.000
    C25      C        0.96460    0.78940    0.91070    1.000
    H14      H        0.95380    0.84960    0.90420    1.000
    C26      C        0.01230    0.77100    0.94043    1.000
    H15      H        0.03130    0.81920    0.95430    1.000
    C27      C        0.87050    0.73950    0.85877    1.000
    La1      La       0.74569    0.78748    0.20248    1.000
    O1       O        0.59370    0.72670    0.21748    1.000
    O2       O        0.60200    0.65570    0.26415    1.000
    O3       O        0.34060    0.42870    0.27930    1.000
    O4       O        0.28430    0.34950    0.23645    1.000
    O5       O        0.82590    0.67640    0.84268    1.000
    O6       O        0.86690    0.81970    0.84844    1.000
    C28      C        0.06530    0.16800    0.73601    1.000
    C29      C        0.98110    0.10770    0.72279    1.000
    C30      C        0.94240    0.04370    0.74177    1.000
    H16      H        0.96650    0.03870    0.76340    1.000
    C31      C        0.86900    0.98800    0.72869    1.000
    C32      C        0.82860    0.99810    0.69644    1.000
    H17      H        0.77920    0.95930    0.68780    1.000
    C33      C        0.86110    0.06450    0.67751    1.000
    C34      C        0.94050    0.11670    0.69067    1.000
    H18      H        0.96700    0.15850    0.67770    1.000
    C35      C        0.82840    0.91750    0.74947    1.000
    C36      C        0.81630    0.08010    0.64385    1.000
    C37      C        0.77310    0.00920    0.62461    1.000
    H19      H        0.77250    0.95020    0.63280    1.000
    C38      C        0.73120    0.02680    0.59341    1.000
    H20      H        0.70460    0.97810    0.58100    1.000
    C39      C        0.72690    0.11230    0.57975    1.000
    C40      C        0.77020    0.18080    0.59871    1.000
    H21      H        0.77030    0.23960    0.59030    1.000
    C41      C        0.81400    0.16590    0.63007    1.000
    H22      H        0.84230    0.21470    0.64200    1.000
    C42      C        0.67930    0.13060    0.54620    1.000
    C43      C        0.64610    0.05830    0.52627    1.000
    H23      H        0.65470    0.99850    0.53360    1.000
    C44      C        0.60010    0.07520    0.49538    1.000
    H24      H        0.57790    0.02680    0.48200    1.000
    C45      C        0.58730    0.16450    0.48441    1.000
    C46      C        0.62040    0.23680    0.50433    1.000
    H25      H        0.61180    0.29660    0.49700    1.000
    C47      C        0.66640    0.21990    0.53523    1.000
    H26      H        0.68860    0.26830    0.54860    1.000
    C48      C        0.53360    0.18250    0.45072    1.000
    C49      C        0.50680    0.11210    0.42864    1.000
    H27      H        0.52370    0.05220    0.43420    1.000
    C50      C        0.45630    0.12970    0.39913    1.000
    H28      H        0.43830    0.08180    0.38510    1.000
    C51      C        0.43180    0.21810    0.39001    1.000
    C52      C        0.46460    0.28940    0.41070    1.000
    H29      H        0.45380    0.34960    0.40420    1.000
    C53      C        0.51230    0.27100    0.44043    1.000
    H30      H        0.53130    0.31920    0.45430    1.000
    C54      C        0.37050    0.23950    0.35877    1.000
    La2      La       0.24569    0.28748    0.70248    1.000
    O7       O        0.09370    0.22670    0.71748    1.000
    O8       O        0.10200    0.15570    0.76415    1.000
    O9       O        0.84060    0.92870    0.77930    1.000
    O10      O        0.78430    0.84950    0.73645    1.000
    O11      O        0.32590    0.17640    0.34268    1.000
    O12      O        0.36690    0.31970    0.34844    1.000
    C55      C        0.93470    0.66800    0.76399    1.000
    C56      C        0.01890    0.60770    0.77721    1.000
    C57      C        0.05760    0.54370    0.75823    1.000
    H31      H        0.03350    0.53870    0.73660    1.000
    C58      C        0.13100    0.48800    0.77131    1.000
    C59      C        0.17140    0.49810    0.80356    1.000
    H32      H        0.22080    0.45930    0.81220    1.000
    C60      C        0.13890    0.56450    0.82249    1.000
    C61      C        0.05950    0.61670    0.80933    1.000
    H33      H        0.03300    0.65850    0.82230    1.000
    C62      C        0.17160    0.41750    0.75053    1.000
    C63      C        0.18370    0.58010    0.85615    1.000
    C64      C        0.22690    0.50920    0.87539    1.000
    H34      H        0.22750    0.45020    0.86720    1.000
    C65      C        0.26880    0.52680    0.90659    1.000
    H35      H        0.29540    0.47810    0.91900    1.000
    C66      C        0.27310    0.61230    0.92025    1.000
    C67      C        0.22980    0.68080    0.90129    1.000
    H36      H        0.22970    0.73960    0.90970    1.000
    C68      C        0.18600    0.66590    0.86993    1.000
    H37      H        0.15770    0.71470    0.85800    1.000
    C69      C        0.32070    0.63060    0.95380    1.000
    C70      C        0.35390    0.55830    0.97373    1.000
    H38      H        0.34530    0.49850    0.96640    1.000
    C71      C        0.39990    0.57520    0.00462    1.000
    H39      H        0.42210    0.52680    0.01800    1.000
    C72      C        0.41270    0.66450    0.01559    1.000
    C73      C        0.37960    0.73680    0.99567    1.000
    H40      H        0.38820    0.79660    0.00300    1.000
    C74      C        0.33360    0.71990    0.96477    1.000
    H41      H        0.31140    0.76830    0.95140    1.000
    C75      C        0.46640    0.68250    0.04928    1.000
    C76      C        0.49320    0.61210    0.07136    1.000
    H42      H        0.47630    0.55220    0.06580    1.000
    C77      C        0.54370    0.62970    0.10087    1.000
    H43      H        0.56170    0.58180    0.11490    1.000
    C78      C        0.56820    0.71810    0.10999    1.000
    C79      C        0.53540    0.78940    0.08930    1.000
    H44      H        0.54620    0.84960    0.09580    1.000
    C80      C        0.48770    0.77100    0.05957    1.000
    H45      H        0.46870    0.81920    0.04570    1.000
    C81      C        0.62950    0.73950    0.14123    1.000
    La3      La       0.75431    0.78748    0.79752    1.000
    O13      O        0.90630    0.72670    0.78252    1.000
    O14      O        0.89800    0.65570    0.73585    1.000
    O15      O        0.15940    0.42870    0.72070    1.000
    O16      O        0.21570    0.34950    0.76355    1.000
    O17      O        0.67410    0.67640    0.15732    1.000
    O18      O        0.63310    0.81970    0.15156    1.000
    C82      C        0.43470    0.16800    0.26399    1.000
    C83      C        0.51890    0.10770    0.27721    1.000
    C84      C        0.55760    0.04370    0.25823    1.000
    H46      H        0.53350    0.03870    0.23660    1.000
    C85      C        0.63100    0.98800    0.27131    1.000
    C86      C        0.67140    0.99810    0.30356    1.000
    H47      H        0.72080    0.95930    0.31220    1.000
    C87      C        0.63890    0.06450    0.32249    1.000
    C88      C        0.55950    0.11670    0.30933    1.000
    H48      H        0.53300    0.15850    0.32230    1.000
    C89      C        0.67160    0.91750    0.25053    1.000
    C90      C        0.68370    0.08010    0.35615    1.000
    C91      C        0.72690    0.00920    0.37539    1.000
    H49      H        0.72750    0.95020    0.36720    1.000
    C92      C        0.76880    0.02680    0.40659    1.000
    H50      H        0.79540    0.97810    0.41900    1.000
    C93      C        0.77310    0.11230    0.42025    1.000
    C94      C        0.72980    0.18080    0.40129    1.000
    H51      H        0.72970    0.23960    0.40970    1.000
    C95      C        0.68600    0.16590    0.36993    1.000
    H52      H        0.65770    0.21470    0.35800    1.000
    C96      C        0.82070    0.13060    0.45380    1.000
    C97      C        0.85390    0.05830    0.47373    1.000
    H53      H        0.84530    0.99850    0.46640    1.000
    C98      C        0.89990    0.07520    0.50462    1.000
    H54      H        0.92210    0.02680    0.51800    1.000
    C99      C        0.91270    0.16450    0.51559    1.000
    C100     C        0.87960    0.23680    0.49567    1.000
    H55      H        0.88820    0.29660    0.50300    1.000
    C101     C        0.83360    0.21990    0.46477    1.000
    H56      H        0.81140    0.26830    0.45140    1.000
    C102     C        0.96640    0.18250    0.54928    1.000
    C103     C        0.99320    0.11210    0.57136    1.000
    H57      H        0.97630    0.05220    0.56580    1.000
    C104     C        0.04370    0.12970    0.60087    1.000
    H58      H        0.06170    0.08180    0.61490    1.000
    C105     C        0.06820    0.21810    0.60999    1.000
    C106     C        0.03540    0.28940    0.58930    1.000
    H59      H        0.04620    0.34960    0.59580    1.000
    C107     C        0.98770    0.27100    0.55957    1.000
    H60      H        0.96870    0.31920    0.54570    1.000
    C108     C        0.12950    0.23950    0.64123    1.000
    La4      La       0.25431    0.28748    0.29752    1.000
    O19      O        0.40630    0.22670    0.28252    1.000
    O20      O        0.39800    0.15570    0.23585    1.000
    O21      O        0.65940    0.92870    0.22070    1.000
    O22      O        0.71570    0.84950    0.26355    1.000
    O23      O        0.17410    0.17640    0.65732    1.000
    O24      O        0.13310    0.31970    0.65156    1.000
    C109     C        0.43470    0.33200    0.76399    1.000
    C110     C        0.51890    0.39230    0.77721    1.000
    C111     C        0.55760    0.45630    0.75823    1.000
    H61      H        0.53350    0.46130    0.73660    1.000
    C112     C        0.63100    0.51200    0.77131    1.000
    C113     C        0.67140    0.50190    0.80356    1.000
    H62      H        0.72080    0.54070    0.81220    1.000
    C114     C        0.63890    0.43550    0.82249    1.000
    C115     C        0.55950    0.38330    0.80933    1.000
    H63      H        0.53300    0.34150    0.82230    1.000
    C116     C        0.67160    0.58250    0.75053    1.000
    C117     C        0.68370    0.41990    0.85615    1.000
    C118     C        0.72690    0.49080    0.87539    1.000
    H64      H        0.72750    0.54980    0.86720    1.000
    C119     C        0.76880    0.47320    0.90659    1.000
    H65      H        0.79540    0.52190    0.91900    1.000
    C120     C        0.77310    0.38770    0.92025    1.000
    C121     C        0.72980    0.31920    0.90129    1.000
    H66      H        0.72970    0.26040    0.90970    1.000
    C122     C        0.68600    0.33410    0.86993    1.000
    H67      H        0.65770    0.28530    0.85800    1.000
    C123     C        0.82070    0.36940    0.95380    1.000
    C124     C        0.85390    0.44170    0.97373    1.000
    H68      H        0.84530    0.50150    0.96640    1.000
    C125     C        0.89990    0.42480    0.00462    1.000
    H69      H        0.92210    0.47320    0.01800    1.000
    C126     C        0.91270    0.33550    0.01559    1.000
    C127     C        0.87960    0.26320    0.99567    1.000
    H70      H        0.88820    0.20340    0.00300    1.000
    C128     C        0.83360    0.28010    0.96477    1.000
    H71      H        0.81140    0.23170    0.95140    1.000
    C129     C        0.96640    0.31750    0.04928    1.000
    C130     C        0.99320    0.38790    0.07136    1.000
    H72      H        0.97630    0.44780    0.06580    1.000
    C131     C        0.04370    0.37030    0.10087    1.000
    H73      H        0.06170    0.41820    0.11490    1.000
    C132     C        0.06820    0.28190    0.10999    1.000
    C133     C        0.03540    0.21060    0.08930    1.000
    H74      H        0.04620    0.15040    0.09580    1.000
    C134     C        0.98770    0.22900    0.05957    1.000
    H75      H        0.96870    0.18080    0.04570    1.000
    C135     C        0.12950    0.26050    0.14123    1.000
    La5      La       0.25431    0.21252    0.79752    1.000
    O25      O        0.40630    0.27330    0.78252    1.000
    O26      O        0.39800    0.34430    0.73585    1.000
    O27      O        0.65940    0.57130    0.72070    1.000
    O28      O        0.71570    0.65050    0.76355    1.000
    O29      O        0.17410    0.32360    0.15732    1.000
    O30      O        0.13310    0.18030    0.15156    1.000
    C136     C        0.93470    0.83200    0.26399    1.000
    C137     C        0.01890    0.89230    0.27721    1.000
    C138     C        0.05760    0.95630    0.25823    1.000
    H76      H        0.03350    0.96130    0.23660    1.000
    C139     C        0.13100    0.01200    0.27131    1.000
    C140     C        0.17140    0.00190    0.30356    1.000
    H77      H        0.22080    0.04070    0.31220    1.000
    C141     C        0.13890    0.93550    0.32249    1.000
    C142     C        0.05950    0.88330    0.30933    1.000
    H78      H        0.03300    0.84150    0.32230    1.000
    C143     C        0.17160    0.08250    0.25053    1.000
    C144     C        0.18370    0.91990    0.35615    1.000
    C145     C        0.22690    0.99080    0.37539    1.000
    H79      H        0.22750    0.04980    0.36720    1.000
    C146     C        0.26880    0.97320    0.40659    1.000
    H80      H        0.29540    0.02190    0.41900    1.000
    C147     C        0.27310    0.88770    0.42025    1.000
    C148     C        0.22980    0.81920    0.40129    1.000
    H81      H        0.22970    0.76040    0.40970    1.000
    C149     C        0.18600    0.83410    0.36993    1.000
    H82      H        0.15770    0.78530    0.35800    1.000
    C150     C        0.32070    0.86940    0.45380    1.000
    C151     C        0.35390    0.94170    0.47373    1.000
    H83      H        0.34530    0.00150    0.46640    1.000
    C152     C        0.39990    0.92480    0.50462    1.000
    H84      H        0.42210    0.97320    0.51800    1.000
    C153     C        0.41270    0.83550    0.51559    1.000
    C154     C        0.37960    0.76320    0.49567    1.000
    H85      H        0.38820    0.70340    0.50300    1.000
    C155     C        0.33360    0.78010    0.46477    1.000
    H86      H        0.31140    0.73170    0.45140    1.000
    C156     C        0.46640    0.81750    0.54928    1.000
    C157     C        0.49320    0.88790    0.57136    1.000
    H87      H        0.47630    0.94780    0.56580    1.000
    C158     C        0.54370    0.87030    0.60087    1.000
    H88      H        0.56170    0.91820    0.61490    1.000
    C159     C        0.56820    0.78190    0.60999    1.000
    C160     C        0.53540    0.71060    0.58930    1.000
    H89      H        0.54620    0.65040    0.59580    1.000
    C161     C        0.48770    0.72900    0.55957    1.000
    H90      H        0.46870    0.68080    0.54570    1.000
    C162     C        0.62950    0.76050    0.64123    1.000
    La6      La       0.75431    0.71252    0.29752    1.000
    O31      O        0.90630    0.77330    0.28252    1.000
    O32      O        0.89800    0.84430    0.23585    1.000
    O33      O        0.15940    0.07130    0.22070    1.000
    O34      O        0.21570    0.15050    0.26355    1.000
    O35      O        0.67410    0.82360    0.65732    1.000
    O36      O        0.63310    0.68030    0.65156    1.000
    C163     C        0.06530    0.33200    0.23601    1.000
    C164     C        0.98110    0.39230    0.22279    1.000
    C165     C        0.94240    0.45630    0.24177    1.000
    H91      H        0.96650    0.46130    0.26340    1.000
    C166     C        0.86900    0.51200    0.22869    1.000
    C167     C        0.82860    0.50190    0.19644    1.000
    H92      H        0.77920    0.54070    0.18780    1.000
    C168     C        0.86110    0.43550    0.17751    1.000
    C169     C        0.94050    0.38330    0.19067    1.000
    H93      H        0.96700    0.34150    0.17770    1.000
    C170     C        0.82840    0.58250    0.24947    1.000
    C171     C        0.81630    0.41990    0.14385    1.000
    C172     C        0.77310    0.49080    0.12461    1.000
    H94      H        0.77250    0.54980    0.13280    1.000
    C173     C        0.73120    0.47320    0.09341    1.000
    H95      H        0.70460    0.52190    0.08100    1.000
    C174     C        0.72690    0.38770    0.07975    1.000
    C175     C        0.77020    0.31920    0.09871    1.000
    H96      H        0.77030    0.26040    0.09030    1.000
    C176     C        0.81400    0.33410    0.13007    1.000
    H97      H        0.84230    0.28530    0.14200    1.000
    C177     C        0.67930    0.36940    0.04620    1.000
    C178     C        0.64610    0.44170    0.02627    1.000
    H98      H        0.65470    0.50150    0.03360    1.000
    C179     C        0.60010    0.42480    0.99538    1.000
    H99      H        0.57790    0.47320    0.98200    1.000
    C180     C        0.58730    0.33550    0.98441    1.000
    C181     C        0.62040    0.26320    0.00433    1.000
    H100     H        0.61180    0.20340    0.99700    1.000
    C182     C        0.66640    0.28010    0.03523    1.000
    H101     H        0.68860    0.23170    0.04860    1.000
    C183     C        0.53360    0.31750    0.95072    1.000
    C184     C        0.50680    0.38790    0.92864    1.000
    H102     H        0.52370    0.44780    0.93420    1.000
    C185     C        0.45630    0.37030    0.89913    1.000
    H103     H        0.43830    0.41820    0.88510    1.000
    C186     C        0.43180    0.28190    0.89001    1.000
    C187     C        0.46460    0.21060    0.91070    1.000
    H104     H        0.45380    0.15040    0.90420    1.000
    C188     C        0.51230    0.22900    0.94043    1.000
    H105     H        0.53130    0.18080    0.95430    1.000
    C189     C        0.37050    0.26050    0.85877    1.000
    La7      La       0.24569    0.21252    0.20248    1.000
    O37      O        0.09370    0.27330    0.21748    1.000
    O38      O        0.10200    0.34430    0.26415    1.000
    O39      O        0.84060    0.57130    0.27930    1.000
    O40      O        0.78430    0.65050    0.23645    1.000
    O41      O        0.32590    0.32360    0.84268    1.000
    O42      O        0.36690    0.18030    0.84844    1.000
    C190     C        0.56530    0.83200    0.73601    1.000
    C191     C        0.48110    0.89230    0.72279    1.000
    C192     C        0.44240    0.95630    0.74177    1.000
    H106     H        0.46650    0.96130    0.76340    1.000
    C193     C        0.36900    0.01200    0.72869    1.000
    C194     C        0.32860    0.00190    0.69644    1.000
    H107     H        0.27920    0.04070    0.68780    1.000
    C195     C        0.36110    0.93550    0.67751    1.000
    C196     C        0.44050    0.88330    0.69067    1.000
    H108     H        0.46700    0.84150    0.67770    1.000
    C197     C        0.32840    0.08250    0.74947    1.000
    C198     C        0.31630    0.91990    0.64385    1.000
    C199     C        0.27310    0.99080    0.62461    1.000
    H109     H        0.27250    0.04980    0.63280    1.000
    C200     C        0.23120    0.97320    0.59341    1.000
    H110     H        0.20460    0.02190    0.58100    1.000
    C201     C        0.22690    0.88770    0.57975    1.000
    C202     C        0.27020    0.81920    0.59871    1.000
    H111     H        0.27030    0.76040    0.59030    1.000
    C203     C        0.31400    0.83410    0.63007    1.000
    H112     H        0.34230    0.78530    0.64200    1.000
    C204     C        0.17930    0.86940    0.54620    1.000
    C205     C        0.14610    0.94170    0.52627    1.000
    H113     H        0.15470    0.00150    0.53360    1.000
    C206     C        0.10010    0.92480    0.49538    1.000
    H114     H        0.07790    0.97320    0.48200    1.000
    C207     C        0.08730    0.83550    0.48441    1.000
    C208     C        0.12040    0.76320    0.50433    1.000
    H115     H        0.11180    0.70340    0.49700    1.000
    C209     C        0.16640    0.78010    0.53523    1.000
    H116     H        0.18860    0.73170    0.54860    1.000
    C210     C        0.03360    0.81750    0.45072    1.000
    C211     C        0.00680    0.88790    0.42864    1.000
    H117     H        0.02370    0.94780    0.43420    1.000
    C212     C        0.95630    0.87030    0.39913    1.000
    H118     H        0.93830    0.91820    0.38510    1.000
    C213     C        0.93180    0.78190    0.39001    1.000
    C214     C        0.96460    0.71060    0.41070    1.000
    H119     H        0.95380    0.65040    0.40420    1.000
    C215     C        0.01230    0.72900    0.44043    1.000
    H120     H        0.03130    0.68080    0.45430    1.000
    C216     C        0.87050    0.76050    0.35877    1.000
    La8      La       0.74569    0.71252    0.70248    1.000
    O43      O        0.59370    0.77330    0.71748    1.000
    O44      O        0.60200    0.84430    0.76415    1.000
    O45      O        0.34060    0.07130    0.77930    1.000
    O46      O        0.28430    0.15050    0.73645    1.000
    O47      O        0.82590    0.82360    0.34268    1.000
    O48      O        0.86690    0.68030    0.34844    1.000
