# CIF file generated by openbabel 3.1.0, see https://openbabel.org
data_I
_chemical_name_common 'PEWFII_clean'
_cell_length_a 7.107
_cell_length_b 7.2234
_cell_length_c 9.205
_cell_angle_alpha 95.377
_cell_angle_beta 91.256
_cell_angle_gamma 114.893
_space_group_name_H-M_alt 'P 1'
_space_group_name_Hall 'P 1'
loop_
    _symmetry_equiv_pos_as_xyz
    x,y,z
loop_
    _atom_site_label
    _atom_site_type_symbol
    _atom_site_fract_x
    _atom_site_fract_y
    _atom_site_fract_z
    _atom_site_occupancy
    U1       U        0.50000    0.50000    0.50000    1.000
    Cu1      Cu       0.00000    0.00000    0.50000    1.000
    H1       H        0.28860    0.43140    0.97320    1.000
    H2       H        0.71140    0.56860    0.02680    1.000
    C1       C        0.04140    0.43280    0.86239    1.000
    C2       C        0.09380    0.35510    0.71816    1.000
    C3       C        0.86780    0.47530    0.87764    1.000
    C4       C        0.17250    0.45850    0.98397    1.000
    C5       C        0.72990    0.46090    0.74862    1.000
    C6       C        0.95860    0.56720    0.13761    1.000
    C7       C        0.90620    0.64490    0.28184    1.000
    C8       C        0.13220    0.52470    0.12236    1.000
    C9       C        0.82750    0.54150    0.01603    1.000
    C10      C        0.27010    0.53910    0.25138    1.000
    O1       O        0.22210    0.48518    0.64632    1.000
    O2       O        0.76030    0.40070    0.62212    1.000
    O3       O        0.01020    0.16313    0.68625    1.000
    O4       O        0.58430    0.51730    0.76575    1.000
    O5       O        0.77790    0.51482    0.35368    1.000
    O6       O        0.23970    0.59930    0.37788    1.000
    O7       O        0.98980    0.83687    0.31375    1.000
    O8       O        0.41570    0.48270    0.23425    1.000
