data_functionalizedCrystal
_audit_creation_method	'EQeq! by Chris Wilmer'
_symmetry_space_group_name_H-M	'P1'
_symmetry_Int_Tables_number	1
_symmetry_cell_setting	triclinic
loop_
_symmetry_equiv_pos_as_xyz
  x,y,z
_cell_length_a	14.6206
_cell_length_b	14.6206
_cell_length_c	14.6206
_cell_angle_alpha	109.38
_cell_angle_beta	109.38
_cell_angle_gamma	109.38
loop_
_atom_site_label
_atom_site_type_symbol
_atom_site_fract_x
_atom_site_fract_y
_atom_site_fract_z
_atom_site_charge
Mof_Zn	Zn	0.19922	0.44964	0.69352	1.185
Mof_Zn	Zn	0.69352	0.19922	0.44964	1.185
Mof_Zn	Zn	0.44964	0.69352	0.19922	1.185
Mof_Zn	Zn	0.80078	0.55036	0.30648	1.185
Mof_Zn	Zn	0.30648	0.80078	0.55036	1.185
Mof_Zn	Zn	0.55036	0.30648	0.80078	1.185
Mof_H 	H 	0.6928	0.6943	0.06	0.115
Mof_H 	H 	0.06	0.6928	0.6943	0.115
Mof_H 	H 	0.6943	0.06	0.6928	0.115
Mof_H 	H 	0.3072	0.3057	0.94	0.115
Mof_H 	H 	0.94	0.3072	0.3057	0.115
Mof_H 	H 	0.3057	0.94	0.3072	0.115
Mof_C 	C 	0.44952	0.58276	0.94952	-0.013
Mof_C 	C 	0.47143	0.51628	0.87589	-0.011
Mof_C 	C 	0.34609	0.57077	0.94794	0.116
Mof_C 	C 	0.39848	0.41187	0.77005	0.115
Mof_C 	C 	0.94952	0.44952	0.58276	-0.013
Mof_C 	C 	0.87589	0.47143	0.51628	-0.011
Mof_C 	C 	0.94794	0.34609	0.57077	0.116
Mof_C 	C 	0.77005	0.39848	0.41187	0.115
Mof_C 	C 	0.58276	0.94952	0.44952	-0.013
Mof_C 	C 	0.51628	0.87589	0.47143	-0.011
Mof_C 	C 	0.57077	0.94794	0.34609	0.116
Mof_C 	C 	0.41187	0.77005	0.39848	0.115
Mof_C 	C 	0.55048	0.41724	0.05048	-0.013
Mof_C 	C 	0.52857	0.48372	0.12411	-0.011
Mof_C 	C 	0.65391	0.42923	0.05206	0.116
Mof_C 	C 	0.60152	0.58813	0.22995	0.115
Mof_C 	C 	0.05048	0.55048	0.41724	-0.013
Mof_C 	C 	0.12411	0.52857	0.48372	-0.011
Mof_C 	C 	0.05206	0.65391	0.42923	0.116
Mof_C 	C 	0.22995	0.60152	0.58813	0.115
Mof_C 	C 	0.41724	0.05048	0.55048	-0.013
Mof_C 	C 	0.48372	0.12411	0.52857	-0.011
Mof_C 	C 	0.42923	0.05206	0.65391	0.116
Mof_C 	C 	0.58813	0.22995	0.60152	0.115
Mof_N 	N 	0.54651	0.66707	0.03822	-0.098
Mof_N 	N 	0.6223	0.6499	0.0153	-0.119
Mof_N 	N 	0.58229	0.56107	0.92034	-0.089
Mof_N 	N 	0.4272	0.33521	0.73459	-0.244
Mof_N 	N 	0.3405	0.2538	0.6318	-0.061
Mof_N 	N 	0.2627	0.2797	0.6069	-0.055
Mof_N 	N 	0.29633	0.37894	0.69303	-0.241
Mof_N 	N 	0.33755	0.60937	0.03878	-0.247
Mof_N 	N 	0.22973	0.58146	0.00321	-0.056
Mof_N 	N 	0.17501	0.52836	0.89533	-0.056
Mof_N 	N 	0.24704	0.51978	0.85738	-0.241
Mof_N 	N 	0.03822	0.54651	0.66707	-0.098
Mof_N 	N 	0.0153	0.6223	0.6499	-0.119
Mof_N 	N 	0.92034	0.58229	0.56107	-0.089
Mof_N 	N 	0.73459	0.4272	0.33521	-0.244
Mof_N 	N 	0.6318	0.3405	0.2538	-0.061
Mof_N 	N 	0.6069	0.2627	0.2797	-0.055
Mof_N 	N 	0.69303	0.29633	0.37894	-0.241
Mof_N 	N 	0.03878	0.33755	0.60937	-0.247
Mof_N 	N 	0.00321	0.22973	0.58146	-0.056
Mof_N 	N 	0.89533	0.17501	0.52836	-0.056
Mof_N 	N 	0.85738	0.24704	0.51978	-0.241
Mof_N 	N 	0.66707	0.03822	0.54651	-0.098
Mof_N 	N 	0.6499	0.0153	0.6223	-0.119
Mof_N 	N 	0.56107	0.92034	0.58229	-0.089
Mof_N 	N 	0.33521	0.73459	0.4272	-0.244
Mof_N 	N 	0.2538	0.6318	0.3405	-0.061
Mof_N 	N 	0.2797	0.6069	0.2627	-0.055
Mof_N 	N 	0.37894	0.69303	0.29633	-0.241
Mof_N 	N 	0.60937	0.03878	0.33755	-0.247
Mof_N 	N 	0.58146	0.00321	0.22973	-0.056
Mof_N 	N 	0.52836	0.89533	0.17501	-0.056
Mof_N 	N 	0.51978	0.85738	0.24704	-0.241
Mof_N 	N 	0.45349	0.33293	0.96178	-0.098
Mof_N 	N 	0.3777	0.3501	0.9847	-0.119
Mof_N 	N 	0.41771	0.43893	0.07966	-0.089
Mof_N 	N 	0.5728	0.66479	0.26541	-0.244
Mof_N 	N 	0.6595	0.7462	0.3682	-0.061
Mof_N 	N 	0.7373	0.7203	0.3931	-0.055
Mof_N 	N 	0.70367	0.62106	0.30697	-0.241
Mof_N 	N 	0.66245	0.39063	0.96122	-0.247
Mof_N 	N 	0.77027	0.41854	0.99679	-0.056
Mof_N 	N 	0.82499	0.47164	0.10467	-0.056
Mof_N 	N 	0.75296	0.48022	0.14262	-0.241
Mof_N 	N 	0.96178	0.45349	0.33293	-0.098
Mof_N 	N 	0.9847	0.3777	0.3501	-0.119
Mof_N 	N 	0.07966	0.41771	0.43893	-0.089
Mof_N 	N 	0.26541	0.5728	0.66479	-0.244
Mof_N 	N 	0.3682	0.6595	0.7462	-0.061
Mof_N 	N 	0.3931	0.7373	0.7203	-0.055
Mof_N 	N 	0.30697	0.70367	0.62106	-0.241
Mof_N 	N 	0.96122	0.66245	0.39063	-0.247
Mof_N 	N 	0.99679	0.77027	0.41854	-0.056
Mof_N 	N 	0.10467	0.82499	0.47164	-0.056
Mof_N 	N 	0.14262	0.75296	0.48022	-0.241
Mof_N 	N 	0.33293	0.96178	0.45349	-0.098
Mof_N 	N 	0.3501	0.9847	0.3777	-0.119
Mof_N 	N 	0.43893	0.07966	0.41771	-0.089
Mof_N 	N 	0.66479	0.26541	0.5728	-0.244
Mof_N 	N 	0.7462	0.3682	0.6595	-0.061
Mof_N 	N 	0.7203	0.3931	0.7373	-0.055
Mof_N 	N 	0.62106	0.30697	0.70367	-0.241
Mof_N 	N 	0.39063	0.96122	0.66245	-0.247
Mof_N 	N 	0.41854	0.99679	0.77027	-0.056
Mof_N 	N 	0.47164	0.10467	0.82499	-0.056
Mof_N 	N 	0.48022	0.14262	0.75296	-0.241
_end
