data_functionalizedCrystal
_audit_creation_method	'EQeq! by Chris Wilmer'
_symmetry_space_group_name_H-M	'P1'
_symmetry_Int_Tables_number	1
_symmetry_cell_setting	triclinic
loop_
_symmetry_equiv_pos_as_xyz
  x,y,z
_cell_length_a	14.9202
_cell_length_b	19.1977
_cell_length_c	31.2333
_cell_angle_alpha	102.452
_cell_angle_beta	90
_cell_angle_gamma	112.867
loop_
_atom_site_label
_atom_site_type_symbol
_atom_site_fract_x
_atom_site_fract_y
_atom_site_fract_z
_atom_site_charge
Mof_Zn	Zn	0.80065	0.83788	0.90642	1.166
Mof_Zn	Zn	0.46981	0.64856	0.71986	1.164
Mof_Zn	Zn	0.52589	0.2484	0.55803	1.165
Mof_Zn	Zn	0.03723	0.83788	0.40642	1.166
Mof_Zn	Zn	0.17875	0.64856	0.21986	1.164
Mof_Zn	Zn	0.72251	0.2484	0.05803	1.165
Mof_H 	H 	0.8492	0.781	0.9803	-0.009
Mof_H 	H 	0.9805	0.7968	0.027	0.081
Mof_H 	H 	0.1443	0.9824	0.9797	0.071
Mof_H 	H 	0.0075	0.9628	0.9359	-0.008
Mof_H 	H 	0.9746	0.8162	0.869	-0.001
Mof_H 	H 	0.0154	0.7362	0.8134	0.09
Mof_H 	H 	0.728	0.6054	0.7799	0.079
Mof_H 	H 	0.6949	0.687	0.8374	-0.008
Mof_H 	H 	0.8664	0.3972	0.6287	0.087
Mof_H 	H 	0.7395	0.3038	0.5794	0.001
Mof_H 	H 	0.5449	0.362	0.6453	-0
Mof_H 	H 	0.6658	0.4586	0.6965	0.09
Mof_H 	H 	0.1731	0.6942	0.7646	0.082
Mof_H 	H 	0.3369	0.716	0.7627	-0.015
Mof_H 	H 	0.2752	0.523	0.6729	-0.011
Mof_H 	H 	0.1098	0.4966	0.6707	0.081
Mof_H 	H 	0.0868	0.6444	0.1323	-0.01
Mof_H 	H 	0.0992	0.7246	0.0849	0.082
Mof_H 	H 	0.3419	0.8858	0.1604	0.083
Mof_H 	H 	0.3165	0.804	0.208	-0.016
Mof_H 	H 	0.3788	0.0618	0.0043	0.079
Mof_H 	H 	0.5036	0.0042	0.0974	0.081
Mof_H 	H 	0.5259	0.163	0.0042	-0.007
Mof_H 	H 	0.648	0.1068	0.0942	-0.014
Mof_H 	H 	0.9318	0.781	0.4803	-0.01
Mof_H 	H 	0.8163	0.7968	0.527	0.081
Mof_H 	H 	0.8381	0.9824	0.4797	0.071
Mof_H 	H 	0.9553	0.9628	0.4359	-0.008
Mof_H 	H 	0.8416	0.8162	0.369	-0.003
Mof_H 	H 	0.7208	0.7362	0.3134	0.09
Mof_H 	H 	0.8774	0.6054	0.2799	0.08
Mof_H 	H 	0.9921	0.687	0.3374	-0.008
Mof_H 	H 	0.5308	0.3972	0.1287	0.087
Mof_H 	H 	0.5643	0.3038	0.0794	0.001
Mof_H 	H 	0.8171	0.362	0.1453	-0
Mof_H 	H 	0.7928	0.4586	0.1965	0.09
Mof_H 	H 	0.5211	0.6942	0.2646	0.082
Mof_H 	H 	0.3791	0.716	0.2627	-0.015
Mof_H 	H 	0.2478	0.523	0.1729	-0.011
Mof_H 	H 	0.3868	0.4966	0.1707	0.081
Mof_H 	H 	0.5576	0.6444	0.6323	-0.01
Mof_H 	H 	0.6254	0.7246	0.5849	0.082
Mof_H 	H 	0.5439	0.8858	0.6604	0.083
Mof_H 	H 	0.4875	0.804	0.708	-0.016
Mof_H 	H 	0.683	0.0618	0.5043	0.078
Mof_H 	H 	0.5006	0.0042	0.5974	0.081
Mof_H 	H 	0.6371	0.163	0.5042	-0.007
Mof_H 	H 	0.4588	0.1068	0.5942	-0.014
Mof_C 	C 	0.9106	0.8222	0.98	0.067
Mof_C 	C 	0.9885	0.8308	0.0079	-0.112
Mof_C 	C 	0.0781	0.89	0.007	0.05
Mof_C 	C 	0.08431	0.94002	0.9801	-0.116
Mof_C 	C 	0.0027	0.9278	0.954	0.067
Mof_C 	C 	0.924	0.7722	0.8508	0.07
Mof_C 	C 	0.9487	0.725	0.8177	-0.113
Mof_C 	C 	0.87629	0.66158	0.7906	0.057
Mof_C 	C 	0.78	0.648	0.7981	-0.125
Mof_C 	C 	0.7611	0.6972	0.8323	0.073
Mof_C 	C 	0.90274	0.60968	0.7549	0.103
Mof_C 	C 	0.01748	0.57776	0.7199	0.102
Mof_C 	C 	0.85829	0.50438	0.6985	0.086
Mof_C 	C 	0.7802	0.44	0.6676	0.046
Mof_C 	C 	0.8011	0.3918	0.6326	-0.113
Mof_C 	C 	0.725	0.336	0.6036	0.069
Mof_C 	C 	0.61122	0.37004	0.642	0.068
Mof_C 	C 	0.68267	0.42774	0.6725	-0.119
Mof_C 	C 	0.12299	0.59278	0.7181	0.059
Mof_C 	C 	0.1922	0.658	0.7452	-0.12
Mof_C 	C 	0.2897	0.6704	0.744	0.067
Mof_C 	C 	0.2539	0.5584	0.6916	0.076
Mof_C 	C 	0.1552	0.542	0.6903	-0.124
Mof_C 	C 	0.1382	0.6946	0.1383	0.07
Mof_C 	C 	0.146	0.7418	0.1097	-0.113
Mof_C 	C 	0.22223	0.81386	0.1172	0.062
Mof_C 	C 	0.2879	0.8368	0.1543	-0.116
Mof_C 	C 	0.273	0.7872	0.1821	0.073
Mof_C 	C 	0.23276	0.86432	0.0863	0.103
Mof_C 	C 	0.16601	0.89862	0.03395	0.092
Mof_C 	C 	0.3264	0.961	0.0555	0.091
Mof_C 	C 	0.4214	0.0246	0.0533	0.055
Mof_C 	C 	0.4323	0.0712	0.0244	-0.126
Mof_C 	C 	0.5054	0.0376	0.0787	-0.12
Mof_C 	C 	0.5205	0.1316	0.0245	0.08
Mof_C 	C 	0.5912	0.099	0.0767	0.071
Mof_C 	C 	0.9116	0.8222	0.48	0.068
Mof_C 	C 	0.8423	0.8308	0.5079	-0.114
Mof_C 	C 	0.8119	0.89	0.507	0.052
Mof_C 	C 	0.85571	0.94002	0.4801	-0.117
Mof_C 	C 	0.9251	0.9278	0.454	0.07
Mof_C 	C 	0.8482	0.7722	0.3508	0.072
Mof_C 	C 	0.7763	0.725	0.3177	-0.116
Mof_C 	C 	0.78529	0.66158	0.2906	0.058
Mof_C 	C 	0.868	0.648	0.2981	-0.126
Mof_C 	C 	0.9361	0.6972	0.3323	0.074
Mof_C 	C 	0.70694	0.60968	0.2549	0.102
Mof_C 	C 	0.56028	0.57776	0.2199	0.103
Mof_C 	C 	0.64609	0.50438	0.1985	0.086
Mof_C 	C 	0.6598	0.44	0.1676	0.046
Mof_C 	C 	0.5907	0.3918	0.1326	-0.113
Mof_C 	C 	0.611	0.336	0.1036	0.069
Mof_C 	C 	0.75882	0.37004	0.142	0.068
Mof_C 	C 	0.74507	0.42774	0.1725	-0.119
Mof_C 	C 	0.46979	0.59278	0.2181	0.059
Mof_C 	C 	0.4658	0.658	0.2452	-0.12
Mof_C 	C 	0.3807	0.6704	0.244	0.067
Mof_C 	C 	0.3045	0.5584	0.1916	0.076
Mof_C 	C 	0.3868	0.542	0.1903	-0.124
Mof_C 	C 	0.5564	0.6946	0.6383	0.07
Mof_C 	C 	0.5958	0.7418	0.6097	-0.113
Mof_C 	C 	0.59163	0.81386	0.6172	0.062
Mof_C 	C 	0.5489	0.8368	0.6543	-0.116
Mof_C 	C 	0.5142	0.7872	0.6821	0.073
Mof_C 	C 	0.63156	0.86432	0.5863	0.103
Mof_C 	C 	0.73261	0.89862	0.53395	0.092
Mof_C 	C 	0.6346	0.961	0.5555	0.091
Mof_C 	C 	0.6032	0.0246	0.5533	0.054
Mof_C 	C 	0.6389	0.0712	0.5244	-0.125
Mof_C 	C 	0.5322	0.0376	0.5787	-0.119
Mof_C 	C 	0.6111	0.1316	0.5245	0.079
Mof_C 	C 	0.5078	0.099	0.5767	0.071
Mof_I 	I 	0.82468	0.95072	0.87231	-0.355
Mof_I 	I 	0.65054	0.76068	0.93932	-0.383
Mof_I 	I 	0.54664	0.73824	0.79476	-0.394
Mof_I 	I 	0.49778	0.52482	0.69199	-0.378
Mof_I 	I 	0.36296	0.22514	0.59008	-0.38
Mof_I 	I 	0.57479	0.29866	0.48898	-0.365
Mof_I 	I 	0.12604	0.95072	0.37231	-0.357
Mof_I 	I 	0.11014	0.76068	0.43932	-0.384
Mof_I 	I 	0.1916	0.73824	0.29476	-0.395
Mof_I 	I 	0.02704	0.52482	0.19199	-0.378
Mof_I 	I 	0.86218	0.22514	0.09008	-0.381
Mof_I 	I 	0.72387	0.29866	0.98898	-0.365
Mof_N 	N 	0.91689	0.86838	0.95304	-0.269
Mof_N 	N 	0.83074	0.75808	0.8585	-0.267
Mof_N 	N 	0.99748	0.62876	0.75045	-0.135
Mof_N 	N 	0.95196	0.51532	0.69232	-0.139
Mof_N 	N 	0.83002	0.54844	0.73025	-0.142
Mof_N 	N 	0.32064	0.62168	0.71767	-0.274
Mof_N 	N 	0.63161	0.32502	0.60785	-0.27
Mof_N 	N 	0.20028	0.71696	0.1742	-0.271
Mof_N 	N 	0.15224	0.85168	0.06142	-0.136
Mof_N 	N 	0.25169	0.95238	0.02843	-0.148
Mof_N 	N 	0.32117	0.91974	0.08564	-0.134
Mof_N 	N 	0.5981	0.148	0.05141	-0.276
Mof_N 	N 	0.95149	0.86838	0.45304	-0.27
Mof_N 	N 	0.92734	0.75808	0.3585	-0.268
Mof_N 	N 	0.63128	0.62876	0.25045	-0.136
Mof_N 	N 	0.56336	0.51532	0.19232	-0.139
Mof_N 	N 	0.71842	0.54844	0.23025	-0.142
Mof_N 	N 	0.30104	0.62168	0.21767	-0.274
Mof_N 	N 	0.69341	0.32502	0.10785	-0.27
Mof_N 	N 	0.51668	0.71696	0.6742	-0.271
Mof_N 	N 	0.69944	0.85168	0.56142	-0.136
Mof_N 	N 	0.70069	0.95238	0.52843	-0.148
Mof_N 	N 	0.59857	0.91974	0.58564	-0.134
Mof_N 	N 	0.5499	0.148	0.55141	-0.276
Mof_Zn	Zn	0.96277	0.16212	0.59358	1.165
Mof_Zn	Zn	0.82125	0.35144	0.78014	1.163
Mof_Zn	Zn	0.27749	0.7516	0.94197	1.164
Mof_Zn	Zn	0.19935	0.16212	0.09358	1.165
Mof_Zn	Zn	0.53019	0.35144	0.28014	1.163
Mof_Zn	Zn	0.47411	0.7516	0.44197	1.164
Mof_H 	H 	0.0682	0.219	0.5197	-0.01
Mof_H 	H 	0.1837	0.2032	0.473	0.081
Mof_H 	H 	0.1619	0.0176	0.5203	0.071
Mof_H 	H 	0.0447	0.0372	0.5641	-0.008
Mof_H 	H 	0.1584	0.1838	0.631	-0.003
Mof_H 	H 	0.2792	0.2638	0.6866	0.09
Mof_H 	H 	0.1226	0.3946	0.7201	0.08
Mof_H 	H 	0.0079	0.313	0.6626	-0.008
Mof_H 	H 	0.4692	0.6028	0.8713	0.087
Mof_H 	H 	0.4357	0.6962	0.9206	0.001
Mof_H 	H 	0.1829	0.638	0.8547	-0
Mof_H 	H 	0.2072	0.5414	0.8035	0.09
Mof_H 	H 	0.4789	0.3058	0.7354	0.082
Mof_H 	H 	0.6209	0.284	0.7373	-0.015
Mof_H 	H 	0.7522	0.477	0.8271	-0.011
Mof_H 	H 	0.6132	0.5034	0.8293	0.081
Mof_H 	H 	0.4424	0.3556	0.3677	-0.01
Mof_H 	H 	0.3746	0.2754	0.4151	0.082
Mof_H 	H 	0.4561	0.1142	0.3396	0.083
Mof_H 	H 	0.5125	0.196	0.292	-0.016
Mof_H 	H 	0.317	0.9382	0.4957	0.078
Mof_H 	H 	0.4994	0.9958	0.4026	0.081
Mof_H 	H 	0.3629	0.837	0.4958	-0.007
Mof_H 	H 	0.5412	0.8932	0.4058	-0.014
Mof_H 	H 	0.1508	0.219	0.0197	-0.01
Mof_H 	H 	0.0195	0.2032	0.973	0.08
Mof_H 	H 	0.8557	0.0176	0.0203	0.07
Mof_H 	H 	0.9925	0.0372	0.0641	-0.009
Mof_H 	H 	0.0254	0.1838	0.131	-0.002
Mof_H 	H 	0.9846	0.2638	0.1866	0.089
Mof_H 	H 	0.272	0.3946	0.2201	0.079
Mof_H 	H 	0.3051	0.313	0.1626	-0.008
Mof_H 	H 	0.1336	0.6028	0.3713	0.087
Mof_H 	H 	0.2605	0.6962	0.4206	0.001
Mof_H 	H 	0.4551	0.638	0.3547	-0
Mof_H 	H 	0.3342	0.5414	0.3035	0.09
Mof_H 	H 	0.8269	0.3058	0.2354	0.082
Mof_H 	H 	0.6631	0.284	0.2373	-0.015
Mof_H 	H 	0.7248	0.477	0.3271	-0.011
Mof_H 	H 	0.8902	0.5034	0.3293	0.081
Mof_H 	H 	0.9132	0.3556	0.8677	-0.01
Mof_H 	H 	0.9008	0.2754	0.9151	0.082
Mof_H 	H 	0.6581	0.1142	0.8396	0.083
Mof_H 	H 	0.6835	0.196	0.792	-0.016
Mof_H 	H 	0.6212	0.9382	0.9957	0.079
Mof_H 	H 	0.4964	0.9958	0.9026	0.081
Mof_H 	H 	0.4741	0.837	0.9958	-0.007
Mof_H 	H 	0.352	0.8932	0.9058	-0.014
Mof_C 	C 	0.0884	0.1778	0.52	0.068
Mof_C 	C 	0.1577	0.1692	0.4921	-0.114
Mof_C 	C 	0.1881	0.11	0.493	0.052
Mof_C 	C 	0.14429	0.05998	0.5199	-0.117
Mof_C 	C 	0.0749	0.0722	0.546	0.07
Mof_C 	C 	0.1518	0.2278	0.6492	0.072
Mof_C 	C 	0.2237	0.275	0.6823	-0.116
Mof_C 	C 	0.21471	0.33842	0.7094	0.058
Mof_C 	C 	0.132	0.352	0.7019	-0.126
Mof_C 	C 	0.0639	0.3028	0.6677	0.074
Mof_C 	C 	0.29306	0.39032	0.7451	0.102
Mof_C 	C 	0.43972	0.42224	0.7801	0.103
Mof_C 	C 	0.35391	0.49562	0.8015	0.086
Mof_C 	C 	0.3402	0.56	0.8324	0.046
Mof_C 	C 	0.4093	0.6082	0.8674	-0.113
Mof_C 	C 	0.389	0.664	0.8964	0.069
Mof_C 	C 	0.24118	0.62996	0.858	0.068
Mof_C 	C 	0.25493	0.57226	0.8275	-0.119
Mof_C 	C 	0.53021	0.40722	0.7819	0.059
Mof_C 	C 	0.5342	0.342	0.7548	-0.12
Mof_C 	C 	0.6193	0.3296	0.756	0.067
Mof_C 	C 	0.6955	0.4416	0.8084	0.076
Mof_C 	C 	0.6132	0.458	0.8097	-0.124
Mof_C 	C 	0.4436	0.3054	0.3617	0.07
Mof_C 	C 	0.4042	0.2582	0.3903	-0.113
Mof_C 	C 	0.40837	0.18614	0.3828	0.062
Mof_C 	C 	0.4511	0.1632	0.3457	-0.116
Mof_C 	C 	0.4858	0.2128	0.3179	0.073
Mof_C 	C 	0.36844	0.13568	0.4137	0.103
Mof_C 	C 	0.26739	0.10138	0.46605	0.092
Mof_C 	C 	0.3654	0.039	0.4445	0.091
Mof_C 	C 	0.3968	0.9754	0.4467	0.054
Mof_C 	C 	0.3611	0.9288	0.4756	-0.125
Mof_C 	C 	0.4678	0.9624	0.4213	-0.119
Mof_C 	C 	0.3889	0.8684	0.4755	0.079
Mof_C 	C 	0.4922	0.901	0.4233	0.071
Mof_C 	C 	0.0894	0.1778	0.02	0.067
Mof_C 	C 	0.0115	0.1692	0.9921	-0.112
Mof_C 	C 	0.9219	0.11	0.993	0.05
Mof_C 	C 	0.91569	0.05998	0.0199	-0.116
Mof_C 	C 	0.9973	0.0722	0.046	0.067
Mof_C 	C 	0.076	0.2278	0.1492	0.07
Mof_C 	C 	0.0513	0.275	0.1823	-0.113
Mof_C 	C 	0.12371	0.33842	0.2094	0.057
Mof_C 	C 	0.22	0.352	0.2019	-0.125
Mof_C 	C 	0.2389	0.3028	0.1677	0.073
Mof_C 	C 	0.09726	0.39032	0.2451	0.103
Mof_C 	C 	0.98252	0.42224	0.2801	0.102
Mof_C 	C 	0.14171	0.49562	0.3015	0.086
Mof_C 	C 	0.2198	0.56	0.3324	0.046
Mof_C 	C 	0.1989	0.6082	0.3674	-0.113
Mof_C 	C 	0.275	0.664	0.3964	0.069
Mof_C 	C 	0.38878	0.62996	0.358	0.068
Mof_C 	C 	0.31733	0.57226	0.3275	-0.119
Mof_C 	C 	0.87701	0.40722	0.2819	0.059
Mof_C 	C 	0.8078	0.342	0.2548	-0.12
Mof_C 	C 	0.7103	0.3296	0.256	0.067
Mof_C 	C 	0.7461	0.4416	0.3084	0.076
Mof_C 	C 	0.8448	0.458	0.3097	-0.124
Mof_C 	C 	0.8618	0.3054	0.8617	0.07
Mof_C 	C 	0.854	0.2582	0.8903	-0.113
Mof_C 	C 	0.77777	0.18614	0.8828	0.062
Mof_C 	C 	0.7121	0.1632	0.8457	-0.116
Mof_C 	C 	0.727	0.2128	0.8179	0.073
Mof_C 	C 	0.76724	0.13568	0.9137	0.103
Mof_C 	C 	0.83399	0.10138	0.96605	0.092
Mof_C 	C 	0.6736	0.039	0.9445	0.091
Mof_C 	C 	0.5786	0.9754	0.9467	0.055
Mof_C 	C 	0.5677	0.9288	0.9756	-0.126
Mof_C 	C 	0.4946	0.9624	0.9213	-0.12
Mof_C 	C 	0.4795	0.8684	0.9755	0.08
Mof_C 	C 	0.4088	0.901	0.9233	0.071
Mof_I 	I 	0.87396	0.04928	0.62769	-0.357
Mof_I 	I 	0.88986	0.23932	0.56068	-0.384
Mof_I 	I 	0.8084	0.26176	0.70524	-0.395
Mof_I 	I 	0.97296	0.47518	0.80801	-0.378
Mof_I 	I 	0.13782	0.77486	0.90992	-0.381
Mof_I 	I 	0.27613	0.70134	0.01102	-0.365
Mof_I 	I 	0.17532	0.04928	0.12769	-0.355
Mof_I 	I 	0.34946	0.23932	0.06068	-0.383
Mof_I 	I 	0.45336	0.26176	0.20524	-0.394
Mof_I 	I 	0.50222	0.47518	0.30801	-0.378
Mof_I 	I 	0.63704	0.77486	0.40992	-0.38
Mof_I 	I 	0.42521	0.70134	0.51102	-0.365
Mof_N 	N 	0.04851	0.13162	0.54696	-0.27
Mof_N 	N 	0.07266	0.24192	0.6415	-0.268
Mof_N 	N 	0.36872	0.37124	0.74955	-0.136
Mof_N 	N 	0.43664	0.48468	0.80768	-0.139
Mof_N 	N 	0.28158	0.45156	0.76975	-0.142
Mof_N 	N 	0.69896	0.37832	0.78233	-0.274
Mof_N 	N 	0.30659	0.67498	0.89215	-0.27
Mof_N 	N 	0.48332	0.28304	0.3258	-0.271
Mof_N 	N 	0.30056	0.14832	0.43858	-0.136
Mof_N 	N 	0.29931	0.04762	0.47157	-0.148
Mof_N 	N 	0.40143	0.08026	0.41436	-0.134
Mof_N 	N 	0.4501	0.852	0.44859	-0.276
Mof_N 	N 	0.08311	0.13162	0.04696	-0.269
Mof_N 	N 	0.16926	0.24192	0.1415	-0.267
Mof_N 	N 	0.00252	0.37124	0.24955	-0.135
Mof_N 	N 	0.04804	0.48468	0.30768	-0.139
Mof_N 	N 	0.16998	0.45156	0.26975	-0.142
Mof_N 	N 	0.67936	0.37832	0.28233	-0.274
Mof_N 	N 	0.36839	0.67498	0.39215	-0.27
Mof_N 	N 	0.79972	0.28304	0.8258	-0.271
Mof_N 	N 	0.84776	0.14832	0.93858	-0.136
Mof_N 	N 	0.74831	0.04762	0.97157	-0.148
Mof_N 	N 	0.67883	0.08026	0.91436	-0.134
Mof_N 	N 	0.4019	0.852	0.94859	-0.276
_end
