data_functionalizedCrystal
_audit_creation_method	'EQeq! by Chris Wilmer'
_symmetry_space_group_name_H-M	'P1'
_symmetry_Int_Tables_number	1
_symmetry_cell_setting	triclinic
loop_
_symmetry_equiv_pos_as_xyz
  x,y,z
_cell_length_a	8.0222
_cell_length_b	18.1099
_cell_length_c	21.954
_cell_angle_alpha	90
_cell_angle_beta	90
_cell_angle_gamma	90
loop_
_atom_site_label
_atom_site_type_symbol
_atom_site_fract_x
_atom_site_fract_y
_atom_site_fract_z
_atom_site_charge
Mof_Cd	Cd	0.76819	0.09132	0.13978	0.317
Mof_Cd	Cd	0.96011	0.25271	0.89004	0.38
Mof_C 	C 	0.5898	0.1667	0.0205	0.088
Mof_H 	H 	0.4827	0.1636	0.0366	-0.002
Mof_C 	C 	0.8459	0.1575	0.0091	0.103
Mof_H 	H 	0.9576	0.1461	0.0155	-0.007
Mof_C 	C 	0.6671	0.9264	0.1109	0.105
Mof_H 	H 	0.5576	0.9423	0.1061	-0.008
Mof_C 	C 	0.9227	0.9244	0.1257	0.09
Mof_H 	H 	0.0318	0.9394	0.1329	-0.002
Mof_C 	C 	0.9094	0.156	0.2655	0.093
Mof_H 	H 	0.0164	0.139	0.257	-0.006
Mof_C 	C 	0.6566	0.1791	0.2584	0.1
Mof_H 	H 	0.5478	0.1823	0.244	-0.007
Mof_N 	N 	0.7272	0.1394	0.0488	-0.172
Mof_N 	N 	0.7951	0.1919	0.9614	-0.124
Mof_N 	N 	0.6252	0.1981	0.9678	-0.119
Mof_N 	N 	0.7784	0.1465	0.228	-0.177
Mof_N 	N 	0.7041	0.2064	0.3106	-0.122
Mof_N 	N 	0.8694	0.1918	0.3155	-0.119
Mof_N 	N 	0.7887	0.9714	0.1231	-0.173
Mof_N 	N 	0.711	0.8568	0.1058	-0.122
Mof_N 	N 	0.8772	0.8557	0.1166	-0.117
Mof_Cd	Cd	0.23181	0.40868	0.63978	0.318
Mof_Cd	Cd	0.03989	0.24729	0.39004	0.382
Mof_C 	C 	0.4102	0.3333	0.5205	0.089
Mof_H 	H 	0.5173	0.3364	0.5366	-0.002
Mof_C 	C 	0.1541	0.3425	0.5091	0.104
Mof_H 	H 	0.0424	0.3539	0.5155	-0.007
Mof_C 	C 	0.3329	0.5736	0.6109	0.105
Mof_H 	H 	0.4424	0.5577	0.6061	-0.008
Mof_C 	C 	0.0773	0.5756	0.6257	0.088
Mof_H 	H 	0.9682	0.5606	0.6329	-0.001
Mof_C 	C 	0.0906	0.344	0.7655	0.094
Mof_H 	H 	0.9836	0.361	0.757	-0.007
Mof_C 	C 	0.3434	0.3209	0.7584	0.1
Mof_H 	H 	0.4522	0.3177	0.744	-0.007
Mof_N 	N 	0.2728	0.3606	0.5488	-0.172
Mof_N 	N 	0.2049	0.3081	0.4614	-0.124
Mof_N 	N 	0.3748	0.3019	0.4678	-0.12
Mof_N 	N 	0.2216	0.3535	0.728	-0.177
Mof_N 	N 	0.2959	0.2936	0.8106	-0.121
Mof_N 	N 	0.1306	0.3082	0.8155	-0.119
Mof_N 	N 	0.2113	0.5286	0.6231	-0.173
Mof_N 	N 	0.289	0.6432	0.6058	-0.123
Mof_N 	N 	0.1228	0.6443	0.6166	-0.118
Mof_Cd	Cd	0.26819	0.90868	0.36022	0.318
Mof_Cd	Cd	0.46011	0.74729	0.60996	0.382
Mof_C 	C 	0.0898	0.8333	0.4795	0.088
Mof_H 	H 	0.9827	0.8364	0.4634	-0.002
Mof_C 	C 	0.3459	0.8425	0.4909	0.104
Mof_H 	H 	0.4576	0.8539	0.4845	-0.007
Mof_C 	C 	0.1671	0.0736	0.3891	0.105
Mof_H 	H 	0.0576	0.0577	0.3939	-0.008
Mof_C 	C 	0.4227	0.0756	0.3743	0.087
Mof_H 	H 	0.5318	0.0606	0.3671	-0
Mof_C 	C 	0.4094	0.844	0.2345	0.092
Mof_H 	H 	0.5164	0.861	0.243	-0.005
Mof_C 	C 	0.1566	0.8209	0.2416	0.1
Mof_H 	H 	0.0478	0.8177	0.256	-0.008
Mof_N 	N 	0.2272	0.8606	0.4512	-0.172
Mof_N 	N 	0.2951	0.8081	0.5386	-0.124
Mof_N 	N 	0.1252	0.8019	0.5322	-0.119
Mof_N 	N 	0.2784	0.8535	0.272	-0.177
Mof_N 	N 	0.2041	0.7936	0.1894	-0.122
Mof_N 	N 	0.3694	0.8082	0.1845	-0.119
Mof_N 	N 	0.2887	0.0286	0.3769	-0.173
Mof_N 	N 	0.211	0.1432	0.3942	-0.123
Mof_N 	N 	0.3772	0.1443	0.3834	-0.117
Mof_Cd	Cd	0.73181	0.59132	0.86022	0.318
Mof_Cd	Cd	0.53989	0.75271	0.10996	0.382
Mof_C 	C 	0.9102	0.6667	0.9795	0.087
Mof_H 	H 	0.0173	0.6636	0.9634	-0.001
Mof_C 	C 	0.6541	0.6575	0.9909	0.103
Mof_H 	H 	0.5424	0.6461	0.9845	-0.007
Mof_C 	C 	0.8329	0.4264	0.8891	0.105
Mof_H 	H 	0.9424	0.4423	0.8939	-0.008
Mof_C 	C 	0.5773	0.4244	0.8743	0.087
Mof_H 	H 	0.4682	0.4394	0.8671	-0
Mof_C 	C 	0.5906	0.656	0.7345	0.092
Mof_H 	H 	0.4836	0.639	0.743	-0.005
Mof_C 	C 	0.8434	0.6791	0.7416	0.1
Mof_H 	H 	0.9522	0.6823	0.756	-0.008
Mof_N 	N 	0.7728	0.6394	0.9512	-0.172
Mof_N 	N 	0.7049	0.6919	0.0386	-0.124
Mof_N 	N 	0.8748	0.6981	0.0322	-0.119
Mof_N 	N 	0.7216	0.6465	0.772	-0.177
Mof_N 	N 	0.7959	0.7064	0.6894	-0.122
Mof_N 	N 	0.6306	0.6918	0.6845	-0.119
Mof_N 	N 	0.7113	0.4714	0.8769	-0.173
Mof_N 	N 	0.789	0.3568	0.8942	-0.123
Mof_N 	N 	0.6228	0.3557	0.8834	-0.117
Mof_Cd	Cd	0.23181	0.90868	0.86022	0.318
Mof_Cd	Cd	0.03989	0.74729	0.10996	0.381
Mof_C 	C 	0.4102	0.8333	0.9795	0.088
Mof_H 	H 	0.5173	0.8364	0.9634	-0.002
Mof_C 	C 	0.1541	0.8425	0.9909	0.103
Mof_H 	H 	0.0424	0.8539	0.9845	-0.007
Mof_C 	C 	0.3329	0.0736	0.8891	0.105
Mof_H 	H 	0.4424	0.0577	0.8939	-0.008
Mof_C 	C 	0.0773	0.0756	0.8743	0.09
Mof_H 	H 	0.9682	0.0606	0.8671	-0.002
Mof_C 	C 	0.0906	0.844	0.7345	0.093
Mof_H 	H 	0.9836	0.861	0.743	-0.006
Mof_C 	C 	0.3434	0.8209	0.7416	0.1
Mof_H 	H 	0.4522	0.8177	0.756	-0.007
Mof_N 	N 	0.2728	0.8606	0.9512	-0.172
Mof_N 	N 	0.2049	0.8081	0.0386	-0.124
Mof_N 	N 	0.3748	0.8019	0.0322	-0.119
Mof_N 	N 	0.2216	0.8535	0.772	-0.177
Mof_N 	N 	0.2959	0.7936	0.6894	-0.122
Mof_N 	N 	0.1306	0.8082	0.6845	-0.119
Mof_N 	N 	0.2113	0.0286	0.8769	-0.173
Mof_N 	N 	0.289	0.1432	0.8942	-0.122
Mof_N 	N 	0.1228	0.1443	0.8834	-0.117
Mof_Cd	Cd	0.76819	0.59132	0.36022	0.318
Mof_Cd	Cd	0.96011	0.75271	0.60996	0.382
Mof_C 	C 	0.5898	0.6667	0.4795	0.089
Mof_H 	H 	0.4827	0.6636	0.4634	-0.002
Mof_C 	C 	0.8459	0.6575	0.4909	0.104
Mof_H 	H 	0.9576	0.6461	0.4845	-0.007
Mof_C 	C 	0.6671	0.4264	0.3891	0.105
Mof_H 	H 	0.5576	0.4423	0.3939	-0.008
Mof_C 	C 	0.9227	0.4244	0.3743	0.088
Mof_H 	H 	0.0318	0.4394	0.3671	-0.001
Mof_C 	C 	0.9094	0.656	0.2345	0.094
Mof_H 	H 	0.0164	0.639	0.243	-0.007
Mof_C 	C 	0.6566	0.6791	0.2416	0.1
Mof_H 	H 	0.5478	0.6823	0.256	-0.007
Mof_N 	N 	0.7272	0.6394	0.4512	-0.172
Mof_N 	N 	0.7951	0.6919	0.5386	-0.124
Mof_N 	N 	0.6252	0.6981	0.5322	-0.12
Mof_N 	N 	0.7784	0.6465	0.272	-0.177
Mof_N 	N 	0.7041	0.7064	0.1894	-0.121
Mof_N 	N 	0.8694	0.6918	0.1845	-0.119
Mof_N 	N 	0.7887	0.4714	0.3769	-0.173
Mof_N 	N 	0.711	0.3568	0.3942	-0.123
Mof_N 	N 	0.8772	0.3557	0.3834	-0.118
Mof_Cd	Cd	0.73181	0.09132	0.63978	0.318
Mof_Cd	Cd	0.53989	0.25271	0.39004	0.382
Mof_C 	C 	0.9102	0.1667	0.5205	0.088
Mof_H 	H 	0.0173	0.1636	0.5366	-0.002
Mof_C 	C 	0.6541	0.1575	0.5091	0.104
Mof_H 	H 	0.5424	0.1461	0.5155	-0.007
Mof_C 	C 	0.8329	0.9264	0.6109	0.105
Mof_H 	H 	0.9424	0.9423	0.6061	-0.008
Mof_C 	C 	0.5773	0.9244	0.6257	0.087
Mof_H 	H 	0.4682	0.9394	0.6329	-0
Mof_C 	C 	0.5906	0.156	0.7655	0.092
Mof_H 	H 	0.4836	0.139	0.757	-0.005
Mof_C 	C 	0.8434	0.1791	0.7584	0.1
Mof_H 	H 	0.9522	0.1823	0.744	-0.008
Mof_N 	N 	0.7728	0.1394	0.5488	-0.172
Mof_N 	N 	0.7049	0.1919	0.4614	-0.124
Mof_N 	N 	0.8748	0.1981	0.4678	-0.119
Mof_N 	N 	0.7216	0.1465	0.728	-0.177
Mof_N 	N 	0.7959	0.2064	0.8106	-0.122
Mof_N 	N 	0.6306	0.1918	0.8155	-0.119
Mof_N 	N 	0.7113	0.9714	0.6231	-0.173
Mof_N 	N 	0.789	0.8568	0.6058	-0.123
Mof_N 	N 	0.6228	0.8557	0.6166	-0.117
Mof_Cd	Cd	0.26819	0.40868	0.13978	0.318
Mof_Cd	Cd	0.46011	0.24729	0.89004	0.382
Mof_C 	C 	0.0898	0.3333	0.0205	0.087
Mof_H 	H 	0.9827	0.3364	0.0366	-0.001
Mof_C 	C 	0.3459	0.3425	0.0091	0.103
Mof_H 	H 	0.4576	0.3539	0.0155	-0.007
Mof_C 	C 	0.1671	0.5736	0.1109	0.105
Mof_H 	H 	0.0576	0.5577	0.1061	-0.008
Mof_C 	C 	0.4227	0.5756	0.1257	0.087
Mof_H 	H 	0.5318	0.5606	0.1329	-0
Mof_C 	C 	0.4094	0.344	0.2655	0.092
Mof_H 	H 	0.5164	0.361	0.257	-0.005
Mof_C 	C 	0.1566	0.3209	0.2584	0.1
Mof_H 	H 	0.0478	0.3177	0.244	-0.008
Mof_N 	N 	0.2272	0.3606	0.0488	-0.172
Mof_N 	N 	0.2951	0.3081	0.9614	-0.124
Mof_N 	N 	0.1252	0.3019	0.9678	-0.119
Mof_N 	N 	0.2784	0.3535	0.228	-0.177
Mof_N 	N 	0.2041	0.2936	0.3106	-0.122
Mof_N 	N 	0.3694	0.3082	0.3155	-0.119
Mof_N 	N 	0.2887	0.5286	0.1231	-0.173
Mof_N 	N 	0.211	0.6432	0.1058	-0.123
Mof_N 	N 	0.3772	0.6443	0.1166	-0.117
_end
