data_functionalizedCrystal
_audit_creation_method	'EQeq! by Chris Wilmer'
_symmetry_space_group_name_H-M	'P1'
_symmetry_Int_Tables_number	1
_symmetry_cell_setting	triclinic
loop_
_symmetry_equiv_pos_as_xyz
  x,y,z
_cell_length_a	48.928
_cell_length_b	48.928
_cell_length_c	48.928
_cell_angle_alpha	90
_cell_angle_beta	90
_cell_angle_gamma	90
loop_
_atom_site_label
_atom_site_type_symbol
_atom_site_fract_x
_atom_site_fract_y
_atom_site_fract_z
_atom_site_charge
Mof_Mo	Mo	0.60679	0.93982	0.79167	1.038
Mof_O 	O 	0.60399	0.97433	0.81165	-0.749
Mof_O 	O 	0.60928	0.91562	0.75694	-0.494
Mof_O 	O 	0.56837	0.94804	0.78218	-0.641
Mof_O 	O 	0.64558	0.94359	0.78637	-0.747
Mof_Mo	Mo	0.55603	0.96726	0.75266	1.235
Mof_Mo	Mo	0.60731	0.93348	0.71915	1.127
Mof_Zn	Zn	0.57844	0.00518	0.80894	1.226
Mof_O 	O 	0.55877	0.99725	0.72512	-0.762
Mof_O 	O 	0.5708	0.942	0.72614	-0.648
Mof_O 	O 	0.55479	0.00613	0.84094	-0.501
Mof_C 	C 	0.5668	0.0093	0.8627	0.374
Mof_C 	C 	0.5478	0.0116	0.8858	-0.175
Mof_O 	O 	0.59239	0.01026	0.86508	-0.339
Mof_C 	C 	0.5583	0.0174	0.9103	0.063
Mof_C 	C 	0.5223	0.0063	0.883	0.074
Mof_H 	H 	0.577	0.0204	0.9116	0.004
Mof_C 	C 	0.5419	0.0191	0.935	-0.145
Mof_C 	C 	0.5035	0.0093	0.9064	-0.145
Mof_H 	H 	0.5156	0.0005	0.8662	0
Mof_H 	H 	0.5496	0.0229	0.9519	0.076
Mof_C 	C 	0.5137	0.0149	0.9318	0.061
Mof_H 	H 	0.4847	0.0073	0.9039	0.064
Mof_C 	C 	0.4969	0.0178	0.9567	0.017
Mof_C 	C 	0.5003	0.0401	0.9735	-0.093
Mof_H 	H 	0.514	0.0528	0.97	0.055
Mof_Mo	Mo	0.10679	0.43982	0.29167	1.038
Mof_O 	O 	0.10399	0.47433	0.31165	-0.749
Mof_O 	O 	0.10928	0.41562	0.25694	-0.494
Mof_O 	O 	0.06837	0.44804	0.28218	-0.641
Mof_O 	O 	0.14558	0.44359	0.28637	-0.747
Mof_Mo	Mo	0.05603	0.46726	0.25266	1.235
Mof_Mo	Mo	0.10731	0.43348	0.21915	1.127
Mof_Zn	Zn	0.07844	0.50518	0.30894	1.226
Mof_O 	O 	0.05877	0.49725	0.22512	-0.762
Mof_O 	O 	0.0708	0.442	0.22614	-0.648
Mof_O 	O 	0.05479	0.50613	0.34094	-0.501
Mof_C 	C 	0.0668	0.5093	0.3627	0.374
Mof_C 	C 	0.0478	0.5116	0.3858	-0.175
Mof_O 	O 	0.09239	0.51026	0.36508	-0.339
Mof_C 	C 	0.0583	0.5174	0.4103	0.063
Mof_C 	C 	0.0223	0.5063	0.383	0.074
Mof_H 	H 	0.077	0.5204	0.4116	0.004
Mof_C 	C 	0.0419	0.5191	0.435	-0.145
Mof_C 	C 	0.0035	0.5093	0.4064	-0.145
Mof_H 	H 	0.0156	0.5005	0.3662	0
Mof_H 	H 	0.0496	0.5229	0.4519	0.076
Mof_C 	C 	0.0137	0.5149	0.4318	0.061
Mof_H 	H 	0.9847	0.5073	0.4039	0.064
Mof_C 	C 	0.9969	0.5178	0.4567	0.017
Mof_C 	C 	0.0003	0.5401	0.4735	-0.093
Mof_H 	H 	0.014	0.5528	0.47	0.055
Mof_Mo	Mo	0.89321	0.06018	0.29167	1.038
Mof_O 	O 	0.89601	0.02567	0.31165	-0.749
Mof_O 	O 	0.89072	0.08438	0.25694	-0.494
Mof_O 	O 	0.93163	0.05196	0.28218	-0.641
Mof_O 	O 	0.85442	0.05641	0.28637	-0.747
Mof_Mo	Mo	0.94397	0.03274	0.25266	1.235
Mof_Mo	Mo	0.89269	0.06652	0.21915	1.127
Mof_Zn	Zn	0.92156	0.99482	0.30894	1.226
Mof_O 	O 	0.94123	0.00275	0.22512	-0.762
Mof_O 	O 	0.9292	0.058	0.22614	-0.648
Mof_O 	O 	0.94521	0.99387	0.34094	-0.501
Mof_C 	C 	0.9332	0.9907	0.3627	0.374
Mof_C 	C 	0.9522	0.9884	0.3858	-0.175
Mof_O 	O 	0.90761	0.98974	0.36508	-0.339
Mof_C 	C 	0.9417	0.9826	0.4103	0.063
Mof_C 	C 	0.9777	0.9937	0.383	0.074
Mof_H 	H 	0.923	0.9796	0.4116	0.004
Mof_C 	C 	0.9581	0.9809	0.435	-0.145
Mof_C 	C 	0.9965	0.9907	0.4064	-0.145
Mof_H 	H 	0.9844	0.9995	0.3662	0
Mof_H 	H 	0.9504	0.9771	0.4519	0.076
Mof_C 	C 	0.9863	0.9851	0.4318	0.061
Mof_H 	H 	0.0153	0.9927	0.4039	0.064
Mof_C 	C 	0.0031	0.9822	0.4567	0.017
Mof_C 	C 	0.9997	0.9599	0.4735	-0.093
Mof_H 	H 	0.986	0.9472	0.47	0.055
Mof_Mo	Mo	0.39321	0.56018	0.79167	1.038
Mof_O 	O 	0.39601	0.52567	0.81165	-0.749
Mof_O 	O 	0.39072	0.58438	0.75694	-0.494
Mof_O 	O 	0.43163	0.55196	0.78218	-0.641
Mof_O 	O 	0.35442	0.55641	0.78637	-0.747
Mof_Mo	Mo	0.44397	0.53274	0.75266	1.235
Mof_Mo	Mo	0.39269	0.56652	0.71915	1.127
Mof_Zn	Zn	0.42156	0.49482	0.80894	1.226
Mof_O 	O 	0.44123	0.50275	0.72512	-0.762
Mof_O 	O 	0.4292	0.558	0.72614	-0.648
Mof_O 	O 	0.44521	0.49387	0.84094	-0.501
Mof_C 	C 	0.4332	0.4907	0.8627	0.374
Mof_C 	C 	0.4522	0.4884	0.8858	-0.175
Mof_O 	O 	0.40761	0.48974	0.86508	-0.339
Mof_C 	C 	0.4417	0.4826	0.9103	0.063
Mof_C 	C 	0.4777	0.4937	0.883	0.074
Mof_H 	H 	0.423	0.4796	0.9116	0.004
Mof_C 	C 	0.4581	0.4809	0.935	-0.145
Mof_C 	C 	0.4965	0.4907	0.9064	-0.144
Mof_H 	H 	0.4844	0.4995	0.8662	0.001
Mof_H 	H 	0.4504	0.4771	0.9519	0.077
Mof_C 	C 	0.4863	0.4851	0.9318	0.062
Mof_H 	H 	0.5153	0.4927	0.9039	0.065
Mof_C 	C 	0.5031	0.4822	0.9567	0.018
Mof_C 	C 	0.4997	0.4599	0.9735	-0.092
Mof_H 	H 	0.486	0.4472	0.97	0.056
Mof_Mo	Mo	0.39321	0.43982	0.70833	1.039
Mof_O 	O 	0.39601	0.47433	0.68835	-0.748
Mof_O 	O 	0.39072	0.41562	0.74306	-0.493
Mof_O 	O 	0.43163	0.44804	0.71782	-0.64
Mof_O 	O 	0.35442	0.44359	0.71363	-0.746
Mof_Mo	Mo	0.44397	0.46726	0.74734	1.236
Mof_Mo	Mo	0.39269	0.43348	0.78085	1.128
Mof_Zn	Zn	0.42156	0.50518	0.69106	1.227
Mof_O 	O 	0.44123	0.49725	0.77488	-0.761
Mof_O 	O 	0.4292	0.442	0.77386	-0.647
Mof_O 	O 	0.44521	0.50613	0.65906	-0.5
Mof_C 	C 	0.4332	0.5093	0.6373	0.375
Mof_C 	C 	0.4522	0.5116	0.6142	-0.174
Mof_O 	O 	0.40761	0.51026	0.63492	-0.338
Mof_C 	C 	0.4417	0.5174	0.5897	0.064
Mof_C 	C 	0.4777	0.5063	0.617	0.075
Mof_H 	H 	0.423	0.5204	0.5884	0.005
Mof_C 	C 	0.4581	0.5191	0.565	-0.144
Mof_C 	C 	0.4965	0.5093	0.5936	-0.144
Mof_H 	H 	0.4844	0.5005	0.6338	0.001
Mof_H 	H 	0.4504	0.5229	0.5481	0.077
Mof_C 	C 	0.4863	0.5149	0.5682	0.062
Mof_H 	H 	0.5153	0.5073	0.5961	0.065
Mof_C 	C 	0.5031	0.5178	0.5433	0.018
Mof_C 	C 	0.4997	0.5401	0.5265	-0.092
Mof_H 	H 	0.486	0.5528	0.53	0.056
Mof_Mo	Mo	0.89321	0.93982	0.20833	1.039
Mof_O 	O 	0.89601	0.97433	0.18835	-0.748
Mof_O 	O 	0.89072	0.91562	0.24306	-0.493
Mof_O 	O 	0.93163	0.94804	0.21782	-0.64
Mof_O 	O 	0.85442	0.94359	0.21363	-0.746
Mof_Mo	Mo	0.94397	0.96726	0.24734	1.236
Mof_Mo	Mo	0.89269	0.93348	0.28085	1.128
Mof_Zn	Zn	0.92156	0.00518	0.19106	1.227
Mof_O 	O 	0.94123	0.99725	0.27488	-0.761
Mof_O 	O 	0.9292	0.942	0.27386	-0.647
Mof_O 	O 	0.94521	0.00613	0.15906	-0.5
Mof_C 	C 	0.9332	0.0093	0.1373	0.375
Mof_C 	C 	0.9522	0.0116	0.1142	-0.174
Mof_O 	O 	0.90761	0.01026	0.13492	-0.338
Mof_C 	C 	0.9417	0.0174	0.0897	0.064
Mof_C 	C 	0.9777	0.0063	0.117	0.075
Mof_H 	H 	0.923	0.0204	0.0884	0.005
Mof_C 	C 	0.9581	0.0191	0.065	-0.144
Mof_C 	C 	0.9965	0.0093	0.0936	-0.144
Mof_H 	H 	0.9844	0.0005	0.1338	0.001
Mof_H 	H 	0.9504	0.0229	0.0481	0.077
Mof_C 	C 	0.9863	0.0149	0.0682	0.062
Mof_H 	H 	0.0153	0.0073	0.0961	0.065
Mof_C 	C 	0.0031	0.0178	0.0433	0.018
Mof_C 	C 	0.9997	0.0401	0.0265	-0.092
Mof_H 	H 	0.986	0.0528	0.03	0.056
Mof_Mo	Mo	0.10679	0.56018	0.20833	1.039
Mof_O 	O 	0.10399	0.52567	0.18835	-0.748
Mof_O 	O 	0.10928	0.58438	0.24306	-0.493
Mof_O 	O 	0.06837	0.55196	0.21782	-0.64
Mof_O 	O 	0.14558	0.55641	0.21363	-0.746
Mof_Mo	Mo	0.05603	0.53274	0.24734	1.236
Mof_Mo	Mo	0.10731	0.56652	0.28085	1.128
Mof_Zn	Zn	0.07844	0.49482	0.19106	1.227
Mof_O 	O 	0.05877	0.50275	0.27488	-0.761
Mof_O 	O 	0.0708	0.558	0.27386	-0.647
Mof_O 	O 	0.05479	0.49387	0.15906	-0.5
Mof_C 	C 	0.0668	0.4907	0.1373	0.375
Mof_C 	C 	0.0478	0.4884	0.1142	-0.174
Mof_O 	O 	0.09239	0.48974	0.13492	-0.338
Mof_C 	C 	0.0583	0.4826	0.0897	0.064
Mof_C 	C 	0.0223	0.4937	0.117	0.075
Mof_H 	H 	0.077	0.4796	0.0884	0.005
Mof_C 	C 	0.0419	0.4809	0.065	-0.144
Mof_C 	C 	0.0035	0.4907	0.0936	-0.144
Mof_H 	H 	0.0156	0.4995	0.1338	0.001
Mof_H 	H 	0.0496	0.4771	0.0481	0.077
Mof_C 	C 	0.0137	0.4851	0.0682	0.062
Mof_H 	H 	0.9847	0.4927	0.0961	0.065
Mof_C 	C 	0.9969	0.4822	0.0433	0.018
Mof_C 	C 	0.0003	0.4599	0.0265	-0.092
Mof_H 	H 	0.014	0.4472	0.03	0.056
Mof_Mo	Mo	0.60679	0.06018	0.70833	1.039
Mof_O 	O 	0.60399	0.02567	0.68835	-0.748
Mof_O 	O 	0.60928	0.08438	0.74306	-0.493
Mof_O 	O 	0.56837	0.05196	0.71782	-0.64
Mof_O 	O 	0.64558	0.05641	0.71363	-0.746
Mof_Mo	Mo	0.55603	0.03274	0.74734	1.236
Mof_Mo	Mo	0.60731	0.06652	0.78085	1.128
Mof_Zn	Zn	0.57844	0.99482	0.69106	1.227
Mof_O 	O 	0.55877	0.00275	0.77488	-0.761
Mof_O 	O 	0.5708	0.058	0.77386	-0.647
Mof_O 	O 	0.55479	0.99387	0.65906	-0.5
Mof_C 	C 	0.5668	0.9907	0.6373	0.375
Mof_C 	C 	0.5478	0.9884	0.6142	-0.174
Mof_O 	O 	0.59239	0.98974	0.63492	-0.338
Mof_C 	C 	0.5583	0.9826	0.5897	0.064
Mof_C 	C 	0.5223	0.9937	0.617	0.075
Mof_H 	H 	0.577	0.9796	0.5884	0.005
Mof_C 	C 	0.5419	0.9809	0.565	-0.144
Mof_C 	C 	0.5035	0.9907	0.5936	-0.144
Mof_H 	H 	0.5156	0.9995	0.6338	0.001
Mof_H 	H 	0.5496	0.9771	0.5481	0.077
Mof_C 	C 	0.5137	0.9851	0.5682	0.062
Mof_H 	H 	0.4847	0.9927	0.5961	0.065
Mof_C 	C 	0.4969	0.9822	0.5433	0.018
Mof_C 	C 	0.5003	0.9599	0.5265	-0.092
Mof_H 	H 	0.514	0.9472	0.53	0.056
Mof_Mo	Mo	0.79167	0.60679	0.93982	1.039
Mof_O 	O 	0.81165	0.60399	0.97433	-0.748
Mof_O 	O 	0.75694	0.60928	0.91562	-0.493
Mof_O 	O 	0.78218	0.56837	0.94804	-0.64
Mof_O 	O 	0.78637	0.64558	0.94359	-0.746
Mof_Mo	Mo	0.75266	0.55603	0.96726	1.236
Mof_Mo	Mo	0.71915	0.60731	0.93348	1.128
Mof_Zn	Zn	0.80894	0.57844	0.00518	1.227
Mof_O 	O 	0.72512	0.55877	0.99725	-0.761
Mof_O 	O 	0.72614	0.5708	0.942	-0.647
Mof_O 	O 	0.84094	0.55479	0.00613	-0.5
Mof_C 	C 	0.8627	0.5668	0.0093	0.375
Mof_C 	C 	0.8858	0.5478	0.0116	-0.174
Mof_O 	O 	0.86508	0.59239	0.01026	-0.338
Mof_C 	C 	0.9103	0.5583	0.0174	0.064
Mof_C 	C 	0.883	0.5223	0.0063	0.075
Mof_H 	H 	0.9116	0.577	0.0204	0.005
Mof_C 	C 	0.935	0.5419	0.0191	-0.144
Mof_C 	C 	0.9064	0.5035	0.0093	-0.144
Mof_H 	H 	0.8662	0.5156	0.0005	0.001
Mof_H 	H 	0.9519	0.5496	0.0229	0.077
Mof_C 	C 	0.9318	0.5137	0.0149	0.062
Mof_H 	H 	0.9039	0.4847	0.0073	0.065
Mof_C 	C 	0.9567	0.4969	0.0178	0.018
Mof_C 	C 	0.9735	0.5003	0.0401	-0.092
Mof_H 	H 	0.97	0.514	0.0528	0.056
Mof_Mo	Mo	0.29167	0.10679	0.43982	1.039
Mof_O 	O 	0.31165	0.10399	0.47433	-0.748
Mof_O 	O 	0.25694	0.10928	0.41562	-0.493
Mof_O 	O 	0.28218	0.06837	0.44804	-0.64
Mof_O 	O 	0.28637	0.14558	0.44359	-0.746
Mof_Mo	Mo	0.25266	0.05603	0.46726	1.236
Mof_Mo	Mo	0.21915	0.10731	0.43348	1.128
Mof_Zn	Zn	0.30894	0.07844	0.50518	1.227
Mof_O 	O 	0.22512	0.05877	0.49725	-0.761
Mof_O 	O 	0.22614	0.0708	0.442	-0.647
Mof_O 	O 	0.34094	0.05479	0.50613	-0.5
Mof_C 	C 	0.3627	0.0668	0.5093	0.375
Mof_C 	C 	0.3858	0.0478	0.5116	-0.174
Mof_O 	O 	0.36508	0.09239	0.51026	-0.338
Mof_C 	C 	0.4103	0.0583	0.5174	0.064
Mof_C 	C 	0.383	0.0223	0.5063	0.075
Mof_H 	H 	0.4116	0.077	0.5204	0.005
Mof_C 	C 	0.435	0.0419	0.5191	-0.144
Mof_C 	C 	0.4064	0.0035	0.5093	-0.144
Mof_H 	H 	0.3662	0.0156	0.5005	0.001
Mof_H 	H 	0.4519	0.0496	0.5229	0.077
Mof_C 	C 	0.4318	0.0137	0.5149	0.062
Mof_H 	H 	0.4039	0.9847	0.5073	0.065
Mof_C 	C 	0.4567	0.9969	0.5178	0.018
Mof_C 	C 	0.4735	0.0003	0.5401	-0.092
Mof_H 	H 	0.47	0.014	0.5528	0.056
Mof_Mo	Mo	0.29167	0.89321	0.06018	1.039
Mof_O 	O 	0.31165	0.89601	0.02567	-0.748
Mof_O 	O 	0.25694	0.89072	0.08438	-0.493
Mof_O 	O 	0.28218	0.93163	0.05196	-0.64
Mof_O 	O 	0.28637	0.85442	0.05641	-0.746
Mof_Mo	Mo	0.25266	0.94397	0.03274	1.236
Mof_Mo	Mo	0.21915	0.89269	0.06652	1.128
Mof_Zn	Zn	0.30894	0.92156	0.99482	1.227
Mof_O 	O 	0.22512	0.94123	0.00275	-0.761
Mof_O 	O 	0.22614	0.9292	0.058	-0.647
Mof_O 	O 	0.34094	0.94521	0.99387	-0.5
Mof_C 	C 	0.3627	0.9332	0.9907	0.375
Mof_C 	C 	0.3858	0.9522	0.9884	-0.174
Mof_O 	O 	0.36508	0.90761	0.98974	-0.338
Mof_C 	C 	0.4103	0.9417	0.9826	0.064
Mof_C 	C 	0.383	0.9777	0.9937	0.075
Mof_H 	H 	0.4116	0.923	0.9796	0.005
Mof_C 	C 	0.435	0.9581	0.9809	-0.144
Mof_C 	C 	0.4064	0.9965	0.9907	-0.144
Mof_H 	H 	0.3662	0.9844	0.9995	0.001
Mof_H 	H 	0.4519	0.9504	0.9771	0.077
Mof_C 	C 	0.4318	0.9863	0.9851	0.062
Mof_H 	H 	0.4039	0.0153	0.9927	0.065
Mof_C 	C 	0.4567	0.0031	0.9822	0.018
Mof_C 	C 	0.4735	0.9997	0.9599	-0.092
Mof_H 	H 	0.47	0.986	0.9472	0.056
Mof_Mo	Mo	0.79167	0.39321	0.56018	1.039
Mof_O 	O 	0.81165	0.39601	0.52567	-0.748
Mof_O 	O 	0.75694	0.39072	0.58438	-0.493
Mof_O 	O 	0.78218	0.43163	0.55196	-0.64
Mof_O 	O 	0.78637	0.35442	0.55641	-0.746
Mof_Mo	Mo	0.75266	0.44397	0.53274	1.236
Mof_Mo	Mo	0.71915	0.39269	0.56652	1.128
Mof_Zn	Zn	0.80894	0.42156	0.49482	1.227
Mof_O 	O 	0.72512	0.44123	0.50275	-0.761
Mof_O 	O 	0.72614	0.4292	0.558	-0.647
Mof_O 	O 	0.84094	0.44521	0.49387	-0.5
Mof_C 	C 	0.8627	0.4332	0.4907	0.375
Mof_C 	C 	0.8858	0.4522	0.4884	-0.174
Mof_O 	O 	0.86508	0.40761	0.48974	-0.338
Mof_C 	C 	0.9103	0.4417	0.4826	0.064
Mof_C 	C 	0.883	0.4777	0.4937	0.075
Mof_H 	H 	0.9116	0.423	0.4796	0.005
Mof_C 	C 	0.935	0.4581	0.4809	-0.144
Mof_C 	C 	0.9064	0.4965	0.4907	-0.144
Mof_H 	H 	0.8662	0.4844	0.4995	0.001
Mof_H 	H 	0.9519	0.4504	0.4771	0.077
Mof_C 	C 	0.9318	0.4863	0.4851	0.062
Mof_H 	H 	0.9039	0.5153	0.4927	0.065
Mof_C 	C 	0.9567	0.5031	0.4822	0.018
Mof_C 	C 	0.9735	0.4997	0.4599	-0.092
Mof_H 	H 	0.97	0.486	0.4472	0.056
Mof_Mo	Mo	0.70833	0.39321	0.43982	1.039
Mof_O 	O 	0.68835	0.39601	0.47433	-0.748
Mof_O 	O 	0.74306	0.39072	0.41562	-0.493
Mof_O 	O 	0.71782	0.43163	0.44804	-0.64
Mof_O 	O 	0.71363	0.35442	0.44359	-0.746
Mof_Mo	Mo	0.74734	0.44397	0.46726	1.236
Mof_Mo	Mo	0.78085	0.39269	0.43348	1.128
Mof_Zn	Zn	0.69106	0.42156	0.50518	1.227
Mof_O 	O 	0.77488	0.44123	0.49725	-0.761
Mof_O 	O 	0.77386	0.4292	0.442	-0.647
Mof_O 	O 	0.65906	0.44521	0.50613	-0.5
Mof_C 	C 	0.6373	0.4332	0.5093	0.375
Mof_C 	C 	0.6142	0.4522	0.5116	-0.174
Mof_O 	O 	0.63492	0.40761	0.51026	-0.338
Mof_C 	C 	0.5897	0.4417	0.5174	0.064
Mof_C 	C 	0.617	0.4777	0.5063	0.075
Mof_H 	H 	0.5884	0.423	0.5204	0.005
Mof_C 	C 	0.565	0.4581	0.5191	-0.144
Mof_C 	C 	0.5936	0.4965	0.5093	-0.144
Mof_H 	H 	0.6338	0.4844	0.5005	0.001
Mof_H 	H 	0.5481	0.4504	0.5229	0.077
Mof_C 	C 	0.5682	0.4863	0.5149	0.062
Mof_H 	H 	0.5961	0.5153	0.5073	0.065
Mof_C 	C 	0.5433	0.5031	0.5178	0.018
Mof_C 	C 	0.5265	0.4997	0.5401	-0.092
Mof_H 	H 	0.53	0.486	0.5528	0.056
Mof_Mo	Mo	0.20833	0.89321	0.93982	1.039
Mof_O 	O 	0.18835	0.89601	0.97433	-0.748
Mof_O 	O 	0.24306	0.89072	0.91562	-0.493
Mof_O 	O 	0.21782	0.93163	0.94804	-0.64
Mof_O 	O 	0.21363	0.85442	0.94359	-0.746
Mof_Mo	Mo	0.24734	0.94397	0.96726	1.236
Mof_Mo	Mo	0.28085	0.89269	0.93348	1.128
Mof_Zn	Zn	0.19106	0.92156	0.00518	1.227
Mof_O 	O 	0.27488	0.94123	0.99725	-0.761
Mof_O 	O 	0.27386	0.9292	0.942	-0.647
Mof_O 	O 	0.15906	0.94521	0.00613	-0.5
Mof_C 	C 	0.1373	0.9332	0.0093	0.375
Mof_C 	C 	0.1142	0.9522	0.0116	-0.174
Mof_O 	O 	0.13492	0.90761	0.01026	-0.338
Mof_C 	C 	0.0897	0.9417	0.0174	0.064
Mof_C 	C 	0.117	0.9777	0.0063	0.075
Mof_H 	H 	0.0884	0.923	0.0204	0.005
Mof_C 	C 	0.065	0.9581	0.0191	-0.144
Mof_C 	C 	0.0936	0.9965	0.0093	-0.144
Mof_H 	H 	0.1338	0.9844	0.0005	0.001
Mof_H 	H 	0.0481	0.9504	0.0229	0.077
Mof_C 	C 	0.0682	0.9863	0.0149	0.062
Mof_H 	H 	0.0961	0.0153	0.0073	0.065
Mof_C 	C 	0.0433	0.0031	0.0178	0.018
Mof_C 	C 	0.0265	0.9997	0.0401	-0.092
Mof_H 	H 	0.03	0.986	0.0528	0.056
Mof_Mo	Mo	0.20833	0.10679	0.56018	1.039
Mof_O 	O 	0.18835	0.10399	0.52567	-0.748
Mof_O 	O 	0.24306	0.10928	0.58438	-0.493
Mof_O 	O 	0.21782	0.06837	0.55196	-0.64
Mof_O 	O 	0.21363	0.14558	0.55641	-0.746
Mof_Mo	Mo	0.24734	0.05603	0.53274	1.236
Mof_Mo	Mo	0.28085	0.10731	0.56652	1.128
Mof_Zn	Zn	0.19106	0.07844	0.49482	1.227
Mof_O 	O 	0.27488	0.05877	0.50275	-0.761
Mof_O 	O 	0.27386	0.0708	0.558	-0.647
Mof_O 	O 	0.15906	0.05479	0.49387	-0.5
Mof_C 	C 	0.1373	0.0668	0.4907	0.375
Mof_C 	C 	0.1142	0.0478	0.4884	-0.174
Mof_O 	O 	0.13492	0.09239	0.48974	-0.338
Mof_C 	C 	0.0897	0.0583	0.4826	0.064
Mof_C 	C 	0.117	0.0223	0.4937	0.075
Mof_H 	H 	0.0884	0.077	0.4796	0.005
Mof_C 	C 	0.065	0.0419	0.4809	-0.144
Mof_C 	C 	0.0936	0.0035	0.4907	-0.144
Mof_H 	H 	0.1338	0.0156	0.4995	0.001
Mof_H 	H 	0.0481	0.0496	0.4771	0.077
Mof_C 	C 	0.0682	0.0137	0.4851	0.062
Mof_H 	H 	0.0961	0.9847	0.4927	0.065
Mof_C 	C 	0.0433	0.9969	0.4822	0.018
Mof_C 	C 	0.0265	0.0003	0.4599	-0.092
Mof_H 	H 	0.03	0.014	0.4472	0.056
Mof_Mo	Mo	0.70833	0.60679	0.06018	1.039
Mof_O 	O 	0.68835	0.60399	0.02567	-0.748
Mof_O 	O 	0.74306	0.60928	0.08438	-0.493
Mof_O 	O 	0.71782	0.56837	0.05196	-0.64
Mof_O 	O 	0.71363	0.64558	0.05641	-0.746
Mof_Mo	Mo	0.74734	0.55603	0.03274	1.236
Mof_Mo	Mo	0.78085	0.60731	0.06652	1.128
Mof_Zn	Zn	0.69106	0.57844	0.99482	1.227
Mof_O 	O 	0.77488	0.55877	0.00275	-0.761
Mof_O 	O 	0.77386	0.5708	0.058	-0.647
Mof_O 	O 	0.65906	0.55479	0.99387	-0.5
Mof_C 	C 	0.6373	0.5668	0.9907	0.375
Mof_C 	C 	0.6142	0.5478	0.9884	-0.174
Mof_O 	O 	0.63492	0.59239	0.98974	-0.338
Mof_C 	C 	0.5897	0.5583	0.9826	0.064
Mof_C 	C 	0.617	0.5223	0.9937	0.075
Mof_H 	H 	0.5884	0.577	0.9796	0.005
Mof_C 	C 	0.565	0.5419	0.9809	-0.144
Mof_C 	C 	0.5936	0.5035	0.9907	-0.144
Mof_H 	H 	0.6338	0.5156	0.9995	0.001
Mof_H 	H 	0.5481	0.5496	0.9771	0.077
Mof_C 	C 	0.5682	0.5137	0.9851	0.062
Mof_H 	H 	0.5961	0.4847	0.9927	0.065
Mof_C 	C 	0.5433	0.4969	0.9822	0.018
Mof_C 	C 	0.5265	0.5003	0.9599	-0.092
Mof_H 	H 	0.53	0.514	0.9472	0.056
Mof_Mo	Mo	0.93982	0.79167	0.60679	1.039
Mof_O 	O 	0.97433	0.81165	0.60399	-0.748
Mof_O 	O 	0.91562	0.75694	0.60928	-0.493
Mof_O 	O 	0.94804	0.78218	0.56837	-0.64
Mof_O 	O 	0.94359	0.78637	0.64558	-0.746
Mof_Mo	Mo	0.96726	0.75266	0.55603	1.236
Mof_Mo	Mo	0.93348	0.71915	0.60731	1.128
Mof_Zn	Zn	0.00518	0.80894	0.57844	1.227
Mof_O 	O 	0.99725	0.72512	0.55877	-0.761
Mof_O 	O 	0.942	0.72614	0.5708	-0.647
Mof_O 	O 	0.00613	0.84094	0.55479	-0.5
Mof_C 	C 	0.0093	0.8627	0.5668	0.375
Mof_C 	C 	0.0116	0.8858	0.5478	-0.174
Mof_O 	O 	0.01026	0.86508	0.59239	-0.338
Mof_C 	C 	0.0174	0.9103	0.5583	0.064
Mof_C 	C 	0.0063	0.883	0.5223	0.075
Mof_H 	H 	0.0204	0.9116	0.577	0.005
Mof_C 	C 	0.0191	0.935	0.5419	-0.144
Mof_C 	C 	0.0093	0.9064	0.5035	-0.144
Mof_H 	H 	0.0005	0.8662	0.5156	0.001
Mof_H 	H 	0.0229	0.9519	0.5496	0.077
Mof_C 	C 	0.0149	0.9318	0.5137	0.062
Mof_H 	H 	0.0073	0.9039	0.4847	0.065
Mof_C 	C 	0.0178	0.9567	0.4969	0.018
Mof_C 	C 	0.0401	0.9735	0.5003	-0.092
Mof_H 	H 	0.0528	0.97	0.514	0.056
Mof_Mo	Mo	0.43982	0.29167	0.10679	1.039
Mof_O 	O 	0.47433	0.31165	0.10399	-0.748
Mof_O 	O 	0.41562	0.25694	0.10928	-0.493
Mof_O 	O 	0.44804	0.28218	0.06837	-0.64
Mof_O 	O 	0.44359	0.28637	0.14558	-0.746
Mof_Mo	Mo	0.46726	0.25266	0.05603	1.236
Mof_Mo	Mo	0.43348	0.21915	0.10731	1.128
Mof_Zn	Zn	0.50518	0.30894	0.07844	1.227
Mof_O 	O 	0.49725	0.22512	0.05877	-0.761
Mof_O 	O 	0.442	0.22614	0.0708	-0.647
Mof_O 	O 	0.50613	0.34094	0.05479	-0.5
Mof_C 	C 	0.5093	0.3627	0.0668	0.375
Mof_C 	C 	0.5116	0.3858	0.0478	-0.174
Mof_O 	O 	0.51026	0.36508	0.09239	-0.338
Mof_C 	C 	0.5174	0.4103	0.0583	0.064
Mof_C 	C 	0.5063	0.383	0.0223	0.075
Mof_H 	H 	0.5204	0.4116	0.077	0.005
Mof_C 	C 	0.5191	0.435	0.0419	-0.144
Mof_C 	C 	0.5093	0.4064	0.0035	-0.144
Mof_H 	H 	0.5005	0.3662	0.0156	0.001
Mof_H 	H 	0.5229	0.4519	0.0496	0.077
Mof_C 	C 	0.5149	0.4318	0.0137	0.062
Mof_H 	H 	0.5073	0.4039	0.9847	0.065
Mof_C 	C 	0.5178	0.4567	0.9969	0.018
Mof_C 	C 	0.5401	0.4735	0.0003	-0.092
Mof_H 	H 	0.5528	0.47	0.014	0.056
Mof_Mo	Mo	0.06018	0.29167	0.89321	1.039
Mof_O 	O 	0.02567	0.31165	0.89601	-0.748
Mof_O 	O 	0.08438	0.25694	0.89072	-0.493
Mof_O 	O 	0.05196	0.28218	0.93163	-0.64
Mof_O 	O 	0.05641	0.28637	0.85442	-0.746
Mof_Mo	Mo	0.03274	0.25266	0.94397	1.236
Mof_Mo	Mo	0.06652	0.21915	0.89269	1.128
Mof_Zn	Zn	0.99482	0.30894	0.92156	1.227
Mof_O 	O 	0.00275	0.22512	0.94123	-0.761
Mof_O 	O 	0.058	0.22614	0.9292	-0.647
Mof_O 	O 	0.99387	0.34094	0.94521	-0.5
Mof_C 	C 	0.9907	0.3627	0.9332	0.375
Mof_C 	C 	0.9884	0.3858	0.9522	-0.174
Mof_O 	O 	0.98974	0.36508	0.90761	-0.338
Mof_C 	C 	0.9826	0.4103	0.9417	0.064
Mof_C 	C 	0.9937	0.383	0.9777	0.075
Mof_H 	H 	0.9796	0.4116	0.923	0.005
Mof_C 	C 	0.9809	0.435	0.9581	-0.144
Mof_C 	C 	0.9907	0.4064	0.9965	-0.144
Mof_H 	H 	0.9995	0.3662	0.9844	0.001
Mof_H 	H 	0.9771	0.4519	0.9504	0.077
Mof_C 	C 	0.9851	0.4318	0.9863	0.062
Mof_H 	H 	0.9927	0.4039	0.0153	0.065
Mof_C 	C 	0.9822	0.4567	0.0031	0.018
Mof_C 	C 	0.9599	0.4735	0.9997	-0.092
Mof_H 	H 	0.9472	0.47	0.986	0.056
Mof_Mo	Mo	0.56018	0.79167	0.39321	1.039
Mof_O 	O 	0.52567	0.81165	0.39601	-0.748
Mof_O 	O 	0.58438	0.75694	0.39072	-0.493
Mof_O 	O 	0.55196	0.78218	0.43163	-0.64
Mof_O 	O 	0.55641	0.78637	0.35442	-0.746
Mof_Mo	Mo	0.53274	0.75266	0.44397	1.236
Mof_Mo	Mo	0.56652	0.71915	0.39269	1.128
Mof_Zn	Zn	0.49482	0.80894	0.42156	1.227
Mof_O 	O 	0.50275	0.72512	0.44123	-0.761
Mof_O 	O 	0.558	0.72614	0.4292	-0.647
Mof_O 	O 	0.49387	0.84094	0.44521	-0.5
Mof_C 	C 	0.4907	0.8627	0.4332	0.375
Mof_C 	C 	0.4884	0.8858	0.4522	-0.174
Mof_O 	O 	0.48974	0.86508	0.40761	-0.338
Mof_C 	C 	0.4826	0.9103	0.4417	0.064
Mof_C 	C 	0.4937	0.883	0.4777	0.075
Mof_H 	H 	0.4796	0.9116	0.423	0.005
Mof_C 	C 	0.4809	0.935	0.4581	-0.144
Mof_C 	C 	0.4907	0.9064	0.4965	-0.144
Mof_H 	H 	0.4995	0.8662	0.4844	0.001
Mof_H 	H 	0.4771	0.9519	0.4504	0.077
Mof_C 	C 	0.4851	0.9318	0.4863	0.062
Mof_H 	H 	0.4927	0.9039	0.5153	0.065
Mof_C 	C 	0.4822	0.9567	0.5031	0.018
Mof_C 	C 	0.4599	0.9735	0.4997	-0.092
Mof_H 	H 	0.4472	0.97	0.486	0.056
Mof_Mo	Mo	0.43982	0.70833	0.39321	1.039
Mof_O 	O 	0.47433	0.68835	0.39601	-0.748
Mof_O 	O 	0.41562	0.74306	0.39072	-0.493
Mof_O 	O 	0.44804	0.71782	0.43163	-0.64
Mof_O 	O 	0.44359	0.71363	0.35442	-0.746
Mof_Mo	Mo	0.46726	0.74734	0.44397	1.236
Mof_Mo	Mo	0.43348	0.78085	0.39269	1.128
Mof_Zn	Zn	0.50518	0.69106	0.42156	1.227
Mof_O 	O 	0.49725	0.77488	0.44123	-0.761
Mof_O 	O 	0.442	0.77386	0.4292	-0.647
Mof_O 	O 	0.50613	0.65906	0.44521	-0.5
Mof_C 	C 	0.5093	0.6373	0.4332	0.375
Mof_C 	C 	0.5116	0.6142	0.4522	-0.174
Mof_O 	O 	0.51026	0.63492	0.40761	-0.338
Mof_C 	C 	0.5174	0.5897	0.4417	0.064
Mof_C 	C 	0.5063	0.617	0.4777	0.075
Mof_H 	H 	0.5204	0.5884	0.423	0.005
Mof_C 	C 	0.5191	0.565	0.4581	-0.144
Mof_C 	C 	0.5093	0.5936	0.4965	-0.144
Mof_H 	H 	0.5005	0.6338	0.4844	0.001
Mof_H 	H 	0.5229	0.5481	0.4504	0.077
Mof_C 	C 	0.5149	0.5682	0.4863	0.062
Mof_H 	H 	0.5073	0.5961	0.5153	0.065
Mof_C 	C 	0.5178	0.5433	0.5031	0.018
Mof_C 	C 	0.5401	0.5265	0.4997	-0.092
Mof_H 	H 	0.5528	0.53	0.486	0.056
Mof_Mo	Mo	0.93982	0.20833	0.89321	1.039
Mof_O 	O 	0.97433	0.18835	0.89601	-0.748
Mof_O 	O 	0.91562	0.24306	0.89072	-0.493
Mof_O 	O 	0.94804	0.21782	0.93163	-0.64
Mof_O 	O 	0.94359	0.21363	0.85442	-0.746
Mof_Mo	Mo	0.96726	0.24734	0.94397	1.236
Mof_Mo	Mo	0.93348	0.28085	0.89269	1.128
Mof_Zn	Zn	0.00518	0.19106	0.92156	1.227
Mof_O 	O 	0.99725	0.27488	0.94123	-0.761
Mof_O 	O 	0.942	0.27386	0.9292	-0.647
Mof_O 	O 	0.00613	0.15906	0.94521	-0.5
Mof_C 	C 	0.0093	0.1373	0.9332	0.375
Mof_C 	C 	0.0116	0.1142	0.9522	-0.174
Mof_O 	O 	0.01026	0.13492	0.90761	-0.338
Mof_C 	C 	0.0174	0.0897	0.9417	0.064
Mof_C 	C 	0.0063	0.117	0.9777	0.075
Mof_H 	H 	0.0204	0.0884	0.923	0.005
Mof_C 	C 	0.0191	0.065	0.9581	-0.144
Mof_C 	C 	0.0093	0.0936	0.9965	-0.144
Mof_H 	H 	0.0005	0.1338	0.9844	0.001
Mof_H 	H 	0.0229	0.0481	0.9504	0.077
Mof_C 	C 	0.0149	0.0682	0.9863	0.062
Mof_H 	H 	0.0073	0.0961	0.0153	0.065
Mof_C 	C 	0.0178	0.0433	0.0031	0.018
Mof_C 	C 	0.0401	0.0265	0.9997	-0.092
Mof_H 	H 	0.0528	0.03	0.986	0.056
Mof_Mo	Mo	0.56018	0.20833	0.10679	1.039
Mof_O 	O 	0.52567	0.18835	0.10399	-0.748
Mof_O 	O 	0.58438	0.24306	0.10928	-0.493
Mof_O 	O 	0.55196	0.21782	0.06837	-0.64
Mof_O 	O 	0.55641	0.21363	0.14558	-0.746
Mof_Mo	Mo	0.53274	0.24734	0.05603	1.236
Mof_Mo	Mo	0.56652	0.28085	0.10731	1.128
Mof_Zn	Zn	0.49482	0.19106	0.07844	1.227
Mof_O 	O 	0.50275	0.27488	0.05877	-0.761
Mof_O 	O 	0.558	0.27386	0.0708	-0.647
Mof_O 	O 	0.49387	0.15906	0.05479	-0.5
Mof_C 	C 	0.4907	0.1373	0.0668	0.375
Mof_C 	C 	0.4884	0.1142	0.0478	-0.174
Mof_O 	O 	0.48974	0.13492	0.09239	-0.338
Mof_C 	C 	0.4826	0.0897	0.0583	0.064
Mof_C 	C 	0.4937	0.117	0.0223	0.075
Mof_H 	H 	0.4796	0.0884	0.077	0.005
Mof_C 	C 	0.4809	0.065	0.0419	-0.144
Mof_C 	C 	0.4907	0.0936	0.0035	-0.144
Mof_H 	H 	0.4995	0.1338	0.0156	0.001
Mof_H 	H 	0.4771	0.0481	0.0496	0.077
Mof_C 	C 	0.4851	0.0682	0.0137	0.062
Mof_H 	H 	0.4927	0.0961	0.9847	0.065
Mof_C 	C 	0.4822	0.0433	0.9969	0.018
Mof_C 	C 	0.4599	0.0265	0.0003	-0.092
Mof_H 	H 	0.4472	0.03	0.014	0.056
Mof_Mo	Mo	0.06018	0.70833	0.60679	1.039
Mof_O 	O 	0.02567	0.68835	0.60399	-0.748
Mof_O 	O 	0.08438	0.74306	0.60928	-0.493
Mof_O 	O 	0.05196	0.71782	0.56837	-0.64
Mof_O 	O 	0.05641	0.71363	0.64558	-0.746
Mof_Mo	Mo	0.03274	0.74734	0.55603	1.236
Mof_Mo	Mo	0.06652	0.78085	0.60731	1.128
Mof_Zn	Zn	0.99482	0.69106	0.57844	1.227
Mof_O 	O 	0.00275	0.77488	0.55877	-0.761
Mof_O 	O 	0.058	0.77386	0.5708	-0.647
Mof_O 	O 	0.99387	0.65906	0.55479	-0.5
Mof_C 	C 	0.9907	0.6373	0.5668	0.375
Mof_C 	C 	0.9884	0.6142	0.5478	-0.174
Mof_O 	O 	0.98974	0.63492	0.59239	-0.338
Mof_C 	C 	0.9826	0.5897	0.5583	0.064
Mof_C 	C 	0.9937	0.617	0.5223	0.075
Mof_H 	H 	0.9796	0.5884	0.577	0.005
Mof_C 	C 	0.9809	0.565	0.5419	-0.144
Mof_C 	C 	0.9907	0.5936	0.5035	-0.144
Mof_H 	H 	0.9995	0.6338	0.5156	0.001
Mof_H 	H 	0.9771	0.5481	0.5496	0.077
Mof_C 	C 	0.9851	0.5682	0.5137	0.062
Mof_H 	H 	0.9927	0.5961	0.4847	0.065
Mof_C 	C 	0.9822	0.5433	0.4969	0.018
Mof_C 	C 	0.9599	0.5265	0.5003	-0.092
Mof_H 	H 	0.9472	0.53	0.514	0.056
Mof_Mo	Mo	0.31018	0.14321	0.54167	1.039
Mof_O 	O 	0.27567	0.14601	0.56165	-0.748
Mof_O 	O 	0.33438	0.14072	0.50694	-0.493
Mof_O 	O 	0.30196	0.18163	0.53218	-0.64
Mof_O 	O 	0.30641	0.10442	0.53637	-0.746
Mof_Mo	Mo	0.28274	0.19397	0.50266	1.236
Mof_Mo	Mo	0.31652	0.14269	0.46915	1.128
Mof_Zn	Zn	0.24482	0.17156	0.55894	1.227
Mof_O 	O 	0.25275	0.19123	0.47512	-0.761
Mof_O 	O 	0.308	0.1792	0.47614	-0.647
Mof_O 	O 	0.24387	0.19521	0.59094	-0.5
Mof_C 	C 	0.2407	0.1832	0.6127	0.375
Mof_C 	C 	0.2384	0.2022	0.6358	-0.174
Mof_O 	O 	0.23974	0.15761	0.61508	-0.338
Mof_C 	C 	0.2326	0.1917	0.6603	0.064
Mof_C 	C 	0.2437	0.2277	0.633	0.075
Mof_H 	H 	0.2296	0.173	0.6616	0.005
Mof_C 	C 	0.2309	0.2081	0.685	-0.144
Mof_C 	C 	0.2407	0.2465	0.6564	-0.144
Mof_H 	H 	0.2495	0.2344	0.6162	0.001
Mof_H 	H 	0.2271	0.2004	0.7019	0.077
Mof_C 	C 	0.2351	0.2363	0.6818	0.062
Mof_H 	H 	0.2427	0.2653	0.6539	0.065
Mof_C 	C 	0.2322	0.2531	0.7067	0.018
Mof_C 	C 	0.2099	0.2497	0.7235	-0.092
Mof_H 	H 	0.1972	0.236	0.72	0.056
Mof_Mo	Mo	0.81018	0.64321	0.04167	1.039
Mof_O 	O 	0.77567	0.64601	0.06165	-0.748
Mof_O 	O 	0.83438	0.64072	0.00694	-0.493
Mof_O 	O 	0.80196	0.68163	0.03218	-0.64
Mof_O 	O 	0.80641	0.60442	0.03637	-0.746
Mof_Mo	Mo	0.78274	0.69397	0.00266	1.236
Mof_Mo	Mo	0.81652	0.64269	0.96915	1.128
Mof_Zn	Zn	0.74482	0.67156	0.05894	1.227
Mof_O 	O 	0.75275	0.69123	0.97512	-0.761
Mof_O 	O 	0.808	0.6792	0.97614	-0.647
Mof_O 	O 	0.74387	0.69521	0.09094	-0.5
Mof_C 	C 	0.7407	0.6832	0.1127	0.375
Mof_C 	C 	0.7384	0.7022	0.1358	-0.174
Mof_O 	O 	0.73974	0.65761	0.11508	-0.338
Mof_C 	C 	0.7326	0.6917	0.1603	0.064
Mof_C 	C 	0.7437	0.7277	0.133	0.075
Mof_H 	H 	0.7296	0.673	0.1616	0.005
Mof_C 	C 	0.7309	0.7081	0.185	-0.144
Mof_C 	C 	0.7407	0.7465	0.1564	-0.144
Mof_H 	H 	0.7495	0.7344	0.1162	0.001
Mof_H 	H 	0.7271	0.7004	0.2019	0.077
Mof_C 	C 	0.7351	0.7363	0.1818	0.062
Mof_H 	H 	0.7427	0.7653	0.1539	0.065
Mof_C 	C 	0.7322	0.7531	0.2067	0.018
Mof_C 	C 	0.7099	0.7497	0.2235	-0.092
Mof_H 	H 	0.6972	0.736	0.22	0.056
Mof_Mo	Mo	0.18982	0.85679	0.04167	1.039
Mof_O 	O 	0.22433	0.85399	0.06165	-0.748
Mof_O 	O 	0.16562	0.85928	0.00694	-0.493
Mof_O 	O 	0.19804	0.81837	0.03218	-0.64
Mof_O 	O 	0.19359	0.89558	0.03637	-0.746
Mof_Mo	Mo	0.21726	0.80603	0.00266	1.236
Mof_Mo	Mo	0.18348	0.85731	0.96915	1.128
Mof_Zn	Zn	0.25518	0.82844	0.05894	1.227
Mof_O 	O 	0.24725	0.80877	0.97512	-0.761
Mof_O 	O 	0.192	0.8208	0.97614	-0.647
Mof_O 	O 	0.25613	0.80479	0.09094	-0.5
Mof_C 	C 	0.2593	0.8168	0.1127	0.375
Mof_C 	C 	0.2616	0.7978	0.1358	-0.174
Mof_O 	O 	0.26026	0.84239	0.11508	-0.338
Mof_C 	C 	0.2674	0.8083	0.1603	0.064
Mof_C 	C 	0.2563	0.7723	0.133	0.075
Mof_H 	H 	0.2704	0.827	0.1616	0.005
Mof_C 	C 	0.2691	0.7919	0.185	-0.144
Mof_C 	C 	0.2593	0.7535	0.1564	-0.144
Mof_H 	H 	0.2505	0.7656	0.1162	0.001
Mof_H 	H 	0.2729	0.7996	0.2019	0.077
Mof_C 	C 	0.2649	0.7637	0.1818	0.062
Mof_H 	H 	0.2573	0.7347	0.1539	0.065
Mof_C 	C 	0.2678	0.7469	0.2067	0.018
Mof_C 	C 	0.2901	0.7503	0.2235	-0.092
Mof_H 	H 	0.3028	0.764	0.22	0.056
Mof_Mo	Mo	0.68982	0.35679	0.54167	1.039
Mof_O 	O 	0.72433	0.35399	0.56165	-0.748
Mof_O 	O 	0.66562	0.35928	0.50694	-0.493
Mof_O 	O 	0.69804	0.31837	0.53218	-0.64
Mof_O 	O 	0.69359	0.39558	0.53637	-0.746
Mof_Mo	Mo	0.71726	0.30603	0.50266	1.236
Mof_Mo	Mo	0.68348	0.35731	0.46915	1.128
Mof_Zn	Zn	0.75518	0.32844	0.55894	1.227
Mof_O 	O 	0.74725	0.30877	0.47512	-0.761
Mof_O 	O 	0.692	0.3208	0.47614	-0.647
Mof_O 	O 	0.75613	0.30479	0.59094	-0.5
Mof_C 	C 	0.7593	0.3168	0.6127	0.375
Mof_C 	C 	0.7616	0.2978	0.6358	-0.174
Mof_O 	O 	0.76026	0.34239	0.61508	-0.338
Mof_C 	C 	0.7674	0.3083	0.6603	0.064
Mof_C 	C 	0.7563	0.2723	0.633	0.075
Mof_H 	H 	0.7704	0.327	0.6616	0.005
Mof_C 	C 	0.7691	0.2919	0.685	-0.144
Mof_C 	C 	0.7593	0.2535	0.6564	-0.144
Mof_H 	H 	0.7505	0.2656	0.6162	0.001
Mof_H 	H 	0.7729	0.2996	0.7019	0.077
Mof_C 	C 	0.7649	0.2637	0.6818	0.062
Mof_H 	H 	0.7573	0.2347	0.6539	0.065
Mof_C 	C 	0.7678	0.2469	0.7067	0.018
Mof_C 	C 	0.7901	0.2503	0.7235	-0.092
Mof_H 	H 	0.8028	0.264	0.72	0.056
Mof_Mo	Mo	0.81018	0.35679	0.45833	1.039
Mof_O 	O 	0.77567	0.35399	0.43835	-0.748
Mof_O 	O 	0.83438	0.35928	0.49306	-0.493
Mof_O 	O 	0.80196	0.31837	0.46782	-0.64
Mof_O 	O 	0.80641	0.39558	0.46363	-0.746
Mof_Mo	Mo	0.78274	0.30603	0.49734	1.236
Mof_Mo	Mo	0.81652	0.35731	0.53085	1.128
Mof_Zn	Zn	0.74482	0.32844	0.44106	1.227
Mof_O 	O 	0.75275	0.30877	0.52488	-0.761
Mof_O 	O 	0.808	0.3208	0.52386	-0.647
Mof_O 	O 	0.74387	0.30479	0.40906	-0.5
Mof_C 	C 	0.7407	0.3168	0.3873	0.375
Mof_C 	C 	0.7384	0.2978	0.3642	-0.174
Mof_O 	O 	0.73974	0.34239	0.38492	-0.338
Mof_C 	C 	0.7326	0.3083	0.3397	0.064
Mof_C 	C 	0.7437	0.2723	0.367	0.075
Mof_H 	H 	0.7296	0.327	0.3384	0.005
Mof_C 	C 	0.7309	0.2919	0.315	-0.144
Mof_C 	C 	0.7407	0.2535	0.3436	-0.144
Mof_H 	H 	0.7495	0.2656	0.3838	0.001
Mof_H 	H 	0.7271	0.2996	0.2981	0.077
Mof_C 	C 	0.7351	0.2637	0.3182	0.062
Mof_H 	H 	0.7427	0.2347	0.3461	0.065
Mof_C 	C 	0.7322	0.2469	0.2933	0.018
Mof_C 	C 	0.7099	0.2503	0.2765	-0.092
Mof_H 	H 	0.6972	0.264	0.28	0.056
Mof_Mo	Mo	0.31018	0.85679	0.95833	1.039
Mof_O 	O 	0.27567	0.85399	0.93835	-0.748
Mof_O 	O 	0.33438	0.85928	0.99306	-0.493
Mof_O 	O 	0.30196	0.81837	0.96782	-0.64
Mof_O 	O 	0.30641	0.89558	0.96363	-0.746
Mof_Mo	Mo	0.28274	0.80603	0.99734	1.236
Mof_Mo	Mo	0.31652	0.85731	0.03085	1.128
Mof_Zn	Zn	0.24482	0.82844	0.94106	1.227
Mof_O 	O 	0.25275	0.80877	0.02488	-0.761
Mof_O 	O 	0.308	0.8208	0.02386	-0.647
Mof_O 	O 	0.24387	0.80479	0.90906	-0.5
Mof_C 	C 	0.2407	0.8168	0.8873	0.375
Mof_C 	C 	0.2384	0.7978	0.8642	-0.174
Mof_O 	O 	0.23974	0.84239	0.88492	-0.338
Mof_C 	C 	0.2326	0.8083	0.8397	0.064
Mof_C 	C 	0.2437	0.7723	0.867	0.075
Mof_H 	H 	0.2296	0.827	0.8384	0.005
Mof_C 	C 	0.2309	0.7919	0.815	-0.144
Mof_C 	C 	0.2407	0.7535	0.8436	-0.144
Mof_H 	H 	0.2495	0.7656	0.8838	0.001
Mof_H 	H 	0.2271	0.7996	0.7981	0.077
Mof_C 	C 	0.2351	0.7637	0.8182	0.062
Mof_H 	H 	0.2427	0.7347	0.8461	0.065
Mof_C 	C 	0.2322	0.7469	0.7933	0.018
Mof_C 	C 	0.2099	0.7503	0.7765	-0.092
Mof_H 	H 	0.1972	0.764	0.78	0.056
Mof_Mo	Mo	0.68982	0.64321	0.95833	1.039
Mof_O 	O 	0.72433	0.64601	0.93835	-0.748
Mof_O 	O 	0.66562	0.64072	0.99306	-0.493
Mof_O 	O 	0.69804	0.68163	0.96782	-0.64
Mof_O 	O 	0.69359	0.60442	0.96363	-0.746
Mof_Mo	Mo	0.71726	0.69397	0.99734	1.236
Mof_Mo	Mo	0.68348	0.64269	0.03085	1.128
Mof_Zn	Zn	0.75518	0.67156	0.94106	1.227
Mof_O 	O 	0.74725	0.69123	0.02488	-0.761
Mof_O 	O 	0.692	0.6792	0.02386	-0.647
Mof_O 	O 	0.75613	0.69521	0.90906	-0.5
Mof_C 	C 	0.7593	0.6832	0.8873	0.375
Mof_C 	C 	0.7616	0.7022	0.8642	-0.174
Mof_O 	O 	0.76026	0.65761	0.88492	-0.338
Mof_C 	C 	0.7674	0.6917	0.8397	0.064
Mof_C 	C 	0.7563	0.7277	0.867	0.075
Mof_H 	H 	0.7704	0.673	0.8384	0.005
Mof_C 	C 	0.7691	0.7081	0.815	-0.144
Mof_C 	C 	0.7593	0.7465	0.8436	-0.144
Mof_H 	H 	0.7505	0.7344	0.8838	0.001
Mof_H 	H 	0.7729	0.7004	0.7981	0.077
Mof_C 	C 	0.7649	0.7363	0.8182	0.062
Mof_H 	H 	0.7573	0.7653	0.8461	0.065
Mof_C 	C 	0.7678	0.7531	0.7933	0.018
Mof_C 	C 	0.7901	0.7497	0.7765	-0.092
Mof_H 	H 	0.8028	0.736	0.78	0.056
Mof_Mo	Mo	0.18982	0.14321	0.45833	1.039
Mof_O 	O 	0.22433	0.14601	0.43835	-0.748
Mof_O 	O 	0.16562	0.14072	0.49306	-0.493
Mof_O 	O 	0.19804	0.18163	0.46782	-0.64
Mof_O 	O 	0.19359	0.10442	0.46363	-0.746
Mof_Mo	Mo	0.21726	0.19397	0.49734	1.236
Mof_Mo	Mo	0.18348	0.14269	0.53085	1.128
Mof_Zn	Zn	0.25518	0.17156	0.44106	1.227
Mof_O 	O 	0.24725	0.19123	0.52488	-0.761
Mof_O 	O 	0.192	0.1792	0.52386	-0.647
Mof_O 	O 	0.25613	0.19521	0.40906	-0.5
Mof_C 	C 	0.2593	0.1832	0.3873	0.375
Mof_C 	C 	0.2616	0.2022	0.3642	-0.174
Mof_O 	O 	0.26026	0.15761	0.38492	-0.338
Mof_C 	C 	0.2674	0.1917	0.3397	0.064
Mof_C 	C 	0.2563	0.2277	0.367	0.075
Mof_H 	H 	0.2704	0.173	0.3384	0.005
Mof_C 	C 	0.2691	0.2081	0.315	-0.144
Mof_C 	C 	0.2593	0.2465	0.3436	-0.144
Mof_H 	H 	0.2505	0.2344	0.3838	0.001
Mof_H 	H 	0.2729	0.2004	0.2981	0.077
Mof_C 	C 	0.2649	0.2363	0.3182	0.062
Mof_H 	H 	0.2573	0.2653	0.3461	0.065
Mof_C 	C 	0.2678	0.2531	0.2933	0.018
Mof_C 	C 	0.2901	0.2497	0.2765	-0.092
Mof_H 	H 	0.3028	0.236	0.28	0.056
Mof_Mo	Mo	0.64321	0.95833	0.68982	1.039
Mof_O 	O 	0.64601	0.93835	0.72433	-0.748
Mof_O 	O 	0.64072	0.99306	0.66562	-0.493
Mof_O 	O 	0.68163	0.96782	0.69804	-0.64
Mof_O 	O 	0.60442	0.96363	0.69359	-0.746
Mof_Mo	Mo	0.69397	0.99734	0.71726	1.236
Mof_Mo	Mo	0.64269	0.03085	0.68348	1.128
Mof_Zn	Zn	0.67156	0.94106	0.75518	1.227
Mof_O 	O 	0.69123	0.02488	0.74725	-0.761
Mof_O 	O 	0.6792	0.02386	0.692	-0.647
Mof_O 	O 	0.69521	0.90906	0.75613	-0.5
Mof_C 	C 	0.6832	0.8873	0.7593	0.375
Mof_C 	C 	0.7022	0.8642	0.7616	-0.174
Mof_O 	O 	0.65761	0.88492	0.76026	-0.338
Mof_C 	C 	0.6917	0.8397	0.7674	0.064
Mof_C 	C 	0.7277	0.867	0.7563	0.075
Mof_H 	H 	0.673	0.8384	0.7704	0.005
Mof_C 	C 	0.7081	0.815	0.7691	-0.144
Mof_C 	C 	0.7465	0.8436	0.7593	-0.144
Mof_H 	H 	0.7344	0.8838	0.7505	0.001
Mof_H 	H 	0.7004	0.7981	0.7729	0.077
Mof_C 	C 	0.7363	0.8182	0.7649	0.062
Mof_H 	H 	0.7653	0.8461	0.7573	0.065
Mof_C 	C 	0.7531	0.7933	0.7678	0.018
Mof_C 	C 	0.7497	0.7765	0.7901	-0.092
Mof_H 	H 	0.736	0.78	0.8028	0.056
Mof_Mo	Mo	0.14321	0.45833	0.18982	1.039
Mof_O 	O 	0.14601	0.43835	0.22433	-0.748
Mof_O 	O 	0.14072	0.49306	0.16562	-0.493
Mof_O 	O 	0.18163	0.46782	0.19804	-0.64
Mof_O 	O 	0.10442	0.46363	0.19359	-0.746
Mof_Mo	Mo	0.19397	0.49734	0.21726	1.236
Mof_Mo	Mo	0.14269	0.53085	0.18348	1.128
Mof_Zn	Zn	0.17156	0.44106	0.25518	1.227
Mof_O 	O 	0.19123	0.52488	0.24725	-0.761
Mof_O 	O 	0.1792	0.52386	0.192	-0.647
Mof_O 	O 	0.19521	0.40906	0.25613	-0.5
Mof_C 	C 	0.1832	0.3873	0.2593	0.375
Mof_C 	C 	0.2022	0.3642	0.2616	-0.174
Mof_O 	O 	0.15761	0.38492	0.26026	-0.338
Mof_C 	C 	0.1917	0.3397	0.2674	0.064
Mof_C 	C 	0.2277	0.367	0.2563	0.075
Mof_H 	H 	0.173	0.3384	0.2704	0.005
Mof_C 	C 	0.2081	0.315	0.2691	-0.144
Mof_C 	C 	0.2465	0.3436	0.2593	-0.144
Mof_H 	H 	0.2344	0.3838	0.2505	0.001
Mof_H 	H 	0.2004	0.2981	0.2729	0.077
Mof_C 	C 	0.2363	0.3182	0.2649	0.062
Mof_H 	H 	0.2653	0.3461	0.2573	0.065
Mof_C 	C 	0.2531	0.2933	0.2678	0.018
Mof_C 	C 	0.2497	0.2765	0.2901	-0.092
Mof_H 	H 	0.236	0.28	0.3028	0.056
Mof_Mo	Mo	0.35679	0.45833	0.81018	1.039
Mof_O 	O 	0.35399	0.43835	0.77567	-0.748
Mof_O 	O 	0.35928	0.49306	0.83438	-0.493
Mof_O 	O 	0.31837	0.46782	0.80196	-0.64
Mof_O 	O 	0.39558	0.46363	0.80641	-0.746
Mof_Mo	Mo	0.30603	0.49734	0.78274	1.236
Mof_Mo	Mo	0.35731	0.53085	0.81652	1.128
Mof_Zn	Zn	0.32844	0.44106	0.74482	1.227
Mof_O 	O 	0.30877	0.52488	0.75275	-0.761
Mof_O 	O 	0.3208	0.52386	0.808	-0.647
Mof_O 	O 	0.30479	0.40906	0.74387	-0.5
Mof_C 	C 	0.3168	0.3873	0.7407	0.375
Mof_C 	C 	0.2978	0.3642	0.7384	-0.174
Mof_O 	O 	0.34239	0.38492	0.73974	-0.338
Mof_C 	C 	0.3083	0.3397	0.7326	0.064
Mof_C 	C 	0.2723	0.367	0.7437	0.075
Mof_H 	H 	0.327	0.3384	0.7296	0.005
Mof_C 	C 	0.2919	0.315	0.7309	-0.144
Mof_C 	C 	0.2535	0.3436	0.7407	-0.144
Mof_H 	H 	0.2656	0.3838	0.7495	0.001
Mof_H 	H 	0.2996	0.2981	0.7271	0.077
Mof_C 	C 	0.2637	0.3182	0.7351	0.062
Mof_H 	H 	0.2347	0.3461	0.7427	0.065
Mof_C 	C 	0.2469	0.2933	0.7322	0.018
Mof_C 	C 	0.2503	0.2765	0.7099	-0.092
Mof_H 	H 	0.264	0.28	0.6972	0.056
Mof_Mo	Mo	0.85679	0.95833	0.31018	1.039
Mof_O 	O 	0.85399	0.93835	0.27567	-0.748
Mof_O 	O 	0.85928	0.99306	0.33438	-0.493
Mof_O 	O 	0.81837	0.96782	0.30196	-0.64
Mof_O 	O 	0.89558	0.96363	0.30641	-0.746
Mof_Mo	Mo	0.80603	0.99734	0.28274	1.236
Mof_Mo	Mo	0.85731	0.03085	0.31652	1.128
Mof_Zn	Zn	0.82844	0.94106	0.24482	1.227
Mof_O 	O 	0.80877	0.02488	0.25275	-0.761
Mof_O 	O 	0.8208	0.02386	0.308	-0.647
Mof_O 	O 	0.80479	0.90906	0.24387	-0.5
Mof_C 	C 	0.8168	0.8873	0.2407	0.375
Mof_C 	C 	0.7978	0.8642	0.2384	-0.174
Mof_O 	O 	0.84239	0.88492	0.23974	-0.338
Mof_C 	C 	0.8083	0.8397	0.2326	0.064
Mof_C 	C 	0.7723	0.867	0.2437	0.075
Mof_H 	H 	0.827	0.8384	0.2296	0.005
Mof_C 	C 	0.7919	0.815	0.2309	-0.144
Mof_C 	C 	0.7535	0.8436	0.2407	-0.144
Mof_H 	H 	0.7656	0.8838	0.2495	0.001
Mof_H 	H 	0.7996	0.7981	0.2271	0.077
Mof_C 	C 	0.7637	0.8182	0.2351	0.062
Mof_H 	H 	0.7347	0.8461	0.2427	0.065
Mof_C 	C 	0.7469	0.7933	0.2322	0.018
Mof_C 	C 	0.7503	0.7765	0.2099	-0.092
Mof_H 	H 	0.764	0.78	0.1972	0.056
Mof_Mo	Mo	0.85679	0.04167	0.18982	1.039
Mof_O 	O 	0.85399	0.06165	0.22433	-0.748
Mof_O 	O 	0.85928	0.00694	0.16562	-0.493
Mof_O 	O 	0.81837	0.03218	0.19804	-0.64
Mof_O 	O 	0.89558	0.03637	0.19359	-0.746
Mof_Mo	Mo	0.80603	0.00266	0.21726	1.236
Mof_Mo	Mo	0.85731	0.96915	0.18348	1.128
Mof_Zn	Zn	0.82844	0.05894	0.25518	1.227
Mof_O 	O 	0.80877	0.97512	0.24725	-0.761
Mof_O 	O 	0.8208	0.97614	0.192	-0.647
Mof_O 	O 	0.80479	0.09094	0.25613	-0.5
Mof_C 	C 	0.8168	0.1127	0.2593	0.375
Mof_C 	C 	0.7978	0.1358	0.2616	-0.174
Mof_O 	O 	0.84239	0.11508	0.26026	-0.338
Mof_C 	C 	0.8083	0.1603	0.2674	0.064
Mof_C 	C 	0.7723	0.133	0.2563	0.075
Mof_H 	H 	0.827	0.1616	0.2704	0.005
Mof_C 	C 	0.7919	0.185	0.2691	-0.144
Mof_C 	C 	0.7535	0.1564	0.2593	-0.144
Mof_H 	H 	0.7656	0.1162	0.2505	0.001
Mof_H 	H 	0.7996	0.2019	0.2729	0.077
Mof_C 	C 	0.7637	0.1818	0.2649	0.062
Mof_H 	H 	0.7347	0.1539	0.2573	0.065
Mof_C 	C 	0.7469	0.2067	0.2678	0.018
Mof_C 	C 	0.7503	0.2235	0.2901	-0.092
Mof_H 	H 	0.764	0.22	0.3028	0.056
Mof_Mo	Mo	0.35679	0.54167	0.68982	1.039
Mof_O 	O 	0.35399	0.56165	0.72433	-0.748
Mof_O 	O 	0.35928	0.50694	0.66562	-0.493
Mof_O 	O 	0.31837	0.53218	0.69804	-0.64
Mof_O 	O 	0.39558	0.53637	0.69359	-0.746
Mof_Mo	Mo	0.30603	0.50266	0.71726	1.236
Mof_Mo	Mo	0.35731	0.46915	0.68348	1.128
Mof_Zn	Zn	0.32844	0.55894	0.75518	1.227
Mof_O 	O 	0.30877	0.47512	0.74725	-0.761
Mof_O 	O 	0.3208	0.47614	0.692	-0.647
Mof_O 	O 	0.30479	0.59094	0.75613	-0.5
Mof_C 	C 	0.3168	0.6127	0.7593	0.375
Mof_C 	C 	0.2978	0.6358	0.7616	-0.174
Mof_O 	O 	0.34239	0.61508	0.76026	-0.338
Mof_C 	C 	0.3083	0.6603	0.7674	0.064
Mof_C 	C 	0.2723	0.633	0.7563	0.075
Mof_H 	H 	0.327	0.6616	0.7704	0.005
Mof_C 	C 	0.2919	0.685	0.7691	-0.144
Mof_C 	C 	0.2535	0.6564	0.7593	-0.144
Mof_H 	H 	0.2656	0.6162	0.7505	0.001
Mof_H 	H 	0.2996	0.7019	0.7729	0.077
Mof_C 	C 	0.2637	0.6818	0.7649	0.062
Mof_H 	H 	0.2347	0.6539	0.7573	0.065
Mof_C 	C 	0.2469	0.7067	0.7678	0.018
Mof_C 	C 	0.2503	0.7235	0.7901	-0.092
Mof_H 	H 	0.264	0.72	0.8028	0.056
Mof_Mo	Mo	0.14321	0.54167	0.31018	1.039
Mof_O 	O 	0.14601	0.56165	0.27567	-0.748
Mof_O 	O 	0.14072	0.50694	0.33438	-0.493
Mof_O 	O 	0.18163	0.53218	0.30196	-0.64
Mof_O 	O 	0.10442	0.53637	0.30641	-0.746
Mof_Mo	Mo	0.19397	0.50266	0.28274	1.236
Mof_Mo	Mo	0.14269	0.46915	0.31652	1.128
Mof_Zn	Zn	0.17156	0.55894	0.24482	1.227
Mof_O 	O 	0.19123	0.47512	0.25275	-0.761
Mof_O 	O 	0.1792	0.47614	0.308	-0.647
Mof_O 	O 	0.19521	0.59094	0.24387	-0.5
Mof_C 	C 	0.1832	0.6127	0.2407	0.375
Mof_C 	C 	0.2022	0.6358	0.2384	-0.174
Mof_O 	O 	0.15761	0.61508	0.23974	-0.338
Mof_C 	C 	0.1917	0.6603	0.2326	0.064
Mof_C 	C 	0.2277	0.633	0.2437	0.075
Mof_H 	H 	0.173	0.6616	0.2296	0.005
Mof_C 	C 	0.2081	0.685	0.2309	-0.144
Mof_C 	C 	0.2465	0.6564	0.2407	-0.144
Mof_H 	H 	0.2344	0.6162	0.2495	0.001
Mof_H 	H 	0.2004	0.7019	0.2271	0.077
Mof_C 	C 	0.2363	0.6818	0.2351	0.062
Mof_H 	H 	0.2653	0.6539	0.2427	0.065
Mof_C 	C 	0.2531	0.7067	0.2322	0.018
Mof_C 	C 	0.2497	0.7235	0.2099	-0.092
Mof_H 	H 	0.236	0.72	0.1972	0.056
Mof_Mo	Mo	0.64321	0.04167	0.81018	1.039
Mof_O 	O 	0.64601	0.06165	0.77567	-0.748
Mof_O 	O 	0.64072	0.00694	0.83438	-0.493
Mof_O 	O 	0.68163	0.03218	0.80196	-0.64
Mof_O 	O 	0.60442	0.03637	0.80641	-0.746
Mof_Mo	Mo	0.69397	0.00266	0.78274	1.236
Mof_Mo	Mo	0.64269	0.96915	0.81652	1.128
Mof_Zn	Zn	0.67156	0.05894	0.74482	1.227
Mof_O 	O 	0.69123	0.97512	0.75275	-0.761
Mof_O 	O 	0.6792	0.97614	0.808	-0.647
Mof_O 	O 	0.69521	0.09094	0.74387	-0.5
Mof_C 	C 	0.6832	0.1127	0.7407	0.375
Mof_C 	C 	0.7022	0.1358	0.7384	-0.174
Mof_O 	O 	0.65761	0.11508	0.73974	-0.338
Mof_C 	C 	0.6917	0.1603	0.7326	0.064
Mof_C 	C 	0.7277	0.133	0.7437	0.075
Mof_H 	H 	0.673	0.1616	0.7296	0.005
Mof_C 	C 	0.7081	0.185	0.7309	-0.144
Mof_C 	C 	0.7465	0.1564	0.7407	-0.144
Mof_H 	H 	0.7344	0.1162	0.7495	0.001
Mof_H 	H 	0.7004	0.2019	0.7271	0.077
Mof_C 	C 	0.7363	0.1818	0.7351	0.062
Mof_H 	H 	0.7653	0.1539	0.7427	0.065
Mof_C 	C 	0.7531	0.2067	0.7322	0.018
Mof_C 	C 	0.7497	0.2235	0.7099	-0.092
Mof_H 	H 	0.736	0.22	0.6972	0.056
Mof_Mo	Mo	0.45833	0.81018	0.35679	1.039
Mof_O 	O 	0.43835	0.77567	0.35399	-0.748
Mof_O 	O 	0.49306	0.83438	0.35928	-0.493
Mof_O 	O 	0.46782	0.80196	0.31837	-0.64
Mof_O 	O 	0.46363	0.80641	0.39558	-0.746
Mof_Mo	Mo	0.49734	0.78274	0.30603	1.236
Mof_Mo	Mo	0.53085	0.81652	0.35731	1.128
Mof_Zn	Zn	0.44106	0.74482	0.32844	1.227
Mof_O 	O 	0.52488	0.75275	0.30877	-0.761
Mof_O 	O 	0.52386	0.808	0.3208	-0.647
Mof_O 	O 	0.40906	0.74387	0.30479	-0.5
Mof_C 	C 	0.3873	0.7407	0.3168	0.375
Mof_C 	C 	0.3642	0.7384	0.2978	-0.174
Mof_O 	O 	0.38492	0.73974	0.34239	-0.338
Mof_C 	C 	0.3397	0.7326	0.3083	0.064
Mof_C 	C 	0.367	0.7437	0.2723	0.075
Mof_H 	H 	0.3384	0.7296	0.327	0.005
Mof_C 	C 	0.315	0.7309	0.2919	-0.144
Mof_C 	C 	0.3436	0.7407	0.2535	-0.144
Mof_H 	H 	0.3838	0.7495	0.2656	0.001
Mof_H 	H 	0.2981	0.7271	0.2996	0.077
Mof_C 	C 	0.3182	0.7351	0.2637	0.062
Mof_H 	H 	0.3461	0.7427	0.2347	0.065
Mof_C 	C 	0.2933	0.7322	0.2469	0.018
Mof_C 	C 	0.2765	0.7099	0.2503	-0.092
Mof_H 	H 	0.28	0.6972	0.264	0.056
Mof_Mo	Mo	0.95833	0.31018	0.85679	1.039
Mof_O 	O 	0.93835	0.27567	0.85399	-0.748
Mof_O 	O 	0.99306	0.33438	0.85928	-0.493
Mof_O 	O 	0.96782	0.30196	0.81837	-0.64
Mof_O 	O 	0.96363	0.30641	0.89558	-0.746
Mof_Mo	Mo	0.99734	0.28274	0.80603	1.236
Mof_Mo	Mo	0.03085	0.31652	0.85731	1.128
Mof_Zn	Zn	0.94106	0.24482	0.82844	1.227
Mof_O 	O 	0.02488	0.25275	0.80877	-0.761
Mof_O 	O 	0.02386	0.308	0.8208	-0.647
Mof_O 	O 	0.90906	0.24387	0.80479	-0.5
Mof_C 	C 	0.8873	0.2407	0.8168	0.375
Mof_C 	C 	0.8642	0.2384	0.7978	-0.174
Mof_O 	O 	0.88492	0.23974	0.84239	-0.338
Mof_C 	C 	0.8397	0.2326	0.8083	0.064
Mof_C 	C 	0.867	0.2437	0.7723	0.075
Mof_H 	H 	0.8384	0.2296	0.827	0.005
Mof_C 	C 	0.815	0.2309	0.7919	-0.144
Mof_C 	C 	0.8436	0.2407	0.7535	-0.144
Mof_H 	H 	0.8838	0.2495	0.7656	0.001
Mof_H 	H 	0.7981	0.2271	0.7996	0.077
Mof_C 	C 	0.8182	0.2351	0.7637	0.062
Mof_H 	H 	0.8461	0.2427	0.7347	0.065
Mof_C 	C 	0.7933	0.2322	0.7469	0.018
Mof_C 	C 	0.7765	0.2099	0.7503	-0.092
Mof_H 	H 	0.78	0.1972	0.764	0.056
Mof_Mo	Mo	0.95833	0.68982	0.64321	1.039
Mof_O 	O 	0.93835	0.72433	0.64601	-0.748
Mof_O 	O 	0.99306	0.66562	0.64072	-0.493
Mof_O 	O 	0.96782	0.69804	0.68163	-0.64
Mof_O 	O 	0.96363	0.69359	0.60442	-0.746
Mof_Mo	Mo	0.99734	0.71726	0.69397	1.236
Mof_Mo	Mo	0.03085	0.68348	0.64269	1.128
Mof_Zn	Zn	0.94106	0.75518	0.67156	1.227
Mof_O 	O 	0.02488	0.74725	0.69123	-0.761
Mof_O 	O 	0.02386	0.692	0.6792	-0.647
Mof_O 	O 	0.90906	0.75613	0.69521	-0.5
Mof_C 	C 	0.8873	0.7593	0.6832	0.375
Mof_C 	C 	0.8642	0.7616	0.7022	-0.174
Mof_O 	O 	0.88492	0.76026	0.65761	-0.338
Mof_C 	C 	0.8397	0.7674	0.6917	0.064
Mof_C 	C 	0.867	0.7563	0.7277	0.075
Mof_H 	H 	0.8384	0.7704	0.673	0.005
Mof_C 	C 	0.815	0.7691	0.7081	-0.144
Mof_C 	C 	0.8436	0.7593	0.7465	-0.144
Mof_H 	H 	0.8838	0.7505	0.7344	0.001
Mof_H 	H 	0.7981	0.7729	0.7004	0.077
Mof_C 	C 	0.8182	0.7649	0.7363	0.062
Mof_H 	H 	0.8461	0.7573	0.7653	0.065
Mof_C 	C 	0.7933	0.7678	0.7531	0.018
Mof_C 	C 	0.7765	0.7901	0.7497	-0.092
Mof_H 	H 	0.78	0.8028	0.736	0.056
Mof_Mo	Mo	0.45833	0.18982	0.14321	1.039
Mof_O 	O 	0.43835	0.22433	0.14601	-0.748
Mof_O 	O 	0.49306	0.16562	0.14072	-0.493
Mof_O 	O 	0.46782	0.19804	0.18163	-0.64
Mof_O 	O 	0.46363	0.19359	0.10442	-0.746
Mof_Mo	Mo	0.49734	0.21726	0.19397	1.236
Mof_Mo	Mo	0.53085	0.18348	0.14269	1.128
Mof_Zn	Zn	0.44106	0.25518	0.17156	1.227
Mof_O 	O 	0.52488	0.24725	0.19123	-0.761
Mof_O 	O 	0.52386	0.192	0.1792	-0.647
Mof_O 	O 	0.40906	0.25613	0.19521	-0.5
Mof_C 	C 	0.3873	0.2593	0.1832	0.375
Mof_C 	C 	0.3642	0.2616	0.2022	-0.174
Mof_O 	O 	0.38492	0.26026	0.15761	-0.338
Mof_C 	C 	0.3397	0.2674	0.1917	0.064
Mof_C 	C 	0.367	0.2563	0.2277	0.075
Mof_H 	H 	0.3384	0.2704	0.173	0.005
Mof_C 	C 	0.315	0.2691	0.2081	-0.144
Mof_C 	C 	0.3436	0.2593	0.2465	-0.144
Mof_H 	H 	0.3838	0.2505	0.2344	0.001
Mof_H 	H 	0.2981	0.2729	0.2004	0.077
Mof_C 	C 	0.3182	0.2649	0.2363	0.062
Mof_H 	H 	0.3461	0.2573	0.2653	0.065
Mof_C 	C 	0.2933	0.2678	0.2531	0.018
Mof_C 	C 	0.2765	0.2901	0.2497	-0.092
Mof_H 	H 	0.28	0.3028	0.236	0.056
Mof_Mo	Mo	0.54167	0.31018	0.14321	1.039
Mof_O 	O 	0.56165	0.27567	0.14601	-0.748
Mof_O 	O 	0.50694	0.33438	0.14072	-0.493
Mof_O 	O 	0.53218	0.30196	0.18163	-0.64
Mof_O 	O 	0.53637	0.30641	0.10442	-0.746
Mof_Mo	Mo	0.50266	0.28274	0.19397	1.236
Mof_Mo	Mo	0.46915	0.31652	0.14269	1.128
Mof_Zn	Zn	0.55894	0.24482	0.17156	1.227
Mof_O 	O 	0.47512	0.25275	0.19123	-0.761
Mof_O 	O 	0.47614	0.308	0.1792	-0.647
Mof_O 	O 	0.59094	0.24387	0.19521	-0.5
Mof_C 	C 	0.6127	0.2407	0.1832	0.375
Mof_C 	C 	0.6358	0.2384	0.2022	-0.174
Mof_O 	O 	0.61508	0.23974	0.15761	-0.338
Mof_C 	C 	0.6603	0.2326	0.1917	0.064
Mof_C 	C 	0.633	0.2437	0.2277	0.075
Mof_H 	H 	0.6616	0.2296	0.173	0.005
Mof_C 	C 	0.685	0.2309	0.2081	-0.144
Mof_C 	C 	0.6564	0.2407	0.2465	-0.144
Mof_H 	H 	0.6162	0.2495	0.2344	0.001
Mof_H 	H 	0.7019	0.2271	0.2004	0.077
Mof_C 	C 	0.6818	0.2351	0.2363	0.062
Mof_H 	H 	0.6539	0.2427	0.2653	0.065
Mof_C 	C 	0.7067	0.2322	0.2531	0.018
Mof_C 	C 	0.7235	0.2099	0.2497	-0.092
Mof_H 	H 	0.72	0.1972	0.236	0.056
Mof_Mo	Mo	0.04167	0.81018	0.64321	1.039
Mof_O 	O 	0.06165	0.77567	0.64601	-0.748
Mof_O 	O 	0.00694	0.83438	0.64072	-0.493
Mof_O 	O 	0.03218	0.80196	0.68163	-0.64
Mof_O 	O 	0.03637	0.80641	0.60442	-0.746
Mof_Mo	Mo	0.00266	0.78274	0.69397	1.236
Mof_Mo	Mo	0.96915	0.81652	0.64269	1.128
Mof_Zn	Zn	0.05894	0.74482	0.67156	1.227
Mof_O 	O 	0.97512	0.75275	0.69123	-0.761
Mof_O 	O 	0.97614	0.808	0.6792	-0.647
Mof_O 	O 	0.09094	0.74387	0.69521	-0.5
Mof_C 	C 	0.1127	0.7407	0.6832	0.375
Mof_C 	C 	0.1358	0.7384	0.7022	-0.174
Mof_O 	O 	0.11508	0.73974	0.65761	-0.338
Mof_C 	C 	0.1603	0.7326	0.6917	0.064
Mof_C 	C 	0.133	0.7437	0.7277	0.075
Mof_H 	H 	0.1616	0.7296	0.673	0.005
Mof_C 	C 	0.185	0.7309	0.7081	-0.144
Mof_C 	C 	0.1564	0.7407	0.7465	-0.144
Mof_H 	H 	0.1162	0.7495	0.7344	0.001
Mof_H 	H 	0.2019	0.7271	0.7004	0.077
Mof_C 	C 	0.1818	0.7351	0.7363	0.062
Mof_H 	H 	0.1539	0.7427	0.7653	0.065
Mof_C 	C 	0.2067	0.7322	0.7531	0.018
Mof_C 	C 	0.2235	0.7099	0.7497	-0.092
Mof_H 	H 	0.22	0.6972	0.736	0.056
Mof_Mo	Mo	0.04167	0.18982	0.85679	1.039
Mof_O 	O 	0.06165	0.22433	0.85399	-0.748
Mof_O 	O 	0.00694	0.16562	0.85928	-0.493
Mof_O 	O 	0.03218	0.19804	0.81837	-0.64
Mof_O 	O 	0.03637	0.19359	0.89558	-0.746
Mof_Mo	Mo	0.00266	0.21726	0.80603	1.236
Mof_Mo	Mo	0.96915	0.18348	0.85731	1.128
Mof_Zn	Zn	0.05894	0.25518	0.82844	1.227
Mof_O 	O 	0.97512	0.24725	0.80877	-0.761
Mof_O 	O 	0.97614	0.192	0.8208	-0.647
Mof_O 	O 	0.09094	0.25613	0.80479	-0.5
Mof_C 	C 	0.1127	0.2593	0.8168	0.375
Mof_C 	C 	0.1358	0.2616	0.7978	-0.174
Mof_O 	O 	0.11508	0.26026	0.84239	-0.338
Mof_C 	C 	0.1603	0.2674	0.8083	0.064
Mof_C 	C 	0.133	0.2563	0.7723	0.075
Mof_H 	H 	0.1616	0.2704	0.827	0.005
Mof_C 	C 	0.185	0.2691	0.7919	-0.144
Mof_C 	C 	0.1564	0.2593	0.7535	-0.144
Mof_H 	H 	0.1162	0.2505	0.7656	0.001
Mof_H 	H 	0.2019	0.2729	0.7996	0.077
Mof_C 	C 	0.1818	0.2649	0.7637	0.062
Mof_H 	H 	0.1539	0.2573	0.7347	0.065
Mof_C 	C 	0.2067	0.2678	0.7469	0.018
Mof_C 	C 	0.2235	0.2901	0.7503	-0.092
Mof_H 	H 	0.22	0.3028	0.764	0.056
Mof_Mo	Mo	0.54167	0.68982	0.35679	1.039
Mof_O 	O 	0.56165	0.72433	0.35399	-0.748
Mof_O 	O 	0.50694	0.66562	0.35928	-0.493
Mof_O 	O 	0.53218	0.69804	0.31837	-0.64
Mof_O 	O 	0.53637	0.69359	0.39558	-0.746
Mof_Mo	Mo	0.50266	0.71726	0.30603	1.236
Mof_Mo	Mo	0.46915	0.68348	0.35731	1.128
Mof_Zn	Zn	0.55894	0.75518	0.32844	1.227
Mof_O 	O 	0.47512	0.74725	0.30877	-0.761
Mof_O 	O 	0.47614	0.692	0.3208	-0.647
Mof_O 	O 	0.59094	0.75613	0.30479	-0.5
Mof_C 	C 	0.6127	0.7593	0.3168	0.375
Mof_C 	C 	0.6358	0.7616	0.2978	-0.174
Mof_O 	O 	0.61508	0.76026	0.34239	-0.338
Mof_C 	C 	0.6603	0.7674	0.3083	0.064
Mof_C 	C 	0.633	0.7563	0.2723	0.075
Mof_H 	H 	0.6616	0.7704	0.327	0.005
Mof_C 	C 	0.685	0.7691	0.2919	-0.144
Mof_C 	C 	0.6564	0.7593	0.2535	-0.144
Mof_H 	H 	0.6162	0.7505	0.2656	0.001
Mof_H 	H 	0.7019	0.7729	0.2996	0.077
Mof_C 	C 	0.6818	0.7649	0.2637	0.062
Mof_H 	H 	0.6539	0.7573	0.2347	0.065
Mof_C 	C 	0.7067	0.7678	0.2469	0.018
Mof_C 	C 	0.7235	0.7901	0.2503	-0.092
Mof_H 	H 	0.72	0.8028	0.264	0.056
Mof_Mo	Mo	0.68982	0.85679	0.45833	1.039
Mof_O 	O 	0.72433	0.85399	0.43835	-0.748
Mof_O 	O 	0.66562	0.85928	0.49306	-0.493
Mof_O 	O 	0.69804	0.81837	0.46782	-0.64
Mof_O 	O 	0.69359	0.89558	0.46363	-0.746
Mof_Mo	Mo	0.71726	0.80603	0.49734	1.236
Mof_Mo	Mo	0.68348	0.85731	0.53085	1.128
Mof_Zn	Zn	0.75518	0.82844	0.44106	1.227
Mof_O 	O 	0.74725	0.80877	0.52488	-0.761
Mof_O 	O 	0.692	0.8208	0.52386	-0.647
Mof_O 	O 	0.75613	0.80479	0.40906	-0.5
Mof_C 	C 	0.7593	0.8168	0.3873	0.375
Mof_C 	C 	0.7616	0.7978	0.3642	-0.174
Mof_O 	O 	0.76026	0.84239	0.38492	-0.338
Mof_C 	C 	0.7674	0.8083	0.3397	0.064
Mof_C 	C 	0.7563	0.7723	0.367	0.075
Mof_H 	H 	0.7704	0.827	0.3384	0.005
Mof_C 	C 	0.7691	0.7919	0.315	-0.144
Mof_C 	C 	0.7593	0.7535	0.3436	-0.144
Mof_H 	H 	0.7505	0.7656	0.3838	0.001
Mof_H 	H 	0.7729	0.7996	0.2981	0.077
Mof_C 	C 	0.7649	0.7637	0.3182	0.062
Mof_H 	H 	0.7573	0.7347	0.3461	0.065
Mof_C 	C 	0.7678	0.7469	0.2933	0.018
Mof_C 	C 	0.7901	0.7503	0.2765	-0.092
Mof_H 	H 	0.8028	0.764	0.28	0.056
Mof_Mo	Mo	0.18982	0.35679	0.95833	1.039
Mof_O 	O 	0.22433	0.35399	0.93835	-0.748
Mof_O 	O 	0.16562	0.35928	0.99306	-0.493
Mof_O 	O 	0.19804	0.31837	0.96782	-0.64
Mof_O 	O 	0.19359	0.39558	0.96363	-0.746
Mof_Mo	Mo	0.21726	0.30603	0.99734	1.236
Mof_Mo	Mo	0.18348	0.35731	0.03085	1.128
Mof_Zn	Zn	0.25518	0.32844	0.94106	1.227
Mof_O 	O 	0.24725	0.30877	0.02488	-0.761
Mof_O 	O 	0.192	0.3208	0.02386	-0.647
Mof_O 	O 	0.25613	0.30479	0.90906	-0.5
Mof_C 	C 	0.2593	0.3168	0.8873	0.375
Mof_C 	C 	0.2616	0.2978	0.8642	-0.174
Mof_O 	O 	0.26026	0.34239	0.88492	-0.338
Mof_C 	C 	0.2674	0.3083	0.8397	0.064
Mof_C 	C 	0.2563	0.2723	0.867	0.075
Mof_H 	H 	0.2704	0.327	0.8384	0.005
Mof_C 	C 	0.2691	0.2919	0.815	-0.144
Mof_C 	C 	0.2593	0.2535	0.8436	-0.144
Mof_H 	H 	0.2505	0.2656	0.8838	0.001
Mof_H 	H 	0.2729	0.2996	0.7981	0.077
Mof_C 	C 	0.2649	0.2637	0.8182	0.062
Mof_H 	H 	0.2573	0.2347	0.8461	0.065
Mof_C 	C 	0.2678	0.2469	0.7933	0.018
Mof_C 	C 	0.2901	0.2503	0.7765	-0.092
Mof_H 	H 	0.3028	0.264	0.78	0.056
Mof_Mo	Mo	0.81018	0.14321	0.95833	1.039
Mof_O 	O 	0.77567	0.14601	0.93835	-0.748
Mof_O 	O 	0.83438	0.14072	0.99306	-0.493
Mof_O 	O 	0.80196	0.18163	0.96782	-0.64
Mof_O 	O 	0.80641	0.10442	0.96363	-0.746
Mof_Mo	Mo	0.78274	0.19397	0.99734	1.236
Mof_Mo	Mo	0.81652	0.14269	0.03085	1.128
Mof_Zn	Zn	0.74482	0.17156	0.94106	1.227
Mof_O 	O 	0.75275	0.19123	0.02488	-0.761
Mof_O 	O 	0.808	0.1792	0.02386	-0.647
Mof_O 	O 	0.74387	0.19521	0.90906	-0.5
Mof_C 	C 	0.7407	0.1832	0.8873	0.375
Mof_C 	C 	0.7384	0.2022	0.8642	-0.174
Mof_O 	O 	0.73974	0.15761	0.88492	-0.338
Mof_C 	C 	0.7326	0.1917	0.8397	0.064
Mof_C 	C 	0.7437	0.2277	0.867	0.075
Mof_H 	H 	0.7296	0.173	0.8384	0.005
Mof_C 	C 	0.7309	0.2081	0.815	-0.144
Mof_C 	C 	0.7407	0.2465	0.8436	-0.144
Mof_H 	H 	0.7495	0.2344	0.8838	0.001
Mof_H 	H 	0.7271	0.2004	0.7981	0.077
Mof_C 	C 	0.7351	0.2363	0.8182	0.062
Mof_H 	H 	0.7427	0.2653	0.8461	0.065
Mof_C 	C 	0.7322	0.2531	0.7933	0.018
Mof_C 	C 	0.7099	0.2497	0.7765	-0.092
Mof_H 	H 	0.6972	0.236	0.78	0.056
Mof_Mo	Mo	0.31018	0.64321	0.45833	1.039
Mof_O 	O 	0.27567	0.64601	0.43835	-0.748
Mof_O 	O 	0.33438	0.64072	0.49306	-0.493
Mof_O 	O 	0.30196	0.68163	0.46782	-0.64
Mof_O 	O 	0.30641	0.60442	0.46363	-0.746
Mof_Mo	Mo	0.28274	0.69397	0.49734	1.236
Mof_Mo	Mo	0.31652	0.64269	0.53085	1.128
Mof_Zn	Zn	0.24482	0.67156	0.44106	1.227
Mof_O 	O 	0.25275	0.69123	0.52488	-0.761
Mof_O 	O 	0.308	0.6792	0.52386	-0.647
Mof_O 	O 	0.24387	0.69521	0.40906	-0.5
Mof_C 	C 	0.2407	0.6832	0.3873	0.375
Mof_C 	C 	0.2384	0.7022	0.3642	-0.174
Mof_O 	O 	0.23974	0.65761	0.38492	-0.338
Mof_C 	C 	0.2326	0.6917	0.3397	0.064
Mof_C 	C 	0.2437	0.7277	0.367	0.075
Mof_H 	H 	0.2296	0.673	0.3384	0.005
Mof_C 	C 	0.2309	0.7081	0.315	-0.144
Mof_C 	C 	0.2407	0.7465	0.3436	-0.144
Mof_H 	H 	0.2495	0.7344	0.3838	0.001
Mof_H 	H 	0.2271	0.7004	0.2981	0.077
Mof_C 	C 	0.2351	0.7363	0.3182	0.062
Mof_H 	H 	0.2427	0.7653	0.3461	0.065
Mof_C 	C 	0.2322	0.7531	0.2933	0.018
Mof_C 	C 	0.2099	0.7497	0.2765	-0.092
Mof_H 	H 	0.1972	0.736	0.28	0.056
Mof_Mo	Mo	0.18982	0.64321	0.54167	1.039
Mof_O 	O 	0.22433	0.64601	0.56165	-0.748
Mof_O 	O 	0.16562	0.64072	0.50694	-0.493
Mof_O 	O 	0.19804	0.68163	0.53218	-0.64
Mof_O 	O 	0.19359	0.60442	0.53637	-0.746
Mof_Mo	Mo	0.21726	0.69397	0.50266	1.236
Mof_Mo	Mo	0.18348	0.64269	0.46915	1.128
Mof_Zn	Zn	0.25518	0.67156	0.55894	1.227
Mof_O 	O 	0.24725	0.69123	0.47512	-0.761
Mof_O 	O 	0.192	0.6792	0.47614	-0.647
Mof_O 	O 	0.25613	0.69521	0.59094	-0.5
Mof_C 	C 	0.2593	0.6832	0.6127	0.375
Mof_C 	C 	0.2616	0.7022	0.6358	-0.174
Mof_O 	O 	0.26026	0.65761	0.61508	-0.338
Mof_C 	C 	0.2674	0.6917	0.6603	0.064
Mof_C 	C 	0.2563	0.7277	0.633	0.075
Mof_H 	H 	0.2704	0.673	0.6616	0.005
Mof_C 	C 	0.2691	0.7081	0.685	-0.144
Mof_C 	C 	0.2593	0.7465	0.6564	-0.144
Mof_H 	H 	0.2505	0.7344	0.6162	0.001
Mof_H 	H 	0.2729	0.7004	0.7019	0.077
Mof_C 	C 	0.2649	0.7363	0.6818	0.062
Mof_H 	H 	0.2573	0.7653	0.6539	0.065
Mof_C 	C 	0.2678	0.7531	0.7067	0.018
Mof_C 	C 	0.2901	0.7497	0.7235	-0.092
Mof_H 	H 	0.3028	0.736	0.72	0.056
Mof_Mo	Mo	0.68982	0.14321	0.04167	1.039
Mof_O 	O 	0.72433	0.14601	0.06165	-0.748
Mof_O 	O 	0.66562	0.14072	0.00694	-0.493
Mof_O 	O 	0.69804	0.18163	0.03218	-0.64
Mof_O 	O 	0.69359	0.10442	0.03637	-0.746
Mof_Mo	Mo	0.71726	0.19397	0.00266	1.236
Mof_Mo	Mo	0.68348	0.14269	0.96915	1.128
Mof_Zn	Zn	0.75518	0.17156	0.05894	1.227
Mof_O 	O 	0.74725	0.19123	0.97512	-0.761
Mof_O 	O 	0.692	0.1792	0.97614	-0.647
Mof_O 	O 	0.75613	0.19521	0.09094	-0.5
Mof_C 	C 	0.7593	0.1832	0.1127	0.375
Mof_C 	C 	0.7616	0.2022	0.1358	-0.174
Mof_O 	O 	0.76026	0.15761	0.11508	-0.338
Mof_C 	C 	0.7674	0.1917	0.1603	0.064
Mof_C 	C 	0.7563	0.2277	0.133	0.075
Mof_H 	H 	0.7704	0.173	0.1616	0.005
Mof_C 	C 	0.7691	0.2081	0.185	-0.144
Mof_C 	C 	0.7593	0.2465	0.1564	-0.144
Mof_H 	H 	0.7505	0.2344	0.1162	0.001
Mof_H 	H 	0.7729	0.2004	0.2019	0.077
Mof_C 	C 	0.7649	0.2363	0.1818	0.062
Mof_H 	H 	0.7573	0.2653	0.1539	0.065
Mof_C 	C 	0.7678	0.2531	0.2067	0.018
Mof_C 	C 	0.7901	0.2497	0.2235	-0.092
Mof_H 	H 	0.8028	0.236	0.22	0.056
Mof_Mo	Mo	0.31018	0.35679	0.04167	1.039
Mof_O 	O 	0.27567	0.35399	0.06165	-0.748
Mof_O 	O 	0.33438	0.35928	0.00694	-0.493
Mof_O 	O 	0.30196	0.31837	0.03218	-0.64
Mof_O 	O 	0.30641	0.39558	0.03637	-0.746
Mof_Mo	Mo	0.28274	0.30603	0.00266	1.236
Mof_Mo	Mo	0.31652	0.35731	0.96915	1.128
Mof_Zn	Zn	0.24482	0.32844	0.05894	1.227
Mof_O 	O 	0.25275	0.30877	0.97512	-0.761
Mof_O 	O 	0.308	0.3208	0.97614	-0.647
Mof_O 	O 	0.24387	0.30479	0.09094	-0.5
Mof_C 	C 	0.2407	0.3168	0.1127	0.375
Mof_C 	C 	0.2384	0.2978	0.1358	-0.174
Mof_O 	O 	0.23974	0.34239	0.11508	-0.338
Mof_C 	C 	0.2326	0.3083	0.1603	0.064
Mof_C 	C 	0.2437	0.2723	0.133	0.075
Mof_H 	H 	0.2296	0.327	0.1616	0.005
Mof_C 	C 	0.2309	0.2919	0.185	-0.144
Mof_C 	C 	0.2407	0.2535	0.1564	-0.144
Mof_H 	H 	0.2495	0.2656	0.1162	0.001
Mof_H 	H 	0.2271	0.2996	0.2019	0.077
Mof_C 	C 	0.2351	0.2637	0.1818	0.062
Mof_H 	H 	0.2427	0.2347	0.1539	0.065
Mof_C 	C 	0.2322	0.2469	0.2067	0.018
Mof_C 	C 	0.2099	0.2503	0.2235	-0.092
Mof_H 	H 	0.1972	0.264	0.22	0.056
Mof_Mo	Mo	0.81018	0.85679	0.54167	1.039
Mof_O 	O 	0.77567	0.85399	0.56165	-0.748
Mof_O 	O 	0.83438	0.85928	0.50694	-0.493
Mof_O 	O 	0.80196	0.81837	0.53218	-0.64
Mof_O 	O 	0.80641	0.89558	0.53637	-0.746
Mof_Mo	Mo	0.78274	0.80603	0.50266	1.236
Mof_Mo	Mo	0.81652	0.85731	0.46915	1.128
Mof_Zn	Zn	0.74482	0.82844	0.55894	1.227
Mof_O 	O 	0.75275	0.80877	0.47512	-0.761
Mof_O 	O 	0.808	0.8208	0.47614	-0.647
Mof_O 	O 	0.74387	0.80479	0.59094	-0.5
Mof_C 	C 	0.7407	0.8168	0.6127	0.375
Mof_C 	C 	0.7384	0.7978	0.6358	-0.174
Mof_O 	O 	0.73974	0.84239	0.61508	-0.338
Mof_C 	C 	0.7326	0.8083	0.6603	0.064
Mof_C 	C 	0.7437	0.7723	0.633	0.075
Mof_H 	H 	0.7296	0.827	0.6616	0.005
Mof_C 	C 	0.7309	0.7919	0.685	-0.144
Mof_C 	C 	0.7407	0.7535	0.6564	-0.144
Mof_H 	H 	0.7495	0.7656	0.6162	0.001
Mof_H 	H 	0.7271	0.7996	0.7019	0.077
Mof_C 	C 	0.7351	0.7637	0.6818	0.062
Mof_H 	H 	0.7427	0.7347	0.6539	0.065
Mof_C 	C 	0.7322	0.7469	0.7067	0.018
Mof_C 	C 	0.7099	0.7503	0.7235	-0.092
Mof_H 	H 	0.6972	0.764	0.72	0.056
Mof_Mo	Mo	0.35679	0.04167	0.31018	1.039
Mof_O 	O 	0.35399	0.06165	0.27567	-0.748
Mof_O 	O 	0.35928	0.00694	0.33438	-0.493
Mof_O 	O 	0.31837	0.03218	0.30196	-0.64
Mof_O 	O 	0.39558	0.03637	0.30641	-0.746
Mof_Mo	Mo	0.30603	0.00266	0.28274	1.236
Mof_Mo	Mo	0.35731	0.96915	0.31652	1.128
Mof_Zn	Zn	0.32844	0.05894	0.24482	1.227
Mof_O 	O 	0.30877	0.97512	0.25275	-0.761
Mof_O 	O 	0.3208	0.97614	0.308	-0.647
Mof_O 	O 	0.30479	0.09094	0.24387	-0.5
Mof_C 	C 	0.3168	0.1127	0.2407	0.375
Mof_C 	C 	0.2978	0.1358	0.2384	-0.174
Mof_O 	O 	0.34239	0.11508	0.23974	-0.338
Mof_C 	C 	0.3083	0.1603	0.2326	0.064
Mof_C 	C 	0.2723	0.133	0.2437	0.075
Mof_H 	H 	0.327	0.1616	0.2296	0.005
Mof_C 	C 	0.2919	0.185	0.2309	-0.144
Mof_C 	C 	0.2535	0.1564	0.2407	-0.144
Mof_H 	H 	0.2656	0.1162	0.2495	0.001
Mof_H 	H 	0.2996	0.2019	0.2271	0.077
Mof_C 	C 	0.2637	0.1818	0.2351	0.062
Mof_H 	H 	0.2347	0.1539	0.2427	0.065
Mof_C 	C 	0.2469	0.2067	0.2322	0.018
Mof_C 	C 	0.2503	0.2235	0.2099	-0.092
Mof_H 	H 	0.264	0.22	0.1972	0.056
Mof_Mo	Mo	0.85679	0.54167	0.81018	1.039
Mof_O 	O 	0.85399	0.56165	0.77567	-0.748
Mof_O 	O 	0.85928	0.50694	0.83438	-0.493
Mof_O 	O 	0.81837	0.53218	0.80196	-0.64
Mof_O 	O 	0.89558	0.53637	0.80641	-0.746
Mof_Mo	Mo	0.80603	0.50266	0.78274	1.236
Mof_Mo	Mo	0.85731	0.46915	0.81652	1.128
Mof_Zn	Zn	0.82844	0.55894	0.74482	1.227
Mof_O 	O 	0.80877	0.47512	0.75275	-0.761
Mof_O 	O 	0.8208	0.47614	0.808	-0.647
Mof_O 	O 	0.80479	0.59094	0.74387	-0.5
Mof_C 	C 	0.8168	0.6127	0.7407	0.375
Mof_C 	C 	0.7978	0.6358	0.7384	-0.174
Mof_O 	O 	0.84239	0.61508	0.73974	-0.338
Mof_C 	C 	0.8083	0.6603	0.7326	0.064
Mof_C 	C 	0.7723	0.633	0.7437	0.075
Mof_H 	H 	0.827	0.6616	0.7296	0.005
Mof_C 	C 	0.7919	0.685	0.7309	-0.144
Mof_C 	C 	0.7535	0.6564	0.7407	-0.144
Mof_H 	H 	0.7656	0.6162	0.7495	0.001
Mof_H 	H 	0.7996	0.7019	0.7271	0.077
Mof_C 	C 	0.7637	0.6818	0.7351	0.062
Mof_H 	H 	0.7347	0.6539	0.7427	0.065
Mof_C 	C 	0.7469	0.7067	0.7322	0.018
Mof_C 	C 	0.7503	0.7235	0.7099	-0.092
Mof_H 	H 	0.764	0.72	0.6972	0.056
Mof_Mo	Mo	0.64321	0.54167	0.18982	1.039
Mof_O 	O 	0.64601	0.56165	0.22433	-0.748
Mof_O 	O 	0.64072	0.50694	0.16562	-0.493
Mof_O 	O 	0.68163	0.53218	0.19804	-0.64
Mof_O 	O 	0.60442	0.53637	0.19359	-0.746
Mof_Mo	Mo	0.69397	0.50266	0.21726	1.236
Mof_Mo	Mo	0.64269	0.46915	0.18348	1.128
Mof_Zn	Zn	0.67156	0.55894	0.25518	1.227
Mof_O 	O 	0.69123	0.47512	0.24725	-0.761
Mof_O 	O 	0.6792	0.47614	0.192	-0.647
Mof_O 	O 	0.69521	0.59094	0.25613	-0.5
Mof_C 	C 	0.6832	0.6127	0.2593	0.375
Mof_C 	C 	0.7022	0.6358	0.2616	-0.174
Mof_O 	O 	0.65761	0.61508	0.26026	-0.338
Mof_C 	C 	0.6917	0.6603	0.2674	0.064
Mof_C 	C 	0.7277	0.633	0.2563	0.075
Mof_H 	H 	0.673	0.6616	0.2704	0.005
Mof_C 	C 	0.7081	0.685	0.2691	-0.144
Mof_C 	C 	0.7465	0.6564	0.2593	-0.144
Mof_H 	H 	0.7344	0.6162	0.2505	0.001
Mof_H 	H 	0.7004	0.7019	0.2729	0.077
Mof_C 	C 	0.7363	0.6818	0.2649	0.062
Mof_H 	H 	0.7653	0.6539	0.2573	0.065
Mof_C 	C 	0.7531	0.7067	0.2678	0.018
Mof_C 	C 	0.7497	0.7235	0.2901	-0.092
Mof_H 	H 	0.736	0.72	0.3028	0.056
Mof_Mo	Mo	0.14321	0.04167	0.68982	1.039
Mof_O 	O 	0.14601	0.06165	0.72433	-0.748
Mof_O 	O 	0.14072	0.00694	0.66562	-0.493
Mof_O 	O 	0.18163	0.03218	0.69804	-0.64
Mof_O 	O 	0.10442	0.03637	0.69359	-0.746
Mof_Mo	Mo	0.19397	0.00266	0.71726	1.236
Mof_Mo	Mo	0.14269	0.96915	0.68348	1.128
Mof_Zn	Zn	0.17156	0.05894	0.75518	1.227
Mof_O 	O 	0.19123	0.97512	0.74725	-0.761
Mof_O 	O 	0.1792	0.97614	0.692	-0.647
Mof_O 	O 	0.19521	0.09094	0.75613	-0.5
Mof_C 	C 	0.1832	0.1127	0.7593	0.375
Mof_C 	C 	0.2022	0.1358	0.7616	-0.174
Mof_O 	O 	0.15761	0.11508	0.76026	-0.338
Mof_C 	C 	0.1917	0.1603	0.7674	0.064
Mof_C 	C 	0.2277	0.133	0.7563	0.075
Mof_H 	H 	0.173	0.1616	0.7704	0.005
Mof_C 	C 	0.2081	0.185	0.7691	-0.144
Mof_C 	C 	0.2465	0.1564	0.7593	-0.144
Mof_H 	H 	0.2344	0.1162	0.7505	0.001
Mof_H 	H 	0.2004	0.2019	0.7729	0.077
Mof_C 	C 	0.2363	0.1818	0.7649	0.062
Mof_H 	H 	0.2653	0.1539	0.7573	0.065
Mof_C 	C 	0.2531	0.2067	0.7678	0.018
Mof_C 	C 	0.2497	0.2235	0.7901	-0.092
Mof_H 	H 	0.236	0.22	0.8028	0.056
Mof_Mo	Mo	0.14321	0.95833	0.81018	1.039
Mof_O 	O 	0.14601	0.93835	0.77567	-0.748
Mof_O 	O 	0.14072	0.99306	0.83438	-0.493
Mof_O 	O 	0.18163	0.96782	0.80196	-0.64
Mof_O 	O 	0.10442	0.96363	0.80641	-0.746
Mof_Mo	Mo	0.19397	0.99734	0.78274	1.236
Mof_Mo	Mo	0.14269	0.03085	0.81652	1.128
Mof_Zn	Zn	0.17156	0.94106	0.74482	1.227
Mof_O 	O 	0.19123	0.02488	0.75275	-0.761
Mof_O 	O 	0.1792	0.02386	0.808	-0.647
Mof_O 	O 	0.19521	0.90906	0.74387	-0.5
Mof_C 	C 	0.1832	0.8873	0.7407	0.375
Mof_C 	C 	0.2022	0.8642	0.7384	-0.174
Mof_O 	O 	0.15761	0.88492	0.73974	-0.338
Mof_C 	C 	0.1917	0.8397	0.7326	0.064
Mof_C 	C 	0.2277	0.867	0.7437	0.075
Mof_H 	H 	0.173	0.8384	0.7296	0.005
Mof_C 	C 	0.2081	0.815	0.7309	-0.144
Mof_C 	C 	0.2465	0.8436	0.7407	-0.144
Mof_H 	H 	0.2344	0.8838	0.7495	0.001
Mof_H 	H 	0.2004	0.7981	0.7271	0.077
Mof_C 	C 	0.2363	0.8182	0.7351	0.062
Mof_H 	H 	0.2653	0.8461	0.7427	0.065
Mof_C 	C 	0.2531	0.7933	0.7322	0.018
Mof_C 	C 	0.2497	0.7765	0.7099	-0.092
Mof_H 	H 	0.236	0.78	0.6972	0.056
Mof_Mo	Mo	0.64321	0.45833	0.31018	1.039
Mof_O 	O 	0.64601	0.43835	0.27567	-0.748
Mof_O 	O 	0.64072	0.49306	0.33438	-0.493
Mof_O 	O 	0.68163	0.46782	0.30196	-0.64
Mof_O 	O 	0.60442	0.46363	0.30641	-0.746
Mof_Mo	Mo	0.69397	0.49734	0.28274	1.236
Mof_Mo	Mo	0.64269	0.53085	0.31652	1.128
Mof_Zn	Zn	0.67156	0.44106	0.24482	1.227
Mof_O 	O 	0.69123	0.52488	0.25275	-0.761
Mof_O 	O 	0.6792	0.52386	0.308	-0.647
Mof_O 	O 	0.69521	0.40906	0.24387	-0.5
Mof_C 	C 	0.6832	0.3873	0.2407	0.375
Mof_C 	C 	0.7022	0.3642	0.2384	-0.174
Mof_O 	O 	0.65761	0.38492	0.23974	-0.338
Mof_C 	C 	0.6917	0.3397	0.2326	0.064
Mof_C 	C 	0.7277	0.367	0.2437	0.075
Mof_H 	H 	0.673	0.3384	0.2296	0.005
Mof_C 	C 	0.7081	0.315	0.2309	-0.144
Mof_C 	C 	0.7465	0.3436	0.2407	-0.144
Mof_H 	H 	0.7344	0.3838	0.2495	0.001
Mof_H 	H 	0.7004	0.2981	0.2271	0.077
Mof_C 	C 	0.7363	0.3182	0.2351	0.062
Mof_H 	H 	0.7653	0.3461	0.2427	0.065
Mof_C 	C 	0.7531	0.2933	0.2322	0.018
Mof_C 	C 	0.7497	0.2765	0.2099	-0.092
Mof_H 	H 	0.736	0.28	0.1972	0.056
Mof_Mo	Mo	0.85679	0.45833	0.68982	1.039
Mof_O 	O 	0.85399	0.43835	0.72433	-0.748
Mof_O 	O 	0.85928	0.49306	0.66562	-0.493
Mof_O 	O 	0.81837	0.46782	0.69804	-0.64
Mof_O 	O 	0.89558	0.46363	0.69359	-0.746
Mof_Mo	Mo	0.80603	0.49734	0.71726	1.236
Mof_Mo	Mo	0.85731	0.53085	0.68348	1.128
Mof_Zn	Zn	0.82844	0.44106	0.75518	1.227
Mof_O 	O 	0.80877	0.52488	0.74725	-0.761
Mof_O 	O 	0.8208	0.52386	0.692	-0.647
Mof_O 	O 	0.80479	0.40906	0.75613	-0.5
Mof_C 	C 	0.8168	0.3873	0.7593	0.375
Mof_C 	C 	0.7978	0.3642	0.7616	-0.174
Mof_O 	O 	0.84239	0.38492	0.76026	-0.338
Mof_C 	C 	0.8083	0.3397	0.7674	0.064
Mof_C 	C 	0.7723	0.367	0.7563	0.075
Mof_H 	H 	0.827	0.3384	0.7704	0.005
Mof_C 	C 	0.7919	0.315	0.7691	-0.144
Mof_C 	C 	0.7535	0.3436	0.7593	-0.144
Mof_H 	H 	0.7656	0.3838	0.7505	0.001
Mof_H 	H 	0.7996	0.2981	0.7729	0.077
Mof_C 	C 	0.7637	0.3182	0.7649	0.062
Mof_H 	H 	0.7347	0.3461	0.7573	0.065
Mof_C 	C 	0.7469	0.2933	0.7678	0.018
Mof_C 	C 	0.7503	0.2765	0.7901	-0.092
Mof_H 	H 	0.764	0.28	0.8028	0.056
Mof_Mo	Mo	0.35679	0.95833	0.18982	1.039
Mof_O 	O 	0.35399	0.93835	0.22433	-0.748
Mof_O 	O 	0.35928	0.99306	0.16562	-0.493
Mof_O 	O 	0.31837	0.96782	0.19804	-0.64
Mof_O 	O 	0.39558	0.96363	0.19359	-0.746
Mof_Mo	Mo	0.30603	0.99734	0.21726	1.236
Mof_Mo	Mo	0.35731	0.03085	0.18348	1.128
Mof_Zn	Zn	0.32844	0.94106	0.25518	1.227
Mof_O 	O 	0.30877	0.02488	0.24725	-0.761
Mof_O 	O 	0.3208	0.02386	0.192	-0.647
Mof_O 	O 	0.30479	0.90906	0.25613	-0.5
Mof_C 	C 	0.3168	0.8873	0.2593	0.375
Mof_C 	C 	0.2978	0.8642	0.2616	-0.174
Mof_O 	O 	0.34239	0.88492	0.26026	-0.338
Mof_C 	C 	0.3083	0.8397	0.2674	0.064
Mof_C 	C 	0.2723	0.867	0.2563	0.075
Mof_H 	H 	0.327	0.8384	0.2704	0.005
Mof_C 	C 	0.2919	0.815	0.2691	-0.144
Mof_C 	C 	0.2535	0.8436	0.2593	-0.144
Mof_H 	H 	0.2656	0.8838	0.2505	0.001
Mof_H 	H 	0.2996	0.7981	0.2729	0.077
Mof_C 	C 	0.2637	0.8182	0.2649	0.062
Mof_H 	H 	0.2347	0.8461	0.2573	0.065
Mof_C 	C 	0.2469	0.7933	0.2678	0.018
Mof_C 	C 	0.2503	0.7765	0.2901	-0.092
Mof_H 	H 	0.264	0.78	0.3028	0.056
Mof_Mo	Mo	0.54167	0.18982	0.64321	1.039
Mof_O 	O 	0.56165	0.22433	0.64601	-0.748
Mof_O 	O 	0.50694	0.16562	0.64072	-0.493
Mof_O 	O 	0.53218	0.19804	0.68163	-0.64
Mof_O 	O 	0.53637	0.19359	0.60442	-0.746
Mof_Mo	Mo	0.50266	0.21726	0.69397	1.236
Mof_Mo	Mo	0.46915	0.18348	0.64269	1.128
Mof_Zn	Zn	0.55894	0.25518	0.67156	1.227
Mof_O 	O 	0.47512	0.24725	0.69123	-0.761
Mof_O 	O 	0.47614	0.192	0.6792	-0.647
Mof_O 	O 	0.59094	0.25613	0.69521	-0.5
Mof_C 	C 	0.6127	0.2593	0.6832	0.375
Mof_C 	C 	0.6358	0.2616	0.7022	-0.174
Mof_O 	O 	0.61508	0.26026	0.65761	-0.338
Mof_C 	C 	0.6603	0.2674	0.6917	0.064
Mof_C 	C 	0.633	0.2563	0.7277	0.075
Mof_H 	H 	0.6616	0.2704	0.673	0.005
Mof_C 	C 	0.685	0.2691	0.7081	-0.144
Mof_C 	C 	0.6564	0.2593	0.7465	-0.144
Mof_H 	H 	0.6162	0.2505	0.7344	0.001
Mof_H 	H 	0.7019	0.2729	0.7004	0.077
Mof_C 	C 	0.6818	0.2649	0.7363	0.062
Mof_H 	H 	0.6539	0.2573	0.7653	0.065
Mof_C 	C 	0.7067	0.2678	0.7531	0.018
Mof_C 	C 	0.7235	0.2901	0.7497	-0.092
Mof_H 	H 	0.72	0.3028	0.736	0.056
Mof_Mo	Mo	0.04167	0.68982	0.14321	1.039
Mof_O 	O 	0.06165	0.72433	0.14601	-0.748
Mof_O 	O 	0.00694	0.66562	0.14072	-0.493
Mof_O 	O 	0.03218	0.69804	0.18163	-0.64
Mof_O 	O 	0.03637	0.69359	0.10442	-0.746
Mof_Mo	Mo	0.00266	0.71726	0.19397	1.236
Mof_Mo	Mo	0.96915	0.68348	0.14269	1.128
Mof_Zn	Zn	0.05894	0.75518	0.17156	1.227
Mof_O 	O 	0.97512	0.74725	0.19123	-0.761
Mof_O 	O 	0.97614	0.692	0.1792	-0.647
Mof_O 	O 	0.09094	0.75613	0.19521	-0.5
Mof_C 	C 	0.1127	0.7593	0.1832	0.375
Mof_C 	C 	0.1358	0.7616	0.2022	-0.174
Mof_O 	O 	0.11508	0.76026	0.15761	-0.338
Mof_C 	C 	0.1603	0.7674	0.1917	0.064
Mof_C 	C 	0.133	0.7563	0.2277	0.075
Mof_H 	H 	0.1616	0.7704	0.173	0.005
Mof_C 	C 	0.185	0.7691	0.2081	-0.144
Mof_C 	C 	0.1564	0.7593	0.2465	-0.144
Mof_H 	H 	0.1162	0.7505	0.2344	0.001
Mof_H 	H 	0.2019	0.7729	0.2004	0.077
Mof_C 	C 	0.1818	0.7649	0.2363	0.062
Mof_H 	H 	0.1539	0.7573	0.2653	0.065
Mof_C 	C 	0.2067	0.7678	0.2531	0.018
Mof_C 	C 	0.2235	0.7901	0.2497	-0.092
Mof_H 	H 	0.22	0.8028	0.236	0.056
Mof_Mo	Mo	0.04167	0.31018	0.35679	1.039
Mof_O 	O 	0.06165	0.27567	0.35399	-0.748
Mof_O 	O 	0.00694	0.33438	0.35928	-0.493
Mof_O 	O 	0.03218	0.30196	0.31837	-0.64
Mof_O 	O 	0.03637	0.30641	0.39558	-0.746
Mof_Mo	Mo	0.00266	0.28274	0.30603	1.236
Mof_Mo	Mo	0.96915	0.31652	0.35731	1.128
Mof_Zn	Zn	0.05894	0.24482	0.32844	1.227
Mof_O 	O 	0.97512	0.25275	0.30877	-0.761
Mof_O 	O 	0.97614	0.308	0.3208	-0.647
Mof_O 	O 	0.09094	0.24387	0.30479	-0.5
Mof_C 	C 	0.1127	0.2407	0.3168	0.375
Mof_C 	C 	0.1358	0.2384	0.2978	-0.174
Mof_O 	O 	0.11508	0.23974	0.34239	-0.338
Mof_C 	C 	0.1603	0.2326	0.3083	0.064
Mof_C 	C 	0.133	0.2437	0.2723	0.075
Mof_H 	H 	0.1616	0.2296	0.327	0.005
Mof_C 	C 	0.185	0.2309	0.2919	-0.144
Mof_C 	C 	0.1564	0.2407	0.2535	-0.144
Mof_H 	H 	0.1162	0.2495	0.2656	0.001
Mof_H 	H 	0.2019	0.2271	0.2996	0.077
Mof_C 	C 	0.1818	0.2351	0.2637	0.062
Mof_H 	H 	0.1539	0.2427	0.2347	0.065
Mof_C 	C 	0.2067	0.2322	0.2469	0.018
Mof_C 	C 	0.2235	0.2099	0.2503	-0.092
Mof_H 	H 	0.22	0.1972	0.264	0.056
Mof_Mo	Mo	0.54167	0.81018	0.85679	1.039
Mof_O 	O 	0.56165	0.77567	0.85399	-0.748
Mof_O 	O 	0.50694	0.83438	0.85928	-0.493
Mof_O 	O 	0.53218	0.80196	0.81837	-0.64
Mof_O 	O 	0.53637	0.80641	0.89558	-0.746
Mof_Mo	Mo	0.50266	0.78274	0.80603	1.236
Mof_Mo	Mo	0.46915	0.81652	0.85731	1.128
Mof_Zn	Zn	0.55894	0.74482	0.82844	1.227
Mof_O 	O 	0.47512	0.75275	0.80877	-0.761
Mof_O 	O 	0.47614	0.808	0.8208	-0.647
Mof_O 	O 	0.59094	0.74387	0.80479	-0.5
Mof_C 	C 	0.6127	0.7407	0.8168	0.375
Mof_C 	C 	0.6358	0.7384	0.7978	-0.174
Mof_O 	O 	0.61508	0.73974	0.84239	-0.338
Mof_C 	C 	0.6603	0.7326	0.8083	0.064
Mof_C 	C 	0.633	0.7437	0.7723	0.075
Mof_H 	H 	0.6616	0.7296	0.827	0.005
Mof_C 	C 	0.685	0.7309	0.7919	-0.144
Mof_C 	C 	0.6564	0.7407	0.7535	-0.144
Mof_H 	H 	0.6162	0.7495	0.7656	0.001
Mof_H 	H 	0.7019	0.7271	0.7996	0.077
Mof_C 	C 	0.6818	0.7351	0.7637	0.062
Mof_H 	H 	0.6539	0.7427	0.7347	0.065
Mof_C 	C 	0.7067	0.7322	0.7469	0.018
Mof_C 	C 	0.7235	0.7099	0.7503	-0.092
Mof_H 	H 	0.72	0.6972	0.764	0.056
Mof_Mo	Mo	0.45833	0.68982	0.85679	1.039
Mof_O 	O 	0.43835	0.72433	0.85399	-0.748
Mof_O 	O 	0.49306	0.66562	0.85928	-0.493
Mof_O 	O 	0.46782	0.69804	0.81837	-0.64
Mof_O 	O 	0.46363	0.69359	0.89558	-0.746
Mof_Mo	Mo	0.49734	0.71726	0.80603	1.236
Mof_Mo	Mo	0.53085	0.68348	0.85731	1.128
Mof_Zn	Zn	0.44106	0.75518	0.82844	1.227
Mof_O 	O 	0.52488	0.74725	0.80877	-0.761
Mof_O 	O 	0.52386	0.692	0.8208	-0.647
Mof_O 	O 	0.40906	0.75613	0.80479	-0.5
Mof_C 	C 	0.3873	0.7593	0.8168	0.375
Mof_C 	C 	0.3642	0.7616	0.7978	-0.174
Mof_O 	O 	0.38492	0.76026	0.84239	-0.338
Mof_C 	C 	0.3397	0.7674	0.8083	0.064
Mof_C 	C 	0.367	0.7563	0.7723	0.075
Mof_H 	H 	0.3384	0.7704	0.827	0.005
Mof_C 	C 	0.315	0.7691	0.7919	-0.144
Mof_C 	C 	0.3436	0.7593	0.7535	-0.144
Mof_H 	H 	0.3838	0.7505	0.7656	0.001
Mof_H 	H 	0.2981	0.7729	0.7996	0.077
Mof_C 	C 	0.3182	0.7649	0.7637	0.062
Mof_H 	H 	0.3461	0.7573	0.7347	0.065
Mof_C 	C 	0.2933	0.7678	0.7469	0.018
Mof_C 	C 	0.2765	0.7901	0.7503	-0.092
Mof_H 	H 	0.28	0.8028	0.764	0.056
Mof_Mo	Mo	0.95833	0.18982	0.35679	1.039
Mof_O 	O 	0.93835	0.22433	0.35399	-0.748
Mof_O 	O 	0.99306	0.16562	0.35928	-0.493
Mof_O 	O 	0.96782	0.19804	0.31837	-0.64
Mof_O 	O 	0.96363	0.19359	0.39558	-0.746
Mof_Mo	Mo	0.99734	0.21726	0.30603	1.236
Mof_Mo	Mo	0.03085	0.18348	0.35731	1.128
Mof_Zn	Zn	0.94106	0.25518	0.32844	1.227
Mof_O 	O 	0.02488	0.24725	0.30877	-0.761
Mof_O 	O 	0.02386	0.192	0.3208	-0.647
Mof_O 	O 	0.90906	0.25613	0.30479	-0.5
Mof_C 	C 	0.8873	0.2593	0.3168	0.375
Mof_C 	C 	0.8642	0.2616	0.2978	-0.174
Mof_O 	O 	0.88492	0.26026	0.34239	-0.338
Mof_C 	C 	0.8397	0.2674	0.3083	0.064
Mof_C 	C 	0.867	0.2563	0.2723	0.075
Mof_H 	H 	0.8384	0.2704	0.327	0.005
Mof_C 	C 	0.815	0.2691	0.2919	-0.144
Mof_C 	C 	0.8436	0.2593	0.2535	-0.144
Mof_H 	H 	0.8838	0.2505	0.2656	0.001
Mof_H 	H 	0.7981	0.2729	0.2996	0.077
Mof_C 	C 	0.8182	0.2649	0.2637	0.062
Mof_H 	H 	0.8461	0.2573	0.2347	0.065
Mof_C 	C 	0.7933	0.2678	0.2469	0.018
Mof_C 	C 	0.7765	0.2901	0.2503	-0.092
Mof_H 	H 	0.78	0.3028	0.264	0.056
Mof_Mo	Mo	0.95833	0.81018	0.14321	1.039
Mof_O 	O 	0.93835	0.77567	0.14601	-0.748
Mof_O 	O 	0.99306	0.83438	0.14072	-0.493
Mof_O 	O 	0.96782	0.80196	0.18163	-0.64
Mof_O 	O 	0.96363	0.80641	0.10442	-0.746
Mof_Mo	Mo	0.99734	0.78274	0.19397	1.236
Mof_Mo	Mo	0.03085	0.81652	0.14269	1.128
Mof_Zn	Zn	0.94106	0.74482	0.17156	1.227
Mof_O 	O 	0.02488	0.75275	0.19123	-0.761
Mof_O 	O 	0.02386	0.808	0.1792	-0.647
Mof_O 	O 	0.90906	0.74387	0.19521	-0.5
Mof_C 	C 	0.8873	0.7407	0.1832	0.375
Mof_C 	C 	0.8642	0.7384	0.2022	-0.174
Mof_O 	O 	0.88492	0.73974	0.15761	-0.338
Mof_C 	C 	0.8397	0.7326	0.1917	0.064
Mof_C 	C 	0.867	0.7437	0.2277	0.075
Mof_H 	H 	0.8384	0.7296	0.173	0.005
Mof_C 	C 	0.815	0.7309	0.2081	-0.144
Mof_C 	C 	0.8436	0.7407	0.2465	-0.144
Mof_H 	H 	0.8838	0.7495	0.2344	0.001
Mof_H 	H 	0.7981	0.7271	0.2004	0.077
Mof_C 	C 	0.8182	0.7351	0.2363	0.062
Mof_H 	H 	0.8461	0.7427	0.2653	0.065
Mof_C 	C 	0.7933	0.7322	0.2531	0.018
Mof_C 	C 	0.7765	0.7099	0.2497	-0.092
Mof_H 	H 	0.78	0.6972	0.236	0.056
Mof_Mo	Mo	0.45833	0.31018	0.64321	1.039
Mof_O 	O 	0.43835	0.27567	0.64601	-0.748
Mof_O 	O 	0.49306	0.33438	0.64072	-0.493
Mof_O 	O 	0.46782	0.30196	0.68163	-0.64
Mof_O 	O 	0.46363	0.30641	0.60442	-0.746
Mof_Mo	Mo	0.49734	0.28274	0.69397	1.236
Mof_Mo	Mo	0.53085	0.31652	0.64269	1.128
Mof_Zn	Zn	0.44106	0.24482	0.67156	1.227
Mof_O 	O 	0.52488	0.25275	0.69123	-0.761
Mof_O 	O 	0.52386	0.308	0.6792	-0.647
Mof_O 	O 	0.40906	0.24387	0.69521	-0.5
Mof_C 	C 	0.3873	0.2407	0.6832	0.375
Mof_C 	C 	0.3642	0.2384	0.7022	-0.174
Mof_O 	O 	0.38492	0.23974	0.65761	-0.338
Mof_C 	C 	0.3397	0.2326	0.6917	0.064
Mof_C 	C 	0.367	0.2437	0.7277	0.075
Mof_H 	H 	0.3384	0.2296	0.673	0.005
Mof_C 	C 	0.315	0.2309	0.7081	-0.144
Mof_C 	C 	0.3436	0.2407	0.7465	-0.144
Mof_H 	H 	0.3838	0.2495	0.7344	0.001
Mof_H 	H 	0.2981	0.2271	0.7004	0.077
Mof_C 	C 	0.3182	0.2351	0.7363	0.062
Mof_H 	H 	0.3461	0.2427	0.7653	0.065
Mof_C 	C 	0.2933	0.2322	0.7531	0.018
Mof_C 	C 	0.2765	0.2099	0.7497	-0.092
Mof_H 	H 	0.28	0.1972	0.736	0.056
Mof_Mo	Mo	0.39321	0.06018	0.20833	1.039
Mof_O 	O 	0.39601	0.02567	0.18835	-0.748
Mof_O 	O 	0.39072	0.08438	0.24306	-0.493
Mof_O 	O 	0.43163	0.05196	0.21782	-0.64
Mof_O 	O 	0.35442	0.05641	0.21363	-0.746
Mof_Mo	Mo	0.44397	0.03274	0.24734	1.236
Mof_Mo	Mo	0.39269	0.06652	0.28085	1.128
Mof_Zn	Zn	0.42156	0.99482	0.19106	1.227
Mof_O 	O 	0.44123	0.00275	0.27488	-0.761
Mof_O 	O 	0.4292	0.058	0.27386	-0.647
Mof_O 	O 	0.44521	0.99387	0.15906	-0.5
Mof_C 	C 	0.4332	0.9907	0.1373	0.375
Mof_C 	C 	0.4522	0.9884	0.1142	-0.174
Mof_O 	O 	0.40761	0.98974	0.13492	-0.338
Mof_C 	C 	0.4417	0.9826	0.0897	0.064
Mof_C 	C 	0.4777	0.9937	0.117	0.075
Mof_H 	H 	0.423	0.9796	0.0884	0.005
Mof_C 	C 	0.4581	0.9809	0.065	-0.144
Mof_C 	C 	0.4965	0.9907	0.0936	-0.144
Mof_H 	H 	0.4844	0.9995	0.1338	0.001
Mof_H 	H 	0.4504	0.9771	0.0481	0.077
Mof_C 	C 	0.4863	0.9851	0.0682	0.062
Mof_H 	H 	0.5153	0.9927	0.0961	0.065
Mof_C 	C 	0.5031	0.9822	0.0433	0.018
Mof_C 	C 	0.4997	0.9599	0.0265	-0.092
Mof_H 	H 	0.486	0.9472	0.03	0.056
Mof_Mo	Mo	0.89321	0.56018	0.70833	1.039
Mof_O 	O 	0.89601	0.52567	0.68835	-0.748
Mof_O 	O 	0.89072	0.58438	0.74306	-0.493
Mof_O 	O 	0.93163	0.55196	0.71782	-0.64
Mof_O 	O 	0.85442	0.55641	0.71363	-0.746
Mof_Mo	Mo	0.94397	0.53274	0.74734	1.236
Mof_Mo	Mo	0.89269	0.56652	0.78085	1.128
Mof_Zn	Zn	0.92156	0.49482	0.69106	1.227
Mof_O 	O 	0.94123	0.50275	0.77488	-0.761
Mof_O 	O 	0.9292	0.558	0.77386	-0.647
Mof_O 	O 	0.94521	0.49387	0.65906	-0.5
Mof_C 	C 	0.9332	0.4907	0.6373	0.375
Mof_C 	C 	0.9522	0.4884	0.6142	-0.174
Mof_O 	O 	0.90761	0.48974	0.63492	-0.338
Mof_C 	C 	0.9417	0.4826	0.5897	0.064
Mof_C 	C 	0.9777	0.4937	0.617	0.075
Mof_H 	H 	0.923	0.4796	0.5884	0.005
Mof_C 	C 	0.9581	0.4809	0.565	-0.144
Mof_C 	C 	0.9965	0.4907	0.5936	-0.144
Mof_H 	H 	0.9844	0.4995	0.6338	0.001
Mof_H 	H 	0.9504	0.4771	0.5481	0.077
Mof_C 	C 	0.9863	0.4851	0.5682	0.062
Mof_H 	H 	0.0153	0.4927	0.5961	0.065
Mof_C 	C 	0.0031	0.4822	0.5433	0.018
Mof_C 	C 	0.9997	0.4599	0.5265	-0.092
Mof_H 	H 	0.986	0.4472	0.53	0.056
Mof_Mo	Mo	0.10679	0.93982	0.70833	1.039
Mof_O 	O 	0.10399	0.97433	0.68835	-0.748
Mof_O 	O 	0.10928	0.91562	0.74306	-0.493
Mof_O 	O 	0.06837	0.94804	0.71782	-0.64
Mof_O 	O 	0.14558	0.94359	0.71363	-0.746
Mof_Mo	Mo	0.05603	0.96726	0.74734	1.236
Mof_Mo	Mo	0.10731	0.93348	0.78085	1.128
Mof_Zn	Zn	0.07844	0.00518	0.69106	1.227
Mof_O 	O 	0.05877	0.99725	0.77488	-0.761
Mof_O 	O 	0.0708	0.942	0.77386	-0.647
Mof_O 	O 	0.05479	0.00613	0.65906	-0.5
Mof_C 	C 	0.0668	0.0093	0.6373	0.375
Mof_C 	C 	0.0478	0.0116	0.6142	-0.174
Mof_O 	O 	0.09239	0.01026	0.63492	-0.338
Mof_C 	C 	0.0583	0.0174	0.5897	0.064
Mof_C 	C 	0.0223	0.0063	0.617	0.075
Mof_H 	H 	0.077	0.0204	0.5884	0.005
Mof_C 	C 	0.0419	0.0191	0.565	-0.144
Mof_C 	C 	0.0035	0.0093	0.5936	-0.144
Mof_H 	H 	0.0156	0.0005	0.6338	0.001
Mof_H 	H 	0.0496	0.0229	0.5481	0.077
Mof_C 	C 	0.0137	0.0149	0.5682	0.062
Mof_H 	H 	0.9847	0.0073	0.5961	0.065
Mof_C 	C 	0.9969	0.0178	0.5433	0.018
Mof_C 	C 	0.0003	0.0401	0.5265	-0.092
Mof_H 	H 	0.014	0.0528	0.53	0.056
Mof_Mo	Mo	0.60679	0.43982	0.20833	1.039
Mof_O 	O 	0.60399	0.47433	0.18835	-0.748
Mof_O 	O 	0.60928	0.41562	0.24306	-0.493
Mof_O 	O 	0.56837	0.44804	0.21782	-0.64
Mof_O 	O 	0.64558	0.44359	0.21363	-0.746
Mof_Mo	Mo	0.55603	0.46726	0.24734	1.236
Mof_Mo	Mo	0.60731	0.43348	0.28085	1.128
Mof_Zn	Zn	0.57844	0.50518	0.19106	1.227
Mof_O 	O 	0.55877	0.49725	0.27488	-0.761
Mof_O 	O 	0.5708	0.442	0.27386	-0.647
Mof_O 	O 	0.55479	0.50613	0.15906	-0.5
Mof_C 	C 	0.5668	0.5093	0.1373	0.375
Mof_C 	C 	0.5478	0.5116	0.1142	-0.174
Mof_O 	O 	0.59239	0.51026	0.13492	-0.338
Mof_C 	C 	0.5583	0.5174	0.0897	0.064
Mof_C 	C 	0.5223	0.5063	0.117	0.075
Mof_H 	H 	0.577	0.5204	0.0884	0.005
Mof_C 	C 	0.5419	0.5191	0.065	-0.144
Mof_C 	C 	0.5035	0.5093	0.0936	-0.144
Mof_H 	H 	0.5156	0.5005	0.1338	0.001
Mof_H 	H 	0.5496	0.5229	0.0481	0.077
Mof_C 	C 	0.5137	0.5149	0.0682	0.062
Mof_H 	H 	0.4847	0.5073	0.0961	0.065
Mof_C 	C 	0.4969	0.5178	0.0433	0.018
Mof_C 	C 	0.5003	0.5401	0.0265	-0.092
Mof_H 	H 	0.514	0.5528	0.03	0.056
Mof_Mo	Mo	0.60679	0.56018	0.29167	1.039
Mof_O 	O 	0.60399	0.52567	0.31165	-0.748
Mof_O 	O 	0.60928	0.58438	0.25694	-0.493
Mof_O 	O 	0.56837	0.55196	0.28218	-0.64
Mof_O 	O 	0.64558	0.55641	0.28637	-0.746
Mof_Mo	Mo	0.55603	0.53274	0.25266	1.236
Mof_Mo	Mo	0.60731	0.56652	0.21915	1.128
Mof_Zn	Zn	0.57844	0.49482	0.30894	1.227
Mof_O 	O 	0.55877	0.50275	0.22512	-0.761
Mof_O 	O 	0.5708	0.558	0.22614	-0.647
Mof_O 	O 	0.55479	0.49387	0.34094	-0.5
Mof_C 	C 	0.5668	0.4907	0.3627	0.375
Mof_C 	C 	0.5478	0.4884	0.3858	-0.174
Mof_O 	O 	0.59239	0.48974	0.36508	-0.338
Mof_C 	C 	0.5583	0.4826	0.4103	0.064
Mof_C 	C 	0.5223	0.4937	0.383	0.075
Mof_H 	H 	0.577	0.4796	0.4116	0.005
Mof_C 	C 	0.5419	0.4809	0.435	-0.144
Mof_C 	C 	0.5035	0.4907	0.4064	-0.144
Mof_H 	H 	0.5156	0.4995	0.3662	0.001
Mof_H 	H 	0.5496	0.4771	0.4519	0.077
Mof_C 	C 	0.5137	0.4851	0.4318	0.062
Mof_H 	H 	0.4847	0.4927	0.4039	0.065
Mof_C 	C 	0.4969	0.4822	0.4567	0.018
Mof_C 	C 	0.5003	0.4599	0.4735	-0.092
Mof_H 	H 	0.514	0.4472	0.47	0.056
Mof_Mo	Mo	0.10679	0.06018	0.79167	1.039
Mof_O 	O 	0.10399	0.02567	0.81165	-0.748
Mof_O 	O 	0.10928	0.08438	0.75694	-0.493
Mof_O 	O 	0.06837	0.05196	0.78218	-0.64
Mof_O 	O 	0.14558	0.05641	0.78637	-0.746
Mof_Mo	Mo	0.05603	0.03274	0.75266	1.236
Mof_Mo	Mo	0.10731	0.06652	0.71915	1.128
Mof_Zn	Zn	0.07844	0.99482	0.80894	1.227
Mof_O 	O 	0.05877	0.00275	0.72512	-0.761
Mof_O 	O 	0.0708	0.058	0.72614	-0.647
Mof_O 	O 	0.05479	0.99387	0.84094	-0.5
Mof_C 	C 	0.0668	0.9907	0.8627	0.375
Mof_C 	C 	0.0478	0.9884	0.8858	-0.174
Mof_O 	O 	0.09239	0.98974	0.86508	-0.338
Mof_C 	C 	0.0583	0.9826	0.9103	0.064
Mof_C 	C 	0.0223	0.9937	0.883	0.075
Mof_H 	H 	0.077	0.9796	0.9116	0.005
Mof_C 	C 	0.0419	0.9809	0.935	-0.144
Mof_C 	C 	0.0035	0.9907	0.9064	-0.144
Mof_H 	H 	0.0156	0.9995	0.8662	0.001
Mof_H 	H 	0.0496	0.9771	0.9519	0.077
Mof_C 	C 	0.0137	0.9851	0.9318	0.062
Mof_H 	H 	0.9847	0.9927	0.9039	0.065
Mof_C 	C 	0.9969	0.9822	0.9567	0.018
Mof_C 	C 	0.0003	0.9599	0.9735	-0.092
Mof_H 	H 	0.014	0.9472	0.97	0.056
Mof_Mo	Mo	0.89321	0.43982	0.79167	1.039
Mof_O 	O 	0.89601	0.47433	0.81165	-0.748
Mof_O 	O 	0.89072	0.41562	0.75694	-0.493
Mof_O 	O 	0.93163	0.44804	0.78218	-0.64
Mof_O 	O 	0.85442	0.44359	0.78637	-0.746
Mof_Mo	Mo	0.94397	0.46726	0.75266	1.236
Mof_Mo	Mo	0.89269	0.43348	0.71915	1.128
Mof_Zn	Zn	0.92156	0.50518	0.80894	1.227
Mof_O 	O 	0.94123	0.49725	0.72512	-0.761
Mof_O 	O 	0.9292	0.442	0.72614	-0.647
Mof_O 	O 	0.94521	0.50613	0.84094	-0.5
Mof_C 	C 	0.9332	0.5093	0.8627	0.375
Mof_C 	C 	0.9522	0.5116	0.8858	-0.174
Mof_O 	O 	0.90761	0.51026	0.86508	-0.338
Mof_C 	C 	0.9417	0.5174	0.9103	0.064
Mof_C 	C 	0.9777	0.5063	0.883	0.075
Mof_H 	H 	0.923	0.5204	0.9116	0.005
Mof_C 	C 	0.9581	0.5191	0.935	-0.144
Mof_C 	C 	0.9965	0.5093	0.9064	-0.144
Mof_H 	H 	0.9844	0.5005	0.8662	0.001
Mof_H 	H 	0.9504	0.5229	0.9519	0.077
Mof_C 	C 	0.9863	0.5149	0.9318	0.062
Mof_H 	H 	0.0153	0.5073	0.9039	0.065
Mof_C 	C 	0.0031	0.5178	0.9567	0.018
Mof_C 	C 	0.9997	0.5401	0.9735	-0.092
Mof_H 	H 	0.986	0.5528	0.97	0.056
Mof_Mo	Mo	0.39321	0.93982	0.29167	1.039
Mof_O 	O 	0.39601	0.97433	0.31165	-0.748
Mof_O 	O 	0.39072	0.91562	0.25694	-0.493
Mof_O 	O 	0.43163	0.94804	0.28218	-0.64
Mof_O 	O 	0.35442	0.94359	0.28637	-0.746
Mof_Mo	Mo	0.44397	0.96726	0.25266	1.236
Mof_Mo	Mo	0.39269	0.93348	0.21915	1.128
Mof_Zn	Zn	0.42156	0.00518	0.30894	1.227
Mof_O 	O 	0.44123	0.99725	0.22512	-0.761
Mof_O 	O 	0.4292	0.942	0.22614	-0.647
Mof_O 	O 	0.44521	0.00613	0.34094	-0.5
Mof_C 	C 	0.4332	0.0093	0.3627	0.375
Mof_C 	C 	0.4522	0.0116	0.3858	-0.174
Mof_O 	O 	0.40761	0.01026	0.36508	-0.338
Mof_C 	C 	0.4417	0.0174	0.4103	0.064
Mof_C 	C 	0.4777	0.0063	0.383	0.075
Mof_H 	H 	0.423	0.0204	0.4116	0.005
Mof_C 	C 	0.4581	0.0191	0.435	-0.144
Mof_C 	C 	0.4965	0.0093	0.4064	-0.144
Mof_H 	H 	0.4844	0.0005	0.3662	0.001
Mof_H 	H 	0.4504	0.0229	0.4519	0.077
Mof_C 	C 	0.4863	0.0149	0.4318	0.062
Mof_H 	H 	0.5153	0.0073	0.4039	0.065
Mof_C 	C 	0.5031	0.0178	0.4567	0.018
Mof_C 	C 	0.4997	0.0401	0.4735	-0.092
Mof_H 	H 	0.486	0.0528	0.47	0.056
Mof_Mo	Mo	0.20833	0.39321	0.06018	1.039
Mof_O 	O 	0.18835	0.39601	0.02567	-0.748
Mof_O 	O 	0.24306	0.39072	0.08438	-0.493
Mof_O 	O 	0.21782	0.43163	0.05196	-0.64
Mof_O 	O 	0.21363	0.35442	0.05641	-0.746
Mof_Mo	Mo	0.24734	0.44397	0.03274	1.236
Mof_Mo	Mo	0.28085	0.39269	0.06652	1.128
Mof_Zn	Zn	0.19106	0.42156	0.99482	1.227
Mof_O 	O 	0.27488	0.44123	0.00275	-0.761
Mof_O 	O 	0.27386	0.4292	0.058	-0.647
Mof_O 	O 	0.15906	0.44521	0.99387	-0.5
Mof_C 	C 	0.1373	0.4332	0.9907	0.375
Mof_C 	C 	0.1142	0.4522	0.9884	-0.174
Mof_O 	O 	0.13492	0.40761	0.98974	-0.338
Mof_C 	C 	0.0897	0.4417	0.9826	0.064
Mof_C 	C 	0.117	0.4777	0.9937	0.075
Mof_H 	H 	0.0884	0.423	0.9796	0.005
Mof_C 	C 	0.065	0.4581	0.9809	-0.144
Mof_C 	C 	0.0936	0.4965	0.9907	-0.144
Mof_H 	H 	0.1338	0.4844	0.9995	0.001
Mof_H 	H 	0.0481	0.4504	0.9771	0.077
Mof_C 	C 	0.0682	0.4863	0.9851	0.062
Mof_H 	H 	0.0961	0.5153	0.9927	0.065
Mof_C 	C 	0.0433	0.5031	0.9822	0.018
Mof_C 	C 	0.0265	0.4997	0.9599	-0.092
Mof_H 	H 	0.03	0.486	0.9472	0.056
Mof_Mo	Mo	0.70833	0.89321	0.56018	1.039
Mof_O 	O 	0.68835	0.89601	0.52567	-0.748
Mof_O 	O 	0.74306	0.89072	0.58438	-0.493
Mof_O 	O 	0.71782	0.93163	0.55196	-0.64
Mof_O 	O 	0.71363	0.85442	0.55641	-0.746
Mof_Mo	Mo	0.74734	0.94397	0.53274	1.236
Mof_Mo	Mo	0.78085	0.89269	0.56652	1.128
Mof_Zn	Zn	0.69106	0.92156	0.49482	1.227
Mof_O 	O 	0.77488	0.94123	0.50275	-0.761
Mof_O 	O 	0.77386	0.9292	0.558	-0.647
Mof_O 	O 	0.65906	0.94521	0.49387	-0.5
Mof_C 	C 	0.6373	0.9332	0.4907	0.375
Mof_C 	C 	0.6142	0.9522	0.4884	-0.174
Mof_O 	O 	0.63492	0.90761	0.48974	-0.338
Mof_C 	C 	0.5897	0.9417	0.4826	0.064
Mof_C 	C 	0.617	0.9777	0.4937	0.075
Mof_H 	H 	0.5884	0.923	0.4796	0.005
Mof_C 	C 	0.565	0.9581	0.4809	-0.144
Mof_C 	C 	0.5936	0.9965	0.4907	-0.144
Mof_H 	H 	0.6338	0.9844	0.4995	0.001
Mof_H 	H 	0.5481	0.9504	0.4771	0.077
Mof_C 	C 	0.5682	0.9863	0.4851	0.062
Mof_H 	H 	0.5961	0.0153	0.4927	0.065
Mof_C 	C 	0.5433	0.0031	0.4822	0.018
Mof_C 	C 	0.5265	0.9997	0.4599	-0.092
Mof_H 	H 	0.53	0.986	0.4472	0.056
Mof_Mo	Mo	0.70833	0.10679	0.93982	1.039
Mof_O 	O 	0.68835	0.10399	0.97433	-0.748
Mof_O 	O 	0.74306	0.10928	0.91562	-0.493
Mof_O 	O 	0.71782	0.06837	0.94804	-0.64
Mof_O 	O 	0.71363	0.14558	0.94359	-0.746
Mof_Mo	Mo	0.74734	0.05603	0.96726	1.236
Mof_Mo	Mo	0.78085	0.10731	0.93348	1.128
Mof_Zn	Zn	0.69106	0.07844	0.00518	1.227
Mof_O 	O 	0.77488	0.05877	0.99725	-0.761
Mof_O 	O 	0.77386	0.0708	0.942	-0.647
Mof_O 	O 	0.65906	0.05479	0.00613	-0.5
Mof_C 	C 	0.6373	0.0668	0.0093	0.375
Mof_C 	C 	0.6142	0.0478	0.0116	-0.174
Mof_O 	O 	0.63492	0.09239	0.01026	-0.338
Mof_C 	C 	0.5897	0.0583	0.0174	0.064
Mof_C 	C 	0.617	0.0223	0.0063	0.075
Mof_H 	H 	0.5884	0.077	0.0204	0.005
Mof_C 	C 	0.565	0.0419	0.0191	-0.144
Mof_C 	C 	0.5936	0.0035	0.0093	-0.144
Mof_H 	H 	0.6338	0.0156	0.0005	0.001
Mof_H 	H 	0.5481	0.0496	0.0229	0.077
Mof_C 	C 	0.5682	0.0137	0.0149	0.062
Mof_H 	H 	0.5961	0.9847	0.0073	0.065
Mof_C 	C 	0.5433	0.9969	0.0178	0.018
Mof_C 	C 	0.5265	0.0003	0.0401	-0.092
Mof_H 	H 	0.53	0.014	0.0528	0.056
Mof_Mo	Mo	0.20833	0.60679	0.43982	1.039
Mof_O 	O 	0.18835	0.60399	0.47433	-0.748
Mof_O 	O 	0.24306	0.60928	0.41562	-0.493
Mof_O 	O 	0.21782	0.56837	0.44804	-0.64
Mof_O 	O 	0.21363	0.64558	0.44359	-0.746
Mof_Mo	Mo	0.24734	0.55603	0.46726	1.236
Mof_Mo	Mo	0.28085	0.60731	0.43348	1.128
Mof_Zn	Zn	0.19106	0.57844	0.50518	1.227
Mof_O 	O 	0.27488	0.55877	0.49725	-0.761
Mof_O 	O 	0.27386	0.5708	0.442	-0.647
Mof_O 	O 	0.15906	0.55479	0.50613	-0.5
Mof_C 	C 	0.1373	0.5668	0.5093	0.375
Mof_C 	C 	0.1142	0.5478	0.5116	-0.174
Mof_O 	O 	0.13492	0.59239	0.51026	-0.338
Mof_C 	C 	0.0897	0.5583	0.5174	0.064
Mof_C 	C 	0.117	0.5223	0.5063	0.075
Mof_H 	H 	0.0884	0.577	0.5204	0.005
Mof_C 	C 	0.065	0.5419	0.5191	-0.144
Mof_C 	C 	0.0936	0.5035	0.5093	-0.144
Mof_H 	H 	0.1338	0.5156	0.5005	0.001
Mof_H 	H 	0.0481	0.5496	0.5229	0.077
Mof_C 	C 	0.0682	0.5137	0.5149	0.062
Mof_H 	H 	0.0961	0.4847	0.5073	0.065
Mof_C 	C 	0.0433	0.4969	0.5178	0.018
Mof_C 	C 	0.0265	0.5003	0.5401	-0.092
Mof_H 	H 	0.03	0.514	0.5528	0.056
Mof_Mo	Mo	0.29167	0.60679	0.56018	1.039
Mof_O 	O 	0.31165	0.60399	0.52567	-0.748
Mof_O 	O 	0.25694	0.60928	0.58438	-0.493
Mof_O 	O 	0.28218	0.56837	0.55196	-0.64
Mof_O 	O 	0.28637	0.64558	0.55641	-0.746
Mof_Mo	Mo	0.25266	0.55603	0.53274	1.236
Mof_Mo	Mo	0.21915	0.60731	0.56652	1.128
Mof_Zn	Zn	0.30894	0.57844	0.49482	1.227
Mof_O 	O 	0.22512	0.55877	0.50275	-0.761
Mof_O 	O 	0.22614	0.5708	0.558	-0.647
Mof_O 	O 	0.34094	0.55479	0.49387	-0.5
Mof_C 	C 	0.3627	0.5668	0.4907	0.375
Mof_C 	C 	0.3858	0.5478	0.4884	-0.174
Mof_O 	O 	0.36508	0.59239	0.48974	-0.338
Mof_C 	C 	0.4103	0.5583	0.4826	0.064
Mof_C 	C 	0.383	0.5223	0.4937	0.075
Mof_H 	H 	0.4116	0.577	0.4796	0.005
Mof_C 	C 	0.435	0.5419	0.4809	-0.144
Mof_C 	C 	0.4064	0.5035	0.4907	-0.144
Mof_H 	H 	0.3662	0.5156	0.4995	0.001
Mof_H 	H 	0.4519	0.5496	0.4771	0.077
Mof_C 	C 	0.4318	0.5137	0.4851	0.062
Mof_H 	H 	0.4039	0.4847	0.4927	0.065
Mof_C 	C 	0.4567	0.4969	0.4822	0.018
Mof_C 	C 	0.4735	0.5003	0.4599	-0.092
Mof_H 	H 	0.47	0.514	0.4472	0.056
Mof_Mo	Mo	0.79167	0.10679	0.06018	1.039
Mof_O 	O 	0.81165	0.10399	0.02567	-0.748
Mof_O 	O 	0.75694	0.10928	0.08438	-0.493
Mof_O 	O 	0.78218	0.06837	0.05196	-0.64
Mof_O 	O 	0.78637	0.14558	0.05641	-0.746
Mof_Mo	Mo	0.75266	0.05603	0.03274	1.236
Mof_Mo	Mo	0.71915	0.10731	0.06652	1.128
Mof_Zn	Zn	0.80894	0.07844	0.99482	1.227
Mof_O 	O 	0.72512	0.05877	0.00275	-0.761
Mof_O 	O 	0.72614	0.0708	0.058	-0.647
Mof_O 	O 	0.84094	0.05479	0.99387	-0.5
Mof_C 	C 	0.8627	0.0668	0.9907	0.375
Mof_C 	C 	0.8858	0.0478	0.9884	-0.174
Mof_O 	O 	0.86508	0.09239	0.98974	-0.338
Mof_C 	C 	0.9103	0.0583	0.9826	0.064
Mof_C 	C 	0.883	0.0223	0.9937	0.075
Mof_H 	H 	0.9116	0.077	0.9796	0.005
Mof_C 	C 	0.935	0.0419	0.9809	-0.144
Mof_C 	C 	0.9064	0.0035	0.9907	-0.144
Mof_H 	H 	0.8662	0.0156	0.9995	0.001
Mof_H 	H 	0.9519	0.0496	0.9771	0.077
Mof_C 	C 	0.9318	0.0137	0.9851	0.062
Mof_H 	H 	0.9039	0.9847	0.9927	0.065
Mof_C 	C 	0.9567	0.9969	0.9822	0.018
Mof_C 	C 	0.9735	0.0003	0.9599	-0.092
Mof_H 	H 	0.97	0.014	0.9472	0.056
Mof_Mo	Mo	0.79167	0.89321	0.43982	1.039
Mof_O 	O 	0.81165	0.89601	0.47433	-0.748
Mof_O 	O 	0.75694	0.89072	0.41562	-0.493
Mof_O 	O 	0.78218	0.93163	0.44804	-0.64
Mof_O 	O 	0.78637	0.85442	0.44359	-0.746
Mof_Mo	Mo	0.75266	0.94397	0.46726	1.236
Mof_Mo	Mo	0.71915	0.89269	0.43348	1.128
Mof_Zn	Zn	0.80894	0.92156	0.50518	1.227
Mof_O 	O 	0.72512	0.94123	0.49725	-0.761
Mof_O 	O 	0.72614	0.9292	0.442	-0.647
Mof_O 	O 	0.84094	0.94521	0.50613	-0.5
Mof_C 	C 	0.8627	0.9332	0.5093	0.375
Mof_C 	C 	0.8858	0.9522	0.5116	-0.174
Mof_O 	O 	0.86508	0.90761	0.51026	-0.338
Mof_C 	C 	0.9103	0.9417	0.5174	0.064
Mof_C 	C 	0.883	0.9777	0.5063	0.075
Mof_H 	H 	0.9116	0.923	0.5204	0.005
Mof_C 	C 	0.935	0.9581	0.5191	-0.144
Mof_C 	C 	0.9064	0.9965	0.5093	-0.144
Mof_H 	H 	0.8662	0.9844	0.5005	0.001
Mof_H 	H 	0.9519	0.9504	0.5229	0.077
Mof_C 	C 	0.9318	0.9863	0.5149	0.062
Mof_H 	H 	0.9039	0.0153	0.5073	0.065
Mof_C 	C 	0.9567	0.0031	0.5178	0.018
Mof_C 	C 	0.9735	0.9997	0.5401	-0.092
Mof_H 	H 	0.97	0.986	0.5528	0.056
Mof_Mo	Mo	0.29167	0.39321	0.93982	1.039
Mof_O 	O 	0.31165	0.39601	0.97433	-0.748
Mof_O 	O 	0.25694	0.39072	0.91562	-0.493
Mof_O 	O 	0.28218	0.43163	0.94804	-0.64
Mof_O 	O 	0.28637	0.35442	0.94359	-0.746
Mof_Mo	Mo	0.25266	0.44397	0.96726	1.236
Mof_Mo	Mo	0.21915	0.39269	0.93348	1.128
Mof_Zn	Zn	0.30894	0.42156	0.00518	1.227
Mof_O 	O 	0.22512	0.44123	0.99725	-0.761
Mof_O 	O 	0.22614	0.4292	0.942	-0.647
Mof_O 	O 	0.34094	0.44521	0.00613	-0.5
Mof_C 	C 	0.3627	0.4332	0.0093	0.375
Mof_C 	C 	0.3858	0.4522	0.0116	-0.174
Mof_O 	O 	0.36508	0.40761	0.01026	-0.338
Mof_C 	C 	0.4103	0.4417	0.0174	0.064
Mof_C 	C 	0.383	0.4777	0.0063	0.075
Mof_H 	H 	0.4116	0.423	0.0204	0.005
Mof_C 	C 	0.435	0.4581	0.0191	-0.144
Mof_C 	C 	0.4064	0.4965	0.0093	-0.144
Mof_H 	H 	0.3662	0.4844	0.0005	0.001
Mof_H 	H 	0.4519	0.4504	0.0229	0.077
Mof_C 	C 	0.4318	0.4863	0.0149	0.062
Mof_H 	H 	0.4039	0.5153	0.0073	0.065
Mof_C 	C 	0.4567	0.5031	0.0178	0.018
Mof_C 	C 	0.4735	0.4997	0.0401	-0.092
Mof_H 	H 	0.47	0.486	0.0528	0.056
Mof_Mo	Mo	0.06018	0.20833	0.39321	1.039
Mof_O 	O 	0.02567	0.18835	0.39601	-0.748
Mof_O 	O 	0.08438	0.24306	0.39072	-0.493
Mof_O 	O 	0.05196	0.21782	0.43163	-0.64
Mof_O 	O 	0.05641	0.21363	0.35442	-0.746
Mof_Mo	Mo	0.03274	0.24734	0.44397	1.236
Mof_Mo	Mo	0.06652	0.28085	0.39269	1.128
Mof_Zn	Zn	0.99482	0.19106	0.42156	1.227
Mof_O 	O 	0.00275	0.27488	0.44123	-0.761
Mof_O 	O 	0.058	0.27386	0.4292	-0.647
Mof_O 	O 	0.99387	0.15906	0.44521	-0.5
Mof_C 	C 	0.9907	0.1373	0.4332	0.375
Mof_C 	C 	0.9884	0.1142	0.4522	-0.174
Mof_O 	O 	0.98974	0.13492	0.40761	-0.338
Mof_C 	C 	0.9826	0.0897	0.4417	0.064
Mof_C 	C 	0.9937	0.117	0.4777	0.075
Mof_H 	H 	0.9796	0.0884	0.423	0.005
Mof_C 	C 	0.9809	0.065	0.4581	-0.144
Mof_C 	C 	0.9907	0.0936	0.4965	-0.144
Mof_H 	H 	0.9995	0.1338	0.4844	0.001
Mof_H 	H 	0.9771	0.0481	0.4504	0.077
Mof_C 	C 	0.9851	0.0682	0.4863	0.062
Mof_H 	H 	0.9927	0.0961	0.5153	0.065
Mof_C 	C 	0.9822	0.0433	0.5031	0.018
Mof_C 	C 	0.9599	0.0265	0.4997	-0.092
Mof_H 	H 	0.9472	0.03	0.486	0.056
Mof_Mo	Mo	0.56018	0.70833	0.89321	1.039
Mof_O 	O 	0.52567	0.68835	0.89601	-0.748
Mof_O 	O 	0.58438	0.74306	0.89072	-0.493
Mof_O 	O 	0.55196	0.71782	0.93163	-0.64
Mof_O 	O 	0.55641	0.71363	0.85442	-0.746
Mof_Mo	Mo	0.53274	0.74734	0.94397	1.236
Mof_Mo	Mo	0.56652	0.78085	0.89269	1.128
Mof_Zn	Zn	0.49482	0.69106	0.92156	1.227
Mof_O 	O 	0.50275	0.77488	0.94123	-0.761
Mof_O 	O 	0.558	0.77386	0.9292	-0.647
Mof_O 	O 	0.49387	0.65906	0.94521	-0.5
Mof_C 	C 	0.4907	0.6373	0.9332	0.375
Mof_C 	C 	0.4884	0.6142	0.9522	-0.174
Mof_O 	O 	0.48974	0.63492	0.90761	-0.338
Mof_C 	C 	0.4826	0.5897	0.9417	0.064
Mof_C 	C 	0.4937	0.617	0.9777	0.075
Mof_H 	H 	0.4796	0.5884	0.923	0.005
Mof_C 	C 	0.4809	0.565	0.9581	-0.144
Mof_C 	C 	0.4907	0.5936	0.9965	-0.144
Mof_H 	H 	0.4995	0.6338	0.9844	0.001
Mof_H 	H 	0.4771	0.5481	0.9504	0.077
Mof_C 	C 	0.4851	0.5682	0.9863	0.062
Mof_H 	H 	0.4927	0.5961	0.0153	0.065
Mof_C 	C 	0.4822	0.5433	0.0031	0.018
Mof_C 	C 	0.4599	0.5265	0.9997	-0.092
Mof_H 	H 	0.4472	0.53	0.986	0.056
Mof_Mo	Mo	0.93982	0.70833	0.10679	1.039
Mof_O 	O 	0.97433	0.68835	0.10399	-0.748
Mof_O 	O 	0.91562	0.74306	0.10928	-0.493
Mof_O 	O 	0.94804	0.71782	0.06837	-0.64
Mof_O 	O 	0.94359	0.71363	0.14558	-0.746
Mof_Mo	Mo	0.96726	0.74734	0.05603	1.236
Mof_Mo	Mo	0.93348	0.78085	0.10731	1.128
Mof_Zn	Zn	0.00518	0.69106	0.07844	1.227
Mof_O 	O 	0.99725	0.77488	0.05877	-0.761
Mof_O 	O 	0.942	0.77386	0.0708	-0.647
Mof_O 	O 	0.00613	0.65906	0.05479	-0.5
Mof_C 	C 	0.0093	0.6373	0.0668	0.375
Mof_C 	C 	0.0116	0.6142	0.0478	-0.174
Mof_O 	O 	0.01026	0.63492	0.09239	-0.338
Mof_C 	C 	0.0174	0.5897	0.0583	0.064
Mof_C 	C 	0.0063	0.617	0.0223	0.075
Mof_H 	H 	0.0204	0.5884	0.077	0.005
Mof_C 	C 	0.0191	0.565	0.0419	-0.144
Mof_C 	C 	0.0093	0.5936	0.0035	-0.144
Mof_H 	H 	0.0005	0.6338	0.0156	0.001
Mof_H 	H 	0.0229	0.5481	0.0496	0.077
Mof_C 	C 	0.0149	0.5682	0.0137	0.062
Mof_H 	H 	0.0073	0.5961	0.9847	0.065
Mof_C 	C 	0.0178	0.5433	0.9969	0.018
Mof_C 	C 	0.0401	0.5265	0.0003	-0.092
Mof_H 	H 	0.0528	0.53	0.014	0.056
Mof_Mo	Mo	0.43982	0.20833	0.60679	1.039
Mof_O 	O 	0.47433	0.18835	0.60399	-0.748
Mof_O 	O 	0.41562	0.24306	0.60928	-0.493
Mof_O 	O 	0.44804	0.21782	0.56837	-0.64
Mof_O 	O 	0.44359	0.21363	0.64558	-0.746
Mof_Mo	Mo	0.46726	0.24734	0.55603	1.236
Mof_Mo	Mo	0.43348	0.28085	0.60731	1.128
Mof_Zn	Zn	0.50518	0.19106	0.57844	1.227
Mof_O 	O 	0.49725	0.27488	0.55877	-0.761
Mof_O 	O 	0.442	0.27386	0.5708	-0.647
Mof_O 	O 	0.50613	0.15906	0.55479	-0.5
Mof_C 	C 	0.5093	0.1373	0.5668	0.375
Mof_C 	C 	0.5116	0.1142	0.5478	-0.174
Mof_O 	O 	0.51026	0.13492	0.59239	-0.338
Mof_C 	C 	0.5174	0.0897	0.5583	0.064
Mof_C 	C 	0.5063	0.117	0.5223	0.075
Mof_H 	H 	0.5204	0.0884	0.577	0.005
Mof_C 	C 	0.5191	0.065	0.5419	-0.144
Mof_C 	C 	0.5093	0.0936	0.5035	-0.144
Mof_H 	H 	0.5005	0.1338	0.5156	0.001
Mof_H 	H 	0.5229	0.0481	0.5496	0.077
Mof_C 	C 	0.5149	0.0682	0.5137	0.062
Mof_H 	H 	0.5073	0.0961	0.4847	0.065
Mof_C 	C 	0.5178	0.0433	0.4969	0.018
Mof_C 	C 	0.5401	0.0265	0.5003	-0.092
Mof_H 	H 	0.5528	0.03	0.514	0.056
Mof_Mo	Mo	0.56018	0.29167	0.60679	1.039
Mof_O 	O 	0.52567	0.31165	0.60399	-0.748
Mof_O 	O 	0.58438	0.25694	0.60928	-0.493
Mof_O 	O 	0.55196	0.28218	0.56837	-0.64
Mof_O 	O 	0.55641	0.28637	0.64558	-0.746
Mof_Mo	Mo	0.53274	0.25266	0.55603	1.236
Mof_Mo	Mo	0.56652	0.21915	0.60731	1.128
Mof_Zn	Zn	0.49482	0.30894	0.57844	1.227
Mof_O 	O 	0.50275	0.22512	0.55877	-0.761
Mof_O 	O 	0.558	0.22614	0.5708	-0.647
Mof_O 	O 	0.49387	0.34094	0.55479	-0.5
Mof_C 	C 	0.4907	0.3627	0.5668	0.375
Mof_C 	C 	0.4884	0.3858	0.5478	-0.174
Mof_O 	O 	0.48974	0.36508	0.59239	-0.338
Mof_C 	C 	0.4826	0.4103	0.5583	0.064
Mof_C 	C 	0.4937	0.383	0.5223	0.075
Mof_H 	H 	0.4796	0.4116	0.577	0.005
Mof_C 	C 	0.4809	0.435	0.5419	-0.144
Mof_C 	C 	0.4907	0.4064	0.5035	-0.144
Mof_H 	H 	0.4995	0.3662	0.5156	0.001
Mof_H 	H 	0.4771	0.4519	0.5496	0.077
Mof_C 	C 	0.4851	0.4318	0.5137	0.062
Mof_H 	H 	0.4927	0.4039	0.4847	0.065
Mof_C 	C 	0.4822	0.4567	0.4969	0.018
Mof_C 	C 	0.4599	0.4735	0.5003	-0.092
Mof_H 	H 	0.4472	0.47	0.514	0.056
Mof_Mo	Mo	0.06018	0.79167	0.10679	1.039
Mof_O 	O 	0.02567	0.81165	0.10399	-0.748
Mof_O 	O 	0.08438	0.75694	0.10928	-0.493
Mof_O 	O 	0.05196	0.78218	0.06837	-0.64
Mof_O 	O 	0.05641	0.78637	0.14558	-0.746
Mof_Mo	Mo	0.03274	0.75266	0.05603	1.236
Mof_Mo	Mo	0.06652	0.71915	0.10731	1.128
Mof_Zn	Zn	0.99482	0.80894	0.07844	1.227
Mof_O 	O 	0.00275	0.72512	0.05877	-0.761
Mof_O 	O 	0.058	0.72614	0.0708	-0.647
Mof_O 	O 	0.99387	0.84094	0.05479	-0.5
Mof_C 	C 	0.9907	0.8627	0.0668	0.375
Mof_C 	C 	0.9884	0.8858	0.0478	-0.174
Mof_O 	O 	0.98974	0.86508	0.09239	-0.338
Mof_C 	C 	0.9826	0.9103	0.0583	0.064
Mof_C 	C 	0.9937	0.883	0.0223	0.075
Mof_H 	H 	0.9796	0.9116	0.077	0.005
Mof_C 	C 	0.9809	0.935	0.0419	-0.144
Mof_C 	C 	0.9907	0.9064	0.0035	-0.144
Mof_H 	H 	0.9995	0.8662	0.0156	0.001
Mof_H 	H 	0.9771	0.9519	0.0496	0.077
Mof_C 	C 	0.9851	0.9318	0.0137	0.062
Mof_H 	H 	0.9927	0.9039	0.9847	0.065
Mof_C 	C 	0.9822	0.9567	0.9969	0.018
Mof_C 	C 	0.9599	0.9735	0.0003	-0.092
Mof_H 	H 	0.9472	0.97	0.014	0.056
Mof_Mo	Mo	0.43982	0.79167	0.89321	1.039
Mof_O 	O 	0.47433	0.81165	0.89601	-0.748
Mof_O 	O 	0.41562	0.75694	0.89072	-0.493
Mof_O 	O 	0.44804	0.78218	0.93163	-0.64
Mof_O 	O 	0.44359	0.78637	0.85442	-0.746
Mof_Mo	Mo	0.46726	0.75266	0.94397	1.236
Mof_Mo	Mo	0.43348	0.71915	0.89269	1.128
Mof_Zn	Zn	0.50518	0.80894	0.92156	1.227
Mof_O 	O 	0.49725	0.72512	0.94123	-0.761
Mof_O 	O 	0.442	0.72614	0.9292	-0.647
Mof_O 	O 	0.50613	0.84094	0.94521	-0.5
Mof_C 	C 	0.5093	0.8627	0.9332	0.375
Mof_C 	C 	0.5116	0.8858	0.9522	-0.174
Mof_O 	O 	0.51026	0.86508	0.90761	-0.338
Mof_C 	C 	0.5174	0.9103	0.9417	0.064
Mof_C 	C 	0.5063	0.883	0.9777	0.075
Mof_H 	H 	0.5204	0.9116	0.923	0.005
Mof_C 	C 	0.5191	0.935	0.9581	-0.144
Mof_C 	C 	0.5093	0.9064	0.9965	-0.144
Mof_H 	H 	0.5005	0.8662	0.9844	0.001
Mof_H 	H 	0.5229	0.9519	0.9504	0.077
Mof_C 	C 	0.5149	0.9318	0.9863	0.062
Mof_H 	H 	0.5073	0.9039	0.0153	0.065
Mof_C 	C 	0.5178	0.9567	0.0031	0.018
Mof_C 	C 	0.5401	0.9735	0.9997	-0.092
Mof_H 	H 	0.5528	0.97	0.986	0.056
Mof_Mo	Mo	0.93982	0.29167	0.39321	1.039
Mof_O 	O 	0.97433	0.31165	0.39601	-0.748
Mof_O 	O 	0.91562	0.25694	0.39072	-0.493
Mof_O 	O 	0.94804	0.28218	0.43163	-0.64
Mof_O 	O 	0.94359	0.28637	0.35442	-0.746
Mof_Mo	Mo	0.96726	0.25266	0.44397	1.236
Mof_Mo	Mo	0.93348	0.21915	0.39269	1.128
Mof_Zn	Zn	0.00518	0.30894	0.42156	1.227
Mof_O 	O 	0.99725	0.22512	0.44123	-0.761
Mof_O 	O 	0.942	0.22614	0.4292	-0.647
Mof_O 	O 	0.00613	0.34094	0.44521	-0.5
Mof_C 	C 	0.0093	0.3627	0.4332	0.375
Mof_C 	C 	0.0116	0.3858	0.4522	-0.174
Mof_O 	O 	0.01026	0.36508	0.40761	-0.338
Mof_C 	C 	0.0174	0.4103	0.4417	0.064
Mof_C 	C 	0.0063	0.383	0.4777	0.075
Mof_H 	H 	0.0204	0.4116	0.423	0.005
Mof_C 	C 	0.0191	0.435	0.4581	-0.144
Mof_C 	C 	0.0093	0.4064	0.4965	-0.144
Mof_H 	H 	0.0005	0.3662	0.4844	0.001
Mof_H 	H 	0.0229	0.4519	0.4504	0.077
Mof_C 	C 	0.0149	0.4318	0.4863	0.062
Mof_H 	H 	0.0073	0.4039	0.5153	0.065
Mof_C 	C 	0.0178	0.4567	0.5031	0.018
Mof_C 	C 	0.0401	0.4735	0.4997	-0.092
Mof_H 	H 	0.0528	0.47	0.486	0.056
_end
