data_functionalizedCrystal
_audit_creation_method	'EQeq! by Chris Wilmer'
_symmetry_space_group_name_H-M	'P1'
_symmetry_Int_Tables_number	1
_symmetry_cell_setting	triclinic
loop_
_symmetry_equiv_pos_as_xyz
  x,y,z
_cell_length_a	10.5382
_cell_length_b	17.668
_cell_length_c	20.005
_cell_angle_alpha	90
_cell_angle_beta	90
_cell_angle_gamma	91.205
loop_
_atom_site_label
_atom_site_type_symbol
_atom_site_fract_x
_atom_site_fract_y
_atom_site_fract_z
_atom_site_charge
Mof_Gd	Gd	0.1779	0.50013	0.26557	1.686
Mof_Gd	Gd	0.25383	0.99195	0.5181	1.713
Mof_Gd	Gd	0.3221	0.49987	0.76557	1.686
Mof_Gd	Gd	0.24617	0.00805	0.0181	1.708
Mof_Gd	Gd	0.8221	0.49987	0.73443	1.687
Mof_Gd	Gd	0.74617	0.00805	0.4819	1.714
Mof_Gd	Gd	0.6779	0.50013	0.23443	1.687
Mof_Gd	Gd	0.75383	0.99195	0.9819	1.709
Mof_H 	H 	0.1325	0.6872	0.3279	0.01
Mof_H 	H 	0.1673	0.7983	0.3893	0.045
Mof_H 	H 	0.789	0.8276	0.4019	0.019
Mof_H 	H 	0.753	0.7149	0.3428	0.046
Mof_H 	H 	0.6397	0.3015	0.3261	0.049
Mof_H 	H 	0.2716	0.3219	0.3794	0.031
Mof_H 	H 	0.2862	0.2148	0.4467	0.041
Mof_H 	H 	0.6565	0.196	0.3959	0.018
Mof_H 	H 	0.3675	0.3128	0.8279	0.01
Mof_H 	H 	0.3327	0.2017	0.8893	0.045
Mof_H 	H 	0.711	0.1724	0.9019	0.019
Mof_H 	H 	0.747	0.2851	0.8428	0.046
Mof_H 	H 	0.8603	0.6985	0.8261	0.049
Mof_H 	H 	0.2284	0.6781	0.8794	0.031
Mof_H 	H 	0.2138	0.7852	0.9467	0.04
Mof_H 	H 	0.8435	0.804	0.8959	0.018
Mof_H 	H 	0.8675	0.3128	0.6721	0.01
Mof_H 	H 	0.8327	0.2017	0.6107	0.045
Mof_H 	H 	0.211	0.1724	0.5981	0.019
Mof_H 	H 	0.247	0.2851	0.6572	0.046
Mof_H 	H 	0.3603	0.6985	0.6739	0.049
Mof_H 	H 	0.7284	0.6781	0.6206	0.031
Mof_H 	H 	0.7138	0.7852	0.5533	0.041
Mof_H 	H 	0.3435	0.804	0.6041	0.018
Mof_H 	H 	0.6325	0.6872	0.1721	0.01
Mof_H 	H 	0.6673	0.7983	0.1107	0.045
Mof_H 	H 	0.289	0.8276	0.0981	0.019
Mof_H 	H 	0.253	0.7149	0.1572	0.046
Mof_H 	H 	0.1397	0.3015	0.1739	0.049
Mof_H 	H 	0.7716	0.3219	0.1206	0.031
Mof_H 	H 	0.7862	0.2148	0.0533	0.04
Mof_H 	H 	0.1565	0.196	0.1041	0.018
Mof_C 	C 	0.9162	0.6154	0.2953	0.467
Mof_C 	C 	0.9393	0.6898	0.3305	-0.127
Mof_C 	C 	0.0624	0.7151	0.3437	0.006
Mof_C 	C 	0.0831	0.7812	0.3801	-0.012
Mof_C 	C 	0.9806	0.8226	0.4032	-0.125
Mof_C 	C 	0.859	0.7984	0.3879	0.008
Mof_C 	C 	0.8373	0.7317	0.3522	-0.008
Mof_C 	C 	0.0058	0.8931	0.444	0.485
Mof_C 	C 	0.4405	0.3861	0.2964	0.473
Mof_C 	C 	0.5676	0.2836	0.3503	-0.006
Mof_C 	C 	0.3491	0.2955	0.3815	-0.002
Mof_C 	C 	0.4793	0.1234	0.4685	0.493
Mof_C 	C 	0.3583	0.2322	0.4221	0.012
Mof_C 	C 	0.4528	0.3207	0.3439	-0.111
Mof_C 	C 	0.5778	0.2208	0.3917	0.014
Mof_C 	C 	0.471	0.1943	0.4273	-0.132
Mof_C 	C 	0.5838	0.3846	0.7953	0.466
Mof_C 	C 	0.5607	0.3102	0.8305	-0.127
Mof_C 	C 	0.4376	0.2849	0.8437	0.006
Mof_C 	C 	0.4169	0.2188	0.8801	-0.007
Mof_C 	C 	0.5194	0.1774	0.9032	-0.131
Mof_C 	C 	0.641	0.2016	0.8879	0.011
Mof_C 	C 	0.6627	0.2683	0.8522	-0.01
Mof_C 	C 	0.4942	0.1069	0.944	0.491
Mof_C 	C 	0.0595	0.6139	0.7964	0.473
Mof_C 	C 	0.9324	0.7164	0.8503	-0.006
Mof_C 	C 	0.1509	0.7045	0.8815	-0.003
Mof_C 	C 	0.0207	0.8766	0.9685	0.49
Mof_C 	C 	0.1417	0.7678	0.9221	0.013
Mof_C 	C 	0.0472	0.6793	0.8439	-0.112
Mof_C 	C 	0.9222	0.7792	0.8917	0.016
Mof_C 	C 	0.029	0.8057	0.9273	-0.134
Mof_C 	C 	0.0838	0.3846	0.7047	0.467
Mof_C 	C 	0.0607	0.3102	0.6695	-0.127
Mof_C 	C 	0.9376	0.2849	0.6563	0.006
Mof_C 	C 	0.9169	0.2188	0.6199	-0.012
Mof_C 	C 	0.0194	0.1774	0.5968	-0.125
Mof_C 	C 	0.141	0.2016	0.6121	0.008
Mof_C 	C 	0.1627	0.2683	0.6478	-0.008
Mof_C 	C 	0.9942	0.1069	0.556	0.485
Mof_C 	C 	0.5595	0.6139	0.7036	0.473
Mof_C 	C 	0.4324	0.7164	0.6497	-0.006
Mof_C 	C 	0.6509	0.7045	0.6185	-0.002
Mof_C 	C 	0.5207	0.8766	0.5315	0.493
Mof_C 	C 	0.6417	0.7678	0.5779	0.012
Mof_C 	C 	0.5472	0.6793	0.6561	-0.111
Mof_C 	C 	0.4222	0.7792	0.6083	0.014
Mof_C 	C 	0.529	0.8057	0.5727	-0.132
Mof_C 	C 	0.4162	0.6154	0.2047	0.466
Mof_C 	C 	0.4393	0.6898	0.1695	-0.127
Mof_C 	C 	0.5624	0.7151	0.1563	0.006
Mof_C 	C 	0.5831	0.7812	0.1199	-0.007
Mof_C 	C 	0.4806	0.8226	0.0968	-0.131
Mof_C 	C 	0.359	0.7984	0.1121	0.011
Mof_C 	C 	0.3373	0.7317	0.1478	-0.01
Mof_C 	C 	0.5058	0.8931	0.056	0.491
Mof_C 	C 	0.9405	0.3861	0.2036	0.473
Mof_C 	C 	0.0676	0.2836	0.1497	-0.006
Mof_C 	C 	0.8491	0.2955	0.1185	-0.003
Mof_C 	C 	0.9793	0.1234	0.0315	0.49
Mof_C 	C 	0.8583	0.2322	0.0779	0.013
Mof_C 	C 	0.9528	0.3207	0.1561	-0.112
Mof_C 	C 	0.0778	0.2208	0.1083	0.016
Mof_C 	C 	0.971	0.1943	0.0727	-0.134
Mof_N 	N 	0.1874	0.4754	0.1208	0.064
Mof_N 	N 	0.2621	0.0249	0.3749	0.066
Mof_N 	N 	0.3126	0.5246	0.6208	0.064
Mof_N 	N 	0.2379	0.9751	0.8749	0.062
Mof_N 	N 	0.8126	0.5246	0.8792	0.064
Mof_N 	N 	0.7379	0.9751	0.6251	0.066
Mof_N 	N 	0.6874	0.4754	0.3792	0.064
Mof_N 	N 	0.7621	0.0249	0.1251	0.062
Mof_O 	O 	0.0106	0.58001	0.27534	-0.521
Mof_O 	O 	0.1029	0.5157	0.14558	-0.236
Mof_O 	O 	0.2587	0.44113	0.16161	-0.253
Mof_O 	O 	0.5336	0.40036	0.25781	-0.469
Mof_O 	O 	0.3393	0.42102	0.29715	-0.508
Mof_O 	O 	0.8033	0.59381	0.28863	-0.471
Mof_O 	O 	0.1153	0.90316	0.46699	-0.478
Mof_O 	O 	0.1785	0.0518	0.41181	-0.244
Mof_O 	O 	0.337	0.978	0.40152	-0.253
Mof_O 	O 	0.3803	0.10002	0.49661	-0.487
Mof_O 	O 	0.5841	0.09138	0.47117	-0.526
Mof_O 	O 	0.9158	0.93644	0.45271	-0.517
Mof_O 	O 	0.2031	0.4699	0.0601	-0.128
Mof_O 	O 	0.2705	0.0417	0.3163	-0.131
Mof_O 	O 	0.4894	0.41999	0.77534	-0.52
Mof_O 	O 	0.3971	0.4843	0.64558	-0.236
Mof_O 	O 	0.2413	0.55887	0.66161	-0.253
Mof_O 	O 	0.9664	0.59964	0.75781	-0.469
Mof_O 	O 	0.1607	0.57898	0.79715	-0.508
Mof_O 	O 	0.6967	0.40619	0.78863	-0.471
Mof_O 	O 	0.3847	0.09684	0.96699	-0.475
Mof_O 	O 	0.3215	0.9482	0.91181	-0.246
Mof_O 	O 	0.163	0.022	0.90152	-0.246
Mof_O 	O 	0.1197	0.89998	0.99661	-0.489
Mof_O 	O 	0.9159	0.90862	0.97117	-0.525
Mof_O 	O 	0.5842	0.06356	0.95271	-0.518
Mof_O 	O 	0.2969	0.5301	0.5601	-0.128
Mof_O 	O 	0.2295	0.9583	0.8163	-0.133
Mof_O 	O 	0.9894	0.41999	0.72466	-0.521
Mof_O 	O 	0.8971	0.4843	0.85442	-0.236
Mof_O 	O 	0.7413	0.55887	0.83839	-0.253
Mof_O 	O 	0.4664	0.59964	0.74219	-0.469
Mof_O 	O 	0.6607	0.57898	0.70285	-0.508
Mof_O 	O 	0.1967	0.40619	0.71137	-0.471
Mof_O 	O 	0.8847	0.09684	0.53301	-0.478
Mof_O 	O 	0.8215	0.9482	0.58819	-0.244
Mof_O 	O 	0.663	0.022	0.59848	-0.253
Mof_O 	O 	0.6197	0.89998	0.50339	-0.487
Mof_O 	O 	0.4159	0.90862	0.52883	-0.526
Mof_O 	O 	0.0842	0.06356	0.54729	-0.517
Mof_O 	O 	0.7969	0.5301	0.9399	-0.128
Mof_O 	O 	0.7295	0.9583	0.6837	-0.131
Mof_O 	O 	0.5106	0.58001	0.22466	-0.52
Mof_O 	O 	0.6029	0.5157	0.35442	-0.236
Mof_O 	O 	0.7587	0.44113	0.33839	-0.253
Mof_O 	O 	0.0336	0.40036	0.24219	-0.469
Mof_O 	O 	0.8393	0.42102	0.20285	-0.508
Mof_O 	O 	0.3033	0.59381	0.21137	-0.471
Mof_O 	O 	0.6153	0.90316	0.03301	-0.475
Mof_O 	O 	0.6785	0.0518	0.08819	-0.246
Mof_O 	O 	0.837	0.978	0.09848	-0.246
Mof_O 	O 	0.8803	0.10002	0.00339	-0.489
Mof_O 	O 	0.0841	0.09138	0.02883	-0.525
Mof_O 	O 	0.4158	0.93644	0.04729	-0.518
Mof_O 	O 	0.7031	0.4699	0.4399	-0.128
Mof_O 	O 	0.7705	0.0417	0.1837	-0.133
_end
