data_functionalizedCrystal
_audit_creation_method	'EQeq! by Chris Wilmer'
_symmetry_space_group_name_H-M	'P1'
_symmetry_Int_Tables_number	1
_symmetry_cell_setting	triclinic
loop_
_symmetry_equiv_pos_as_xyz
  x,y,z
_cell_length_a	28.7611
_cell_length_b	28.7611
_cell_length_c	8.1675
_cell_angle_alpha	90
_cell_angle_beta	90
_cell_angle_gamma	120
loop_
_atom_site_label
_atom_site_type_symbol
_atom_site_fract_x
_atom_site_fract_y
_atom_site_fract_z
_atom_site_charge
Mof_C 	C 	0.216	0.576	0.91	0.034
Mof_H 	H 	0.2456	0.5693	0.9178	0.022
Mof_C 	C 	0.185	0.561	0.76	-0.078
Mof_H 	H 	0.1927	0.5459	0.6675	0.049
Mof_C 	C 	0.161	0.609	0.027	-0.043
Mof_H 	H 	0.1526	0.6254	0.117	0.034
Mof_C 	C 	0.124	0.591	0.885	-0.033
Mof_H 	H 	0.0949	0.5981	0.8775	0.048
Mof_C 	C 	0.0874	0.5854	0.536	0.023
Mof_C 	C 	0.0569	0.5699	0.391	-0.147
Mof_C 	C 	0.0393	0.606	0.316	0.42
Mof_O 	O 	0.0141	0.5908	0.182	-0.523
Mof_O 	O 	0.0505	0.6486	0.391	-0.529
Mof_H 	H 	0.0897	0.6157	0.5916	0.033
Mof_C 	C 	0.88267	0.90933	0.24333	-0.036
Mof_H 	H 	0.91227	0.90263	0.25113	0.034
Mof_C 	C 	0.85167	0.89433	0.09333	-0.036
Mof_H 	H 	0.85937	0.87923	0.00083	0.005
Mof_C 	C 	0.82767	0.94233	0.36033	-0.021
Mof_H 	H 	0.81927	0.95873	0.45033	0.044
Mof_C 	C 	0.79067	0.92433	0.21833	-0.047
Mof_H 	H 	0.76157	0.93143	0.21083	0.047
Mof_C 	C 	0.75407	0.91873	0.86933	-0.003
Mof_C 	C 	0.72357	0.90323	0.72433	-0.117
Mof_C 	C 	0.70597	0.93933	0.64933	0.412
Mof_O 	O 	0.68077	0.92413	0.51533	-0.496
Mof_O 	O 	0.71717	0.98193	0.72433	-0.496
Mof_H 	H 	0.75637	0.94903	0.92493	0.064
Mof_C 	C 	0.54933	0.24267	0.57667	-0.002
Mof_H 	H 	0.57893	0.23597	0.58447	0.026
Mof_C 	C 	0.51833	0.22767	0.42667	-0.082
Mof_H 	H 	0.52603	0.21257	0.33417	0.049
Mof_C 	C 	0.49433	0.27567	0.69367	0.015
Mof_H 	H 	0.48593	0.29207	0.78367	0.028
Mof_C 	C 	0.45733	0.25767	0.55167	-0.093
Mof_H 	H 	0.42823	0.26477	0.54417	0.066
Mof_C 	C 	0.42073	0.25207	0.20267	0.111
Mof_C 	C 	0.39023	0.23657	0.05767	-0.278
Mof_C 	C 	0.37263	0.27267	0.98267	0.528
Mof_O 	O 	0.34743	0.25747	0.84867	-0.522
Mof_O 	O 	0.38383	0.31527	0.05767	-0.569
Mof_H 	H 	0.42303	0.28237	0.25827	0.007
Mof_C 	C 	0.424	0.64	0.91	0.035
Mof_H 	H 	0.4307	0.6763	0.9178	0.023
Mof_C 	C 	0.439	0.624	0.76	-0.078
Mof_H 	H 	0.4541	0.6468	0.6675	0.049
Mof_C 	C 	0.391	0.552	0.027	-0.041
Mof_H 	H 	0.3746	0.5272	0.117	0.034
Mof_C 	C 	0.409	0.533	0.885	-0.034
Mof_H 	H 	0.4019	0.4968	0.8775	0.052
Mof_C 	C 	0.4146	0.502	0.536	0.022
Mof_C 	C 	0.4301	0.487	0.391	-0.14
Mof_C 	C 	0.394	0.4333	0.316	0.42
Mof_O 	O 	0.4092	0.4233	0.182	-0.51
Mof_O 	O 	0.3514	0.4019	0.391	-0.521
Mof_H 	H 	0.3843	0.474	0.5916	0.036
Mof_C 	C 	0.09067	0.97333	0.24333	0.047
Mof_H 	H 	0.09737	0.00963	0.25113	-0.017
Mof_C 	C 	0.10567	0.95733	0.09333	-0.081
Mof_H 	H 	0.12077	0.98013	0.00083	0.043
Mof_C 	C 	0.05767	0.88533	0.36033	0.008
Mof_H 	H 	0.04127	0.86053	0.45033	0.018
Mof_C 	C 	0.07567	0.86633	0.21833	-0.071
Mof_H 	H 	0.06857	0.83013	0.21083	0.045
Mof_C 	C 	0.08127	0.83533	0.86933	-0.008
Mof_C 	C 	0.09677	0.82033	0.72433	-0.121
Mof_C 	C 	0.06067	0.76663	0.64933	0.414
Mof_O 	O 	0.07587	0.75663	0.51533	-0.507
Mof_O 	O 	0.01807	0.73523	0.72433	-0.529
Mof_H 	H 	0.05097	0.80733	0.92493	0.055
Mof_C 	C 	0.75733	0.30667	0.57667	-0.002
Mof_H 	H 	0.76403	0.34297	0.58447	0.026
Mof_C 	C 	0.77233	0.29067	0.42667	-0.081
Mof_H 	H 	0.78743	0.31347	0.33417	0.049
Mof_C 	C 	0.72433	0.21867	0.69367	0.015
Mof_H 	H 	0.70793	0.19387	0.78367	0.028
Mof_C 	C 	0.74233	0.19967	0.55167	-0.092
Mof_H 	H 	0.73523	0.16347	0.54417	0.065
Mof_C 	C 	0.74793	0.16867	0.20267	0.107
Mof_C 	C 	0.76343	0.15367	0.05767	-0.271
Mof_C 	C 	0.72733	0.09997	0.98267	0.524
Mof_O 	O 	0.74253	0.08997	0.84867	-0.526
Mof_O 	O 	0.68473	0.06857	0.05767	-0.574
Mof_H 	H 	0.71763	0.14067	0.25827	0.008
Mof_C 	C 	0.36	0.784	0.91	0.035
Mof_H 	H 	0.3237	0.7544	0.9178	0.023
Mof_C 	C 	0.376	0.815	0.76	-0.079
Mof_H 	H 	0.3532	0.8073	0.6675	0.049
Mof_C 	C 	0.448	0.839	0.027	-0.04
Mof_H 	H 	0.4728	0.8474	0.117	0.034
Mof_C 	C 	0.467	0.876	0.885	-0.034
Mof_H 	H 	0.5032	0.9051	0.8775	0.056
Mof_C 	C 	0.498	0.9126	0.536	0.021
Mof_C 	C 	0.513	0.9431	0.391	-0.131
Mof_C 	C 	0.5667	0.9607	0.316	0.419
Mof_O 	O 	0.5767	0.9859	0.182	-0.492
Mof_O 	O 	0.5981	0.9495	0.391	-0.513
Mof_H 	H 	0.526	0.9103	0.5916	0.04
Mof_C 	C 	0.02667	0.11733	0.24333	-0.125
Mof_H 	H 	0.99037	0.08773	0.25113	0.076
Mof_C 	C 	0.04267	0.14833	0.09333	0.007
Mof_H 	H 	0.01987	0.14063	0.00083	-0.034
Mof_C 	C 	0.11467	0.17233	0.36033	-0.055
Mof_H 	H 	0.13947	0.18073	0.45033	0.046
Mof_C 	C 	0.13367	0.20933	0.21833	-0.023
Mof_H 	H 	0.16987	0.23843	0.21083	0.034
Mof_C 	C 	0.16467	0.24593	0.86933	-0.013
Mof_C 	C 	0.17967	0.27643	0.72433	-0.117
Mof_C 	C 	0.23337	0.29403	0.64933	0.412
Mof_O 	O 	0.24337	0.31923	0.51533	-0.501
Mof_O 	O 	0.26477	0.28283	0.72433	-0.513
Mof_H 	H 	0.19267	0.24363	0.92493	0.062
Mof_C 	C 	0.69333	0.45067	0.57667	-0.002
Mof_H 	H 	0.65703	0.42107	0.58447	0.026
Mof_C 	C 	0.70933	0.48167	0.42667	-0.081
Mof_H 	H 	0.68653	0.47397	0.33417	0.049
Mof_C 	C 	0.78133	0.50567	0.69367	0.015
Mof_H 	H 	0.80613	0.51407	0.78367	0.028
Mof_C 	C 	0.80033	0.54267	0.55167	-0.093
Mof_H 	H 	0.83653	0.57177	0.54417	0.065
Mof_C 	C 	0.83133	0.57927	0.20267	0.106
Mof_C 	C 	0.84633	0.60977	0.05767	-0.27
Mof_C 	C 	0.90003	0.62737	0.98267	0.519
Mof_O 	O 	0.91003	0.65257	0.84867	-0.517
Mof_O 	O 	0.93143	0.61617	0.05767	-0.556
Mof_H 	H 	0.85933	0.57697	0.25827	0.009
Mof_C 	C 	0.576	0.216	0.09	-0.048
Mof_H 	H 	0.5693	0.2456	0.0822	0.032
Mof_C 	C 	0.561	0.185	0.24	-0.061
Mof_H 	H 	0.5459	0.1927	0.3325	0.041
Mof_C 	C 	0.609	0.161	0.973	0.04
Mof_H 	H 	0.6254	0.1526	0.883	0.021
Mof_C 	C 	0.591	0.124	0.115	-0.115
Mof_H 	H 	0.5981	0.0949	0.1225	0.062
Mof_C 	C 	0.5854	0.0874	0.464	0.031
Mof_C 	C 	0.5699	0.0569	0.609	-0.147
Mof_C 	C 	0.606	0.0393	0.684	0.419
Mof_O 	O 	0.5908	0.0141	0.818	-0.503
Mof_O 	O 	0.6486	0.0505	0.609	-0.526
Mof_H 	H 	0.6157	0.0897	0.4084	0.031
Mof_C 	C 	0.24267	0.54933	0.42333	-0.026
Mof_H 	H 	0.23597	0.57893	0.41553	0.031
Mof_C 	C 	0.22767	0.51833	0.57333	-0.052
Mof_H 	H 	0.21257	0.52603	0.66583	0.038
Mof_C 	C 	0.27567	0.49433	0.30633	-0.012
Mof_H 	H 	0.29207	0.48593	0.21633	0.026
Mof_C 	C 	0.25767	0.45733	0.44833	-0.06
Mof_H 	H 	0.26477	0.42823	0.45583	0.051
Mof_C 	C 	0.25207	0.42073	0.79733	-0.07
Mof_C 	C 	0.23657	0.39023	0.94233	0.021
Mof_C 	C 	0.27267	0.37263	0.01733	0.297
Mof_O 	O 	0.25747	0.34743	0.15133	-0.477
Mof_O 	O 	0.31527	0.38383	0.94233	-0.46
Mof_H 	H 	0.28237	0.42303	0.74173	0.068
Mof_C 	C 	0.90933	0.88267	0.75667	0.016
Mof_H 	H 	0.90263	0.91227	0.74887	0.027
Mof_C 	C 	0.89433	0.85167	0.90667	-0.098
Mof_H 	H 	0.87923	0.85937	0.99917	0.083
Mof_C 	C 	0.94233	0.82767	0.63967	0.029
Mof_H 	H 	0.95873	0.81927	0.54967	0.027
Mof_C 	C 	0.92433	0.79067	0.78167	-0.106
Mof_H 	H 	0.93143	0.76157	0.78917	0.079
Mof_C 	C 	0.91873	0.75407	0.13067	0.062
Mof_C 	C 	0.90323	0.72357	0.27567	-0.157
Mof_C 	C 	0.93933	0.70597	0.35067	0.426
Mof_O 	O 	0.92413	0.68077	0.48467	-0.497
Mof_O 	O 	0.98193	0.71717	0.27567	-0.509
Mof_H 	H 	0.94903	0.75637	0.07507	0.018
Mof_C 	C 	0.64	0.424	0.09	-0.047
Mof_H 	H 	0.6763	0.4307	0.0822	0.032
Mof_C 	C 	0.624	0.439	0.24	-0.062
Mof_H 	H 	0.6468	0.4541	0.3325	0.041
Mof_C 	C 	0.552	0.391	0.973	0.042
Mof_H 	H 	0.5272	0.3746	0.883	0.021
Mof_C 	C 	0.533	0.409	0.115	-0.116
Mof_H 	H 	0.4968	0.4019	0.1225	0.066
Mof_C 	C 	0.502	0.4146	0.464	0.03
Mof_C 	C 	0.487	0.4301	0.609	-0.138
Mof_C 	C 	0.4333	0.394	0.684	0.418
Mof_O 	O 	0.4233	0.4092	0.818	-0.489
Mof_O 	O 	0.4019	0.3514	0.609	-0.518
Mof_H 	H 	0.474	0.3843	0.4084	0.035
Mof_C 	C 	0.30667	0.75733	0.42333	-0.026
Mof_H 	H 	0.34297	0.76403	0.41553	0.031
Mof_C 	C 	0.29067	0.77233	0.57333	-0.052
Mof_H 	H 	0.31347	0.78743	0.66583	0.038
Mof_C 	C 	0.21867	0.72433	0.30633	-0.012
Mof_H 	H 	0.19387	0.70793	0.21633	0.026
Mof_C 	C 	0.19967	0.74233	0.44833	-0.06
Mof_H 	H 	0.16347	0.73523	0.45583	0.051
Mof_C 	C 	0.16867	0.74793	0.79733	-0.071
Mof_C 	C 	0.15367	0.76343	0.94233	0.023
Mof_C 	C 	0.09997	0.72733	0.01733	0.295
Mof_O 	O 	0.08997	0.74253	0.15133	-0.481
Mof_O 	O 	0.06857	0.68473	0.94233	-0.464
Mof_H 	H 	0.14067	0.71763	0.74173	0.068
Mof_C 	C 	0.97333	0.09067	0.75667	0.089
Mof_H 	H 	0.00963	0.09737	0.74887	-0.017
Mof_C 	C 	0.95733	0.10567	0.90667	-0.139
Mof_H 	H 	0.98013	0.12077	0.99917	0.12
Mof_C 	C 	0.88533	0.05767	0.63967	0.055
Mof_H 	H 	0.86053	0.04127	0.54967	0.002
Mof_C 	C 	0.86633	0.07567	0.78167	-0.129
Mof_H 	H 	0.83013	0.06857	0.78917	0.077
Mof_C 	C 	0.83533	0.08127	0.13067	0.058
Mof_C 	C 	0.82033	0.09677	0.27567	-0.161
Mof_C 	C 	0.76663	0.06067	0.35067	0.428
Mof_O 	O 	0.75663	0.07587	0.48467	-0.508
Mof_O 	O 	0.73523	0.01807	0.27567	-0.543
Mof_H 	H 	0.80733	0.05097	0.07507	0.007
Mof_C 	C 	0.784	0.36	0.09	-0.047
Mof_H 	H 	0.7544	0.3237	0.0822	0.031
Mof_C 	C 	0.815	0.376	0.24	-0.062
Mof_H 	H 	0.8073	0.3532	0.3325	0.041
Mof_C 	C 	0.839	0.448	0.973	0.04
Mof_H 	H 	0.8474	0.4728	0.883	0.021
Mof_C 	C 	0.876	0.467	0.115	-0.114
Mof_H 	H 	0.9051	0.5032	0.1225	0.07
Mof_C 	C 	0.9126	0.498	0.464	0.029
Mof_C 	C 	0.9431	0.513	0.609	-0.131
Mof_C 	C 	0.9607	0.5667	0.684	0.417
Mof_O 	O 	0.9859	0.5767	0.818	-0.475
Mof_O 	O 	0.9495	0.5981	0.609	-0.51
Mof_H 	H 	0.9103	0.526	0.4084	0.038
Mof_C 	C 	0.45067	0.69333	0.42333	-0.025
Mof_H 	H 	0.42107	0.65703	0.41553	0.031
Mof_C 	C 	0.48167	0.70933	0.57333	-0.052
Mof_H 	H 	0.47397	0.68653	0.66583	0.038
Mof_C 	C 	0.50567	0.78133	0.30633	-0.012
Mof_H 	H 	0.51407	0.80613	0.21633	0.025
Mof_C 	C 	0.54267	0.80033	0.44833	-0.061
Mof_H 	H 	0.57177	0.83653	0.45583	0.052
Mof_C 	C 	0.57927	0.83133	0.79733	-0.069
Mof_C 	C 	0.60977	0.84633	0.94233	0.019
Mof_C 	C 	0.62737	0.90003	0.01733	0.297
Mof_O 	O 	0.65257	0.91003	0.15133	-0.473
Mof_O 	O 	0.61617	0.93143	0.94233	-0.45
Mof_H 	H 	0.57697	0.85933	0.74173	0.068
Mof_C 	C 	0.11733	0.02667	0.75667	-0.077
Mof_H 	H 	0.08773	0.99037	0.74887	0.073
Mof_C 	C 	0.14833	0.04267	0.90667	-0.054
Mof_H 	H 	0.14063	0.01987	0.99917	0.044
Mof_C 	C 	0.17233	0.11467	0.63967	-0.005
Mof_H 	H 	0.18073	0.13947	0.54967	0.029
Mof_C 	C 	0.20933	0.13367	0.78167	-0.083
Mof_H 	H 	0.23843	0.16987	0.78917	0.068
Mof_C 	C 	0.24593	0.16467	0.13067	0.056
Mof_C 	C 	0.27643	0.17967	0.27567	-0.158
Mof_C 	C 	0.29403	0.23337	0.35067	0.426
Mof_O 	O 	0.31923	0.24337	0.48467	-0.502
Mof_O 	O 	0.28283	0.26477	0.27567	-0.526
Mof_H 	H 	0.24363	0.19267	0.07507	0.013
Mof_C 	C 	0.784	0.424	0.09	-0.047
Mof_H 	H 	0.7544	0.4307	0.0822	0.031
Mof_C 	C 	0.815	0.439	0.24	-0.062
Mof_H 	H 	0.8073	0.4541	0.3325	0.041
Mof_C 	C 	0.839	0.391	0.973	0.04
Mof_H 	H 	0.8474	0.3746	0.883	0.021
Mof_C 	C 	0.876	0.409	0.115	-0.114
Mof_H 	H 	0.9051	0.4019	0.1225	0.07
Mof_C 	C 	0.9126	0.4146	0.464	0.029
Mof_C 	C 	0.9431	0.4301	0.609	-0.131
Mof_C 	C 	0.9607	0.394	0.684	0.417
Mof_O 	O 	0.9859	0.4092	0.818	-0.475
Mof_O 	O 	0.9495	0.3514	0.609	-0.51
Mof_H 	H 	0.9103	0.3843	0.4084	0.038
Mof_C 	C 	0.45067	0.75733	0.42333	-0.025
Mof_H 	H 	0.42107	0.76403	0.41553	0.031
Mof_C 	C 	0.48167	0.77233	0.57333	-0.052
Mof_H 	H 	0.47397	0.78743	0.66583	0.038
Mof_C 	C 	0.50567	0.72433	0.30633	-0.012
Mof_H 	H 	0.51407	0.70793	0.21633	0.026
Mof_C 	C 	0.54267	0.74233	0.44833	-0.061
Mof_H 	H 	0.57177	0.73523	0.45583	0.052
Mof_C 	C 	0.57927	0.74793	0.79733	-0.068
Mof_C 	C 	0.60977	0.76343	0.94233	0.017
Mof_C 	C 	0.62737	0.72733	0.01733	0.3
Mof_O 	O 	0.65257	0.74253	0.15133	-0.478
Mof_O 	O 	0.61617	0.68473	0.94233	-0.461
Mof_H 	H 	0.57697	0.71763	0.74173	0.067
Mof_C 	C 	0.11733	0.09067	0.75667	0.012
Mof_H 	H 	0.08773	0.09737	0.74887	0.023
Mof_C 	C 	0.14833	0.10567	0.90667	-0.101
Mof_H 	H 	0.14063	0.12077	0.99917	0.085
Mof_C 	C 	0.17233	0.05767	0.63967	0.028
Mof_H 	H 	0.18073	0.04127	0.54967	0.01
Mof_C 	C 	0.20933	0.07567	0.78167	-0.11
Mof_H 	H 	0.23843	0.06857	0.78917	0.072
Mof_C 	C 	0.24593	0.08127	0.13067	0.057
Mof_C 	C 	0.27643	0.09677	0.27567	-0.161
Mof_C 	C 	0.29403	0.06067	0.35067	0.428
Mof_O 	O 	0.31923	0.07587	0.48467	-0.508
Mof_O 	O 	0.28283	0.01807	0.27567	-0.543
Mof_H 	H 	0.24363	0.05097	0.07507	0.007
Mof_C 	C 	0.576	0.36	0.09	-0.048
Mof_H 	H 	0.5693	0.3237	0.0822	0.032
Mof_C 	C 	0.561	0.376	0.24	-0.062
Mof_H 	H 	0.5459	0.3532	0.3325	0.041
Mof_C 	C 	0.609	0.448	0.973	0.041
Mof_H 	H 	0.6254	0.4728	0.883	0.021
Mof_C 	C 	0.591	0.467	0.115	-0.116
Mof_H 	H 	0.5981	0.5032	0.1225	0.066
Mof_C 	C 	0.5854	0.498	0.464	0.03
Mof_C 	C 	0.5699	0.513	0.609	-0.138
Mof_C 	C 	0.606	0.5667	0.684	0.419
Mof_O 	O 	0.5908	0.5767	0.818	-0.49
Mof_O 	O 	0.6486	0.5981	0.609	-0.518
Mof_H 	H 	0.6157	0.526	0.4084	0.035
Mof_C 	C 	0.24267	0.69333	0.42333	-0.026
Mof_H 	H 	0.23597	0.65703	0.41553	0.031
Mof_C 	C 	0.22767	0.70933	0.57333	-0.052
Mof_H 	H 	0.21257	0.68653	0.66583	0.038
Mof_C 	C 	0.27567	0.78133	0.30633	-0.012
Mof_H 	H 	0.29207	0.80613	0.21633	0.026
Mof_C 	C 	0.25767	0.80033	0.44833	-0.06
Mof_H 	H 	0.26477	0.83653	0.45583	0.051
Mof_C 	C 	0.25207	0.83133	0.79733	-0.072
Mof_C 	C 	0.23657	0.84633	0.94233	0.024
Mof_C 	C 	0.27267	0.90003	0.01733	0.293
Mof_O 	O 	0.25747	0.91003	0.15133	-0.472
Mof_O 	O 	0.31527	0.93143	0.94233	-0.448
Mof_H 	H 	0.28237	0.85933	0.74173	0.07
Mof_C 	C 	0.90933	0.02667	0.75667	-0.076
Mof_H 	H 	0.90263	0.99037	0.74887	0.075
Mof_C 	C 	0.89433	0.04267	0.90667	-0.051
Mof_H 	H 	0.87923	0.01987	0.99917	0.041
Mof_C 	C 	0.94233	0.11467	0.63967	-0.006
Mof_H 	H 	0.95873	0.13947	0.54967	0.038
Mof_C 	C 	0.92433	0.13367	0.78167	-0.08
Mof_H 	H 	0.93143	0.16987	0.78917	0.07
Mof_C 	C 	0.91873	0.16467	0.13067	0.057
Mof_C 	C 	0.90323	0.17967	0.27567	-0.155
Mof_C 	C 	0.93933	0.23337	0.35067	0.425
Mof_O 	O 	0.92413	0.24337	0.48467	-0.497
Mof_O 	O 	0.98193	0.26477	0.27567	-0.509
Mof_H 	H 	0.94903	0.19267	0.07507	0.02
Mof_C 	C 	0.64	0.216	0.09	-0.047
Mof_H 	H 	0.6763	0.2456	0.0822	0.032
Mof_C 	C 	0.624	0.185	0.24	-0.062
Mof_H 	H 	0.6468	0.1927	0.3325	0.041
Mof_C 	C 	0.552	0.161	0.973	0.041
Mof_H 	H 	0.5272	0.1526	0.883	0.021
Mof_C 	C 	0.533	0.124	0.115	-0.115
Mof_H 	H 	0.4968	0.0949	0.1225	0.062
Mof_C 	C 	0.502	0.0874	0.464	0.031
Mof_C 	C 	0.487	0.0569	0.609	-0.146
Mof_C 	C 	0.4333	0.0393	0.684	0.419
Mof_O 	O 	0.4233	0.0141	0.818	-0.503
Mof_O 	O 	0.4019	0.0505	0.609	-0.525
Mof_H 	H 	0.474	0.0897	0.4084	0.031
Mof_C 	C 	0.30667	0.54933	0.42333	-0.026
Mof_H 	H 	0.34297	0.57893	0.41553	0.031
Mof_C 	C 	0.29067	0.51833	0.57333	-0.052
Mof_H 	H 	0.31347	0.52603	0.66583	0.038
Mof_C 	C 	0.21867	0.49433	0.30633	-0.012
Mof_H 	H 	0.19387	0.48593	0.21633	0.026
Mof_C 	C 	0.19967	0.45733	0.44833	-0.06
Mof_H 	H 	0.16347	0.42823	0.45583	0.051
Mof_C 	C 	0.16867	0.42073	0.79733	-0.07
Mof_C 	C 	0.15367	0.39023	0.94233	0.021
Mof_C 	C 	0.09997	0.37263	0.01733	0.297
Mof_O 	O 	0.08997	0.34743	0.15133	-0.481
Mof_O 	O 	0.06857	0.38383	0.94233	-0.464
Mof_H 	H 	0.14067	0.42303	0.74173	0.067
Mof_C 	C 	0.97333	0.88267	0.75667	0.092
Mof_H 	H 	0.00963	0.91227	0.74887	-0.015
Mof_C 	C 	0.95733	0.85167	0.90667	-0.139
Mof_H 	H 	0.98013	0.85937	0.99917	0.12
Mof_C 	C 	0.88533	0.82767	0.63967	0.057
Mof_H 	H 	0.86053	0.81927	0.54967	0.01
Mof_C 	C 	0.86633	0.79067	0.78167	-0.129
Mof_H 	H 	0.83013	0.76157	0.78917	0.082
Mof_C 	C 	0.83533	0.75407	0.13067	0.063
Mof_C 	C 	0.82033	0.72357	0.27567	-0.16
Mof_C 	C 	0.76663	0.70597	0.35067	0.427
Mof_O 	O 	0.75663	0.68077	0.48467	-0.503
Mof_O 	O 	0.73523	0.71717	0.27567	-0.526
Mof_H 	H 	0.80733	0.75637	0.07507	0.011
Mof_C 	C 	0.424	0.784	0.91	0.035
Mof_H 	H 	0.4307	0.7544	0.9178	0.023
Mof_C 	C 	0.439	0.815	0.76	-0.078
Mof_H 	H 	0.4541	0.8073	0.6675	0.049
Mof_C 	C 	0.391	0.839	0.027	-0.041
Mof_H 	H 	0.3746	0.8474	0.117	0.034
Mof_C 	C 	0.409	0.876	0.885	-0.034
Mof_H 	H 	0.4019	0.9051	0.8775	0.056
Mof_C 	C 	0.4146	0.9126	0.536	0.021
Mof_C 	C 	0.4301	0.9431	0.391	-0.131
Mof_C 	C 	0.394	0.9607	0.316	0.419
Mof_O 	O 	0.4092	0.9859	0.182	-0.492
Mof_O 	O 	0.3514	0.9495	0.391	-0.513
Mof_H 	H 	0.3843	0.9103	0.5916	0.04
Mof_C 	C 	0.09067	0.11733	0.24333	-0.044
Mof_H 	H 	0.09737	0.08773	0.25113	0.03
Mof_C 	C 	0.10567	0.14833	0.09333	-0.035
Mof_H 	H 	0.12077	0.14063	0.00083	0.002
Mof_C 	C 	0.05767	0.17233	0.36033	-0.026
Mof_H 	H 	0.04127	0.18073	0.45033	0.028
Mof_C 	C 	0.07567	0.20933	0.21833	-0.047
Mof_H 	H 	0.06857	0.23843	0.21083	0.037
Mof_C 	C 	0.08127	0.24593	0.86933	-0.012
Mof_C 	C 	0.09677	0.27643	0.72433	-0.119
Mof_C 	C 	0.06067	0.29403	0.64933	0.413
Mof_O 	O 	0.07587	0.31923	0.51533	-0.506
Mof_O 	O 	0.01807	0.28283	0.72433	-0.528
Mof_H 	H 	0.05097	0.24363	0.92493	0.056
Mof_C 	C 	0.75733	0.45067	0.57667	-0.002
Mof_H 	H 	0.76403	0.42107	0.58447	0.026
Mof_C 	C 	0.77233	0.48167	0.42667	-0.081
Mof_H 	H 	0.78743	0.47397	0.33417	0.049
Mof_C 	C 	0.72433	0.50567	0.69367	0.015
Mof_H 	H 	0.70793	0.51407	0.78367	0.028
Mof_C 	C 	0.74233	0.54267	0.55167	-0.093
Mof_H 	H 	0.73523	0.57177	0.54417	0.065
Mof_C 	C 	0.74793	0.57927	0.20267	0.107
Mof_C 	C 	0.76343	0.60977	0.05767	-0.272
Mof_C 	C 	0.72733	0.62737	0.98267	0.524
Mof_O 	O 	0.74253	0.65257	0.84867	-0.522
Mof_O 	O 	0.68473	0.61617	0.05767	-0.568
Mof_H 	H 	0.71763	0.57697	0.25827	0.008
Mof_C 	C 	0.36	0.576	0.91	0.035
Mof_H 	H 	0.3237	0.5693	0.9178	0.023
Mof_C 	C 	0.376	0.561	0.76	-0.078
Mof_H 	H 	0.3532	0.5459	0.6675	0.049
Mof_C 	C 	0.448	0.609	0.027	-0.041
Mof_H 	H 	0.4728	0.6254	0.117	0.034
Mof_C 	C 	0.467	0.591	0.885	-0.034
Mof_H 	H 	0.5032	0.5981	0.8775	0.052
Mof_C 	C 	0.498	0.5854	0.536	0.022
Mof_C 	C 	0.513	0.5699	0.391	-0.14
Mof_C 	C 	0.5667	0.606	0.316	0.42
Mof_O 	O 	0.5767	0.5908	0.182	-0.51
Mof_O 	O 	0.5981	0.6486	0.391	-0.521
Mof_H 	H 	0.526	0.6157	0.5916	0.036
Mof_C 	C 	0.02667	0.90933	0.24333	-0.121
Mof_H 	H 	0.99037	0.90263	0.25113	0.078
Mof_C 	C 	0.04267	0.89433	0.09333	0.008
Mof_H 	H 	0.01987	0.87923	0.00083	-0.035
Mof_C 	C 	0.11467	0.94233	0.36033	-0.054
Mof_H 	H 	0.13947	0.95873	0.45033	0.054
Mof_C 	C 	0.13367	0.92433	0.21833	-0.022
Mof_H 	H 	0.16987	0.93143	0.21083	0.038
Mof_C 	C 	0.16467	0.91873	0.86933	-0.009
Mof_C 	C 	0.17967	0.90323	0.72433	-0.114
Mof_C 	C 	0.23337	0.93933	0.64933	0.411
Mof_O 	O 	0.24337	0.92413	0.51533	-0.496
Mof_O 	O 	0.26477	0.98193	0.72433	-0.495
Mof_H 	H 	0.19267	0.94903	0.92493	0.067
Mof_C 	C 	0.69333	0.24267	0.57667	-0.002
Mof_H 	H 	0.65703	0.23597	0.58447	0.026
Mof_C 	C 	0.70933	0.22767	0.42667	-0.081
Mof_H 	H 	0.68653	0.21257	0.33417	0.049
Mof_C 	C 	0.78133	0.27567	0.69367	0.015
Mof_H 	H 	0.80613	0.29207	0.78367	0.028
Mof_C 	C 	0.80033	0.25767	0.55167	-0.093
Mof_H 	H 	0.83653	0.26477	0.54417	0.065
Mof_C 	C 	0.83133	0.25207	0.20267	0.105
Mof_C 	C 	0.84633	0.23657	0.05767	-0.268
Mof_C 	C 	0.90003	0.27267	0.98267	0.518
Mof_O 	O 	0.91003	0.25747	0.84867	-0.516
Mof_O 	O 	0.93143	0.31527	0.05767	-0.556
Mof_H 	H 	0.85933	0.28237	0.25827	0.01
Mof_C 	C 	0.216	0.64	0.91	0.035
Mof_H 	H 	0.2456	0.6763	0.9178	0.023
Mof_C 	C 	0.185	0.624	0.76	-0.078
Mof_H 	H 	0.1927	0.6468	0.6675	0.049
Mof_C 	C 	0.161	0.552	0.027	-0.043
Mof_H 	H 	0.1526	0.5272	0.117	0.034
Mof_C 	C 	0.124	0.533	0.885	-0.033
Mof_H 	H 	0.0949	0.4968	0.8775	0.048
Mof_C 	C 	0.0874	0.502	0.536	0.023
Mof_C 	C 	0.0569	0.487	0.391	-0.147
Mof_C 	C 	0.0393	0.4333	0.316	0.42
Mof_O 	O 	0.0141	0.4233	0.182	-0.522
Mof_O 	O 	0.0505	0.4019	0.391	-0.528
Mof_H 	H 	0.0897	0.474	0.5916	0.033
Mof_C 	C 	0.88267	0.97333	0.24333	0.051
Mof_H 	H 	0.91227	0.00963	0.25113	-0.015
Mof_C 	C 	0.85167	0.95733	0.09333	-0.083
Mof_H 	H 	0.85937	0.98013	0.00083	0.046
Mof_C 	C 	0.82767	0.88533	0.36033	0.011
Mof_H 	H 	0.81927	0.86053	0.45033	0.025
Mof_C 	C 	0.79067	0.86633	0.21833	-0.073
Mof_H 	H 	0.76157	0.83013	0.21083	0.05
Mof_C 	C 	0.75407	0.83533	0.86933	-0.002
Mof_C 	C 	0.72357	0.82033	0.72433	-0.121
Mof_C 	C 	0.70597	0.76663	0.64933	0.414
Mof_O 	O 	0.68077	0.75663	0.51533	-0.502
Mof_O 	O 	0.71717	0.73523	0.72433	-0.514
Mof_H 	H 	0.75637	0.80733	0.92493	0.057
Mof_C 	C 	0.54933	0.30667	0.57667	-0.002
Mof_H 	H 	0.57893	0.34297	0.58447	0.026
Mof_C 	C 	0.51833	0.29067	0.42667	-0.082
Mof_H 	H 	0.52603	0.31347	0.33417	0.049
Mof_C 	C 	0.49433	0.21867	0.69367	0.015
Mof_H 	H 	0.48593	0.19387	0.78367	0.028
Mof_C 	C 	0.45733	0.19967	0.55167	-0.093
Mof_H 	H 	0.42823	0.16347	0.54417	0.066
Mof_C 	C 	0.42073	0.16867	0.20267	0.111
Mof_C 	C 	0.39023	0.15367	0.05767	-0.279
Mof_C 	C 	0.37263	0.09997	0.98267	0.529
Mof_O 	O 	0.34743	0.08997	0.84867	-0.527
Mof_O 	O 	0.38383	0.06857	0.05767	-0.576
Mof_H 	H 	0.42303	0.14067	0.25827	0.006
Mof_Zn	Zn	0.042	0.70867	0.33333	1.22
Mof_Zn	Zn	0.29133	0.33333	0.33333	1.225
Mof_Zn	Zn	0.66667	0.958	0.33333	1.231
Mof_Zn	Zn	0.70867	0.042	0.66667	1.222
Mof_Zn	Zn	0.37533	0.37533	-0	1.215
Mof_Zn	Zn	0.33333	0.29133	0.66667	1.228
Mof_Zn	Zn	-0	0.62467	-0	1.206
Mof_Zn	Zn	0.958	0.66667	0.66667	1.234
Mof_Zn	Zn	0.62467	0	-0	1.206
Mof_Zn	Zn	0.958	0.29133	0.66667	1.234
Mof_Zn	Zn	0.62467	0.62467	-0	1.216
Mof_Zn	Zn	0.70867	0.66667	0.66667	1.228
Mof_Zn	Zn	0.37533	0	-0	1.205
Mof_Zn	Zn	0.33333	0.042	0.66667	1.222
Mof_Zn	Zn	-0	0.37533	-0	1.206
Mof_Zn	Zn	0.29133	0.958	0.33333	1.231
Mof_Zn	Zn	0.66667	0.70867	0.33333	1.225
Mof_Zn	Zn	0.042	0.33333	0.33333	1.22
Mof_C 	C 	0.202	0.601	0.042	-0.102
Mof_H 	H 	0.2237	0.61185	0.1399	0.047
Mof_C 	C 	0.1369	0.56845	0.757	0.065
Mof_C 	C 	0.1037	0.55185	0.606	-0.051
Mof_C 	C 	0.0421	0.52105	0.319	0.078
Mof_H 	H 	0.0127	0.50635	0.211	0.023
Mof_C 	C 	0.86867	0.93433	0.37533	-0.072
Mof_H 	H 	0.89037	0.94518	0.47323	0.052
Mof_C 	C 	0.80357	0.90178	0.09033	0.033
Mof_C 	C 	0.77037	0.88518	0.93933	0.009
Mof_C 	C 	0.70877	0.85438	0.65233	0.067
Mof_H 	H 	0.67937	0.83968	0.54433	0.039
Mof_C 	C 	0.53533	0.26767	0.70867	-0.089
Mof_H 	H 	0.55703	0.27852	0.80657	0.057
Mof_C 	C 	0.47023	0.23512	0.42367	0.126
Mof_C 	C 	0.43703	0.21852	0.27267	-0.125
Mof_C 	C 	0.37543	0.18772	0.98567	0.228
Mof_H 	H 	0.34603	0.17302	0.87767	0.01
Mof_C 	C 	0.399	0.601	0.042	-0.103
Mof_H 	H 	0.38815	0.61185	0.1399	0.047
Mof_C 	C 	0.43155	0.56845	0.757	0.066
Mof_C 	C 	0.44815	0.55185	0.606	-0.047
Mof_C 	C 	0.47895	0.52105	0.319	0.078
Mof_H 	H 	0.49365	0.50635	0.211	0.032
Mof_C 	C 	0.06567	0.93433	0.37533	-0.021
Mof_H 	H 	0.05482	0.94518	0.47323	0.029
Mof_C 	C 	0.09822	0.90178	0.09033	0.006
Mof_C 	C 	0.11482	0.88518	0.93933	0.022
Mof_C 	C 	0.14562	0.85438	0.65233	0.065
Mof_H 	H 	0.16032	0.83968	0.54433	0.039
Mof_C 	C 	0.73233	0.26767	0.70867	-0.088
Mof_H 	H 	0.72148	0.27852	0.80657	0.056
Mof_C 	C 	0.76488	0.23512	0.42367	0.124
Mof_C 	C 	0.78148	0.21852	0.27267	-0.12
Mof_C 	C 	0.81228	0.18772	0.98567	0.219
Mof_H 	H 	0.82698	0.17302	0.87767	0.012
Mof_C 	C 	0.399	0.798	0.042	-0.104
Mof_H 	H 	0.38815	0.7763	0.1399	0.047
Mof_C 	C 	0.43155	0.8631	0.757	0.066
Mof_C 	C 	0.44815	0.8963	0.606	-0.041
Mof_C 	C 	0.47895	0.9579	0.319	0.077
Mof_H 	H 	0.49365	0.9873	0.211	0.042
Mof_C 	C 	0.06567	0.13133	0.37533	0.031
Mof_H 	H 	0.05482	0.10963	0.47323	0.005
Mof_C 	C 	0.09822	0.19643	0.09033	-0.015
Mof_C 	C 	0.11482	0.22963	0.93933	0.029
Mof_C 	C 	0.14562	0.29123	0.65233	0.065
Mof_H 	H 	0.16032	0.32063	0.54433	0.039
Mof_C 	C 	0.73233	0.46467	0.70867	-0.088
Mof_H 	H 	0.72148	0.44297	0.80657	0.056
Mof_C 	C 	0.76488	0.52977	0.42367	0.124
Mof_C 	C 	0.78148	0.56297	0.27267	-0.121
Mof_C 	C 	0.81228	0.62457	0.98567	0.22
Mof_H 	H 	0.82698	0.65397	0.87767	0.011
Mof_C 	C 	0.601	0.202	0.958	-0.045
Mof_H 	H 	0.61185	0.2237	0.8601	0.041
Mof_C 	C 	0.56845	0.1369	0.243	0.109
Mof_C 	C 	0.55185	0.1037	0.394	-0.069
Mof_C 	C 	0.52105	0.0421	0.681	0.082
Mof_H 	H 	0.50635	0.0127	0.789	0.032
Mof_C 	C 	0.26767	0.53533	0.29133	-0.041
Mof_H 	H 	0.27852	0.55703	0.19343	0.026
Mof_C 	C 	0.23512	0.47023	0.57633	0.046
Mof_C 	C 	0.21852	0.43703	0.72733	0.024
Mof_C 	C 	0.18772	0.37543	0.01433	-0.091
Mof_H 	H 	0.17302	0.34603	0.12233	0.068
Mof_C 	C 	0.93433	0.86867	0.62467	-0.157
Mof_H 	H 	0.94518	0.89037	0.52677	0.079
Mof_C 	C 	0.90178	0.80357	0.90967	0.184
Mof_C 	C 	0.88518	0.77037	0.06067	-0.132
Mof_C 	C 	0.85438	0.70877	0.34767	0.094
Mof_H 	H 	0.83968	0.67937	0.45567	0.035
Mof_C 	C 	0.601	0.399	0.958	-0.047
Mof_H 	H 	0.61185	0.38815	0.8601	0.042
Mof_C 	C 	0.56845	0.43155	0.243	0.11
Mof_C 	C 	0.55185	0.44815	0.394	-0.064
Mof_C 	C 	0.52105	0.47895	0.681	0.081
Mof_H 	H 	0.50635	0.49365	0.789	0.042
Mof_C 	C 	0.26767	0.73233	0.29133	-0.041
Mof_H 	H 	0.27852	0.72148	0.19343	0.026
Mof_C 	C 	0.23512	0.76488	0.57633	0.046
Mof_C 	C 	0.21852	0.78148	0.72733	0.025
Mof_C 	C 	0.18772	0.81228	0.01433	-0.093
Mof_H 	H 	0.17302	0.82698	0.12233	0.069
Mof_C 	C 	0.93433	0.06567	0.62467	-0.105
Mof_H 	H 	0.94518	0.05482	0.52677	0.054
Mof_C 	C 	0.90178	0.09822	0.90967	0.16
Mof_C 	C 	0.88518	0.11482	0.06067	-0.122
Mof_C 	C 	0.85438	0.14562	0.34767	0.093
Mof_H 	H 	0.83968	0.16032	0.45567	0.035
Mof_C 	C 	0.798	0.399	0.958	-0.047
Mof_H 	H 	0.7763	0.38815	0.8601	0.042
Mof_C 	C 	0.8631	0.43155	0.243	0.109
Mof_C 	C 	0.8963	0.44815	0.394	-0.058
Mof_C 	C 	0.9579	0.47895	0.681	0.08
Mof_H 	H 	0.9873	0.49365	0.789	0.05
Mof_C 	C 	0.46467	0.73233	0.29133	-0.042
Mof_H 	H 	0.44297	0.72148	0.19343	0.026
Mof_C 	C 	0.52977	0.76488	0.57633	0.047
Mof_C 	C 	0.56297	0.78148	0.72733	0.022
Mof_C 	C 	0.62457	0.81228	0.01433	-0.087
Mof_H 	H 	0.65397	0.82698	0.12233	0.068
Mof_C 	C 	0.13133	0.06567	0.62467	-0.063
Mof_H 	H 	0.10963	0.05482	0.52677	0.034
Mof_C 	C 	0.19643	0.09822	0.90967	0.146
Mof_C 	C 	0.22963	0.11482	0.06067	-0.121
Mof_C 	C 	0.29123	0.14562	0.34767	0.094
Mof_H 	H 	0.32063	0.16032	0.45567	0.035
_end
