data_functionalizedCrystal
_audit_creation_method	'EQeq! by Chris Wilmer'
_symmetry_space_group_name_H-M	'P1'
_symmetry_Int_Tables_number	1
_symmetry_cell_setting	triclinic
loop_
_symmetry_equiv_pos_as_xyz
  x,y,z
_cell_length_a	10.922
_cell_length_b	14.981
_cell_length_c	20.4118
_cell_angle_alpha	111.529
_cell_angle_beta	105.518
_cell_angle_gamma	90
loop_
_atom_site_label
_atom_site_type_symbol
_atom_site_fract_x
_atom_site_fract_y
_atom_site_fract_z
_atom_site_charge
Mof_Cu	Cu	0.55963	0.47373	0.94746	0.907
Mof_Cu	Cu	0.11217	0.02627	0.05254	0.904
Mof_Cu	Cu	0.88783	0.97373	0.94746	0.904
Mof_Cu	Cu	0.44037	0.52627	0.05254	0.907
Mof_H 	H 	0.7377	0.4606	0.2166	0.088
Mof_H 	H 	0.7665	0.312	0.4354	0.06
Mof_H 	H 	0.0211	0.0394	0.7834	0.087
Mof_H 	H 	0.8311	0.188	0.5646	0.061
Mof_H 	H 	0.9789	0.256	0.2166	0.088
Mof_H 	H 	0.1689	0.6234	0.4354	0.06
Mof_H 	H 	0.2623	0.244	0.7834	0.088
Mof_H 	H 	0.2335	0.8766	0.5646	0.061
Mof_H 	H 	0.2623	0.5394	0.7834	0.088
Mof_H 	H 	0.2335	0.688	0.5646	0.06
Mof_H 	H 	0.9789	0.9606	0.2166	0.087
Mof_H 	H 	0.1689	0.812	0.4354	0.061
Mof_H 	H 	0.0211	0.744	0.7834	0.088
Mof_H 	H 	0.8311	0.3766	0.5646	0.06
Mof_H 	H 	0.7377	0.756	0.2166	0.088
Mof_H 	H 	0.7665	0.1234	0.4354	0.061
Mof_H 	H 	0.7617	0.2617	0.0234	0.062
Mof_H 	H 	0.2383	0.2383	0.9766	0.063
Mof_H 	H 	0.2383	0.7383	0.9766	0.062
Mof_H 	H 	0.7617	0.7617	0.0234	0.063
Mof_C 	C 	0.6471	0.41814	0.0726	0.347
Mof_C 	C 	0.73813	0.36951	0.11346	-0.042
Mof_C 	C 	0.77426	0.40644	0.19012	-0.074
Mof_C 	C 	0.84672	0.35882	0.34144	0.223
Mof_C 	C 	0.88754	0.40114	0.42348	-0.054
Mof_C 	C 	0.83216	0.36436	0.46132	-0.022
Mof_C 	C 	0.0745	0.08186	0.9274	0.339
Mof_C 	C 	0.12467	0.13049	0.88654	-0.039
Mof_C 	C 	0.08414	0.09356	0.80988	-0.075
Mof_C 	C 	0.00528	0.14118	0.65856	0.212
Mof_C 	C 	0.96406	0.09886	0.57652	-0.041
Mof_C 	C 	0.87084	0.13564	0.53868	-0.025
Mof_C 	C 	0.9255	0.15446	0.0726	0.352
Mof_C 	C 	0.87533	0.24395	0.11346	-0.043
Mof_C 	C 	0.91586	0.28368	0.19012	-0.073
Mof_C 	C 	0.99472	0.48262	0.34144	0.223
Mof_C 	C 	0.03594	0.52234	0.42348	-0.055
Mof_C 	C 	0.12916	0.59696	0.46132	-0.021
Mof_C 	C 	0.3529	0.34554	0.9274	0.347
Mof_C 	C 	0.26187	0.25605	0.88654	-0.041
Mof_C 	C 	0.22574	0.21632	0.80988	-0.074
Mof_C 	C 	0.15328	0.01738	0.65856	0.214
Mof_C 	C 	0.11246	0.97766	0.57652	-0.042
Mof_C 	C 	0.16784	0.90304	0.53868	-0.024
Mof_C 	C 	0.3529	0.58186	0.9274	0.347
Mof_C 	C 	0.26187	0.63049	0.88654	-0.042
Mof_C 	C 	0.22574	0.59356	0.80988	-0.074
Mof_C 	C 	0.15328	0.64118	0.65856	0.223
Mof_C 	C 	0.11246	0.59886	0.57652	-0.054
Mof_C 	C 	0.16784	0.63564	0.53868	-0.022
Mof_C 	C 	0.9255	0.91814	0.0726	0.339
Mof_C 	C 	0.87533	0.86951	0.11346	-0.039
Mof_C 	C 	0.91586	0.90644	0.19012	-0.075
Mof_C 	C 	0.99472	0.85882	0.34144	0.212
Mof_C 	C 	0.03594	0.90114	0.42348	-0.041
Mof_C 	C 	0.12916	0.86436	0.46132	-0.025
Mof_C 	C 	0.0745	0.84554	0.9274	0.352
Mof_C 	C 	0.12467	0.75605	0.88654	-0.043
Mof_C 	C 	0.08414	0.71632	0.80988	-0.073
Mof_C 	C 	0.00528	0.51738	0.65856	0.223
Mof_C 	C 	0.96406	0.47766	0.57652	-0.055
Mof_C 	C 	0.87084	0.40304	0.53868	-0.021
Mof_C 	C 	0.6471	0.65446	0.0726	0.347
Mof_C 	C 	0.73813	0.74395	0.11346	-0.041
Mof_C 	C 	0.77426	0.78368	0.19012	-0.074
Mof_C 	C 	0.84672	0.98262	0.34144	0.214
Mof_C 	C 	0.88754	0.02234	0.42348	-0.042
Mof_C 	C 	0.83216	0.09696	0.46132	-0.024
Mof_C 	C 	0.86357	0.36357	0.22714	0.134
Mof_C 	C 	0.78786	0.28786	0.07572	0.001
Mof_C 	C 	0.98043	0.48043	0.46086	0.032
Mof_C 	C 	0.13643	0.13643	0.77286	0.134
Mof_C 	C 	0.21214	0.21214	0.92428	-0.001
Mof_C 	C 	0.01957	0.01957	0.53914	0.021
Mof_C 	C 	0.13643	0.63643	0.77286	0.134
Mof_C 	C 	0.21214	0.71214	0.92428	0.001
Mof_C 	C 	0.01957	0.51957	0.53914	0.032
Mof_C 	C 	0.86357	0.86357	0.22714	0.134
Mof_C 	C 	0.78786	0.78786	0.07572	-0.001
Mof_C 	C 	0.98043	0.98043	0.46086	0.021
Mof_N 	N 	0.9035	0.4035	0.307	-0.185
Mof_N 	N 	0.0965	0.0965	0.693	-0.182
Mof_N 	N 	0.0965	0.5965	0.693	-0.185
Mof_N 	N 	0.9035	0.9035	0.307	-0.182
Mof_O 	O 	0.66007	0.41212	0.01196	-0.398
Mof_O 	O 	0.5656	0.46134	0.10226	-0.392
Mof_O 	O 	0.76936	0.28946	0.30652	-0.213
Mof_O 	O 	0.14811	0.08788	0.98804	-0.396
Mof_O 	O 	0.96334	0.03866	0.89774	-0.383
Mof_O 	O 	0.96284	0.21054	0.69348	-0.207
Mof_O 	O 	0.85189	0.09984	0.01196	-0.398
Mof_O 	O 	0.03666	0.14092	0.10226	-0.396
Mof_O 	O 	0.03716	0.51706	0.30652	-0.214
Mof_O 	O 	0.33993	0.40016	0.98804	-0.398
Mof_O 	O 	0.4344	0.35908	0.89774	-0.391
Mof_O 	O 	0.23064	0.98294	0.69348	-0.209
Mof_O 	O 	0.33993	0.58788	0.98804	-0.398
Mof_O 	O 	0.4344	0.53866	0.89774	-0.392
Mof_O 	O 	0.23064	0.71054	0.69348	-0.213
Mof_O 	O 	0.85189	0.91212	0.01196	-0.396
Mof_O 	O 	0.03666	0.96134	0.10226	-0.383
Mof_O 	O 	0.03716	0.78946	0.30652	-0.207
Mof_O 	O 	0.14811	0.90016	0.98804	-0.398
Mof_O 	O 	0.96334	0.85908	0.89774	-0.396
Mof_O 	O 	0.96284	0.48294	0.69348	-0.214
Mof_O 	O 	0.66007	0.59984	0.01196	-0.398
Mof_O 	O 	0.5656	0.64092	0.10226	-0.391
Mof_O 	O 	0.76936	0.01706	0.30652	-0.209
_end
