# CIF file generated by openbabel 3.1.0, see https://openbabel.org
data_I
_chemical_name_common 'VAGTAA_clean'
_cell_length_a 9.5856
_cell_length_b 10.0263
_cell_length_c 10.0263
_cell_angle_alpha 107.144
_cell_angle_beta 109.333
_cell_angle_gamma 70.6671
_space_group_name_H-M_alt 'P 1'
_space_group_name_Hall 'P 1'
loop_
    _symmetry_equiv_pos_as_xyz
    x,y,z
loop_
    _atom_site_label
    _atom_site_type_symbol
    _atom_site_fract_x
    _atom_site_fract_y
    _atom_site_fract_z
    _atom_site_occupancy
    Mg1      Mg       0.50000    0.00000    0.00000    1.000
    Mg2      Mg       0.00000    0.00000    0.00000    1.000
    H1       H        0.63480    0.86660    0.32960    1.000
    H2       H        0.15260    0.10840    0.33880    1.000
    H3       H        0.86520    0.32960    0.86660    1.000
    H4       H        0.34740    0.33880    0.10840    1.000
    H5       H        0.36520    0.13340    0.67040    1.000
    H6       H        0.84740    0.89160    0.66120    1.000
    H7       H        0.13480    0.67040    0.13340    1.000
    H8       H        0.65260    0.66120    0.89160    1.000
    C1       C        0.34280    0.95160    0.19580    1.000
    C2       C        0.42250    0.97770    0.35330    1.000
    C3       C        0.58070    0.91970    0.39830    1.000
    C4       C        0.34280    0.06060    0.45800    1.000
    C5       C        0.15720    0.19580    0.95160    1.000
    C6       C        0.07750    0.35330    0.97770    1.000
    C7       C        0.91930    0.39830    0.91970    1.000
    C8       C        0.15720    0.45800    0.06060    1.000
    C9       C        0.65720    0.04840    0.80420    1.000
    C10      C        0.57750    0.02230    0.64670    1.000
    C11      C        0.41930    0.08030    0.60170    1.000
    C12      C        0.65720    0.93940    0.54200    1.000
    C13      C        0.84280    0.80420    0.04840    1.000
    C14      C        0.92250    0.64670    0.02230    1.000
    C15      C        0.08070    0.60170    0.08030    1.000
    C16      C        0.84280    0.54200    0.93940    1.000
    O1       O        0.41980    0.90260    0.10500    1.000
    O2       O        0.19680    0.98000    0.16420    1.000
    O3       O        0.18900    0.12590    0.42650    1.000
    O4       O        0.08020    0.10500    0.90260    1.000
    O5       O        0.30320    0.16420    0.98000    1.000
    O6       O        0.31100    0.42650    0.12590    1.000
    O7       O        0.58020    0.09740    0.89500    1.000
    O8       O        0.80320    0.02000    0.83580    1.000
    O9       O        0.81100    0.87410    0.57350    1.000
    O10      O        0.91980    0.89500    0.09740    1.000
    O11      O        0.69680    0.83580    0.02000    1.000
    O12      O        0.68900    0.57350    0.87410    1.000
