data_functionalizedCrystal
_audit_creation_method	'EQeq! by Chris Wilmer'
_symmetry_space_group_name_H-M	'P1'
_symmetry_Int_Tables_number	1
_symmetry_cell_setting	triclinic
loop_
_symmetry_equiv_pos_as_xyz
  x,y,z
_cell_length_a	20.6271
_cell_length_b	13.6669
_cell_length_c	20.6839
_cell_angle_alpha	90
_cell_angle_beta	90
_cell_angle_gamma	90
loop_
_atom_site_label
_atom_site_type_symbol
_atom_site_fract_x
_atom_site_fract_y
_atom_site_fract_z
_atom_site_charge
Mof_Cd	Cd	0.67189	0.62744	0.81044	0.368
Mof_O 	O 	0.575	0.6999	0.8313	-0.335
Mof_O 	O 	0.619	0.7932	0.7573	-0.321
Mof_N 	N 	0.6224	0.5258	0.7344	-0.188
Mof_N 	N 	0.7175	0.7323	0.8909	-0.179
Mof_C 	C 	0.5751	0.7771	0.7962	0.458
Mof_C 	C 	0.5704	0.5513	0.7004	0.161
Mof_C 	C 	0.642	0.4332	0.7291	0.148
Mof_C 	C 	0.7802	0.7266	0.9065	0.139
Mof_C 	C 	0.6822	0.798	0.9238	0.129
Mof_C 	C 	0.5206	0.8478	0.8074	-0.594
Mof_H 	H 	0.5563	0.6157	0.7032	-0.015
Mof_C 	C 	0.5367	0.4894	0.6621	-0.279
Mof_C 	C 	0.6112	0.3649	0.6911	-0.27
Mof_H 	H 	0.6784	0.4137	0.7523	-0.023
Mof_H 	H 	0.8056	0.6814	0.8844	-0.027
Mof_C 	C 	0.8092	0.7823	0.9524	-0.255
Mof_C 	C 	0.7085	0.8602	0.9702	-0.253
Mof_H 	H 	0.638	0.8023	0.9151	-0.014
Mof_H 	H 	0.5331	0.8917	0.8421	0.201
Mof_H 	H 	0.4832	0.8111	0.8222	0.221
Mof_H 	H 	0.5002	0.5111	0.64	0.13
Mof_C 	C 	0.5574	0.393	0.656	0.252
Mof_H 	H 	0.6263	0.3009	0.689	0.126
Mof_H 	H 	0.8528	0.7727	0.9622	0.111
Mof_C 	C 	0.7738	0.8542	0.9851	0.231
Mof_H 	H 	0.6822	0.9056	0.9912	0.108
Mof_H 	H 	0.5355	0.9506	0.7378	-0.105
Mof_C 	C 	0.5205	0.3208	0.6148	-0.399
Mof_C 	C 	0.8061	0.9201	0.0332	-0.361
Mof_H 	H 	0.5484	0.266	0.6038	0.138
Mof_H 	H 	0.507	0.352	0.5749	0.139
Mof_C 	C 	0.4615	0.2844	0.6515	0.19
Mof_H 	H 	0.8336	0.8814	0.0613	0.134
Mof_H 	H 	0.7732	0.9511	0.0599	0.139
Mof_H 	H 	0.4337	0.3398	0.661	-0.028
Mof_H 	H 	0.4757	0.257	0.6924	-0.026
Mof_C 	C 	0.4217	0.2072	0.6154	-0.431
Mof_H 	H 	0.8738	0.0359	0.0289	-0.013
Mof_C 	C 	0.362	0.1807	0.6545	0.313
Mof_H 	H 	0.4087	0.2325	0.5736	0.148
Mof_H 	H 	0.4479	0.1492	0.6084	0.144
Mof_C 	C 	0.3083	0.2345	0.6535	-0.34
Mof_C 	C 	0.3622	0.1057	0.6968	-0.338
Mof_C 	C 	0.2583	0.2183	0.6957	0.19
Mof_H 	H 	0.3047	0.2846	0.6234	0.142
Mof_H 	H 	0.3969	0.0623	0.6983	0.144
Mof_C 	C 	0.3106	0.0945	0.7375	0.195
Mof_H 	H 	0.2226	0.2597	0.6944	-0.023
Mof_N 	N 	0.2587	0.1475	0.7373	-0.209
Mof_H 	H 	0.3129	0.0445	0.768	-0.039
Mof_Cd	Cd	0.17189	0.12744	0.81044	0.366
Mof_O 	O 	0.075	0.1999	0.8313	-0.336
Mof_O 	O 	0.119	0.2932	0.7573	-0.318
Mof_N 	N 	0.1224	0.0258	0.7344	-0.187
Mof_N 	N 	0.2175	0.2323	0.8909	-0.179
Mof_C 	C 	0.0751	0.2771	0.7962	0.45
Mof_C 	C 	0.0704	0.0513	0.7004	0.148
Mof_C 	C 	0.142	0.9332	0.7291	0.151
Mof_C 	C 	0.2802	0.2266	0.9065	0.139
Mof_C 	C 	0.1822	0.298	0.9238	0.13
Mof_C 	C 	0.0206	0.3478	0.8074	-0.573
Mof_H 	H 	0.0563	0.1157	0.7032	-0.012
Mof_C 	C 	0.0367	0.9894	0.6621	-0.264
Mof_C 	C 	0.1112	0.8649	0.6911	-0.271
Mof_H 	H 	0.1784	0.9137	0.7523	-0.023
Mof_H 	H 	0.3056	0.1814	0.8844	-0.029
Mof_C 	C 	0.3092	0.2823	0.9524	-0.258
Mof_C 	C 	0.2085	0.3602	0.9702	-0.256
Mof_H 	H 	0.138	0.3023	0.9151	-0.016
Mof_H 	H 	0.0331	0.3917	0.8421	0.191
Mof_H 	H 	0.9832	0.3111	0.8222	0.223
Mof_H 	H 	0.0002	0.0111	0.64	0.118
Mof_C 	C 	0.0574	0.893	0.656	0.25
Mof_H 	H 	0.1263	0.8009	0.689	0.125
Mof_H 	H 	0.3528	0.2727	0.9622	0.11
Mof_C 	C 	0.2738	0.3542	0.9851	0.235
Mof_H 	H 	0.1822	0.4056	0.9912	0.108
Mof_H 	H 	0.0355	0.4506	0.7378	-0.082
Mof_C 	C 	0.0205	0.8208	0.6148	-0.419
Mof_C 	C 	0.3061	0.4201	0.0332	-0.374
Mof_H 	H 	0.0484	0.766	0.6038	0.141
Mof_H 	H 	0.007	0.852	0.5749	0.142
Mof_C 	C 	0.9615	0.7844	0.6515	0.216
Mof_H 	H 	0.3336	0.3814	0.0613	0.137
Mof_H 	H 	0.2732	0.4511	0.0599	0.142
Mof_H 	H 	0.9337	0.8398	0.661	-0.033
Mof_H 	H 	0.9757	0.757	0.6924	-0.03
Mof_C 	C 	0.9217	0.7072	0.6154	-0.448
Mof_H 	H 	0.3738	0.5359	0.0289	-0.02
Mof_C 	C 	0.862	0.6807	0.6545	0.323
Mof_H 	H 	0.9087	0.7325	0.5736	0.155
Mof_H 	H 	0.9479	0.6492	0.6084	0.152
Mof_C 	C 	0.8083	0.7345	0.6535	-0.347
Mof_C 	C 	0.8622	0.6057	0.6968	-0.345
Mof_C 	C 	0.7583	0.7183	0.6957	0.194
Mof_H 	H 	0.8047	0.7846	0.6234	0.145
Mof_H 	H 	0.8969	0.5623	0.6983	0.148
Mof_C 	C 	0.8106	0.5945	0.7375	0.2
Mof_H 	H 	0.7226	0.7597	0.6944	-0.024
Mof_N 	N 	0.7587	0.6475	0.7373	-0.21
Mof_H 	H 	0.8129	0.5445	0.768	-0.039
Mof_Cd	Cd	0.32811	0.37256	0.31044	0.368
Mof_O 	O 	0.425	0.3001	0.3313	-0.334
Mof_O 	O 	0.381	0.2068	0.2573	-0.322
Mof_N 	N 	0.3776	0.4742	0.2344	-0.187
Mof_N 	N 	0.2825	0.2677	0.3909	-0.178
Mof_C 	C 	0.4249	0.2229	0.2962	0.459
Mof_C 	C 	0.4296	0.4487	0.2004	0.161
Mof_C 	C 	0.358	0.5668	0.2291	0.148
Mof_C 	C 	0.2198	0.2734	0.4065	0.137
Mof_C 	C 	0.3178	0.202	0.4238	0.127
Mof_C 	C 	0.4794	0.1522	0.3074	-0.594
Mof_H 	H 	0.4437	0.3843	0.2032	-0.015
Mof_C 	C 	0.4633	0.5106	0.1621	-0.278
Mof_C 	C 	0.3888	0.6351	0.1911	-0.27
Mof_H 	H 	0.3216	0.5863	0.2523	-0.023
Mof_H 	H 	0.1944	0.3186	0.3844	-0.029
Mof_C 	C 	0.1908	0.2177	0.4524	-0.255
Mof_C 	C 	0.2915	0.1398	0.4702	-0.253
Mof_H 	H 	0.362	0.1977	0.4151	-0.015
Mof_H 	H 	0.4669	0.1083	0.3421	0.199
Mof_H 	H 	0.5168	0.1889	0.3222	0.221
Mof_H 	H 	0.4998	0.4889	0.14	0.129
Mof_C 	C 	0.4426	0.607	0.156	0.251
Mof_H 	H 	0.3737	0.6991	0.189	0.126
Mof_H 	H 	0.1472	0.2273	0.4622	0.107
Mof_C 	C 	0.2262	0.1458	0.4851	0.227
Mof_H 	H 	0.3178	0.0944	0.4912	0.104
Mof_H 	H 	0.4645	0.0494	0.2378	-0.108
Mof_C 	C 	0.4795	0.6792	0.1148	-0.398
Mof_C 	C 	0.1939	0.0799	0.5332	-0.372
Mof_H 	H 	0.4516	0.734	0.1038	0.137
Mof_H 	H 	0.493	0.648	0.0749	0.138
Mof_C 	C 	0.5385	0.7156	0.1515	0.189
Mof_H 	H 	0.1664	0.1186	0.5613	0.137
Mof_H 	H 	0.2268	0.0489	0.5599	0.142
Mof_H 	H 	0.5663	0.6602	0.161	-0.028
Mof_H 	H 	0.5243	0.743	0.1924	-0.025
Mof_C 	C 	0.5783	0.7928	0.1154	-0.43
Mof_H 	H 	0.1262	0.9641	0.5289	-0.022
Mof_C 	C 	0.638	0.8193	0.1545	0.312
Mof_H 	H 	0.5913	0.7675	0.0736	0.146
Mof_H 	H 	0.5521	0.8508	0.1084	0.144
Mof_C 	C 	0.6917	0.7655	0.1535	-0.34
Mof_C 	C 	0.6378	0.8943	0.1968	-0.338
Mof_C 	C 	0.7417	0.7817	0.1957	0.19
Mof_H 	H 	0.6953	0.7154	0.1234	0.141
Mof_H 	H 	0.6031	0.9377	0.1983	0.146
Mof_C 	C 	0.6894	0.9055	0.2375	0.196
Mof_H 	H 	0.7774	0.7403	0.1944	-0.023
Mof_N 	N 	0.7413	0.8525	0.2373	-0.209
Mof_H 	H 	0.6871	0.9555	0.268	-0.037
Mof_Cd	Cd	0.82811	0.87256	0.31044	0.37
Mof_O 	O 	0.925	0.8001	0.3313	-0.323
Mof_O 	O 	0.881	0.7068	0.2573	-0.313
Mof_N 	N 	0.8776	0.9742	0.2344	-0.186
Mof_N 	N 	0.7825	0.7677	0.3909	-0.179
Mof_C 	C 	0.9249	0.7229	0.2962	0.434
Mof_C 	C 	0.9296	0.9487	0.2004	0.172
Mof_C 	C 	0.858	0.0668	0.2291	0.145
Mof_C 	C 	0.7198	0.7734	0.4065	0.14
Mof_C 	C 	0.8178	0.702	0.4238	0.13
Mof_C 	C 	0.9794	0.6522	0.3074	-0.51
Mof_H 	H 	0.9437	0.8843	0.2032	-0.016
Mof_C 	C 	0.9633	0.0106	0.1621	-0.289
Mof_C 	C 	0.8888	0.1351	0.1911	-0.267
Mof_H 	H 	0.8216	0.0863	0.2523	-0.022
Mof_H 	H 	0.6944	0.8186	0.3844	-0.029
Mof_C 	C 	0.6908	0.7177	0.4524	-0.259
Mof_C 	C 	0.7915	0.6398	0.4702	-0.257
Mof_H 	H 	0.862	0.6977	0.4151	-0.014
Mof_H 	H 	0.9669	0.6083	0.3421	0.178
Mof_H 	H 	0.0168	0.6889	0.3222	0.189
Mof_H 	H 	0.9998	0.9889	0.14	0.139
Mof_C 	C 	0.9426	0.107	0.156	0.251
Mof_H 	H 	0.8737	0.1991	0.189	0.125
Mof_H 	H 	0.6472	0.7273	0.4622	0.11
Mof_C 	C 	0.7262	0.6458	0.4851	0.235
Mof_H 	H 	0.8178	0.5944	0.4912	0.106
Mof_H 	H 	0.9645	0.5494	0.2378	-0.073
Mof_C 	C 	0.9795	0.1792	0.1148	-0.377
Mof_C 	C 	0.6939	0.5799	0.5332	-0.387
Mof_H 	H 	0.9516	0.234	0.1038	0.134
Mof_H 	H 	0.993	0.148	0.0749	0.135
Mof_C 	C 	0.0385	0.2156	0.1515	0.164
Mof_H 	H 	0.6664	0.6186	0.5613	0.143
Mof_H 	H 	0.7268	0.5489	0.5599	0.147
Mof_H 	H 	0.0663	0.1602	0.161	-0.023
Mof_H 	H 	0.0243	0.243	0.1924	-0.022
Mof_C 	C 	0.0783	0.2928	0.1154	-0.413
Mof_H 	H 	0.6262	0.4641	0.5289	-0.032
Mof_C 	C 	0.138	0.3193	0.1545	0.302
Mof_H 	H 	0.0913	0.2675	0.0736	0.139
Mof_H 	H 	0.0521	0.3508	0.1084	0.136
Mof_C 	C 	0.1917	0.2655	0.1535	-0.333
Mof_C 	C 	0.1378	0.3943	0.1968	-0.331
Mof_C 	C 	0.2417	0.2817	0.1957	0.186
Mof_H 	H 	0.1953	0.2154	0.1234	0.138
Mof_H 	H 	0.1031	0.4377	0.1983	0.141
Mof_C 	C 	0.1894	0.4055	0.2375	0.191
Mof_H 	H 	0.2774	0.2403	0.1944	-0.022
Mof_N 	N 	0.2413	0.3525	0.2373	-0.207
Mof_H 	H 	0.1871	0.4555	0.268	-0.037
Mof_Cd	Cd	0.32811	0.62744	0.68956	0.368
Mof_O 	O 	0.425	0.6999	0.6687	-0.334
Mof_O 	O 	0.381	0.7932	0.7427	-0.32
Mof_N 	N 	0.3776	0.5258	0.7656	-0.187
Mof_N 	N 	0.2825	0.7323	0.6091	-0.178
Mof_C 	C 	0.4249	0.7771	0.7038	0.458
Mof_C 	C 	0.4296	0.5513	0.7996	0.163
Mof_C 	C 	0.358	0.4332	0.7709	0.149
Mof_C 	C 	0.2198	0.7266	0.5935	0.137
Mof_C 	C 	0.3178	0.798	0.5762	0.128
Mof_C 	C 	0.4794	0.8478	0.6926	-0.593
Mof_H 	H 	0.4437	0.6157	0.7968	-0.015
Mof_C 	C 	0.4633	0.4894	0.8379	-0.28
Mof_C 	C 	0.3888	0.3649	0.8089	-0.271
Mof_H 	H 	0.3216	0.4137	0.7477	-0.023
Mof_H 	H 	0.1944	0.6814	0.6156	-0.029
Mof_C 	C 	0.1908	0.7823	0.5476	-0.255
Mof_C 	C 	0.2915	0.8602	0.5298	-0.253
Mof_H 	H 	0.362	0.8023	0.5849	-0.014
Mof_H 	H 	0.4669	0.8917	0.6579	0.2
Mof_H 	H 	0.5168	0.8111	0.6778	0.221
Mof_H 	H 	0.4998	0.5111	0.86	0.131
Mof_C 	C 	0.4426	0.393	0.844	0.254
Mof_H 	H 	0.3737	0.3009	0.811	0.126
Mof_H 	H 	0.1472	0.7727	0.5378	0.107
Mof_C 	C 	0.2262	0.8542	0.5149	0.228
Mof_H 	H 	0.3178	0.9056	0.5088	0.105
Mof_H 	H 	0.4645	0.9506	0.7622	-0.105
Mof_C 	C 	0.4795	0.3208	0.8852	-0.402
Mof_C 	C 	0.1939	0.9201	0.4668	-0.369
Mof_H 	H 	0.4516	0.266	0.8962	0.139
Mof_H 	H 	0.493	0.352	0.9251	0.141
Mof_C 	C 	0.5385	0.2844	0.8485	0.193
Mof_H 	H 	0.1664	0.8814	0.4387	0.137
Mof_H 	H 	0.2268	0.9511	0.4401	0.143
Mof_H 	H 	0.5663	0.3398	0.839	-0.029
Mof_H 	H 	0.5243	0.257	0.8076	-0.027
Mof_C 	C 	0.5783	0.2072	0.8846	-0.434
Mof_H 	H 	0.1262	0.0359	0.4711	-0.025
Mof_C 	C 	0.638	0.1807	0.8455	0.315
Mof_H 	H 	0.5913	0.2325	0.9264	0.15
Mof_H 	H 	0.5521	0.1492	0.8916	0.146
Mof_C 	C 	0.6917	0.2345	0.8465	-0.342
Mof_C 	C 	0.6378	0.1057	0.8032	-0.34
Mof_C 	C 	0.7417	0.2183	0.8043	0.192
Mof_H 	H 	0.6953	0.2846	0.8766	0.143
Mof_H 	H 	0.6031	0.0623	0.8017	0.145
Mof_C 	C 	0.6894	0.0945	0.7625	0.197
Mof_H 	H 	0.7774	0.2597	0.8056	-0.023
Mof_N 	N 	0.7413	0.1475	0.7627	-0.209
Mof_H 	H 	0.6871	0.0445	0.732	-0.039
Mof_Cd	Cd	0.82811	0.12744	0.68956	0.368
Mof_O 	O 	0.925	0.1999	0.6687	-0.323
Mof_O 	O 	0.881	0.2932	0.7427	-0.312
Mof_N 	N 	0.8776	0.0258	0.7656	-0.185
Mof_N 	N 	0.7825	0.2323	0.6091	-0.179
Mof_C 	C 	0.9249	0.2771	0.7038	0.433
Mof_C 	C 	0.9296	0.0513	0.7996	0.146
Mof_C 	C 	0.858	0.9332	0.7709	0.147
Mof_C 	C 	0.7198	0.2266	0.5935	0.139
Mof_C 	C 	0.8178	0.298	0.5762	0.129
Mof_C 	C 	0.9794	0.3478	0.6926	-0.51
Mof_H 	H 	0.9437	0.1157	0.7968	-0.007
Mof_C 	C 	0.9633	0.9894	0.8379	-0.251
Mof_C 	C 	0.8888	0.8649	0.8089	-0.26
Mof_H 	H 	0.8216	0.9137	0.7477	-0.021
Mof_H 	H 	0.6944	0.1814	0.6156	-0.029
Mof_C 	C 	0.6908	0.2823	0.5476	-0.259
Mof_C 	C 	0.7915	0.3602	0.5298	-0.257
Mof_H 	H 	0.862	0.3023	0.5849	-0.014
Mof_H 	H 	0.9669	0.3917	0.6579	0.178
Mof_H 	H 	0.0168	0.3111	0.6778	0.188
Mof_H 	H 	0.9998	0.0111	0.86	0.122
Mof_C 	C 	0.9426	0.893	0.844	0.237
Mof_H 	H 	0.8737	0.8009	0.811	0.123
Mof_H 	H 	0.6472	0.2727	0.5378	0.109
Mof_C 	C 	0.7262	0.3542	0.5149	0.234
Mof_H 	H 	0.8178	0.4056	0.5088	0.106
Mof_H 	H 	0.9645	0.4506	0.7622	-0.073
Mof_C 	C 	0.9795	0.8208	0.8852	-0.369
Mof_C 	C 	0.6939	0.4201	0.4668	-0.387
Mof_H 	H 	0.9516	0.766	0.8962	0.132
Mof_H 	H 	0.993	0.852	0.9251	0.135
Mof_C 	C 	0.0385	0.7844	0.8485	0.161
Mof_H 	H 	0.6664	0.3814	0.4387	0.142
Mof_H 	H 	0.7268	0.4511	0.4401	0.147
Mof_H 	H 	0.0663	0.8398	0.839	-0.021
Mof_H 	H 	0.0243	0.757	0.8076	-0.021
Mof_C 	C 	0.0783	0.7072	0.8846	-0.414
Mof_H 	H 	0.6262	0.5359	0.4711	-0.032
Mof_C 	C 	0.138	0.6807	0.8455	0.305
Mof_H 	H 	0.0913	0.7325	0.9264	0.143
Mof_H 	H 	0.0521	0.6492	0.8916	0.138
Mof_C 	C 	0.1917	0.7345	0.8465	-0.334
Mof_C 	C 	0.1378	0.6057	0.8032	-0.333
Mof_C 	C 	0.2417	0.7183	0.8043	0.187
Mof_H 	H 	0.1953	0.7846	0.8766	0.141
Mof_H 	H 	0.1031	0.5623	0.8017	0.141
Mof_C 	C 	0.1894	0.5945	0.7625	0.193
Mof_H 	H 	0.2774	0.7597	0.8056	-0.021
Mof_N 	N 	0.2413	0.6475	0.7627	-0.207
Mof_H 	H 	0.1871	0.5445	0.732	-0.038
Mof_Cd	Cd	0.67189	0.37256	0.18956	0.368
Mof_O 	O 	0.575	0.3001	0.1687	-0.335
Mof_O 	O 	0.619	0.2068	0.2427	-0.321
Mof_N 	N 	0.6224	0.4742	0.2656	-0.187
Mof_N 	N 	0.7175	0.2677	0.1091	-0.176
Mof_C 	C 	0.5751	0.2229	0.2038	0.458
Mof_C 	C 	0.5704	0.4487	0.2996	0.162
Mof_C 	C 	0.642	0.5668	0.2709	0.148
Mof_C 	C 	0.7802	0.2734	0.0935	0.13
Mof_C 	C 	0.6822	0.202	0.0762	0.121
Mof_C 	C 	0.5206	0.1522	0.1926	-0.594
Mof_H 	H 	0.5563	0.3843	0.2968	-0.015
Mof_C 	C 	0.5367	0.5106	0.3379	-0.279
Mof_C 	C 	0.6112	0.6351	0.3089	-0.271
Mof_H 	H 	0.6784	0.5863	0.2477	-0.023
Mof_H 	H 	0.8056	0.3186	0.1156	-0.026
Mof_C 	C 	0.8092	0.2177	0.0476	-0.244
Mof_C 	C 	0.7085	0.1398	0.0298	-0.242
Mof_H 	H 	0.638	0.1977	0.0849	-0.013
Mof_H 	H 	0.5331	0.1083	0.1579	0.199
Mof_H 	H 	0.4832	0.1889	0.1778	0.22
Mof_H 	H 	0.5002	0.4889	0.36	0.13
Mof_C 	C 	0.5574	0.607	0.344	0.253
Mof_H 	H 	0.6263	0.6991	0.311	0.126
Mof_H 	H 	0.8528	0.2273	0.0378	0.104
Mof_C 	C 	0.7738	0.1458	0.0149	0.209
Mof_H 	H 	0.6822	0.0944	0.0088	0.098
Mof_H 	H 	0.5355	0.0494	0.2622	-0.108
Mof_C 	C 	0.5205	0.6792	0.3852	-0.401
Mof_C 	C 	0.8061	0.0799	0.9668	-0.338
Mof_H 	H 	0.5484	0.734	0.3962	0.138
Mof_H 	H 	0.507	0.648	0.4251	0.14
Mof_C 	C 	0.4615	0.7156	0.3485	0.192
Mof_H 	H 	0.8336	0.1186	0.9387	0.129
Mof_H 	H 	0.7732	0.0489	0.9401	0.133
Mof_H 	H 	0.4337	0.6602	0.339	-0.029
Mof_H 	H 	0.4757	0.743	0.3076	-0.026
Mof_C 	C 	0.4217	0.7928	0.3846	-0.433
Mof_H 	H 	0.8738	0.9641	0.9711	-0.006
Mof_C 	C 	0.362	0.8193	0.3455	0.315
Mof_H 	H 	0.4087	0.7675	0.4264	0.149
Mof_H 	H 	0.4479	0.8508	0.3916	0.146
Mof_C 	C 	0.3083	0.7655	0.3465	-0.341
Mof_C 	C 	0.3622	0.8943	0.3032	-0.34
Mof_C 	C 	0.2583	0.7817	0.3043	0.191
Mof_H 	H 	0.3047	0.7154	0.3766	0.142
Mof_H 	H 	0.3969	0.9377	0.3017	0.146
Mof_C 	C 	0.3106	0.9055	0.2625	0.197
Mof_H 	H 	0.2226	0.7403	0.3056	-0.024
Mof_N 	N 	0.2587	0.8525	0.2627	-0.209
Mof_H 	H 	0.3129	0.9555	0.232	-0.038
Mof_Cd	Cd	0.17189	0.87256	0.18956	0.367
Mof_O 	O 	0.075	0.8001	0.1687	-0.336
Mof_O 	O 	0.119	0.7068	0.2427	-0.318
Mof_N 	N 	0.1224	0.9742	0.2656	-0.189
Mof_N 	N 	0.2175	0.7677	0.1091	-0.177
Mof_C 	C 	0.0751	0.7229	0.2038	0.45
Mof_C 	C 	0.0704	0.9487	0.2996	0.177
Mof_C 	C 	0.142	0.0668	0.2709	0.15
Mof_C 	C 	0.2802	0.7734	0.0935	0.132
Mof_C 	C 	0.1822	0.702	0.0762	0.122
Mof_C 	C 	0.0206	0.6522	0.1926	-0.572
Mof_H 	H 	0.0563	0.8843	0.2968	-0.022
Mof_C 	C 	0.0367	0.0106	0.3379	-0.305
Mof_C 	C 	0.1112	0.1351	0.3089	-0.281
Mof_H 	H 	0.1784	0.0863	0.2477	-0.025
Mof_H 	H 	0.3056	0.8186	0.1156	-0.026
Mof_C 	C 	0.3092	0.7177	0.0476	-0.246
Mof_C 	C 	0.2085	0.6398	0.0298	-0.245
Mof_H 	H 	0.138	0.6977	0.0849	-0.014
Mof_H 	H 	0.0331	0.6083	0.1579	0.19
Mof_H 	H 	0.9832	0.6889	0.1778	0.222
Mof_H 	H 	0.0002	0.9889	0.36	0.138
Mof_C 	C 	0.0574	0.107	0.344	0.268
Mof_H 	H 	0.1263	0.1991	0.311	0.129
Mof_H 	H 	0.3528	0.7273	0.0378	0.104
Mof_C 	C 	0.2738	0.6458	0.0149	0.214
Mof_H 	H 	0.1822	0.5944	0.0088	0.099
Mof_H 	H 	0.0355	0.5494	0.2622	-0.082
Mof_C 	C 	0.0205	0.1792	0.3852	-0.433
Mof_C 	C 	0.3061	0.5799	0.9668	-0.349
Mof_H 	H 	0.0484	0.234	0.3962	0.145
Mof_H 	H 	0.007	0.148	0.4251	0.145
Mof_C 	C 	0.9615	0.2156	0.3485	0.225
Mof_H 	H 	0.3336	0.6186	0.9387	0.133
Mof_H 	H 	0.2732	0.5489	0.9401	0.137
Mof_H 	H 	0.9337	0.1602	0.339	-0.036
Mof_H 	H 	0.9757	0.243	0.3076	-0.032
Mof_C 	C 	0.9217	0.2928	0.3846	-0.454
Mof_H 	H 	0.3738	0.4641	0.9711	-0.015
Mof_C 	C 	0.862	0.3193	0.3455	0.325
Mof_H 	H 	0.9087	0.2675	0.4264	0.156
Mof_H 	H 	0.9479	0.3508	0.3916	0.154
Mof_C 	C 	0.8083	0.2655	0.3465	-0.349
Mof_C 	C 	0.8622	0.3943	0.3032	-0.347
Mof_C 	C 	0.7583	0.2817	0.3043	0.195
Mof_H 	H 	0.8047	0.2154	0.3766	0.145
Mof_H 	H 	0.8969	0.4377	0.3017	0.148
Mof_C 	C 	0.8106	0.4055	0.2625	0.201
Mof_H 	H 	0.7226	0.2403	0.3056	-0.025
Mof_N 	N 	0.7587	0.3525	0.2627	-0.211
Mof_H 	H 	0.8129	0.4555	0.232	-0.04
Mof_C 	C 	0.5	0.9092	0.75	0.422
Mof_C 	C 	-5.83865e-33	0.4092	0.75	0.337
Mof_C 	C 	0.5	0.0908	0.25	0.424
Mof_C 	C 	9.39931e-34	0.5908	0.25	0.337
Mof_C 	C 	0.8473	0	-0	0.117
Mof_C 	C 	0.3473	0.5	-0	0.139
Mof_C 	C 	0.1527	0	0.5	0.153
Mof_C 	C 	0.6527	0.5	0.5	0.179
_end
