data_functionalizedCrystal
_audit_creation_method	'EQeq! by Chris Wilmer'
_symmetry_space_group_name_H-M	'P1'
_symmetry_Int_Tables_number	1
_symmetry_cell_setting	triclinic
loop_
_symmetry_equiv_pos_as_xyz
  x,y,z
_cell_length_a	10.099
_cell_length_b	14.363
_cell_length_c	12.975
_cell_angle_alpha	90
_cell_angle_beta	105.69
_cell_angle_gamma	90
loop_
_atom_site_label
_atom_site_type_symbol
_atom_site_fract_x
_atom_site_fract_y
_atom_site_fract_z
_atom_site_charge
Mof_O 	O 	0.3037	0.09868	0.4316	-0.251
Mof_O 	O 	0.4527	0.44141	0.1676	-0.267
Mof_O 	O 	0.6004	0.36318	0.0969	-0.262
Mof_C 	C 	0.5299	0.3744	0.1626	0.317
Mof_O 	O 	0.7812	0.04277	0.4428	-0.261
Mof_Cd	Cd	0.0912	0.06628	0.43947	0.514
Mof_O 	O 	0.8952	0.13801	0.362	-0.264
Mof_C 	C 	0.6552	0.2428	0.2771	0.015
Mof_C 	C 	0.5444	0.148	0.3802	0.027
Mof_C 	C 	0.6612	0.1692	0.3472	-0.066
Mof_C 	C 	0.4226	0.2751	0.2778	0.015
Mof_C 	C 	0.5372	0.2966	0.2426	-0.06
Mof_C 	C 	0.4252	0.1993	0.3449	-0.065
Mof_C 	C 	0.7898	0.1118	0.387	0.322
Mof_C 	C 	0.2962	0.1697	0.3741	0.314
Mof_O 	O 	0.189	0.2131	0.3409	-0.232
Mof_H 	H 	0.344	0.31	0.255	0.066
Mof_H 	H 	0.543	0.093	0.427	0.069
Mof_H 	H 	0.73	0.254	0.253	0.07
Mof_O 	O 	0.1963	0.59868	0.0684	-0.251
Mof_O 	O 	0.0473	0.94141	0.3324	-0.263
Mof_O 	O 	0.8996	0.86318	0.4031	-0.262
Mof_C 	C 	0.9701	0.8744	0.3374	0.313
Mof_O 	O 	0.7188	0.54277	0.0572	-0.263
Mof_Cd	Cd	0.4088	0.56628	0.06053	0.517
Mof_O 	O 	0.6048	0.63801	0.138	-0.266
Mof_C 	C 	0.8448	0.7428	0.2229	0.015
Mof_C 	C 	0.9556	0.648	0.1198	0.025
Mof_C 	C 	0.8388	0.6692	0.1528	-0.066
Mof_C 	C 	0.0774	0.7751	0.2222	0.018
Mof_C 	C 	0.9628	0.7966	0.2574	-0.062
Mof_C 	C 	0.0748	0.6993	0.1551	-0.064
Mof_C 	C 	0.7102	0.6118	0.113	0.323
Mof_C 	C 	0.2038	0.6697	0.1259	0.313
Mof_O 	O 	0.311	0.7131	0.1591	-0.232
Mof_H 	H 	0.156	0.81	0.245	0.066
Mof_H 	H 	0.957	0.593	0.073	0.07
Mof_H 	H 	0.77	0.754	0.247	0.069
Mof_O 	O 	0.6963	0.90132	0.5684	-0.252
Mof_O 	O 	0.5473	0.55859	0.8324	-0.268
Mof_O 	O 	0.3996	0.63682	0.9031	-0.262
Mof_C 	C 	0.4701	0.6256	0.8374	0.317
Mof_O 	O 	0.2188	0.95723	0.5572	-0.261
Mof_Cd	Cd	0.9088	0.93372	0.56053	0.514
Mof_O 	O 	0.1048	0.86199	0.638	-0.264
Mof_C 	C 	0.3448	0.7572	0.7229	0.015
Mof_C 	C 	0.4556	0.852	0.6198	0.027
Mof_C 	C 	0.3388	0.8308	0.6528	-0.066
Mof_C 	C 	0.5774	0.7249	0.7222	0.015
Mof_C 	C 	0.4628	0.7034	0.7574	-0.06
Mof_C 	C 	0.5748	0.8007	0.6551	-0.065
Mof_C 	C 	0.2102	0.8882	0.613	0.322
Mof_C 	C 	0.7038	0.8303	0.6259	0.314
Mof_O 	O 	0.811	0.7869	0.6591	-0.232
Mof_H 	H 	0.656	0.69	0.745	0.066
Mof_H 	H 	0.457	0.907	0.573	0.069
Mof_H 	H 	0.27	0.746	0.747	0.07
Mof_O 	O 	0.8037	0.40132	0.9316	-0.251
Mof_O 	O 	0.9527	0.05859	0.6676	-0.263
Mof_O 	O 	0.1004	0.13682	0.5969	-0.262
Mof_C 	C 	0.0299	0.1256	0.6626	0.313
Mof_O 	O 	0.2812	0.45723	0.9428	-0.263
Mof_Cd	Cd	0.5912	0.43372	0.93947	0.517
Mof_O 	O 	0.3952	0.36199	0.862	-0.266
Mof_C 	C 	0.1552	0.2572	0.7771	0.015
Mof_C 	C 	0.0444	0.352	0.8802	0.025
Mof_C 	C 	0.1612	0.3308	0.8472	-0.066
Mof_C 	C 	0.9226	0.2249	0.7778	0.018
Mof_C 	C 	0.0372	0.2034	0.7426	-0.062
Mof_C 	C 	0.9252	0.3007	0.8449	-0.064
Mof_C 	C 	0.2898	0.3882	0.887	0.323
Mof_C 	C 	0.7962	0.3303	0.8741	0.313
Mof_O 	O 	0.689	0.2869	0.8409	-0.232
Mof_H 	H 	0.844	0.19	0.755	0.066
Mof_H 	H 	0.043	0.407	0.927	0.07
Mof_H 	H 	0.23	0.246	0.753	0.069
_end
