data_functionalizedCrystal
_audit_creation_method	'EQeq! by Chris Wilmer'
_symmetry_space_group_name_H-M	'P1'
_symmetry_Int_Tables_number	1
_symmetry_cell_setting	triclinic
loop_
_symmetry_equiv_pos_as_xyz
  x,y,z
_cell_length_a	18.8049
_cell_length_b	18.8049
_cell_length_c	18.8049
_cell_angle_alpha	60
_cell_angle_beta	60
_cell_angle_gamma	60
loop_
_atom_site_label
_atom_site_type_symbol
_atom_site_fract_x
_atom_site_fract_y
_atom_site_fract_z
_atom_site_charge
Mof_Ni	Ni	0.92786	0.5	0.07214	1.094
Mof_Ni	Ni	0.5	0.92786	0.5	1.094
Mof_Ni	Ni	0.07214	0.5	0.92786	1.094
Mof_Ni	Ni	0.5	0.07214	0.5	1.094
Mof_Ni	Ni	0.92786	0.07214	0.5	1.094
Mof_Ni	Ni	0.5	0.5	0.07214	1.094
Mof_Ni	Ni	0.07214	0.92786	0.5	1.094
Mof_Ni	Ni	0.5	0.5	0.92786	1.094
Mof_Ni	Ni	0.92786	0.5	0.5	1.094
Mof_Ni	Ni	0.5	0.07214	0.92786	1.094
Mof_Ni	Ni	0.07214	0.5	0.5	1.094
Mof_Ni	Ni	0.5	0.92786	0.07214	1.094
Mof_H 	H 	0.7388	0.5242	0.1298	0.22
Mof_H 	H 	0.5242	0.7388	0.6072	0.219
Mof_H 	H 	0.1298	0.6072	0.7388	0.22
Mof_H 	H 	0.6072	0.1298	0.5242	0.219
Mof_H 	H 	0.7388	0.1298	0.6072	0.22
Mof_H 	H 	0.5242	0.6072	0.1298	0.219
Mof_H 	H 	0.1298	0.7388	0.5242	0.22
Mof_H 	H 	0.6072	0.5242	0.7388	0.219
Mof_H 	H 	0.7388	0.6072	0.5242	0.219
Mof_H 	H 	0.5242	0.1298	0.7388	0.22
Mof_H 	H 	0.1298	0.5242	0.6072	0.219
Mof_H 	H 	0.6072	0.7388	0.1298	0.22
Mof_H 	H 	0.4758	0.2612	0.8702	0.22
Mof_H 	H 	0.2612	0.4758	0.3928	0.219
Mof_H 	H 	0.3928	0.8702	0.2612	0.22
Mof_H 	H 	0.8702	0.3928	0.4758	0.219
Mof_H 	H 	0.8702	0.2612	0.3928	0.22
Mof_H 	H 	0.3928	0.4758	0.8702	0.219
Mof_H 	H 	0.2612	0.8702	0.4758	0.221
Mof_H 	H 	0.4758	0.3928	0.2612	0.22
Mof_H 	H 	0.3928	0.2612	0.4758	0.22
Mof_H 	H 	0.8702	0.4758	0.2612	0.221
Mof_H 	H 	0.4758	0.8702	0.3928	0.22
Mof_H 	H 	0.2612	0.3928	0.8702	0.221
Mof_H 	H 	0.2612	0.4758	0.8702	0.221
Mof_H 	H 	0.4758	0.2612	0.3928	0.22
Mof_H 	H 	0.8702	0.3928	0.2612	0.221
Mof_H 	H 	0.3928	0.8702	0.4758	0.22
Mof_H 	H 	0.2612	0.8702	0.3928	0.221
Mof_H 	H 	0.4758	0.3928	0.8702	0.22
Mof_H 	H 	0.8702	0.2612	0.4758	0.221
Mof_H 	H 	0.3928	0.4758	0.2612	0.22
Mof_H 	H 	0.2612	0.3928	0.4758	0.22
Mof_H 	H 	0.4758	0.8702	0.2612	0.221
Mof_H 	H 	0.8702	0.4758	0.3928	0.22
Mof_H 	H 	0.3928	0.2612	0.8702	0.221
Mof_H 	H 	0.5242	0.7388	0.1298	0.221
Mof_H 	H 	0.7388	0.5242	0.6072	0.22
Mof_H 	H 	0.6072	0.1298	0.7388	0.221
Mof_H 	H 	0.1298	0.6072	0.5242	0.22
Mof_H 	H 	0.1298	0.7388	0.6072	0.221
Mof_H 	H 	0.6072	0.5242	0.1298	0.22
Mof_H 	H 	0.7388	0.1298	0.5242	0.221
Mof_H 	H 	0.5242	0.6072	0.7388	0.22
Mof_H 	H 	0.6072	0.7388	0.5242	0.22
Mof_H 	H 	0.1298	0.5242	0.7388	0.221
Mof_H 	H 	0.5242	0.1298	0.6072	0.22
Mof_H 	H 	0.7388	0.6072	0.1298	0.221
Mof_H 	H 	0.776	0.5	0.224	0.258
Mof_H 	H 	0.5	0.776	0.5	0.257
Mof_H 	H 	0.224	0.5	0.776	0.258
Mof_H 	H 	0.5	0.224	0.5	0.257
Mof_H 	H 	0.776	0.224	0.5	0.258
Mof_H 	H 	0.5	0.5	0.224	0.257
Mof_H 	H 	0.224	0.776	0.5	0.258
Mof_H 	H 	0.5	0.5	0.776	0.257
Mof_H 	H 	0.776	0.5	0.5	0.257
Mof_H 	H 	0.5	0.224	0.776	0.258
Mof_H 	H 	0.224	0.5	0.5	0.257
Mof_H 	H 	0.5	0.776	0.224	0.258
Mof_H 	H 	0.0142	0.2268	0.2268	0.018
Mof_H 	H 	0.2268	0.0142	0.5322	0.018
Mof_H 	H 	0.2268	0.5322	0.0142	0.018
Mof_H 	H 	0.5322	0.2268	0.2268	0.019
Mof_H 	H 	0.0142	0.2268	0.5322	0.018
Mof_H 	H 	0.2268	0.5322	0.2268	0.019
Mof_H 	H 	0.2268	0.0142	0.2268	0.018
Mof_H 	H 	0.5322	0.2268	0.0142	0.018
Mof_H 	H 	0.0142	0.5322	0.2268	0.018
Mof_H 	H 	0.2268	0.2268	0.0142	0.018
Mof_H 	H 	0.2268	0.2268	0.5322	0.019
Mof_H 	H 	0.5322	0.0142	0.2268	0.018
Mof_H 	H 	0.7732	0.9858	0.7732	0.018
Mof_H 	H 	0.9858	0.7732	0.4678	0.018
Mof_H 	H 	0.4678	0.7732	0.9858	0.018
Mof_H 	H 	0.7732	0.4678	0.7732	0.019
Mof_H 	H 	0.7732	0.9858	0.4678	0.018
Mof_H 	H 	0.4678	0.7732	0.7732	0.019
Mof_H 	H 	0.9858	0.7732	0.7732	0.018
Mof_H 	H 	0.7732	0.4678	0.9858	0.018
Mof_H 	H 	0.4678	0.9858	0.7732	0.018
Mof_H 	H 	0.7732	0.7732	0.9858	0.018
Mof_H 	H 	0.7732	0.7732	0.4678	0.019
Mof_H 	H 	0.9858	0.4678	0.7732	0.018
Mof_H 	H 	0.6963	0.543	0.2177	0.168
Mof_H 	H 	0.543	0.6963	0.543	0.167
Mof_H 	H 	0.2177	0.543	0.6963	0.168
Mof_H 	H 	0.543	0.2177	0.543	0.168
Mof_H 	H 	0.6963	0.2177	0.543	0.168
Mof_H 	H 	0.543	0.543	0.2177	0.168
Mof_H 	H 	0.2177	0.6963	0.543	0.168
Mof_H 	H 	0.543	0.543	0.6963	0.167
Mof_H 	H 	0.6963	0.543	0.543	0.167
Mof_H 	H 	0.543	0.2177	0.6963	0.168
Mof_H 	H 	0.2177	0.543	0.543	0.168
Mof_H 	H 	0.543	0.6963	0.2177	0.168
Mof_H 	H 	0.457	0.3037	0.7823	0.168
Mof_H 	H 	0.3037	0.457	0.457	0.167
Mof_H 	H 	0.457	0.7823	0.3037	0.168
Mof_H 	H 	0.7823	0.457	0.457	0.168
Mof_H 	H 	0.7823	0.3037	0.457	0.168
Mof_H 	H 	0.457	0.457	0.7823	0.168
Mof_H 	H 	0.3037	0.7823	0.457	0.168
Mof_H 	H 	0.457	0.457	0.3037	0.167
Mof_H 	H 	0.457	0.3037	0.457	0.167
Mof_H 	H 	0.7823	0.457	0.3037	0.168
Mof_H 	H 	0.457	0.7823	0.457	0.168
Mof_H 	H 	0.3037	0.457	0.7823	0.168
Mof_C 	C 	0.0694	0.33476	0.0694	0.368
Mof_C 	C 	0.1136	0.24194	0.1136	-0.148
Mof_C 	C 	0.33476	0.0694	0.52644	0.389
Mof_C 	C 	0.24194	0.1136	0.53086	-0.156
Mof_C 	C 	0.0694	0.52644	0.0694	0.377
Mof_C 	C 	0.1136	0.53086	0.1136	-0.154
Mof_C 	C 	0.52644	0.0694	0.33476	0.389
Mof_C 	C 	0.53086	0.1136	0.24194	-0.156
Mof_C 	C 	0.0694	0.0694	0.52644	0.377
Mof_C 	C 	0.1136	0.1136	0.53086	-0.154
Mof_C 	C 	0.33476	0.52644	0.0694	0.389
Mof_C 	C 	0.24194	0.53086	0.1136	-0.156
Mof_C 	C 	0.0694	0.0694	0.33476	0.368
Mof_C 	C 	0.1136	0.1136	0.24194	-0.148
Mof_C 	C 	0.52644	0.33476	0.0694	0.389
Mof_C 	C 	0.53086	0.24194	0.1136	-0.156
Mof_C 	C 	0.0694	0.52644	0.33476	0.389
Mof_C 	C 	0.1136	0.53086	0.24194	-0.156
Mof_C 	C 	0.33476	0.0694	0.0694	0.368
Mof_C 	C 	0.24194	0.1136	0.1136	-0.148
Mof_C 	C 	0.0694	0.33476	0.52644	0.389
Mof_C 	C 	0.1136	0.24194	0.53086	-0.156
Mof_C 	C 	0.52644	0.0694	0.0694	0.377
Mof_C 	C 	0.53086	0.1136	0.1136	-0.154
Mof_C 	C 	0.66524	0.9306	0.9306	0.368
Mof_C 	C 	0.75806	0.8864	0.8864	-0.148
Mof_C 	C 	0.9306	0.66524	0.47356	0.389
Mof_C 	C 	0.8864	0.75806	0.46914	-0.156
Mof_C 	C 	0.47356	0.9306	0.9306	0.377
Mof_C 	C 	0.46914	0.8864	0.8864	-0.154
Mof_C 	C 	0.9306	0.47356	0.66524	0.389
Mof_C 	C 	0.8864	0.46914	0.75806	-0.156
Mof_C 	C 	0.9306	0.9306	0.47356	0.377
Mof_C 	C 	0.8864	0.8864	0.46914	-0.154
Mof_C 	C 	0.47356	0.66524	0.9306	0.389
Mof_C 	C 	0.46914	0.75806	0.8864	-0.156
Mof_C 	C 	0.9306	0.9306	0.66524	0.368
Mof_C 	C 	0.8864	0.8864	0.75806	-0.148
Mof_C 	C 	0.66524	0.47356	0.9306	0.389
Mof_C 	C 	0.75806	0.46914	0.8864	-0.156
Mof_C 	C 	0.47356	0.9306	0.66524	0.389
Mof_C 	C 	0.46914	0.8864	0.75806	-0.156
Mof_C 	C 	0.9306	0.66524	0.9306	0.368
Mof_C 	C 	0.8864	0.75806	0.8864	-0.148
Mof_C 	C 	0.66524	0.9306	0.47356	0.389
Mof_C 	C 	0.75806	0.8864	0.46914	-0.156
Mof_C 	C 	0.9306	0.47356	0.9306	0.377
Mof_C 	C 	0.8864	0.46914	0.8864	-0.154
Mof_C 	C 	0.07154	0.1985	0.1985	0.086
Mof_C 	C 	0.1985	0.07154	0.53146	0.095
Mof_C 	C 	0.1985	0.53146	0.07154	0.095
Mof_C 	C 	0.53146	0.1985	0.1985	0.096
Mof_C 	C 	0.07154	0.1985	0.53146	0.095
Mof_C 	C 	0.1985	0.53146	0.1985	0.096
Mof_C 	C 	0.1985	0.07154	0.1985	0.086
Mof_C 	C 	0.53146	0.1985	0.07154	0.095
Mof_C 	C 	0.07154	0.53146	0.1985	0.095
Mof_C 	C 	0.1985	0.1985	0.07154	0.086
Mof_C 	C 	0.1985	0.1985	0.53146	0.096
Mof_C 	C 	0.53146	0.07154	0.1985	0.095
Mof_C 	C 	0.8015	0.92846	0.8015	0.086
Mof_C 	C 	0.92846	0.8015	0.46854	0.095
Mof_C 	C 	0.46854	0.8015	0.92846	0.095
Mof_C 	C 	0.8015	0.46854	0.8015	0.096
Mof_C 	C 	0.8015	0.92846	0.46854	0.095
Mof_C 	C 	0.46854	0.8015	0.8015	0.096
Mof_C 	C 	0.92846	0.8015	0.8015	0.086
Mof_C 	C 	0.8015	0.46854	0.92846	0.095
Mof_C 	C 	0.46854	0.92846	0.8015	0.095
Mof_C 	C 	0.8015	0.8015	0.92846	0.086
Mof_C 	C 	0.8015	0.8015	0.46854	0.096
Mof_C 	C 	0.92846	0.46854	0.8015	0.095
Mof_C 	C 	0.743	0.547	0.163	-0.667
Mof_C 	C 	0.547	0.743	0.547	-0.666
Mof_C 	C 	0.163	0.547	0.743	-0.667
Mof_C 	C 	0.547	0.163	0.547	-0.667
Mof_C 	C 	0.743	0.163	0.547	-0.667
Mof_C 	C 	0.547	0.547	0.163	-0.667
Mof_C 	C 	0.163	0.743	0.547	-0.667
Mof_C 	C 	0.547	0.547	0.743	-0.666
Mof_C 	C 	0.743	0.547	0.547	-0.666
Mof_C 	C 	0.547	0.163	0.743	-0.667
Mof_C 	C 	0.163	0.547	0.547	-0.667
Mof_C 	C 	0.547	0.743	0.163	-0.667
Mof_C 	C 	0.453	0.257	0.837	-0.667
Mof_C 	C 	0.257	0.453	0.453	-0.666
Mof_C 	C 	0.453	0.837	0.257	-0.667
Mof_C 	C 	0.837	0.453	0.453	-0.667
Mof_C 	C 	0.837	0.257	0.453	-0.667
Mof_C 	C 	0.453	0.453	0.837	-0.667
Mof_C 	C 	0.257	0.837	0.453	-0.667
Mof_C 	C 	0.453	0.453	0.257	-0.666
Mof_C 	C 	0.453	0.257	0.453	-0.666
Mof_C 	C 	0.837	0.453	0.257	-0.667
Mof_C 	C 	0.453	0.837	0.453	-0.667
Mof_C 	C 	0.257	0.453	0.837	-0.667
Mof_N 	N 	0.823	0.5	0.177	-0.162
Mof_N 	N 	0.5	0.823	0.5	-0.162
Mof_N 	N 	0.177	0.5	0.823	-0.162
Mof_N 	N 	0.5	0.177	0.5	-0.162
Mof_N 	N 	0.823	0.177	0.5	-0.162
Mof_N 	N 	0.5	0.5	0.177	-0.162
Mof_N 	N 	0.177	0.823	0.5	-0.162
Mof_N 	N 	0.5	0.5	0.823	-0.162
Mof_N 	N 	0.823	0.5	0.5	-0.162
Mof_N 	N 	0.5	0.177	0.823	-0.162
Mof_N 	N 	0.177	0.5	0.5	-0.162
Mof_N 	N 	0.5	0.823	0.177	-0.162
Mof_O 	O 	0.99401	0.37205	0.11249	-0.431
Mof_O 	O 	0.37205	0.99401	0.52145	-0.441
Mof_O 	O 	0.11249	0.52145	0.99401	-0.435
Mof_O 	O 	0.52145	0.11249	0.37205	-0.442
Mof_O 	O 	0.99401	0.11249	0.52145	-0.435
Mof_O 	O 	0.37205	0.52145	0.11249	-0.442
Mof_O 	O 	0.11249	0.99401	0.37205	-0.431
Mof_O 	O 	0.52145	0.37205	0.99401	-0.441
Mof_O 	O 	0.99401	0.52145	0.37205	-0.441
Mof_O 	O 	0.37205	0.11249	0.99401	-0.431
Mof_O 	O 	0.11249	0.37205	0.52145	-0.442
Mof_O 	O 	0.52145	0.99401	0.11249	-0.435
Mof_O 	O 	0.62795	0.00599	0.88751	-0.431
Mof_O 	O 	0.00599	0.62795	0.47855	-0.441
Mof_O 	O 	0.47855	0.88751	0.00599	-0.435
Mof_O 	O 	0.88751	0.47855	0.62795	-0.442
Mof_O 	O 	0.88751	0.00599	0.47855	-0.435
Mof_O 	O 	0.47855	0.62795	0.88751	-0.442
Mof_O 	O 	0.00599	0.88751	0.62795	-0.431
Mof_O 	O 	0.62795	0.47855	0.00599	-0.441
Mof_O 	O 	0.47855	0.00599	0.62795	-0.441
Mof_O 	O 	0.88751	0.62795	0.00599	-0.431
Mof_O 	O 	0.62795	0.88751	0.47855	-0.442
Mof_O 	O 	0.00599	0.47855	0.88751	-0.435
Mof_O 	O 	0.00599	0.62795	0.88751	-0.431
Mof_O 	O 	0.62795	0.00599	0.47855	-0.441
Mof_O 	O 	0.88751	0.47855	0.00599	-0.435
Mof_O 	O 	0.47855	0.88751	0.62795	-0.442
Mof_O 	O 	0.00599	0.88751	0.47855	-0.435
Mof_O 	O 	0.62795	0.47855	0.88751	-0.442
Mof_O 	O 	0.88751	0.00599	0.62795	-0.431
Mof_O 	O 	0.47855	0.62795	0.00599	-0.441
Mof_O 	O 	0.00599	0.47855	0.62795	-0.441
Mof_O 	O 	0.62795	0.88751	0.00599	-0.431
Mof_O 	O 	0.88751	0.62795	0.47855	-0.442
Mof_O 	O 	0.47855	0.00599	0.88751	-0.435
Mof_O 	O 	0.37205	0.99401	0.11249	-0.431
Mof_O 	O 	0.99401	0.37205	0.52145	-0.441
Mof_O 	O 	0.52145	0.11249	0.99401	-0.435
Mof_O 	O 	0.11249	0.52145	0.37205	-0.442
Mof_O 	O 	0.11249	0.99401	0.52145	-0.435
Mof_O 	O 	0.52145	0.37205	0.11249	-0.442
Mof_O 	O 	0.99401	0.11249	0.37205	-0.431
Mof_O 	O 	0.37205	0.52145	0.99401	-0.441
Mof_O 	O 	0.52145	0.99401	0.37205	-0.441
Mof_O 	O 	0.11249	0.37205	0.99401	-0.431
Mof_O 	O 	0.37205	0.11249	0.52145	-0.442
Mof_O 	O 	0.99401	0.52145	0.11249	-0.435
_end
