data_functionalizedCrystal
_audit_creation_method	'EQeq! by Chris Wilmer'
_symmetry_space_group_name_H-M	'P1'
_symmetry_Int_Tables_number	1
_symmetry_cell_setting	triclinic
loop_
_symmetry_equiv_pos_as_xyz
  x,y,z
_cell_length_a	9.117
_cell_length_b	9.452
_cell_length_c	10.914
_cell_angle_alpha	97.53
_cell_angle_beta	92.11
_cell_angle_gamma	103.25
loop_
_atom_site_label
_atom_site_type_symbol
_atom_site_fract_x
_atom_site_fract_y
_atom_site_fract_z
_atom_site_charge
Mof_C 	C 	0.6906	0.3161	0.2322	0.329
Mof_C 	C 	0.6178	0.3117	0.3558	-0.021
Mof_C 	C 	0.458	0.2674	0.3554	-0.144
Mof_H 	H 	0.3985	0.2335	0.2818	0.096
Mof_C 	C 	0.3932	0.2765	0.4692	0.199
Mof_C 	C 	0.4798	0.3268	0.5809	-0.143
Mof_H 	H 	0.4332	0.3334	0.6552	0.103
Mof_C 	C 	0.6382	0.3676	0.5805	-0.016
Mof_C 	C 	0.7076	0.3627	0.4682	-0.039
Mof_H 	H 	0.8121	0.3927	0.4676	0.07
Mof_C 	C 	0.7305	0.4234	0.7031	0.302
Mof_C 	C 	0.1397	0.1293	0.4047	0.256
Mof_C 	C 	0.1784	0.9992	0.3578	-0.244
Mof_H 	H 	0.2757	0.9879	0.3737	0.116
Mof_C 	C 	0.0724	0.8875	0.2879	0.107
Mof_H 	H 	0.0994	0.8012	0.2571	-0.024
Mof_C 	C 	0.9251	0.9008	0.2623	-0.119
Mof_C 	C 	0.8864	0.0304	0.3126	0.091
Mof_H 	H 	0.7884	0.0408	0.2984	0.008
Mof_C 	C 	0.9937	0.1451	0.3843	-0.227
Mof_H 	H 	0.967	0.2306	0.4177	0.133
Mof_C 	C 	0.8106	0.7819	0.1843	0.142
Mof_Co	Co	0.6436	0.36245	0.96621	1.124
Mof_Co	Co	0.97779	0.49263	0.14119	1.136
Mof_N 	N 	0.675	0.8023	0.1472	-0.12
Mof_N 	N 	0.6012	0.6726	0.0777	-0.157
Mof_N 	N 	0.688	0.5791	0.073	-0.174
Mof_N 	N 	0.8223	0.6435	0.1404	-0.205
Mof_O 	O 	0.8755	0.3807	0.9715	-0.606
Mof_O 	O 	0.834	0.3652	0.2408	-0.435
Mof_O 	O 	0.6079	0.2749	0.132	-0.434
Mof_O 	O 	0.8727	0.4358	0.7034	-0.408
Mof_O 	O 	0.6622	0.4598	0.7988	-0.424
Mof_O 	O 	0.2363	0.2488	0.4787	-0.272
Mof_C 	C 	0.3094	0.6839	0.7678	0.329
Mof_C 	C 	0.3822	0.6883	0.6442	-0.021
Mof_C 	C 	0.542	0.7326	0.6446	-0.144
Mof_H 	H 	0.6015	0.7665	0.7182	0.096
Mof_C 	C 	0.6068	0.7235	0.5308	0.199
Mof_C 	C 	0.5202	0.6732	0.4191	-0.143
Mof_H 	H 	0.5668	0.6666	0.3448	0.103
Mof_C 	C 	0.3618	0.6324	0.4195	-0.016
Mof_C 	C 	0.2924	0.6373	0.5318	-0.039
Mof_H 	H 	0.1879	0.6073	0.5324	0.07
Mof_C 	C 	0.2695	0.5766	0.2969	0.302
Mof_C 	C 	0.8603	0.8707	0.5953	0.256
Mof_C 	C 	0.8216	0.0008	0.6422	-0.244
Mof_H 	H 	0.7243	0.0121	0.6263	0.116
Mof_C 	C 	0.9276	0.1125	0.7121	0.107
Mof_H 	H 	0.9006	0.1988	0.7429	-0.024
Mof_C 	C 	0.0749	0.0992	0.7377	-0.119
Mof_C 	C 	0.1136	0.9696	0.6874	0.091
Mof_H 	H 	0.2116	0.9592	0.7016	0.008
Mof_C 	C 	0.0063	0.8549	0.6157	-0.227
Mof_H 	H 	0.033	0.7694	0.5823	0.133
Mof_C 	C 	0.1894	0.2181	0.8157	0.142
Mof_Co	Co	0.3564	0.63755	0.03379	1.124
Mof_Co	Co	0.02221	0.50737	0.85881	1.136
Mof_N 	N 	0.325	0.1977	0.8528	-0.12
Mof_N 	N 	0.3988	0.3274	0.9223	-0.157
Mof_N 	N 	0.312	0.4209	0.927	-0.174
Mof_N 	N 	0.1777	0.3565	0.8596	-0.205
Mof_O 	O 	0.1245	0.6193	0.0285	-0.606
Mof_O 	O 	0.166	0.6348	0.7592	-0.435
Mof_O 	O 	0.3921	0.7251	0.868	-0.434
Mof_O 	O 	0.1273	0.5642	0.2966	-0.408
Mof_O 	O 	0.3378	0.5402	0.2012	-0.424
Mof_O 	O 	0.7637	0.7512	0.5213	-0.272
_end
