# CIF file generated by openbabel 3.1.0, see https://openbabel.org
data_I
_chemical_name_common 'image0'
_cell_length_a 21.8729
_cell_length_b 21.8729
_cell_length_c 28.6804
_cell_angle_alpha 90
_cell_angle_beta 90
_cell_angle_gamma 90
_space_group_name_H-M_alt 'P 1'
_space_group_name_Hall 'P 1'
loop_
    _symmetry_equiv_pos_as_xyz
    x,y,z
loop_
    _atom_site_label
    _atom_site_type_symbol
    _atom_site_fract_x
    _atom_site_fract_y
    _atom_site_fract_z
    _atom_site_occupancy
    O1       O        0.43590    0.15490    0.45100    1.000
    O2       O        0.43580    0.25810    0.45110    1.000
    C1       C        0.12760    0.04930    0.24640    1.000
    C2       C        0.18970    0.02990    0.23890    1.000
    H1       H        0.22420    0.05570    0.23480    1.000
    C3       C        0.20000    0.16180    0.28680    1.000
    H2       H        0.19690    0.13410    0.31220    1.000
    C4       C        0.24550    0.20520    0.28630    1.000
    C5       C        0.29040    0.20620    0.32460    1.000
    C6       C        0.31310    0.14930    0.34210    1.000
    H3       H        0.30050    0.11170    0.32840    1.000
    C7       C        0.35350    0.14960    0.37930    1.000
    H4       H        0.36640    0.11220    0.39290    1.000
    C8       C        0.37470    0.20450    0.39620    1.000
    C9       C        0.35440    0.26230    0.37780    1.000
    H5       H        0.36930    0.29980    0.39010    1.000
    C10      C        0.31370    0.26150    0.34260    1.000
    H6       H        0.30040    0.29910    0.32950    1.000
    C11      C        0.41920    0.20630    0.43660    1.000
    O3       O        0.56410    0.84510    0.45100    1.000
    O4       O        0.56420    0.74190    0.45110    1.000
    C12      C        0.87240    0.95070    0.24640    1.000
    C13      C        0.81030    0.97010    0.23890    1.000
    H7       H        0.77580    0.94430    0.23480    1.000
    C14      C        0.80000    0.83820    0.28680    1.000
    H8       H        0.80310    0.86590    0.31220    1.000
    C15      C        0.75450    0.79480    0.28630    1.000
    C16      C        0.70960    0.79380    0.32460    1.000
    C17      C        0.68690    0.85070    0.34210    1.000
    H9       H        0.69950    0.88830    0.32840    1.000
    C18      C        0.64650    0.85040    0.37930    1.000
    H10      H        0.63360    0.88780    0.39290    1.000
    C19      C        0.62530    0.79550    0.39620    1.000
    C20      C        0.64560    0.73770    0.37780    1.000
    H11      H        0.63070    0.70020    0.39010    1.000
    C21      C        0.68630    0.73850    0.34260    1.000
    H12      H        0.69960    0.70090    0.32950    1.000
    C22      C        0.58080    0.79370    0.43660    1.000
    O5       O        0.84510    0.43590    0.95100    1.000
    O6       O        0.74190    0.43580    0.95110    1.000
    C23      C        0.95070    0.12760    0.74640    1.000
    C24      C        0.97010    0.18970    0.73890    1.000
    H13      H        0.94430    0.22420    0.73480    1.000
    C25      C        0.83820    0.20000    0.78680    1.000
    H14      H        0.86590    0.19690    0.81220    1.000
    C26      C        0.79480    0.24550    0.78630    1.000
    C27      C        0.79380    0.29040    0.82460    1.000
    C28      C        0.85070    0.31310    0.84210    1.000
    H15      H        0.88830    0.30050    0.82840    1.000
    C29      C        0.85040    0.35350    0.87930    1.000
    H16      H        0.88780    0.36640    0.89290    1.000
    C30      C        0.79550    0.37470    0.89620    1.000
    C31      C        0.73770    0.35440    0.87780    1.000
    H17      H        0.70020    0.36930    0.89010    1.000
    C32      C        0.73850    0.31370    0.84260    1.000
    H18      H        0.70090    0.30040    0.82950    1.000
    C33      C        0.79370    0.41920    0.93660    1.000
    O7       O        0.15490    0.56410    0.95100    1.000
    O8       O        0.25810    0.56420    0.95110    1.000
    C34      C        0.04930    0.87240    0.74640    1.000
    C35      C        0.02990    0.81030    0.73890    1.000
    H19      H        0.05570    0.77580    0.73480    1.000
    C36      C        0.16180    0.80000    0.78680    1.000
    H20      H        0.13410    0.80310    0.81220    1.000
    C37      C        0.20520    0.75450    0.78630    1.000
    C38      C        0.20620    0.70960    0.82460    1.000
    C39      C        0.14930    0.68690    0.84210    1.000
    H21      H        0.11170    0.69950    0.82840    1.000
    C40      C        0.14960    0.64650    0.87930    1.000
    H22      H        0.11220    0.63360    0.89290    1.000
    C41      C        0.20450    0.62530    0.89620    1.000
    C42      C        0.26230    0.64560    0.87780    1.000
    H23      H        0.29980    0.63070    0.89010    1.000
    C43      C        0.26150    0.68630    0.84260    1.000
    H24      H        0.29910    0.69960    0.82950    1.000
    C44      C        0.20630    0.58080    0.93660    1.000
    O9       O        0.56410    0.15490    0.54900    1.000
    O10      O        0.56420    0.25810    0.54890    1.000
    C45      C        0.87240    0.04930    0.75360    1.000
    C46      C        0.81030    0.02990    0.76110    1.000
    H25      H        0.77580    0.05570    0.76520    1.000
    C47      C        0.80000    0.16180    0.71320    1.000
    H26      H        0.80310    0.13410    0.68780    1.000
    C48      C        0.75450    0.20520    0.71370    1.000
    C49      C        0.70960    0.20620    0.67540    1.000
    C50      C        0.68690    0.14930    0.65790    1.000
    H27      H        0.69950    0.11170    0.67160    1.000
    C51      C        0.64650    0.14960    0.62070    1.000
    H28      H        0.63360    0.11220    0.60710    1.000
    C52      C        0.62530    0.20450    0.60380    1.000
    C53      C        0.64560    0.26230    0.62220    1.000
    H29      H        0.63070    0.29980    0.60990    1.000
    C54      C        0.68630    0.26150    0.65740    1.000
    H30      H        0.69960    0.29910    0.67050    1.000
    C55      C        0.58080    0.20630    0.56340    1.000
    O11      O        0.43590    0.84510    0.54900    1.000
    O12      O        0.43580    0.74190    0.54890    1.000
    C56      C        0.12760    0.95070    0.75360    1.000
    C57      C        0.18970    0.97010    0.76110    1.000
    H31      H        0.22420    0.94430    0.76520    1.000
    C58      C        0.20000    0.83820    0.71320    1.000
    H32      H        0.19690    0.86590    0.68780    1.000
    C59      C        0.24550    0.79480    0.71370    1.000
    C60      C        0.29040    0.79380    0.67540    1.000
    C61      C        0.31310    0.85070    0.65790    1.000
    H33      H        0.30050    0.88830    0.67160    1.000
    C62      C        0.35350    0.85040    0.62070    1.000
    H34      H        0.36640    0.88780    0.60710    1.000
    C63      C        0.37470    0.79550    0.60380    1.000
    C64      C        0.35440    0.73770    0.62220    1.000
    H35      H        0.36930    0.70020    0.60990    1.000
    C65      C        0.31370    0.73850    0.65740    1.000
    H36      H        0.30040    0.70090    0.67050    1.000
    C66      C        0.41920    0.79370    0.56340    1.000
    O13      O        0.15490    0.43590    0.04900    1.000
    O14      O        0.25810    0.43580    0.04890    1.000
    C67      C        0.04930    0.12760    0.25360    1.000
    C68      C        0.02990    0.18970    0.26110    1.000
    H37      H        0.05570    0.22420    0.26520    1.000
    C69      C        0.16180    0.20000    0.21320    1.000
    H38      H        0.13410    0.19690    0.18780    1.000
    C70      C        0.20520    0.24550    0.21370    1.000
    C71      C        0.20620    0.29040    0.17540    1.000
    C72      C        0.14930    0.31310    0.15790    1.000
    H39      H        0.11170    0.30050    0.17160    1.000
    C73      C        0.14960    0.35350    0.12070    1.000
    H40      H        0.11220    0.36640    0.10710    1.000
    C74      C        0.20450    0.37470    0.10380    1.000
    C75      C        0.26230    0.35440    0.12220    1.000
    H41      H        0.29980    0.36930    0.10990    1.000
    C76      C        0.26150    0.31370    0.15740    1.000
    H42      H        0.29910    0.30040    0.17050    1.000
    C77      C        0.20630    0.41920    0.06340    1.000
    O15      O        0.84510    0.56410    0.04900    1.000
    O16      O        0.74190    0.56420    0.04890    1.000
    C78      C        0.95070    0.87240    0.25360    1.000
    C79      C        0.97010    0.81030    0.26110    1.000
    H43      H        0.94430    0.77580    0.26520    1.000
    C80      C        0.83820    0.80000    0.21320    1.000
    H44      H        0.86590    0.80310    0.18780    1.000
    C81      C        0.79480    0.75450    0.21370    1.000
    C82      C        0.79380    0.70960    0.17540    1.000
    C83      C        0.85070    0.68690    0.15790    1.000
    H45      H        0.88830    0.69950    0.17160    1.000
    C84      C        0.85040    0.64650    0.12070    1.000
    H46      H        0.88780    0.63360    0.10710    1.000
    C85      C        0.79550    0.62530    0.10380    1.000
    C86      C        0.73770    0.64560    0.12220    1.000
    H47      H        0.70020    0.63070    0.10990    1.000
    C87      C        0.73850    0.68630    0.15740    1.000
    H48      H        0.70090    0.69960    0.17050    1.000
    C88      C        0.79370    0.58080    0.06340    1.000
    O17      O        0.56410    0.84510    0.54900    1.000
    O18      O        0.56420    0.74190    0.54890    1.000
    C89      C        0.87240    0.95070    0.75360    1.000
    C90      C        0.81030    0.97010    0.76110    1.000
    H49      H        0.77580    0.94430    0.76520    1.000
    C91      C        0.80000    0.83820    0.71320    1.000
    H50      H        0.80310    0.86590    0.68780    1.000
    C92      C        0.75450    0.79480    0.71370    1.000
    C93      C        0.70960    0.79380    0.67540    1.000
    C94      C        0.68690    0.85070    0.65790    1.000
    H51      H        0.69950    0.88830    0.67160    1.000
    C95      C        0.64650    0.85040    0.62070    1.000
    H52      H        0.63360    0.88780    0.60710    1.000
    C96      C        0.62530    0.79550    0.60380    1.000
    C97      C        0.64560    0.73770    0.62220    1.000
    H53      H        0.63070    0.70020    0.60990    1.000
    C98      C        0.68630    0.73850    0.65740    1.000
    H54      H        0.69960    0.70090    0.67050    1.000
    C99      C        0.58080    0.79370    0.56340    1.000
    O19      O        0.43590    0.15490    0.54900    1.000
    O20      O        0.43580    0.25810    0.54890    1.000
    C100     C        0.12760    0.04930    0.75360    1.000
    C101     C        0.18970    0.02990    0.76110    1.000
    H55      H        0.22420    0.05570    0.76520    1.000
    C102     C        0.20000    0.16180    0.71320    1.000
    H56      H        0.19690    0.13410    0.68780    1.000
    C103     C        0.24550    0.20520    0.71370    1.000
    C104     C        0.29040    0.20620    0.67540    1.000
    C105     C        0.31310    0.14930    0.65790    1.000
    H57      H        0.30050    0.11170    0.67160    1.000
    C106     C        0.35350    0.14960    0.62070    1.000
    H58      H        0.36640    0.11220    0.60710    1.000
    C107     C        0.37470    0.20450    0.60380    1.000
    C108     C        0.35440    0.26230    0.62220    1.000
    H59      H        0.36930    0.29980    0.60990    1.000
    C109     C        0.31370    0.26150    0.65740    1.000
    H60      H        0.30040    0.29910    0.67050    1.000
    C110     C        0.41920    0.20630    0.56340    1.000
    O21      O        0.15490    0.56410    0.04900    1.000
    O22      O        0.25810    0.56420    0.04890    1.000
    C111     C        0.04930    0.87240    0.25360    1.000
    C112     C        0.02990    0.81030    0.26110    1.000
    H61      H        0.05570    0.77580    0.26520    1.000
    C113     C        0.16180    0.80000    0.21320    1.000
    H62      H        0.13410    0.80310    0.18780    1.000
    C114     C        0.20520    0.75450    0.21370    1.000
    C115     C        0.20620    0.70960    0.17540    1.000
    C116     C        0.14930    0.68690    0.15790    1.000
    H63      H        0.11170    0.69950    0.17160    1.000
    C117     C        0.14960    0.64650    0.12070    1.000
    H64      H        0.11220    0.63360    0.10710    1.000
    C118     C        0.20450    0.62530    0.10380    1.000
    C119     C        0.26230    0.64560    0.12220    1.000
    H65      H        0.29980    0.63070    0.10990    1.000
    C120     C        0.26150    0.68630    0.15740    1.000
    H66      H        0.29910    0.69960    0.17050    1.000
    C121     C        0.20630    0.58080    0.06340    1.000
    O23      O        0.84510    0.43590    0.04900    1.000
    O24      O        0.74190    0.43580    0.04890    1.000
    C122     C        0.95070    0.12760    0.25360    1.000
    C123     C        0.97010    0.18970    0.26110    1.000
    H67      H        0.94430    0.22420    0.26520    1.000
    C124     C        0.83820    0.20000    0.21320    1.000
    H68      H        0.86590    0.19690    0.18780    1.000
    C125     C        0.79480    0.24550    0.21370    1.000
    C126     C        0.79380    0.29040    0.17540    1.000
    C127     C        0.85070    0.31310    0.15790    1.000
    H69      H        0.88830    0.30050    0.17160    1.000
    C128     C        0.85040    0.35350    0.12070    1.000
    H70      H        0.88780    0.36640    0.10710    1.000
    C129     C        0.79550    0.37470    0.10380    1.000
    C130     C        0.73770    0.35440    0.12220    1.000
    H71      H        0.70020    0.36930    0.10990    1.000
    C131     C        0.73850    0.31370    0.15740    1.000
    H72      H        0.70090    0.30040    0.17050    1.000
    C132     C        0.79370    0.41920    0.06340    1.000
    O25      O        0.43590    0.84510    0.45100    1.000
    O26      O        0.43580    0.74190    0.45110    1.000
    C133     C        0.12760    0.95070    0.24640    1.000
    C134     C        0.18970    0.97010    0.23890    1.000
    H73      H        0.22420    0.94430    0.23480    1.000
    C135     C        0.20000    0.83820    0.28680    1.000
    H74      H        0.19690    0.86590    0.31220    1.000
    C136     C        0.24550    0.79480    0.28630    1.000
    C137     C        0.29040    0.79380    0.32460    1.000
    C138     C        0.31310    0.85070    0.34210    1.000
    H75      H        0.30050    0.88830    0.32840    1.000
    C139     C        0.35350    0.85040    0.37930    1.000
    H76      H        0.36640    0.88780    0.39290    1.000
    C140     C        0.37470    0.79550    0.39620    1.000
    C141     C        0.35440    0.73770    0.37780    1.000
    H77      H        0.36930    0.70020    0.39010    1.000
    C142     C        0.31370    0.73850    0.34260    1.000
    H78      H        0.30040    0.70090    0.32950    1.000
    C143     C        0.41920    0.79370    0.43660    1.000
    O27      O        0.56410    0.15490    0.45100    1.000
    O28      O        0.56420    0.25810    0.45110    1.000
    C144     C        0.87240    0.04930    0.24640    1.000
    C145     C        0.81030    0.02990    0.23890    1.000
    H79      H        0.77580    0.05570    0.23480    1.000
    C146     C        0.80000    0.16180    0.28680    1.000
    H80      H        0.80310    0.13410    0.31220    1.000
    C147     C        0.75450    0.20520    0.28630    1.000
    C148     C        0.70960    0.20620    0.32460    1.000
    C149     C        0.68690    0.14930    0.34210    1.000
    H81      H        0.69950    0.11170    0.32840    1.000
    C150     C        0.64650    0.14960    0.37930    1.000
    H82      H        0.63360    0.11220    0.39290    1.000
    C151     C        0.62530    0.20450    0.39620    1.000
    C152     C        0.64560    0.26230    0.37780    1.000
    H83      H        0.63070    0.29980    0.39010    1.000
    C153     C        0.68630    0.26150    0.34260    1.000
    H84      H        0.69960    0.29910    0.32950    1.000
    C154     C        0.58080    0.20630    0.43660    1.000
    O29      O        0.84510    0.56410    0.95100    1.000
    O30      O        0.74190    0.56420    0.95110    1.000
    C155     C        0.95070    0.87240    0.74640    1.000
    C156     C        0.97010    0.81030    0.73890    1.000
    H85      H        0.94430    0.77580    0.73480    1.000
    C157     C        0.83820    0.80000    0.78680    1.000
    H86      H        0.86590    0.80310    0.81220    1.000
    C158     C        0.79480    0.75450    0.78630    1.000
    C159     C        0.79380    0.70960    0.82460    1.000
    C160     C        0.85070    0.68690    0.84210    1.000
    H87      H        0.88830    0.69950    0.82840    1.000
    C161     C        0.85040    0.64650    0.87930    1.000
    H88      H        0.88780    0.63360    0.89290    1.000
    C162     C        0.79550    0.62530    0.89620    1.000
    C163     C        0.73770    0.64560    0.87780    1.000
    H89      H        0.70020    0.63070    0.89010    1.000
    C164     C        0.73850    0.68630    0.84260    1.000
    H90      H        0.70090    0.69960    0.82950    1.000
    C165     C        0.79370    0.58080    0.93660    1.000
    O31      O        0.15490    0.43590    0.95100    1.000
    O32      O        0.25810    0.43580    0.95110    1.000
    C166     C        0.04930    0.12760    0.74640    1.000
    C167     C        0.02990    0.18970    0.73890    1.000
    H91      H        0.05570    0.22420    0.73480    1.000
    C168     C        0.16180    0.20000    0.78680    1.000
    H92      H        0.13410    0.19690    0.81220    1.000
    C169     C        0.20520    0.24550    0.78630    1.000
    C170     C        0.20620    0.29040    0.82460    1.000
    C171     C        0.14930    0.31310    0.84210    1.000
    H93      H        0.11170    0.30050    0.82840    1.000
    C172     C        0.14960    0.35350    0.87930    1.000
    H94      H        0.11220    0.36640    0.89290    1.000
    C173     C        0.20450    0.37470    0.89620    1.000
    C174     C        0.26230    0.35440    0.87780    1.000
    H95      H        0.29980    0.36930    0.89010    1.000
    C175     C        0.26150    0.31370    0.84260    1.000
    H96      H        0.29910    0.30040    0.82950    1.000
    C176     C        0.20630    0.41920    0.93660    1.000
    Co1      Co       0.00000    0.00000    0.25000    1.000
    Co2      Co       0.00000    0.00000    0.75000    1.000
    Co3      Co       0.50000    0.13862    0.50000    1.000
    Co4      Co       0.50000    0.27216    0.50000    1.000
    O33      O        0.50000    0.04810    0.50000    1.000
    Co5      Co       0.50000    0.86138    0.50000    1.000
    Co6      Co       0.50000    0.72784    0.50000    1.000
    O34      O        0.50000    0.95190    0.50000    1.000
    Co7      Co       0.86138    0.50000    0.00000    1.000
    Co8      Co       0.72784    0.50000    0.00000    1.000
    O35      O        0.95190    0.50000    0.00000    1.000
    Co9      Co       0.13862    0.50000    0.00000    1.000
    Co10     Co       0.27216    0.50000    0.00000    1.000
    O36      O        0.04810    0.50000    0.00000    1.000
    N1       N        0.09040    0.00000    0.24870    1.000
    N2       N        0.90960    0.00000    0.24870    1.000
    N3       N        0.00000    0.09040    0.74870    1.000
    N4       N        0.00000    0.90960    0.74870    1.000
    N5       N        0.90960    0.00000    0.75130    1.000
    N6       N        0.09040    0.00000    0.75130    1.000
    N7       N        0.00000    0.09040    0.25130    1.000
    N8       N        0.00000    0.90960    0.25130    1.000
    C177     C        0.50000    0.00000    0.50000    1.000
    C178     C        0.00000    0.50000    0.00000    1.000
    C179     C        0.10890    0.10890    0.25000    1.000
    C180     C        0.15840    0.15840    0.25000    1.000
    C181     C        0.24790    0.24790    0.25000    1.000
    H97      H        0.27860    0.27860    0.25000    1.000
    C182     C        0.89110    0.89110    0.25000    1.000
    C183     C        0.84160    0.84160    0.25000    1.000
    C184     C        0.75210    0.75210    0.25000    1.000
    H98      H        0.72140    0.72140    0.25000    1.000
    C185     C        0.89110    0.10890    0.75000    1.000
    C186     C        0.84160    0.15840    0.75000    1.000
    C187     C        0.75210    0.24790    0.75000    1.000
    H99      H        0.72140    0.27860    0.75000    1.000
    C188     C        0.10890    0.89110    0.75000    1.000
    C189     C        0.15840    0.84160    0.75000    1.000
    C190     C        0.24790    0.75210    0.75000    1.000
    H100     H        0.27860    0.72140    0.75000    1.000
    C191     C        0.89110    0.89110    0.75000    1.000
    C192     C        0.84160    0.84160    0.75000    1.000
    C193     C        0.75210    0.75210    0.75000    1.000
    H101     H        0.72140    0.72140    0.75000    1.000
    C194     C        0.10890    0.10890    0.75000    1.000
    C195     C        0.15840    0.15840    0.75000    1.000
    C196     C        0.24790    0.24790    0.75000    1.000
    H102     H        0.27860    0.27860    0.75000    1.000
    C197     C        0.10890    0.89110    0.25000    1.000
    C198     C        0.15840    0.84160    0.25000    1.000
    C199     C        0.24790    0.75210    0.25000    1.000
    H103     H        0.27860    0.72140    0.25000    1.000
    C200     C        0.89110    0.10890    0.25000    1.000
    C201     C        0.84160    0.15840    0.25000    1.000
    C202     C        0.75210    0.24790    0.25000    1.000
    H104     H        0.72140    0.27860    0.25000    1.000
