# CIF file generated by openbabel 3.1.0, see https://openbabel.org
data_I
_chemical_name_common 'image0'
_cell_length_a 30.317
_cell_length_b 21.295
_cell_length_c 13.384
_cell_angle_alpha 90
_cell_angle_beta 114.19
_cell_angle_gamma 90
_space_group_name_H-M_alt 'P 1'
_space_group_name_Hall 'P 1'
loop_
    _symmetry_equiv_pos_as_xyz
    x,y,z
loop_
    _atom_site_label
    _atom_site_type_symbol
    _atom_site_fract_x
    _atom_site_fract_y
    _atom_site_fract_z
    _atom_site_occupancy
    Mo1      Mo       0.22533    0.21006    0.37697    1.000
    Mo2      Mo       0.08569    0.15243    0.09841    1.000
    Mo3      Mo       0.33133    0.29776    0.46393    1.000
    Mo4      Mo       0.12530    0.29944    0.26348    1.000
    Mo5      Mo       0.22890    0.36950    0.32448    1.000
    Na1      Na       0.17790    0.03440    0.25830    1.000
    Na2      Na       0.23370    0.96490    0.50100    1.000
    Na3      Na       0.14190    0.37110    0.00840    1.000
    Na4      Na       0.39340    0.23210    0.26590    1.000
    O1       O        0.98080    0.29090    0.93470    1.000
    O2       O        0.28425    0.20930    0.38320    1.000
    O3       O        0.20140    0.14100    0.31470    1.000
    O4       O        0.10630    0.21430    0.20000    1.000
    O5       O        0.10500    0.33360    0.13690    1.000
    O6       O        0.19723    0.27170    0.26760    1.000
    O7       O        0.25893    0.30779    0.47040    1.000
    O8       O        0.09878    0.08680    0.17620    1.000
    O9       O        0.20690    0.39400    0.19060    1.000
    O10      O        0.16506    0.24210    0.40700    1.000
    O11      O        0.03399    0.10140    0.96700    1.000
    O12      O        0.16919    0.36540    0.34360    1.000
    O13      O        0.25180    0.43500    0.40030    1.000
    O14      O        0.28721    0.33230    0.32460    1.000
    O15      O        0.37316    0.25940    0.43030    1.000
    O16      O        0.96270    0.05460    0.89040    1.000
    O17      O        0.04206    0.22400    0.98540    1.000
    O18      O        0.15450    0.01880    0.39880    1.000
    O19      O        0.25680    0.00440    0.37050    1.000
    O20      O        0.19970    0.06370    0.11070    1.000
    O21      O        0.31470    0.92170    0.59700    1.000
    O22      O        0.08740    0.30450    0.88400    1.000
    N1       N        0.01221    0.15960    0.12040    1.000
    C1       C        0.00470    0.24770    0.99320    1.000
    C2       C        0.99080    0.22190    0.07910    1.000
    H1       H        0.00080    0.25110    0.13990    1.000
    H2       H        0.95580    0.21840    0.04950    1.000
    C3       C        0.98160    0.10550    0.05880    1.000
    H3       H        0.98720    0.07010    0.10820    1.000
    H4       H        0.94780    0.11710    0.03270    1.000
    C4       C        0.99200    0.08590    0.96350    1.000
    C5       C        0.02270    0.15400    0.23930    1.000
    H5       H        0.04320    0.18870    0.27850    1.000
    H6       H        0.04040    0.11540    0.26760    1.000
    Mo6      Mo       0.72533    0.71006    0.37697    1.000
    Mo7      Mo       0.58569    0.65243    0.09841    1.000
    Mo8      Mo       0.83133    0.79776    0.46393    1.000
    Mo9      Mo       0.62530    0.79944    0.26348    1.000
    Mo10     Mo       0.72890    0.86950    0.32448    1.000
    Na5      Na       0.67790    0.53440    0.25830    1.000
    Na6      Na       0.73370    0.46490    0.50100    1.000
    Na7      Na       0.64190    0.87110    0.00840    1.000
    Na8      Na       0.89340    0.73210    0.26590    1.000
    O23      O        0.48080    0.79090    0.93470    1.000
    O24      O        0.78425    0.70930    0.38320    1.000
    O25      O        0.70140    0.64100    0.31470    1.000
    O26      O        0.60630    0.71430    0.20000    1.000
    O27      O        0.60500    0.83360    0.13690    1.000
    O28      O        0.69723    0.77170    0.26760    1.000
    O29      O        0.75893    0.80779    0.47040    1.000
    O30      O        0.59878    0.58680    0.17620    1.000
    O31      O        0.70690    0.89400    0.19060    1.000
    O32      O        0.66506    0.74210    0.40700    1.000
    O33      O        0.53399    0.60140    0.96700    1.000
    O34      O        0.66919    0.86540    0.34360    1.000
    O35      O        0.75180    0.93500    0.40030    1.000
    O36      O        0.78721    0.83230    0.32460    1.000
    O37      O        0.87316    0.75940    0.43030    1.000
    O38      O        0.46270    0.55460    0.89040    1.000
    O39      O        0.54206    0.72400    0.98540    1.000
    O40      O        0.65450    0.51880    0.39880    1.000
    O41      O        0.75680    0.50440    0.37050    1.000
    O42      O        0.69970    0.56370    0.11070    1.000
    O43      O        0.81470    0.42170    0.59700    1.000
    O44      O        0.58740    0.80450    0.88400    1.000
    N2       N        0.51221    0.65960    0.12040    1.000
    C6       C        0.50470    0.74770    0.99320    1.000
    C7       C        0.49080    0.72190    0.07910    1.000
    H7       H        0.50080    0.75110    0.13990    1.000
    H8       H        0.45580    0.71840    0.04950    1.000
    C8       C        0.48160    0.60550    0.05880    1.000
    H9       H        0.48720    0.57010    0.10820    1.000
    H10      H        0.44780    0.61710    0.03270    1.000
    C9       C        0.49200    0.58590    0.96350    1.000
    C10      C        0.52270    0.65400    0.23930    1.000
    H11      H        0.54320    0.68870    0.27850    1.000
    H12      H        0.54040    0.61540    0.26760    1.000
    Mo11     Mo       0.77467    0.21006    0.12303    1.000
    Mo12     Mo       0.91431    0.15243    0.40159    1.000
    Mo13     Mo       0.66867    0.29776    0.03607    1.000
    Mo14     Mo       0.87470    0.29944    0.23652    1.000
    Mo15     Mo       0.77110    0.36950    0.17552    1.000
    Na9      Na       0.82210    0.03440    0.24170    1.000
    Na10     Na       0.76630    0.96490    0.99900    1.000
    Na11     Na       0.85810    0.37110    0.49160    1.000
    Na12     Na       0.60660    0.23210    0.23410    1.000
    O45      O        0.01920    0.29090    0.56530    1.000
    O46      O        0.71575    0.20930    0.11680    1.000
    O47      O        0.79860    0.14100    0.18530    1.000
    O48      O        0.89370    0.21430    0.30000    1.000
    O49      O        0.89500    0.33360    0.36310    1.000
    O50      O        0.80277    0.27170    0.23240    1.000
    O51      O        0.74107    0.30779    0.02960    1.000
    O52      O        0.90122    0.08680    0.32380    1.000
    O53      O        0.79310    0.39400    0.30940    1.000
    O54      O        0.83494    0.24210    0.09300    1.000
    O55      O        0.96601    0.10140    0.53300    1.000
    O56      O        0.83081    0.36540    0.15640    1.000
    O57      O        0.74820    0.43500    0.09970    1.000
    O58      O        0.71279    0.33230    0.17540    1.000
    O59      O        0.62684    0.25940    0.06970    1.000
    O60      O        0.03730    0.05460    0.60960    1.000
    O61      O        0.95794    0.22400    0.51460    1.000
    O62      O        0.84550    0.01880    0.10120    1.000
    O63      O        0.74320    0.00440    0.12950    1.000
    O64      O        0.80030    0.06370    0.38930    1.000
    O65      O        0.68530    0.92170    0.90300    1.000
    O66      O        0.91260    0.30450    0.61600    1.000
    N3       N        0.98779    0.15960    0.37960    1.000
    C11      C        0.99530    0.24770    0.50680    1.000
    C12      C        0.00920    0.22190    0.42090    1.000
    H13      H        0.99920    0.25110    0.36010    1.000
    H14      H        0.04420    0.21840    0.45050    1.000
    C13      C        0.01840    0.10550    0.44120    1.000
    H15      H        0.01280    0.07010    0.39180    1.000
    H16      H        0.05220    0.11710    0.46730    1.000
    C14      C        0.00800    0.08590    0.53650    1.000
    C15      C        0.97730    0.15400    0.26070    1.000
    H17      H        0.95680    0.18870    0.22150    1.000
    H18      H        0.95960    0.11540    0.23240    1.000
    Mo16     Mo       0.27467    0.71006    0.12303    1.000
    Mo17     Mo       0.41431    0.65243    0.40159    1.000
    Mo18     Mo       0.16867    0.79776    0.03607    1.000
    Mo19     Mo       0.37470    0.79944    0.23652    1.000
    Mo20     Mo       0.27110    0.86950    0.17552    1.000
    Na13     Na       0.32210    0.53440    0.24170    1.000
    Na14     Na       0.26630    0.46490    0.99900    1.000
    Na15     Na       0.35810    0.87110    0.49160    1.000
    Na16     Na       0.10660    0.73210    0.23410    1.000
    O67      O        0.51920    0.79090    0.56530    1.000
    O68      O        0.21575    0.70930    0.11680    1.000
    O69      O        0.29860    0.64100    0.18530    1.000
    O70      O        0.39370    0.71430    0.30000    1.000
    O71      O        0.39500    0.83360    0.36310    1.000
    O72      O        0.30277    0.77170    0.23240    1.000
    O73      O        0.24107    0.80779    0.02960    1.000
    O74      O        0.40122    0.58680    0.32380    1.000
    O75      O        0.29310    0.89400    0.30940    1.000
    O76      O        0.33494    0.74210    0.09300    1.000
    O77      O        0.46601    0.60140    0.53300    1.000
    O78      O        0.33081    0.86540    0.15640    1.000
    O79      O        0.24820    0.93500    0.09970    1.000
    O80      O        0.21279    0.83230    0.17540    1.000
    O81      O        0.12684    0.75940    0.06970    1.000
    O82      O        0.53730    0.55460    0.60960    1.000
    O83      O        0.45794    0.72400    0.51460    1.000
    O84      O        0.34550    0.51880    0.10120    1.000
    O85      O        0.24320    0.50440    0.12950    1.000
    O86      O        0.30030    0.56370    0.38930    1.000
    O87      O        0.18530    0.42170    0.90300    1.000
    O88      O        0.41260    0.80450    0.61600    1.000
    N4       N        0.48779    0.65960    0.37960    1.000
    C16      C        0.49530    0.74770    0.50680    1.000
    C17      C        0.50920    0.72190    0.42090    1.000
    H19      H        0.49920    0.75110    0.36010    1.000
    H20      H        0.54420    0.71840    0.45050    1.000
    C18      C        0.51840    0.60550    0.44120    1.000
    H21      H        0.51280    0.57010    0.39180    1.000
    H22      H        0.55220    0.61710    0.46730    1.000
    C19      C        0.50800    0.58590    0.53650    1.000
    C20      C        0.47730    0.65400    0.26070    1.000
    H23      H        0.45680    0.68870    0.22150    1.000
    H24      H        0.45960    0.61540    0.23240    1.000
    Mo21     Mo       0.77467    0.78994    0.62303    1.000
    Mo22     Mo       0.91431    0.84757    0.90159    1.000
    Mo23     Mo       0.66867    0.70224    0.53607    1.000
    Mo24     Mo       0.87470    0.70056    0.73652    1.000
    Mo25     Mo       0.77110    0.63050    0.67552    1.000
    Na17     Na       0.82210    0.96560    0.74170    1.000
    Na18     Na       0.76630    0.03510    0.49900    1.000
    Na19     Na       0.85810    0.62890    0.99160    1.000
    Na20     Na       0.60660    0.76790    0.73410    1.000
    O89      O        0.01920    0.70910    0.06530    1.000
    O90      O        0.71575    0.79070    0.61680    1.000
    O91      O        0.79860    0.85900    0.68530    1.000
    O92      O        0.89370    0.78570    0.80000    1.000
    O93      O        0.89500    0.66640    0.86310    1.000
    O94      O        0.80277    0.72830    0.73240    1.000
    O95      O        0.74107    0.69221    0.52960    1.000
    O96      O        0.90122    0.91320    0.82380    1.000
    O97      O        0.79310    0.60600    0.80940    1.000
    O98      O        0.83494    0.75790    0.59300    1.000
    O99      O        0.96601    0.89860    0.03300    1.000
    O100     O        0.83081    0.63460    0.65640    1.000
    O101     O        0.74820    0.56500    0.59970    1.000
    O102     O        0.71279    0.66770    0.67540    1.000
    O103     O        0.62684    0.74060    0.56970    1.000
    O104     O        0.03730    0.94540    0.10960    1.000
    O105     O        0.95794    0.77600    0.01460    1.000
    O106     O        0.84550    0.98120    0.60120    1.000
    O107     O        0.74320    0.99560    0.62950    1.000
    O108     O        0.80030    0.93630    0.88930    1.000
    O109     O        0.68530    0.07830    0.40300    1.000
    O110     O        0.91260    0.69550    0.11600    1.000
    N5       N        0.98779    0.84040    0.87960    1.000
    C21      C        0.99530    0.75230    0.00680    1.000
    C22      C        0.00920    0.77810    0.92090    1.000
    H25      H        0.99920    0.74890    0.86010    1.000
    H26      H        0.04420    0.78160    0.95050    1.000
    C23      C        0.01840    0.89450    0.94120    1.000
    H27      H        0.01280    0.92990    0.89180    1.000
    H28      H        0.05220    0.88290    0.96730    1.000
    C24      C        0.00800    0.91410    0.03650    1.000
    C25      C        0.97730    0.84600    0.76070    1.000
    H29      H        0.95680    0.81130    0.72150    1.000
    H30      H        0.95960    0.88460    0.73240    1.000
    Mo26     Mo       0.27467    0.28994    0.62303    1.000
    Mo27     Mo       0.41431    0.34757    0.90159    1.000
    Mo28     Mo       0.16867    0.20224    0.53607    1.000
    Mo29     Mo       0.37470    0.20056    0.73652    1.000
    Mo30     Mo       0.27110    0.13050    0.67552    1.000
    Na21     Na       0.32210    0.46560    0.74170    1.000
    Na22     Na       0.26630    0.53510    0.49900    1.000
    Na23     Na       0.35810    0.12890    0.99160    1.000
    Na24     Na       0.10660    0.26790    0.73410    1.000
    O111     O        0.51920    0.20910    0.06530    1.000
    O112     O        0.21575    0.29070    0.61680    1.000
    O113     O        0.29860    0.35900    0.68530    1.000
    O114     O        0.39370    0.28570    0.80000    1.000
    O115     O        0.39500    0.16640    0.86310    1.000
    O116     O        0.30277    0.22830    0.73240    1.000
    O117     O        0.24107    0.19221    0.52960    1.000
    O118     O        0.40122    0.41320    0.82380    1.000
    O119     O        0.29310    0.10600    0.80940    1.000
    O120     O        0.33494    0.25790    0.59300    1.000
    O121     O        0.46601    0.39860    0.03300    1.000
    O122     O        0.33081    0.13460    0.65640    1.000
    O123     O        0.24820    0.06500    0.59970    1.000
    O124     O        0.21279    0.16770    0.67540    1.000
    O125     O        0.12684    0.24060    0.56970    1.000
    O126     O        0.53730    0.44540    0.10960    1.000
    O127     O        0.45794    0.27600    0.01460    1.000
    O128     O        0.34550    0.48120    0.60120    1.000
    O129     O        0.24320    0.49560    0.62950    1.000
    O130     O        0.30030    0.43630    0.88930    1.000
    O131     O        0.18530    0.57830    0.40300    1.000
    O132     O        0.41260    0.19550    0.11600    1.000
    N6       N        0.48779    0.34040    0.87960    1.000
    C26      C        0.49530    0.25230    0.00680    1.000
    C27      C        0.50920    0.27810    0.92090    1.000
    H31      H        0.49920    0.24890    0.86010    1.000
    H32      H        0.54420    0.28160    0.95050    1.000
    C28      C        0.51840    0.39450    0.94120    1.000
    H33      H        0.51280    0.42990    0.89180    1.000
    H34      H        0.55220    0.38290    0.96730    1.000
    C29      C        0.50800    0.41410    0.03650    1.000
    C30      C        0.47730    0.34600    0.76070    1.000
    H35      H        0.45680    0.31130    0.72150    1.000
    H36      H        0.45960    0.38460    0.73240    1.000
    Mo31     Mo       0.22533    0.78994    0.87697    1.000
    Mo32     Mo       0.08569    0.84757    0.59841    1.000
    Mo33     Mo       0.33133    0.70224    0.96393    1.000
    Mo34     Mo       0.12530    0.70056    0.76348    1.000
    Mo35     Mo       0.22890    0.63050    0.82448    1.000
    Na25     Na       0.17790    0.96560    0.75830    1.000
    Na26     Na       0.23370    0.03510    0.00100    1.000
    Na27     Na       0.14190    0.62890    0.50840    1.000
    Na28     Na       0.39340    0.76790    0.76590    1.000
    O133     O        0.98080    0.70910    0.43470    1.000
    O134     O        0.28425    0.79070    0.88320    1.000
    O135     O        0.20140    0.85900    0.81470    1.000
    O136     O        0.10630    0.78570    0.70000    1.000
    O137     O        0.10500    0.66640    0.63690    1.000
    O138     O        0.19723    0.72830    0.76760    1.000
    O139     O        0.25893    0.69221    0.97040    1.000
    O140     O        0.09878    0.91320    0.67620    1.000
    O141     O        0.20690    0.60600    0.69060    1.000
    O142     O        0.16506    0.75790    0.90700    1.000
    O143     O        0.03399    0.89860    0.46700    1.000
    O144     O        0.16919    0.63460    0.84360    1.000
    O145     O        0.25180    0.56500    0.90030    1.000
    O146     O        0.28721    0.66770    0.82460    1.000
    O147     O        0.37316    0.74060    0.93030    1.000
    O148     O        0.96270    0.94540    0.39040    1.000
    O149     O        0.04206    0.77600    0.48540    1.000
    O150     O        0.15450    0.98120    0.89880    1.000
    O151     O        0.25680    0.99560    0.87050    1.000
    O152     O        0.19970    0.93630    0.61070    1.000
    O153     O        0.31470    0.07830    0.09700    1.000
    O154     O        0.08740    0.69550    0.38400    1.000
    N7       N        0.01221    0.84040    0.62040    1.000
    C31      C        0.00470    0.75230    0.49320    1.000
    C32      C        0.99080    0.77810    0.57910    1.000
    H37      H        0.00080    0.74890    0.63990    1.000
    H38      H        0.95580    0.78160    0.54950    1.000
    C33      C        0.98160    0.89450    0.55880    1.000
    H39      H        0.98720    0.92990    0.60820    1.000
    H40      H        0.94780    0.88290    0.53270    1.000
    C34      C        0.99200    0.91410    0.46350    1.000
    C35      C        0.02270    0.84600    0.73930    1.000
    H41      H        0.04320    0.81130    0.77850    1.000
    H42      H        0.04040    0.88460    0.76760    1.000
    Mo36     Mo       0.72533    0.28994    0.87697    1.000
    Mo37     Mo       0.58569    0.34757    0.59841    1.000
    Mo38     Mo       0.83133    0.20224    0.96393    1.000
    Mo39     Mo       0.62530    0.20056    0.76348    1.000
    Mo40     Mo       0.72890    0.13050    0.82448    1.000
    Na29     Na       0.67790    0.46560    0.75830    1.000
    Na30     Na       0.73370    0.53510    0.00100    1.000
    Na31     Na       0.64190    0.12890    0.50840    1.000
    Na32     Na       0.89340    0.26790    0.76590    1.000
    O155     O        0.48080    0.20910    0.43470    1.000
    O156     O        0.78425    0.29070    0.88320    1.000
    O157     O        0.70140    0.35900    0.81470    1.000
    O158     O        0.60630    0.28570    0.70000    1.000
    O159     O        0.60500    0.16640    0.63690    1.000
    O160     O        0.69723    0.22830    0.76760    1.000
    O161     O        0.75893    0.19221    0.97040    1.000
    O162     O        0.59878    0.41320    0.67620    1.000
    O163     O        0.70690    0.10600    0.69060    1.000
    O164     O        0.66506    0.25790    0.90700    1.000
    O165     O        0.53399    0.39860    0.46700    1.000
    O166     O        0.66919    0.13460    0.84360    1.000
    O167     O        0.75180    0.06500    0.90030    1.000
    O168     O        0.78721    0.16770    0.82460    1.000
    O169     O        0.87316    0.24060    0.93030    1.000
    O170     O        0.46270    0.44540    0.39040    1.000
    O171     O        0.54206    0.27600    0.48540    1.000
    O172     O        0.65450    0.48120    0.89880    1.000
    O173     O        0.75680    0.49560    0.87050    1.000
    O174     O        0.69970    0.43630    0.61070    1.000
    O175     O        0.81470    0.57830    0.09700    1.000
    O176     O        0.58740    0.19550    0.38400    1.000
    N8       N        0.51221    0.34040    0.62040    1.000
    C36      C        0.50470    0.25230    0.49320    1.000
    C37      C        0.49080    0.27810    0.57910    1.000
    H43      H        0.50080    0.24890    0.63990    1.000
    H44      H        0.45580    0.28160    0.54950    1.000
    C38      C        0.48160    0.39450    0.55880    1.000
    H45      H        0.48720    0.42990    0.60820    1.000
    H46      H        0.44780    0.38290    0.53270    1.000
    C39      C        0.49200    0.41410    0.46350    1.000
    C40      C        0.52270    0.34600    0.73930    1.000
    H47      H        0.54320    0.31130    0.77850    1.000
    H48      H        0.54040    0.38460    0.76760    1.000
