data_functionalizedCrystal
_audit_creation_method	'EQeq! by Chris Wilmer'
_symmetry_space_group_name_H-M	'P1'
_symmetry_Int_Tables_number	1
_symmetry_cell_setting	triclinic
loop_
_symmetry_equiv_pos_as_xyz
  x,y,z
_cell_length_a	9.076
_cell_length_b	9.867
_cell_length_c	16.303
_cell_angle_alpha	103.349
_cell_angle_beta	104.11
_cell_angle_gamma	98.526
loop_
_atom_site_label
_atom_site_type_symbol
_atom_site_fract_x
_atom_site_fract_y
_atom_site_fract_z
_atom_site_charge
Mof_La	La	0.69213	0.45144	0.59811	1.982
Mof_La	La	0.84842	0.4267	0.86433	2.16
Mof_O 	O 	0.6981	0.2153	0.7428	-0.565
Mof_O 	O 	0.5332	0.258	0.6325	-0.573
Mof_O 	O 	0.7621	0.7253	0.64299	-0.489
Mof_O 	O 	0.5595	0.642	0.52672	-0.615
Mof_O 	O 	0.7584	0.244	0.94335	-0.473
Mof_O 	O 	0.5833	0.3571	0.8898	-0.488
Mof_O 	O 	0.1082	0.4269	0.97591	-0.668
Mof_O 	O 	0.0446	0.2608	0.85126	-0.477
Mof_O 	O 	0.6818	0.5521	0.7778	-0.636
Mof_O 	O 	0.486	0.5471	0.66773	-0.49
Mof_O 	O 	0.9242	0.4445	0.7257	-0.666
Mof_O 	O 	0.0021	0.5417	0.63185	-0.493
Mof_C 	C 	0.5718	0.1837	0.6833	0.609
Mof_C 	C 	0.4583	0.0484	0.6722	-0.682
Mof_H 	H 	0.3774	0.0275	0.6169	0.21
Mof_H 	H 	0.4095	0.0631	0.7193	0.228
Mof_C 	C 	0.5334	0.9209	0.6728	0.448
Mof_H 	H 	0.6093	0.9386	0.7296	-0.104
Mof_H 	H 	0.4543	0.8374	0.6649	-0.128
Mof_C 	C 	0.613	0.8914	0.601	-0.636
Mof_H 	H 	0.5459	0.8973	0.5463	0.18
Mof_H 	H 	0.7087	0.9625	0.6168	0.209
Mof_C 	C 	0.6486	0.7455	0.5888	0.544
Mof_C 	C 	0.6177	0.2572	0.9198	0.45
Mof_C 	C 	0.4925	0.1436	0.9256	-0.537
Mof_H 	H 	0.5125	0.1417	0.9865	0.174
Mof_H 	H 	0.5005	0.0517	0.8917	0.179
Mof_C 	C 	0.3257	0.1624	0.8929	0.345
Mof_H 	H 	0.3114	0.1844	0.8369	-0.072
Mof_H 	H 	0.2535	0.0734	0.8835	-0.081
Mof_C 	C 	0.2889	0.28	0.9575	-0.562
Mof_H 	H 	0.2874	0.2497	0.0099	0.159
Mof_H 	H 	0.3726	0.3636	0.9747	0.185
Mof_C 	C 	0.1385	0.3222	0.9249	0.517
Mof_C 	C 	0.55	0.5787	0.7489	0.579
Mof_C 	C 	0.4742	0.653	0.8133	-0.639
Mof_H 	H 	0.5339	0.7501	0.8404	0.199
Mof_H 	H 	0.4795	0.6056	0.8595	0.198
Mof_C 	C 	0.3051	0.6579	0.7745	0.416
Mof_H 	H 	0.2953	0.6926	0.7228	-0.091
Mof_H 	H 	0.2725	0.7233	0.8173	-0.122
Mof_C 	C 	0.1998	0.5092	0.749	-0.618
Mof_H 	H 	0.2422	0.442	0.7129	0.213
Mof_H 	H 	0.2011	0.4804	0.8021	0.186
Mof_C 	C 	0.0342	0.501	0.6998	0.535
Mof_La	La	0.30787	0.54856	0.40189	1.982
Mof_La	La	0.15158	0.5733	0.13567	2.16
Mof_O 	O 	0.3019	0.7847	0.2572	-0.565
Mof_O 	O 	0.4668	0.742	0.3675	-0.573
Mof_O 	O 	0.2379	0.2747	0.35701	-0.489
Mof_O 	O 	0.4405	0.358	0.47328	-0.615
Mof_O 	O 	0.2416	0.756	0.05665	-0.473
Mof_O 	O 	0.4167	0.6429	0.1102	-0.488
Mof_O 	O 	0.8918	0.5731	0.02409	-0.668
Mof_O 	O 	0.9554	0.7392	0.14874	-0.477
Mof_O 	O 	0.3182	0.4479	0.2222	-0.636
Mof_O 	O 	0.514	0.4529	0.33227	-0.49
Mof_O 	O 	0.0758	0.5555	0.2743	-0.666
Mof_O 	O 	0.9979	0.4583	0.36815	-0.493
Mof_C 	C 	0.4282	0.8163	0.3167	0.609
Mof_C 	C 	0.5417	0.9516	0.3278	-0.682
Mof_H 	H 	0.6226	0.9725	0.3831	0.21
Mof_H 	H 	0.5905	0.9369	0.2807	0.228
Mof_C 	C 	0.4666	0.0791	0.3272	0.448
Mof_H 	H 	0.3907	0.0614	0.2704	-0.104
Mof_H 	H 	0.5457	0.1626	0.3351	-0.128
Mof_C 	C 	0.387	0.1086	0.399	-0.636
Mof_H 	H 	0.4541	0.1027	0.4537	0.18
Mof_H 	H 	0.2913	0.0375	0.3832	0.209
Mof_C 	C 	0.3514	0.2545	0.4112	0.544
Mof_C 	C 	0.3823	0.7428	0.0802	0.45
Mof_C 	C 	0.5075	0.8564	0.0744	-0.537
Mof_H 	H 	0.4875	0.8583	0.0135	0.174
Mof_H 	H 	0.4995	0.9483	0.1083	0.179
Mof_C 	C 	0.6743	0.8376	0.1071	0.345
Mof_H 	H 	0.6886	0.8156	0.1631	-0.072
Mof_H 	H 	0.7465	0.9266	0.1165	-0.081
Mof_C 	C 	0.7111	0.72	0.0425	-0.562
Mof_H 	H 	0.7126	0.7503	0.9901	0.159
Mof_H 	H 	0.6274	0.6364	0.0253	0.185
Mof_C 	C 	0.8615	0.6778	0.0751	0.517
Mof_C 	C 	0.45	0.4213	0.2511	0.579
Mof_C 	C 	0.5258	0.347	0.1867	-0.639
Mof_H 	H 	0.4661	0.2499	0.1596	0.199
Mof_H 	H 	0.5205	0.3944	0.1405	0.198
Mof_C 	C 	0.6949	0.3421	0.2255	0.416
Mof_H 	H 	0.7047	0.3074	0.2772	-0.091
Mof_H 	H 	0.7275	0.2767	0.1827	-0.122
Mof_C 	C 	0.8002	0.4908	0.251	-0.618
Mof_H 	H 	0.7578	0.558	0.2871	0.213
Mof_H 	H 	0.7989	0.5196	0.1979	0.186
Mof_C 	C 	0.9658	0.499	0.3002	0.535
_end
