data_functionalizedCrystal
_audit_creation_method	'EQeq! by Chris Wilmer'
_symmetry_space_group_name_H-M	'P1'
_symmetry_Int_Tables_number	1
_symmetry_cell_setting	triclinic
loop_
_symmetry_equiv_pos_as_xyz
  x,y,z
_cell_length_a	27.934
_cell_length_b	27.934
_cell_length_c	28.4968
_cell_angle_alpha	60.6511
_cell_angle_beta	60.6511
_cell_angle_gamma	89.9999
loop_
_atom_site_label
_atom_site_type_symbol
_atom_site_fract_x
_atom_site_fract_y
_atom_site_fract_z
_atom_site_charge
Mof_Cu	Cu	0.03891	0.31187	0.72554	0.907
Mof_Cu	Cu	0.23555	0.96259	0.72554	0.909
Mof_Cu	Cu	0.92643	0.7241	-0	0.909
Mof_Cu	Cu	0.94986	0.58477	0.36432	0.907
Mof_Cu	Cu	0.96109	0.68813	0.27446	0.908
Mof_Cu	Cu	0.68813	0.76445	0.27446	0.907
Mof_Cu	Cu	0.68582	0.05091	0.36432	0.905
Mof_Cu	Cu	0.36792	0.90416	-0	0.88
Mof_Cu	Cu	0.31418	0.94909	0.63568	0.906
Mof_Cu	Cu	0.96259	0.03891	0.72554	0.906
Mof_Cu	Cu	0.90416	0.63208	-0	0.879
Mof_Cu	Cu	0.63208	0.09584	-0	0.879
Mof_Cu	Cu	0.58477	0.68582	0.36432	0.905
Mof_Cu	Cu	0.31187	0.23555	0.72554	0.907
Mof_Cu	Cu	0.76445	0.03741	0.27446	0.905
Mof_Cu	Cu	0.7241	0.07357	-0	0.907
Mof_Cu	Cu	0.07357	0.2759	-0	0.907
Mof_Cu	Cu	0.2759	0.92643	-0	0.908
Mof_Cu	Cu	0.05014	0.41523	0.63568	0.904
Mof_Cu	Cu	0.09584	0.36792	-0	0.879
Mof_Cu	Cu	0.03741	0.96109	0.27446	0.905
Mof_Cu	Cu	0.41523	0.31418	0.63568	0.905
Mof_Cu	Cu	0.05091	0.94986	0.36432	0.904
Mof_Cu	Cu	0.94909	0.05014	0.63568	0.904
Mof_H 	H 	0.2388	0.4876	0.51	0.094
Mof_H 	H 	0.4937	0.2406	0.7422	0.101
Mof_H 	H 	0.0883	0.1483	0.1516	0.072
Mof_H 	H 	0.9548	0.6234	0.489	0.082
Mof_H 	H 	0.8684	0.9812	0.3468	0.073
Mof_H 	H 	0.8876	0.9548	0.489	0.082
Mof_H 	H 	0.2844	0.7284	0.165	0.091
Mof_H 	H 	0.8027	0.0587	0.84	0.075
Mof_H 	H 	0.5124	0.7488	0.49	0.095
Mof_H 	H 	0.162	0.615	0.837	0.141
Mof_H 	H 	0.548	0.162	0.837	0.141
Mof_H 	H 	0.6144	0.4621	0.5562	0.136
Mof_H 	H 	0.5215	0.9166	0.1188	0.071
Mof_H 	H 	0.7156	0.2716	0.835	0.101
Mof_H 	H 	0.0877	0.1256	0.3036	0.08
Mof_H 	H 	0.7601	0.7001	0.1516	0.073
Mof_H 	H 	0.9812	0.7848	0.3468	0.073
Mof_H 	H 	0.7488	0.9976	0.49	0.097
Mof_H 	H 	0.9817	0.6144	0.5562	0.137
Mof_H 	H 	0.5708	0.0877	0.3036	0.08
Mof_H 	H 	0.7612	0.5124	0.49	0.095
Mof_H 	H 	0.0172	0.4937	0.7422	0.099
Mof_H 	H 	0.3913	0.4292	0.6964	0.084
Mof_H 	H 	0.0587	0.3573	0.84	0.075
Mof_H 	H 	0.1316	0.0188	0.6532	0.068
Mof_H 	H 	0.5063	0.7594	0.2578	0.097
Mof_H 	H 	0.3597	0.9646	0.1188	0.071
Mof_H 	H 	0.8934	0.7156	0.835	0.102
Mof_H 	H 	0.2512	0.0024	0.51	0.092
Mof_H 	H 	0.5506	0.1066	0.165	0.09
Mof_H 	H 	0.2359	0.9828	0.2578	0.098
Mof_H 	H 	0.0354	0.4785	0.8812	0.084
Mof_H 	H 	0.6427	0.8987	0.16	0.075
Mof_H 	H 	0.5877	0.4912	0.301	0.136
Mof_H 	H 	0.7641	0.0172	0.7422	0.099
Mof_H 	H 	0.7284	0.5506	0.165	0.091
Mof_H 	H 	0.452	0.838	0.163	0.13
Mof_H 	H 	0.6087	0.5708	0.3036	0.081
Mof_H 	H 	0.2078	0.5877	0.301	0.135
Mof_H 	H 	0.5379	0.1706	0.4438	0.134
Mof_H 	H 	0.7848	0.672	0.3468	0.07
Mof_H 	H 	0.8744	0.3913	0.6964	0.084
Mof_H 	H 	0.3573	0.1013	0.84	0.075
Mof_H 	H 	0.2999	0.9117	0.8484	0.078
Mof_H 	H 	0.5088	0.8887	0.699	0.141
Mof_H 	H 	0.6403	0.0354	0.8812	0.084
Mof_H 	H 	0.8887	0.7922	0.699	0.141
Mof_H 	H 	0.9828	0.5063	0.2578	0.099
Mof_H 	H 	0.3856	0.5379	0.4438	0.134
Mof_H 	H 	0.2406	0.7641	0.7422	0.101
Mof_H 	H 	0.0183	0.3856	0.4438	0.134
Mof_H 	H 	0.672	0.8684	0.3468	0.07
Mof_H 	H 	0.4621	0.8294	0.5562	0.136
Mof_H 	H 	0.838	0.385	0.163	0.13
Mof_H 	H 	0.1124	0.0452	0.511	0.078
Mof_H 	H 	0.1013	0.8027	0.84	0.075
Mof_H 	H 	0.8987	0.1973	0.16	0.074
Mof_H 	H 	0.9976	0.7612	0.49	0.097
Mof_H 	H 	0.4292	0.9123	0.6964	0.084
Mof_H 	H 	0.999	0.452	0.163	0.131
Mof_H 	H 	0.1256	0.6087	0.3036	0.08
Mof_H 	H 	0.9117	0.8517	0.8484	0.08
Mof_H 	H 	0.328	0.1316	0.6532	0.069
Mof_H 	H 	0.2152	0.328	0.6532	0.07
Mof_H 	H 	0.7922	0.4123	0.699	0.141
Mof_H 	H 	0.9646	0.5215	0.1188	0.071
Mof_H 	H 	0.615	0.001	0.837	0.14
Mof_H 	H 	0.3766	0.4438	0.511	0.08
Mof_H 	H 	0.9123	0.8744	0.6964	0.085
Mof_H 	H 	0.4494	0.8934	0.835	0.101
Mof_H 	H 	0.0452	0.3766	0.511	0.079
Mof_H 	H 	0.9413	0.6427	0.16	0.075
Mof_H 	H 	0.4785	0.0834	0.8812	0.084
Mof_H 	H 	0.2399	0.2999	0.8484	0.078
Mof_H 	H 	0.8517	0.2399	0.8484	0.079
Mof_H 	H 	0.7594	0.2359	0.2578	0.097
Mof_H 	H 	0.9166	0.3597	0.1188	0.07
Mof_H 	H 	0.385	0.999	0.163	0.131
Mof_H 	H 	0.1973	0.9413	0.16	0.074
Mof_H 	H 	0.4876	0.2512	0.51	0.094
Mof_H 	H 	0.1113	0.2078	0.301	0.135
Mof_H 	H 	0.0024	0.2388	0.51	0.092
Mof_H 	H 	0.7001	0.0883	0.1516	0.072
Mof_H 	H 	0.1066	0.2844	0.165	0.09
Mof_H 	H 	0.1706	0.0183	0.4438	0.133
Mof_H 	H 	0.001	0.548	0.837	0.14
Mof_H 	H 	0.4912	0.1113	0.301	0.135
Mof_H 	H 	0.4123	0.5088	0.699	0.14
Mof_H 	H 	0.5562	0.8876	0.489	0.081
Mof_H 	H 	0.4438	0.1124	0.511	0.079
Mof_H 	H 	0.0188	0.2152	0.6532	0.068
Mof_H 	H 	0.0834	0.6403	0.8812	0.084
Mof_H 	H 	0.1483	0.7601	0.1516	0.072
Mof_H 	H 	0.2716	0.4494	0.835	0.101
Mof_H 	H 	0.8294	0.9817	0.5562	0.137
Mof_H 	H 	0.6234	0.5562	0.489	0.081
Mof_C 	C 	0.92295	0.73224	0.7141	0.214
Mof_C 	C 	0.98981	0.74568	0.47042	-0.096
Mof_C 	C 	0.46023	0.2161	0.52958	-0.093
Mof_C 	C 	0.02161	0.49286	0.81186	0.135
Mof_C 	C 	0.47433	0.18503	0.50168	0.133
Mof_C 	C 	0.73224	0.36295	0.7141	0.213
Mof_C 	C 	0.73535	0.66235	0.1742	-0.015
Mof_C 	C 	0.24183	0.65253	0.76874	0.213
Mof_C 	C 	0.78258	0.59426	0.41346	-0.035
Mof_C 	C 	0.22171	0.75267	0.15	-0.039
Mof_C 	C 	0.7995	0.24768	0.22544	-0.093
Mof_C 	C 	0.01057	0.42127	0.23126	0.203
Mof_C 	C 	0.84981	0.35437	0.73566	-0.099
Mof_C 	C 	0.04147	0.32363	0.62004	0.341
Mof_C 	C 	0.24768	0.97506	0.22544	-0.094
Mof_C 	C 	0.31867	0.35933	0.76808	-0.03
Mof_C 	C 	0.36539	0.14501	0.6149	-0.014
Mof_C 	C 	0.64067	0.08675	0.23192	-0.038
Mof_C 	C 	0.33604	0.43414	0.53026	-0.096
Mof_C 	C 	0.44847	0.90335	0.75956	0.139
Mof_C 	C 	0.96044	0.57674	0.21532	-0.033
Mof_C 	C 	0.66291	0.55153	0.24044	0.13
Mof_C 	C 	0.91679	0.28041	0.1337	-0.041
Mof_C 	C 	0.38817	0.66466	0.31528	0.204
Mof_C 	C 	0.04465	0.34462	0.2549	0.202
Mof_C 	C 	0.29955	0.59952	0.7451	0.208
Mof_C 	C 	0.85499	0.98029	0.3851	-0.017
Mof_C 	C 	0.94564	0.69391	0.65432	0.205
Mof_C 	C 	0.33849	0.05633	0.62004	0.341
Mof_C 	C 	0.4267	0.89894	0.81762	-0.096
Mof_C 	C 	0.33534	0.70345	0.68472	0.208
Mof_C 	C 	0.90235	0.74031	0.91	0.342
Mof_C 	C 	0.95535	0.65538	0.7451	0.209
Mof_C 	C 	0.58589	0.91679	0.1337	-0.041
Mof_C 	C 	0.29655	0.02006	0.31528	0.203
Mof_C 	C 	0.71959	0.05049	0.8663	-0.028
Mof_C 	C 	0.61183	0.33534	0.68472	0.207
Mof_C 	C 	0.14637	0.95794	0.255	0.339
Mof_C 	C 	0.59996	0.34823	0.34568	0.2
Mof_C 	C 	0.75817	0.34747	0.23126	0.207
Mof_C 	C 	0.53977	0.7839	0.47042	-0.093
Mof_C 	C 	0.04206	0.40137	0.745	0.339
Mof_C 	C 	0.5733	0.10106	0.18238	-0.092
Mof_C 	C 	0.58547	0.09003	0.26434	-0.096
Mof_C 	C 	0.93541	0.61829	0.08432	0.342
Mof_C 	C 	0.55153	0.09665	0.24044	0.129
Mof_C 	C 	0.05436	0.30609	0.34568	0.2
Mof_C 	C 	0.24009	0.36539	0.6149	-0.014
Mof_C 	C 	0.92524	0.93649	0.73806	0.343
Mof_C 	C 	0.79197	0.33709	0.75956	0.139
Mof_C 	C 	0.30609	0.59996	0.34568	0.2
Mof_C 	C 	0.40574	0.19604	0.58654	-0.036
Mof_C 	C 	0.40137	0.21294	0.745	0.339
Mof_C 	C 	0.18765	0.34969	0.91	0.342
Mof_C 	C 	0.00772	0.21742	0.58654	-0.041
Mof_C 	C 	0.01019	0.25432	0.52958	-0.091
Mof_C 	C 	0.02494	0.47312	0.77456	-0.096
Mof_C 	C 	0.9642	0.53594	0.14304	-0.092
Mof_C 	C 	0.1175	0.77568	0.83166	-0.018
Mof_C 	C 	0.22713	0.9893	0.61996	0.349
Mof_C 	C 	0.97053	0.65115	0.59994	0.212
Mof_C 	C 	0.34969	0.90235	0.91	0.342
Mof_C 	C 	0.60734	0.8825	0.16834	-0.015
Mof_C 	C 	0.20794	0.96044	0.21532	-0.034
Mof_C 	C 	0.05084	0.39266	0.83166	-0.016
Mof_C 	C 	0.62829	0.09733	0.15	-0.039
Mof_C 	C 	0.01971	0.24009	0.6149	-0.011
Mof_C 	C 	0.02399	0.31329	0.50168	0.132
Mof_C 	C 	0.18503	0.02399	0.50168	0.131
Mof_C 	C 	0.07476	0.06351	0.26194	0.344
Mof_C 	C 	0.87259	0.31867	0.76808	-0.028
Mof_C 	C 	0.77568	0.05084	0.83166	-0.016
Mof_C 	C 	0.59426	0.80396	0.41346	-0.035
Mof_C 	C 	0.32363	0.33849	0.62004	0.341
Mof_C 	C 	0.33765	0.90955	0.8258	-0.018
Mof_C 	C 	0.83347	0.30472	0.18814	0.125
Mof_C 	C 	0.0356	0.33604	0.53026	-0.094
Mof_C 	C 	0.02947	0.34885	0.40006	0.208
Mof_C 	C 	0.79206	0.03956	0.78468	-0.029
Mof_C 	C 	0.25432	0.46023	0.52958	-0.093
Mof_C 	C 	0.42326	0.17576	0.78468	-0.027
Mof_C 	C 	0.75232	0.02494	0.77456	-0.096
Mof_C 	C 	0.93649	0.3367	0.73806	0.343
Mof_C 	C 	0.75267	0.62829	0.15	-0.038
Mof_C 	C 	0.03956	0.42326	0.78468	-0.029
Mof_C 	C 	0.38001	0.11374	0.5869	-0.036
Mof_C 	C 	0.98027	0.29739	0.08432	0.347
Mof_C 	C 	0.35437	0.41453	0.73566	-0.099
Mof_C 	C 	0.41453	0.90997	0.73566	-0.099
Mof_C 	C 	0.95794	0.59863	0.255	0.339
Mof_C 	C 	0.65538	0.29955	0.7451	0.208
Mof_C 	C 	0.46406	0.10724	0.85696	-0.095
Mof_C 	C 	0.57674	0.82424	0.21532	-0.034
Mof_C 	C 	0.9893	0.15291	0.61996	0.349
Mof_C 	C 	0.59863	0.78706	0.255	0.339
Mof_C 	C 	0.14501	0.01971	0.6149	-0.011
Mof_C 	C 	0.65115	0.42953	0.59994	0.211
Mof_C 	C 	0.24432	0.71656	0.18238	-0.092
Mof_C 	C 	0.88626	0.96691	0.4131	-0.031
Mof_C 	C 	0.03309	0.29936	0.5869	-0.038
Mof_C 	C 	0.53594	0.89276	0.14304	-0.091
Mof_C 	C 	0.7839	0.98981	0.47042	-0.096
Mof_C 	C 	0.65177	0.94564	0.65432	0.204
Mof_C 	C 	0.34823	0.05436	0.34568	0.2
Mof_C 	C 	0.47312	0.2005	0.77456	-0.096
Mof_C 	C 	0.78706	0.14637	0.255	0.339
Mof_C 	C 	0.09733	0.22171	0.15	-0.039
Mof_C 	C 	0.55366	0.92295	0.7141	0.213
Mof_C 	C 	0.30472	0.97839	0.18814	0.126
Mof_C 	C 	0.57047	0.25109	0.40006	0.208
Mof_C 	C 	0.99228	0.78258	0.41346	-0.027
Mof_C 	C 	0.44634	0.07705	0.2859	0.208
Mof_C 	C 	0.08675	0.12741	0.23192	-0.038
Mof_C 	C 	0.06459	0.38171	0.91568	0.343
Mof_C 	C 	0.38171	0.01973	0.91568	0.337
Mof_C 	C 	0.52688	0.7995	0.22544	-0.094
Mof_C 	C 	0.60926	0.77287	0.38004	0.345
Mof_C 	C 	0.09665	0.20803	0.24044	0.129
Mof_C 	C 	0.98029	0.75991	0.3851	-0.017
Mof_C 	C 	0.2161	0.01019	0.52958	-0.09
Mof_C 	C 	0.90997	0.84981	0.73566	-0.099
Mof_C 	C 	0.21742	0.40574	0.58654	-0.036
Mof_C 	C 	0.06351	0.6633	0.26194	0.344
Mof_C 	C 	0.74891	0.97053	0.59994	0.212
Mof_C 	C 	0.08321	0.71959	0.8663	-0.025
Mof_C 	C 	0.26465	0.33765	0.8258	-0.018
Mof_C 	C 	0.77287	0.0107	0.38004	0.338
Mof_C 	C 	0.70045	0.40048	0.2549	0.202
Mof_C 	C 	0.09765	0.25969	0.09	0.343
Mof_C 	C 	0.61829	0.98027	0.08432	0.348
Mof_C 	C 	0.09045	0.16345	0.1742	-0.015
Mof_C 	C 	0.65253	0.98943	0.76874	0.219
Mof_C 	C 	0.84709	0.60926	0.38004	0.345
Mof_C 	C 	0.69391	0.40004	0.65432	0.204
Mof_C 	C 	0.10724	0.67898	0.85696	-0.095
Mof_C 	C 	0.25969	0.81235	0.09	0.343
Mof_C 	C 	0.70345	0.97994	0.68472	0.208
Mof_C 	C 	0.94951	0.58589	0.1337	-0.039
Mof_C 	C 	0.05633	0.04147	0.62004	0.341
Mof_C 	C 	0.97601	0.68671	0.49832	0.138
Mof_C 	C 	0.59952	0.95535	0.7451	0.208
Mof_C 	C 	0.66235	0.09045	0.1742	-0.015
Mof_C 	C 	0.2005	0.75232	0.77456	-0.096
Mof_C 	C 	0.61999	0.88626	0.4131	-0.034
Mof_C 	C 	0.81497	0.97601	0.49832	0.138
Mof_C 	C 	0.82424	0.20794	0.21532	-0.035
Mof_C 	C 	0.97506	0.52688	0.22544	-0.094
Mof_C 	C 	0.64563	0.58547	0.26434	-0.096
Mof_C 	C 	0.28344	0.4267	0.81762	-0.096
Mof_C 	C 	0.39266	0.1175	0.83166	-0.018
Mof_C 	C 	0.05049	0.41411	0.8663	-0.028
Mof_C 	C 	0.0107	0.84709	0.38004	0.338
Mof_C 	C 	0.19604	0.00772	0.58654	-0.042
Mof_C 	C 	0.9644	0.66396	0.46974	-0.097
Mof_C 	C 	0.95853	0.67637	0.37996	0.341
Mof_C 	C 	0.80396	0.99228	0.41346	-0.027
Mof_C 	C 	0.98943	0.57873	0.76874	0.218
Mof_C 	C 	0.11374	0.03309	0.5869	-0.038
Mof_C 	C 	0.36295	0.55366	0.7141	0.213
Mof_C 	C 	0.01973	0.70261	0.91568	0.336
Mof_C 	C 	0.97839	0.50714	0.18814	0.126
Mof_C 	C 	0.81235	0.65031	0.09	0.343
Mof_C 	C 	0.69528	0.02161	0.81186	0.135
Mof_C 	C 	0.56586	0.8663	0.46974	-0.096
Mof_C 	C 	0.74568	0.53977	0.47042	-0.093
Mof_C 	C 	0.3367	0.32545	0.73806	0.343
Mof_C 	C 	0.43414	0.1337	0.53026	-0.095
Mof_C 	C 	0.89276	0.32102	0.14304	-0.091
Mof_C 	C 	0.35933	0.91325	0.76808	-0.029
Mof_C 	C 	0.63705	0.44634	0.2859	0.208
Mof_C 	C 	0.22432	0.94916	0.16834	-0.016
Mof_C 	C 	0.85363	0.04206	0.745	0.339
Mof_C 	C 	0.41411	0.08321	0.8663	-0.026
Mof_C 	C 	0.10106	0.24432	0.18238	-0.092
Mof_C 	C 	0.24733	0.37171	0.85	-0.026
Mof_C 	C 	0.49286	0.16653	0.81186	0.136
Mof_C 	C 	0.42953	0.74891	0.59994	0.211
Mof_C 	C 	0.90335	0.79197	0.75956	0.14
Mof_C 	C 	0.34885	0.57047	0.40006	0.209
Mof_C 	C 	0.94367	0.95853	0.37996	0.34
Mof_C 	C 	0.15291	0.39074	0.61996	0.345
Mof_C 	C 	0.8663	0.9644	0.46974	-0.098
Mof_C 	C 	0.63461	0.85499	0.3851	-0.014
Mof_C 	C 	0.67637	0.66151	0.37996	0.341
Mof_C 	C 	0.20803	0.66291	0.24044	0.129
Mof_C 	C 	0.57873	0.24183	0.76874	0.213
Mof_C 	C 	0.40004	0.65177	0.65432	0.204
Mof_C 	C 	0.15019	0.64563	0.26434	-0.096
Mof_C 	C 	0.71656	0.5733	0.18238	-0.092
Mof_C 	C 	0.66466	0.29655	0.31528	0.204
Mof_C 	C 	0.37171	0.90267	0.85	-0.025
Mof_C 	C 	0.25109	0.02947	0.40006	0.208
Mof_C 	C 	0.90955	0.83655	0.8258	-0.018
Mof_C 	C 	0.83655	0.26465	0.8258	-0.018
Mof_C 	C 	0.89894	0.75568	0.81762	-0.096
Mof_C 	C 	0.16653	0.69528	0.81186	0.137
Mof_C 	C 	0.26776	0.63705	0.2859	0.208
Mof_C 	C 	0.29936	0.38001	0.5869	-0.036
Mof_C 	C 	0.34462	0.70045	0.2549	0.202
Mof_C 	C 	0.67455	0.07476	0.26194	0.344
Mof_C 	C 	0.50714	0.83347	0.18814	0.125
Mof_C 	C 	0.12741	0.68133	0.23192	-0.038
Mof_C 	C 	0.02006	0.38817	0.31528	0.203
Mof_C 	C 	0.32102	0.9642	0.14304	-0.092
Mof_C 	C 	0.16345	0.73535	0.1742	-0.015
Mof_C 	C 	0.39074	0.22713	0.61996	0.344
Mof_C 	C 	0.29739	0.93541	0.08432	0.342
Mof_C 	C 	0.1337	0.0356	0.53026	-0.094
Mof_C 	C 	0.28041	0.94951	0.1337	-0.039
Mof_C 	C 	0.75568	0.28344	0.81762	-0.096
Mof_C 	C 	0.52567	0.81497	0.49832	0.136
Mof_C 	C 	0.17576	0.79206	0.78468	-0.027
Mof_C 	C 	0.70064	0.61999	0.4131	-0.035
Mof_C 	C 	0.34747	0.01057	0.23126	0.203
Mof_C 	C 	0.07705	0.26776	0.2859	0.208
Mof_C 	C 	0.42127	0.75817	0.23126	0.207
Mof_C 	C 	0.32545	0.92524	0.73806	0.343
Mof_C 	C 	0.68133	0.64067	0.23192	-0.037
Mof_C 	C 	0.65031	0.09765	0.09	0.343
Mof_C 	C 	0.97994	0.61183	0.68472	0.208
Mof_C 	C 	0.0358	0.46406	0.85696	-0.093
Mof_C 	C 	0.77829	0.24733	0.85	-0.025
Mof_C 	C 	0.70261	0.06459	0.91568	0.343
Mof_C 	C 	0.66151	0.94367	0.37996	0.341
Mof_C 	C 	0.91325	0.87259	0.76808	-0.027
Mof_C 	C 	0.74031	0.18765	0.91	0.342
Mof_C 	C 	0.66396	0.56586	0.46974	-0.096
Mof_C 	C 	0.67898	0.0358	0.85696	-0.094
Mof_C 	C 	0.31329	0.47433	0.50168	0.133
Mof_C 	C 	0.09003	0.15019	0.26434	-0.096
Mof_C 	C 	0.68671	0.52567	0.49832	0.135
Mof_C 	C 	0.40048	0.04465	0.2549	0.202
Mof_C 	C 	0.94916	0.60734	0.16834	-0.016
Mof_C 	C 	0.96691	0.70064	0.4131	-0.032
Mof_C 	C 	0.8825	0.22432	0.16834	-0.015
Mof_C 	C 	0.6633	0.67455	0.26194	0.344
Mof_C 	C 	0.90267	0.77829	0.85	-0.024
Mof_C 	C 	0.21294	0.85363	0.745	0.339
Mof_C 	C 	0.75991	0.63461	0.3851	-0.013
Mof_C 	C 	0.33709	0.44847	0.75956	0.139
Mof_N 	N 	0.38187	0.75223	0.21828	-0.172
Mof_N 	N 	0.34798	0.03914	0.30554	-0.198
Mof_N 	N 	0.47077	0.80052	0.55266	-0.233
Mof_N 	N 	0.61813	0.24777	0.78172	-0.168
Mof_N 	N 	0.9842	0.60948	0.6378	-0.169
Mof_N 	N 	0.60948	0.378	0.6378	-0.17
Mof_N 	N 	0.39793	0.07427	0.33488	-0.169
Mof_N 	N 	0.40915	0.60207	0.66512	-0.168
Mof_N 	N 	0.22617	0.6247	0.27872	-0.233
Mof_N 	N 	0.0637	0.30449	0.24588	-0.17
Mof_N 	N 	0.65202	0.96086	0.69446	-0.199
Mof_N 	N 	0.24728	0.0158	0.3622	-0.171
Mof_N 	N 	0.378	0.75272	0.6378	-0.17
Mof_N 	N 	0.07427	0.26719	0.33488	-0.169
Mof_N 	N 	0.30958	0.55037	0.75412	-0.168
Mof_N 	N 	0.57355	0.28279	0.72282	-0.169
Mof_N 	N 	0.00561	0.42645	0.27718	-0.171
Mof_N 	N 	0.70143	0.95253	0.60534	-0.168
Mof_N 	N 	0.6247	0.49511	0.27872	-0.233
Mof_N 	N 	0.64979	0.00343	0.80874	-0.233
Mof_N 	N 	0.35021	0.99657	0.19126	-0.227
Mof_N 	N 	0.24777	0.60015	0.78172	-0.168
Mof_N 	N 	0.70363	0.99439	0.72282	-0.168
Mof_N 	N 	0.71721	0.29637	0.27718	-0.17
Mof_N 	N 	0.0158	0.39052	0.3622	-0.171
Mof_N 	N 	0.44213	0.70143	0.60534	-0.168
Mof_N 	N 	0.69042	0.44963	0.24588	-0.17
Mof_N 	N 	0.45853	0.81217	0.19126	-0.229
Mof_N 	N 	0.26719	0.59085	0.33488	-0.169
Mof_N 	N 	0.65352	0.34468	0.69446	-0.198
Mof_N 	N 	0.39985	0.02949	0.21828	-0.172
Mof_N 	N 	0.34648	0.65532	0.30554	-0.198
Mof_N 	N 	0.60015	0.97051	0.78172	-0.167
Mof_N 	N 	0.97657	0.64682	0.55266	-0.233
Mof_N 	N 	0.02343	0.35318	0.44734	-0.232
Mof_N 	N 	0.69551	0.30958	0.75412	-0.168
Mof_N 	N 	0.19948	0.02343	0.44734	-0.232
Mof_N 	N 	0.49511	0.09658	0.27872	-0.233
Mof_N 	N 	0.95253	0.69323	0.60534	-0.168
Mof_N 	N 	0.622	0.24728	0.3622	-0.171
Mof_N 	N 	0.50489	0.90342	0.72128	-0.234
Mof_N 	N 	0.55037	0.9363	0.75412	-0.168
Mof_N 	N 	0.75223	0.39985	0.21828	-0.172
Mof_N 	N 	0.44963	0.0637	0.24588	-0.17
Mof_N 	N 	0.96086	0.65352	0.69446	-0.198
Mof_N 	N 	0.81217	0.35021	0.19126	-0.229
Mof_N 	N 	0.02949	0.38187	0.21828	-0.172
Mof_N 	N 	0.34468	0.65202	0.69446	-0.198
Mof_N 	N 	0.75272	0.9842	0.6378	-0.169
Mof_N 	N 	0.92573	0.73281	0.66512	-0.167
Mof_N 	N 	0.09658	0.22617	0.27872	-0.233
Mof_N 	N 	0.69323	0.44213	0.60534	-0.168
Mof_N 	N 	0.29637	0.00561	0.27718	-0.17
Mof_N 	N 	0.77383	0.3753	0.72128	-0.234
Mof_N 	N 	0.3753	0.50489	0.72128	-0.234
Mof_N 	N 	0.60207	0.92573	0.66512	-0.168
Mof_N 	N 	0.29857	0.04747	0.39466	-0.169
Mof_N 	N 	0.97051	0.61813	0.78172	-0.167
Mof_N 	N 	0.28279	0.70363	0.72282	-0.169
Mof_N 	N 	0.30677	0.55787	0.39466	-0.169
Mof_N 	N 	0.42645	0.71721	0.27718	-0.17
Mof_N 	N 	0.65532	0.34798	0.30554	-0.198
Mof_N 	N 	0.59085	0.39793	0.33488	-0.169
Mof_N 	N 	0.9363	0.69551	0.75412	-0.168
Mof_N 	N 	0.30449	0.69042	0.24588	-0.17
Mof_N 	N 	0.80052	0.97657	0.55266	-0.233
Mof_N 	N 	0.90342	0.77383	0.72128	-0.234
Mof_N 	N 	0.54147	0.18783	0.80874	-0.231
Mof_N 	N 	0.35318	0.52923	0.44734	-0.233
Mof_N 	N 	0.18783	0.64979	0.80874	-0.231
Mof_N 	N 	0.00343	0.54147	0.80874	-0.233
Mof_N 	N 	0.55787	0.29857	0.39466	-0.169
Mof_N 	N 	0.04747	0.30677	0.39466	-0.169
Mof_N 	N 	0.64682	0.47077	0.55266	-0.233
Mof_N 	N 	0.99657	0.45853	0.19126	-0.227
Mof_N 	N 	0.39052	0.622	0.3622	-0.17
Mof_N 	N 	0.99439	0.57355	0.72282	-0.169
Mof_N 	N 	0.03914	0.34648	0.30554	-0.198
Mof_N 	N 	0.73281	0.40915	0.66512	-0.168
Mof_N 	N 	0.52923	0.19948	0.44734	-0.233
Mof_O 	O 	0.6875	0.17429	0.93128	-0.375
Mof_O 	O 	0.34259	0.92161	0.06582	-0.41
Mof_O 	O 	0.04481	0.6981	0.23198	-0.397
Mof_O 	O 	0.61494	0.65071	0.31508	-0.404
Mof_O 	O 	0.43484	0.26293	0.69602	-0.397
Mof_O 	O 	0.9932	0.12373	0.6672	-0.401
Mof_O 	O 	0.02856	0.8666	0.40216	-0.397
Mof_O 	O 	0.96661	0.7119	0.32622	-0.399
Mof_O 	O 	0.73124	0.02856	0.40216	-0.397
Mof_O 	O 	0.06992	0.04481	0.23198	-0.397
Mof_O 	O 	0.13086	0.95895	0.30398	-0.398
Mof_O 	O 	0.87627	0.6604	0.3328	-0.401
Mof_O 	O 	0.89443	0.6875	0.93128	-0.373
Mof_O 	O 	0.6604	0.79093	0.3328	-0.401
Mof_O 	O 	0.03812	0.03339	0.67378	-0.404
Mof_O 	O 	0.96188	0.96661	0.32622	-0.396
Mof_O 	O 	0.69717	0.08814	0.06746	-0.391
Mof_O 	O 	0.70717	0.96188	0.32622	-0.397
Mof_O 	O 	0.23537	0.8444	0.06746	-0.39
Mof_O 	O 	0.38506	0.34929	0.68492	-0.402
Mof_O 	O 	0.56928	0.73124	0.40216	-0.396
Mof_O 	O 	0.11536	0.95592	0.2352	-0.399
Mof_O 	O 	0.61878	0.10557	0.06872	-0.414
Mof_O 	O 	0.97144	0.1334	0.59784	-0.396
Mof_O 	O 	0.98743	0.65741	0.93418	-0.365
Mof_O 	O 	0.1334	0.43072	0.59784	-0.397
Mof_O 	O 	0.59159	0.01257	0.06582	-0.415
Mof_O 	O 	0.26293	0.86914	0.69602	-0.397
Mof_O 	O 	0.95592	0.64944	0.2352	-0.398
Mof_O 	O 	0.03077	0.05513	0.5911	-0.402
Mof_O 	O 	0.2881	0.29283	0.67378	-0.4
Mof_O 	O 	0.91186	0.76463	0.93254	-0.367
Mof_O 	O 	0.73585	0.06192	0.93356	-0.375
Mof_O 	O 	0.37813	0.35377	0.5911	-0.399
Mof_O 	O 	0.93949	0.78979	0.01562	-0.492
Mof_O 	O 	0.04408	0.35056	0.7648	-0.396
Mof_O 	O 	0.94487	0.62187	0.4089	-0.397
Mof_O 	O 	0.35056	0.19112	0.7648	-0.395
Mof_O 	O 	0.86914	0.04105	0.69602	-0.398
Mof_O 	O 	0.95511	0.80541	0.98438	0.292
Mof_O 	O 	0.20907	0.9932	0.6672	-0.401
Mof_O 	O 	0.80888	0.11536	0.2352	-0.399
Mof_O 	O 	0.72321	0.06992	0.23198	-0.396
Mof_O 	O 	0.40841	0.98743	0.93418	-0.367
Mof_O 	O 	0.93008	0.95519	0.76802	-0.385
Mof_O 	O 	0.78979	0.04489	0.01562	-0.485
Mof_O 	O 	0.93808	0.66941	0.06644	-0.394
Mof_O 	O 	0.79093	0.0068	0.3328	-0.402
Mof_O 	O 	0.62187	0.64623	0.4089	-0.398
Mof_O 	O 	0.95519	0.3019	0.76802	-0.387
Mof_O 	O 	0.56516	0.73707	0.30398	-0.398
Mof_O 	O 	0.04105	0.43484	0.69602	-0.398
Mof_O 	O 	0.21021	0.95511	0.98438	0.284
Mof_O 	O 	0.1556	0.30283	0.93254	-0.369
Mof_O 	O 	0.26415	0.93808	0.06644	-0.395
Mof_O 	O 	0.06998	0.03421	0.31508	-0.407
Mof_O 	O 	0.96579	0.38506	0.68492	-0.399
Mof_O 	O 	0.04489	0.19459	0.01562	-0.479
Mof_O 	O 	0.10557	0.3125	0.06872	-0.414
Mof_O 	O 	0.64623	0.96923	0.4089	-0.396
Mof_O 	O 	0.19112	0.88464	0.7648	-0.395
Mof_O 	O 	0.07839	0.40841	0.93418	-0.373
Mof_O 	O 	0.73707	0.13086	0.30398	-0.399
Mof_O 	O 	0.65071	0.06998	0.31508	-0.405
Mof_O 	O 	0.06192	0.33059	0.93356	-0.375
Mof_O 	O 	0.6981	0.72321	0.23198	-0.394
Mof_O 	O 	0.05513	0.37813	0.5911	-0.4
Mof_O 	O 	0.03421	0.61494	0.31508	-0.407
Mof_O 	O 	0.26876	0.97144	0.59784	-0.396
Mof_O 	O 	0.82571	0.61878	0.06872	-0.413
Mof_O 	O 	0.65741	0.07839	0.93418	-0.373
Mof_O 	O 	0.93002	0.96579	0.68492	-0.397
Mof_O 	O 	0.92161	0.59159	0.06582	-0.41
Mof_O 	O 	0.30283	0.91186	0.93254	-0.368
Mof_O 	O 	0.99548	0.26415	0.06644	-0.394
Mof_O 	O 	0.03339	0.2881	0.67378	-0.401
Mof_O 	O 	0.3396	0.20907	0.6672	-0.401
Mof_O 	O 	0.27679	0.93008	0.76802	-0.389
Mof_O 	O 	0.66941	0.99548	0.06644	-0.393
Mof_O 	O 	0.17429	0.38122	0.93128	-0.375
Mof_O 	O 	0.8666	0.56928	0.40216	-0.396
Mof_O 	O 	0.88464	0.04408	0.7648	-0.396
Mof_O 	O 	0.19459	0.93949	0.01562	-0.486
Mof_O 	O 	0.96923	0.94487	0.4089	-0.394
Mof_O 	O 	0.06051	0.21021	0.98438	0.275
Mof_O 	O 	0.33059	0.00452	0.93356	-0.375
Mof_O 	O 	0.38122	0.89443	0.93128	-0.374
Mof_O 	O 	0.3019	0.27679	0.76802	-0.39
Mof_O 	O 	0.3125	0.82571	0.06872	-0.413
Mof_O 	O 	0.64944	0.80888	0.2352	-0.398
Mof_O 	O 	0.12373	0.3396	0.6672	-0.401
Mof_O 	O 	0.8444	0.69717	0.06746	-0.39
Mof_O 	O 	0.7119	0.70717	0.32622	-0.4
Mof_O 	O 	0.76463	0.1556	0.93254	-0.368
Mof_O 	O 	0.00452	0.73585	0.93356	-0.376
Mof_O 	O 	0.95895	0.56516	0.30398	-0.397
Mof_O 	O 	0.08814	0.23537	0.06746	-0.391
Mof_O 	O 	0.0068	0.87627	0.3328	-0.402
Mof_O 	O 	0.01257	0.34259	0.06582	-0.414
Mof_O 	O 	0.34929	0.93002	0.68492	-0.401
Mof_O 	O 	0.80541	0.06051	0.98438	0.281
Mof_O 	O 	0.43072	0.26876	0.59784	-0.396
Mof_O 	O 	0.29283	0.03812	0.67378	-0.402
Mof_O 	O 	0.35377	0.03077	0.5911	-0.401
_end
