# CIF file generated by openbabel 3.1.0, see https://openbabel.org
data_I
_chemical_name_common 'image0'
_cell_length_a 10.2187
_cell_length_b 11.5176
_cell_length_c 16.3127
_cell_angle_alpha 82.71
_cell_angle_beta 75.911
_cell_angle_gamma 77.542
_space_group_name_H-M_alt 'P 1'
_space_group_name_Hall 'P 1'
loop_
    _symmetry_equiv_pos_as_xyz
    x,y,z
loop_
    _atom_site_label
    _atom_site_type_symbol
    _atom_site_fract_x
    _atom_site_fract_y
    _atom_site_fract_z
    _atom_site_occupancy
    C1       C        0.51430    0.91010    0.35030    1.000
    C2       C        0.53130    0.86720    0.26600    1.000
    C3       C        0.44370    0.91970    0.21180    1.000
    H1       H        0.37660    0.98640    0.22760    1.000
    C4       C        0.45520    0.87460    0.13580    1.000
    C5       C        0.55760    0.77510    0.11230    1.000
    H2       H        0.56380    0.74270    0.06180    1.000
    C6       C        0.64800    0.72480    0.16090    1.000
    C7       C        0.63360    0.77050    0.23900    1.000
    H3       H        0.69400    0.73530    0.27340    1.000
    C8       C        0.75990    0.61770    0.13700    1.000
    C9       C        0.84900    0.60960    0.05730    1.000
    C10      C        0.95320    0.50590    0.04090    1.000
    C11      C        0.96530    0.40910    0.10480    1.000
    C12      C        0.87610    0.42210    0.18500    1.000
    C13      C        0.77590    0.52350    0.19790    1.000
    H4       H        0.71530    0.52900    0.25060    1.000
    C14      C        0.88060    0.32630    0.25660    1.000
    C15      C        0.76400    0.28290    0.29600    1.000
    H5       H        0.68340    0.31250    0.27720    1.000
    C16      C        0.76330    0.19440    0.36450    1.000
    C17      C        0.88420    0.15270    0.39150    1.000
    H6       H        0.88710    0.09250    0.43520    1.000
    C18      C        0.00030    0.19870    0.35520    1.000
    C19      C        0.99690    0.28530    0.28740    1.000
    H7       H        0.07560    0.31610    0.26250    1.000
    C20      C        0.63320    0.15580    0.40510    1.000
    C21      C        0.12470    0.16440    0.39190    1.000
    C22      C        0.06530    0.30430    0.08480    1.000
    H8       H        0.07050    0.23980    0.12520    1.000
    C23      C        0.84720    0.70360    0.99170    1.000
    H9       H        0.78280    0.77370    0.00210    1.000
    C24      C        0.35760    0.92960    0.08290    1.000
    Eu1      Eu       0.33850    0.12977    0.47841    1.000
    O1       O        0.43050    0.00480    0.36690    1.000
    O2       O        0.58680    0.84960    0.39840    1.000
    O3       O        0.26830    0.01740    0.10020    1.000
    O4       O        0.37210    0.87860    0.01340    1.000
    O5       O        0.52400    0.21680    0.39300    1.000
    O6       O        0.63600    0.06210    0.45320    1.000
    O7       O        0.13730    0.07480    0.44220    1.000
    O8       O        0.21350    0.23050    0.37220    1.000
    C25      C        0.48570    0.08990    0.64970    1.000
    C26      C        0.46870    0.13280    0.73400    1.000
    C27      C        0.55630    0.08030    0.78820    1.000
    H10      H        0.62340    0.01360    0.77240    1.000
    C28      C        0.54480    0.12540    0.86420    1.000
    C29      C        0.44240    0.22490    0.88770    1.000
    H11      H        0.43620    0.25730    0.93820    1.000
    C30      C        0.35200    0.27520    0.83910    1.000
    C31      C        0.36640    0.22950    0.76100    1.000
    H12      H        0.30600    0.26470    0.72660    1.000
    C32      C        0.24010    0.38230    0.86300    1.000
    C33      C        0.15100    0.39040    0.94270    1.000
    C34      C        0.04680    0.49410    0.95910    1.000
    C35      C        0.03470    0.59090    0.89520    1.000
    C36      C        0.12390    0.57790    0.81500    1.000
    C37      C        0.22410    0.47650    0.80210    1.000
    H13      H        0.28470    0.47100    0.74940    1.000
    C38      C        0.11940    0.67370    0.74340    1.000
    C39      C        0.23600    0.71710    0.70400    1.000
    H14      H        0.31660    0.68750    0.72280    1.000
    C40      C        0.23670    0.80560    0.63550    1.000
    C41      C        0.11580    0.84730    0.60850    1.000
    H15      H        0.11290    0.90750    0.56480    1.000
    C42      C        0.99970    0.80130    0.64480    1.000
    C43      C        0.00310    0.71470    0.71260    1.000
    H16      H        0.92440    0.68390    0.73750    1.000
    C44      C        0.36680    0.84420    0.59490    1.000
    C45      C        0.87530    0.83560    0.60810    1.000
    C46      C        0.93470    0.69570    0.91520    1.000
    H17      H        0.92950    0.76020    0.87480    1.000
    C47      C        0.15280    0.29640    0.00830    1.000
    H18      H        0.21720    0.22630    0.99790    1.000
    C48      C        0.64240    0.07040    0.91710    1.000
    Eu2      Eu       0.66150    0.87023    0.52159    1.000
    O9       O        0.56950    0.99520    0.63310    1.000
    O10      O        0.41320    0.15040    0.60160    1.000
    O11      O        0.73170    0.98260    0.89980    1.000
    O12      O        0.62790    0.12140    0.98660    1.000
    O13      O        0.47600    0.78320    0.60700    1.000
    O14      O        0.36400    0.93790    0.54680    1.000
    O15      O        0.86270    0.92520    0.55780    1.000
    O16      O        0.78650    0.76950    0.62780    1.000
