# CIF file generated by openbabel 3.1.0, see https://openbabel.org
data_I
_chemical_name_common 'image0'
_cell_length_a 28.9341
_cell_length_b 28.9341
_cell_length_c 10.5123
_cell_angle_alpha 90
_cell_angle_beta 90
_cell_angle_gamma 90
_space_group_name_H-M_alt 'P 1'
_space_group_name_Hall 'P 1'
loop_
    _symmetry_equiv_pos_as_xyz
    x,y,z
loop_
    _atom_site_label
    _atom_site_type_symbol
    _atom_site_fract_x
    _atom_site_fract_y
    _atom_site_fract_z
    _atom_site_occupancy
    Y1       Y        0.39105    0.81662    0.03552    1.000
    C1       C        0.45812    0.71834    0.99060    1.000
    C2       C        0.50107    0.71897    0.91690    1.000
    C3       C        0.52027    0.75293    0.84670    1.000
    H1       H        0.50780    0.78290    0.83280    1.000
    C4       C        0.56244    0.73560    0.79730    1.000
    H2       H        0.58390    0.75160    0.74490    1.000
    C5       C        0.56599    0.69185    0.83960    1.000
    C6       C        0.60234    0.65717    0.81470    1.000
    C7       C        0.32472    0.72327    0.98400    1.000
    C8       C        0.28261    0.70281    0.92730    1.000
    C9       C        0.27097    0.65788    0.90930    1.000
    H3       H        0.28770    0.63160    0.93740    1.000
    C10      C        0.49061    0.87816    0.99950    1.000
    H4       H        0.48850    0.87750    0.08960    1.000
    C11      C        0.52909    0.89920    0.94380    1.000
    H5       H        0.55280    0.91220    0.99510    1.000
    C12      C        0.53202    0.90080    0.81280    1.000
    H6       H        0.55780    0.91510    0.77320    1.000
    C13      C        0.49743    0.88143    0.73910    1.000
    C14      C        0.49700    0.88319    0.60200    1.000
    H7       H        0.52250    0.89650    0.55840    1.000
    C15      C        0.46152    0.86648    0.53530    1.000
    H8       H        0.46210    0.86820    0.44500    1.000
    C16      C        0.42326    0.84638    0.59640    1.000
    C17      C        0.38370    0.83001    0.53150    1.000
    H9       H        0.38280    0.83100    0.44120    1.000
    C18      C        0.34700    0.81290    0.59650    1.000
    H10      H        0.31990    0.80300    0.55310    1.000
    C19      C        0.34996    0.81023    0.72950    1.000
    H11      H        0.32440    0.79790    0.77490    1.000
    C20      C        0.42248    0.84281    0.73130    1.000
    C21      C        0.46014    0.86118    0.80320    1.000
    N1       N        0.45734    0.85927    0.93250    1.000
    N2       N        0.38672    0.82399    0.79560    1.000
    O1       O        0.44873    0.68365    0.05730    1.000
    O2       O        0.43368    0.75465    0.98230    1.000
    O3       O        0.52914    0.68075    0.91620    1.000
    O4       O        0.60206    0.61794    0.86510    1.000
    O5       O        0.63376    0.67031    0.74020    1.000
    O6       O        0.33082    0.76610    0.97890    1.000
    O7       O        0.35143    0.69380    0.03230    1.000
    Y2       Y        0.89105    0.31662    0.53552    1.000
    C22      C        0.95812    0.21834    0.49060    1.000
    C23      C        0.00107    0.21897    0.41690    1.000
    C24      C        0.02027    0.25293    0.34670    1.000
    H12      H        0.00780    0.28290    0.33280    1.000
    C25      C        0.06244    0.23560    0.29730    1.000
    H13      H        0.08390    0.25160    0.24490    1.000
    C26      C        0.06599    0.19185    0.33960    1.000
    C27      C        0.10234    0.15717    0.31470    1.000
    C28      C        0.82472    0.22327    0.48400    1.000
    C29      C        0.78261    0.20281    0.42730    1.000
    C30      C        0.77097    0.15788    0.40930    1.000
    H14      H        0.78770    0.13160    0.43740    1.000
    C31      C        0.99061    0.37816    0.49950    1.000
    H15      H        0.98850    0.37750    0.58960    1.000
    C32      C        0.02909    0.39920    0.44380    1.000
    H16      H        0.05280    0.41220    0.49510    1.000
    C33      C        0.03202    0.40080    0.31280    1.000
    H17      H        0.05780    0.41510    0.27320    1.000
    C34      C        0.99743    0.38143    0.23910    1.000
    C35      C        0.99700    0.38319    0.10200    1.000
    H18      H        0.02250    0.39650    0.05840    1.000
    C36      C        0.96152    0.36648    0.03530    1.000
    H19      H        0.96210    0.36820    0.94500    1.000
    C37      C        0.92326    0.34638    0.09640    1.000
    C38      C        0.88370    0.33001    0.03150    1.000
    H20      H        0.88280    0.33100    0.94120    1.000
    C39      C        0.84700    0.31290    0.09650    1.000
    H21      H        0.81990    0.30300    0.05310    1.000
    C40      C        0.84996    0.31023    0.22950    1.000
    H22      H        0.82440    0.29790    0.27490    1.000
    C41      C        0.92248    0.34281    0.23130    1.000
    C42      C        0.96014    0.36118    0.30320    1.000
    N3       N        0.95734    0.35927    0.43250    1.000
    N4       N        0.88672    0.32399    0.29560    1.000
    O8       O        0.94873    0.18365    0.55730    1.000
    O9       O        0.93368    0.25465    0.48230    1.000
    O10      O        0.02914    0.18075    0.41620    1.000
    O11      O        0.10206    0.11794    0.36510    1.000
    O12      O        0.13376    0.17031    0.24020    1.000
    O13      O        0.83082    0.26610    0.47890    1.000
    O14      O        0.85143    0.19380    0.53230    1.000
    Y3       Y        0.60895    0.18338    0.03552    1.000
    C43      C        0.54188    0.28166    0.99060    1.000
    C44      C        0.49893    0.28103    0.91690    1.000
    C45      C        0.47973    0.24707    0.84670    1.000
    H23      H        0.49220    0.21710    0.83280    1.000
    C46      C        0.43756    0.26440    0.79730    1.000
    H24      H        0.41610    0.24840    0.74490    1.000
    C47      C        0.43401    0.30815    0.83960    1.000
    C48      C        0.39766    0.34283    0.81470    1.000
    C49      C        0.67528    0.27673    0.98400    1.000
    C50      C        0.71739    0.29719    0.92730    1.000
    C51      C        0.72903    0.34212    0.90930    1.000
    H25      H        0.71230    0.36840    0.93740    1.000
    C52      C        0.50939    0.12184    0.99950    1.000
    H26      H        0.51150    0.12250    0.08960    1.000
    C53      C        0.47091    0.10080    0.94380    1.000
    H27      H        0.44720    0.08780    0.99510    1.000
    C54      C        0.46798    0.09920    0.81280    1.000
    H28      H        0.44220    0.08490    0.77320    1.000
    C55      C        0.50257    0.11857    0.73910    1.000
    C56      C        0.50300    0.11681    0.60200    1.000
    H29      H        0.47750    0.10350    0.55840    1.000
    C57      C        0.53848    0.13352    0.53530    1.000
    H30      H        0.53790    0.13180    0.44500    1.000
    C58      C        0.57674    0.15362    0.59640    1.000
    C59      C        0.61630    0.16999    0.53150    1.000
    H31      H        0.61720    0.16900    0.44120    1.000
    C60      C        0.65300    0.18710    0.59650    1.000
    H32      H        0.68010    0.19700    0.55310    1.000
    C61      C        0.65004    0.18977    0.72950    1.000
    H33      H        0.67560    0.20210    0.77490    1.000
    C62      C        0.57752    0.15719    0.73130    1.000
    C63      C        0.53986    0.13882    0.80320    1.000
    N5       N        0.54266    0.14073    0.93250    1.000
    N6       N        0.61328    0.17601    0.79560    1.000
    O15      O        0.55127    0.31635    0.05730    1.000
    O16      O        0.56632    0.24535    0.98230    1.000
    O17      O        0.47086    0.31925    0.91620    1.000
    O18      O        0.39794    0.38206    0.86510    1.000
    O19      O        0.36624    0.32969    0.74020    1.000
    O20      O        0.66918    0.23390    0.97890    1.000
    O21      O        0.64857    0.30620    0.03230    1.000
    Y4       Y        0.10895    0.68338    0.53552    1.000
    C64      C        0.04188    0.78166    0.49060    1.000
    C65      C        0.99893    0.78103    0.41690    1.000
    C66      C        0.97973    0.74707    0.34670    1.000
    H34      H        0.99220    0.71710    0.33280    1.000
    C67      C        0.93756    0.76440    0.29730    1.000
    H35      H        0.91610    0.74840    0.24490    1.000
    C68      C        0.93401    0.80815    0.33960    1.000
    C69      C        0.89766    0.84283    0.31470    1.000
    C70      C        0.17528    0.77673    0.48400    1.000
    C71      C        0.21739    0.79719    0.42730    1.000
    C72      C        0.22903    0.84212    0.40930    1.000
    H36      H        0.21230    0.86840    0.43740    1.000
    C73      C        0.00939    0.62184    0.49950    1.000
    H37      H        0.01150    0.62250    0.58960    1.000
    C74      C        0.97091    0.60080    0.44380    1.000
    H38      H        0.94720    0.58780    0.49510    1.000
    C75      C        0.96798    0.59920    0.31280    1.000
    H39      H        0.94220    0.58490    0.27320    1.000
    C76      C        0.00257    0.61857    0.23910    1.000
    C77      C        0.00300    0.61681    0.10200    1.000
    H40      H        0.97750    0.60350    0.05840    1.000
    C78      C        0.03848    0.63352    0.03530    1.000
    H41      H        0.03790    0.63180    0.94500    1.000
    C79      C        0.07674    0.65362    0.09640    1.000
    C80      C        0.11630    0.66999    0.03150    1.000
    H42      H        0.11720    0.66900    0.94120    1.000
    C81      C        0.15300    0.68710    0.09650    1.000
    H43      H        0.18010    0.69700    0.05310    1.000
    C82      C        0.15004    0.68977    0.22950    1.000
    H44      H        0.17560    0.70210    0.27490    1.000
    C83      C        0.07752    0.65719    0.23130    1.000
    C84      C        0.03986    0.63882    0.30320    1.000
    N7       N        0.04266    0.64073    0.43250    1.000
    N8       N        0.11328    0.67601    0.29560    1.000
    O22      O        0.05127    0.81635    0.55730    1.000
    O23      O        0.06632    0.74535    0.48230    1.000
    O24      O        0.97086    0.81925    0.41620    1.000
    O25      O        0.89794    0.88206    0.36510    1.000
    O26      O        0.86624    0.82969    0.24020    1.000
    O27      O        0.16918    0.73390    0.47890    1.000
    O28      O        0.14857    0.80620    0.53230    1.000
    Y5       Y        0.81662    0.60895    0.96448    1.000
    C85      C        0.71834    0.54188    0.00940    1.000
    C86      C        0.71897    0.49893    0.08310    1.000
    C87      C        0.75293    0.47973    0.15330    1.000
    H45      H        0.78290    0.49220    0.16720    1.000
    C88      C        0.73560    0.43756    0.20270    1.000
    H46      H        0.75160    0.41610    0.25510    1.000
    C89      C        0.69185    0.43401    0.16040    1.000
    C90      C        0.65717    0.39766    0.18530    1.000
    C91      C        0.72327    0.67528    0.01600    1.000
    C92      C        0.70281    0.71739    0.07270    1.000
    C93      C        0.65788    0.72903    0.09070    1.000
    H47      H        0.63160    0.71230    0.06260    1.000
    C94      C        0.87816    0.50939    0.00050    1.000
    H48      H        0.87750    0.51150    0.91040    1.000
    C95      C        0.89920    0.47091    0.05620    1.000
    H49      H        0.91220    0.44720    0.00490    1.000
    C96      C        0.90080    0.46798    0.18720    1.000
    H50      H        0.91510    0.44220    0.22680    1.000
    C97      C        0.88143    0.50257    0.26090    1.000
    C98      C        0.88319    0.50300    0.39800    1.000
    H51      H        0.89650    0.47750    0.44160    1.000
    C99      C        0.86648    0.53848    0.46470    1.000
    H52      H        0.86820    0.53790    0.55500    1.000
    C100     C        0.84638    0.57674    0.40360    1.000
    C101     C        0.83001    0.61630    0.46850    1.000
    H53      H        0.83100    0.61720    0.55880    1.000
    C102     C        0.81290    0.65300    0.40350    1.000
    H54      H        0.80300    0.68010    0.44690    1.000
    C103     C        0.81023    0.65004    0.27050    1.000
    H55      H        0.79790    0.67560    0.22510    1.000
    C104     C        0.84281    0.57752    0.26870    1.000
    C105     C        0.86118    0.53986    0.19680    1.000
    N9       N        0.85927    0.54266    0.06750    1.000
    N10      N        0.82399    0.61328    0.20440    1.000
    O29      O        0.68365    0.55127    0.94270    1.000
    O30      O        0.75465    0.56632    0.01770    1.000
    O31      O        0.68075    0.47086    0.08380    1.000
    O32      O        0.61794    0.39794    0.13490    1.000
    O33      O        0.67031    0.36624    0.25980    1.000
    O34      O        0.76610    0.66918    0.02110    1.000
    O35      O        0.69380    0.64857    0.96770    1.000
    Y6       Y        0.31662    0.10895    0.46448    1.000
    C106     C        0.21834    0.04188    0.50940    1.000
    C107     C        0.21897    0.99893    0.58310    1.000
    C108     C        0.25293    0.97973    0.65330    1.000
    H56      H        0.28290    0.99220    0.66720    1.000
    C109     C        0.23560    0.93756    0.70270    1.000
    H57      H        0.25160    0.91610    0.75510    1.000
    C110     C        0.19185    0.93401    0.66040    1.000
    C111     C        0.15717    0.89766    0.68530    1.000
    C112     C        0.22327    0.17528    0.51600    1.000
    C113     C        0.20281    0.21739    0.57270    1.000
    C114     C        0.15788    0.22903    0.59070    1.000
    H58      H        0.13160    0.21230    0.56260    1.000
    C115     C        0.37816    0.00939    0.50050    1.000
    H59      H        0.37750    0.01150    0.41040    1.000
    C116     C        0.39920    0.97091    0.55620    1.000
    H60      H        0.41220    0.94720    0.50490    1.000
    C117     C        0.40080    0.96798    0.68720    1.000
    H61      H        0.41510    0.94220    0.72680    1.000
    C118     C        0.38143    0.00257    0.76090    1.000
    C119     C        0.38319    0.00300    0.89800    1.000
    H62      H        0.39650    0.97750    0.94160    1.000
    C120     C        0.36648    0.03848    0.96470    1.000
    H63      H        0.36820    0.03790    0.05500    1.000
    C121     C        0.34638    0.07674    0.90360    1.000
    C122     C        0.33001    0.11630    0.96850    1.000
    H64      H        0.33100    0.11720    0.05880    1.000
    C123     C        0.31290    0.15300    0.90350    1.000
    H65      H        0.30300    0.18010    0.94690    1.000
    C124     C        0.31023    0.15004    0.77050    1.000
    H66      H        0.29790    0.17560    0.72510    1.000
    C125     C        0.34281    0.07752    0.76870    1.000
    C126     C        0.36118    0.03986    0.69680    1.000
    N11      N        0.35927    0.04266    0.56750    1.000
    N12      N        0.32399    0.11328    0.70440    1.000
    O36      O        0.18365    0.05127    0.44270    1.000
    O37      O        0.25465    0.06632    0.51770    1.000
    O38      O        0.18075    0.97086    0.58380    1.000
    O39      O        0.11794    0.89794    0.63490    1.000
    O40      O        0.17031    0.86624    0.75980    1.000
    O41      O        0.26610    0.16918    0.52110    1.000
    O42      O        0.19380    0.14857    0.46770    1.000
    Y7       Y        0.18338    0.39105    0.96448    1.000
    C127     C        0.28166    0.45812    0.00940    1.000
    C128     C        0.28103    0.50107    0.08310    1.000
    C129     C        0.24707    0.52027    0.15330    1.000
    H67      H        0.21710    0.50780    0.16720    1.000
    C130     C        0.26440    0.56244    0.20270    1.000
    H68      H        0.24840    0.58390    0.25510    1.000
    C131     C        0.30815    0.56599    0.16040    1.000
    C132     C        0.34283    0.60234    0.18530    1.000
    C133     C        0.27673    0.32472    0.01600    1.000
    C134     C        0.29719    0.28261    0.07270    1.000
    C135     C        0.34212    0.27097    0.09070    1.000
    H69      H        0.36840    0.28770    0.06260    1.000
    C136     C        0.12184    0.49061    0.00050    1.000
    H70      H        0.12250    0.48850    0.91040    1.000
    C137     C        0.10080    0.52909    0.05620    1.000
    H71      H        0.08780    0.55280    0.00490    1.000
    C138     C        0.09920    0.53202    0.18720    1.000
    H72      H        0.08490    0.55780    0.22680    1.000
    C139     C        0.11857    0.49743    0.26090    1.000
    C140     C        0.11681    0.49700    0.39800    1.000
    H73      H        0.10350    0.52250    0.44160    1.000
    C141     C        0.13352    0.46152    0.46470    1.000
    H74      H        0.13180    0.46210    0.55500    1.000
    C142     C        0.15362    0.42326    0.40360    1.000
    C143     C        0.16999    0.38370    0.46850    1.000
    H75      H        0.16900    0.38280    0.55880    1.000
    C144     C        0.18710    0.34700    0.40350    1.000
    H76      H        0.19700    0.31990    0.44690    1.000
    C145     C        0.18977    0.34996    0.27050    1.000
    H77      H        0.20210    0.32440    0.22510    1.000
    C146     C        0.15719    0.42248    0.26870    1.000
    C147     C        0.13882    0.46014    0.19680    1.000
    N13      N        0.14073    0.45734    0.06750    1.000
    N14      N        0.17601    0.38672    0.20440    1.000
    O43      O        0.31635    0.44873    0.94270    1.000
    O44      O        0.24535    0.43368    0.01770    1.000
    O45      O        0.31925    0.52914    0.08380    1.000
    O46      O        0.38206    0.60206    0.13490    1.000
    O47      O        0.32969    0.63376    0.25980    1.000
    O48      O        0.23390    0.33082    0.02110    1.000
    O49      O        0.30620    0.35143    0.96770    1.000
    Y8       Y        0.68338    0.89105    0.46448    1.000
    C148     C        0.78166    0.95812    0.50940    1.000
    C149     C        0.78103    0.00107    0.58310    1.000
    C150     C        0.74707    0.02027    0.65330    1.000
    H78      H        0.71710    0.00780    0.66720    1.000
    C151     C        0.76440    0.06244    0.70270    1.000
    H79      H        0.74840    0.08390    0.75510    1.000
    C152     C        0.80815    0.06599    0.66040    1.000
    C153     C        0.84283    0.10234    0.68530    1.000
    C154     C        0.77673    0.82472    0.51600    1.000
    C155     C        0.79719    0.78261    0.57270    1.000
    C156     C        0.84212    0.77097    0.59070    1.000
    H80      H        0.86840    0.78770    0.56260    1.000
    C157     C        0.62184    0.99061    0.50050    1.000
    H81      H        0.62250    0.98850    0.41040    1.000
    C158     C        0.60080    0.02909    0.55620    1.000
    H82      H        0.58780    0.05280    0.50490    1.000
    C159     C        0.59920    0.03202    0.68720    1.000
    H83      H        0.58490    0.05780    0.72680    1.000
    C160     C        0.61857    0.99743    0.76090    1.000
    C161     C        0.61681    0.99700    0.89800    1.000
    H84      H        0.60350    0.02250    0.94160    1.000
    C162     C        0.63352    0.96152    0.96470    1.000
    H85      H        0.63180    0.96210    0.05500    1.000
    C163     C        0.65362    0.92326    0.90360    1.000
    C164     C        0.66999    0.88370    0.96850    1.000
    H86      H        0.66900    0.88280    0.05880    1.000
    C165     C        0.68710    0.84700    0.90350    1.000
    H87      H        0.69700    0.81990    0.94690    1.000
    C166     C        0.68977    0.84996    0.77050    1.000
    H88      H        0.70210    0.82440    0.72510    1.000
    C167     C        0.65719    0.92248    0.76870    1.000
    C168     C        0.63882    0.96014    0.69680    1.000
    N15      N        0.64073    0.95734    0.56750    1.000
    N16      N        0.67601    0.88672    0.70440    1.000
    O50      O        0.81635    0.94873    0.44270    1.000
    O51      O        0.74535    0.93368    0.51770    1.000
    O52      O        0.81925    0.02914    0.58380    1.000
    O53      O        0.88206    0.10206    0.63490    1.000
    O54      O        0.82969    0.13376    0.75980    1.000
    O55      O        0.73390    0.83082    0.52110    1.000
    O56      O        0.80620    0.85143    0.46770    1.000
    Y9       Y        0.10895    0.81662    0.71448    1.000
    C169     C        0.04188    0.71834    0.75940    1.000
    C170     C        0.99893    0.71897    0.83310    1.000
    C171     C        0.97973    0.75293    0.90330    1.000
    H89      H        0.99220    0.78290    0.91720    1.000
    C172     C        0.93756    0.73560    0.95270    1.000
    H90      H        0.91610    0.75160    0.00510    1.000
    C173     C        0.93401    0.69185    0.91040    1.000
    C174     C        0.89766    0.65717    0.93530    1.000
    C175     C        0.17528    0.72327    0.76600    1.000
    C176     C        0.21739    0.70281    0.82270    1.000
    C177     C        0.22903    0.65788    0.84070    1.000
    H91      H        0.21230    0.63160    0.81260    1.000
    C178     C        0.00939    0.87816    0.75050    1.000
    H92      H        0.01150    0.87750    0.66040    1.000
    C179     C        0.97091    0.89920    0.80620    1.000
    H93      H        0.94720    0.91220    0.75490    1.000
    C180     C        0.96798    0.90080    0.93720    1.000
    H94      H        0.94220    0.91510    0.97680    1.000
    C181     C        0.00257    0.88143    0.01090    1.000
    C182     C        0.00300    0.88319    0.14800    1.000
    H95      H        0.97750    0.89650    0.19160    1.000
    C183     C        0.03848    0.86648    0.21470    1.000
    H96      H        0.03790    0.86820    0.30500    1.000
    C184     C        0.07674    0.84638    0.15360    1.000
    C185     C        0.11630    0.83001    0.21850    1.000
    H97      H        0.11720    0.83100    0.30880    1.000
    C186     C        0.15300    0.81290    0.15350    1.000
    H98      H        0.18010    0.80300    0.19690    1.000
    C187     C        0.15004    0.81023    0.02050    1.000
    H99      H        0.17560    0.79790    0.97510    1.000
    C188     C        0.07752    0.84281    0.01870    1.000
    C189     C        0.03986    0.86118    0.94680    1.000
    N17      N        0.04266    0.85927    0.81750    1.000
    N18      N        0.11328    0.82399    0.95440    1.000
    O57      O        0.05127    0.68365    0.69270    1.000
    O58      O        0.06632    0.75465    0.76770    1.000
    O59      O        0.97086    0.68075    0.83380    1.000
    O60      O        0.89794    0.61794    0.88490    1.000
    O61      O        0.86624    0.67031    0.00980    1.000
    O62      O        0.16918    0.76610    0.77110    1.000
    O63      O        0.14857    0.69380    0.71770    1.000
    Y10      Y        0.60895    0.31662    0.21448    1.000
    C190     C        0.54188    0.21834    0.25940    1.000
    C191     C        0.49893    0.21897    0.33310    1.000
    C192     C        0.47973    0.25293    0.40330    1.000
    H100     H        0.49220    0.28290    0.41720    1.000
    C193     C        0.43756    0.23560    0.45270    1.000
    H101     H        0.41610    0.25160    0.50510    1.000
    C194     C        0.43401    0.19185    0.41040    1.000
    C195     C        0.39766    0.15717    0.43530    1.000
    C196     C        0.67528    0.22327    0.26600    1.000
    C197     C        0.71739    0.20281    0.32270    1.000
    C198     C        0.72903    0.15788    0.34070    1.000
    H102     H        0.71230    0.13160    0.31260    1.000
    C199     C        0.50939    0.37816    0.25050    1.000
    H103     H        0.51150    0.37750    0.16040    1.000
    C200     C        0.47091    0.39920    0.30620    1.000
    H104     H        0.44720    0.41220    0.25490    1.000
    C201     C        0.46798    0.40080    0.43720    1.000
    H105     H        0.44220    0.41510    0.47680    1.000
    C202     C        0.50257    0.38143    0.51090    1.000
    C203     C        0.50300    0.38319    0.64800    1.000
    H106     H        0.47750    0.39650    0.69160    1.000
    C204     C        0.53848    0.36648    0.71470    1.000
    H107     H        0.53790    0.36820    0.80500    1.000
    C205     C        0.57674    0.34638    0.65360    1.000
    C206     C        0.61630    0.33001    0.71850    1.000
    H108     H        0.61720    0.33100    0.80880    1.000
    C207     C        0.65300    0.31290    0.65350    1.000
    H109     H        0.68010    0.30300    0.69690    1.000
    C208     C        0.65004    0.31023    0.52050    1.000
    H110     H        0.67560    0.29790    0.47510    1.000
    C209     C        0.57752    0.34281    0.51870    1.000
    C210     C        0.53986    0.36118    0.44680    1.000
    N19      N        0.54266    0.35927    0.31750    1.000
    N20      N        0.61328    0.32399    0.45440    1.000
    O64      O        0.55127    0.18365    0.19270    1.000
    O65      O        0.56632    0.25465    0.26770    1.000
    O66      O        0.47086    0.18075    0.33380    1.000
    O67      O        0.39794    0.11794    0.38490    1.000
    O68      O        0.36624    0.17031    0.50980    1.000
    O69      O        0.66918    0.26610    0.27110    1.000
    O70      O        0.64857    0.19380    0.21770    1.000
    Y11      Y        0.89105    0.18338    0.71448    1.000
    C211     C        0.95812    0.28166    0.75940    1.000
    C212     C        0.00107    0.28103    0.83310    1.000
    C213     C        0.02027    0.24707    0.90330    1.000
    H111     H        0.00780    0.21710    0.91720    1.000
    C214     C        0.06244    0.26440    0.95270    1.000
    H112     H        0.08390    0.24840    0.00510    1.000
    C215     C        0.06599    0.30815    0.91040    1.000
    C216     C        0.10234    0.34283    0.93530    1.000
    C217     C        0.82472    0.27673    0.76600    1.000
    C218     C        0.78261    0.29719    0.82270    1.000
    C219     C        0.77097    0.34212    0.84070    1.000
    H113     H        0.78770    0.36840    0.81260    1.000
    C220     C        0.99061    0.12184    0.75050    1.000
    H114     H        0.98850    0.12250    0.66040    1.000
    C221     C        0.02909    0.10080    0.80620    1.000
    H115     H        0.05280    0.08780    0.75490    1.000
    C222     C        0.03202    0.09920    0.93720    1.000
    H116     H        0.05780    0.08490    0.97680    1.000
    C223     C        0.99743    0.11857    0.01090    1.000
    C224     C        0.99700    0.11681    0.14800    1.000
    H117     H        0.02250    0.10350    0.19160    1.000
    C225     C        0.96152    0.13352    0.21470    1.000
    H118     H        0.96210    0.13180    0.30500    1.000
    C226     C        0.92326    0.15362    0.15360    1.000
    C227     C        0.88370    0.16999    0.21850    1.000
    H119     H        0.88280    0.16900    0.30880    1.000
    C228     C        0.84700    0.18710    0.15350    1.000
    H120     H        0.81990    0.19700    0.19690    1.000
    C229     C        0.84996    0.18977    0.02050    1.000
    H121     H        0.82440    0.20210    0.97510    1.000
    C230     C        0.92248    0.15719    0.01870    1.000
    C231     C        0.96014    0.13882    0.94680    1.000
    N21      N        0.95734    0.14073    0.81750    1.000
    N22      N        0.88672    0.17601    0.95440    1.000
    O71      O        0.94873    0.31635    0.69270    1.000
    O72      O        0.93368    0.24535    0.76770    1.000
    O73      O        0.02914    0.31925    0.83380    1.000
    O74      O        0.10206    0.38206    0.88490    1.000
    O75      O        0.13376    0.32969    0.00980    1.000
    O76      O        0.83082    0.23390    0.77110    1.000
    O77      O        0.85143    0.30620    0.71770    1.000
    Y12      Y        0.39105    0.68338    0.21448    1.000
    C232     C        0.45812    0.78166    0.25940    1.000
    C233     C        0.50107    0.78103    0.33310    1.000
    C234     C        0.52027    0.74707    0.40330    1.000
    H122     H        0.50780    0.71710    0.41720    1.000
    C235     C        0.56244    0.76440    0.45270    1.000
    H123     H        0.58390    0.74840    0.50510    1.000
    C236     C        0.56599    0.80815    0.41040    1.000
    C237     C        0.60234    0.84283    0.43530    1.000
    C238     C        0.32472    0.77673    0.26600    1.000
    C239     C        0.28261    0.79719    0.32270    1.000
    C240     C        0.27097    0.84212    0.34070    1.000
    H124     H        0.28770    0.86840    0.31260    1.000
    C241     C        0.49061    0.62184    0.25050    1.000
    H125     H        0.48850    0.62250    0.16040    1.000
    C242     C        0.52909    0.60080    0.30620    1.000
    H126     H        0.55280    0.58780    0.25490    1.000
    C243     C        0.53202    0.59920    0.43720    1.000
    H127     H        0.55780    0.58490    0.47680    1.000
    C244     C        0.49743    0.61857    0.51090    1.000
    C245     C        0.49700    0.61681    0.64800    1.000
    H128     H        0.52250    0.60350    0.69160    1.000
    C246     C        0.46152    0.63352    0.71470    1.000
    H129     H        0.46210    0.63180    0.80500    1.000
    C247     C        0.42326    0.65362    0.65360    1.000
    C248     C        0.38370    0.66999    0.71850    1.000
    H130     H        0.38280    0.66900    0.80880    1.000
    C249     C        0.34700    0.68710    0.65350    1.000
    H131     H        0.31990    0.69700    0.69690    1.000
    C250     C        0.34996    0.68977    0.52050    1.000
    H132     H        0.32440    0.70210    0.47510    1.000
    C251     C        0.42248    0.65719    0.51870    1.000
    C252     C        0.46014    0.63882    0.44680    1.000
    N23      N        0.45734    0.64073    0.31750    1.000
    N24      N        0.38672    0.67601    0.45440    1.000
    O78      O        0.44873    0.81635    0.19270    1.000
    O79      O        0.43368    0.74535    0.26770    1.000
    O80      O        0.52914    0.81925    0.33380    1.000
    O81      O        0.60206    0.88206    0.38490    1.000
    O82      O        0.63376    0.82969    0.50980    1.000
    O83      O        0.33082    0.73390    0.27110    1.000
    O84      O        0.35143    0.80620    0.21770    1.000
    Y13      Y        0.68338    0.60895    0.78552    1.000
    C253     C        0.78166    0.54188    0.74060    1.000
    C254     C        0.78103    0.49893    0.66690    1.000
    C255     C        0.74707    0.47973    0.59670    1.000
    H133     H        0.71710    0.49220    0.58280    1.000
    C256     C        0.76440    0.43756    0.54730    1.000
    H134     H        0.74840    0.41610    0.49490    1.000
    C257     C        0.80815    0.43401    0.58960    1.000
    C258     C        0.84283    0.39766    0.56470    1.000
    C259     C        0.77673    0.67528    0.73400    1.000
    C260     C        0.79719    0.71739    0.67730    1.000
    C261     C        0.84212    0.72903    0.65930    1.000
    H135     H        0.86840    0.71230    0.68740    1.000
    C262     C        0.62184    0.50939    0.74950    1.000
    H136     H        0.62250    0.51150    0.83960    1.000
    C263     C        0.60080    0.47091    0.69380    1.000
    H137     H        0.58780    0.44720    0.74510    1.000
    C264     C        0.59920    0.46798    0.56280    1.000
    H138     H        0.58490    0.44220    0.52320    1.000
    C265     C        0.61857    0.50257    0.48910    1.000
    C266     C        0.61681    0.50300    0.35200    1.000
    H139     H        0.60350    0.47750    0.30840    1.000
    C267     C        0.63352    0.53848    0.28530    1.000
    H140     H        0.63180    0.53790    0.19500    1.000
    C268     C        0.65362    0.57674    0.34640    1.000
    C269     C        0.66999    0.61630    0.28150    1.000
    H141     H        0.66900    0.61720    0.19120    1.000
    C270     C        0.68710    0.65300    0.34650    1.000
    H142     H        0.69700    0.68010    0.30310    1.000
    C271     C        0.68977    0.65004    0.47950    1.000
    H143     H        0.70210    0.67560    0.52490    1.000
    C272     C        0.65719    0.57752    0.48130    1.000
    C273     C        0.63882    0.53986    0.55320    1.000
    N25      N        0.64073    0.54266    0.68250    1.000
    N26      N        0.67601    0.61328    0.54560    1.000
    O85      O        0.81635    0.55127    0.80730    1.000
    O86      O        0.74535    0.56632    0.73230    1.000
    O87      O        0.81925    0.47086    0.66620    1.000
    O88      O        0.88206    0.39794    0.61510    1.000
    O89      O        0.82969    0.36624    0.49020    1.000
    O90      O        0.73390    0.66918    0.72890    1.000
    O91      O        0.80620    0.64857    0.78230    1.000
    Y14      Y        0.18338    0.10895    0.28552    1.000
    C274     C        0.28166    0.04188    0.24060    1.000
    C275     C        0.28103    0.99893    0.16690    1.000
    C276     C        0.24707    0.97973    0.09670    1.000
    H144     H        0.21710    0.99220    0.08280    1.000
    C277     C        0.26440    0.93756    0.04730    1.000
    H145     H        0.24840    0.91610    0.99490    1.000
    C278     C        0.30815    0.93401    0.08960    1.000
    C279     C        0.34283    0.89766    0.06470    1.000
    C280     C        0.27673    0.17528    0.23400    1.000
    C281     C        0.29719    0.21739    0.17730    1.000
    C282     C        0.34212    0.22903    0.15930    1.000
    H146     H        0.36840    0.21230    0.18740    1.000
    C283     C        0.12184    0.00939    0.24950    1.000
    H147     H        0.12250    0.01150    0.33960    1.000
    C284     C        0.10080    0.97091    0.19380    1.000
    H148     H        0.08780    0.94720    0.24510    1.000
    C285     C        0.09920    0.96798    0.06280    1.000
    H149     H        0.08490    0.94220    0.02320    1.000
    C286     C        0.11857    0.00257    0.98910    1.000
    C287     C        0.11681    0.00300    0.85200    1.000
    H150     H        0.10350    0.97750    0.80840    1.000
    C288     C        0.13352    0.03848    0.78530    1.000
    H151     H        0.13180    0.03790    0.69500    1.000
    C289     C        0.15362    0.07674    0.84640    1.000
    C290     C        0.16999    0.11630    0.78150    1.000
    H152     H        0.16900    0.11720    0.69120    1.000
    C291     C        0.18710    0.15300    0.84650    1.000
    H153     H        0.19700    0.18010    0.80310    1.000
    C292     C        0.18977    0.15004    0.97950    1.000
    H154     H        0.20210    0.17560    0.02490    1.000
    C293     C        0.15719    0.07752    0.98130    1.000
    C294     C        0.13882    0.03986    0.05320    1.000
    N27      N        0.14073    0.04266    0.18250    1.000
    N28      N        0.17601    0.11328    0.04560    1.000
    O92      O        0.31635    0.05127    0.30730    1.000
    O93      O        0.24535    0.06632    0.23230    1.000
    O94      O        0.31925    0.97086    0.16620    1.000
    O95      O        0.38206    0.89794    0.11510    1.000
    O96      O        0.32969    0.86624    0.99020    1.000
    O97      O        0.23390    0.16918    0.22890    1.000
    O98      O        0.30620    0.14857    0.28230    1.000
    Y15      Y        0.31662    0.39105    0.78552    1.000
    C295     C        0.21834    0.45812    0.74060    1.000
    C296     C        0.21897    0.50107    0.66690    1.000
    C297     C        0.25293    0.52027    0.59670    1.000
    H155     H        0.28290    0.50780    0.58280    1.000
    C298     C        0.23560    0.56244    0.54730    1.000
    H156     H        0.25160    0.58390    0.49490    1.000
    C299     C        0.19185    0.56599    0.58960    1.000
    C300     C        0.15717    0.60234    0.56470    1.000
    C301     C        0.22327    0.32472    0.73400    1.000
    C302     C        0.20281    0.28261    0.67730    1.000
    C303     C        0.15788    0.27097    0.65930    1.000
    H157     H        0.13160    0.28770    0.68740    1.000
    C304     C        0.37816    0.49061    0.74950    1.000
    H158     H        0.37750    0.48850    0.83960    1.000
    C305     C        0.39920    0.52909    0.69380    1.000
    H159     H        0.41220    0.55280    0.74510    1.000
    C306     C        0.40080    0.53202    0.56280    1.000
    H160     H        0.41510    0.55780    0.52320    1.000
    C307     C        0.38143    0.49743    0.48910    1.000
    C308     C        0.38319    0.49700    0.35200    1.000
    H161     H        0.39650    0.52250    0.30840    1.000
    C309     C        0.36648    0.46152    0.28530    1.000
    H162     H        0.36820    0.46210    0.19500    1.000
    C310     C        0.34638    0.42326    0.34640    1.000
    C311     C        0.33001    0.38370    0.28150    1.000
    H163     H        0.33100    0.38280    0.19120    1.000
    C312     C        0.31290    0.34700    0.34650    1.000
    H164     H        0.30300    0.31990    0.30310    1.000
    C313     C        0.31023    0.34996    0.47950    1.000
    H165     H        0.29790    0.32440    0.52490    1.000
    C314     C        0.34281    0.42248    0.48130    1.000
    C315     C        0.36118    0.46014    0.55320    1.000
    N29      N        0.35927    0.45734    0.68250    1.000
    N30      N        0.32399    0.38672    0.54560    1.000
    O99      O        0.18365    0.44873    0.80730    1.000
    O100     O        0.25465    0.43368    0.73230    1.000
    O101     O        0.18075    0.52914    0.66620    1.000
    O102     O        0.11794    0.60206    0.61510    1.000
    O103     O        0.17031    0.63376    0.49020    1.000
    O104     O        0.26610    0.33082    0.72890    1.000
    O105     O        0.19380    0.35143    0.78230    1.000
    Y16      Y        0.81662    0.89105    0.28552    1.000
    C316     C        0.71834    0.95812    0.24060    1.000
    C317     C        0.71897    0.00107    0.16690    1.000
    C318     C        0.75293    0.02027    0.09670    1.000
    H166     H        0.78290    0.00780    0.08280    1.000
    C319     C        0.73560    0.06244    0.04730    1.000
    H167     H        0.75160    0.08390    0.99490    1.000
    C320     C        0.69185    0.06599    0.08960    1.000
    C321     C        0.65717    0.10234    0.06470    1.000
    C322     C        0.72327    0.82472    0.23400    1.000
    C323     C        0.70281    0.78261    0.17730    1.000
    C324     C        0.65788    0.77097    0.15930    1.000
    H168     H        0.63160    0.78770    0.18740    1.000
    C325     C        0.87816    0.99061    0.24950    1.000
    H169     H        0.87750    0.98850    0.33960    1.000
    C326     C        0.89920    0.02909    0.19380    1.000
    H170     H        0.91220    0.05280    0.24510    1.000
    C327     C        0.90080    0.03202    0.06280    1.000
    H171     H        0.91510    0.05780    0.02320    1.000
    C328     C        0.88143    0.99743    0.98910    1.000
    C329     C        0.88319    0.99700    0.85200    1.000
    H172     H        0.89650    0.02250    0.80840    1.000
    C330     C        0.86648    0.96152    0.78530    1.000
    H173     H        0.86820    0.96210    0.69500    1.000
    C331     C        0.84638    0.92326    0.84640    1.000
    C332     C        0.83001    0.88370    0.78150    1.000
    H174     H        0.83100    0.88280    0.69120    1.000
    C333     C        0.81290    0.84700    0.84650    1.000
    H175     H        0.80300    0.81990    0.80310    1.000
    C334     C        0.81023    0.84996    0.97950    1.000
    H176     H        0.79790    0.82440    0.02490    1.000
    C335     C        0.84281    0.92248    0.98130    1.000
    C336     C        0.86118    0.96014    0.05320    1.000
    N31      N        0.85927    0.95734    0.18250    1.000
    N32      N        0.82399    0.88672    0.04560    1.000
    O106     O        0.68365    0.94873    0.30730    1.000
    O107     O        0.75465    0.93368    0.23230    1.000
    O108     O        0.68075    0.02914    0.16620    1.000
    O109     O        0.61794    0.10206    0.11510    1.000
    O110     O        0.67031    0.13376    0.99020    1.000
    O111     O        0.76610    0.83082    0.22890    1.000
    O112     O        0.69380    0.85143    0.28230    1.000
    O113     O        0.25000    0.73153    0.87500    1.000
    O114     O        0.75000    0.23153    0.37500    1.000
    O115     O        0.75000    0.26847    0.87500    1.000
    O116     O        0.25000    0.76847    0.37500    1.000
    O117     O        0.73153    0.75000    0.12500    1.000
    O118     O        0.26847    0.25000    0.12500    1.000
    O119     O        0.76847    0.75000    0.62500    1.000
    O120     O        0.23153    0.25000    0.62500    1.000
