# CIF file generated by openbabel 3.1.0, see https://openbabel.org
data_I
_chemical_name_common 'image0'
_cell_length_a 6.3773
_cell_length_b 6.9719
_cell_length_c 15.5118
_cell_angle_alpha 78.963
_cell_angle_beta 87.657
_cell_angle_gamma 71.99
_space_group_name_H-M_alt 'P 1'
_space_group_name_Hall 'P 1'
loop_
    _symmetry_equiv_pos_as_xyz
    x,y,z
loop_
    _atom_site_label
    _atom_site_type_symbol
    _atom_site_fract_x
    _atom_site_fract_y
    _atom_site_fract_z
    _atom_site_occupancy
    La1      La       0.29202    0.93712    0.25822    1.000
    O1       O        0.66130    0.99030    0.27630    1.000
    O2       O        0.95320    0.98640    0.35296    1.000
    O3       O        0.51830    0.79620    0.13646    1.000
    O4       O        0.71080    0.46680    0.18490    1.000
    O5       O        0.84640    0.36160    0.75144    1.000
    O6       O        0.80710    0.69690    0.71572    1.000
    N1       N        0.42830    0.95830    0.42366    1.000
    N2       N        0.78470    0.40620    0.01686    1.000
    N3       N        0.70770    0.74730    0.88117    1.000
    C1       C        0.75680    0.99190    0.34523    1.000
    C2       C        0.61870    0.99860    0.42729    1.000
    C3       C        0.31050    0.95820    0.49720    1.000
    C4       C        0.64210    0.62070    0.12670    1.000
    C5       C        0.70210    0.59730    0.03238    1.000
    C6       C        0.82190    0.38640    0.93320    1.000
    C7       C        0.81390    0.53520    0.76960    1.000
    C8       C        0.77790    0.55590    0.86486    1.000
    C9       C        0.67030    0.76700    0.96460    1.000
    H1       H        0.18200    0.91800    0.49600    1.000
    H2       H        0.87890    0.25560    0.92010    1.000
    H3       H        0.62140    0.89800    0.97790    1.000
    La2      La       0.70798    0.06288    0.74178    1.000
    O7       O        0.33870    0.00970    0.72370    1.000
    O8       O        0.04680    0.01360    0.64704    1.000
    O9       O        0.48170    0.20380    0.86354    1.000
    O10      O        0.28920    0.53320    0.81510    1.000
    O11      O        0.15360    0.63840    0.24856    1.000
    O12      O        0.19290    0.30310    0.28428    1.000
    N4       N        0.57170    0.04170    0.57634    1.000
    N5       N        0.21530    0.59380    0.98314    1.000
    N6       N        0.29230    0.25270    0.11883    1.000
    C10      C        0.24320    0.00810    0.65477    1.000
    C11      C        0.38130    0.00140    0.57271    1.000
    C12      C        0.68950    0.04180    0.50280    1.000
    C13      C        0.35790    0.37930    0.87330    1.000
    C14      C        0.29790    0.40270    0.96762    1.000
    C15      C        0.17810    0.61360    0.06680    1.000
    C16      C        0.18610    0.46480    0.23040    1.000
    C17      C        0.22210    0.44410    0.13514    1.000
    C18      C        0.32970    0.23300    0.03540    1.000
    H4       H        0.81800    0.08200    0.50400    1.000
    H5       H        0.12110    0.74440    0.07990    1.000
    H6       H        0.37860    0.10200    0.02210    1.000
