data_functionalizedCrystal
_audit_creation_method	'EQeq! by Chris Wilmer'
_symmetry_space_group_name_H-M	'P1'
_symmetry_Int_Tables_number	1
_symmetry_cell_setting	triclinic
loop_
_symmetry_equiv_pos_as_xyz
  x,y,z
_cell_length_a	18.206
_cell_length_b	18.32
_cell_length_c	14.765
_cell_angle_alpha	90
_cell_angle_beta	92.161
_cell_angle_gamma	90
loop_
_atom_site_label
_atom_site_type_symbol
_atom_site_fract_x
_atom_site_fract_y
_atom_site_fract_z
_atom_site_charge
Mof_Zn	Zn	0.32735	0.26152	0.77448	1.181
Mof_C 	C 	0.1541	0.3014	0.8024	0.106
Mof_C 	C 	0.1498	0.2832	0.898	-0.008
Mof_C 	C 	0.1703	0.2152	0.9308	-0.103
Mof_H 	H 	0.1819	0.1774	0.8897	0.05
Mof_C 	C 	0.1311	0.3345	0.9625	-0.102
Mof_H 	H 	0.1146	0.3813	0.9432	0.06
Mof_C 	C 	0.1738	0.2019	0.0221	0.061
Mof_H 	H 	0.1877	0.1546	0.043	0.007
Mof_C 	C 	0.136	0.3191	0.0518	0.056
Mof_H 	H 	0.1232	0.3557	0.0939	-0.022
Mof_C 	C 	0.1993	0.3119	0.6707	-0.055
Mof_C 	C 	0.1304	0.3404	0.6662	-0.046
Mof_C 	C 	0.0853	0.3731	0.591	0.302
Mof_C 	C 	0.2555	0.3076	0.6027	0.362
Mof_C 	C 	0.4109	0.3972	0.7655	0.276
Mof_C 	C 	0.462	0.3384	0.7554	-0.018
Mof_C 	C 	0.4757	0.0333	0.6772	0.056
Mof_H 	H 	0.4592	0.0074	0.6245	0.016
Mof_C 	C 	0.4734	0.1086	0.6746	-0.113
Mof_H 	H 	0.454	0.1335	0.6225	0.088
Mof_N 	N 	0.1582	0.2535	0.0832	-0.256
Mof_N 	N 	0.2153	0.2867	0.7557	-0.236
Mof_N 	N 	0.1008	0.3347	0.751	-0.256
Mof_N 	N 	0.4396	0.2681	0.7566	-0.241
Mof_O 	O 	0.1139	0.3817	0.5163	-0.282
Mof_O 	O 	0.02	0.3883	0.6085	-0.428
Mof_O 	O 	0.2419	0.3341	0.5228	-0.433
Mof_H 	H 	0.2009	0.3553	0.5216	0.287
Mof_O 	O 	0.316	0.2793	0.6245	-0.372
Mof_O 	O 	0.3452	0.3807	0.7799	-0.361
Mof_O 	O 	0.4333	0.4635	0.7601	-0.187
Mof_Zn	Zn	0.82735	0.76152	0.77448	1.183
Mof_C 	C 	0.6541	0.8014	0.8024	0.111
Mof_C 	C 	0.6498	0.7832	0.898	-0.005
Mof_C 	C 	0.6703	0.7152	0.9308	-0.096
Mof_H 	H 	0.6819	0.6774	0.8897	0.054
Mof_C 	C 	0.6311	0.8345	0.9625	-0.093
Mof_H 	H 	0.6146	0.8813	0.9432	0.068
Mof_C 	C 	0.6738	0.7019	0.0221	0.06
Mof_H 	H 	0.6877	0.6546	0.043	0.009
Mof_C 	C 	0.636	0.8191	0.0518	0.057
Mof_H 	H 	0.6232	0.8557	0.0939	-0.015
Mof_C 	C 	0.6993	0.8119	0.6707	-0.054
Mof_C 	C 	0.6304	0.8404	0.6662	-0.041
Mof_C 	C 	0.5853	0.8731	0.591	0.3
Mof_C 	C 	0.7555	0.8076	0.6027	0.362
Mof_C 	C 	0.9109	0.8972	0.7655	0.257
Mof_C 	C 	0.962	0.8384	0.7554	0.049
Mof_C 	C 	0.9757	0.5333	0.6772	0.089
Mof_H 	H 	0.9592	0.5074	0.6245	0.02
Mof_C 	C 	0.9734	0.6086	0.6746	-0.049
Mof_H 	H 	0.954	0.6335	0.6225	0.08
Mof_N 	N 	0.6582	0.7535	0.0832	-0.254
Mof_N 	N 	0.7153	0.7867	0.7557	-0.235
Mof_N 	N 	0.6008	0.8347	0.751	-0.251
Mof_N 	N 	0.9396	0.7681	0.7566	-0.225
Mof_O 	O 	0.6139	0.8817	0.5163	-0.275
Mof_O 	O 	0.52	0.8883	0.6085	-0.403
Mof_O 	O 	0.7419	0.8341	0.5228	-0.429
Mof_H 	H 	0.7009	0.8553	0.5216	0.287
Mof_O 	O 	0.816	0.7793	0.6245	-0.367
Mof_O 	O 	0.8452	0.8807	0.7799	-0.353
Mof_O 	O 	0.9333	0.9635	0.7601	-0.161
Mof_Zn	Zn	0.67265	0.26152	0.72552	1.182
Mof_C 	C 	0.8459	0.3014	0.6976	0.114
Mof_C 	C 	0.8502	0.2832	0.602	0.003
Mof_C 	C 	0.8297	0.2152	0.5692	-0.097
Mof_H 	H 	0.8181	0.1774	0.6103	0.057
Mof_C 	C 	0.8689	0.3345	0.5375	-0.092
Mof_H 	H 	0.8854	0.3813	0.5568	0.077
Mof_C 	C 	0.8262	0.2019	0.4779	0.066
Mof_H 	H 	0.8123	0.1546	0.457	0.01
Mof_C 	C 	0.864	0.3191	0.4482	0.064
Mof_H 	H 	0.8768	0.3557	0.4061	-0.008
Mof_C 	C 	0.8007	0.3119	0.8293	-0.055
Mof_C 	C 	0.8696	0.3404	0.8338	-0.033
Mof_C 	C 	0.9147	0.3731	0.909	0.298
Mof_C 	C 	0.7445	0.3076	0.8973	0.365
Mof_C 	C 	0.5891	0.3972	0.7345	0.276
Mof_C 	C 	0.538	0.3384	0.7446	-0.018
Mof_C 	C 	0.5243	0.0333	0.8228	0.056
Mof_H 	H 	0.5408	0.0074	0.8755	0.016
Mof_C 	C 	0.5266	0.1086	0.8254	-0.113
Mof_H 	H 	0.546	0.1335	0.8775	0.088
Mof_N 	N 	0.8418	0.2535	0.4168	-0.252
Mof_N 	N 	0.7847	0.2867	0.7443	-0.235
Mof_N 	N 	0.8992	0.3347	0.749	-0.241
Mof_N 	N 	0.5604	0.2681	0.7434	-0.241
Mof_O 	O 	0.8861	0.3817	0.9837	-0.268
Mof_O 	O 	0.98	0.3883	0.8915	-0.371
Mof_O 	O 	0.7581	0.3341	0.9772	-0.433
Mof_H 	H 	0.7991	0.3553	0.9784	0.288
Mof_O 	O 	0.684	0.2793	0.8755	-0.372
Mof_O 	O 	0.6548	0.3807	0.7201	-0.361
Mof_O 	O 	0.5667	0.4635	0.7399	-0.187
Mof_Zn	Zn	0.17265	0.76152	0.72552	1.182
Mof_C 	C 	0.3459	0.8014	0.6976	0.11
Mof_C 	C 	0.3502	0.7832	0.602	-0.004
Mof_C 	C 	0.3297	0.7152	0.5692	-0.097
Mof_H 	H 	0.3181	0.6774	0.6103	0.053
Mof_C 	C 	0.3689	0.8345	0.5375	-0.094
Mof_H 	H 	0.3854	0.8813	0.5568	0.067
Mof_C 	C 	0.3262	0.7019	0.4779	0.062
Mof_H 	H 	0.3123	0.6546	0.457	0.009
Mof_C 	C 	0.364	0.8191	0.4482	0.058
Mof_H 	H 	0.3768	0.8557	0.4061	-0.016
Mof_C 	C 	0.3007	0.8119	0.8293	-0.055
Mof_C 	C 	0.3696	0.8404	0.8338	-0.041
Mof_C 	C 	0.4147	0.8731	0.909	0.3
Mof_C 	C 	0.2445	0.8076	0.8973	0.364
Mof_C 	C 	0.0891	0.8972	0.7345	0.295
Mof_C 	C 	0.038	0.8384	0.7446	-0.083
Mof_C 	C 	0.0243	0.5333	0.8228	0.036
Mof_H 	H 	0.0408	0.5074	0.8755	0.012
Mof_C 	C 	0.0266	0.6086	0.8254	-0.098
Mof_H 	H 	0.046	0.6335	0.8775	0.077
Mof_N 	N 	0.3418	0.7535	0.4168	-0.254
Mof_N 	N 	0.2847	0.7867	0.7443	-0.235
Mof_N 	N 	0.3992	0.8347	0.749	-0.251
Mof_N 	N 	0.0604	0.7681	0.7434	-0.231
Mof_O 	O 	0.3861	0.8817	0.9837	-0.277
Mof_O 	O 	0.48	0.8883	0.8915	-0.403
Mof_O 	O 	0.2581	0.8341	0.9772	-0.436
Mof_H 	H 	0.2991	0.8553	0.9784	0.287
Mof_O 	O 	0.184	0.7793	0.8755	-0.375
Mof_O 	O 	0.1548	0.8807	0.7201	-0.369
Mof_O 	O 	0.0667	0.9635	0.7399	-0.212
Mof_Zn	Zn	0.67265	0.73848	0.22552	1.182
Mof_C 	C 	0.8459	0.6986	0.1976	0.113
Mof_C 	C 	0.8502	0.7168	0.102	0.004
Mof_C 	C 	0.8297	0.7848	0.0692	-0.098
Mof_H 	H 	0.8181	0.8226	0.1103	0.057
Mof_C 	C 	0.8689	0.6655	0.0375	-0.094
Mof_H 	H 	0.8854	0.6187	0.0568	0.077
Mof_C 	C 	0.8262	0.7981	0.9779	0.067
Mof_H 	H 	0.8123	0.8454	0.957	0.01
Mof_C 	C 	0.864	0.6809	0.9482	0.065
Mof_H 	H 	0.8768	0.6443	0.9061	-0.008
Mof_C 	C 	0.8007	0.6881	0.3293	-0.055
Mof_C 	C 	0.8696	0.6596	0.3338	-0.033
Mof_C 	C 	0.9147	0.6269	0.409	0.297
Mof_C 	C 	0.7445	0.6924	0.3973	0.365
Mof_C 	C 	0.5891	0.6028	0.2345	0.276
Mof_C 	C 	0.538	0.6616	0.2446	-0.018
Mof_C 	C 	0.5243	0.9667	0.3228	0.057
Mof_H 	H 	0.5408	0.9926	0.3755	0.016
Mof_C 	C 	0.5266	0.8914	0.3254	-0.113
Mof_H 	H 	0.546	0.8665	0.3775	0.088
Mof_N 	N 	0.8418	0.7465	0.9168	-0.253
Mof_N 	N 	0.7847	0.7133	0.2443	-0.235
Mof_N 	N 	0.8992	0.6653	0.249	-0.241
Mof_N 	N 	0.5604	0.7319	0.2434	-0.241
Mof_O 	O 	0.8861	0.6183	0.4837	-0.268
Mof_O 	O 	0.98	0.6117	0.3915	-0.37
Mof_O 	O 	0.7581	0.6659	0.4772	-0.432
Mof_H 	H 	0.7991	0.6447	0.4784	0.288
Mof_O 	O 	0.684	0.7207	0.3755	-0.372
Mof_O 	O 	0.6548	0.6193	0.2201	-0.361
Mof_O 	O 	0.5667	0.5365	0.2399	-0.186
Mof_Zn	Zn	0.17265	0.23848	0.22552	1.182
Mof_C 	C 	0.3459	0.1986	0.1976	0.111
Mof_C 	C 	0.3502	0.2168	0.102	-0.006
Mof_C 	C 	0.3297	0.2848	0.0692	-0.093
Mof_H 	H 	0.3181	0.3226	0.1103	0.052
Mof_C 	C 	0.3689	0.1655	0.0375	-0.091
Mof_H 	H 	0.3854	0.1187	0.0568	0.066
Mof_C 	C 	0.3262	0.2981	0.9779	0.059
Mof_H 	H 	0.3123	0.3454	0.957	0.009
Mof_C 	C 	0.364	0.1809	0.9482	0.054
Mof_H 	H 	0.3768	0.1443	0.9061	-0.015
Mof_C 	C 	0.3007	0.1881	0.3293	-0.055
Mof_C 	C 	0.3696	0.1596	0.3338	-0.041
Mof_C 	C 	0.4147	0.1269	0.409	0.3
Mof_C 	C 	0.2445	0.1924	0.3973	0.364
Mof_C 	C 	0.0891	0.1028	0.2345	0.295
Mof_C 	C 	0.038	0.1616	0.2446	-0.082
Mof_C 	C 	0.0243	0.4667	0.3228	0.036
Mof_H 	H 	0.0408	0.4926	0.3755	0.012
Mof_C 	C 	0.0266	0.3914	0.3254	-0.098
Mof_H 	H 	0.046	0.3665	0.3775	0.077
Mof_N 	N 	0.3418	0.2465	0.9168	-0.253
Mof_N 	N 	0.2847	0.2133	0.2443	-0.235
Mof_N 	N 	0.3992	0.1653	0.249	-0.251
Mof_N 	N 	0.0604	0.2319	0.2434	-0.231
Mof_O 	O 	0.3861	0.1183	0.4837	-0.277
Mof_O 	O 	0.48	0.1117	0.3915	-0.403
Mof_O 	O 	0.2581	0.1659	0.4772	-0.436
Mof_H 	H 	0.2991	0.1447	0.4784	0.287
Mof_O 	O 	0.184	0.2207	0.3755	-0.375
Mof_O 	O 	0.1548	0.1193	0.2201	-0.369
Mof_O 	O 	0.0667	0.0365	0.2399	-0.212
Mof_Zn	Zn	0.32735	0.73848	0.27448	1.182
Mof_C 	C 	0.1541	0.6986	0.3024	0.108
Mof_C 	C 	0.1498	0.7168	0.398	-0.01
Mof_C 	C 	0.1703	0.7848	0.4308	-0.098
Mof_H 	H 	0.1819	0.8226	0.3897	0.05
Mof_C 	C 	0.1311	0.6655	0.4625	-0.097
Mof_H 	H 	0.1146	0.6187	0.4432	0.06
Mof_C 	C 	0.1738	0.7981	0.5221	0.057
Mof_H 	H 	0.1877	0.8454	0.543	0.007
Mof_C 	C 	0.136	0.6809	0.5518	0.053
Mof_H 	H 	0.1232	0.6443	0.5939	-0.021
Mof_C 	C 	0.1993	0.6881	0.1707	-0.055
Mof_C 	C 	0.1304	0.6596	0.1662	-0.046
Mof_C 	C 	0.0853	0.6269	0.091	0.302
Mof_C 	C 	0.2555	0.6924	0.1027	0.362
Mof_C 	C 	0.4109	0.6028	0.2655	0.276
Mof_C 	C 	0.462	0.6616	0.2554	-0.018
Mof_C 	C 	0.4757	0.9667	0.1772	0.056
Mof_H 	H 	0.4592	0.9926	0.1245	0.016
Mof_C 	C 	0.4734	0.8914	0.1746	-0.113
Mof_H 	H 	0.454	0.8665	0.1225	0.088
Mof_N 	N 	0.1582	0.7465	0.5832	-0.255
Mof_N 	N 	0.2153	0.7133	0.2557	-0.236
Mof_N 	N 	0.1008	0.6653	0.251	-0.256
Mof_N 	N 	0.4396	0.7319	0.2566	-0.241
Mof_O 	O 	0.1139	0.6183	0.0163	-0.282
Mof_O 	O 	0.02	0.6117	0.1085	-0.427
Mof_O 	O 	0.2419	0.6659	0.0228	-0.433
Mof_H 	H 	0.2009	0.6447	0.0216	0.287
Mof_O 	O 	0.316	0.7207	0.1245	-0.373
Mof_O 	O 	0.3452	0.6193	0.2799	-0.361
Mof_O 	O 	0.4333	0.5365	0.2601	-0.187
Mof_Zn	Zn	0.82735	0.23848	0.27448	1.183
Mof_C 	C 	0.6541	0.1986	0.3024	0.111
Mof_C 	C 	0.6498	0.2168	0.398	-0.004
Mof_C 	C 	0.6703	0.2848	0.4308	-0.097
Mof_H 	H 	0.6819	0.3226	0.3897	0.054
Mof_C 	C 	0.6311	0.1655	0.4625	-0.094
Mof_H 	H 	0.6146	0.1187	0.4432	0.068
Mof_C 	C 	0.6738	0.2981	0.5221	0.061
Mof_H 	H 	0.6877	0.3454	0.543	0.009
Mof_C 	C 	0.636	0.1809	0.5518	0.058
Mof_H 	H 	0.6232	0.1443	0.5939	-0.015
Mof_C 	C 	0.6993	0.1881	0.1707	-0.054
Mof_C 	C 	0.6304	0.1596	0.1662	-0.041
Mof_C 	C 	0.5853	0.1269	0.091	0.3
Mof_C 	C 	0.7555	0.1924	0.1027	0.362
Mof_C 	C 	0.9109	0.1028	0.2655	0.257
Mof_C 	C 	0.962	0.1616	0.2554	0.049
Mof_C 	C 	0.9757	0.4667	0.1772	0.088
Mof_H 	H 	0.9592	0.4926	0.1245	0.02
Mof_C 	C 	0.9734	0.3914	0.1746	-0.05
Mof_H 	H 	0.954	0.3665	0.1225	0.08
Mof_N 	N 	0.6582	0.2465	0.5832	-0.254
Mof_N 	N 	0.7153	0.2133	0.2557	-0.235
Mof_N 	N 	0.6008	0.1653	0.251	-0.251
Mof_N 	N 	0.9396	0.2319	0.2566	-0.225
Mof_O 	O 	0.6139	0.1183	0.0163	-0.275
Mof_O 	O 	0.52	0.1117	0.1085	-0.403
Mof_O 	O 	0.7419	0.1659	0.0228	-0.429
Mof_H 	H 	0.7009	0.1447	0.0216	0.287
Mof_O 	O 	0.816	0.2207	0.1245	-0.367
Mof_O 	O 	0.8452	0.1193	0.2799	-0.353
Mof_O 	O 	0.9333	0.0365	0.2601	-0.161
Mof_Zn	Zn	2.88772e-18	0.38173	0.75	1.183
Mof_Zn	Zn	0.5	0.88173	0.75	1.196
Mof_Zn	Zn	7.88852e-34	0.61827	0.25	1.183
Mof_Zn	Zn	0.5	0.11827	0.25	1.196
Mof_C 	C 	0.5	0.2274	0.75	0.115
Mof_C 	C 	0.5	0.1472	0.75	-0.011
Mof_N 	N 	0.5	0.9941	0.75	-0.253
Mof_C 	C 	2.36656e-33	0.7274	0.75	0.083
Mof_C 	C 	2.36656e-33	0.6472	0.75	-0.07
Mof_N 	N 	2.36656e-33	0.4941	0.75	-0.28
Mof_C 	C 	0.5	0.7726	0.25	0.115
Mof_C 	C 	0.5	0.8528	0.25	-0.011
Mof_N 	N 	0.5	0.0059	0.25	-0.253
Mof_C 	C 	-1.44386e-18	0.2726	0.25	0.084
Mof_C 	C 	-1.44386e-18	0.3528	0.25	-0.069
Mof_N 	N 	-1.44386e-18	0.5059	0.25	-0.28
_end
