data_functionalizedCrystal
_audit_creation_method	'EQeq! by Chris Wilmer'
_symmetry_space_group_name_H-M	'P1'
_symmetry_Int_Tables_number	1
_symmetry_cell_setting	triclinic
loop_
_symmetry_equiv_pos_as_xyz
  x,y,z
_cell_length_a	9.241
_cell_length_b	11.245
_cell_length_c	11.845
_cell_angle_alpha	78.97
_cell_angle_beta	74.58
_cell_angle_gamma	87.609
loop_
_atom_site_label
_atom_site_type_symbol
_atom_site_fract_x
_atom_site_fract_y
_atom_site_fract_z
_atom_site_charge
Mof_Mn	Mn	-0	0	-0	0.547
Mof_Mn	Mn	-1.14398e-17	0	0.5	0.672
Mof_H 	H 	0.6449	0.0535	0.6315	-0.005
Mof_H 	H 	0.793	0.1038	0.2885	0.019
Mof_H 	H 	0.566	0.2144	0.2297	0.101
Mof_H 	H 	0.4156	0.1806	0.3286	0.105
Mof_H 	H 	0.2898	0.3634	0.2822	0.151
Mof_H 	H 	0.1227	0.5253	0.2868	0.106
Mof_H 	H 	0.2151	0.6371	0.2025	0.102
Mof_H 	H 	0.9862	0.71	0.6141	0.082
Mof_H 	H 	0.1003	0.8303	0.2748	0.027
Mof_H 	H 	0.4281	0.6789	0.3309	0.156
Mof_H 	H 	0.6792	0.3805	0.3663	0.158
Mof_H 	H 	0.7527	0.5637	0.4196	0.13
Mof_H 	H 	0.6411	0.6729	0.4275	0.12
Mof_H 	H 	0.0092	0.7014	0.031	-0.065
Mof_H 	H 	0.7519	0.8609	0.2682	0.037
Mof_H 	H 	0.3551	0.9465	0.3685	0.043
Mof_H 	H 	0.207	0.8962	0.7115	0.025
Mof_H 	H 	0.434	0.7856	0.7703	0.135
Mof_H 	H 	0.5844	0.8194	0.6714	0.145
Mof_H 	H 	0.7102	0.6366	0.7178	0.166
Mof_H 	H 	0.8773	0.4747	0.7132	0.138
Mof_H 	H 	0.7849	0.3629	0.7975	0.123
Mof_H 	H 	0.0138	0.29	0.3859	-0.052
Mof_H 	H 	0.8997	0.1697	0.7252	0.007
Mof_H 	H 	0.5719	0.3211	0.6691	0.153
Mof_H 	H 	0.3208	0.6195	0.6337	0.154
Mof_H 	H 	0.2473	0.4363	0.5804	0.114
Mof_H 	H 	0.3589	0.3271	0.5725	0.11
Mof_H 	H 	0.9908	0.2986	0.969	0.094
Mof_H 	H 	0.2481	0.1391	0.7318	-0.01
Mof_C 	C 	0.6503	0.0778	0.5509	0.083
Mof_C 	C 	0.7332	0.1036	0.3653	0.072
Mof_C 	C 	0.5129	0.2195	0.311	-0.229
Mof_C 	C 	0.4902	0.352	0.3213	0.247
Mof_C 	C 	0.361	0.4078	0.2997	-0.315
Mof_C 	C 	0.3376	0.5308	0.3041	0.247
Mof_C 	C 	0.1935	0.5885	0.2822	-0.224
Mof_C 	C 	0.0249	0.7133	0.5326	0.004
Mof_C 	C 	0.0846	0.7805	0.3494	0.085
Mof_C 	C 	0.4435	0.597	0.3287	-0.303
Mof_C 	C 	0.5944	0.4185	0.3486	-0.303
Mof_C 	C 	0.5741	0.5417	0.3502	0.249
Mof_C 	C 	0.6914	0.617	0.377	-0.229
Mof_C 	C 	0.9406	0.7145	0.1006	0.195
Mof_C 	C 	0.8026	0.8026	0.2268	0.098
Mof_C 	C 	0.3497	0.9222	0.4491	0.11
Mof_C 	C 	0.2668	0.8964	0.6347	0.093
Mof_C 	C 	0.4871	0.7805	0.689	-0.252
Mof_C 	C 	0.5098	0.648	0.6787	0.267
Mof_C 	C 	0.639	0.5922	0.7003	-0.319
Mof_C 	C 	0.6624	0.4692	0.6959	0.265
Mof_C 	C 	0.8065	0.4115	0.7178	-0.241
Mof_C 	C 	0.9751	0.2867	0.4674	0.193
Mof_C 	C 	0.9154	0.2195	0.6506	0.092
Mof_C 	C 	0.5565	0.403	0.6713	-0.306
Mof_C 	C 	0.4056	0.5815	0.6514	-0.308
Mof_C 	C 	0.4259	0.4583	0.6498	0.253
Mof_C 	C 	0.3086	0.383	0.623	-0.228
Mof_C 	C 	0.0594	0.2855	0.8994	0.014
Mof_C 	C 	0.1974	0.1974	0.7732	0.088
Mof_S 	S 	0.85018	0.88593	0.80577	0.72
Mof_S 	S 	0.14982	0.11407	0.19423	0.765
Mof_N 	N 	0.5974	0.1544	0.3917	-0.073
Mof_N 	N 	0.5411	0.1393	0.5125	-0.108
Mof_N 	N 	0.7699	0.0532	0.4643	-0.176
Mof_N 	N 	0.1252	0.6652	0.3689	-0.07
Mof_N 	N 	0.0897	0.6196	0.4888	-0.09
Mof_N 	N 	0.0183	0.814	0.4525	-0.153
Mof_N 	N 	0.787	0.6846	0.2666	-0.061
Mof_N 	N 	0.8772	0.6252	0.1857	-0.101
Mof_N 	N 	0.8996	0.8271	0.1206	-0.163
Mof_N 	N 	0.4026	0.8456	0.6083	-0.057
Mof_N 	N 	0.4589	0.8607	0.4875	-0.086
Mof_N 	N 	0.2301	0.9468	0.5357	-0.15
Mof_N 	N 	0.8748	0.3348	0.6311	-0.063
Mof_N 	N 	0.9103	0.3804	0.5112	-0.104
Mof_N 	N 	0.9817	0.186	0.5475	-0.186
Mof_N 	N 	0.213	0.3154	0.7334	-0.068
Mof_N 	N 	0.1228	0.3748	0.8143	-0.081
Mof_N 	N 	0.1004	0.1729	0.8794	-0.167
Mof_O 	O 	0.8773	0.9202	0.6776	-0.335
Mof_O 	O 	0.8544	0.7541	0.836	-0.27
Mof_O 	O 	0.965	0.9393	0.8452	-0.3
Mof_O 	O 	0.7023	0.9242	0.8642	-0.247
Mof_O 	O 	0.1227	0.0798	0.3224	-0.437
Mof_O 	O 	0.1456	0.2459	0.164	-0.328
Mof_O 	O 	0.035	0.0607	0.1548	-0.445
Mof_O 	O 	0.2977	0.0758	0.1358	-0.352
_end
