data_functionalizedCrystal
_audit_creation_method	'EQeq! by Chris Wilmer'
_symmetry_space_group_name_H-M	'P1'
_symmetry_Int_Tables_number	1
_symmetry_cell_setting	triclinic
loop_
_symmetry_equiv_pos_as_xyz
  x,y,z
_cell_length_a	22.771
_cell_length_b	21.3119
_cell_length_c	19.01
_cell_angle_alpha	90
_cell_angle_beta	118.499
_cell_angle_gamma	90
loop_
_atom_site_label
_atom_site_type_symbol
_atom_site_fract_x
_atom_site_fract_y
_atom_site_fract_z
_atom_site_charge
Mof_Ag	Ag	0.22722	0.37808	0.19342	0.431
Mof_N 	N 	0.0705	0.3749	0.8882	-0.183
Mof_N 	N 	0.4325	0.6265	0.1141	-0.188
Mof_N 	N 	0.1642	0.3794	0.0497	-0.14
Mof_N 	N 	0.0888	0.2894	0.7572	-0.166
Mof_N 	N 	0.1948	0.2065	0.7927	-0.149
Mof_N 	N 	0.3094	0.4582	0.2154	-0.15
Mof_N 	N 	0.4112	0.543	0.2456	-0.165
Mof_N 	N 	0.1727	0.4536	0.2414	-0.18
Mof_C 	C 	0.3846	0.5075	0.1792	0.115
Mof_N 	N 	0.1697	0.3036	0.2349	-0.184
Mof_N 	N 	0.0692	0.5257	0.2356	-0.14
Mof_N 	N 	0.0702	0.2258	0.2338	-0.139
Mof_C 	C 	0.3345	0.4938	0.2798	-0.007
Mof_H 	H 	0.3172	0.4909	0.3163	0.007
Mof_N 	N 	0.3372	0.6298	0.9521	-0.131
Mof_C 	C 	0.1162	0.2557	0.8251	0.105
Mof_C 	C 	0.139	0.3181	0.2779	0.105
Mof_C 	C 	0.129	0.4297	0.0103	-0.002
Mof_H 	H 	0.1355	0.4679	0.0388	0.017
Mof_C 	C 	0.1501	0.3265	0.0071	-0.052
Mof_H 	H 	0.1734	0.2893	0.033	0.037
Mof_C 	C 	0.0835	0.4285	0.9298	0.002
Mof_H 	H 	0.0611	0.466	0.9036	0.009
Mof_C 	C 	0.1684	0.2145	0.8416	-0.05
Mof_H 	H 	0.1861	0.1908	0.8898	0.034
Mof_C 	C 	0.0874	0.2624	0.8818	-0.256
Mof_H 	H 	0.0383	0.2576	0.8509	0.079
Mof_H 	H 	0.1047	0.2277	0.9211	0.087
Mof_C 	C 	0.1679	0.2417	0.7254	-0.015
Mof_H 	H 	0.1857	0.2386	0.6894	0.005
Mof_C 	C 	0.1029	0.3234	0.9266	0.111
Mof_C 	C 	0.3988	0.5744	0.077	0.119
Mof_C 	C 	0.1615	0.3765	0.3285	-0.26
Mof_H 	H 	0.1435	0.3759	0.3667	0.093
Mof_H 	H 	0.2109	0.3763	0.3601	0.075
Mof_C 	C 	0.1396	0.4359	0.2803	0.105
Mof_C 	C 	0.4209	0.679	0.0712	0.012
Mof_H 	H 	0.4454	0.716	0.0955	0.013
Mof_C 	C 	0.3726	0.6794	0.9908	-0.007
Mof_H 	H 	0.3648	0.7177	0.962	0.02
Mof_C 	C 	0.1154	0.2819	0.7079	0.005
Mof_H 	H 	0.0973	0.3052	0.6594	0.01
Mof_C 	C 	0.4145	0.5138	0.1237	-0.267
Mof_H 	H 	0.3984	0.4784	0.0853	0.095
Mof_H 	H 	0.4636	0.5097	0.1558	0.094
Mof_C 	C 	0.1011	0.2129	0.1908	-0.011
Mof_H 	H 	0.0887	0.1763	0.1584	0.015
Mof_C 	C 	0.3865	0.5358	0.2952	0.011
Mof_H 	H 	0.4045	0.56	0.3429	0.014
Mof_C 	C 	0.1502	0.2512	0.1921	0.013
Mof_H 	H 	0.171	0.2397	0.161	0.012
Mof_C 	C 	0.3349	0.4651	0.1653	-0.055
Mof_H 	H 	0.3179	0.4399	0.1185	0.037
Mof_C 	C 	0.0892	0.2788	0.2768	-0.053
Mof_H 	H 	0.0682	0.2902	0.3077	0.032
Mof_C 	C 	0.0888	0.4739	0.2773	-0.048
Mof_H 	H 	0.0671	0.4615	0.3071	0.031
Mof_C 	C 	0.1536	0.5062	0.2001	0.01
Mof_H 	H 	0.1761	0.52	0.1718	0.014
Mof_C 	C 	0.3494	0.5777	0.996	-0.059
Mof_H 	H 	0.3237	0.5413	0.9716	0.038
Mof_C 	C 	0.1015	0.5419	0.197	-0.005
Mof_H 	H 	0.0889	0.5792	0.1658	0.012
Mof_Ag	Ag	0.2742	0.3713	0.3012	0.3
Mof_Ag	Ag	0.77278	0.37808	0.30658	0.441
Mof_N 	N 	0.9295	0.3749	0.6118	-0.17
Mof_N 	N 	0.5675	0.6265	0.3859	-0.186
Mof_N 	N 	0.8358	0.3794	0.4503	-0.136
Mof_N 	N 	0.9112	0.2894	0.7428	-0.153
Mof_N 	N 	0.8052	0.2065	0.7073	-0.146
Mof_N 	N 	0.6906	0.4582	0.2846	-0.149
Mof_N 	N 	0.5888	0.543	0.2544	-0.164
Mof_N 	N 	0.8273	0.4536	0.2586	-0.18
Mof_C 	C 	0.6154	0.5075	0.3208	0.114
Mof_N 	N 	0.8303	0.3036	0.2651	-0.184
Mof_N 	N 	0.9308	0.5257	0.2644	-0.121
Mof_N 	N 	0.9298	0.2258	0.2662	-0.121
Mof_C 	C 	0.6655	0.4938	0.2202	-0.007
Mof_H 	H 	0.6828	0.4909	0.1837	0.007
Mof_N 	N 	0.6628	0.6298	0.5479	-0.132
Mof_C 	C 	0.8838	0.2557	0.6749	0.121
Mof_C 	C 	0.861	0.3181	0.2221	0.115
Mof_C 	C 	0.871	0.4297	0.4897	-0
Mof_H 	H 	0.8645	0.4679	0.4612	0.023
Mof_C 	C 	0.8499	0.3265	0.4929	-0.057
Mof_H 	H 	0.8266	0.2893	0.467	0.04
Mof_C 	C 	0.9165	0.4285	0.5702	0.013
Mof_H 	H 	0.9389	0.466	0.5964	0.026
Mof_C 	C 	0.8316	0.2145	0.6584	-0.052
Mof_H 	H 	0.8139	0.1908	0.6102	0.037
Mof_C 	C 	0.9126	0.2624	0.6182	-0.277
Mof_H 	H 	0.9617	0.2576	0.6491	0.113
Mof_H 	H 	0.8953	0.2277	0.5789	0.102
Mof_C 	C 	0.8321	0.2417	0.7746	-0.011
Mof_H 	H 	0.8143	0.2386	0.8106	0.006
Mof_C 	C 	0.8971	0.3234	0.5734	0.131
Mof_C 	C 	0.6012	0.5744	0.423	0.116
Mof_C 	C 	0.8385	0.3765	0.1715	-0.265
Mof_H 	H 	0.8565	0.3759	0.1333	0.1
Mof_H 	H 	0.7891	0.3763	0.1399	0.077
Mof_C 	C 	0.8604	0.4359	0.2197	0.114
Mof_C 	C 	0.5791	0.679	0.4288	0.008
Mof_H 	H 	0.5546	0.716	0.4045	0.014
Mof_C 	C 	0.6274	0.6794	0.5092	-0.003
Mof_H 	H 	0.6352	0.7177	0.538	0.019
Mof_C 	C 	0.8846	0.2819	0.7921	0.011
Mof_H 	H 	0.9027	0.3052	0.8406	0.023
Mof_C 	C 	0.5855	0.5138	0.3763	-0.265
Mof_H 	H 	0.6016	0.4784	0.4147	0.094
Mof_H 	H 	0.5364	0.5097	0.3442	0.093
Mof_C 	C 	0.8989	0.2129	0.3092	-0.006
Mof_H 	H 	0.9113	0.1763	0.3416	0.029
Mof_C 	C 	0.6135	0.5358	0.2048	0.011
Mof_H 	H 	0.5955	0.56	0.1571	0.014
Mof_C 	C 	0.8498	0.2512	0.3079	0.019
Mof_H 	H 	0.829	0.2397	0.339	0.013
Mof_C 	C 	0.6651	0.4651	0.3347	-0.054
Mof_H 	H 	0.6821	0.4399	0.3815	0.036
Mof_C 	C 	0.9108	0.2788	0.2232	-0.049
Mof_H 	H 	0.9318	0.2902	0.1923	0.05
Mof_C 	C 	0.9112	0.4739	0.2227	-0.045
Mof_H 	H 	0.9329	0.4615	0.1929	0.049
Mof_C 	C 	0.8464	0.5062	0.2999	0.016
Mof_H 	H 	0.8239	0.52	0.3282	0.015
Mof_C 	C 	0.6506	0.5777	0.504	-0.055
Mof_H 	H 	0.6763	0.5413	0.5284	0.038
Mof_C 	C 	0.8985	0.5419	0.303	-0.001
Mof_H 	H 	0.9111	0.5792	0.3342	0.027
Mof_Ag	Ag	0.7258	0.3713	0.1988	0.296
Mof_Ag	Ag	0.27278	0.12192	0.80658	0.437
Mof_N 	N 	0.4295	0.1251	0.1118	-0.186
Mof_N 	N 	0.0675	0.8735	0.8859	-0.183
Mof_N 	N 	0.3358	0.1206	0.9503	-0.136
Mof_N 	N 	0.4112	0.2106	0.2428	-0.164
Mof_N 	N 	0.3052	0.2935	0.2073	-0.147
Mof_N 	N 	0.1906	0.0418	0.7846	-0.15
Mof_N 	N 	0.0888	0.957	0.7544	-0.165
Mof_N 	N 	0.3273	0.0464	0.7586	-0.179
Mof_C 	C 	0.1154	0.9925	0.8208	0.107
Mof_N 	N 	0.3303	0.1964	0.7651	-0.184
Mof_N 	N 	0.4308	0.9743	0.7644	-0.137
Mof_N 	N 	0.4298	0.2742	0.7662	-0.136
Mof_C 	C 	0.1655	0.0062	0.7202	-0.009
Mof_H 	H 	0.1828	0.0091	0.6837	0.006
Mof_N 	N 	0.1628	0.8702	0.0479	-0.134
Mof_C 	C 	0.3838	0.2443	0.1749	0.113
Mof_C 	C 	0.361	0.1819	0.7221	0.109
Mof_C 	C 	0.371	0.0703	0.9897	-0.008
Mof_H 	H 	0.3645	0.0321	0.9612	0.021
Mof_C 	C 	0.3499	0.1735	0.9929	-0.061
Mof_H 	H 	0.3266	0.2107	0.967	0.039
Mof_C 	C 	0.4165	0.0715	0.0702	0.014
Mof_H 	H 	0.4389	0.034	0.0964	0.014
Mof_C 	C 	0.3316	0.2855	0.1584	-0.052
Mof_H 	H 	0.3139	0.3092	0.1102	0.036
Mof_C 	C 	0.4126	0.2376	0.1182	-0.27
Mof_H 	H 	0.4617	0.2424	0.1491	0.094
Mof_H 	H 	0.3953	0.2723	0.0789	0.096
Mof_C 	C 	0.3321	0.2583	0.2746	-0.014
Mof_H 	H 	0.3143	0.2614	0.3106	0.006
Mof_C 	C 	0.3971	0.1766	0.0734	0.125
Mof_C 	C 	0.1012	0.9256	0.923	0.105
Mof_C 	C 	0.3385	0.1235	0.6715	-0.261
Mof_H 	H 	0.3565	0.1241	0.6333	0.096
Mof_H 	H 	0.2891	0.1237	0.6399	0.076
Mof_C 	C 	0.3604	0.0641	0.7197	0.109
Mof_C 	C 	0.0791	0.821	0.9288	0.001
Mof_H 	H 	0.0546	0.784	0.9045	0.008
Mof_C 	C 	0.1274	0.8206	0.0092	-0.002
Mof_H 	H 	0.1352	0.7823	0.038	0.016
Mof_C 	C 	0.3846	0.2181	0.2921	0.009
Mof_H 	H 	0.4027	0.1948	0.3406	0.015
Mof_C 	C 	0.0855	0.9862	0.8763	-0.252
Mof_H 	H 	0.1016	0.0216	0.9147	0.085
Mof_H 	H 	0.0364	0.9903	0.8442	0.078
Mof_C 	C 	0.3989	0.2871	0.8092	-0.008
Mof_H 	H 	0.4113	0.3237	0.8416	0.019
Mof_C 	C 	0.1135	0.9642	0.7048	0.007
Mof_H 	H 	0.0955	0.94	0.6571	0.009
Mof_C 	C 	0.3498	0.2488	0.8079	0.015
Mof_H 	H 	0.329	0.2603	0.839	0.013
Mof_C 	C 	0.1651	0.0349	0.8347	-0.053
Mof_H 	H 	0.1821	0.0601	0.8815	0.035
Mof_C 	C 	0.4108	0.2212	0.7232	-0.05
Mof_H 	H 	0.4318	0.2098	0.6923	0.039
Mof_C 	C 	0.4112	0.0261	0.7227	-0.046
Mof_H 	H 	0.4329	0.0385	0.6929	0.038
Mof_C 	C 	0.3464	0.9938	0.7999	0.011
Mof_H 	H 	0.3239	0.98	0.8282	0.015
Mof_C 	C 	0.1506	0.9223	0.004	-0.051
Mof_H 	H 	0.1763	0.9587	0.0284	0.036
Mof_C 	C 	0.3985	0.9581	0.803	-0.003
Mof_H 	H 	0.4111	0.9208	0.8342	0.016
Mof_Ag	Ag	0.2258	0.1287	0.6988	0.292
Mof_Ag	Ag	0.72722	0.12192	0.69342	0.434
Mof_N 	N 	0.5705	0.1251	0.3882	-0.184
Mof_N 	N 	0.9325	0.8735	0.6141	-0.171
Mof_N 	N 	0.6642	0.1206	0.5497	-0.137
Mof_N 	N 	0.5888	0.2106	0.2572	-0.164
Mof_N 	N 	0.6948	0.2935	0.2927	-0.147
Mof_N 	N 	0.8094	0.0418	0.7154	-0.148
Mof_N 	N 	0.9112	0.957	0.7456	-0.153
Mof_N 	N 	0.6727	0.0464	0.7414	-0.179
Mof_C 	C 	0.8846	0.9925	0.6792	0.123
Mof_N 	N 	0.6697	0.1964	0.7349	-0.184
Mof_N 	N 	0.5692	0.9743	0.7356	-0.137
Mof_N 	N 	0.5702	0.2742	0.7338	-0.136
Mof_C 	C 	0.8345	0.0062	0.7798	-0.004
Mof_H 	H 	0.8172	0.0091	0.8163	0.008
Mof_N 	N 	0.8372	0.8702	0.4521	-0.131
Mof_C 	C 	0.6162	0.2443	0.3251	0.112
Mof_C 	C 	0.639	0.1819	0.7779	0.109
Mof_C 	C 	0.629	0.0703	0.5103	-0.004
Mof_H 	H 	0.6355	0.0321	0.5388	0.02
Mof_C 	C 	0.6501	0.1735	0.5071	-0.057
Mof_H 	H 	0.6734	0.2107	0.533	0.039
Mof_C 	C 	0.5835	0.0715	0.4298	0.01
Mof_H 	H 	0.5611	0.034	0.4036	0.014
Mof_C 	C 	0.6684	0.2855	0.3416	-0.051
Mof_H 	H 	0.6861	0.3092	0.3898	0.036
Mof_C 	C 	0.5874	0.2376	0.3818	-0.268
Mof_H 	H 	0.5383	0.2424	0.3509	0.094
Mof_H 	H 	0.6047	0.2723	0.4211	0.095
Mof_C 	C 	0.6679	0.2583	0.2254	-0.014
Mof_H 	H 	0.6857	0.2614	0.1894	0.006
Mof_C 	C 	0.6029	0.1766	0.4266	0.122
Mof_C 	C 	0.8988	0.9256	0.577	0.125
Mof_C 	C 	0.6615	0.1235	0.8285	-0.261
Mof_H 	H 	0.6435	0.1241	0.8667	0.095
Mof_H 	H 	0.7109	0.1237	0.8601	0.075
Mof_C 	C 	0.6396	0.0641	0.7803	0.108
Mof_C 	C 	0.9209	0.821	0.5712	0.011
Mof_H 	H 	0.9454	0.784	0.5955	0.027
Mof_C 	C 	0.8726	0.8206	0.4908	0.001
Mof_H 	H 	0.8648	0.7823	0.462	0.021
Mof_C 	C 	0.6154	0.2181	0.2079	0.009
Mof_H 	H 	0.5973	0.1948	0.1594	0.015
Mof_C 	C 	0.9145	0.9862	0.6237	-0.274
Mof_H 	H 	0.8984	0.0216	0.5853	0.101
Mof_H 	H 	0.9636	0.9903	0.6558	0.113
Mof_C 	C 	0.6011	0.2871	0.6908	-0.008
Mof_H 	H 	0.5887	0.3237	0.6584	0.019
Mof_C 	C 	0.8865	0.9642	0.7952	0.013
Mof_H 	H 	0.9045	0.94	0.8429	0.023
Mof_C 	C 	0.6502	0.2488	0.6921	0.015
Mof_H 	H 	0.671	0.2603	0.661	0.013
Mof_C 	C 	0.8349	0.0349	0.6653	-0.055
Mof_H 	H 	0.8179	0.0601	0.6185	0.038
Mof_C 	C 	0.5892	0.2212	0.7768	-0.05
Mof_H 	H 	0.5682	0.2098	0.8077	0.039
Mof_C 	C 	0.5888	0.0261	0.7773	-0.045
Mof_H 	H 	0.5671	0.0385	0.8071	0.038
Mof_C 	C 	0.6536	0.9938	0.7001	0.011
Mof_H 	H 	0.6761	0.98	0.6718	0.015
Mof_C 	C 	0.8494	0.9223	0.496	-0.055
Mof_H 	H 	0.8237	0.9587	0.4716	0.039
Mof_C 	C 	0.6015	0.9581	0.697	-0.003
Mof_H 	H 	0.5889	0.9208	0.6658	0.017
Mof_Ag	Ag	0.7742	0.1287	0.8012	0.304
Mof_Ag	Ag	3.46773e-33	0.3796	0.75	0.547
Mof_Ag	Ag	0.5	0.1204	0.25	0.62
Mof_Ag	Ag	0.5	0.63436	0.25	0.627
Mof_Ag	Ag	-5.60894e-17	0.86564	0.75	0.554
Mof_Ag	Ag	0.72722	0.87808	0.19342	0.434
Mof_N 	N 	0.5705	0.8749	0.8882	-0.184
Mof_N 	N 	0.9325	0.1265	0.1141	-0.172
Mof_N 	N 	0.6642	0.8794	0.0497	-0.138
Mof_N 	N 	0.5888	0.7894	0.7572	-0.164
Mof_N 	N 	0.6948	0.7065	0.7927	-0.147
Mof_N 	N 	0.8094	0.9582	0.2154	-0.148
Mof_N 	N 	0.9112	0.043	0.2456	-0.153
Mof_N 	N 	0.6727	0.9536	0.2414	-0.179
Mof_C 	C 	0.8846	0.0075	0.1792	0.123
Mof_N 	N 	0.6697	0.8036	0.2349	-0.184
Mof_N 	N 	0.5692	0.0257	0.2356	-0.136
Mof_N 	N 	0.5702	0.7258	0.2338	-0.136
Mof_C 	C 	0.8345	0.9938	0.2798	-0.004
Mof_H 	H 	0.8172	0.9909	0.3163	0.008
Mof_N 	N 	0.8372	0.1298	0.9521	-0.13
Mof_C 	C 	0.6162	0.7557	0.8251	0.112
Mof_C 	C 	0.639	0.8181	0.2779	0.109
Mof_C 	C 	0.629	0.9297	0.0103	-0.001
Mof_H 	H 	0.6355	0.9679	0.0388	0.02
Mof_C 	C 	0.6501	0.8265	0.0071	-0.054
Mof_H 	H 	0.6734	0.7893	0.033	0.038
Mof_C 	C 	0.5835	0.9285	0.9298	0.007
Mof_H 	H 	0.5611	0.966	0.9036	0.015
Mof_C 	C 	0.6684	0.7145	0.8416	-0.051
Mof_H 	H 	0.6861	0.6908	0.8898	0.035
Mof_C 	C 	0.5874	0.7624	0.8818	-0.267
Mof_H 	H 	0.5383	0.7576	0.8509	0.093
Mof_H 	H 	0.6047	0.7277	0.9211	0.094
Mof_C 	C 	0.6679	0.7417	0.7254	-0.014
Mof_H 	H 	0.6857	0.7386	0.6894	0.006
Mof_C 	C 	0.6029	0.8234	0.9266	0.119
Mof_C 	C 	0.8988	0.0744	0.077	0.128
Mof_C 	C 	0.6615	0.8765	0.3285	-0.261
Mof_H 	H 	0.6435	0.8759	0.3667	0.096
Mof_H 	H 	0.7109	0.8763	0.3601	0.075
Mof_C 	C 	0.6396	0.9359	0.2803	0.108
Mof_C 	C 	0.9209	0.179	0.0712	0.016
Mof_H 	H 	0.9454	0.216	0.0955	0.026
Mof_C 	C 	0.8726	0.1794	0.9908	-0.004
Mof_H 	H 	0.8648	0.2177	0.962	0.022
Mof_C 	C 	0.6154	0.7819	0.7079	0.009
Mof_H 	H 	0.5973	0.8052	0.6594	0.015
Mof_C 	C 	0.9145	0.0138	0.1237	-0.276
Mof_H 	H 	0.8984	0.9784	0.0853	0.102
Mof_H 	H 	0.9636	0.0097	0.1558	0.113
Mof_C 	C 	0.6011	0.7129	0.1908	-0.008
Mof_H 	H 	0.5887	0.6763	0.1584	0.019
Mof_C 	C 	0.8865	0.0358	0.2952	0.014
Mof_H 	H 	0.9045	0.06	0.3429	0.023
Mof_C 	C 	0.6502	0.7512	0.1921	0.015
Mof_H 	H 	0.671	0.7397	0.161	0.013
Mof_C 	C 	0.8349	0.9651	0.1653	-0.056
Mof_H 	H 	0.8179	0.9399	0.1185	0.038
Mof_C 	C 	0.5892	0.7788	0.2768	-0.05
Mof_H 	H 	0.5682	0.7902	0.3077	0.039
Mof_C 	C 	0.5888	0.9739	0.2773	-0.045
Mof_H 	H 	0.5671	0.9615	0.3071	0.038
Mof_C 	C 	0.6536	0.0062	0.2001	0.012
Mof_H 	H 	0.6761	0.02	0.1718	0.015
Mof_C 	C 	0.8494	0.0777	0.996	-0.06
Mof_H 	H 	0.8237	0.0413	0.9716	0.04
Mof_C 	C 	0.6015	0.0419	0.197	-0.003
Mof_H 	H 	0.5889	0.0792	0.1658	0.017
Mof_Ag	Ag	0.7742	0.8713	0.3012	0.304
Mof_Ag	Ag	0.27278	0.87808	0.30658	0.437
Mof_N 	N 	0.4295	0.8749	0.6118	-0.184
Mof_N 	N 	0.0675	0.1265	0.3859	-0.184
Mof_N 	N 	0.3358	0.8794	0.4503	-0.137
Mof_N 	N 	0.4112	0.7894	0.7428	-0.164
Mof_N 	N 	0.3052	0.7065	0.7073	-0.147
Mof_N 	N 	0.1906	0.9582	0.2846	-0.15
Mof_N 	N 	0.0888	0.043	0.2544	-0.165
Mof_N 	N 	0.3273	0.9536	0.2586	-0.179
Mof_C 	C 	0.1154	0.0075	0.3208	0.107
Mof_N 	N 	0.3303	0.8036	0.2651	-0.184
Mof_N 	N 	0.4308	0.0257	0.2644	-0.136
Mof_N 	N 	0.4298	0.7258	0.2662	-0.136
Mof_C 	C 	0.1655	0.9938	0.2202	-0.008
Mof_H 	H 	0.1828	0.9909	0.1837	0.006
Mof_N 	N 	0.1628	0.1298	0.5479	-0.133
Mof_C 	C 	0.3838	0.7557	0.6749	0.112
Mof_C 	C 	0.361	0.8181	0.2221	0.109
Mof_C 	C 	0.371	0.9297	0.4897	-0.004
Mof_H 	H 	0.3645	0.9679	0.4612	0.02
Mof_C 	C 	0.3499	0.8265	0.4929	-0.057
Mof_H 	H 	0.3266	0.7893	0.467	0.039
Mof_C 	C 	0.4165	0.9285	0.5702	0.01
Mof_H 	H 	0.4389	0.966	0.5964	0.014
Mof_C 	C 	0.3316	0.7145	0.6584	-0.051
Mof_H 	H 	0.3139	0.6908	0.6102	0.036
Mof_C 	C 	0.4126	0.7624	0.6182	-0.269
Mof_H 	H 	0.4617	0.7576	0.6491	0.094
Mof_H 	H 	0.3953	0.7277	0.5789	0.095
Mof_C 	C 	0.3321	0.7417	0.7746	-0.014
Mof_H 	H 	0.3143	0.7386	0.8106	0.006
Mof_C 	C 	0.3971	0.8234	0.5734	0.122
Mof_C 	C 	0.1012	0.0744	0.423	0.108
Mof_C 	C 	0.3385	0.8765	0.1715	-0.262
Mof_H 	H 	0.3565	0.8759	0.1333	0.096
Mof_H 	H 	0.2891	0.8763	0.1399	0.076
Mof_C 	C 	0.3604	0.9359	0.2197	0.109
Mof_C 	C 	0.0791	0.179	0.4288	0.005
Mof_H 	H 	0.0546	0.216	0.4045	0.007
Mof_C 	C 	0.1274	0.1794	0.5092	-0.006
Mof_H 	H 	0.1352	0.2177	0.538	0.016
Mof_C 	C 	0.3846	0.7819	0.7921	0.009
Mof_H 	H 	0.4027	0.8052	0.8406	0.015
Mof_C 	C 	0.0855	0.0138	0.3763	-0.254
Mof_H 	H 	0.1016	0.9784	0.4147	0.086
Mof_H 	H 	0.0364	0.0097	0.3442	0.079
Mof_C 	C 	0.3989	0.7129	0.3092	-0.008
Mof_H 	H 	0.4113	0.6763	0.3416	0.019
Mof_C 	C 	0.1135	0.0358	0.2048	0.007
Mof_H 	H 	0.0955	0.06	0.1571	0.01
Mof_C 	C 	0.3498	0.7512	0.3079	0.015
Mof_H 	H 	0.329	0.7397	0.339	0.013
Mof_C 	C 	0.1651	0.9651	0.3347	-0.054
Mof_H 	H 	0.1821	0.9399	0.3815	0.035
Mof_C 	C 	0.4108	0.7788	0.2232	-0.05
Mof_H 	H 	0.4318	0.7902	0.1923	0.039
Mof_C 	C 	0.4112	0.9739	0.2227	-0.046
Mof_H 	H 	0.4329	0.9615	0.1929	0.038
Mof_C 	C 	0.3464	0.0062	0.2999	0.011
Mof_H 	H 	0.3239	0.02	0.3282	0.015
Mof_C 	C 	0.1506	0.0777	0.504	-0.055
Mof_H 	H 	0.1763	0.0413	0.5284	0.036
Mof_C 	C 	0.3985	0.0419	0.303	-0.003
Mof_H 	H 	0.4111	0.0792	0.3342	0.017
Mof_Ag	Ag	0.2258	0.8713	0.1988	0.293
Mof_Ag	Ag	0.77278	0.62192	0.80658	0.44
Mof_N 	N 	0.9295	0.6251	0.1118	-0.172
Mof_N 	N 	0.5675	0.3735	0.8859	-0.185
Mof_N 	N 	0.8358	0.6206	0.9503	-0.135
Mof_N 	N 	0.9112	0.7106	0.2428	-0.153
Mof_N 	N 	0.8052	0.7935	0.2073	-0.146
Mof_N 	N 	0.6906	0.5418	0.7846	-0.149
Mof_N 	N 	0.5888	0.457	0.7544	-0.164
Mof_N 	N 	0.8273	0.5464	0.7586	-0.18
Mof_C 	C 	0.6154	0.4925	0.8208	0.113
Mof_N 	N 	0.8303	0.6964	0.7651	-0.184
Mof_N 	N 	0.9308	0.4743	0.7644	-0.121
Mof_N 	N 	0.9298	0.7742	0.7662	-0.121
Mof_C 	C 	0.6655	0.5062	0.7202	-0.007
Mof_H 	H 	0.6828	0.5091	0.6837	0.007
Mof_N 	N 	0.6628	0.3702	0.0479	-0.133
Mof_C 	C 	0.8838	0.7443	0.1749	0.122
Mof_C 	C 	0.861	0.6819	0.7221	0.114
Mof_C 	C 	0.871	0.5703	0.9897	-0.005
Mof_H 	H 	0.8645	0.5321	0.9612	0.024
Mof_C 	C 	0.8499	0.6735	0.9929	-0.062
Mof_H 	H 	0.8266	0.7107	0.967	0.041
Mof_C 	C 	0.9165	0.5715	0.0702	0.018
Mof_H 	H 	0.9389	0.534	0.0964	0.025
Mof_C 	C 	0.8316	0.7855	0.1584	-0.052
Mof_H 	H 	0.8139	0.8092	0.1102	0.038
Mof_C 	C 	0.9126	0.7376	0.1182	-0.279
Mof_H 	H 	0.9617	0.7424	0.1491	0.114
Mof_H 	H 	0.8953	0.7723	0.0789	0.103
Mof_C 	C 	0.8321	0.7583	0.2746	-0.011
Mof_H 	H 	0.8143	0.7614	0.3106	0.006
Mof_C 	C 	0.8971	0.6766	0.0734	0.134
Mof_C 	C 	0.6012	0.4256	0.923	0.113
Mof_C 	C 	0.8385	0.6235	0.6715	-0.265
Mof_H 	H 	0.8565	0.6241	0.6333	0.1
Mof_H 	H 	0.7891	0.6237	0.6399	0.077
Mof_C 	C 	0.8604	0.5641	0.7197	0.114
Mof_C 	C 	0.5791	0.321	0.9288	0.004
Mof_H 	H 	0.5546	0.284	0.9045	0.015
Mof_C 	C 	0.6274	0.3206	0.0092	0
Mof_H 	H 	0.6352	0.2823	0.038	0.018
Mof_C 	C 	0.8846	0.7181	0.2921	0.011
Mof_H 	H 	0.9027	0.6948	0.3406	0.024
Mof_C 	C 	0.5855	0.4862	0.8763	-0.263
Mof_H 	H 	0.6016	0.5216	0.9147	0.093
Mof_H 	H 	0.5364	0.4903	0.8442	0.093
Mof_C 	C 	0.8989	0.7871	0.8092	-0.006
Mof_H 	H 	0.9113	0.8237	0.8416	0.029
Mof_C 	C 	0.6135	0.4642	0.7048	0.011
Mof_H 	H 	0.5955	0.44	0.6571	0.014
Mof_C 	C 	0.8498	0.7488	0.8079	0.019
Mof_H 	H 	0.829	0.7603	0.839	0.013
Mof_C 	C 	0.6651	0.5349	0.8347	-0.054
Mof_H 	H 	0.6821	0.5601	0.8815	0.036
Mof_C 	C 	0.9108	0.7212	0.7232	-0.049
Mof_H 	H 	0.9318	0.7098	0.6923	0.05
Mof_C 	C 	0.9112	0.5261	0.7227	-0.045
Mof_H 	H 	0.9329	0.5385	0.6929	0.049
Mof_C 	C 	0.8464	0.4938	0.7999	0.015
Mof_H 	H 	0.8239	0.48	0.8282	0.015
Mof_C 	C 	0.6506	0.4223	0.004	-0.052
Mof_H 	H 	0.6763	0.4587	0.0284	0.037
Mof_C 	C 	0.8985	0.4581	0.803	-0.001
Mof_H 	H 	0.9111	0.4208	0.8342	0.026
Mof_Ag	Ag	0.7258	0.6287	0.6988	0.296
Mof_Ag	Ag	0.22722	0.62192	0.69342	0.432
Mof_N 	N 	0.0705	0.6251	0.3882	-0.183
Mof_N 	N 	0.4325	0.3735	0.6141	-0.186
Mof_N 	N 	0.1642	0.6206	0.5497	-0.138
Mof_N 	N 	0.0888	0.7106	0.2572	-0.165
Mof_N 	N 	0.1948	0.7935	0.2927	-0.148
Mof_N 	N 	0.3094	0.5418	0.7154	-0.149
Mof_N 	N 	0.4112	0.457	0.7456	-0.164
Mof_N 	N 	0.1727	0.5464	0.7414	-0.179
Mof_C 	C 	0.3846	0.4925	0.6792	0.114
Mof_N 	N 	0.1697	0.6964	0.7349	-0.184
Mof_N 	N 	0.0692	0.4743	0.7356	-0.14
Mof_N 	N 	0.0702	0.7742	0.7338	-0.139
Mof_C 	C 	0.3345	0.5062	0.7798	-0.007
Mof_H 	H 	0.3172	0.5091	0.8163	0.007
Mof_N 	N 	0.3372	0.3702	0.4521	-0.132
Mof_C 	C 	0.1162	0.7443	0.3251	0.106
Mof_C 	C 	0.139	0.6819	0.7779	0.105
Mof_C 	C 	0.129	0.5703	0.5103	-0.006
Mof_H 	H 	0.1355	0.5321	0.5388	0.018
Mof_C 	C 	0.1501	0.6735	0.5071	-0.056
Mof_H 	H 	0.1734	0.7107	0.533	0.037
Mof_C 	C 	0.0835	0.5715	0.4298	0.006
Mof_H 	H 	0.0611	0.534	0.4036	0.008
Mof_C 	C 	0.1684	0.7855	0.3416	-0.05
Mof_H 	H 	0.1861	0.8092	0.3898	0.034
Mof_C 	C 	0.0874	0.7376	0.3818	-0.258
Mof_H 	H 	0.0383	0.7424	0.3509	0.08
Mof_H 	H 	0.1047	0.7723	0.4211	0.088
Mof_C 	C 	0.1679	0.7583	0.2254	-0.015
Mof_H 	H 	0.1857	0.7614	0.1894	0.005
Mof_C 	C 	0.1029	0.6766	0.4266	0.115
Mof_C 	C 	0.3988	0.4256	0.577	0.116
Mof_C 	C 	0.1615	0.6235	0.8285	-0.259
Mof_H 	H 	0.1435	0.6241	0.8667	0.092
Mof_H 	H 	0.2109	0.6237	0.8601	0.075
Mof_C 	C 	0.1396	0.5641	0.7803	0.105
Mof_C 	C 	0.4209	0.321	0.5712	0.008
Mof_H 	H 	0.4454	0.284	0.5955	0.014
Mof_C 	C 	0.3726	0.3206	0.4908	-0.003
Mof_H 	H 	0.3648	0.2823	0.462	0.019
Mof_C 	C 	0.1154	0.7181	0.2079	0.005
Mof_H 	H 	0.0973	0.6948	0.1594	0.01
Mof_C 	C 	0.4145	0.4862	0.6237	-0.265
Mof_H 	H 	0.3984	0.5216	0.5853	0.094
Mof_H 	H 	0.4636	0.4903	0.6558	0.093
Mof_C 	C 	0.1011	0.7871	0.6908	-0.012
Mof_H 	H 	0.0887	0.8237	0.6584	0.015
Mof_C 	C 	0.3865	0.4642	0.7952	0.011
Mof_H 	H 	0.4045	0.44	0.8429	0.014
Mof_C 	C 	0.1502	0.7488	0.6921	0.013
Mof_H 	H 	0.171	0.7603	0.661	0.012
Mof_C 	C 	0.3349	0.5349	0.6653	-0.055
Mof_H 	H 	0.3179	0.5601	0.6185	0.037
Mof_C 	C 	0.0892	0.7212	0.7768	-0.053
Mof_H 	H 	0.0682	0.7098	0.8077	0.032
Mof_C 	C 	0.0888	0.5261	0.7773	-0.048
Mof_H 	H 	0.0671	0.5385	0.8071	0.031
Mof_C 	C 	0.1536	0.4938	0.7001	0.009
Mof_H 	H 	0.1761	0.48	0.6718	0.014
Mof_C 	C 	0.3494	0.4223	0.496	-0.055
Mof_H 	H 	0.3237	0.4587	0.4716	0.038
Mof_C 	C 	0.1015	0.4581	0.697	-0.006
Mof_H 	H 	0.0889	0.4208	0.6658	0.012
Mof_Ag	Ag	0.2742	0.6287	0.8012	0.3
Mof_Ag	Ag	0.5	0.8796	0.75	0.62
Mof_Ag	Ag	-1.40224e-17	0.6204	0.25	0.548
Mof_Ag	Ag	-1.40224e-17	0.13436	0.25	0.555
Mof_Ag	Ag	0.5	0.36564	0.75	0.627
_end
