# CIF file generated by openbabel 3.1.0, see https://openbabel.org
data_I
_chemical_name_common 'image0'
_cell_length_a 15.1869
_cell_length_b 24.1587
_cell_length_c 15.8511
_cell_angle_alpha 90
_cell_angle_beta 111.141
_cell_angle_gamma 90
_space_group_name_H-M_alt 'P 1'
_space_group_name_Hall 'P 1'
loop_
    _symmetry_equiv_pos_as_xyz
    x,y,z
loop_
    _atom_site_label
    _atom_site_type_symbol
    _atom_site_fract_x
    _atom_site_fract_y
    _atom_site_fract_z
    _atom_site_occupancy
    Zn1      Zn       0.57358    0.48734    0.36179    1.000
    O1       O        0.67140    0.56556    0.35700    1.000
    O2       O        0.52740    0.56422    0.35770    1.000
    O3       O        0.59340    0.82411    0.36510    1.000
    O4       O        0.87000    0.94646    0.21150    1.000
    O5       O        0.95950    0.94544    0.35740    1.000
    N1       N        0.65800    0.46782    0.48880    1.000
    C1       C        0.62400    0.44950    0.55120    1.000
    H1       H        0.55880    0.44050    0.53180    1.000
    C2       C        0.67720    0.44280    0.64090    1.000
    H2       H        0.64960    0.42880    0.68160    1.000
    C3       C        0.77280    0.45670    0.67170    1.000
    C4       C        0.80890    0.47360    0.60730    1.000
    H3       H        0.87420    0.48190    0.62480    1.000
    C5       C        0.75080    0.47860    0.51820    1.000
    H4       H        0.77760    0.49030    0.47540    1.000
    C6       C        0.82730    0.45660    0.76880    1.000
    H5       H        0.80880    0.43160    0.80560    1.000
    C7       C        0.90100    0.48920    0.80890    1.000
    H6       H        0.92270    0.51140    0.77100    1.000
    C8       C        0.95160    0.49380    0.90650    1.000
    C9       C        0.00640    0.54050    0.94090    1.000
    H7       H        0.01130    0.56850    0.90070    1.000
    C10      C        0.94630    0.45350    0.96710    1.000
    H8       H        0.90950    0.42120    0.94480    1.000
    C11      C        0.59950    0.59050    0.35700    1.000
    C12      C        0.59800    0.65190    0.35740    1.000
    C13      C        0.67170    0.68070    0.34700    1.000
    H9       H        0.72250    0.66130    0.33930    1.000
    C14      C        0.67180    0.73810    0.34790    1.000
    H10      H        0.72170    0.75800    0.33910    1.000
    C15      C        0.59930    0.76600    0.36160    1.000
    C16      C        0.52490    0.73750    0.37270    1.000
    H11      H        0.47490    0.75690    0.38200    1.000
    C17      C        0.52470    0.68060    0.36980    1.000
    H12      H        0.47360    0.66070    0.37650    1.000
    C18      C        0.88430    0.93520    0.29250    1.000
    C19      C        0.80640    0.90730    0.31120    1.000
    C20      C        0.72620    0.89160    0.24230    1.000
    H13      H        0.71960    0.89950    0.18170    1.000
    C21      C        0.65430    0.86410    0.25940    1.000
    H14      H        0.59880    0.85310    0.21110    1.000
    C22      C        0.66500    0.85310    0.34740    1.000
    C23      C        0.74200    0.86960    0.41710    1.000
    H15      H        0.74690    0.86270    0.47770    1.000
    C24      C        0.81330    0.89650    0.39950    1.000
    H16      H        0.86810    0.90780    0.44840    1.000
    Zn2      Zn       0.07358    0.98734    0.36179    1.000
    O6       O        0.17140    0.06556    0.35700    1.000
    O7       O        0.02740    0.06422    0.35770    1.000
    O8       O        0.09340    0.32411    0.36510    1.000
    O9       O        0.37000    0.44646    0.21150    1.000
    O10      O        0.45950    0.44544    0.35740    1.000
    N2       N        0.15800    0.96782    0.48880    1.000
    C25      C        0.12400    0.94950    0.55120    1.000
    H17      H        0.05880    0.94050    0.53180    1.000
    C26      C        0.17720    0.94280    0.64090    1.000
    H18      H        0.14960    0.92880    0.68160    1.000
    C27      C        0.27280    0.95670    0.67170    1.000
    C28      C        0.30890    0.97360    0.60730    1.000
    H19      H        0.37420    0.98190    0.62480    1.000
    C29      C        0.25080    0.97860    0.51820    1.000
    H20      H        0.27760    0.99030    0.47540    1.000
    C30      C        0.32730    0.95660    0.76880    1.000
    H21      H        0.30880    0.93160    0.80560    1.000
    C31      C        0.40100    0.98920    0.80890    1.000
    H22      H        0.42270    0.01140    0.77100    1.000
    C32      C        0.45160    0.99380    0.90650    1.000
    C33      C        0.50640    0.04050    0.94090    1.000
    H23      H        0.51130    0.06850    0.90070    1.000
    C34      C        0.44630    0.95350    0.96710    1.000
    H24      H        0.40950    0.92120    0.94480    1.000
    C35      C        0.09950    0.09050    0.35700    1.000
    C36      C        0.09800    0.15190    0.35740    1.000
    C37      C        0.17170    0.18070    0.34700    1.000
    H25      H        0.22250    0.16130    0.33930    1.000
    C38      C        0.17180    0.23810    0.34790    1.000
    H26      H        0.22170    0.25800    0.33910    1.000
    C39      C        0.09930    0.26600    0.36160    1.000
    C40      C        0.02490    0.23750    0.37270    1.000
    H27      H        0.97490    0.25690    0.38200    1.000
    C41      C        0.02470    0.18060    0.36980    1.000
    H28      H        0.97360    0.16070    0.37650    1.000
    C42      C        0.38430    0.43520    0.29250    1.000
    C43      C        0.30640    0.40730    0.31120    1.000
    C44      C        0.22620    0.39160    0.24230    1.000
    H29      H        0.21960    0.39950    0.18170    1.000
    C45      C        0.15430    0.36410    0.25940    1.000
    H30      H        0.09880    0.35310    0.21110    1.000
    C46      C        0.16500    0.35310    0.34740    1.000
    C47      C        0.24200    0.36960    0.41710    1.000
    H31      H        0.24690    0.36270    0.47770    1.000
    C48      C        0.31330    0.39650    0.39950    1.000
    H32      H        0.36810    0.40780    0.44840    1.000
    Zn3      Zn       0.42642    0.48734    0.13821    1.000
    O11      O        0.32860    0.56556    0.14300    1.000
    O12      O        0.47260    0.56422    0.14230    1.000
    O13      O        0.40660    0.82411    0.13490    1.000
    O14      O        0.13000    0.94646    0.28850    1.000
    O15      O        0.04050    0.94544    0.14260    1.000
    N3       N        0.34200    0.46782    0.01120    1.000
    C49      C        0.37600    0.44950    0.94880    1.000
    H33      H        0.44120    0.44050    0.96820    1.000
    C50      C        0.32280    0.44280    0.85910    1.000
    H34      H        0.35040    0.42880    0.81840    1.000
    C51      C        0.22720    0.45670    0.82830    1.000
    C52      C        0.19110    0.47360    0.89270    1.000
    H35      H        0.12580    0.48190    0.87520    1.000
    C53      C        0.24920    0.47860    0.98180    1.000
    H36      H        0.22240    0.49030    0.02460    1.000
    C54      C        0.17270    0.45660    0.73120    1.000
    H37      H        0.19120    0.43160    0.69440    1.000
    C55      C        0.09900    0.48920    0.69110    1.000
    H38      H        0.07730    0.51140    0.72900    1.000
    C56      C        0.04840    0.49380    0.59350    1.000
    C57      C        0.99360    0.54050    0.55910    1.000
    H39      H        0.98870    0.56850    0.59930    1.000
    C58      C        0.05370    0.45350    0.53290    1.000
    H40      H        0.09050    0.42120    0.55520    1.000
    C59      C        0.40050    0.59050    0.14300    1.000
    C60      C        0.40200    0.65190    0.14260    1.000
    C61      C        0.32830    0.68070    0.15300    1.000
    H41      H        0.27750    0.66130    0.16070    1.000
    C62      C        0.32820    0.73810    0.15210    1.000
    H42      H        0.27830    0.75800    0.16090    1.000
    C63      C        0.40070    0.76600    0.13840    1.000
    C64      C        0.47510    0.73750    0.12730    1.000
    H43      H        0.52510    0.75690    0.11800    1.000
    C65      C        0.47530    0.68060    0.13020    1.000
    H44      H        0.52640    0.66070    0.12350    1.000
    C66      C        0.11570    0.93520    0.20750    1.000
    C67      C        0.19360    0.90730    0.18880    1.000
    C68      C        0.27380    0.89160    0.25770    1.000
    H45      H        0.28040    0.89950    0.31830    1.000
    C69      C        0.34570    0.86410    0.24060    1.000
    H46      H        0.40120    0.85310    0.28890    1.000
    C70      C        0.33500    0.85310    0.15260    1.000
    C71      C        0.25800    0.86960    0.08290    1.000
    H47      H        0.25310    0.86270    0.02230    1.000
    C72      C        0.18670    0.89650    0.10050    1.000
    H48      H        0.13190    0.90780    0.05160    1.000
    Zn4      Zn       0.92642    0.98734    0.13821    1.000
    O16      O        0.82860    0.06556    0.14300    1.000
    O17      O        0.97260    0.06422    0.14230    1.000
    O18      O        0.90660    0.32411    0.13490    1.000
    O19      O        0.63000    0.44646    0.28850    1.000
    O20      O        0.54050    0.44544    0.14260    1.000
    N4       N        0.84200    0.96782    0.01120    1.000
    C73      C        0.87600    0.94950    0.94880    1.000
    H49      H        0.94120    0.94050    0.96820    1.000
    C74      C        0.82280    0.94280    0.85910    1.000
    H50      H        0.85040    0.92880    0.81840    1.000
    C75      C        0.72720    0.95670    0.82830    1.000
    C76      C        0.69110    0.97360    0.89270    1.000
    H51      H        0.62580    0.98190    0.87520    1.000
    C77      C        0.74920    0.97860    0.98180    1.000
    H52      H        0.72240    0.99030    0.02460    1.000
    C78      C        0.67270    0.95660    0.73120    1.000
    H53      H        0.69120    0.93160    0.69440    1.000
    C79      C        0.59900    0.98920    0.69110    1.000
    H54      H        0.57730    0.01140    0.72900    1.000
    C80      C        0.54840    0.99380    0.59350    1.000
    C81      C        0.49360    0.04050    0.55910    1.000
    H55      H        0.48870    0.06850    0.59930    1.000
    C82      C        0.55370    0.95350    0.53290    1.000
    H56      H        0.59050    0.92120    0.55520    1.000
    C83      C        0.90050    0.09050    0.14300    1.000
    C84      C        0.90200    0.15190    0.14260    1.000
    C85      C        0.82830    0.18070    0.15300    1.000
    H57      H        0.77750    0.16130    0.16070    1.000
    C86      C        0.82820    0.23810    0.15210    1.000
    H58      H        0.77830    0.25800    0.16090    1.000
    C87      C        0.90070    0.26600    0.13840    1.000
    C88      C        0.97510    0.23750    0.12730    1.000
    H59      H        0.02510    0.25690    0.11800    1.000
    C89      C        0.97530    0.18060    0.13020    1.000
    H60      H        0.02640    0.16070    0.12350    1.000
    C90      C        0.61570    0.43520    0.20750    1.000
    C91      C        0.69360    0.40730    0.18880    1.000
    C92      C        0.77380    0.39160    0.25770    1.000
    H61      H        0.78040    0.39950    0.31830    1.000
    C93      C        0.84570    0.36410    0.24060    1.000
    H62      H        0.90120    0.35310    0.28890    1.000
    C94      C        0.83500    0.35310    0.15260    1.000
    C95      C        0.75800    0.36960    0.08290    1.000
    H63      H        0.75310    0.36270    0.02230    1.000
    C96      C        0.68670    0.39650    0.10050    1.000
    H64      H        0.63190    0.40780    0.05160    1.000
    Zn5      Zn       0.42642    0.51266    0.63821    1.000
    O21      O        0.32860    0.43444    0.64300    1.000
    O22      O        0.47260    0.43578    0.64230    1.000
    O23      O        0.40660    0.17589    0.63490    1.000
    O24      O        0.13000    0.05354    0.78850    1.000
    O25      O        0.04050    0.05456    0.64260    1.000
    N5       N        0.34200    0.53218    0.51120    1.000
    C97      C        0.37600    0.55050    0.44880    1.000
    H65      H        0.44120    0.55950    0.46820    1.000
    C98      C        0.32280    0.55720    0.35910    1.000
    H66      H        0.35040    0.57120    0.31840    1.000
    C99      C        0.22720    0.54330    0.32830    1.000
    C100     C        0.19110    0.52640    0.39270    1.000
    H67      H        0.12580    0.51810    0.37520    1.000
    C101     C        0.24920    0.52140    0.48180    1.000
    H68      H        0.22240    0.50970    0.52460    1.000
    C102     C        0.17270    0.54340    0.23120    1.000
    H69      H        0.19120    0.56840    0.19440    1.000
    C103     C        0.09900    0.51080    0.19110    1.000
    H70      H        0.07730    0.48860    0.22900    1.000
    C104     C        0.04840    0.50620    0.09350    1.000
    C105     C        0.99360    0.45950    0.05910    1.000
    H71      H        0.98870    0.43150    0.09930    1.000
    C106     C        0.05370    0.54650    0.03290    1.000
    H72      H        0.09050    0.57880    0.05520    1.000
    C107     C        0.40050    0.40950    0.64300    1.000
    C108     C        0.40200    0.34810    0.64260    1.000
    C109     C        0.32830    0.31930    0.65300    1.000
    H73      H        0.27750    0.33870    0.66070    1.000
    C110     C        0.32820    0.26190    0.65210    1.000
    H74      H        0.27830    0.24200    0.66090    1.000
    C111     C        0.40070    0.23400    0.63840    1.000
    C112     C        0.47510    0.26250    0.62730    1.000
    H75      H        0.52510    0.24310    0.61800    1.000
    C113     C        0.47530    0.31940    0.63020    1.000
    H76      H        0.52640    0.33930    0.62350    1.000
    C114     C        0.11570    0.06480    0.70750    1.000
    C115     C        0.19360    0.09270    0.68880    1.000
    C116     C        0.27380    0.10840    0.75770    1.000
    H77      H        0.28040    0.10050    0.81830    1.000
    C117     C        0.34570    0.13590    0.74060    1.000
    H78      H        0.40120    0.14690    0.78890    1.000
    C118     C        0.33500    0.14690    0.65260    1.000
    C119     C        0.25800    0.13040    0.58290    1.000
    H79      H        0.25310    0.13730    0.52230    1.000
    C120     C        0.18670    0.10350    0.60050    1.000
    H80      H        0.13190    0.09220    0.55160    1.000
    Zn6      Zn       0.92642    0.01266    0.63821    1.000
    O26      O        0.82860    0.93444    0.64300    1.000
    O27      O        0.97260    0.93578    0.64230    1.000
    O28      O        0.90660    0.67589    0.63490    1.000
    O29      O        0.63000    0.55354    0.78850    1.000
    O30      O        0.54050    0.55456    0.64260    1.000
    N6       N        0.84200    0.03218    0.51120    1.000
    C121     C        0.87600    0.05050    0.44880    1.000
    H81      H        0.94120    0.05950    0.46820    1.000
    C122     C        0.82280    0.05720    0.35910    1.000
    H82      H        0.85040    0.07120    0.31840    1.000
    C123     C        0.72720    0.04330    0.32830    1.000
    C124     C        0.69110    0.02640    0.39270    1.000
    H83      H        0.62580    0.01810    0.37520    1.000
    C125     C        0.74920    0.02140    0.48180    1.000
    H84      H        0.72240    0.00970    0.52460    1.000
    C126     C        0.67270    0.04340    0.23120    1.000
    H85      H        0.69120    0.06840    0.19440    1.000
    C127     C        0.59900    0.01080    0.19110    1.000
    H86      H        0.57730    0.98860    0.22900    1.000
    C128     C        0.54840    0.00620    0.09350    1.000
    C129     C        0.49360    0.95950    0.05910    1.000
    H87      H        0.48870    0.93150    0.09930    1.000
    C130     C        0.55370    0.04650    0.03290    1.000
    H88      H        0.59050    0.07880    0.05520    1.000
    C131     C        0.90050    0.90950    0.64300    1.000
    C132     C        0.90200    0.84810    0.64260    1.000
    C133     C        0.82830    0.81930    0.65300    1.000
    H89      H        0.77750    0.83870    0.66070    1.000
    C134     C        0.82820    0.76190    0.65210    1.000
    H90      H        0.77830    0.74200    0.66090    1.000
    C135     C        0.90070    0.73400    0.63840    1.000
    C136     C        0.97510    0.76250    0.62730    1.000
    H91      H        0.02510    0.74310    0.61800    1.000
    C137     C        0.97530    0.81940    0.63020    1.000
    H92      H        0.02640    0.83930    0.62350    1.000
    C138     C        0.61570    0.56480    0.70750    1.000
    C139     C        0.69360    0.59270    0.68880    1.000
    C140     C        0.77380    0.60840    0.75770    1.000
    H93      H        0.78040    0.60050    0.81830    1.000
    C141     C        0.84570    0.63590    0.74060    1.000
    H94      H        0.90120    0.64690    0.78890    1.000
    C142     C        0.83500    0.64690    0.65260    1.000
    C143     C        0.75800    0.63040    0.58290    1.000
    H95      H        0.75310    0.63730    0.52230    1.000
    C144     C        0.68670    0.60350    0.60050    1.000
    H96      H        0.63190    0.59220    0.55160    1.000
    Zn7      Zn       0.57358    0.51266    0.86179    1.000
    O31      O        0.67140    0.43444    0.85700    1.000
    O32      O        0.52740    0.43578    0.85770    1.000
    O33      O        0.59340    0.17589    0.86510    1.000
    O34      O        0.87000    0.05354    0.71150    1.000
    O35      O        0.95950    0.05456    0.85740    1.000
    N7       N        0.65800    0.53218    0.98880    1.000
    C145     C        0.62400    0.55050    0.05120    1.000
    H97      H        0.55880    0.55950    0.03180    1.000
    C146     C        0.67720    0.55720    0.14090    1.000
    H98      H        0.64960    0.57120    0.18160    1.000
    C147     C        0.77280    0.54330    0.17170    1.000
    C148     C        0.80890    0.52640    0.10730    1.000
    H99      H        0.87420    0.51810    0.12480    1.000
    C149     C        0.75080    0.52140    0.01820    1.000
    H100     H        0.77760    0.50970    0.97540    1.000
    C150     C        0.82730    0.54340    0.26880    1.000
    H101     H        0.80880    0.56840    0.30560    1.000
    C151     C        0.90100    0.51080    0.30890    1.000
    H102     H        0.92270    0.48860    0.27100    1.000
    C152     C        0.95160    0.50620    0.40650    1.000
    C153     C        0.00640    0.45950    0.44090    1.000
    H103     H        0.01130    0.43150    0.40070    1.000
    C154     C        0.94630    0.54650    0.46710    1.000
    H104     H        0.90950    0.57880    0.44480    1.000
    C155     C        0.59950    0.40950    0.85700    1.000
    C156     C        0.59800    0.34810    0.85740    1.000
    C157     C        0.67170    0.31930    0.84700    1.000
    H105     H        0.72250    0.33870    0.83930    1.000
    C158     C        0.67180    0.26190    0.84790    1.000
    H106     H        0.72170    0.24200    0.83910    1.000
    C159     C        0.59930    0.23400    0.86160    1.000
    C160     C        0.52490    0.26250    0.87270    1.000
    H107     H        0.47490    0.24310    0.88200    1.000
    C161     C        0.52470    0.31940    0.86980    1.000
    H108     H        0.47360    0.33930    0.87650    1.000
    C162     C        0.88430    0.06480    0.79250    1.000
    C163     C        0.80640    0.09270    0.81120    1.000
    C164     C        0.72620    0.10840    0.74230    1.000
    H109     H        0.71960    0.10050    0.68170    1.000
    C165     C        0.65430    0.13590    0.75940    1.000
    H110     H        0.59880    0.14690    0.71110    1.000
    C166     C        0.66500    0.14690    0.84740    1.000
    C167     C        0.74200    0.13040    0.91710    1.000
    H111     H        0.74690    0.13730    0.97770    1.000
    C168     C        0.81330    0.10350    0.89950    1.000
    H112     H        0.86810    0.09220    0.94840    1.000
    Zn8      Zn       0.07358    0.01266    0.86179    1.000
    O36      O        0.17140    0.93444    0.85700    1.000
    O37      O        0.02740    0.93578    0.85770    1.000
    O38      O        0.09340    0.67589    0.86510    1.000
    O39      O        0.37000    0.55354    0.71150    1.000
    O40      O        0.45950    0.55456    0.85740    1.000
    N8       N        0.15800    0.03218    0.98880    1.000
    C169     C        0.12400    0.05050    0.05120    1.000
    H113     H        0.05880    0.05950    0.03180    1.000
    C170     C        0.17720    0.05720    0.14090    1.000
    H114     H        0.14960    0.07120    0.18160    1.000
    C171     C        0.27280    0.04330    0.17170    1.000
    C172     C        0.30890    0.02640    0.10730    1.000
    H115     H        0.37420    0.01810    0.12480    1.000
    C173     C        0.25080    0.02140    0.01820    1.000
    H116     H        0.27760    0.00970    0.97540    1.000
    C174     C        0.32730    0.04340    0.26880    1.000
    H117     H        0.30880    0.06840    0.30560    1.000
    C175     C        0.40100    0.01080    0.30890    1.000
    H118     H        0.42270    0.98860    0.27100    1.000
    C176     C        0.45160    0.00620    0.40650    1.000
    C177     C        0.50640    0.95950    0.44090    1.000
    H119     H        0.51130    0.93150    0.40070    1.000
    C178     C        0.44630    0.04650    0.46710    1.000
    H120     H        0.40950    0.07880    0.44480    1.000
    C179     C        0.09950    0.90950    0.85700    1.000
    C180     C        0.09800    0.84810    0.85740    1.000
    C181     C        0.17170    0.81930    0.84700    1.000
    H121     H        0.22250    0.83870    0.83930    1.000
    C182     C        0.17180    0.76190    0.84790    1.000
    H122     H        0.22170    0.74200    0.83910    1.000
    C183     C        0.09930    0.73400    0.86160    1.000
    C184     C        0.02490    0.76250    0.87270    1.000
    H123     H        0.97490    0.74310    0.88200    1.000
    C185     C        0.02470    0.81940    0.86980    1.000
    H124     H        0.97360    0.83930    0.87650    1.000
    C186     C        0.38430    0.56480    0.79250    1.000
    C187     C        0.30640    0.59270    0.81120    1.000
    C188     C        0.22620    0.60840    0.74230    1.000
    H125     H        0.21960    0.60050    0.68170    1.000
    C189     C        0.15430    0.63590    0.75940    1.000
    H126     H        0.09880    0.64690    0.71110    1.000
    C190     C        0.16500    0.64690    0.84740    1.000
    C191     C        0.24200    0.63040    0.91710    1.000
    H127     H        0.24690    0.63730    0.97770    1.000
    C192     C        0.31330    0.60350    0.89950    1.000
    H128     H        0.36810    0.59220    0.94840    1.000
