# CIF file generated by openbabel 3.1.0, see https://openbabel.org
data_I
_chemical_name_common 'OKITIM02_charged'
_cell_length_a 15.8773
_cell_length_b 15.8773
_cell_length_c 21.684
_cell_angle_alpha 90
_cell_angle_beta 90
_cell_angle_gamma 90
_space_group_name_H-M_alt 'P 1'
_space_group_name_Hall 'P 1'
loop_
    _symmetry_equiv_pos_as_xyz
    x,y,z
loop_
    _atom_site_label
    _atom_site_type_symbol
    _atom_site_fract_x
    _atom_site_fract_y
    _atom_site_fract_z
    _atom_site_occupancy
    Cd1      Cd       0.94204    0.05796    0.75000    1.000
    Cd2      Cd       0.05796    0.94204    0.25000    1.000
    Cd3      Cd       0.44204    0.44204    0.50000    1.000
    Cd4      Cd       0.55796    0.55796    0.00000    1.000
    H1       H        0.46210    0.39000    0.65240    1.000
    H2       H        0.41500    0.28420    0.71460    1.000
    H3       H        0.21390    0.25920    0.60510    1.000
    H4       H        0.27260    0.35770    0.53940    1.000
    H5       H        0.34830    0.20250    0.77990    1.000
    H6       H        0.29480    0.09260    0.83660    1.000
    H7       H        0.19690    0.99790    0.79210    1.000
    H8       H        0.20150    0.13450    0.63560    1.000
    H9       H        0.95270    0.87830    0.53940    1.000
    H10      H        0.93490    0.76920    0.47100    1.000
    H11      H        0.03780    0.66600    0.45870    1.000
    H12      H        0.17450    0.77520    0.59510    1.000
    H13      H        0.23090    0.65160    0.60830    1.000
    H14      H        0.33890    0.55450    0.59320    1.000
    H15      H        0.26630    0.51110    0.42400    1.000
    H16      H        0.15560    0.60610    0.43380    1.000
    H17      H        0.25080    0.96900    0.59450    1.000
    H18      H        0.26500    0.91580    0.65010    1.000
    H19      H        0.53790    0.61000    0.15240    1.000
    H20      H        0.58500    0.71580    0.21460    1.000
    H21      H        0.78610    0.74080    0.10510    1.000
    H22      H        0.72740    0.64230    0.03940    1.000
    H23      H        0.65170    0.79750    0.27990    1.000
    H24      H        0.70520    0.90740    0.33660    1.000
    H25      H        0.80310    0.00210    0.29210    1.000
    H26      H        0.79850    0.86550    0.13560    1.000
    H27      H        0.04730    0.12170    0.03940    1.000
    H28      H        0.06510    0.23080    0.97100    1.000
    H29      H        0.96220    0.33400    0.95870    1.000
    H30      H        0.82550    0.22480    0.09510    1.000
    H31      H        0.76910    0.34840    0.10830    1.000
    H32      H        0.66110    0.44550    0.09320    1.000
    H33      H        0.73370    0.48890    0.92400    1.000
    H34      H        0.84440    0.39390    0.93380    1.000
    H35      H        0.74920    0.03100    0.09450    1.000
    H36      H        0.73500    0.08420    0.15010    1.000
    H37      H        0.11000    0.96210    0.40240    1.000
    H38      H        0.21580    0.91500    0.46460    1.000
    H39      H        0.24080    0.71390    0.35510    1.000
    H40      H        0.14230    0.77260    0.28940    1.000
    H41      H        0.29750    0.84830    0.52990    1.000
    H42      H        0.40740    0.79480    0.58660    1.000
    H43      H        0.50210    0.69690    0.54210    1.000
    H44      H        0.36550    0.70150    0.38560    1.000
    H45      H        0.62170    0.45270    0.28940    1.000
    H46      H        0.73080    0.43490    0.22100    1.000
    H47      H        0.83400    0.53780    0.20870    1.000
    H48      H        0.72480    0.67450    0.34510    1.000
    H49      H        0.84840    0.73090    0.35830    1.000
    H50      H        0.94550    0.83890    0.34320    1.000
    H51      H        0.98890    0.76630    0.17400    1.000
    H52      H        0.89390    0.65560    0.18380    1.000
    H53      H        0.53100    0.75080    0.34450    1.000
    H54      H        0.58420    0.76500    0.40010    1.000
    H55      H        0.89000    0.03790    0.90240    1.000
    H56      H        0.78420    0.08500    0.96460    1.000
    H57      H        0.75920    0.28610    0.85510    1.000
    H58      H        0.85770    0.22740    0.78940    1.000
    H59      H        0.70250    0.15170    0.02990    1.000
    H60      H        0.59260    0.20520    0.08660    1.000
    H61      H        0.49790    0.30310    0.04210    1.000
    H62      H        0.63450    0.29850    0.88560    1.000
    H63      H        0.37830    0.54730    0.78940    1.000
    H64      H        0.26920    0.56510    0.72100    1.000
    H65      H        0.16600    0.46220    0.70870    1.000
    H66      H        0.27520    0.32550    0.84510    1.000
    H67      H        0.15160    0.26910    0.85830    1.000
    H68      H        0.05450    0.16110    0.84320    1.000
    H69      H        0.01110    0.23370    0.67400    1.000
    H70      H        0.10610    0.34440    0.68380    1.000
    H71      H        0.46900    0.24920    0.84450    1.000
    H72      H        0.41580    0.23500    0.90010    1.000
    H73      H        0.03790    0.89000    0.09760    1.000
    H74      H        0.08500    0.78420    0.03540    1.000
    H75      H        0.28610    0.75920    0.14490    1.000
    H76      H        0.22740    0.85770    0.21060    1.000
    H77      H        0.15170    0.70250    0.97010    1.000
    H78      H        0.20520    0.59260    0.91340    1.000
    H79      H        0.30310    0.49790    0.95790    1.000
    H80      H        0.29850    0.63450    0.11440    1.000
    H81      H        0.54730    0.37830    0.21060    1.000
    H82      H        0.56510    0.26920    0.27900    1.000
    H83      H        0.46220    0.16600    0.29130    1.000
    H84      H        0.32550    0.27520    0.15490    1.000
    H85      H        0.26910    0.15160    0.14170    1.000
    H86      H        0.16110    0.05450    0.15680    1.000
    H87      H        0.23370    0.01110    0.32600    1.000
    H88      H        0.34440    0.10610    0.31620    1.000
    H89      H        0.24920    0.46900    0.15550    1.000
    H90      H        0.23500    0.41580    0.09990    1.000
    H91      H        0.96210    0.11000    0.59760    1.000
    H92      H        0.91500    0.21580    0.53540    1.000
    H93      H        0.71390    0.24080    0.64490    1.000
    H94      H        0.77260    0.14230    0.71060    1.000
    H95      H        0.84830    0.29750    0.47010    1.000
    H96      H        0.79480    0.40740    0.41340    1.000
    H97      H        0.69690    0.50210    0.45790    1.000
    H98      H        0.70150    0.36550    0.61440    1.000
    H99      H        0.45270    0.62170    0.71060    1.000
    H100     H        0.43490    0.73080    0.77900    1.000
    H101     H        0.53780    0.83400    0.79130    1.000
    H102     H        0.67450    0.72480    0.65490    1.000
    H103     H        0.73090    0.84840    0.64170    1.000
    H104     H        0.83890    0.94550    0.65680    1.000
    H105     H        0.76630    0.98890    0.82600    1.000
    H106     H        0.65560    0.89390    0.81620    1.000
    H107     H        0.75080    0.53100    0.65550    1.000
    H108     H        0.76500    0.58420    0.59990    1.000
    H109     H        0.39000    0.46210    0.34760    1.000
    H110     H        0.28420    0.41500    0.28540    1.000
    H111     H        0.25920    0.21390    0.39490    1.000
    H112     H        0.35770    0.27260    0.46060    1.000
    H113     H        0.20250    0.34830    0.22010    1.000
    H114     H        0.09260    0.29480    0.16340    1.000
    H115     H        0.99790    0.19690    0.20790    1.000
    H116     H        0.13450    0.20150    0.36440    1.000
    H117     H        0.87830    0.95270    0.46060    1.000
    H118     H        0.76920    0.93490    0.52900    1.000
    H119     H        0.66600    0.03780    0.54130    1.000
    H120     H        0.77520    0.17450    0.40490    1.000
    H121     H        0.65160    0.23090    0.39170    1.000
    H122     H        0.55450    0.33890    0.40680    1.000
    H123     H        0.51110    0.26630    0.57600    1.000
    H124     H        0.60610    0.15560    0.56620    1.000
    H125     H        0.96900    0.25080    0.40550    1.000
    H126     H        0.91580    0.26500    0.34990    1.000
    H127     H        0.61000    0.53790    0.84760    1.000
    H128     H        0.71580    0.58500    0.78540    1.000
    H129     H        0.74080    0.78610    0.89490    1.000
    H130     H        0.64230    0.72740    0.96060    1.000
    H131     H        0.79750    0.65170    0.72010    1.000
    H132     H        0.90740    0.70520    0.66340    1.000
    H133     H        0.00210    0.80310    0.70790    1.000
    H134     H        0.86550    0.79850    0.86440    1.000
    H135     H        0.12170    0.04730    0.96060    1.000
    H136     H        0.23080    0.06510    0.02900    1.000
    H137     H        0.33400    0.96220    0.04130    1.000
    H138     H        0.22480    0.82550    0.90490    1.000
    H139     H        0.34840    0.76910    0.89170    1.000
    H140     H        0.44550    0.66110    0.90680    1.000
    H141     H        0.48890    0.73370    0.07600    1.000
    H142     H        0.39390    0.84440    0.06620    1.000
    H143     H        0.03100    0.74920    0.90550    1.000
    H144     H        0.08420    0.73500    0.84990    1.000
    C1       C        0.41320    0.35950    0.64050    1.000
    C2       C        0.38440    0.29770    0.67830    1.000
    C3       C        0.31030    0.25330    0.66460    1.000
    C4       C        0.26800    0.28150    0.61410    1.000
    C5       C        0.30240    0.34200    0.57560    1.000
    C6       C        0.27940    0.18180    0.70140    1.000
    C7       C        0.30730    0.16650    0.76210    1.000
    C8       C        0.27640    0.10080    0.79540    1.000
    C9       C        0.21720    0.04470    0.76920    1.000
    C10      C        0.18920    0.05940    0.70910    1.000
    C11      C        0.22050    0.12580    0.67670    1.000
    C12      C        0.12670    0.00350    0.67980    1.000
    C13      C        0.07500    0.90810    0.61740    1.000
    C14      C        0.06750    0.83880    0.57300    1.000
    C15      C        0.99450    0.83570    0.53600    1.000
    C16      C        0.98440    0.77150    0.49550    1.000
    C17      C        0.04500    0.70880    0.48890    1.000
    C18      C        0.11560    0.70850    0.52630    1.000
    C19      C        0.12650    0.77460    0.56900    1.000
    C20      C        0.18090    0.64250    0.52160    1.000
    C21      C        0.23670    0.62440    0.56950    1.000
    C22      C        0.30150    0.56560    0.56000    1.000
    C23      C        0.25950    0.54020    0.46200    1.000
    C24      C        0.19290    0.59770    0.46750    1.000
    C25      C        0.58680    0.64050    0.14050    1.000
    C26      C        0.61560    0.70230    0.17830    1.000
    C27      C        0.68970    0.74670    0.16460    1.000
    C28      C        0.73200    0.71850    0.11410    1.000
    C29      C        0.69760    0.65800    0.07560    1.000
    C30      C        0.72060    0.81820    0.20140    1.000
    C31      C        0.69270    0.83350    0.26210    1.000
    C32      C        0.72360    0.89920    0.29540    1.000
    C33      C        0.78280    0.95530    0.26920    1.000
    C34      C        0.81080    0.94060    0.20910    1.000
    C35      C        0.77950    0.87420    0.17670    1.000
    C36      C        0.87330    0.99650    0.17980    1.000
    C37      C        0.92500    0.09190    0.11740    1.000
    C38      C        0.93250    0.16120    0.07300    1.000
    C39      C        0.00550    0.16430    0.03600    1.000
    C40      C        0.01560    0.22850    0.99550    1.000
    C41      C        0.95500    0.29120    0.98890    1.000
    C42      C        0.88440    0.29150    0.02630    1.000
    C43      C        0.87350    0.22540    0.06900    1.000
    C44      C        0.81910    0.35750    0.02160    1.000
    C45      C        0.76330    0.37560    0.06950    1.000
    C46      C        0.69850    0.43440    0.06000    1.000
    C47      C        0.74050    0.45980    0.96200    1.000
    C48      C        0.80710    0.40230    0.96750    1.000
    C49      C        0.14050    0.91320    0.39050    1.000
    C50      C        0.20230    0.88440    0.42830    1.000
    C51      C        0.24670    0.81030    0.41460    1.000
    C52      C        0.21850    0.76800    0.36410    1.000
    C53      C        0.15800    0.80240    0.32560    1.000
    C54      C        0.31820    0.77940    0.45140    1.000
    C55      C        0.33350    0.80730    0.51210    1.000
    C56      C        0.39920    0.77640    0.54540    1.000
    C57      C        0.45530    0.71720    0.51920    1.000
    C58      C        0.44060    0.68920    0.45910    1.000
    C59      C        0.37420    0.72050    0.42670    1.000
    C60      C        0.49650    0.62670    0.42980    1.000
    C61      C        0.59190    0.57500    0.36740    1.000
    C62      C        0.66120    0.56750    0.32300    1.000
    C63      C        0.66430    0.49450    0.28600    1.000
    C64      C        0.72850    0.48440    0.24550    1.000
    C65      C        0.79120    0.54500    0.23890    1.000
    C66      C        0.79150    0.61560    0.27630    1.000
    C67      C        0.72540    0.62650    0.31900    1.000
    C68      C        0.85750    0.68090    0.27160    1.000
    C69      C        0.87560    0.73670    0.31950    1.000
    C70      C        0.93440    0.80150    0.31000    1.000
    C71      C        0.95980    0.75950    0.21200    1.000
    C72      C        0.90230    0.69290    0.21750    1.000
    C73      C        0.85950    0.08680    0.89050    1.000
    C74      C        0.79770    0.11560    0.92830    1.000
    C75      C        0.75330    0.18970    0.91460    1.000
    C76      C        0.78150    0.23200    0.86410    1.000
    C77      C        0.84200    0.19760    0.82560    1.000
    C78      C        0.68180    0.22060    0.95140    1.000
    C79      C        0.66650    0.19270    0.01210    1.000
    C80      C        0.60080    0.22360    0.04540    1.000
    C81      C        0.54470    0.28280    0.01920    1.000
    C82      C        0.55940    0.31080    0.95910    1.000
    C83      C        0.62580    0.27950    0.92670    1.000
    C84      C        0.50350    0.37330    0.92980    1.000
    C85      C        0.40810    0.42500    0.86740    1.000
    C86      C        0.33880    0.43250    0.82300    1.000
    C87      C        0.33570    0.50550    0.78600    1.000
    C88      C        0.27150    0.51560    0.74550    1.000
    C89      C        0.20880    0.45500    0.73890    1.000
    C90      C        0.20850    0.38440    0.77630    1.000
    C91      C        0.27460    0.37350    0.81900    1.000
    C92      C        0.14250    0.31910    0.77160    1.000
    C93      C        0.12440    0.26330    0.81950    1.000
    C94      C        0.06560    0.19850    0.81000    1.000
    C95      C        0.04020    0.24050    0.71200    1.000
    C96      C        0.09770    0.30710    0.71750    1.000
    C97      C        0.08680    0.85950    0.10950    1.000
    C98      C        0.11560    0.79770    0.07170    1.000
    C99      C        0.18970    0.75330    0.08540    1.000
    C100     C        0.23200    0.78150    0.13590    1.000
    C101     C        0.19760    0.84200    0.17440    1.000
    C102     C        0.22060    0.68180    0.04860    1.000
    C103     C        0.19270    0.66650    0.98790    1.000
    C104     C        0.22360    0.60080    0.95460    1.000
    C105     C        0.28280    0.54470    0.98080    1.000
    C106     C        0.31080    0.55940    0.04090    1.000
    C107     C        0.27950    0.62580    0.07330    1.000
    C108     C        0.37330    0.50350    0.07020    1.000
    C109     C        0.42500    0.40810    0.13260    1.000
    C110     C        0.43250    0.33880    0.17700    1.000
    C111     C        0.50550    0.33570    0.21400    1.000
    C112     C        0.51560    0.27150    0.25450    1.000
    C113     C        0.45500    0.20880    0.26110    1.000
    C114     C        0.38440    0.20850    0.22370    1.000
    C115     C        0.37350    0.27460    0.18100    1.000
    C116     C        0.31910    0.14250    0.22840    1.000
    C117     C        0.26330    0.12440    0.18050    1.000
    C118     C        0.19850    0.06560    0.19000    1.000
    C119     C        0.24050    0.04020    0.28800    1.000
    C120     C        0.30710    0.09770    0.28250    1.000
    C121     C        0.91320    0.14050    0.60950    1.000
    C122     C        0.88440    0.20230    0.57170    1.000
    C123     C        0.81030    0.24670    0.58540    1.000
    C124     C        0.76800    0.21850    0.63590    1.000
    C125     C        0.80240    0.15800    0.67440    1.000
    C126     C        0.77940    0.31820    0.54860    1.000
    C127     C        0.80730    0.33350    0.48790    1.000
    C128     C        0.77640    0.39920    0.45460    1.000
    C129     C        0.71720    0.45530    0.48080    1.000
    C130     C        0.68920    0.44060    0.54090    1.000
    C131     C        0.72050    0.37420    0.57330    1.000
    C132     C        0.62670    0.49650    0.57020    1.000
    C133     C        0.57500    0.59190    0.63260    1.000
    C134     C        0.56750    0.66120    0.67700    1.000
    C135     C        0.49450    0.66430    0.71400    1.000
    C136     C        0.48440    0.72850    0.75450    1.000
    C137     C        0.54500    0.79120    0.76110    1.000
    C138     C        0.61560    0.79150    0.72370    1.000
    C139     C        0.62650    0.72540    0.68100    1.000
    C140     C        0.68090    0.85750    0.72840    1.000
    C141     C        0.73670    0.87560    0.68050    1.000
    C142     C        0.80150    0.93440    0.69000    1.000
    C143     C        0.75950    0.95980    0.78800    1.000
    C144     C        0.69290    0.90230    0.78250    1.000
    C145     C        0.35950    0.41320    0.35950    1.000
    C146     C        0.29770    0.38440    0.32170    1.000
    C147     C        0.25330    0.31030    0.33540    1.000
    C148     C        0.28150    0.26800    0.38590    1.000
    C149     C        0.34200    0.30240    0.42440    1.000
    C150     C        0.18180    0.27940    0.29860    1.000
    C151     C        0.16650    0.30730    0.23790    1.000
    C152     C        0.10080    0.27640    0.20460    1.000
    C153     C        0.04470    0.21720    0.23080    1.000
    C154     C        0.05940    0.18920    0.29090    1.000
    C155     C        0.12580    0.22050    0.32330    1.000
    C156     C        0.00350    0.12670    0.32020    1.000
    C157     C        0.90810    0.07500    0.38260    1.000
    C158     C        0.83880    0.06750    0.42700    1.000
    C159     C        0.83570    0.99450    0.46400    1.000
    C160     C        0.77150    0.98440    0.50450    1.000
    C161     C        0.70880    0.04500    0.51110    1.000
    C162     C        0.70850    0.11560    0.47370    1.000
    C163     C        0.77460    0.12650    0.43100    1.000
    C164     C        0.64250    0.18090    0.47840    1.000
    C165     C        0.62440    0.23670    0.43050    1.000
    C166     C        0.56560    0.30150    0.44000    1.000
    C167     C        0.54020    0.25950    0.53800    1.000
    C168     C        0.59770    0.19290    0.53250    1.000
    C169     C        0.64050    0.58680    0.85950    1.000
    C170     C        0.70230    0.61560    0.82170    1.000
    C171     C        0.74670    0.68970    0.83540    1.000
    C172     C        0.71850    0.73200    0.88590    1.000
    C173     C        0.65800    0.69760    0.92440    1.000
    C174     C        0.81820    0.72060    0.79860    1.000
    C175     C        0.83350    0.69270    0.73790    1.000
    C176     C        0.89920    0.72360    0.70460    1.000
    C177     C        0.95530    0.78280    0.73080    1.000
    C178     C        0.94060    0.81080    0.79090    1.000
    C179     C        0.87420    0.77950    0.82330    1.000
    C180     C        0.99650    0.87330    0.82020    1.000
    C181     C        0.09190    0.92500    0.88260    1.000
    C182     C        0.16120    0.93250    0.92700    1.000
    C183     C        0.16430    0.00550    0.96400    1.000
    C184     C        0.22850    0.01560    0.00450    1.000
    C185     C        0.29120    0.95500    0.01110    1.000
    C186     C        0.29150    0.88440    0.97370    1.000
    C187     C        0.22540    0.87350    0.93100    1.000
    C188     C        0.35750    0.81910    0.97840    1.000
    C189     C        0.37560    0.76330    0.93050    1.000
    C190     C        0.43440    0.69850    0.94000    1.000
    C191     C        0.45980    0.74050    0.03800    1.000
    C192     C        0.40230    0.80710    0.03250    1.000
    N1       N        0.37600    0.37920    0.58770    1.000
    N2       N        0.04460    0.00590    0.68450    1.000
    N3       N        0.01180    0.94540    0.64440    1.000
    N4       N        0.14940    0.94330    0.63820    1.000
    N5       N        0.23070    0.92480    0.61700    1.000
    N6       N        0.31360    0.52470    0.50740    1.000
    N7       N        0.62400    0.62080    0.08770    1.000
    N8       N        0.95540    0.99410    0.18450    1.000
    N9       N        0.98820    0.05460    0.14440    1.000
    N10      N        0.85060    0.05670    0.13820    1.000
    N11      N        0.76930    0.07520    0.11700    1.000
    N12      N        0.68640    0.47530    0.00740    1.000
    N13      N        0.12080    0.87600    0.33770    1.000
    N14      N        0.49410    0.54460    0.43450    1.000
    N15      N        0.55460    0.51180    0.39440    1.000
    N16      N        0.55670    0.64940    0.38820    1.000
    N17      N        0.57520    0.73070    0.36700    1.000
    N18      N        0.97530    0.81360    0.25740    1.000
    N19      N        0.87920    0.12400    0.83770    1.000
    N20      N        0.50590    0.45540    0.93450    1.000
    N21      N        0.44540    0.48820    0.89440    1.000
    N22      N        0.44330    0.35060    0.88820    1.000
    N23      N        0.42480    0.26930    0.86700    1.000
    N24      N        0.02470    0.18640    0.75740    1.000
    N25      N        0.12400    0.87920    0.16230    1.000
    N26      N        0.45540    0.50590    0.06550    1.000
    N27      N        0.48820    0.44540    0.10560    1.000
    N28      N        0.35060    0.44330    0.11180    1.000
    N29      N        0.26930    0.42480    0.13300    1.000
    N30      N        0.18640    0.02470    0.24260    1.000
    N31      N        0.87600    0.12080    0.66230    1.000
    N32      N        0.54460    0.49410    0.56550    1.000
    N33      N        0.51180    0.55460    0.60560    1.000
    N34      N        0.64940    0.55670    0.61180    1.000
    N35      N        0.73070    0.57520    0.63300    1.000
    N36      N        0.81360    0.97530    0.74260    1.000
    N37      N        0.37920    0.37600    0.41230    1.000
    N38      N        0.00590    0.04460    0.31550    1.000
    N39      N        0.94540    0.01180    0.35560    1.000
    N40      N        0.94330    0.14940    0.36180    1.000
    N41      N        0.92480    0.23070    0.38300    1.000
    N42      N        0.52470    0.31360    0.49260    1.000
    N43      N        0.62080    0.62400    0.91230    1.000
    N44      N        0.99410    0.95540    0.81550    1.000
    N45      N        0.05460    0.98820    0.85560    1.000
    N46      N        0.05670    0.85060    0.86180    1.000
    N47      N        0.07520    0.76930    0.88300    1.000
    N48      N        0.47530    0.68640    0.99260    1.000
    Cl1      Cl       0.37960    0.62040    0.25000    1.000
    O1       O        0.40450    0.66670    0.19190    1.000
    O2       O        0.43790    0.64110    0.28760    1.000
    O3       O        0.33330    0.59550    0.30810    1.000
    O4       O        0.35890    0.56210    0.21240    1.000
    Cl2      Cl       0.62040    0.37960    0.75000    1.000
    O5       O        0.59550    0.33330    0.69190    1.000
    O6       O        0.56210    0.35890    0.78760    1.000
    O7       O        0.66670    0.40450    0.80810    1.000
    O8       O        0.64110    0.43790    0.71240    1.000
    Cl3      Cl       0.87960    0.87960    0.00000    1.000
    O9       O        0.83330    0.90450    0.94190    1.000
    O10      O        0.85890    0.93790    0.03760    1.000
    O11      O        0.90450    0.83330    0.05810    1.000
    O12      O        0.93790    0.85890    0.96240    1.000
    Cl4      Cl       0.12040    0.12040    0.50000    1.000
    O13      O        0.16670    0.09550    0.44190    1.000
    O14      O        0.14110    0.06210    0.53760    1.000
    O15      O        0.09550    0.16670    0.55810    1.000
    O16      O        0.06210    0.14110    0.46240    1.000
    Cl5      Cl       0.26906    0.26906    0.00000    1.000
    O17      O        0.23650    0.23200    0.94920    1.000
    O18      O        0.34500    0.22050    0.99360    1.000
    O19      O        0.23200    0.23650    0.05080    1.000
    O20      O        0.22050    0.34500    0.00640    1.000
    Cl6      Cl       0.73094    0.73094    0.50000    1.000
    O21      O        0.76350    0.76800    0.44920    1.000
    O22      O        0.65500    0.77950    0.49360    1.000
    O23      O        0.76800    0.76350    0.55080    1.000
    O24      O        0.77950    0.65500    0.50640    1.000
    Cl7      Cl       0.23094    0.76906    0.75000    1.000
    O25      O        0.26800    0.73650    0.69920    1.000
    O26      O        0.27950    0.84500    0.74360    1.000
    O27      O        0.26350    0.73200    0.80080    1.000
    O28      O        0.15500    0.72050    0.75640    1.000
    Cl8      Cl       0.76906    0.23094    0.25000    1.000
    O29      O        0.73200    0.26350    0.19920    1.000
    O30      O        0.72050    0.15500    0.24360    1.000
    O31      O        0.73650    0.26800    0.30080    1.000
    O32      O        0.84500    0.27950    0.25640    1.000
