# CIF file generated by openbabel 3.1.0, see https://openbabel.org
data_I
_chemical_name_common 'image0'
_cell_length_a 19.0766
_cell_length_b 9.1657
_cell_length_c 14.1806
_cell_angle_alpha 90
_cell_angle_beta 90
_cell_angle_gamma 90
_space_group_name_H-M_alt 'P 1'
_space_group_name_Hall 'P 1'
loop_
    _symmetry_equiv_pos_as_xyz
    x,y,z
loop_
    _atom_site_label
    _atom_site_type_symbol
    _atom_site_fract_x
    _atom_site_fract_y
    _atom_site_fract_z
    _atom_site_occupancy
    V1       V        0.13916    0.23073    0.13449    1.000
    V2       V        0.99958    0.71660    0.35135    1.000
    V3       V        0.24556    0.75327    0.33742    1.000
    P1       P        0.11568    0.92576    0.23766    1.000
    P2       P        0.12393    0.06368    0.93163    1.000
    P3       P        0.12241    0.52983    0.26083    1.000
    P4       P        0.13616    0.45803    0.95072    1.000
    O1       O        0.09910    0.08850    0.22610    1.000
    O2       O        0.17190    0.90220    0.31220    1.000
    O3       O        0.04830    0.84420    0.25700    1.000
    O4       O        0.10640    0.10080    0.03220    1.000
    O5       O        0.19810    0.10370    0.90490    1.000
    O6       O        0.07060    0.12290    0.86150    1.000
    O7       O        0.14050    0.37220    0.24180    1.000
    O8       O        0.04800    0.54300    0.29750    1.000
    O9       O        0.17530    0.59450    0.32890    1.000
    O10      O        0.14490    0.39980    0.04970    1.000
    O11      O        0.06360    0.43060    0.91220    1.000
    O12      O        0.19490    0.41470    0.88560    1.000
    V4       V        0.86084    0.76927    0.63449    1.000
    V5       V        0.00042    0.28340    0.85135    1.000
    V6       V        0.75444    0.24673    0.83742    1.000
    P5       P        0.88432    0.07424    0.73766    1.000
    P6       P        0.87607    0.93632    0.43163    1.000
    P7       P        0.87759    0.47017    0.76083    1.000
    P8       P        0.86384    0.54197    0.45072    1.000
    O13      O        0.90090    0.91150    0.72610    1.000
    O14      O        0.82810    0.09780    0.81220    1.000
    O15      O        0.95170    0.15580    0.75700    1.000
    O16      O        0.89360    0.89920    0.53220    1.000
    O17      O        0.80190    0.89630    0.40490    1.000
    O18      O        0.92940    0.87710    0.36150    1.000
    O19      O        0.85950    0.62780    0.74180    1.000
    O20      O        0.95200    0.45700    0.79750    1.000
    O21      O        0.82470    0.40550    0.82890    1.000
    O22      O        0.85510    0.60020    0.54970    1.000
    O23      O        0.93640    0.56940    0.41220    1.000
    O24      O        0.80510    0.58530    0.38560    1.000
    V7       V        0.63916    0.26927    0.13449    1.000
    V8       V        0.49958    0.78340    0.35135    1.000
    V9       V        0.74556    0.74673    0.33742    1.000
    P9       P        0.61568    0.57424    0.23766    1.000
    P10      P        0.62393    0.43632    0.93163    1.000
    P11      P        0.62241    0.97017    0.26083    1.000
    P12      P        0.63616    0.04197    0.95072    1.000
    O25      O        0.59910    0.41150    0.22610    1.000
    O26      O        0.67190    0.59780    0.31220    1.000
    O27      O        0.54830    0.65580    0.25700    1.000
    O28      O        0.60640    0.39920    0.03220    1.000
    O29      O        0.69810    0.39630    0.90490    1.000
    O30      O        0.57060    0.37710    0.86150    1.000
    O31      O        0.64050    0.12780    0.24180    1.000
    O32      O        0.54800    0.95700    0.29750    1.000
    O33      O        0.67530    0.90550    0.32890    1.000
    O34      O        0.64490    0.10020    0.04970    1.000
    O35      O        0.56360    0.06940    0.91220    1.000
    O36      O        0.69490    0.08530    0.88560    1.000
    V10      V        0.36084    0.73073    0.63449    1.000
    V11      V        0.50042    0.21660    0.85135    1.000
    V12      V        0.25444    0.25327    0.83742    1.000
    P13      P        0.38432    0.42576    0.73766    1.000
    P14      P        0.37607    0.56368    0.43163    1.000
    P15      P        0.37759    0.02983    0.76083    1.000
    P16      P        0.36384    0.95803    0.45072    1.000
    O37      O        0.40090    0.58850    0.72610    1.000
    O38      O        0.32810    0.40220    0.81220    1.000
    O39      O        0.45170    0.34420    0.75700    1.000
    O40      O        0.39360    0.60080    0.53220    1.000
    O41      O        0.30190    0.60370    0.40490    1.000
    O42      O        0.42940    0.62290    0.36150    1.000
    O43      O        0.35950    0.87220    0.74180    1.000
    O44      O        0.45200    0.04300    0.79750    1.000
    O45      O        0.32470    0.09450    0.82890    1.000
    O46      O        0.35510    0.89980    0.54970    1.000
    O47      O        0.43640    0.93060    0.41220    1.000
    O48      O        0.30510    0.91470    0.38560    1.000
