data_functionalizedCrystal
_audit_creation_method	'EQeq! by Chris Wilmer'
_symmetry_space_group_name_H-M	'P1'
_symmetry_Int_Tables_number	1
_symmetry_cell_setting	triclinic
loop_
_symmetry_equiv_pos_as_xyz
  x,y,z
_cell_length_a	36.84
_cell_length_b	7.0063
_cell_length_c	6.1988
_cell_angle_alpha	90
_cell_angle_beta	97.45
_cell_angle_gamma	90
loop_
_atom_site_label
_atom_site_type_symbol
_atom_site_fract_x
_atom_site_fract_y
_atom_site_fract_z
_atom_site_charge
Mof_O 	O 	0.3467	0.441	0.512	-0.273
Mof_O 	O 	0.2005	0.1902	0.2114	-0.495
Mof_O 	O 	0.2241	0.3469	0.6206	-0.728
Mof_C 	C 	0.4497	0.432	0.302	0.001
Mof_H 	H 	0.4701	0.37	0.39	-0.032
Mof_C 	C 	0.4151	0.424	0.369	-0.06
Mof_H 	H 	0.4112	0.35	0.493	0.045
Mof_C 	C 	0.388	0.542	0.018	-0.191
Mof_C 	C 	0.4231	0.552	0.956	-0.128
Mof_H 	H 	0.4254	0.58	0.806	0.034
Mof_C 	C 	0.17331	0.4211	0.9691	0.023
Mof_C 	C 	0.1398	0.4101	0.051	-0.064
Mof_H 	H 	0.1387	0.3581	0.1927	0.057
Mof_C 	C 	0.108	0.4751	0.9263	0.054
Mof_H 	H 	0.085	0.4677	0.9825	0.142
Mof_C 	C 	0.1096	0.5511	0.7198	-0.07
Mof_H 	H 	0.0878	0.5957	0.6343	0.03
Mof_C 	C 	0.1431	0.562	0.6378	0.011
Mof_H 	H 	0.1441	0.6123	0.4952	0.002
Mof_C 	C 	0.2063	0.361	0.1257	0.292
Mof_O 	O 	0.8467	0.941	0.512	-0.242
Mof_O 	O 	0.7005	0.6902	0.2114	-0.5
Mof_O 	O 	0.7241	0.8469	0.6206	-0.713
Mof_C 	C 	0.9497	0.932	0.302	-0.01
Mof_H 	H 	0.9701	0.87	0.39	-0.025
Mof_C 	C 	0.9151	0.924	0.369	-0.093
Mof_H 	H 	0.9112	0.85	0.493	0.056
Mof_C 	C 	0.888	0.042	0.018	-0.528
Mof_C 	C 	0.9231	0.052	0.956	-0.546
Mof_H 	H 	0.9254	0.08	0.806	0.161
Mof_C 	C 	0.67331	0.9211	0.9691	0.049
Mof_C 	C 	0.6398	0.9101	0.051	-0.095
Mof_H 	H 	0.6387	0.8581	0.1927	0.06
Mof_C 	C 	0.608	0.9751	0.9263	0.05
Mof_H 	H 	0.585	0.9677	0.9825	0.181
Mof_C 	C 	0.6096	0.0511	0.7198	-0.137
Mof_H 	H 	0.5878	0.0957	0.6343	0.052
Mof_C 	C 	0.6431	0.062	0.6378	-0.09
Mof_H 	H 	0.6441	0.1123	0.4952	0.033
Mof_C 	C 	0.7063	0.861	0.1257	0.306
Mof_O 	O 	0.6533	0.441	0.488	-0.276
Mof_O 	O 	0.7995	0.1902	0.7886	-0.495
Mof_O 	O 	0.7759	0.3469	0.3794	-0.725
Mof_C 	C 	0.5503	0.432	0.698	-0.004
Mof_H 	H 	0.5299	0.37	0.61	-0.03
Mof_C 	C 	0.5849	0.424	0.631	-0.044
Mof_H 	H 	0.5888	0.35	0.507	0.036
Mof_C 	C 	0.612	0.542	0.982	-0.113
Mof_C 	C 	0.5769	0.552	0.044	-0.173
Mof_H 	H 	0.5746	0.58	0.194	0.044
Mof_C 	C 	0.82669	0.4211	0.0309	-0.048
Mof_C 	C 	0.8602	0.4101	0.949	0.018
Mof_H 	H 	0.8613	0.3581	0.8073	0.035
Mof_C 	C 	0.892	0.4751	0.0737	0.013
Mof_H 	H 	0.915	0.4677	0.0175	0.147
Mof_C 	C 	0.8904	0.5511	0.2802	-0.049
Mof_H 	H 	0.9122	0.5957	0.3657	0.023
Mof_C 	C 	0.8569	0.562	0.3622	-0.009
Mof_H 	H 	0.8559	0.6123	0.5048	0.011
Mof_C 	C 	0.7937	0.361	0.8743	0.336
Mof_O 	O 	0.1533	0.941	0.488	-0.246
Mof_O 	O 	0.2995	0.6902	0.7886	-0.5
Mof_O 	O 	0.2759	0.8469	0.3794	-0.71
Mof_C 	C 	0.0503	0.932	0.698	-0.018
Mof_H 	H 	0.0299	0.87	0.61	-0.025
Mof_C 	C 	0.0849	0.924	0.631	-0.08
Mof_H 	H 	0.0888	0.85	0.507	0.048
Mof_C 	C 	0.112	0.042	0.982	-0.469
Mof_C 	C 	0.0769	0.052	0.044	-0.574
Mof_H 	H 	0.0746	0.08	0.194	0.165
Mof_C 	C 	0.32669	0.9211	0.0309	-0.002
Mof_C 	C 	0.3602	0.9101	0.949	-0.035
Mof_H 	H 	0.3613	0.8581	0.8073	0.044
Mof_C 	C 	0.392	0.9751	0.0737	0.008
Mof_H 	H 	0.415	0.9677	0.0175	0.212
Mof_C 	C 	0.3904	0.0511	0.2802	-0.116
Mof_H 	H 	0.4122	0.0957	0.3657	0.045
Mof_C 	C 	0.3569	0.062	0.3622	-0.115
Mof_H 	H 	0.3559	0.1123	0.5048	0.044
Mof_C 	C 	0.2937	0.861	0.8743	0.342
Mof_O 	O 	0.6533	0.559	0.488	-0.278
Mof_O 	O 	0.7995	0.8098	0.7886	-0.49
Mof_O 	O 	0.7759	0.6531	0.3794	-0.722
Mof_C 	C 	0.5503	0.568	0.698	0.002
Mof_H 	H 	0.5299	0.63	0.61	-0.029
Mof_C 	C 	0.5849	0.576	0.631	-0.003
Mof_H 	H 	0.5888	0.65	0.507	0.02
Mof_C 	C 	0.612	0.458	0.982	0.146
Mof_C 	C 	0.5769	0.448	0.044	0.117
Mof_H 	H 	0.5746	0.42	0.194	-0.043
Mof_C 	C 	0.82669	0.5789	0.0309	-0.052
Mof_C 	C 	0.8602	0.5899	0.949	-0.006
Mof_H 	H 	0.8613	0.6419	0.8073	0.017
Mof_C 	C 	0.892	0.5249	0.0737	-0.058
Mof_H 	H 	0.915	0.5323	0.0175	-0.133
Mof_C 	C 	0.8904	0.4489	0.2802	-0.015
Mof_H 	H 	0.9122	0.4043	0.3657	0.023
Mof_C 	C 	0.8569	0.438	0.3622	0.036
Mof_H 	H 	0.8559	0.3877	0.5048	0.004
Mof_C 	C 	0.7937	0.639	0.8743	0.335
Mof_O 	O 	0.1533	0.059	0.488	-0.295
Mof_O 	O 	0.2995	0.3098	0.7886	-0.502
Mof_O 	O 	0.2759	0.1531	0.3794	-0.723
Mof_C 	C 	0.0503	0.068	0.698	0.016
Mof_H 	H 	0.0299	0.13	0.61	-0.035
Mof_C 	C 	0.0849	0.076	0.631	0.047
Mof_H 	H 	0.0888	0.15	0.507	0.005
Mof_C 	C 	0.112	0.958	0.982	0.523
Mof_C 	C 	0.0769	0.948	0.044	0.515
Mof_H 	H 	0.0746	0.92	0.194	-0.162
Mof_C 	C 	0.32669	0.0789	0.0309	-0.086
Mof_C 	C 	0.3602	0.0899	0.949	0.039
Mof_H 	H 	0.3613	0.1419	0.8073	0.01
Mof_C 	C 	0.392	0.0249	0.0737	-0.049
Mof_H 	H 	0.415	0.0323	0.0175	-0.201
Mof_C 	C 	0.3904	0.9489	0.2802	0.044
Mof_H 	H 	0.4122	0.9043	0.3657	0.003
Mof_C 	C 	0.3569	0.938	0.3622	0.159
Mof_H 	H 	0.3559	0.8877	0.5048	-0.035
Mof_C 	C 	0.2937	0.139	0.8743	0.343
Mof_O 	O 	0.3467	0.559	0.512	-0.275
Mof_O 	O 	0.2005	0.8098	0.2114	-0.489
Mof_O 	O 	0.2241	0.6531	0.6206	-0.725
Mof_C 	C 	0.4497	0.568	0.302	0.01
Mof_H 	H 	0.4701	0.63	0.39	-0.032
Mof_C 	C 	0.4151	0.576	0.369	-0.017
Mof_H 	H 	0.4112	0.65	0.493	0.028
Mof_C 	C 	0.388	0.458	0.018	0.092
Mof_C 	C 	0.4231	0.448	0.956	0.183
Mof_H 	H 	0.4254	0.42	0.806	-0.06
Mof_C 	C 	0.17331	0.5789	0.9691	0.01
Mof_C 	C 	0.1398	0.5899	0.051	-0.08
Mof_H 	H 	0.1387	0.6419	0.1927	0.037
Mof_C 	C 	0.108	0.5249	0.9263	-0.015
Mof_H 	H 	0.085	0.5323	0.9825	-0.139
Mof_C 	C 	0.1096	0.4489	0.7198	-0.035
Mof_H 	H 	0.0878	0.4043	0.6343	0.029
Mof_C 	C 	0.1431	0.438	0.6378	0.059
Mof_H 	H 	0.1441	0.3877	0.4952	-0.006
Mof_C 	C 	0.2063	0.639	0.1257	0.293
Mof_O 	O 	0.8467	0.059	0.512	-0.293
Mof_O 	O 	0.7005	0.3098	0.2114	-0.5
Mof_O 	O 	0.7241	0.1531	0.6206	-0.727
Mof_C 	C 	0.9497	0.068	0.302	0.02
Mof_H 	H 	0.9701	0.13	0.39	-0.033
Mof_C 	C 	0.9151	0.076	0.369	0.031
Mof_H 	H 	0.9112	0.15	0.493	0.014
Mof_C 	C 	0.888	0.958	0.018	0.455
Mof_C 	C 	0.9231	0.948	0.956	0.597
Mof_H 	H 	0.9254	0.92	0.806	-0.183
Mof_C 	C 	0.67331	0.0789	0.9691	-0.004
Mof_C 	C 	0.6398	0.0899	0.051	-0.056
Mof_H 	H 	0.6387	0.1419	0.1927	0.037
Mof_C 	C 	0.608	0.0249	0.9263	-0.006
Mof_H 	H 	0.585	0.0323	0.9825	-0.179
Mof_C 	C 	0.6096	0.9489	0.7198	0.023
Mof_H 	H 	0.5878	0.9043	0.6343	0.01
Mof_C 	C 	0.6431	0.938	0.6378	0.177
Mof_H 	H 	0.6441	0.8877	0.4952	-0.043
Mof_C 	C 	0.7063	0.139	0.1257	0.295
Mof_Sm	Sm	0.28005	0.5	0.47849	2.656
Mof_O 	O 	0.3192	0.5	0.1918	-0.486
Mof_O 	O 	0.2327	0.5	0.1663	-0.586
Mof_N 	N 	0.4539	0.5	0.097	-0.275
Mof_C 	C 	0.3852	0.5	0.236	-0.032
Mof_H 	H 	0.3682	0.5	0.909	0.101
Mof_C 	C 	0.3486	0.5	0.317	0.352
Mof_C 	C 	0.17491	0.5	0.7625	-0.208
Mof_C 	C 	0.2094	0.5	0.6647	0.58
Mof_Sm	Sm	0.78005	-3.97792e-33	0.47849	2.611
Mof_O 	O 	0.8192	-3.97792e-33	0.1918	-0.487
Mof_O 	O 	0.7327	0	0.1663	-0.597
Mof_N 	N 	0.9539	-9.9448e-34	0.097	-0.277
Mof_C 	C 	0.8852	-3.97792e-33	0.236	-0.054
Mof_H 	H 	0.8682	-7.95584e-33	0.909	0.087
Mof_C 	C 	0.8486	0	0.317	0.347
Mof_C 	C 	0.67491	-7.95584e-33	0.7625	-0.231
Mof_C 	C 	0.7094	-7.95584e-33	0.6647	0.565
Mof_Sm	Sm	0.71995	0.5	0.52151	2.662
Mof_O 	O 	0.6808	0.5	0.8082	-0.479
Mof_O 	O 	0.7673	0.5	0.8337	-0.595
Mof_N 	N 	0.5461	0.5	0.903	-0.237
Mof_C 	C 	0.6148	0.5	0.764	-0.077
Mof_H 	H 	0.6318	0.5	0.091	0.039
Mof_C 	C 	0.6514	0.5	0.683	0.37
Mof_C 	C 	0.82509	0.5	0.2375	-0.155
Mof_C 	C 	0.7906	0.5	0.3353	0.554
Mof_Sm	Sm	0.21995	-7.95584e-33	0.52151	2.617
Mof_O 	O 	0.1808	-7.95584e-33	0.8082	-0.479
Mof_O 	O 	0.2673	-7.95584e-33	0.8337	-0.605
Mof_N 	N 	0.0461	0	0.903	-0.241
Mof_C 	C 	0.1148	-7.95584e-33	0.764	-0.095
Mof_H 	H 	0.1318	-9.9448e-34	0.091	0.026
Mof_C 	C 	0.1514	-7.95584e-33	0.683	0.364
Mof_C 	C 	0.32509	-3.97792e-33	0.2375	-0.179
Mof_C 	C 	0.2906	-3.97792e-33	0.3353	0.539
Mof_Cu	Cu	0.5	0.5	-0	0.793
Mof_Cu	Cu	-0	0	-0	0.788
_end
