# CIF file generated by openbabel 3.1.0, see https://openbabel.org
data_I
_chemical_name_common 'image0'
_cell_length_a 9.847
_cell_length_b 14.929
_cell_length_c 21.957
_cell_angle_alpha 90
_cell_angle_beta 102.68
_cell_angle_gamma 90
_space_group_name_H-M_alt 'P 1'
_space_group_name_Hall 'P 1'
loop_
    _symmetry_equiv_pos_as_xyz
    x,y,z
loop_
    _atom_site_label
    _atom_site_type_symbol
    _atom_site_fract_x
    _atom_site_fract_y
    _atom_site_fract_z
    _atom_site_occupancy
    Cd1      Cd       0.16284    0.73912    0.32400    1.000
    C1       C        0.02910    0.55590    0.45271    1.000
    C2       C        0.89160    0.54370    0.46035    1.000
    C3       C        0.13500    0.51200    0.49410    1.000
    H1       H        0.22860    0.52090    0.49080    1.000
    C4       C        0.06010    0.61450    0.40170    1.000
    C5       C        0.77360    0.59770    0.42120    1.000
    C6       C        0.55750    0.62670    0.28970    1.000
    H2       H        0.62680    0.62120    0.26590    1.000
    C7       C        0.44890    0.61740    0.36470    1.000
    H3       H        0.42730    0.60410    0.40380    1.000
    C8       C        0.45210    0.94720    0.44620    1.000
    C9       C        0.58870    0.97600    0.46120    1.000
    C10      C        0.36630    0.97020    0.48540    1.000
    H4       H        0.27310    0.94890    0.47610    1.000
    C11      C        0.38750    0.89200    0.38874    1.000
    C12      C        0.72560    0.94820    0.43770    1.000
    C13      C        0.89200    0.96910    0.32560    1.000
    H5       H        0.87530    0.03160    0.32020    1.000
    C14      C        0.87940    0.82890    0.35060    1.000
    H6       H        0.85240    0.77360    0.36570    1.000
    N1       N        0.67980    0.54650    0.38323    1.000
    H7       H        0.68870    0.48790    0.38130    1.000
    N2       N        0.56610    0.59270    0.34666    1.000
    N3       N        0.43890    0.66860    0.27161    1.000
    N4       N        0.37050    0.66250    0.31942    1.000
    N5       N        0.69850    0.92970    0.37510    1.000
    H8       H        0.61340    0.93030    0.35190    1.000
    N6       N        0.81280    0.91010    0.35060    1.000
    N7       N        0.98420    0.84220    0.32620    1.000
    N8       N        0.99430    0.92530    0.31040    1.000
    O1       O        0.17330    0.65140    0.41023    1.000
    O2       O        0.96940    0.62320    0.35295    1.000
    O3       O        0.76060    0.67750    0.42760    1.000
    O4       O        0.29210    0.83980    0.39486    1.000
    O5       O        0.43030    0.90630    0.34003    1.000
    O6       O        0.83880    0.94460    0.46950    1.000
    C15      C        0.67180    0.96580    0.41240    1.000
    C16      C        0.73860    0.83410    0.31150    1.000
    H9       H        0.64250    0.83710    0.29210    1.000
    C17      C        0.93840    0.84600    0.37850    1.000
    H10      H        0.00650    0.86050    0.41500    1.000
    N9       N        0.72440    0.88430    0.41680    1.000
    H11      H        0.71450    0.84810    0.44710    1.000
    N10      N        0.79690    0.85690    0.37140    1.000
    N11      N        0.83910    0.80720    0.28510    1.000
    N12      N        0.96360    0.81330    0.32800    1.000
    O7       O        0.70660    0.02410    0.38160    1.000
    Cd2      Cd       0.33716    0.73912    0.17600    1.000
    C18      C        0.47090    0.55590    0.04729    1.000
    C19      C        0.60840    0.54370    0.03965    1.000
    C20      C        0.36500    0.51200    0.00590    1.000
    H12      H        0.27140    0.52090    0.00920    1.000
    C21      C        0.43990    0.61450    0.09830    1.000
    C22      C        0.72640    0.59770    0.07880    1.000
    C23      C        0.94250    0.62670    0.21030    1.000
    H13      H        0.87320    0.62120    0.23410    1.000
    C24      C        0.05110    0.61740    0.13530    1.000
    H14      H        0.07270    0.60410    0.09620    1.000
    C25      C        0.04790    0.94720    0.05380    1.000
    C26      C        0.91130    0.97600    0.03880    1.000
    C27      C        0.13370    0.97020    0.01460    1.000
    H15      H        0.22690    0.94890    0.02390    1.000
    C28      C        0.11250    0.89200    0.11126    1.000
    C29      C        0.77440    0.94820    0.06230    1.000
    C30      C        0.60800    0.96910    0.17440    1.000
    H16      H        0.62470    0.03160    0.17980    1.000
    C31      C        0.62060    0.82890    0.14940    1.000
    H17      H        0.64760    0.77360    0.13430    1.000
    N13      N        0.82020    0.54650    0.11677    1.000
    H18      H        0.81130    0.48790    0.11870    1.000
    N14      N        0.93390    0.59270    0.15334    1.000
    N15      N        0.06110    0.66860    0.22839    1.000
    N16      N        0.12950    0.66250    0.18058    1.000
    N17      N        0.80150    0.92970    0.12490    1.000
    H19      H        0.88660    0.93030    0.14810    1.000
    N18      N        0.68720    0.91010    0.14940    1.000
    N19      N        0.51580    0.84220    0.17380    1.000
    N20      N        0.50570    0.92530    0.18960    1.000
    O8       O        0.32670    0.65140    0.08977    1.000
    O9       O        0.53060    0.62320    0.14705    1.000
    O10      O        0.73940    0.67750    0.07240    1.000
    O11      O        0.20790    0.83980    0.10514    1.000
    O12      O        0.06970    0.90630    0.15997    1.000
    O13      O        0.66120    0.94460    0.03050    1.000
    C32      C        0.82820    0.96580    0.08760    1.000
    C33      C        0.76140    0.83410    0.18850    1.000
    H20      H        0.85750    0.83710    0.20790    1.000
    C34      C        0.56160    0.84600    0.12150    1.000
    H21      H        0.49350    0.86050    0.08500    1.000
    N21      N        0.77560    0.88430    0.08320    1.000
    H22      H        0.78550    0.84810    0.05290    1.000
    N22      N        0.70310    0.85690    0.12860    1.000
    N23      N        0.66090    0.80720    0.21490    1.000
    N24      N        0.53640    0.81330    0.17200    1.000
    O14      O        0.79340    0.02410    0.11840    1.000
    Cd3      Cd       0.83716    0.26088    0.67600    1.000
    C35      C        0.97090    0.44410    0.54729    1.000
    C36      C        0.10840    0.45630    0.53965    1.000
    C37      C        0.86500    0.48800    0.50590    1.000
    H23      H        0.77140    0.47910    0.50920    1.000
    C38      C        0.93990    0.38550    0.59830    1.000
    C39      C        0.22640    0.40230    0.57880    1.000
    C40      C        0.44250    0.37330    0.71030    1.000
    H24      H        0.37320    0.37880    0.73410    1.000
    C41      C        0.55110    0.38260    0.63530    1.000
    H25      H        0.57270    0.39590    0.59620    1.000
    C42      C        0.54790    0.05280    0.55380    1.000
    C43      C        0.41130    0.02400    0.53880    1.000
    C44      C        0.63370    0.02980    0.51460    1.000
    H26      H        0.72690    0.05110    0.52390    1.000
    C45      C        0.61250    0.10800    0.61126    1.000
    C46      C        0.27440    0.05180    0.56230    1.000
    C47      C        0.10800    0.03090    0.67440    1.000
    H27      H        0.12470    0.96840    0.67980    1.000
    C48      C        0.12060    0.17110    0.64940    1.000
    H28      H        0.14760    0.22640    0.63430    1.000
    N25      N        0.32020    0.45350    0.61677    1.000
    H29      H        0.31130    0.51210    0.61870    1.000
    N26      N        0.43390    0.40730    0.65334    1.000
    N27      N        0.56110    0.33140    0.72839    1.000
    N28      N        0.62950    0.33750    0.68058    1.000
    N29      N        0.30150    0.07030    0.62490    1.000
    H30      H        0.38660    0.06970    0.64810    1.000
    N30      N        0.18720    0.08990    0.64940    1.000
    N31      N        0.01580    0.15780    0.67380    1.000
    N32      N        0.00570    0.07470    0.68960    1.000
    O15      O        0.82670    0.34860    0.58977    1.000
    O16      O        0.03060    0.37680    0.64705    1.000
    O17      O        0.23940    0.32250    0.57240    1.000
    O18      O        0.70790    0.16020    0.60514    1.000
    O19      O        0.56970    0.09370    0.65997    1.000
    O20      O        0.16120    0.05540    0.53050    1.000
    C49      C        0.32820    0.03420    0.58760    1.000
    C50      C        0.26140    0.16590    0.68850    1.000
    H31      H        0.35750    0.16290    0.70790    1.000
    C51      C        0.06160    0.15400    0.62150    1.000
    H32      H        0.99350    0.13950    0.58500    1.000
    N33      N        0.27560    0.11570    0.58320    1.000
    H33      H        0.28550    0.15190    0.55290    1.000
    N34      N        0.20310    0.14310    0.62860    1.000
    N35      N        0.16090    0.19280    0.71490    1.000
    N36      N        0.03640    0.18670    0.67200    1.000
    O21      O        0.29340    0.97590    0.61840    1.000
    Cd4      Cd       0.66284    0.26088    0.82400    1.000
    C52      C        0.52910    0.44410    0.95271    1.000
    C53      C        0.39160    0.45630    0.96035    1.000
    C54      C        0.63500    0.48800    0.99410    1.000
    H34      H        0.72860    0.47910    0.99080    1.000
    C55      C        0.56010    0.38550    0.90170    1.000
    C56      C        0.27360    0.40230    0.92120    1.000
    C57      C        0.05750    0.37330    0.78970    1.000
    H35      H        0.12680    0.37880    0.76590    1.000
    C58      C        0.94890    0.38260    0.86470    1.000
    H36      H        0.92730    0.39590    0.90380    1.000
    C59      C        0.95210    0.05280    0.94620    1.000
    C60      C        0.08870    0.02400    0.96120    1.000
    C61      C        0.86630    0.02980    0.98540    1.000
    H37      H        0.77310    0.05110    0.97610    1.000
    C62      C        0.88750    0.10800    0.88874    1.000
    C63      C        0.22560    0.05180    0.93770    1.000
    C64      C        0.39200    0.03090    0.82560    1.000
    H38      H        0.37530    0.96840    0.82020    1.000
    C65      C        0.37940    0.17110    0.85060    1.000
    H39      H        0.35240    0.22640    0.86570    1.000
    N37      N        0.17980    0.45350    0.88323    1.000
    H40      H        0.18870    0.51210    0.88130    1.000
    N38      N        0.06610    0.40730    0.84666    1.000
    N39      N        0.93890    0.33140    0.77161    1.000
    N40      N        0.87050    0.33750    0.81942    1.000
    N41      N        0.19850    0.07030    0.87510    1.000
    H41      H        0.11340    0.06970    0.85190    1.000
    N42      N        0.31280    0.08990    0.85060    1.000
    N43      N        0.48420    0.15780    0.82620    1.000
    N44      N        0.49430    0.07470    0.81040    1.000
    O22      O        0.67330    0.34860    0.91023    1.000
    O23      O        0.46940    0.37680    0.85295    1.000
    O24      O        0.26060    0.32250    0.92760    1.000
    O25      O        0.79210    0.16020    0.89486    1.000
    O26      O        0.93030    0.09370    0.84003    1.000
    O27      O        0.33880    0.05540    0.96950    1.000
    C66      C        0.17180    0.03420    0.91240    1.000
    C67      C        0.23860    0.16590    0.81150    1.000
    H42      H        0.14250    0.16290    0.79210    1.000
    C68      C        0.43840    0.15400    0.87850    1.000
    H43      H        0.50650    0.13950    0.91500    1.000
    N45      N        0.22440    0.11570    0.91680    1.000
    H44      H        0.21450    0.15190    0.94710    1.000
    N46      N        0.29690    0.14310    0.87140    1.000
    N47      N        0.33910    0.19280    0.78510    1.000
    N48      N        0.46360    0.18670    0.82800    1.000
    O28      O        0.20660    0.97590    0.88160    1.000
