data_functionalizedCrystal
_audit_creation_method	'EQeq! by Chris Wilmer'
_symmetry_space_group_name_H-M	'P1'
_symmetry_Int_Tables_number	1
_symmetry_cell_setting	triclinic
loop_
_symmetry_equiv_pos_as_xyz
  x,y,z
_cell_length_a	15.6323
_cell_length_b	16.1854
_cell_length_c	14.3253
_cell_angle_alpha	90
_cell_angle_beta	103.237
_cell_angle_gamma	90
loop_
_atom_site_label
_atom_site_type_symbol
_atom_site_fract_x
_atom_site_fract_y
_atom_site_fract_z
_atom_site_charge
Mof_H 	H 	0.6997	0.5035	0.6516	0.043
Mof_H 	H 	0.9109	0.7194	0.7174	0.057
Mof_H 	H 	0.9109	0.2878	0.7153	0.034
Mof_H 	H 	0.6768	0.8018	0.8237	0.044
Mof_H 	H 	0.7281	0.6562	0.8259	0.081
Mof_H 	H 	0.8082	0.7065	0.5707	0.059
Mof_H 	H 	0.7174	0.8337	0.5502	0.01
Mof_H 	H 	0.6734	0.2075	0.8254	0.018
Mof_H 	H 	0.7314	0.3508	0.829	0.081
Mof_H 	H 	0.8	0.3014	0.567	0.051
Mof_H 	H 	0.7025	0.1785	0.5459	-0.031
Mof_C 	C 	0.6104	0.8813	0.6587	0.557
Mof_C 	C 	0.6103	0.1225	0.6652	0.623
Mof_C 	C 	0.6806	0.8195	0.6802	-0.215
Mof_C 	C 	0.6759	0.1889	0.6817	-0.277
Mof_C 	C 	0.6941	0.7757	0.7603	0.106
Mof_C 	C 	0.6913	0.2327	0.762	0.125
Mof_C 	C 	0.7305	0.6955	0.7648	-0.105
Mof_C 	C 	0.7308	0.3118	0.7667	-0.126
Mof_C 	C 	0.7687	0.6656	0.6945	0.071
Mof_C 	C 	0.7682	0.3411	0.6954	0.08
Mof_C 	C 	0.7693	0.7206	0.6228	-0.115
Mof_C 	C 	0.7633	0.2876	0.6212	-0.136
Mof_C 	C 	0.7212	0.7953	0.6136	0.103
Mof_C 	C 	0.7122	0.2144	0.6119	0.111
Mof_C 	C 	0.8186	0.5813	0.7031	-0.026
Mof_C 	C 	0.8185	0.4256	0.7024	-0.031
Mof_C 	C 	0.9105	0.5824	0.7261	0.024
Mof_C 	C 	0.9104	0.4245	0.7264	0.024
Mof_C 	C 	0.9517	0.6641	0.7312	-0.041
Mof_C 	C 	0.9516	0.343	0.7306	-0.051
Mof_C 	C 	0.7703	0.5035	0.682	-0.026
Mof_C 	C 	0.9555	0.5034	0.7343	-0.014
Mof_O 	O 	0.5548	0.9986	0.387	-1.324
Mof_O 	O 	0.5787	0.9004	0.5744	-0.637
Mof_O 	O 	0.5827	0.1052	0.7358	-0.834
Mof_O 	O 	0.5737	0.8995	0.7316	-0.609
Mof_O 	O 	0.5781	0.0987	0.5777	-0.75
Mof_H 	H 	0.38123	0.9986	0.113	0.278
Mof_H 	H 	0.3003	0.5035	0.8484	0.055
Mof_H 	H 	0.0891	0.7194	0.7826	0.053
Mof_H 	H 	0.0891	0.2878	0.7847	0.031
Mof_H 	H 	0.3232	0.8018	0.6763	0.026
Mof_H 	H 	0.2719	0.6562	0.6741	0.059
Mof_H 	H 	0.1918	0.7065	0.9293	0.081
Mof_H 	H 	0.2826	0.8337	0.9498	0.04
Mof_H 	H 	0.3266	0.2075	0.6746	-0
Mof_H 	H 	0.2686	0.3508	0.671	0.06
Mof_H 	H 	0.2	0.3014	0.933	0.074
Mof_H 	H 	0.2975	0.1785	0.9541	0.002
Mof_C 	C 	0.3896	0.8813	0.8413	0.524
Mof_C 	C 	0.3897	0.1225	0.8348	0.592
Mof_C 	C 	0.3194	0.8195	0.8198	-0.192
Mof_C 	C 	0.3241	0.1889	0.8183	-0.255
Mof_C 	C 	0.3059	0.7757	0.7397	0.094
Mof_C 	C 	0.3087	0.2327	0.738	0.113
Mof_C 	C 	0.2695	0.6955	0.7352	-0.103
Mof_C 	C 	0.2692	0.3118	0.7333	-0.125
Mof_C 	C 	0.2313	0.6656	0.8055	0.068
Mof_C 	C 	0.2318	0.3411	0.8046	0.077
Mof_C 	C 	0.2307	0.7206	0.8772	-0.1
Mof_C 	C 	0.2367	0.2876	0.8788	-0.12
Mof_C 	C 	0.2788	0.7953	0.8864	0.098
Mof_C 	C 	0.2878	0.2144	0.8881	0.107
Mof_C 	C 	0.1814	0.5813	0.7969	-0.02
Mof_C 	C 	0.1815	0.4256	0.7976	-0.024
Mof_C 	C 	0.0895	0.5824	0.7739	0.015
Mof_C 	C 	0.0896	0.4245	0.7736	0.014
Mof_C 	C 	0.0483	0.6641	0.7688	-0.03
Mof_C 	C 	0.0484	0.343	0.7694	-0.039
Mof_C 	C 	0.2297	0.5035	0.818	-0.026
Mof_C 	C 	0.0445	0.5034	0.7657	0.002
Mof_O 	O 	0.4452	0.9986	0.113	-1.267
Mof_O 	O 	0.4213	0.9004	0.9256	-0.525
Mof_O 	O 	0.4173	0.1052	0.7642	-0.824
Mof_O 	O 	0.4263	0.8995	0.7684	-0.598
Mof_O 	O 	0.4219	0.0987	0.9223	-0.639
Mof_H 	H 	0.61877	0.9986	0.387	0.312
Mof_H 	H 	0.3003	0.4965	0.3484	0.037
Mof_H 	H 	0.0891	0.2806	0.2826	0.021
Mof_H 	H 	0.0891	0.7122	0.2847	0.044
Mof_H 	H 	0.3232	0.1982	0.1763	-0.038
Mof_H 	H 	0.2719	0.3438	0.1741	0.04
Mof_H 	H 	0.1918	0.2935	0.4293	0.053
Mof_H 	H 	0.2826	0.1663	0.4498	-0.031
Mof_H 	H 	0.3266	0.7925	0.1746	-0.011
Mof_H 	H 	0.2686	0.6492	0.171	0.041
Mof_H 	H 	0.2	0.6986	0.433	0.064
Mof_H 	H 	0.2975	0.8215	0.4541	0.011
Mof_C 	C 	0.3896	0.1187	0.3413	0.581
Mof_C 	C 	0.3897	0.8775	0.3348	0.685
Mof_C 	C 	0.3194	0.1805	0.3198	-0.291
Mof_C 	C 	0.3241	0.8111	0.3183	-0.273
Mof_C 	C 	0.3059	0.2243	0.2397	0.117
Mof_C 	C 	0.3087	0.7673	0.238	0.127
Mof_C 	C 	0.2695	0.3045	0.2352	-0.142
Mof_C 	C 	0.2692	0.6882	0.2333	-0.135
Mof_C 	C 	0.2313	0.3344	0.3055	0.076
Mof_C 	C 	0.2318	0.6589	0.3046	0.075
Mof_C 	C 	0.2307	0.2794	0.3772	-0.139
Mof_C 	C 	0.2367	0.7124	0.3788	-0.127
Mof_C 	C 	0.2788	0.2047	0.3864	0.112
Mof_C 	C 	0.2878	0.7856	0.3881	0.121
Mof_C 	C 	0.1814	0.4187	0.2969	-0.039
Mof_C 	C 	0.1815	0.5744	0.2976	-0.036
Mof_C 	C 	0.0895	0.4176	0.2739	0.008
Mof_C 	C 	0.0896	0.5755	0.2736	0.009
Mof_C 	C 	0.0483	0.3359	0.2688	-0.052
Mof_C 	C 	0.0484	0.657	0.2694	-0.043
Mof_C 	C 	0.2297	0.4965	0.318	-0.033
Mof_C 	C 	0.0445	0.4966	0.2657	-0.009
Mof_O 	O 	0.4452	0.0014	0.613	-1.323
Mof_O 	O 	0.4213	0.0996	0.4256	-0.763
Mof_O 	O 	0.4173	0.8948	0.2642	-0.962
Mof_O 	O 	0.4263	0.1005	0.2684	-0.903
Mof_O 	O 	0.4219	0.9013	0.4223	-0.68
Mof_H 	H 	0.61877	0.0014	0.887	0.227
Mof_H 	H 	0.6997	0.4965	0.1516	0.024
Mof_H 	H 	0.9109	0.2806	0.2174	0.023
Mof_H 	H 	0.9109	0.7122	0.2153	0.045
Mof_H 	H 	0.6768	0.1982	0.3237	-0.019
Mof_H 	H 	0.7281	0.3438	0.3259	0.058
Mof_H 	H 	0.8082	0.2935	0.0707	0.028
Mof_H 	H 	0.7174	0.1663	0.0502	-0.053
Mof_H 	H 	0.6734	0.7925	0.3254	0.008
Mof_H 	H 	0.7314	0.6492	0.329	0.06
Mof_H 	H 	0.8	0.6986	0.067	0.039
Mof_H 	H 	0.7025	0.8215	0.0459	-0.013
Mof_C 	C 	0.6104	0.1187	0.1587	0.563
Mof_C 	C 	0.6103	0.8775	0.1652	0.665
Mof_C 	C 	0.6806	0.1805	0.1802	-0.286
Mof_C 	C 	0.6759	0.8111	0.1817	-0.267
Mof_C 	C 	0.6941	0.2243	0.2603	0.116
Mof_C 	C 	0.6913	0.7673	0.262	0.126
Mof_C 	C 	0.7305	0.3045	0.2648	-0.137
Mof_C 	C 	0.7308	0.6882	0.2667	-0.129
Mof_C 	C 	0.7687	0.3344	0.1945	0.073
Mof_C 	C 	0.7682	0.6589	0.1954	0.072
Mof_C 	C 	0.7693	0.2794	0.1228	-0.145
Mof_C 	C 	0.7633	0.7124	0.1212	-0.133
Mof_C 	C 	0.7212	0.2047	0.1136	0.101
Mof_C 	C 	0.7122	0.7856	0.1119	0.109
Mof_C 	C 	0.8186	0.4187	0.2031	-0.043
Mof_C 	C 	0.8185	0.5744	0.2024	-0.041
Mof_C 	C 	0.9105	0.4176	0.2261	0.016
Mof_C 	C 	0.9104	0.5755	0.2264	0.017
Mof_C 	C 	0.9517	0.3359	0.2312	-0.063
Mof_C 	C 	0.9516	0.657	0.2306	-0.054
Mof_C 	C 	0.7703	0.4965	0.182	-0.034
Mof_C 	C 	0.9555	0.4966	0.2343	-0.024
Mof_O 	O 	0.5548	0.0014	0.887	-1.211
Mof_O 	O 	0.5787	0.0996	0.0744	-0.736
Mof_O 	O 	0.5827	0.8948	0.2358	-0.95
Mof_O 	O 	0.5737	0.1005	0.2316	-0.893
Mof_O 	O 	0.5781	0.9013	0.0777	-0.653
Mof_H 	H 	0.38123	0.0014	0.613	0.221
Mof_In	In	0.5	0	0.5	2.711
Mof_In	In	0.5	0	-0	2.281
Mof_In	In	0.5	0.0082	0.75	3.153
Mof_In	In	0.5	0.9918	0.25	4.114
_end
