# CIF file generated by openbabel 3.1.0, see https://openbabel.org
data_I
_chemical_name_common 'image0'
_cell_length_a 9.942
_cell_length_b 10.426
_cell_length_c 12.77
_cell_angle_alpha 109.996
_cell_angle_beta 107.303
_cell_angle_gamma 92.141
_space_group_name_H-M_alt 'P 1'
_space_group_name_Hall 'P 1'
loop_
    _symmetry_equiv_pos_as_xyz
    x,y,z
loop_
    _atom_site_label
    _atom_site_type_symbol
    _atom_site_fract_x
    _atom_site_fract_y
    _atom_site_fract_z
    _atom_site_occupancy
    Cd1      Cd       0.57202    0.81567    0.23648    1.000
    C1       C        0.78770    0.75800    0.13180    1.000
    C2       C        0.88330    0.71000    0.06020    1.000
    C3       C        0.02920    0.73720    0.11400    1.000
    H1       H        0.06870    0.78780    0.19470    1.000
    C4       C        0.11790    0.68830    0.04650    1.000
    C5       C        0.05780    0.61440    0.92660    1.000
    H2       H        0.11640    0.58080    0.88180    1.000
    C6       C        0.91170    0.59010    0.87270    1.000
    C7       C        0.82300    0.63670    0.93890    1.000
    H3       H        0.72450    0.61930    0.90290    1.000
    C8       C        0.27740    0.71200    0.10220    1.000
    C9       C        0.71030    0.52120    0.69370    1.000
    H4       H        0.67060    0.60650    0.71200    1.000
    H5       H        0.66500    0.45740    0.71800    1.000
    C10      C        0.69360    0.45610    0.55910    1.000
    C11      C        0.67400    0.31350    0.50960    1.000
    H6       H        0.69080    0.26210    0.55780    1.000
    C12      C        0.62900    0.24670    0.38680    1.000
    C13      C        0.60650    0.32380    0.31430    1.000
    H7       H        0.57710    0.27960    0.23260    1.000
    C14      C        0.62870    0.46970    0.36600    1.000
    C15      C        0.67160    0.53420    0.48740    1.000
    H8       H        0.68600    0.63010    0.52150    1.000
    C16      C        0.60920    0.09170    0.33260    1.000
    C17      C        0.60150    0.55170    0.28670    1.000
    O1       O        0.83560    0.84220    0.23610    1.000
    O2       O        0.65450    0.70580    0.08560    1.000
    O3       O        0.33380    0.79140    0.21210    1.000
    O4       O        0.35100    0.65860    0.04000    1.000
    O5       O        0.86460    0.54610    0.74910    1.000
    O6       O        0.63500    0.02370    0.39870    1.000
    O7       O        0.56360    0.03350    0.22170    1.000
    O8       O        0.54450    0.48690    0.17820    1.000
    O9       O        0.63330    0.68130    0.33730    1.000
    C18      C        0.84330    0.47400    0.74910    1.000
    H9       H        0.91410    0.42000    0.72580    1.000
    H10      H        0.76730    0.41290    0.74920    1.000
    O10      O        0.79070    0.54210    0.67460    1.000
    Cd2      Cd       0.42798    0.18433    0.76352    1.000
    C19      C        0.21230    0.24200    0.86820    1.000
    C20      C        0.11670    0.29000    0.93980    1.000
    C21      C        0.97080    0.26280    0.88600    1.000
    H11      H        0.93130    0.21220    0.80530    1.000
    C22      C        0.88210    0.31170    0.95350    1.000
    C23      C        0.94220    0.38560    0.07340    1.000
    H12      H        0.88360    0.41920    0.11820    1.000
    C24      C        0.08830    0.40990    0.12730    1.000
    C25      C        0.17700    0.36330    0.06110    1.000
    H13      H        0.27550    0.38070    0.09710    1.000
    C26      C        0.72260    0.28800    0.89780    1.000
    C27      C        0.28970    0.47880    0.30630    1.000
    H14      H        0.32940    0.39350    0.28800    1.000
    H15      H        0.33500    0.54260    0.28200    1.000
    C28      C        0.30640    0.54390    0.44090    1.000
    C29      C        0.32600    0.68650    0.49040    1.000
    H16      H        0.30920    0.73790    0.44220    1.000
    C30      C        0.37100    0.75330    0.61320    1.000
    C31      C        0.39350    0.67620    0.68570    1.000
    H17      H        0.42290    0.72040    0.76740    1.000
    C32      C        0.37130    0.53030    0.63400    1.000
    C33      C        0.32840    0.46580    0.51260    1.000
    H18      H        0.31400    0.36990    0.47850    1.000
    C34      C        0.39080    0.90830    0.66740    1.000
    C35      C        0.39850    0.44830    0.71330    1.000
    O11      O        0.16440    0.15780    0.76390    1.000
    O12      O        0.34550    0.29420    0.91440    1.000
    O13      O        0.66620    0.20860    0.78790    1.000
    O14      O        0.64900    0.34140    0.96000    1.000
    O15      O        0.13540    0.45390    0.25090    1.000
    O16      O        0.36500    0.97630    0.60130    1.000
    O17      O        0.43640    0.96650    0.77830    1.000
    O18      O        0.45550    0.51310    0.82180    1.000
    O19      O        0.36670    0.31870    0.66270    1.000
    C36      C        0.15670    0.52600    0.25090    1.000
    H19      H        0.08590    0.58000    0.27420    1.000
    H20      H        0.23270    0.58710    0.25080    1.000
    O20      O        0.20930    0.45790    0.32540    1.000
    Cd3      Cd       0.50000    0.50000    0.00000    1.000
