data_functionalizedCrystal
_audit_creation_method	'EQeq! by Chris Wilmer'
_symmetry_space_group_name_H-M	'P1'
_symmetry_Int_Tables_number	1
_symmetry_cell_setting	triclinic
loop_
_symmetry_equiv_pos_as_xyz
  x,y,z
_cell_length_a	14.1407
_cell_length_b	18.2814
_cell_length_c	21.4596
_cell_angle_alpha	90
_cell_angle_beta	99.359
_cell_angle_gamma	90
loop_
_atom_site_label
_atom_site_type_symbol
_atom_site_fract_x
_atom_site_fract_y
_atom_site_fract_z
_atom_site_charge
Mof_Cd	Cd	0.27337	0.23973	0.31166	0.496
Mof_O 	O 	0.3343	0.26219	0.21752	-0.285
Mof_O 	O 	0.2078	0.19081	0.21333	-0.265
Mof_O 	O 	0.3687	0.31001	0.3769	-0.289
Mof_O 	O 	0.4779	0.34314	0.31689	-0.273
Mof_O 	O 	0.3587	0.13952	0.33488	-0.275
Mof_O 	O 	0.5101	0.16992	0.32848	-0.279
Mof_C 	C 	0.2976	0.2738	0.08399	-0.067
Mof_H 	H 	0.3385	0.3078	0.1065	0.068
Mof_C 	C 	0.2549	0.2229	0.1157	-0.082
Mof_C 	C 	0.1936	0.1697	0.08162	-0.034
Mof_H 	H 	0.1647	0.1345	0.1035	0.053
Mof_C 	C 	0.1769	0.17	0.0173	-0.101
Mof_H 	H 	0.1375	0.1345	0.9957	0.063
Mof_C 	C 	0.2811	0.2764	0.01672	0.013
Mof_C 	C 	0.267	0.2237	0.18656	0.262
Mof_C 	C 	0.4325	0.4189	0.46369	-0.055
Mof_H 	H 	0.3855	0.3868	0.4725	0.05
Mof_C 	C 	0.4693	0.4109	0.40889	-0.06
Mof_C 	C 	0.539	0.4609	0.39501	-0.003
Mof_H 	H 	0.5636	0.4559	0.3576	0.054
Mof_C 	C 	0.5711	0.5162	0.4354	-0.083
Mof_H 	H 	0.6169	0.5487	0.4252	0.064
Mof_C 	C 	0.465	0.4753	0.50716	0.021
Mof_C 	C 	0.4367	0.3494	0.3639	0.304
Mof_C 	C 	0.4197	0.04414	0.43274	-0.075
Mof_H 	H 	0.3557	0.0435	0.4139	0.069
Mof_C 	C 	0.4831	0.08853	0.40869	-0.056
Mof_C 	C 	0.5803	0.0897	0.43626	-0.011
Mof_H 	H 	0.6231	0.1194	0.4194	0.056
Mof_C 	C 	0.6121	0.0468	0.4882	-0.102
Mof_H 	H 	0.6764	0.0484	0.5064	0.062
Mof_C 	C 	0.4509	0.9991	0.48612	0.016
Mof_C 	C 	0.4474	0.13701	0.35232	0.309
Mof_O 	O 	0.1948	0.203	0.3881	-0.321
Mof_N 	N 	0.0952	0.27	0.4384	0.215
Mof_C 	C 	0.1107	0.2244	0.3946	0.698
Mof_C 	C 	0.024	0.1843	0.3622	0.495
Mof_H 	H 	0.9681	0.2023	0.3773	-0.118
Mof_H 	H 	0.0312	0.133	0.3711	-0.117
Mof_H 	H 	0.0171	0.192	0.3175	-0.367
Mof_C 	C 	0.1806	0.3038	0.4768	0.526
Mof_C 	C 	0.0072	0.2926	0.4583	-1.164
Mof_H 	H 	0.0211	0.327	0.4924	-0.326
Mof_H 	H 	0.9755	0.2507	0.4723	0.363
Mof_H 	H 	0.9662	0.3152	0.4235	1.267
Mof_N 	N 	0.0368	0.2884	0.4011	0.397
Mof_C 	C 	0.0743	0.2435	0.3594	-1.014
Mof_C 	C 	0.0199	0.2329	0.2973	1.176
Mof_H 	H 	0.0548	0.2015	0.2733	-0.252
Mof_H 	H 	0.0093	0.2793	0.2764	-0.315
Mof_H 	H 	0.9594	0.2109	0.3008	-0.189
Mof_C 	C 	0.0903	0.295	0.4633	-0.997
Mof_H 	H 	0.0571	0.3269	0.488	0.916
Mof_H 	H 	0.1525	0.3149	0.461	-0.004
Mof_H 	H 	0.0974	0.2476	0.4829	0.288
Mof_C 	C 	0.9439	0.323	0.3803	-3.151
Mof_H 	H 	0.9269	0.3523	0.4139	0.535
Mof_H 	H 	0.8961	0.286	0.3688	0.98
Mof_H 	H 	0.9477	0.3536	0.3444	1.054
Mof_O 	O 	0.1628	0.2171	0.3749	-0.025
Mof_H 	H 	0.2208	0.2662	0.4983	-0.131
Mof_H 	H 	0.1606	0.3363	0.5073	-0.122
Mof_H 	H 	0.2158	0.3308	0.4497	-0.121
Mof_Cd	Cd	0.77337	0.73973	0.31166	0.497
Mof_O 	O 	0.8343	0.76219	0.21752	-0.282
Mof_O 	O 	0.7078	0.69081	0.21333	-0.265
Mof_O 	O 	0.8687	0.81001	0.3769	-0.286
Mof_O 	O 	0.9779	0.84314	0.31689	-0.265
Mof_O 	O 	0.8587	0.63952	0.33488	-0.275
Mof_O 	O 	0.0101	0.66992	0.32848	-0.286
Mof_C 	C 	0.7976	0.7738	0.08399	-0.074
Mof_H 	H 	0.8385	0.8078	0.1065	0.072
Mof_C 	C 	0.7549	0.7229	0.1157	-0.077
Mof_C 	C 	0.6936	0.6697	0.08162	-0.043
Mof_H 	H 	0.6647	0.6345	0.1035	0.057
Mof_C 	C 	0.6769	0.67	0.0173	-0.091
Mof_H 	H 	0.6375	0.6345	0.9957	0.06
Mof_C 	C 	0.7811	0.7764	0.01672	0.023
Mof_C 	C 	0.767	0.7237	0.18656	0.258
Mof_C 	C 	0.9325	0.9189	0.46369	-0.078
Mof_H 	H 	0.8855	0.8868	0.4725	0.059
Mof_C 	C 	0.9693	0.9109	0.40889	-0.033
Mof_C 	C 	0.039	0.9609	0.39501	-0.036
Mof_H 	H 	0.0636	0.9559	0.3576	0.063
Mof_C 	C 	0.0711	0.0162	0.4354	-0.055
Mof_H 	H 	0.1169	0.0487	0.4252	0.054
Mof_C 	C 	0.965	0.9753	0.50716	0.053
Mof_C 	C 	0.9367	0.8494	0.3639	0.295
Mof_C 	C 	0.9197	0.54414	0.43274	-0.094
Mof_H 	H 	0.8557	0.5435	0.4139	0.075
Mof_C 	C 	0.9831	0.58853	0.40869	-0.035
Mof_C 	C 	0.0803	0.5897	0.43626	-0.039
Mof_H 	H 	0.1231	0.6194	0.4194	0.064
Mof_C 	C 	0.1121	0.5468	0.4882	-0.078
Mof_H 	H 	0.1764	0.5484	0.5064	0.054
Mof_C 	C 	0.9509	0.4991	0.48612	0.044
Mof_C 	C 	0.9474	0.63701	0.35232	0.313
Mof_O 	O 	0.6948	0.703	0.3881	-0.341
Mof_N 	N 	0.5952	0.77	0.4384	0.191
Mof_C 	C 	0.6107	0.7244	0.3946	0.686
Mof_C 	C 	0.524	0.6843	0.3622	0.5
Mof_H 	H 	0.4681	0.7023	0.3773	-0.123
Mof_H 	H 	0.5312	0.633	0.3711	-0.117
Mof_H 	H 	0.5171	0.692	0.3175	-0.355
Mof_C 	C 	0.6806	0.8038	0.4768	0.517
Mof_C 	C 	0.5072	0.7926	0.4583	-1.083
Mof_H 	H 	0.5211	0.827	0.4924	-0.314
Mof_H 	H 	0.4755	0.7507	0.4723	0.335
Mof_H 	H 	0.4662	0.8152	0.4235	1.202
Mof_N 	N 	0.5368	0.7884	0.4011	0.384
Mof_C 	C 	0.5743	0.7435	0.3594	-0.998
Mof_C 	C 	0.5199	0.7329	0.2973	1.139
Mof_H 	H 	0.5548	0.7015	0.2733	-0.241
Mof_H 	H 	0.5093	0.7793	0.2764	-0.294
Mof_H 	H 	0.4594	0.7109	0.3008	-0.185
Mof_C 	C 	0.5903	0.795	0.4633	-0.947
Mof_H 	H 	0.5571	0.8269	0.488	0.872
Mof_H 	H 	0.6525	0.8149	0.461	-0.01
Mof_H 	H 	0.5974	0.7476	0.4829	0.278
Mof_C 	C 	0.4439	0.823	0.3803	-3.03
Mof_H 	H 	0.4269	0.8523	0.4139	0.519
Mof_H 	H 	0.3961	0.786	0.3688	0.944
Mof_H 	H 	0.4477	0.8536	0.3444	1.012
Mof_O 	O 	0.6628	0.7171	0.3749	-0.002
Mof_H 	H 	0.7208	0.7662	0.4983	-0.127
Mof_H 	H 	0.6606	0.8363	0.5073	-0.117
Mof_H 	H 	0.7158	0.8308	0.4497	-0.116
Mof_Cd	Cd	0.72663	0.23973	0.18834	0.495
Mof_O 	O 	0.6657	0.26219	0.28248	-0.285
Mof_O 	O 	0.7922	0.19081	0.28667	-0.266
Mof_O 	O 	0.6313	0.31001	0.1231	-0.289
Mof_O 	O 	0.5221	0.34314	0.18311	-0.273
Mof_O 	O 	0.6413	0.13952	0.16512	-0.274
Mof_O 	O 	0.4899	0.16992	0.17152	-0.279
Mof_C 	C 	0.7024	0.2738	0.41601	-0.068
Mof_H 	H 	0.6615	0.3078	0.3935	0.068
Mof_C 	C 	0.7451	0.2229	0.3843	-0.083
Mof_C 	C 	0.8064	0.1697	0.41838	-0.038
Mof_H 	H 	0.8353	0.1345	0.3965	0.056
Mof_C 	C 	0.8231	0.17	0.4827	-0.1
Mof_H 	H 	0.8625	0.1345	0.5043	0.064
Mof_C 	C 	0.7189	0.2764	0.48328	0.014
Mof_C 	C 	0.733	0.2237	0.31344	0.259
Mof_C 	C 	0.5675	0.4189	0.03631	-0.053
Mof_H 	H 	0.6145	0.3868	0.0275	0.05
Mof_C 	C 	0.5307	0.4109	0.09111	-0.061
Mof_C 	C 	0.461	0.4609	0.10499	-0.002
Mof_H 	H 	0.4364	0.4559	0.1424	0.053
Mof_C 	C 	0.4289	0.5162	0.0646	-0.084
Mof_H 	H 	0.3831	0.5487	0.0748	0.065
Mof_C 	C 	0.535	0.4753	0.99284	0.019
Mof_C 	C 	0.5633	0.3494	0.1361	0.304
Mof_C 	C 	0.5803	0.04414	0.06726	-0.074
Mof_H 	H 	0.6443	0.0435	0.0861	0.069
Mof_C 	C 	0.5169	0.08853	0.09131	-0.054
Mof_C 	C 	0.4197	0.0897	0.06374	-0.014
Mof_H 	H 	0.3769	0.1194	0.0806	0.057
Mof_C 	C 	0.3879	0.0468	0.0118	-0.096
Mof_H 	H 	0.3236	0.0484	0.9936	0.059
Mof_C 	C 	0.5491	0.9991	0.01388	0.017
Mof_C 	C 	0.5526	0.13701	0.14768	0.309
Mof_O 	O 	0.8052	0.203	0.1119	-0.365
Mof_N 	N 	0.9048	0.27	0.0616	0.161
Mof_C 	C 	0.8893	0.2244	0.1054	0.67
Mof_C 	C 	0.976	0.1843	0.1378	0.502
Mof_H 	H 	0.0319	0.2023	0.1227	-0.128
Mof_H 	H 	0.9688	0.133	0.1289	-0.115
Mof_H 	H 	0.9829	0.192	0.1825	-0.341
Mof_C 	C 	0.8194	0.3038	0.0232	0.506
Mof_C 	C 	0.9928	0.2926	0.0417	-0.988
Mof_H 	H 	0.9789	0.327	0.0076	-0.298
Mof_H 	H 	0.0245	0.2507	0.0277	0.301
Mof_H 	H 	0.0338	0.3152	0.0765	1.126
Mof_N 	N 	0.9632	0.2884	0.0989	0.368
Mof_C 	C 	0.9257	0.2435	0.1406	-0.977
Mof_C 	C 	0.9801	0.2329	0.2027	1.092
Mof_H 	H 	0.9452	0.2015	0.2267	-0.228
Mof_H 	H 	0.9907	0.2793	0.2236	-0.271
Mof_H 	H 	0.0406	0.2109	0.1992	-0.181
Mof_C 	C 	0.9097	0.295	0.0367	-0.887
Mof_H 	H 	0.9429	0.3269	0.012	0.819
Mof_H 	H 	0.8475	0.3149	0.039	-0.018
Mof_H 	H 	0.9026	0.2476	0.0171	0.266
Mof_C 	C 	0.0561	0.323	0.1197	-2.888
Mof_H 	H 	0.0731	0.3523	0.0861	0.5
Mof_H 	H 	0.1039	0.286	0.1312	0.901
Mof_H 	H 	0.0523	0.3536	0.1556	0.963
Mof_O 	O 	0.8372	0.2171	0.1251	0.028
Mof_H 	H 	0.7792	0.2662	0.0017	-0.12
Mof_H 	H 	0.8394	0.3363	0.9927	-0.115
Mof_H 	H 	0.7842	0.3308	0.0503	-0.11
Mof_Cd	Cd	0.22663	0.73973	0.18834	0.495
Mof_O 	O 	0.1657	0.76219	0.28248	-0.285
Mof_O 	O 	0.2922	0.69081	0.28667	-0.265
Mof_O 	O 	0.1313	0.81001	0.1231	-0.292
Mof_O 	O 	0.0221	0.84314	0.18311	-0.279
Mof_O 	O 	0.1413	0.63952	0.16512	-0.274
Mof_O 	O 	0.9899	0.66992	0.17152	-0.268
Mof_C 	C 	0.2024	0.7738	0.41601	-0.068
Mof_H 	H 	0.1615	0.8078	0.3935	0.067
Mof_C 	C 	0.2451	0.7229	0.3843	-0.083
Mof_C 	C 	0.3064	0.6697	0.41838	-0.037
Mof_H 	H 	0.3353	0.6345	0.3965	0.054
Mof_C 	C 	0.3231	0.67	0.4827	-0.1
Mof_H 	H 	0.3625	0.6345	0.5043	0.063
Mof_C 	C 	0.2189	0.7764	0.48328	0.014
Mof_C 	C 	0.233	0.7237	0.31344	0.26
Mof_C 	C 	0.0675	0.9189	0.03631	-0.035
Mof_H 	H 	0.1145	0.8868	0.0275	0.042
Mof_C 	C 	0.0307	0.9109	0.09111	-0.088
Mof_C 	C 	0.961	0.9609	0.10499	0.03
Mof_H 	H 	0.9364	0.9559	0.1424	0.044
Mof_C 	C 	0.9289	0.0162	0.0646	-0.111
Mof_H 	H 	0.8831	0.0487	0.0748	0.075
Mof_C 	C 	0.035	0.9753	0.99284	-0.009
Mof_C 	C 	0.0633	0.8494	0.1361	0.311
Mof_C 	C 	0.0803	0.54414	0.06726	-0.057
Mof_H 	H 	0.1443	0.5435	0.0861	0.063
Mof_C 	C 	0.0169	0.58853	0.09131	-0.076
Mof_C 	C 	0.9197	0.5897	0.06374	0.014
Mof_H 	H 	0.8769	0.6194	0.0806	0.049
Mof_C 	C 	0.8879	0.5468	0.0118	-0.116
Mof_H 	H 	0.8236	0.5484	0.9936	0.066
Mof_C 	C 	0.0491	0.4991	0.01388	-0.011
Mof_C 	C 	0.0526	0.63701	0.14768	0.304
Mof_O 	O 	0.3052	0.703	0.1119	-0.341
Mof_N 	N 	0.4048	0.77	0.0616	0.19
Mof_C 	C 	0.3893	0.7244	0.1054	0.686
Mof_C 	C 	0.476	0.6843	0.1378	0.5
Mof_H 	H 	0.5319	0.7023	0.1227	-0.123
Mof_H 	H 	0.4688	0.633	0.1289	-0.117
Mof_H 	H 	0.4829	0.692	0.1825	-0.355
Mof_C 	C 	0.3194	0.8038	0.0232	0.518
Mof_C 	C 	0.4928	0.7926	0.0417	-1.082
Mof_H 	H 	0.4789	0.827	0.0076	-0.314
Mof_H 	H 	0.5245	0.7507	0.0277	0.334
Mof_H 	H 	0.5338	0.8152	0.0765	1.201
Mof_N 	N 	0.4632	0.7884	0.0989	0.383
Mof_C 	C 	0.4257	0.7435	0.1406	-0.998
Mof_C 	C 	0.4801	0.7329	0.2027	1.139
Mof_H 	H 	0.4452	0.7015	0.2267	-0.241
Mof_H 	H 	0.4907	0.7793	0.2236	-0.294
Mof_H 	H 	0.5406	0.7109	0.1992	-0.185
Mof_C 	C 	0.4097	0.795	0.0367	-0.946
Mof_H 	H 	0.4429	0.8269	0.012	0.871
Mof_H 	H 	0.3475	0.8149	0.039	-0.012
Mof_H 	H 	0.4026	0.7476	0.0171	0.277
Mof_C 	C 	0.5561	0.823	0.1197	-3.028
Mof_H 	H 	0.5731	0.8523	0.0861	0.518
Mof_H 	H 	0.6039	0.786	0.1312	0.943
Mof_H 	H 	0.5523	0.8536	0.1556	1.011
Mof_O 	O 	0.3372	0.7171	0.1251	-0.002
Mof_H 	H 	0.2792	0.7662	0.0017	-0.128
Mof_H 	H 	0.3394	0.8363	0.9927	-0.117
Mof_H 	H 	0.2842	0.8308	0.0503	-0.117
Mof_Cd	Cd	0.72663	0.76027	0.68834	0.495
Mof_O 	O 	0.6657	0.73781	0.78248	-0.285
Mof_O 	O 	0.7922	0.80919	0.78667	-0.266
Mof_O 	O 	0.6313	0.68999	0.6231	-0.289
Mof_O 	O 	0.5221	0.65686	0.68311	-0.273
Mof_O 	O 	0.6413	0.86048	0.66512	-0.274
Mof_O 	O 	0.4899	0.83008	0.67152	-0.279
Mof_C 	C 	0.7024	0.7262	0.91601	-0.063
Mof_H 	H 	0.6615	0.6922	0.8935	0.067
Mof_C 	C 	0.7451	0.7771	0.8843	-0.087
Mof_C 	C 	0.8064	0.8303	0.91838	-0.032
Mof_H 	H 	0.8353	0.8655	0.8965	0.053
Mof_C 	C 	0.8231	0.83	0.9827	-0.108
Mof_H 	H 	0.8625	0.8655	0.0043	0.068
Mof_C 	C 	0.7189	0.7236	0.98328	0.007
Mof_C 	C 	0.733	0.7763	0.81344	0.261
Mof_C 	C 	0.5675	0.5811	0.53631	-0.054
Mof_H 	H 	0.6145	0.6132	0.5275	0.05
Mof_C 	C 	0.5307	0.5891	0.59111	-0.061
Mof_C 	C 	0.461	0.5391	0.60499	-0.003
Mof_H 	H 	0.4364	0.5441	0.6424	0.054
Mof_C 	C 	0.4289	0.4838	0.5646	-0.083
Mof_H 	H 	0.3831	0.4513	0.5748	0.064
Mof_C 	C 	0.535	0.5247	0.49284	0.021
Mof_C 	C 	0.5633	0.6506	0.6361	0.304
Mof_C 	C 	0.5803	0.95586	0.56726	-0.075
Mof_H 	H 	0.6443	0.9565	0.5861	0.069
Mof_C 	C 	0.5169	0.91147	0.59131	-0.055
Mof_C 	C 	0.4197	0.9103	0.56374	-0.012
Mof_H 	H 	0.3769	0.8806	0.5806	0.056
Mof_C 	C 	0.3879	0.9532	0.5118	-0.101
Mof_H 	H 	0.3236	0.9516	0.4936	0.062
Mof_C 	C 	0.5491	0.0009	0.51388	0.017
Mof_C 	C 	0.5526	0.86299	0.64768	0.309
Mof_O 	O 	0.8052	0.797	0.6119	-0.359
Mof_N 	N 	0.9048	0.73	0.5616	0.168
Mof_C 	C 	0.8893	0.7756	0.6054	0.674
Mof_C 	C 	0.976	0.8157	0.6378	0.501
Mof_H 	H 	0.0319	0.7977	0.6227	-0.127
Mof_H 	H 	0.9688	0.867	0.6289	-0.115
Mof_H 	H 	0.9829	0.808	0.6825	-0.344
Mof_C 	C 	0.8194	0.6962	0.5232	0.51
Mof_C 	C 	0.9928	0.7074	0.5417	-1.008
Mof_H 	H 	0.9789	0.673	0.5076	-0.302
Mof_H 	H 	0.0245	0.7493	0.5277	0.308
Mof_H 	H 	0.0338	0.6848	0.5765	1.141
Mof_N 	N 	0.9632	0.7116	0.5989	0.371
Mof_C 	C 	0.9257	0.7565	0.6406	-0.982
Mof_C 	C 	0.9801	0.7671	0.7027	1.103
Mof_H 	H 	0.9452	0.7985	0.7267	-0.231
Mof_H 	H 	0.9907	0.7207	0.7236	-0.276
Mof_H 	H 	0.0406	0.7891	0.6992	-0.182
Mof_C 	C 	0.9097	0.705	0.5367	-0.9
Mof_H 	H 	0.9429	0.6731	0.512	0.83
Mof_H 	H 	0.8475	0.6851	0.539	-0.017
Mof_H 	H 	0.9026	0.7524	0.5171	0.268
Mof_C 	C 	0.0561	0.677	0.6197	-2.917
Mof_H 	H 	0.0731	0.6477	0.5861	0.504
Mof_H 	H 	0.1039	0.714	0.6312	0.91
Mof_H 	H 	0.0523	0.6464	0.6556	0.973
Mof_O 	O 	0.8372	0.7829	0.6251	0.021
Mof_H 	H 	0.7792	0.7338	0.5017	-0.123
Mof_H 	H 	0.8394	0.6637	0.4927	-0.114
Mof_H 	H 	0.7842	0.6692	0.5503	-0.112
Mof_Cd	Cd	0.22663	0.26027	0.68834	0.496
Mof_O 	O 	0.1657	0.23781	0.78248	-0.285
Mof_O 	O 	0.2922	0.30919	0.78667	-0.265
Mof_O 	O 	0.1313	0.18999	0.6231	-0.292
Mof_O 	O 	0.0221	0.15686	0.68311	-0.278
Mof_O 	O 	0.1413	0.36048	0.66512	-0.274
Mof_O 	O 	0.9899	0.33008	0.67152	-0.271
Mof_C 	C 	0.2024	0.2262	0.91601	-0.069
Mof_H 	H 	0.1615	0.1922	0.8935	0.068
Mof_C 	C 	0.2451	0.2771	0.8843	-0.082
Mof_C 	C 	0.3064	0.3303	0.91838	-0.038
Mof_H 	H 	0.3353	0.3655	0.8965	0.055
Mof_C 	C 	0.3231	0.33	0.9827	-0.098
Mof_H 	H 	0.3625	0.3655	0.0043	0.063
Mof_C 	C 	0.2189	0.2236	0.98328	0.016
Mof_C 	C 	0.233	0.2763	0.81344	0.26
Mof_C 	C 	0.0675	0.0811	0.53631	-0.031
Mof_H 	H 	0.1145	0.1132	0.5275	0.041
Mof_C 	C 	0.0307	0.0891	0.59111	-0.086
Mof_C 	C 	0.961	0.0391	0.60499	0.028
Mof_H 	H 	0.9364	0.0441	0.6424	0.045
Mof_C 	C 	0.9289	0.9838	0.5646	-0.11
Mof_H 	H 	0.8831	0.9513	0.5748	0.074
Mof_C 	C 	0.035	0.0247	0.49284	-0.011
Mof_C 	C 	0.0633	0.1506	0.6361	0.311
Mof_C 	C 	0.0803	0.45586	0.56726	-0.056
Mof_H 	H 	0.1443	0.4565	0.5861	0.063
Mof_C 	C 	0.0169	0.41147	0.59131	-0.076
Mof_C 	C 	0.9197	0.4103	0.56374	0.015
Mof_H 	H 	0.8769	0.3806	0.5806	0.048
Mof_C 	C 	0.8879	0.4532	0.5118	-0.125
Mof_H 	H 	0.8236	0.4516	0.4936	0.07
Mof_C 	C 	0.0491	0.5009	0.51388	-0.011
Mof_C 	C 	0.0526	0.36299	0.64768	0.307
Mof_O 	O 	0.3052	0.297	0.6119	-0.341
Mof_N 	N 	0.4048	0.23	0.5616	0.191
Mof_C 	C 	0.3893	0.2756	0.6054	0.686
Mof_C 	C 	0.476	0.3157	0.6378	0.5
Mof_H 	H 	0.5319	0.2977	0.6227	-0.123
Mof_H 	H 	0.4688	0.367	0.6289	-0.117
Mof_H 	H 	0.4829	0.308	0.6825	-0.355
Mof_C 	C 	0.3194	0.1962	0.5232	0.518
Mof_C 	C 	0.4928	0.2074	0.5417	-1.083
Mof_H 	H 	0.4789	0.173	0.5076	-0.314
Mof_H 	H 	0.5245	0.2493	0.5277	0.335
Mof_H 	H 	0.5338	0.1848	0.5765	1.202
Mof_N 	N 	0.4632	0.2116	0.5989	0.384
Mof_C 	C 	0.4257	0.2565	0.6406	-0.998
Mof_C 	C 	0.4801	0.2671	0.7027	1.139
Mof_H 	H 	0.4452	0.2985	0.7267	-0.241
Mof_H 	H 	0.4907	0.2207	0.7236	-0.294
Mof_H 	H 	0.5406	0.2891	0.6992	-0.185
Mof_C 	C 	0.4097	0.205	0.5367	-0.947
Mof_H 	H 	0.4429	0.1731	0.512	0.872
Mof_H 	H 	0.3475	0.1851	0.539	-0.011
Mof_H 	H 	0.4026	0.2524	0.5171	0.277
Mof_C 	C 	0.5561	0.177	0.6197	-3.031
Mof_H 	H 	0.5731	0.1477	0.5861	0.519
Mof_H 	H 	0.6039	0.214	0.6312	0.944
Mof_H 	H 	0.5523	0.1464	0.6556	1.012
Mof_O 	O 	0.3372	0.2829	0.6251	-0.002
Mof_H 	H 	0.2792	0.2338	0.5017	-0.127
Mof_H 	H 	0.3394	0.1637	0.4927	-0.119
Mof_H 	H 	0.2842	0.1692	0.5503	-0.117
Mof_Cd	Cd	0.27337	0.76027	0.81166	0.496
Mof_O 	O 	0.3343	0.73781	0.71752	-0.285
Mof_O 	O 	0.2078	0.80919	0.71333	-0.265
Mof_O 	O 	0.3687	0.68999	0.8769	-0.289
Mof_O 	O 	0.4779	0.65686	0.81689	-0.273
Mof_O 	O 	0.3587	0.86048	0.83488	-0.275
Mof_O 	O 	0.5101	0.83008	0.82848	-0.279
Mof_C 	C 	0.2976	0.7262	0.58399	-0.068
Mof_H 	H 	0.3385	0.6922	0.6065	0.069
Mof_C 	C 	0.2549	0.7771	0.6157	-0.081
Mof_C 	C 	0.1936	0.8303	0.58162	-0.037
Mof_H 	H 	0.1647	0.8655	0.6035	0.054
Mof_C 	C 	0.1769	0.83	0.5173	-0.098
Mof_H 	H 	0.1375	0.8655	0.4957	0.062
Mof_C 	C 	0.2811	0.7236	0.51672	0.015
Mof_C 	C 	0.267	0.7763	0.68656	0.261
Mof_C 	C 	0.4325	0.5811	0.96369	-0.055
Mof_H 	H 	0.3855	0.6132	0.9725	0.051
Mof_C 	C 	0.4693	0.5891	0.90889	-0.06
Mof_C 	C 	0.539	0.5391	0.89501	-0.004
Mof_H 	H 	0.5636	0.5441	0.8576	0.054
Mof_C 	C 	0.5711	0.4838	0.9354	-0.082
Mof_H 	H 	0.6169	0.4513	0.9252	0.064
Mof_C 	C 	0.465	0.5247	0.00716	0.023
Mof_C 	C 	0.4367	0.6506	0.8639	0.304
Mof_C 	C 	0.4197	0.95586	0.93274	-0.071
Mof_H 	H 	0.3557	0.9565	0.9139	0.068
Mof_C 	C 	0.4831	0.91147	0.90869	-0.057
Mof_C 	C 	0.5803	0.9103	0.93626	-0.011
Mof_H 	H 	0.6231	0.8806	0.9194	0.056
Mof_C 	C 	0.6121	0.9532	0.9882	-0.101
Mof_H 	H 	0.6764	0.9516	0.0064	0.062
Mof_C 	C 	0.4509	0.0009	0.98612	0.013
Mof_C 	C 	0.4474	0.86299	0.85232	0.31
Mof_O 	O 	0.1948	0.797	0.8881	-0.328
Mof_N 	N 	0.0952	0.73	0.9384	0.208
Mof_C 	C 	0.1107	0.7756	0.8946	0.693
Mof_C 	C 	0.024	0.8157	0.8622	0.496
Mof_H 	H 	0.9681	0.7977	0.8773	-0.119
Mof_H 	H 	0.0312	0.867	0.8711	-0.117
Mof_H 	H 	0.0171	0.808	0.8175	-0.363
Mof_C 	C 	0.1806	0.6962	0.9768	0.523
Mof_C 	C 	0.0072	0.7074	0.9583	-1.142
Mof_H 	H 	0.0211	0.673	0.9924	-0.322
Mof_H 	H 	0.9755	0.7493	0.9723	0.355
Mof_H 	H 	0.9662	0.6848	0.9235	1.249
Mof_N 	N 	0.0368	0.7116	0.9011	0.393
Mof_C 	C 	0.0743	0.7565	0.8594	-1.009
Mof_C 	C 	0.0199	0.7671	0.7973	1.164
Mof_H 	H 	0.0548	0.7985	0.7733	-0.249
Mof_H 	H 	0.0093	0.7207	0.7764	-0.308
Mof_H 	H 	0.9594	0.7891	0.8008	-0.187
Mof_C 	C 	0.0903	0.705	0.9633	-0.982
Mof_H 	H 	0.0571	0.6731	0.988	0.904
Mof_H 	H 	0.1525	0.6851	0.961	-0.005
Mof_H 	H 	0.0974	0.7524	0.9829	0.286
Mof_C 	C 	0.9439	0.677	0.8803	-3.117
Mof_H 	H 	0.9269	0.6477	0.9139	0.53
Mof_H 	H 	0.8961	0.714	0.8688	0.97
Mof_H 	H 	0.9477	0.6464	0.8444	1.042
Mof_O 	O 	0.1628	0.7829	0.8749	-0.017
Mof_H 	H 	0.2208	0.7338	0.9983	-0.129
Mof_H 	H 	0.1606	0.6637	0.0073	-0.122
Mof_H 	H 	0.2158	0.6692	0.9497	-0.12
Mof_Cd	Cd	0.77337	0.26027	0.81166	0.496
Mof_O 	O 	0.8343	0.23781	0.71752	-0.283
Mof_O 	O 	0.7078	0.30919	0.71333	-0.265
Mof_O 	O 	0.8687	0.18999	0.8769	-0.286
Mof_O 	O 	0.9779	0.15686	0.81689	-0.266
Mof_O 	O 	0.8587	0.36048	0.83488	-0.274
Mof_O 	O 	0.0101	0.33008	0.82848	-0.284
Mof_C 	C 	0.7976	0.2262	0.58399	-0.069
Mof_H 	H 	0.8385	0.1922	0.6065	0.07
Mof_C 	C 	0.7549	0.2771	0.6157	-0.081
Mof_C 	C 	0.6936	0.3303	0.58162	-0.038
Mof_H 	H 	0.6647	0.3655	0.6035	0.055
Mof_C 	C 	0.6769	0.33	0.5173	-0.098
Mof_H 	H 	0.6375	0.3655	0.4957	0.063
Mof_C 	C 	0.7811	0.2236	0.51672	0.015
Mof_C 	C 	0.767	0.2763	0.68656	0.26
Mof_C 	C 	0.9325	0.0811	0.96369	-0.083
Mof_H 	H 	0.8855	0.1132	0.9725	0.06
Mof_C 	C 	0.9693	0.0891	0.90889	-0.035
Mof_C 	C 	0.039	0.0391	0.89501	-0.034
Mof_H 	H 	0.0636	0.0441	0.8576	0.063
Mof_C 	C 	0.0711	0.9838	0.9354	-0.056
Mof_H 	H 	0.1169	0.9513	0.9252	0.055
Mof_C 	C 	0.965	0.0247	0.00716	0.057
Mof_C 	C 	0.9367	0.1506	0.8639	0.295
Mof_C 	C 	0.9197	0.45586	0.93274	-0.091
Mof_H 	H 	0.8557	0.4565	0.9139	0.074
Mof_C 	C 	0.9831	0.41147	0.90869	-0.038
Mof_C 	C 	0.0803	0.4103	0.93626	-0.037
Mof_H 	H 	0.1231	0.3806	0.9194	0.064
Mof_C 	C 	0.1121	0.4532	0.9882	-0.075
Mof_H 	H 	0.1764	0.4516	0.0064	0.052
Mof_C 	C 	0.9509	0.5009	0.98612	0.039
Mof_C 	C 	0.9474	0.36299	0.85232	0.311
Mof_O 	O 	0.6948	0.297	0.8881	-0.341
Mof_N 	N 	0.5952	0.23	0.9384	0.19
Mof_C 	C 	0.6107	0.2756	0.8946	0.687
Mof_C 	C 	0.524	0.3157	0.8622	0.499
Mof_H 	H 	0.4681	0.2977	0.8773	-0.123
Mof_H 	H 	0.5312	0.367	0.8711	-0.116
Mof_H 	H 	0.5171	0.308	0.8175	-0.355
Mof_C 	C 	0.6806	0.1962	0.9768	0.517
Mof_C 	C 	0.5072	0.2074	0.9583	-1.081
Mof_H 	H 	0.5211	0.173	0.9924	-0.314
Mof_H 	H 	0.4755	0.2493	0.9723	0.334
Mof_H 	H 	0.4662	0.1848	0.9235	1.2
Mof_N 	N 	0.5368	0.2116	0.9011	0.383
Mof_C 	C 	0.5743	0.2565	0.8594	-0.998
Mof_C 	C 	0.5199	0.2671	0.7973	1.139
Mof_H 	H 	0.5548	0.2985	0.7733	-0.241
Mof_H 	H 	0.5093	0.2207	0.7764	-0.294
Mof_H 	H 	0.4594	0.2891	0.8008	-0.185
Mof_C 	C 	0.5903	0.205	0.9633	-0.946
Mof_H 	H 	0.5571	0.1731	0.988	0.87
Mof_H 	H 	0.6525	0.1851	0.961	-0.011
Mof_H 	H 	0.5974	0.2524	0.9829	0.277
Mof_C 	C 	0.4439	0.177	0.8803	-3.026
Mof_H 	H 	0.4269	0.1477	0.9139	0.518
Mof_H 	H 	0.3961	0.214	0.8688	0.942
Mof_H 	H 	0.4477	0.1464	0.8444	1.01
Mof_O 	O 	0.6628	0.2829	0.8749	-0.003
Mof_H 	H 	0.7208	0.2338	0.9983	-0.129
Mof_H 	H 	0.6606	0.1637	0.0073	-0.116
Mof_H 	H 	0.7158	0.1692	0.9497	-0.117
Mof_Cd	Cd	0.5	0.25229	0.25	0.52
Mof_Cd	Cd	1.65383e-33	0.75229	0.25	0.511
Mof_Cd	Cd	0.5	0.74771	0.75	0.52
Mof_Cd	Cd	2.07696e-17	0.24771	0.75	0.514
_end
