# CIF file generated by openbabel 3.1.0, see https://openbabel.org
data_I
_chemical_name_common 'image0'
_cell_length_a 16.7094
_cell_length_b 20.2857
_cell_length_c 17.1936
_cell_angle_alpha 90
_cell_angle_beta 99.178
_cell_angle_gamma 90
_space_group_name_H-M_alt 'P 1'
_space_group_name_Hall 'P 1'
loop_
    _symmetry_equiv_pos_as_xyz
    x,y,z
loop_
    _atom_site_label
    _atom_site_type_symbol
    _atom_site_fract_x
    _atom_site_fract_y
    _atom_site_fract_z
    _atom_site_occupancy
    Mn1      Mn       0.46316    0.83389    0.74731    1.000
    Mn2      Mn       0.35661    0.87850    0.55327    1.000
    Mn3      Mn       0.58457    0.85213    0.94379    1.000
    S1       S        0.55321    0.22614    0.77103    1.000
    S2       S        0.54774    0.42940    0.83559    1.000
    S3       S        0.10476    0.98467    0.95924    1.000
    O1       O        0.50250    0.75675    0.82820    1.000
    O2       O        0.98100    0.73223    0.15480    1.000
    O3       O        0.42860    0.91849    0.67490    1.000
    O4       O        0.91370    0.36660    0.75020    1.000
    O5       O        0.16339    0.30696    0.75982    1.000
    O6       O        0.45580    0.89233    0.85570    1.000
    O7       O        0.21150    0.31680    0.88749    1.000
    O8       O        0.94010    0.69518    0.03350    1.000
    O9       O        0.44580    0.95736    0.56050    1.000
    O10      O        0.84670    0.38884    0.63176    1.000
    O11      O        0.57930    0.75038    0.94290    1.000
    O12      O        0.48910    0.89810    0.98350    1.000
    O13      O        0.57640    0.26706    0.71060    1.000
    O14      O        0.60330    0.22335    0.84590    1.000
    O15      O        0.48100    0.41315    0.77490    1.000
    O16      O        0.55580    0.39817    0.91060    1.000
    O17      O        0.10960    0.03232    0.02070    1.000
    O18      O        0.05840    0.99903    0.88440    1.000
    C1       C        0.45670    0.96150    0.63380    1.000
    C2       C        0.49440    0.02270    0.67140    1.000
    C3       C        0.50200    0.03300    0.75100    1.000
    H1       H        0.49190    0.99860    0.78390    1.000
    C4       C        0.52460    0.09400    0.78260    1.000
    H2       H        0.53050    0.10070    0.83670    1.000
    C5       C        0.53850    0.14510    0.73340    1.000
    C6       C        0.53550    0.13470    0.65480    1.000
    H3       H        0.54730    0.16870    0.62210    1.000
    C7       C        0.51460    0.07300    0.62430    1.000
    H4       H        0.51410    0.06530    0.57090    1.000
    C8       C        0.45530    0.24940    0.78430    1.000
    C9       C        0.43870    0.25780    0.85910    1.000
    H5       H        0.47900    0.25150    0.90250    1.000
    C10      C        0.36180    0.27560    0.86920    1.000
    H6       H        0.35030    0.28190    0.91990    1.000
    C11      C        0.30120    0.28410    0.80540    1.000
    C12      C        0.31890    0.27500    0.73060    1.000
    H7       H        0.27850    0.27990    0.68710    1.000
    C13      C        0.39600    0.25860    0.72030    1.000
    H8       H        0.40820    0.25380    0.66970    1.000
    C14      C        0.21840    0.30410    0.81840    1.000
    C15      C        0.54200    0.72490    0.88160    1.000
    C16      C        0.54470    0.65090    0.87240    1.000
    C17      C        0.51320    0.62370    0.80090    1.000
    H9       H        0.49050    0.65090    0.75970    1.000
    C18      C        0.51480    0.55620    0.78960    1.000
    H10      H        0.49460    0.53820    0.74060    1.000
    C19      C        0.54630    0.51620    0.85050    1.000
    C20      C        0.57950    0.54230    0.92190    1.000
    H11      H        0.60230    0.51480    0.96280    1.000
    C21      C        0.57890    0.61030    0.93250    1.000
    H12      H        0.60170    0.62840    0.98070    1.000
    C22      C        0.63750    0.41660    0.79750    1.000
    C23      C        0.70560    0.39650    0.84610    1.000
    H13      H        0.70450    0.38940    0.89940    1.000
    C24      C        0.77550    0.38670    0.81590    1.000
    H14      H        0.82250    0.37360    0.84880    1.000
    C25      C        0.77680    0.39620    0.73730    1.000
    C26      C        0.70660    0.41500    0.68900    1.000
    H15      H        0.70680    0.42050    0.63530    1.000
    C27      C        0.63690    0.42580    0.71900    1.000
    H16      H        0.58990    0.43910    0.68640    1.000
    C28      C        0.85250    0.38300    0.70450    1.000
    C29      C        0.43930    0.90480    0.92190    1.000
    C30      C        0.35650    0.92850    0.92830    1.000
    C31      C        0.34280    0.95740    0.99720    1.000
    H17      H        0.38590    0.96440    0.03780    1.000
    C32      C        0.26610    0.97620    0.00640    1.000
    H18      H        0.25660    0.99550    0.05320    1.000
    C33      C        0.20380    0.96590    0.94570    1.000
    C34      C        0.21620    0.93800    0.87560    1.000
    H19      H        0.17310    0.93150    0.83500    1.000
    C35      C        0.29280    0.92020    0.86690    1.000
    H20      H        0.30250    0.90240    0.81950    1.000
    C36      C        0.06990    0.91030    0.99370    1.000
    C37      C        0.08150    0.89860    0.07320    1.000
    H21      H        0.10910    0.92910    0.10790    1.000
    C38      C        0.05230    0.84210    0.10100    1.000
    H22      H        0.06090    0.83410    0.15500    1.000
    C39      C        0.01000    0.79630    0.05050    1.000
    C40      C        0.99910    0.80840    0.97030    1.000
    H23      H        0.97150    0.77790    0.93560    1.000
    C41      C        0.02880    0.86490    0.94150    1.000
    H24      H        0.02140    0.87270    0.88750    1.000
    C42      C        0.97490    0.73600    0.08230    1.000
    Mn4      Mn       0.03684    0.33389    0.75269    1.000
    Mn5      Mn       0.14339    0.37850    0.94673    1.000
    Mn6      Mn       0.91543    0.35213    0.55621    1.000
    S4       S        0.94679    0.72614    0.72897    1.000
    S5       S        0.95226    0.92940    0.66441    1.000
    S6       S        0.39524    0.48467    0.54076    1.000
    O19      O        0.99750    0.25675    0.67180    1.000
    O20      O        0.51900    0.23223    0.34520    1.000
    O21      O        0.07140    0.41849    0.82510    1.000
    O22      O        0.58630    0.86660    0.74980    1.000
    O23      O        0.33661    0.80696    0.74018    1.000
    O24      O        0.04420    0.39233    0.64430    1.000
    O25      O        0.28850    0.81680    0.61251    1.000
    O26      O        0.55990    0.19518    0.46650    1.000
    O27      O        0.05420    0.45736    0.93950    1.000
    O28      O        0.65330    0.88884    0.86824    1.000
    O29      O        0.92070    0.25038    0.55710    1.000
    O30      O        0.01090    0.39810    0.51650    1.000
    O31      O        0.92360    0.76706    0.78940    1.000
    O32      O        0.89670    0.72335    0.65410    1.000
    O33      O        0.01900    0.91315    0.72510    1.000
    O34      O        0.94420    0.89817    0.58940    1.000
    O35      O        0.39040    0.53232    0.47930    1.000
    O36      O        0.44160    0.49903    0.61560    1.000
    C43      C        0.04330    0.46150    0.86620    1.000
    C44      C        0.00560    0.52270    0.82860    1.000
    C45      C        0.99800    0.53300    0.74900    1.000
    H25      H        0.00810    0.49860    0.71610    1.000
    C46      C        0.97540    0.59400    0.71740    1.000
    H26      H        0.96950    0.60070    0.66330    1.000
    C47      C        0.96150    0.64510    0.76660    1.000
    C48      C        0.96450    0.63470    0.84520    1.000
    H27      H        0.95270    0.66870    0.87790    1.000
    C49      C        0.98540    0.57300    0.87570    1.000
    H28      H        0.98590    0.56530    0.92910    1.000
    C50      C        0.04470    0.74940    0.71570    1.000
    C51      C        0.06130    0.75780    0.64090    1.000
    H29      H        0.02100    0.75150    0.59750    1.000
    C52      C        0.13820    0.77560    0.63080    1.000
    H30      H        0.14970    0.78190    0.58010    1.000
    C53      C        0.19880    0.78410    0.69460    1.000
    C54      C        0.18110    0.77500    0.76940    1.000
    H31      H        0.22150    0.77990    0.81290    1.000
    C55      C        0.10400    0.75860    0.77970    1.000
    H32      H        0.09180    0.75380    0.83030    1.000
    C56      C        0.28160    0.80410    0.68160    1.000
    C57      C        0.95800    0.22490    0.61840    1.000
    C58      C        0.95530    0.15090    0.62760    1.000
    C59      C        0.98680    0.12370    0.69910    1.000
    H33      H        0.00950    0.15090    0.74030    1.000
    C60      C        0.98520    0.05620    0.71040    1.000
    H34      H        0.00540    0.03820    0.75940    1.000
    C61      C        0.95370    0.01620    0.64950    1.000
    C62      C        0.92050    0.04230    0.57810    1.000
    H35      H        0.89770    0.01480    0.53720    1.000
    C63      C        0.92110    0.11030    0.56750    1.000
    H36      H        0.89830    0.12840    0.51930    1.000
    C64      C        0.86250    0.91660    0.70250    1.000
    C65      C        0.79440    0.89650    0.65390    1.000
    H37      H        0.79550    0.88940    0.60060    1.000
    C66      C        0.72450    0.88670    0.68410    1.000
    H38      H        0.67750    0.87360    0.65120    1.000
    C67      C        0.72320    0.89620    0.76270    1.000
    C68      C        0.79340    0.91500    0.81100    1.000
    H39      H        0.79320    0.92050    0.86470    1.000
    C69      C        0.86310    0.92580    0.78100    1.000
    H40      H        0.91010    0.93910    0.81360    1.000
    C70      C        0.64750    0.88300    0.79550    1.000
    C71      C        0.06070    0.40480    0.57810    1.000
    C72      C        0.14350    0.42850    0.57170    1.000
    C73      C        0.15720    0.45740    0.50280    1.000
    H41      H        0.11410    0.46440    0.46220    1.000
    C74      C        0.23390    0.47620    0.49360    1.000
    H42      H        0.24340    0.49550    0.44680    1.000
    C75      C        0.29620    0.46590    0.55430    1.000
    C76      C        0.28380    0.43800    0.62440    1.000
    H43      H        0.32690    0.43150    0.66500    1.000
    C77      C        0.20720    0.42020    0.63310    1.000
    H44      H        0.19750    0.40240    0.68050    1.000
    C78      C        0.43010    0.41030    0.50630    1.000
    C79      C        0.41850    0.39860    0.42680    1.000
    H45      H        0.39090    0.42910    0.39210    1.000
    C80      C        0.44770    0.34210    0.39900    1.000
    H46      H        0.43910    0.33410    0.34500    1.000
    C81      C        0.49000    0.29630    0.44950    1.000
    C82      C        0.50090    0.30840    0.52970    1.000
    H47      H        0.52850    0.27790    0.56440    1.000
    C83      C        0.47120    0.36490    0.55850    1.000
    H48      H        0.47860    0.37270    0.61250    1.000
    C84      C        0.52510    0.23600    0.41770    1.000
    Mn7      Mn       0.53684    0.16611    0.25269    1.000
    Mn8      Mn       0.64339    0.12150    0.44673    1.000
    Mn9      Mn       0.41543    0.14787    0.05621    1.000
    S7       S        0.44679    0.77386    0.22897    1.000
    S8       S        0.45226    0.57060    0.16441    1.000
    S9       S        0.89524    0.01533    0.04076    1.000
    O37      O        0.49750    0.24325    0.17180    1.000
    O38      O        0.01900    0.26777    0.84520    1.000
    O39      O        0.57140    0.08151    0.32510    1.000
    O40      O        0.08630    0.63340    0.24980    1.000
    O41      O        0.83661    0.69304    0.24018    1.000
    O42      O        0.54420    0.10767    0.14430    1.000
    O43      O        0.78850    0.68320    0.11251    1.000
    O44      O        0.05990    0.30482    0.96650    1.000
    O45      O        0.55420    0.04264    0.43950    1.000
    O46      O        0.15330    0.61116    0.36824    1.000
    O47      O        0.42070    0.24962    0.05710    1.000
    O48      O        0.51090    0.10190    0.01650    1.000
    O49      O        0.42360    0.73294    0.28940    1.000
    O50      O        0.39670    0.77665    0.15410    1.000
    O51      O        0.51900    0.58685    0.22510    1.000
    O52      O        0.44420    0.60183    0.08940    1.000
    O53      O        0.89040    0.96768    0.97930    1.000
    O54      O        0.94160    0.00097    0.11560    1.000
    C85      C        0.54330    0.03850    0.36620    1.000
    C86      C        0.50560    0.97730    0.32860    1.000
    C87      C        0.49800    0.96700    0.24900    1.000
    H49      H        0.50810    0.00140    0.21610    1.000
    C88      C        0.47540    0.90600    0.21740    1.000
    H50      H        0.46950    0.89930    0.16330    1.000
    C89      C        0.46150    0.85490    0.26660    1.000
    C90      C        0.46450    0.86530    0.34520    1.000
    H51      H        0.45270    0.83130    0.37790    1.000
    C91      C        0.48540    0.92700    0.37570    1.000
    H52      H        0.48590    0.93470    0.42910    1.000
    C92      C        0.54470    0.75060    0.21570    1.000
    C93      C        0.56130    0.74220    0.14090    1.000
    H53      H        0.52100    0.74850    0.09750    1.000
    C94      C        0.63820    0.72440    0.13080    1.000
    H54      H        0.64970    0.71810    0.08010    1.000
    C95      C        0.69880    0.71590    0.19460    1.000
    C96      C        0.68110    0.72500    0.26940    1.000
    H55      H        0.72150    0.72010    0.31290    1.000
    C97      C        0.60400    0.74140    0.27970    1.000
    H56      H        0.59180    0.74620    0.33030    1.000
    C98      C        0.78160    0.69590    0.18160    1.000
    C99      C        0.45800    0.27510    0.11840    1.000
    C100     C        0.45530    0.34910    0.12760    1.000
    C101     C        0.48680    0.37630    0.19910    1.000
    H57      H        0.50950    0.34910    0.24030    1.000
    C102     C        0.48520    0.44380    0.21040    1.000
    H58      H        0.50540    0.46180    0.25940    1.000
    C103     C        0.45370    0.48380    0.14950    1.000
    C104     C        0.42050    0.45770    0.07810    1.000
    H59      H        0.39770    0.48520    0.03720    1.000
    C105     C        0.42110    0.38970    0.06750    1.000
    H60      H        0.39830    0.37160    0.01930    1.000
    C106     C        0.36250    0.58340    0.20250    1.000
    C107     C        0.29440    0.60350    0.15390    1.000
    H61      H        0.29550    0.61060    0.10060    1.000
    C108     C        0.22450    0.61330    0.18410    1.000
    H62      H        0.17750    0.62640    0.15120    1.000
    C109     C        0.22320    0.60380    0.26270    1.000
    C110     C        0.29340    0.58500    0.31100    1.000
    H63      H        0.29320    0.57950    0.36470    1.000
    C111     C        0.36310    0.57420    0.28100    1.000
    H64      H        0.41010    0.56090    0.31360    1.000
    C112     C        0.14750    0.61700    0.29550    1.000
    C113     C        0.56070    0.09520    0.07810    1.000
    C114     C        0.64350    0.07150    0.07170    1.000
    C115     C        0.65720    0.04260    0.00280    1.000
    H65      H        0.61410    0.03560    0.96220    1.000
    C116     C        0.73390    0.02380    0.99360    1.000
    H66      H        0.74340    0.00450    0.94680    1.000
    C117     C        0.79620    0.03410    0.05430    1.000
    C118     C        0.78380    0.06200    0.12440    1.000
    H67      H        0.82690    0.06850    0.16500    1.000
    C119     C        0.70720    0.07980    0.13310    1.000
    H68      H        0.69750    0.09760    0.18050    1.000
    C120     C        0.93010    0.08970    0.00630    1.000
    C121     C        0.91850    0.10140    0.92680    1.000
    H69      H        0.89090    0.07090    0.89210    1.000
    C122     C        0.94770    0.15790    0.89900    1.000
    H70      H        0.93910    0.16590    0.84500    1.000
    C123     C        0.99000    0.20370    0.94950    1.000
    C124     C        0.00090    0.19160    0.02970    1.000
    H71      H        0.02850    0.22210    0.06440    1.000
    C125     C        0.97120    0.13510    0.05850    1.000
    H72      H        0.97860    0.12730    0.11250    1.000
    C126     C        0.02510    0.26400    0.91770    1.000
    Mn10     Mn       0.96316    0.66611    0.24731    1.000
    Mn11     Mn       0.85661    0.62150    0.05327    1.000
    Mn12     Mn       0.08457    0.64787    0.44379    1.000
    S10      S        0.05321    0.27386    0.27103    1.000
    S11      S        0.04774    0.07060    0.33559    1.000
    S12      S        0.60476    0.51533    0.45924    1.000
    O55      O        0.00250    0.74325    0.32820    1.000
    O56      O        0.48100    0.76777    0.65480    1.000
    O57      O        0.92860    0.58151    0.17490    1.000
    O58      O        0.41370    0.13340    0.25020    1.000
    O59      O        0.66339    0.19304    0.25982    1.000
    O60      O        0.95580    0.60767    0.35570    1.000
    O61      O        0.71150    0.18320    0.38749    1.000
    O62      O        0.44010    0.80482    0.53350    1.000
    O63      O        0.94580    0.54264    0.06050    1.000
    O64      O        0.34670    0.11116    0.13176    1.000
    O65      O        0.07930    0.74962    0.44290    1.000
    O66      O        0.98910    0.60190    0.48350    1.000
    O67      O        0.07640    0.23294    0.21060    1.000
    O68      O        0.10330    0.27665    0.34590    1.000
    O69      O        0.98100    0.08685    0.27490    1.000
    O70      O        0.05580    0.10183    0.41060    1.000
    O71      O        0.60960    0.46768    0.52070    1.000
    O72      O        0.55840    0.50097    0.38440    1.000
    C127     C        0.95670    0.53850    0.13380    1.000
    C128     C        0.99440    0.47730    0.17140    1.000
    C129     C        0.00200    0.46700    0.25100    1.000
    H73      H        0.99190    0.50140    0.28390    1.000
    C130     C        0.02460    0.40600    0.28260    1.000
    H74      H        0.03050    0.39930    0.33670    1.000
    C131     C        0.03850    0.35490    0.23340    1.000
    C132     C        0.03550    0.36530    0.15480    1.000
    H75      H        0.04730    0.33130    0.12210    1.000
    C133     C        0.01460    0.42700    0.12430    1.000
    H76      H        0.01410    0.43470    0.07090    1.000
    C134     C        0.95530    0.25060    0.28430    1.000
    C135     C        0.93870    0.24220    0.35910    1.000
    H77      H        0.97900    0.24850    0.40250    1.000
    C136     C        0.86180    0.22440    0.36920    1.000
    H78      H        0.85030    0.21810    0.41990    1.000
    C137     C        0.80120    0.21590    0.30540    1.000
    C138     C        0.81890    0.22500    0.23060    1.000
    H79      H        0.77850    0.22010    0.18710    1.000
    C139     C        0.89600    0.24140    0.22030    1.000
    H80      H        0.90820    0.24620    0.16970    1.000
    C140     C        0.71840    0.19590    0.31840    1.000
    C141     C        0.04200    0.77510    0.38160    1.000
    C142     C        0.04470    0.84910    0.37240    1.000
    C143     C        0.01320    0.87630    0.30090    1.000
    H81      H        0.99050    0.84910    0.25970    1.000
    C144     C        0.01480    0.94380    0.28960    1.000
    H82      H        0.99460    0.96180    0.24060    1.000
    C145     C        0.04630    0.98380    0.35050    1.000
    C146     C        0.07950    0.95770    0.42190    1.000
    H83      H        0.10230    0.98520    0.46280    1.000
    C147     C        0.07890    0.88970    0.43250    1.000
    H84      H        0.10170    0.87160    0.48070    1.000
    C148     C        0.13750    0.08340    0.29750    1.000
    C149     C        0.20560    0.10350    0.34610    1.000
    H85      H        0.20450    0.11060    0.39940    1.000
    C150     C        0.27550    0.11330    0.31590    1.000
    H86      H        0.32250    0.12640    0.34880    1.000
    C151     C        0.27680    0.10380    0.23730    1.000
    C152     C        0.20660    0.08500    0.18900    1.000
    H87      H        0.20680    0.07950    0.13530    1.000
    C153     C        0.13690    0.07420    0.21900    1.000
    H88      H        0.08990    0.06090    0.18640    1.000
    C154     C        0.35250    0.11700    0.20450    1.000
    C155     C        0.93930    0.59520    0.42190    1.000
    C156     C        0.85650    0.57150    0.42830    1.000
    C157     C        0.84280    0.54260    0.49720    1.000
    H89      H        0.88590    0.53560    0.53780    1.000
    C158     C        0.76610    0.52380    0.50640    1.000
    H90      H        0.75660    0.50450    0.55320    1.000
    C159     C        0.70380    0.53410    0.44570    1.000
    C160     C        0.71620    0.56200    0.37560    1.000
    H91      H        0.67310    0.56850    0.33500    1.000
    C161     C        0.79280    0.57980    0.36690    1.000
    H92      H        0.80250    0.59760    0.31950    1.000
    C162     C        0.56990    0.58970    0.49370    1.000
    C163     C        0.58150    0.60140    0.57320    1.000
    H93      H        0.60910    0.57090    0.60790    1.000
    C164     C        0.55230    0.65790    0.60100    1.000
    H94      H        0.56090    0.66590    0.65500    1.000
    C165     C        0.51000    0.70370    0.55050    1.000
    C166     C        0.49910    0.69160    0.47030    1.000
    H95      H        0.47150    0.72210    0.43560    1.000
    C167     C        0.52880    0.63510    0.44150    1.000
    H96      H        0.52140    0.62730    0.38750    1.000
    C168     C        0.47490    0.76400    0.58230    1.000
