# CIF file generated by openbabel 3.1.0, see https://openbabel.org
data_I
_chemical_name_common 'GUXPOF_clean'
_cell_length_a 9.5384
_cell_length_b 12.1759
_cell_length_c 19.313
_cell_angle_alpha 101.152
_cell_angle_beta 100.351
_cell_angle_gamma 105.304
_space_group_name_H-M_alt 'P 1'
_space_group_name_Hall 'P 1'
loop_
    _symmetry_equiv_pos_as_xyz
    x,y,z
loop_
    _atom_site_label
    _atom_site_type_symbol
    _atom_site_fract_x
    _atom_site_fract_y
    _atom_site_fract_z
    _atom_site_occupancy
    Co1      Co       0.99594    0.42270    0.64661    1.000
    Co2      Co       0.00406    0.57730    0.35339    1.000
    Co3      Co       0.00000    0.50000    0.50000    1.000
    Co4      Co       0.50000    0.00000    0.00000    1.000
    H1       H        0.15290    0.25750    0.24720    1.000
    H2       H        0.12950    0.31760    0.32190    1.000
    H3       H        0.28020    0.36640    0.30020    1.000
    H4       H        0.17330    0.04560    0.34420    1.000
    H5       H        0.06730    0.12370    0.35240    1.000
    H6       H        0.08550    0.07030    0.27510    1.000
    H7       H        0.33000    0.14130    0.24500    1.000
    H8       H        0.45730    0.25110    0.29710    1.000
    H9       H        0.42220    0.12990    0.31770    1.000
    H10      H        0.49480    0.41640    0.61450    1.000
    H11      H        0.55130    0.29800    0.41570    1.000
    H12      H        0.14000    0.28150    0.44150    1.000
    H13      H        0.70200    0.20710    0.20510    1.000
    H14      H        0.58940    0.91460    0.27610    1.000
    H15      H        0.83920    0.22030    0.41660    1.000
    H16      H        0.78440    0.86190    0.36480    1.000
    H17      H        0.82890    0.88160    0.44950    1.000
    H18      H        0.92030    0.96980    0.41240    1.000
    H19      H        0.49160    0.95690    0.41340    1.000
    H20      H        0.56440    0.87910    0.45470    1.000
    H21      H        0.53020    0.85090    0.36960    1.000
    H22      H        0.87420    0.13010    0.50010    1.000
    H23      H        0.77090    0.03920    0.53130    1.000
    H24      H        0.70970    0.13090    0.49910    1.000
    H25      H        0.15790    0.29800    0.74130    1.000
    H26      H        0.12340    0.20000    0.82980    1.000
    H27      H        0.69990    0.20650    0.79290    1.000
    H28      H        0.74440    0.30100    0.70470    1.000
    H29      H        0.13960    0.24540    0.99830    1.000
    H30      H        0.34870    0.19420    0.03950    1.000
    H31      H        0.17690    0.88380    0.90830    1.000
    H32      H        0.96220    0.92470    0.86490    1.000
    H33      H        0.84710    0.74250    0.75280    1.000
    H34      H        0.87050    0.68240    0.67810    1.000
    H35      H        0.71980    0.63360    0.69980    1.000
    H36      H        0.82670    0.95440    0.65580    1.000
    H37      H        0.93270    0.87630    0.64760    1.000
    H38      H        0.91450    0.92970    0.72490    1.000
    H39      H        0.67000    0.85870    0.75500    1.000
    H40      H        0.54270    0.74890    0.70290    1.000
    H41      H        0.57780    0.87010    0.68230    1.000
    H42      H        0.50520    0.58360    0.38550    1.000
    H43      H        0.44870    0.70200    0.58430    1.000
    H44      H        0.86000    0.71850    0.55850    1.000
    H45      H        0.29800    0.79290    0.79490    1.000
    H46      H        0.41060    0.08540    0.72390    1.000
    H47      H        0.16080    0.77970    0.58340    1.000
    H48      H        0.21560    0.13810    0.63520    1.000
    H49      H        0.17110    0.11840    0.55050    1.000
    H50      H        0.07970    0.03020    0.58760    1.000
    H51      H        0.50840    0.04310    0.58660    1.000
    H52      H        0.43560    0.12090    0.54530    1.000
    H53      H        0.46980    0.14910    0.63040    1.000
    H54      H        0.12580    0.86990    0.49990    1.000
    H55      H        0.22910    0.96080    0.46870    1.000
    H56      H        0.29030    0.86910    0.50090    1.000
    H57      H        0.84210    0.70200    0.25870    1.000
    H58      H        0.87660    0.80000    0.17020    1.000
    H59      H        0.30010    0.79350    0.20710    1.000
    H60      H        0.25560    0.69900    0.29530    1.000
    H61      H        0.86040    0.75460    0.00170    1.000
    H62      H        0.65130    0.80580    0.96050    1.000
    H63      H        0.82310    0.11620    0.09170    1.000
    H64      H        0.03780    0.07530    0.13510    1.000
    C1       C        0.20140    0.29660    0.29730    1.000
    C2       C        0.13610    0.10290    0.32560    1.000
    C3       C        0.37940    0.18100    0.29490    1.000
    C4       C        0.30170    0.35370    0.53460    1.000
    C5       C        0.45550    0.38370    0.56483    1.000
    C6       C        0.54850    0.36380    0.51956    1.000
    C7       C        0.48740    0.31030    0.44547    1.000
    C8       C        0.33370    0.27470    0.41479    1.000
    C9       C        0.24250    0.30050    0.46079    1.000
    C10      C        0.19910    0.37700    0.58223    1.000
    C11      C        0.71600    0.39940    0.54584    1.000
    C12      C        0.26790    0.21330    0.33390    1.000
    C13      C        0.78680    0.23210    0.31275    1.000
    C14      C        0.70570    0.16960    0.24271    1.000
    C15      C        0.63010    0.05030    0.22933    1.000
    C16      C        0.63680    0.99510    0.28592    1.000
    C17      C        0.71330    0.05790    0.35733    1.000
    C18      C        0.78760    0.17660    0.36954    1.000
    C19      C        0.87650    0.35800    0.32851    1.000
    C20      C        0.54120    0.98180    0.15331    1.000
    C21      C        0.71740    0.99430    0.41871    1.000
    C22      C        0.82250    0.92000    0.41060    1.000
    C23      C        0.56140    0.91270    0.41360    1.000
    C24      C        0.77330    0.08190    0.49444    1.000
    C25      C        0.06460    0.27970    0.75200    1.000
    C26      C        0.04510    0.22110    0.80560    1.000
    C27      C        0.90770    0.19420    0.82298    1.000
    C28      C        0.79450    0.22480    0.78350    1.000
    C29      C        0.82230    0.28180    0.73084    1.000
    C30      C        0.02860    0.09100    0.92451    1.000
    C31      C        0.14510    0.17120    0.97850    1.000
    C32      C        0.27060    0.13940    0.00290    1.000
    C33      C        0.17010    0.95820    0.92660    1.000
    C34      C        0.04070    0.98230    0.89970    1.000
    C35      C        0.79860    0.70340    0.70270    1.000
    C36      C        0.86390    0.89710    0.67440    1.000
    C37      C        0.62060    0.81900    0.70510    1.000
    C38      C        0.69830    0.64630    0.46540    1.000
    C39      C        0.54450    0.61630    0.43517    1.000
    C40      C        0.45150    0.63620    0.48044    1.000
    C41      C        0.51260    0.68970    0.55453    1.000
    C42      C        0.66630    0.72530    0.58521    1.000
    C43      C        0.75750    0.69950    0.53921    1.000
    C44      C        0.80090    0.62300    0.41777    1.000
    C45      C        0.28400    0.60060    0.45416    1.000
    C46      C        0.73210    0.78670    0.66610    1.000
    C47      C        0.21320    0.76790    0.68725    1.000
    C48      C        0.29430    0.83040    0.75729    1.000
    C49      C        0.36990    0.94970    0.77067    1.000
    C50      C        0.36320    0.00490    0.71408    1.000
    C51      C        0.28670    0.94210    0.64267    1.000
    C52      C        0.21240    0.82340    0.63046    1.000
    C53      C        0.12350    0.64200    0.67149    1.000
    C54      C        0.45880    0.01820    0.84669    1.000
    C55      C        0.28260    0.00570    0.58129    1.000
    C56      C        0.17750    0.08000    0.58940    1.000
    C57      C        0.43860    0.08730    0.58640    1.000
    C58      C        0.22670    0.91810    0.50556    1.000
    C59      C        0.93540    0.72030    0.24800    1.000
    C60      C        0.95490    0.77890    0.19440    1.000
    C61      C        0.09230    0.80580    0.17702    1.000
    C62      C        0.20550    0.77520    0.21650    1.000
    C63      C        0.17770    0.71820    0.26916    1.000
    C64      C        0.97140    0.90900    0.07549    1.000
    C65      C        0.85490    0.82880    0.02150    1.000
    C66      C        0.72940    0.86060    0.99710    1.000
    C67      C        0.82990    0.04180    0.07340    1.000
    C68      C        0.95930    0.01770    0.10030    1.000
    S1       S        0.86145    0.12301    0.89080    1.000
    S2       S        0.13855    0.87699    0.10920    1.000
    N1       N        0.95700    0.31170    0.71460    1.000
    N2       N        0.28570    0.03570    0.97724    1.000
    N3       N        0.04300    0.68830    0.28540    1.000
    N4       N        0.71430    0.96430    0.02276    1.000
    O1       O        0.06225    0.36882    0.55162    1.000
    O2       O        0.23980    0.40200    0.64926    1.000
    O3       O        0.77410    0.40196    0.61071    1.000
    O4       O        0.78750    0.42160    0.49890    1.000
    O5       O        0.87770    0.41396    0.27966    1.000
    O6       O        0.95740    0.40996    0.39196    1.000
    O7       O        0.52280    0.04354    0.10865    1.000
    O8       O        0.49240    0.87300    0.13928    1.000
    O9       O        0.93775    0.63118    0.44838    1.000
    O10      O        0.76020    0.59800    0.35074    1.000
    O11      O        0.22590    0.59804    0.38929    1.000
    O12      O        0.21250    0.57840    0.50110    1.000
    O13      O        0.12230    0.58604    0.72034    1.000
    O14      O        0.04260    0.59004    0.60804    1.000
    O15      O        0.47720    0.95646    0.89135    1.000
    O16      O        0.50760    0.12700    0.86072    1.000
