data_functionalizedCrystal
_audit_creation_method	'EQeq! by Chris Wilmer'
_symmetry_space_group_name_H-M	'P1'
_symmetry_Int_Tables_number	1
_symmetry_cell_setting	triclinic
loop_
_symmetry_equiv_pos_as_xyz
  x,y,z
_cell_length_a	8.8492
_cell_length_b	17.245
_cell_length_c	17.791
_cell_angle_alpha	115.275
_cell_angle_beta	95.662
_cell_angle_gamma	103.865
loop_
_atom_site_label
_atom_site_type_symbol
_atom_site_fract_x
_atom_site_fract_y
_atom_site_fract_z
_atom_site_charge
Mof_Gd	Gd	0.18578	0.21965	0.37528	1.695
Mof_Gd	Gd	0.81422	0.78035	0.62472	1.715
Mof_Cu	Cu	-0	0.5	0.5	0.885
Mof_Cu	Cu	0.5	0	0.5	0.894
Mof_Cu	Cu	0.5	0	-0	0.865
Mof_H 	H 	0.9809	0.3653	0.6159	0.157
Mof_H 	H 	0.1454	0.4412	0.6475	0.141
Mof_H 	H 	0.94	0.589	0.6816	0.077
Mof_H 	H 	0.9879	0.5344	0.7259	0.093
Mof_H 	H 	0.1972	0.6605	0.768	0.05
Mof_H 	H 	0.2487	0.5774	0.7116	0.054
Mof_H 	H 	0.3412	0.7	0.6813	0.079
Mof_H 	H 	0.1636	0.6924	0.6504	0.058
Mof_H 	H 	0.3201	0.5086	0.5975	0.12
Mof_H 	H 	0.3533	0.5038	0.5111	0.124
Mof_H 	H 	0.7665	0.3976	0.6135	0.067
Mof_H 	H 	0.7361	0.4729	0.5921	0.061
Mof_H 	H 	0.6207	0.3289	0.4717	0.09
Mof_H 	H 	0.7901	0.3152	0.4717	0.066
Mof_H 	H 	0.657	0.0879	0.3827	0.101
Mof_H 	H 	0.758	0.1578	0.4745	0.117
Mof_H 	H 	0.9523	0.0847	0.5185	0.104
Mof_H 	H 	0.8564	0.9987	0.524	0.111
Mof_H 	H 	0.9	0.1309	0.6506	0.051
Mof_H 	H 	0.7976	0.1644	0.6005	0.051
Mof_H 	H 	0.6134	0.971	0.6669	0.156
Mof_H 	H 	0.7805	0.9839	0.644	0.169
Mof_H 	H 	0.3804	0.8274	0.3285	0.058
Mof_H 	H 	0.307	0.8579	0.266	0.055
Mof_H 	H 	0.5622	0.9645	0.2936	0.067
Mof_H 	H 	0.5682	0.8655	0.2512	0.058
Mof_H 	H 	0.8058	0.9443	0.3546	0.079
Mof_H 	H 	0.6974	0.8961	0.3968	0.064
Mof_H 	H 	0.2244	0.0445	0.097	0.11
Mof_H 	H 	0.3057	0.9955	0.1368	0.147
Mof_H 	H 	0.5833	0.1189	0.2409	0.067
Mof_H 	H 	0.6986	0.1393	0.1852	0.054
Mof_H 	H 	0.4686	0.2201	0.18	0.069
Mof_H 	H 	0.5802	0.201	0.1159	0.047
Mof_H 	H 	0.3599	0.2387	0.0712	0.082
Mof_H 	H 	0.2457	0.1491	0.0624	0.085
Mof_H 	H 	0.4678	0.1561	0.9603	0.043
Mof_H 	H 	0.2838	0.1342	0.9294	0.038
Mof_H 	H 	0.2904	0.9911	0.8054	0.031
Mof_H 	H 	0.4741	0.0364	0.8473	-0.01
Mof_H 	H 	0.1092	0.9588	0.8678	0.111
Mof_H 	H 	0.1279	0.0171	0.9659	0.077
Mof_H 	H 	0.0191	0.6347	0.3841	0.108
Mof_H 	H 	0.8546	0.5588	0.3525	0.111
Mof_H 	H 	0.06	0.411	0.3184	0.006
Mof_H 	H 	0.0121	0.4656	0.2741	0.015
Mof_H 	H 	0.8028	0.3395	0.232	0.082
Mof_H 	H 	0.7513	0.4226	0.2884	0.083
Mof_H 	H 	0.6588	0.3	0.3187	0.066
Mof_H 	H 	0.8364	0.3076	0.3496	0.051
Mof_H 	H 	0.6799	0.4914	0.4025	0.118
Mof_H 	H 	0.6467	0.4962	0.4889	0.124
Mof_H 	H 	0.2335	0.6024	0.3865	0.06
Mof_H 	H 	0.2639	0.5271	0.4079	0.056
Mof_H 	H 	0.3793	0.6711	0.5283	0.092
Mof_H 	H 	0.2099	0.6848	0.5283	0.064
Mof_H 	H 	0.343	0.9121	0.6173	0.11
Mof_H 	H 	0.242	0.8422	0.5255	0.107
Mof_H 	H 	0.0477	0.9153	0.4815	0.045
Mof_H 	H 	0.1436	0.0013	0.476	0.007
Mof_H 	H 	0.1	0.8691	0.3494	0.079
Mof_H 	H 	0.2024	0.8356	0.3995	0.071
Mof_H 	H 	0.3866	0.029	0.3331	0.15
Mof_H 	H 	0.2195	0.0161	0.356	0.166
Mof_H 	H 	0.6196	0.1726	0.6715	0.067
Mof_H 	H 	0.693	0.1421	0.734	0.063
Mof_H 	H 	0.4378	0.0355	0.7064	0.036
Mof_H 	H 	0.4318	0.1345	0.7488	0.052
Mof_H 	H 	0.1942	0.0557	0.6454	0.071
Mof_H 	H 	0.3026	0.1039	0.6032	0.075
Mof_H 	H 	0.7756	0.9555	0.903	0.112
Mof_H 	H 	0.6943	0.0045	0.8632	0.08
Mof_H 	H 	0.4167	0.8811	0.7591	0.101
Mof_H 	H 	0.3014	0.8607	0.8148	0.08
Mof_H 	H 	0.5314	0.7799	0.82	0.086
Mof_H 	H 	0.4198	0.799	0.8841	0.073
Mof_H 	H 	0.6401	0.7613	0.9288	0.057
Mof_H 	H 	0.7543	0.8509	0.9376	0.065
Mof_H 	H 	0.5322	0.8439	0.0397	0.062
Mof_H 	H 	0.7162	0.8658	0.0706	0.079
Mof_H 	H 	0.7096	0.0089	0.1946	0.082
Mof_H 	H 	0.5259	0.9636	0.1527	0.092
Mof_H 	H 	0.8908	0.0412	0.1322	0.171
Mof_H 	H 	0.8721	0.9829	0.0341	0.171
Mof_C 	C 	0.0974	0.3545	0.5213	0.382
Mof_C 	C 	0.0499	0.4074	0.6017	-0.37
Mof_C 	C 	0.0092	0.5535	0.683	-0.16
Mof_C 	C 	0.1799	0.6131	0.7101	-0.079
Mof_C 	C 	0.2339	0.6581	0.654	-0.103
Mof_C 	C 	0.3535	0.5448	0.5691	-0.292
Mof_C 	C 	0.5266	0.6074	0.6153	0.414
Mof_C 	C 	0.7908	0.4278	0.5789	-0.099
Mof_C 	C 	0.7344	0.3598	0.4851	-0.102
Mof_C 	C 	0.8976	0.123	0.3878	0.379
Mof_C 	C 	0.7519	0.1025	0.4247	-0.263
Mof_C 	C 	0.8495	0.0537	0.5231	-0.176
Mof_C 	C 	0.8128	0.1113	0.6025	-0.072
Mof_C 	C 	0.6684	0.9737	0.6231	-0.403
Mof_C 	C 	0.6047	0.8844	0.546	0.521
Mof_C 	C 	0.3861	0.8787	0.318	-0.081
Mof_C 	C 	0.5577	0.9128	0.3033	-0.115
Mof_C 	C 	0.7102	0.9412	0.377	-0.077
Mof_C 	C 	0.2758	0.1094	0.2269	0.371
Mof_C 	C 	0.3103	0.0543	0.1415	-0.329
Mof_C 	C 	0.6022	0.097	0.1838	-0.068
Mof_C 	C 	0.4751	0.1779	0.1239	-0.059
Mof_C 	C 	0.3511	0.1768	0.0576	-0.189
Mof_C 	C 	0.3636	0.1272	0.9654	-0.013
Mof_C 	C 	0.3772	0.9944	0.8457	0.042
Mof_C 	C 	0.1721	0.9768	0.9238	-0.207
Mof_C 	C 	0.1553	0.8947	0.9357	0.33
Mof_C 	C 	0.9026	0.6455	0.4787	0.357
Mof_C 	C 	0.9501	0.5926	0.3983	-0.27
Mof_C 	C 	0.9908	0.4465	0.317	0.024
Mof_C 	C 	0.8201	0.3869	0.2899	-0.178
Mof_C 	C 	0.7661	0.3419	0.346	-0.057
Mof_C 	C 	0.6465	0.4552	0.4309	-0.29
Mof_C 	C 	0.4734	0.3926	0.3847	0.414
Mof_C 	C 	0.2092	0.5722	0.4211	-0.088
Mof_C 	C 	0.2656	0.6402	0.5149	-0.11
Mof_C 	C 	0.1024	0.877	0.6122	0.352
Mof_C 	C 	0.2481	0.8975	0.5753	-0.244
Mof_C 	C 	0.1505	0.9463	0.4769	0.008
Mof_C 	C 	0.1872	0.8887	0.3975	-0.153
Mof_C 	C 	0.3316	0.0263	0.3769	-0.458
Mof_C 	C 	0.3953	0.1156	0.454	0.535
Mof_C 	C 	0.6139	0.1213	0.682	-0.103
Mof_C 	C 	0.4423	0.0872	0.6967	-0.088
Mof_C 	C 	0.2898	0.0588	0.623	-0.137
Mof_C 	C 	0.7242	0.8906	0.7731	0.343
Mof_C 	C 	0.6897	0.9457	0.8585	-0.206
Mof_C 	C 	0.3978	0.903	0.8162	-0.162
Mof_C 	C 	0.5249	0.8221	0.8761	-0.117
Mof_C 	C 	0.6489	0.8232	0.9424	-0.046
Mof_C 	C 	0.6364	0.8728	0.0346	-0.152
Mof_C 	C 	0.6228	0.0056	0.1543	-0.196
Mof_C 	C 	0.8279	0.0232	0.0762	-0.431
Mof_C 	C 	0.8447	0.1053	0.0643	0.386
Mof_N 	N 	0.9659	0.4718	0.5985	-0.113
Mof_N 	N 	0.2324	0.5916	0.5658	-0.124
Mof_N 	N 	0.6545	0.0544	0.6125	-0.141
Mof_N 	N 	0.7274	0.0309	0.4499	-0.108
Mof_N 	N 	0.3419	0.028	0.9314	-0.184
Mof_N 	N 	0.4626	0.0904	0.1232	-0.125
Mof_N 	N 	0.0341	0.5282	0.4015	-0.164
Mof_N 	N 	0.7676	0.4084	0.4342	-0.128
Mof_N 	N 	0.3455	0.9456	0.3875	-0.103
Mof_N 	N 	0.2726	0.9691	0.5501	-0.098
Mof_N 	N 	0.6581	0.972	0.0686	-0.088
Mof_N 	N 	0.5374	0.9096	0.8768	-0.102
Mof_O 	O 	0.0857	0.3701	0.4598	-0.443
Mof_O 	O 	0.1519	0.2908	0.5207	-0.401
Mof_O 	O 	0.6005	0.6489	0.5788	-0.449
Mof_O 	O 	0.5864	0.6097	0.6824	-0.311
Mof_O 	O 	0.8967	0.1711	0.3525	-0.433
Mof_O 	O 	0.0149	0.096	0.3979	-0.409
Mof_O 	O 	0.633	0.8166	0.5531	-0.457
Mof_O 	O 	0.5284	0.8765	0.4861	-0.453
Mof_O 	O 	0.1434	0.0802	0.2396	-0.438
Mof_O 	O 	0.378	0.1826	0.2839	-0.397
Mof_O 	O 	0.274	0.8895	0.9758	-0.328
Mof_O 	O 	0.0185	0.8352	0.9041	-0.271
Mof_O 	O 	0.9143	0.6299	0.5402	-0.427
Mof_O 	O 	0.8481	0.7092	0.4793	-0.389
Mof_O 	O 	0.3995	0.3511	0.4212	-0.447
Mof_O 	O 	0.4136	0.3903	0.3176	-0.314
Mof_O 	O 	0.1033	0.8289	0.6475	-0.436
Mof_O 	O 	0.9851	0.904	0.6021	-0.37
Mof_O 	O 	0.367	0.1834	0.4469	-0.458
Mof_O 	O 	0.4716	0.1235	0.5139	-0.467
Mof_O 	O 	0.8566	0.9198	0.7604	-0.4
Mof_O 	O 	0.622	0.8174	0.7161	-0.392
Mof_O 	O 	0.726	0.1105	0.0242	-0.386
Mof_O 	O 	0.9815	0.1648	0.0959	-0.29
_end
