data_functionalizedCrystal
_audit_creation_method	'EQeq! by Chris Wilmer'
_symmetry_space_group_name_H-M	'P1'
_symmetry_Int_Tables_number	1
_symmetry_cell_setting	triclinic
loop_
_symmetry_equiv_pos_as_xyz
  x,y,z
_cell_length_a	32.8939
_cell_length_b	32.8939
_cell_length_c	32.8939
_cell_angle_alpha	109.471
_cell_angle_beta	109.471
_cell_angle_gamma	109.471
loop_
_atom_site_label
_atom_site_type_symbol
_atom_site_fract_x
_atom_site_fract_y
_atom_site_fract_z
_atom_site_charge
Mof_Eu	Eu	0.1548	0.65516	0.98738	2.373
Mof_Eu	Eu	0.186	0.68962	0.87562	2.46
Mof_Eu	Eu	0.50036	0.66778	0.65516	2.372
Mof_Eu	Eu	0.49964	0.33222	0.34484	2.372
Mof_Eu	Eu	0.33222	0.34484	0.49964	2.372
Mof_Eu	Eu	0.814	0.68962	0.50362	2.46
Mof_Eu	Eu	0.68962	0.87562	0.186	2.46
Mof_Eu	Eu	0.49638	0.186	0.31038	2.46
Mof_Eu	Eu	0.1548	0.16742	0.49964	2.372
Mof_Eu	Eu	0.87562	0.186	0.68962	2.46
Mof_Eu	Eu	0.66778	0.65516	0.50036	2.372
Mof_Eu	Eu	0.186	0.31038	0.49638	2.46
Mof_Eu	Eu	0.16742	0.01262	0.66778	2.372
Mof_Eu	Eu	0.33222	0.83258	0.98738	2.372
Mof_Eu	Eu	0.83258	0.50036	0.8452	2.372
Mof_Eu	Eu	0.814	0.31038	0.12438	2.46
Mof_Eu	Eu	0.98738	0.1548	0.65516	2.373
Mof_Eu	Eu	0.01262	0.8452	0.34484	2.373
Mof_Eu	Eu	0.8452	0.34484	0.01262	2.373
Mof_Eu	Eu	0.50036	0.8452	0.83258	2.372
Mof_Eu	Eu	0.49964	0.1548	0.16742	2.372
Mof_Eu	Eu	0.65516	0.50036	0.66778	2.372
Mof_Eu	Eu	0.83258	0.98738	0.33222	2.372
Mof_Eu	Eu	0.34484	0.01262	0.8452	2.373
Mof_Eu	Eu	0.68962	0.50362	0.814	2.46
Mof_Eu	Eu	0.01262	0.66778	0.16742	2.372
Mof_Eu	Eu	0.34484	0.49964	0.33222	2.372
Mof_Eu	Eu	0.31038	0.12438	0.814	2.46
Mof_Eu	Eu	0.98738	0.33222	0.83258	2.372
Mof_Eu	Eu	0.65516	0.98738	0.1548	2.373
Mof_Eu	Eu	0.31038	0.49638	0.186	2.461
Mof_Eu	Eu	0.50362	0.814	0.68962	2.461
Mof_Eu	Eu	0.12438	0.814	0.31038	2.461
Mof_Eu	Eu	0.16742	0.49964	0.1548	2.373
Mof_Eu	Eu	0.66778	0.16742	0.01262	2.373
Mof_Eu	Eu	0.8452	0.83258	0.50036	2.373
Mof_H 	H 	0.5938	0.6282	0.9656	0.003
Mof_H 	H 	0.8923	0.4889	0.2966	0.098
Mof_H 	H 	0.5387	0.381	0.9197	0.001
Mof_H 	H 	0.2407	0.1042	0.4269	0.05
Mof_H 	H 	0.1042	0.4269	0.2407	0.05
Mof_H 	H 	0.3227	0.8958	0.1365	0.049
Mof_H 	H 	0.9993	0.5939	0.7028	0.094
Mof_H 	H 	0.2396	0.978	0.7384	-0.172
Mof_H 	H 	0.7243	0.11	0.1057	-0
Mof_H 	H 	0.381	0.8423	0.4613	0.001
Mof_H 	H 	0.2451	0.2061	0.8454	0.007
Mof_H 	H 	0.2451	0.3997	0.039	0.007
Mof_H 	H 	0.1028	0.2201	0.5985	-0.007
Mof_H 	H 	0.5111	0.7034	0.1077	0.098
Mof_H 	H 	0.6773	0.1042	0.8635	0.049
Mof_H 	H 	0.3908	0.4897	0.0989	-0.05
Mof_H 	H 	0.1577	0.5387	0.619	0.001
Mof_H 	H 	0.6186	0.6143	0.7243	-0
Mof_H 	H 	0.4061	0.4054	0.1089	0.094
Mof_H 	H 	0.4014	0.8592	0.6504	0.008
Mof_H 	H 	0.7243	0.6186	0.6143	-0
Mof_H 	H 	0.4889	0.2966	0.8923	0.098
Mof_H 	H 	0.3154	0.6677	0.0657	0.043
Mof_H 	H 	0.2972	0.8911	0.2965	0.094
Mof_H 	H 	0.039	0.6393	0.7939	0.007
Mof_H 	H 	0.4613	0.381	0.8423	0.001
Mof_H 	H 	0.6003	0.961	0.7549	0.007
Mof_H 	H 	0.3718	0.9656	0.3374	0.003
Mof_H 	H 	0.4269	0.3227	0.1862	0.05
Mof_H 	H 	0.1546	0.7549	0.7939	0.007
Mof_H 	H 	0.5985	0.1028	0.2201	-0.007
Mof_H 	H 	0.3814	0.3857	0.2757	-0
Mof_H 	H 	0.4269	0.2407	0.1042	0.05
Mof_H 	H 	0.8454	0.6393	0.6003	0.007
Mof_H 	H 	0.7912	0.249	0.6504	0.008
Mof_H 	H 	0.6216	0.2201	0.1173	-0.007
Mof_H 	H 	0.4897	0.0989	0.3908	-0.05
Mof_H 	H 	0.8077	0.4043	0.2966	0.098
Mof_H 	H 	0.3523	0.6846	0.7503	0.043
Mof_H 	H 	0.6626	0.6282	0.0344	0.003
Mof_H 	H 	0.8972	0.4957	0.1173	-0.007
Mof_H 	H 	0.3784	0.7799	0.8827	-0.007
Mof_H 	H 	0.6092	0.5103	0.9011	-0.05
Mof_H 	H 	0.3323	0.6477	0.398	0.043
Mof_H 	H 	0.8138	0.1365	0.2407	0.05
Mof_H 	H 	0.5986	0.1408	0.3496	0.008
Mof_H 	H 	0.039	0.2451	0.3997	0.007
Mof_H 	H 	0.7035	0.7028	0.1089	0.094
Mof_H 	H 	0.6143	0.7243	0.6186	-0
Mof_H 	H 	0.8454	0.2451	0.2061	0.007
Mof_H 	H 	0.5939	0.7028	0.9993	0.094
Mof_H 	H 	0.5422	0.4014	0.751	0.008
Mof_H 	H 	0.619	0.1577	0.5387	0.001
Mof_H 	H 	0.1173	0.8972	0.4957	-0.007
Mof_H 	H 	0.4034	0.8077	0.5111	0.098
Mof_H 	H 	0.9656	0.3374	0.3718	0.003
Mof_H 	H 	0.8943	0.2757	0.89	-0
Mof_H 	H 	0.2497	0.6477	0.3154	0.043
Mof_H 	H 	0.1042	0.8635	0.6773	0.049
Mof_H 	H 	0.7912	0.1408	0.5422	0.008
Mof_H 	H 	0.5946	0.0007	0.7035	0.094
Mof_H 	H 	0.6773	0.8138	0.5731	0.05
Mof_H 	H 	0.6846	0.7503	0.3523	0.043
Mof_H 	H 	0.4062	0.3718	0.0344	0.003
Mof_H 	H 	0.6282	0.9656	0.5938	0.003
Mof_H 	H 	0.9343	0.6846	0.3323	0.043
Mof_H 	H 	0.2497	0.9343	0.602	0.043
Mof_H 	H 	0.2757	0.3814	0.3857	-0
Mof_H 	H 	0.1923	0.5957	0.7034	0.098
Mof_H 	H 	0.4061	0.2972	0.0007	0.094
Mof_H 	H 	0.7503	0.3523	0.6846	0.043
Mof_H 	H 	0.4957	0.1173	0.8972	-0.007
Mof_H 	H 	0.5012	0.2616	0.2396	-0.172
Mof_H 	H 	0.5043	0.8827	0.1028	-0.007
Mof_H 	H 	0.4034	0.8923	0.5957	0.098
Mof_H 	H 	0.9957	0.89	0.6143	-0.001
Mof_H 	H 	0.1057	0.7243	0.11	-0
Mof_H 	H 	0.2407	0.8138	0.1365	0.05
Mof_H 	H 	0.2616	0.2396	0.5012	-0.172
Mof_H 	H 	0.249	0.6504	0.7912	0.008
Mof_H 	H 	0.5957	0.4034	0.8923	0.098
Mof_H 	H 	0.2088	0.751	0.3496	0.008
Mof_H 	H 	0.3607	0.2061	0.961	0.007
Mof_H 	H 	0.8592	0.4578	0.2088	0.008
Mof_H 	H 	0.4578	0.2088	0.8592	0.008
Mof_H 	H 	0.7034	0.1077	0.5111	0.098
Mof_H 	H 	0.9993	0.2965	0.4054	0.094
Mof_H 	H 	0.1057	0.9957	0.3814	0
Mof_H 	H 	0.11	0.3857	0.0043	-0.001
Mof_H 	H 	0.6092	0.7081	0.0989	-0.05
Mof_H 	H 	0.3374	0.3718	0.9656	0.003
Mof_H 	H 	0.2972	0.0007	0.4061	0.094
Mof_H 	H 	0.9197	0.5387	0.381	0.001
Mof_H 	H 	0.5731	0.6773	0.8138	0.05
Mof_H 	H 	0.7384	0.7604	0.4988	-0.172
Mof_H 	H 	0.6282	0.0344	0.6626	0.003
Mof_H 	H 	0.8911	0.5939	0.5946	0.094
Mof_H 	H 	0.5043	0.4015	0.6216	-0.007
Mof_H 	H 	0.5939	0.5946	0.8911	0.094
Mof_H 	H 	0.4015	0.8972	0.7799	-0.007
Mof_H 	H 	0.4043	0.2966	0.8077	0.098
Mof_H 	H 	0.6477	0.398	0.3323	0.043
Mof_H 	H 	0.8138	0.5731	0.6773	0.05
Mof_H 	H 	0.9656	0.5938	0.6282	0.003
Mof_H 	H 	0.4054	0.9993	0.2965	0.094
Mof_H 	H 	0.4957	0.5985	0.3784	-0.007
Mof_H 	H 	0.0007	0.7035	0.5946	0.094
Mof_H 	H 	0.6003	0.8454	0.6393	0.007
Mof_H 	H 	0.4889	0.5966	0.1923	0.098
Mof_H 	H 	0.7549	0.7939	0.1546	0.007
Mof_H 	H 	0.398	0.7503	0.0657	0.043
Mof_H 	H 	0.1077	0.4043	0.5966	0.098
Mof_H 	H 	0.7503	0.0657	0.398	0.043
Mof_H 	H 	0.602	0.6677	0.3523	0.043
Mof_H 	H 	0.1089	0.7035	0.7028	0.094
Mof_H 	H 	0.8635	0.6773	0.1042	0.049
Mof_H 	H 	0.8827	0.1028	0.5043	-0.007
Mof_H 	H 	0.5387	0.619	0.1577	0.001
Mof_H 	H 	0.4578	0.5986	0.249	0.008
Mof_H 	H 	0.961	0.7549	0.6003	0.007
Mof_H 	H 	0.3154	0.2497	0.6477	0.043
Mof_H 	H 	0.8077	0.5111	0.4034	0.098
Mof_H 	H 	0.6677	0.0657	0.3154	0.043
Mof_H 	H 	0.7035	0.5946	0.0007	0.094
Mof_H 	H 	0.4054	0.1089	0.4061	0.094
Mof_H 	H 	0.6504	0.4014	0.8592	0.008
Mof_H 	H 	0.7028	0.9993	0.5939	0.094
Mof_H 	H 	0.6477	0.3154	0.2497	0.043
Mof_H 	H 	0.7028	0.1089	0.7035	0.094
Mof_H 	H 	0.7593	0.1862	0.8635	0.05
Mof_H 	H 	0.602	0.2497	0.9343	0.043
Mof_H 	H 	0.961	0.3607	0.2061	0.007
Mof_H 	H 	0.7384	0.2396	0.978	-0.172
Mof_H 	H 	0.5111	0.4034	0.8077	0.098
Mof_H 	H 	0.2919	0.9011	0.3908	-0.05
Mof_H 	H 	0.6186	0.8943	0.0043	0
Mof_H 	H 	0.3496	0.2088	0.751	0.008
Mof_H 	H 	0.6846	0.3323	0.9343	0.043
Mof_H 	H 	0.1923	0.4889	0.5966	0.098
Mof_H 	H 	0.8958	0.5731	0.7593	0.05
Mof_H 	H 	0.6677	0.3523	0.602	0.043
Mof_H 	H 	0.5966	0.1077	0.4043	0.098
Mof_H 	H 	0.0657	0.398	0.7503	0.043
Mof_H 	H 	0.2965	0.2972	0.8911	0.094
Mof_H 	H 	0.5103	0.9011	0.6092	-0.05
Mof_H 	H 	0.9011	0.6092	0.5103	-0.05
Mof_H 	H 	0.3323	0.9343	0.6846	0.043
Mof_H 	H 	0.8592	0.6504	0.4014	0.008
Mof_H 	H 	0.3857	0.2757	0.3814	-0
Mof_H 	H 	0.7799	0.8827	0.3784	-0.007
Mof_H 	H 	0.89	0.6143	0.9957	-0.001
Mof_H 	H 	0.5946	0.8911	0.5939	0.094
Mof_H 	H 	0.5422	0.7912	0.1408	0.008
Mof_H 	H 	0.1546	0.3607	0.3997	0.007
Mof_H 	H 	0.6393	0.6003	0.8454	0.007
Mof_H 	H 	0.3607	0.3997	0.1546	0.007
Mof_H 	H 	0.6504	0.7912	0.249	0.008
Mof_H 	H 	0.1862	0.8635	0.7593	0.05
Mof_H 	H 	0.1365	0.3227	0.8958	0.049
Mof_H 	H 	0.1077	0.5111	0.7034	0.098
Mof_H 	H 	0.3784	0.4957	0.5985	-0.007
Mof_H 	H 	0.751	0.3496	0.2088	0.008
Mof_H 	H 	0.9957	0.3814	0.1057	0
Mof_H 	H 	0.89	0.8943	0.2757	-0
Mof_H 	H 	0.0989	0.3908	0.4897	-0.05
Mof_H 	H 	0.2201	0.5985	0.1028	-0.007
Mof_H 	H 	0.2061	0.961	0.3607	0.007
Mof_H 	H 	0.8911	0.2965	0.2972	0.094
Mof_H 	H 	0.022	0.2616	0.7604	-0.172
Mof_H 	H 	0.0989	0.6092	0.7081	-0.05
Mof_H 	H 	0.2396	0.5012	0.2616	-0.172
Mof_H 	H 	0.4043	0.5966	0.1077	0.098
Mof_H 	H 	0.7799	0.4015	0.8972	-0.007
Mof_H 	H 	0.7549	0.6003	0.961	0.007
Mof_H 	H 	0.249	0.4578	0.5986	0.008
Mof_H 	H 	0.3227	0.1862	0.4269	0.05
Mof_H 	H 	0.5966	0.1923	0.4889	0.098
Mof_H 	H 	0.7604	0.022	0.2616	-0.172
Mof_H 	H 	0.3718	0.0344	0.4062	0.003
Mof_H 	H 	0.619	0.0803	0.4613	0.001
Mof_H 	H 	0.5731	0.7593	0.8958	0.05
Mof_H 	H 	0.7034	0.1923	0.5957	0.098
Mof_H 	H 	0.5986	0.249	0.4578	0.008
Mof_H 	H 	0.2757	0.89	0.8943	-0
Mof_H 	H 	0.3997	0.1546	0.3607	0.007
Mof_H 	H 	0.7939	0.039	0.6393	0.007
Mof_H 	H 	0.0043	0.6186	0.8943	0
Mof_H 	H 	0.2061	0.8454	0.2451	0.007
Mof_H 	H 	0.7939	0.1546	0.7549	0.007
Mof_H 	H 	0.978	0.7384	0.2396	-0.172
Mof_H 	H 	0.8635	0.7593	0.1862	0.05
Mof_H 	H 	0.7593	0.8958	0.5731	0.05
Mof_H 	H 	0.4988	0.7384	0.7604	-0.172
Mof_H 	H 	0.1408	0.3496	0.5986	0.008
Mof_H 	H 	0.4014	0.751	0.5422	0.008
Mof_H 	H 	0.8423	0.4613	0.381	0.001
Mof_H 	H 	0.11	0.1057	0.7243	-0
Mof_H 	H 	0.0344	0.4062	0.3718	0.003
Mof_H 	H 	0.2616	0.7604	0.022	-0.172
Mof_H 	H 	0.3814	0.1057	0.9957	0
Mof_H 	H 	0.6393	0.7939	0.039	0.007
Mof_H 	H 	0.0657	0.3154	0.6677	0.043
Mof_H 	H 	0.1089	0.4061	0.4054	0.094
Mof_H 	H 	0.0344	0.6626	0.6282	0.003
Mof_H 	H 	0.4613	0.619	0.0803	0.001
Mof_H 	H 	0.8943	0.0043	0.6186	0
Mof_H 	H 	0.6216	0.5043	0.4015	-0.007
Mof_H 	H 	0.3523	0.602	0.6677	0.043
Mof_H 	H 	0.3857	0.0043	0.11	-0.001
Mof_H 	H 	0.9011	0.3908	0.2919	-0.05
Mof_H 	H 	0.1408	0.5422	0.7912	0.008
Mof_H 	H 	0.398	0.3323	0.6477	0.043
Mof_H 	H 	0.2966	0.8077	0.4043	0.098
Mof_H 	H 	0.8827	0.3784	0.7799	-0.007
Mof_H 	H 	0.0007	0.4061	0.2972	0.094
Mof_H 	H 	0.2201	0.1173	0.6216	-0.007
Mof_H 	H 	0.2965	0.4054	0.9993	0.094
Mof_H 	H 	0.8958	0.1365	0.3227	0.049
Mof_H 	H 	0.4015	0.6216	0.5043	-0.007
Mof_H 	H 	0.751	0.5422	0.4014	0.008
Mof_H 	H 	0.1365	0.2407	0.8138	0.05
Mof_H 	H 	0.3997	0.039	0.2451	0.007
Mof_H 	H 	0.7081	0.0989	0.6092	-0.05
Mof_H 	H 	0.381	0.9197	0.5387	0.001
Mof_H 	H 	0.5957	0.7034	0.1923	0.098
Mof_H 	H 	0.6143	0.9957	0.89	-0.001
Mof_H 	H 	0.2088	0.8592	0.4578	0.008
Mof_H 	H 	0.0803	0.4613	0.619	0.001
Mof_H 	H 	0.3908	0.2919	0.9011	-0.05
Mof_H 	H 	0.3496	0.5986	0.1408	0.008
Mof_H 	H 	0.8972	0.7799	0.4015	-0.007
Mof_H 	H 	0.1862	0.4269	0.3227	0.05
Mof_H 	H 	0.1028	0.5043	0.8827	-0.007
Mof_H 	H 	0.2966	0.8923	0.4889	0.098
Mof_H 	H 	0.7604	0.4988	0.7384	-0.172
Mof_H 	H 	0.1173	0.6216	0.2201	-0.007
Mof_H 	H 	0.5985	0.3784	0.4957	-0.007
Mof_H 	H 	0.8923	0.5957	0.4034	0.098
Mof_H 	H 	0.0043	0.11	0.3857	-0.001
Mof_H 	H 	0.9343	0.602	0.2497	0.043
Mof_C 	C 	0.1029	0.4951	0.8528	0.124
Mof_C 	C 	0.0958	0.4344	0.1626	0.336
Mof_C 	C 	0.0805	0.4451	0.8182	-0.144
Mof_C 	C 	0.3399	0.6354	0.1033	-0.08
Mof_C 	C 	0.5821	0.2269	0.1786	0.392
Mof_C 	C 	0.435	0.2367	0.3527	0.561
Mof_C 	C 	0.6112	0.3484	0.896	0.133
Mof_C 	C 	0.7634	0.2955	0.6601	-0.08
Mof_C 	C 	0.3577	0.7499	0.8528	0.124
Mof_C 	C 	0.2269	0.1786	0.5821	0.392
Mof_C 	C 	0.3527	0.116	0.9177	0.561
Mof_C 	C 	0.3399	0.2366	0.7045	-0.08
Mof_C 	C 	0.2801	0.6723	0.798	0.085
Mof_C 	C 	0.104	0.3888	0.6516	0.133
Mof_C 	C 	0.6125	0.825	0.6277	0.066
Mof_C 	C 	0.0944	0.4028	0.374	-0.169
Mof_C 	C 	0.0056	0.3848	0.1372	0.094
Mof_C 	C 	0.0823	0.1983	0.435	0.561
Mof_C 	C 	0.593	0.829	0.9442	-0.122
Mof_C 	C 	0.9177	0.3527	0.116	0.561
Mof_C 	C 	0.4522	0.3583	0.8105	0.092
Mof_C 	C 	0.7377	0.8182	0.3731	-0.144
Mof_C 	C 	0.175	0.3723	0.3875	0.066
Mof_C 	C 	0.3596	0.965	0.1962	-0.066
Mof_C 	C 	0.3646	0.9195	0.7377	-0.144
Mof_C 	C 	0.7735	0.3421	0.6928	0.044
Mof_C 	C 	0.782	0.9295	0.5881	0.024
Mof_C 	C 	0.0288	0.4028	0.3084	-0.169
Mof_C 	C 	0.8198	0.8497	0.2171	-0.211
Mof_C 	C 	0.4314	0.7735	0.0807	0.044
Mof_C 	C 	0.6152	0.6208	0.7524	0.094
Mof_C 	C 	0.1786	0.5821	0.2269	0.392
Mof_C 	C 	0.4028	0.374	0.0944	-0.169
Mof_C 	C 	0.0152	0.2125	0.3875	0.066
Mof_C 	C 	0.1973	0.825	0.2125	0.066
Mof_C 	C 	0.8374	0.9042	0.5656	0.336
Mof_C 	C 	0.5656	0.8374	0.9042	0.336
Mof_C 	C 	0.1573	0.8745	0.4684	-0.23
Mof_C 	C 	0.5881	0.6586	0.8061	0.024
Mof_C 	C 	0.8427	0.1255	0.5316	-0.23
Mof_C 	C 	0.3507	0.6579	0.4314	0.044
Mof_C 	C 	0.8061	0.1475	0.218	0.024
Mof_C 	C 	0.8374	0.2718	0.9332	0.336
Mof_C 	C 	0.104	0.4524	0.7152	0.133
Mof_C 	C 	0.8829	0.3745	0.2574	0.219
Mof_C 	C 	0.6601	0.7634	0.2955	-0.08
Mof_C 	C 	0.9848	0.7875	0.6125	0.066
Mof_C 	C 	0.7372	0.4524	0.3484	0.133
Mof_C 	C 	0.0939	0.4522	0.6417	0.092
Mof_C 	C 	0.1152	0.3512	0.9442	-0.122
Mof_C 	C 	0.4131	0.6238	0.1029	-0.175
Mof_C 	C 	0.2628	0.5476	0.6516	0.133
Mof_C 	C 	0.9332	0.8374	0.2718	0.336
Mof_C 	C 	0.5321	0.6354	0.2955	-0.08
Mof_C 	C 	0.884	0.0823	0.6473	0.561
Mof_C 	C 	0.4179	0.7731	0.8214	0.392
Mof_C 	C 	0.2724	0.5711	0.1563	0.601
Mof_C 	C 	0.965	0.6054	0.7688	-0.066
Mof_C 	C 	0.7282	0.0668	0.1626	0.336
Mof_C 	C 	0.2828	0.5939	0.1255	-0.23
Mof_C 	C 	0.1563	0.5852	0.8839	0.601
Mof_C 	C 	0.6078	0.1257	0.3277	0.085
Mof_C 	C 	0.2828	0.1573	0.6889	-0.23
Mof_C 	C 	0.6277	0.8027	0.0152	0.066
Mof_C 	C 	0.8038	0.7688	0.1634	-0.066
Mof_C 	C 	0.9494	0.5958	0.6464	0.083
Mof_C 	C 	0.7524	0.6152	0.6208	0.094
Mof_C 	C 	0.782	0.1939	0.8525	0.024
Mof_C 	C 	0.8105	0.4522	0.3583	0.092
Mof_C 	C 	0.626	0.0288	0.7204	-0.169
Mof_C 	C 	0.2801	0.4821	0.6078	0.085
Mof_C 	C 	0.3731	0.5549	0.6354	-0.144
Mof_C 	C 	0.0558	0.407	0.171	-0.122
Mof_C 	C 	0.5869	0.6898	0.2107	-0.175
Mof_C 	C 	0.6916	0.0944	0.7204	-0.169
Mof_C 	C 	0.3848	0.1372	0.0056	0.094
Mof_C 	C 	0.0483	0.2269	0.6448	0.392
Mof_C 	C 	0.1962	0.2312	0.8366	-0.066
Mof_C 	C 	0.3386	0.2718	0.4344	0.336
Mof_C 	C 	0.5711	0.2987	0.4148	0.601
Mof_C 	C 	0.5958	0.6464	0.9494	0.083
Mof_C 	C 	0.8214	0.0483	0.4035	0.392
Mof_C 	C 	0.798	0.1257	0.5179	0.085
Mof_C 	C 	0.4951	0.3922	0.6423	0.124
Mof_C 	C 	0.7013	0.5852	0.4289	0.601
Mof_C 	C 	0.7199	0.5179	0.3922	0.085
Mof_C 	C 	0.2125	0.1973	0.825	0.066
Mof_C 	C 	0.7875	0.8027	0.175	0.066
Mof_C 	C 	0.3973	0.0299	0.1802	-0.212
Mof_C 	C 	0.0056	0.8684	0.6208	0.095
Mof_C 	C 	0.0506	0.4042	0.3536	0.083
Mof_C 	C 	0.3646	0.7045	0.4679	-0.08
Mof_C 	C 	0.3414	0.9295	0.1475	0.024
Mof_C 	C 	0.884	0.2367	0.8017	0.561
Mof_C 	C 	0.7152	0.104	0.4524	0.133
Mof_C 	C 	0.6255	0.5084	0.8829	0.219
Mof_C 	C 	0.5939	0.3111	0.4684	-0.23
Mof_C 	C 	0.7172	0.8427	0.3111	-0.23
Mof_C 	C 	0.8497	0.2171	0.8198	-0.211
Mof_C 	C 	0.175	0.7875	0.8027	0.066
Mof_C 	C 	0.744	0.9874	0.2434	0.597
Mof_C 	C 	0.5179	0.798	0.1257	0.085
Mof_C 	C 	0.1563	0.2724	0.5711	0.601
Mof_C 	C 	0.1939	0.4119	0.3414	0.024
Mof_C 	C 	0.5972	0.6916	0.9712	-0.169
Mof_C 	C 	0.6078	0.1029	0.2501	0.124
Mof_C 	C 	0.0807	0.4314	0.7735	0.044
Mof_C 	C 	0.3723	0.3875	0.175	0.066
Mof_C 	C 	0.7499	0.3922	0.8971	0.124
Mof_C 	C 	0.1033	0.3399	0.6354	-0.08
Mof_C 	C 	0.9517	0.7731	0.3552	0.392
Mof_C 	C 	0.6354	0.1033	0.3399	-0.08
Mof_C 	C 	0.7045	0.3399	0.2366	-0.08
Mof_C 	C 	0.6417	0.1895	0.5478	0.092
Mof_C 	C 	0.3414	0.1939	0.4119	0.024
Mof_C 	C 	0.1316	0.3792	0.9944	0.095
Mof_C 	C 	0.0807	0.3072	0.6493	0.044
Mof_C 	C 	0.6277	0.6125	0.825	0.066
Mof_C 	C 	0.8182	0.0805	0.4451	-0.144
Mof_C 	C 	0.5049	0.1472	0.8971	0.124
Mof_C 	C 	0.798	0.2801	0.6723	0.085
Mof_C 	C 	0.256	0.4994	0.2434	0.597
Mof_C 	C 	0.6238	0.2107	0.5209	-0.175
Mof_C 	C 	0.6464	0.0506	0.697	0.083
Mof_C 	C 	0.6039	0.718	0.9463	0.12
Mof_C 	C 	0.7276	0.8839	0.2987	0.601
Mof_C 	C 	0.1962	0.3596	0.965	-0.066
Mof_C 	C 	0.8971	0.5869	0.3762	-0.175
Mof_C 	C 	0.116	0.7633	0.1983	0.561
Mof_C 	C 	0.1029	0.2501	0.6078	0.124
Mof_C 	C 	0.2476	0.3848	0.3792	0.094
Mof_C 	C 	0.4522	0.6417	0.0939	0.092
Mof_C 	C 	0.5965	0.6448	0.4179	0.392
Mof_C 	C 	0.9494	0.303	0.3536	0.083
Mof_C 	C 	0.8366	0.1962	0.2312	-0.066
Mof_C 	C 	0.407	0.171	0.0558	-0.122
Mof_C 	C 	0.035	0.8038	0.6404	-0.066
Mof_C 	C 	0.5478	0.3583	0.9061	0.092
Mof_C 	C 	0.3536	0.0506	0.4042	0.083
Mof_C 	C 	0.3646	0.8967	0.6601	-0.08
Mof_C 	C 	0.8017	0.565	0.9177	0.561
Mof_C 	C 	0.5869	0.3762	0.8971	-0.175
Mof_C 	C 	0.374	0.0944	0.4028	-0.169
Mof_C 	C 	0.5321	0.2366	0.8967	-0.08
Mof_C 	C 	0.4994	0.2434	0.256	0.597
Mof_C 	C 	0.6208	0.0056	0.8684	0.095
Mof_C 	C 	0.9701	0.3674	0.1503	-0.211
Mof_C 	C 	0.5179	0.3922	0.7199	0.085
Mof_C 	C 	0.4524	0.7152	0.104	0.133
Mof_C 	C 	0.9295	0.5881	0.782	0.024
Mof_C 	C 	0.8971	0.7499	0.3922	0.124
Mof_C 	C 	0.4916	0.1171	0.3745	0.219
Mof_C 	C 	0.7045	0.4679	0.3646	-0.08
Mof_C 	C 	0.3084	0.0288	0.4028	-0.169
Mof_C 	C 	0.2848	0.7372	0.3888	0.133
Mof_C 	C 	0.6928	0.3507	0.9193	0.044
Mof_C 	C 	0.5965	0.1786	0.9517	0.392
Mof_C 	C 	0.5209	0.6238	0.2107	-0.175
Mof_C 	C 	0.1983	0.435	0.0823	0.561
Mof_C 	C 	0.6027	0.9701	0.8198	-0.212
Mof_C 	C 	0.6208	0.7524	0.6152	0.094
Mof_C 	C 	0.3552	0.5821	0.4035	0.392
Mof_C 	C 	0.9442	0.1152	0.3512	-0.122
Mof_C 	C 	0.4061	0.8745	0.7172	-0.23
Mof_C 	C 	0.8684	0.8628	0.2476	0.094
Mof_C 	C 	0.7688	0.1634	0.8038	-0.066
Mof_C 	C 	0.2434	0.744	0.9874	0.597
Mof_C 	C 	0.2848	0.896	0.5476	0.133
Mof_C 	C 	0.8437	0.4148	0.1161	0.601
Mof_C 	C 	0.1802	0.1503	0.7829	-0.211
Mof_C 	C 	0.6579	0.4314	0.3507	0.044
Mof_C 	C 	0.4821	0.6078	0.2801	0.085
Mof_C 	C 	0.7634	0.1033	0.4679	-0.08
Mof_C 	C 	0.3277	0.202	0.7199	0.085
Mof_C 	C 	0.3888	0.6516	0.104	0.133
Mof_C 	C 	0.7566	0.256	0.0126	0.597
Mof_C 	C 	0.8525	0.6586	0.0705	0.024
Mof_C 	C 	0.1316	0.1372	0.7524	0.094
Mof_C 	C 	0.2171	0.3674	0.3973	-0.212
Mof_C 	C 	0.3745	0.2574	0.8829	0.219
Mof_C 	C 	0.6493	0.3421	0.5686	0.044
Mof_C 	C 	0.5711	0.1563	0.2724	0.601
Mof_C 	C 	0.2574	0.8829	0.3745	0.219
Mof_C 	C 	0.1472	0.8971	0.5049	0.124
Mof_C 	C 	0.2796	0.3084	0.9056	-0.169
Mof_C 	C 	0.1152	0.171	0.764	-0.122
Mof_C 	C 	0.3536	0.9494	0.303	0.083
Mof_C 	C 	0.1503	0.7829	0.1802	-0.211
Mof_C 	C 	0.6928	0.7735	0.3421	0.044
Mof_C 	C 	0.374	0.9712	0.2796	-0.169
Mof_C 	C 	0.3072	0.6493	0.0807	0.044
Mof_C 	C 	0.3723	0.1973	0.9848	0.066
Mof_C 	C 	0.2987	0.4148	0.5711	0.601
Mof_C 	C 	0.2366	0.8967	0.5321	-0.08
Mof_C 	C 	0.7426	0.1171	0.6255	0.219
Mof_C 	C 	0.282	0.8859	0.2283	0.12
Mof_C 	C 	0.3875	0.175	0.3723	0.066
Mof_C 	C 	0.407	0.3512	0.236	-0.122
Mof_C 	C 	0.697	0.6464	0.0506	0.083
Mof_C 	C 	0.764	0.593	0.6488	-0.122
Mof_C 	C 	0.1472	0.6423	0.2501	0.124
Mof_C 	C 	0.3961	0.282	0.0537	0.12
Mof_C 	C 	0.8684	0.6208	0.0056	0.095
Mof_C 	C 	0.7566	0.744	0.5006	0.597
Mof_C 	C 	0.1573	0.6889	0.2828	-0.23
Mof_C 	C 	0.7829	0.1802	0.1503	-0.211
Mof_C 	C 	0.0152	0.6277	0.8027	0.066
Mof_C 	C 	0.2955	0.6601	0.7634	-0.08
Mof_C 	C 	0.3111	0.7172	0.8427	-0.23
Mof_C 	C 	0.3277	0.6078	0.1257	0.085
Mof_C 	C 	0.9463	0.2283	0.3424	0.12
Mof_C 	C 	0.9193	0.5686	0.2265	0.044
Mof_C 	C 	0.6404	0.035	0.8038	-0.066
Mof_C 	C 	0.5316	0.8427	0.1255	-0.23
Mof_C 	C 	0.7688	0.965	0.6054	-0.066
Mof_C 	C 	0.8743	0.4821	0.202	0.085
Mof_C 	C 	0.4524	0.3484	0.7372	0.133
Mof_C 	C 	0.2283	0.282	0.8859	0.12
Mof_C 	C 	0.6326	0.8497	0.0299	-0.211
Mof_C 	C 	0.8839	0.2987	0.7276	0.601
Mof_C 	C 	0.2718	0.4344	0.3386	0.336
Mof_C 	C 	0.1818	0.6269	0.2623	-0.144
Mof_C 	C 	0.3973	0.2171	0.3674	-0.212
Mof_C 	C 	0.8182	0.3731	0.7377	-0.144
Mof_C 	C 	0.3552	0.9517	0.7731	0.392
Mof_C 	C 	0.0805	0.2623	0.6354	-0.144
Mof_C 	C 	0.2125	0.3875	0.0152	0.066
Mof_C 	C 	0.3596	0.1634	0.3946	-0.066
Mof_C 	C 	0.7893	0.4131	0.3102	-0.175
Mof_C 	C 	0.825	0.2125	0.1973	0.066
Mof_C 	C 	0.718	0.1141	0.7717	0.12
Mof_C 	C 	0.3731	0.7377	0.8182	-0.144
Mof_C 	C 	0.0299	0.1802	0.3973	-0.212
Mof_C 	C 	0.1626	0.0958	0.4344	0.336
Mof_C 	C 	0.8525	0.782	0.1939	0.024
Mof_C 	C 	0.9874	0.2434	0.744	0.597
Mof_C 	C 	0.3888	0.2848	0.7372	0.133
Mof_C 	C 	0.4451	0.3646	0.6269	-0.144
Mof_C 	C 	0.3848	0.3792	0.2476	0.094
Mof_C 	C 	0.2366	0.7045	0.3399	-0.08
Mof_C 	C 	0.6916	0.9712	0.5972	-0.169
Mof_C 	C 	0.7717	0.6576	0.0537	0.12
Mof_C 	C 	0.1786	0.9517	0.5965	0.392
Mof_C 	C 	0.8027	0.175	0.7875	0.066
Mof_C 	C 	0.2623	0.6354	0.0805	-0.144
Mof_C 	C 	0.9042	0.0668	0.3386	0.336
Mof_C 	C 	0.2171	0.8198	0.8497	-0.211
Mof_C 	C 	0.2367	0.8017	0.884	0.561
Mof_C 	C 	0.6152	0.8628	0.9944	0.094
Mof_C 	C 	0.171	0.0558	0.407	-0.122
Mof_C 	C 	0.1818	0.9195	0.5549	-0.144
Mof_C 	C 	0.9848	0.3723	0.1973	0.066
Mof_C 	C 	0.565	0.7633	0.6473	0.561
Mof_C 	C 	0.8027	0.0152	0.6277	0.066
Mof_C 	C 	0.5549	0.6354	0.3731	-0.144
Mof_C 	C 	0.116	0.9177	0.3527	0.561
Mof_C 	C 	0.6579	0.3072	0.2265	0.044
Mof_C 	C 	0.2718	0.9332	0.8374	0.336
Mof_C 	C 	0.6889	0.5316	0.4061	-0.23
Mof_C 	C 	0.6614	0.0958	0.9332	0.336
Mof_C 	C 	0.6078	0.2801	0.4821	0.085
Mof_C 	C 	0.3512	0.9442	0.1152	-0.122
Mof_C 	C 	0.7199	0.3277	0.202	0.085
Mof_C 	C 	0.1255	0.5316	0.8427	-0.23
Mof_C 	C 	0.7172	0.4061	0.8745	-0.23
Mof_C 	C 	0.3507	0.9193	0.6928	0.044
Mof_C 	C 	0.6269	0.4451	0.3646	-0.144
Mof_C 	C 	0.5549	0.1818	0.9195	-0.144
Mof_C 	C 	0.3875	0.0152	0.2125	0.066
Mof_C 	C 	0.8839	0.1563	0.5852	0.601
Mof_C 	C 	0.6576	0.8859	0.6039	0.12
Mof_C 	C 	0.035	0.3946	0.2312	-0.066
Mof_C 	C 	0.5852	0.8839	0.1563	0.601
Mof_C 	C 	0.2434	0.256	0.4994	0.597
Mof_C 	C 	0.5006	0.7566	0.744	0.597
Mof_C 	C 	0.9042	0.5656	0.8374	0.336
Mof_C 	C 	0.1634	0.8038	0.7688	-0.066
Mof_C 	C 	0.6516	0.2628	0.5476	0.133
Mof_C 	C 	0.256	0.0126	0.7566	0.597
Mof_C 	C 	0.4042	0.3536	0.0506	0.083
Mof_C 	C 	0.7499	0.8528	0.3577	0.124
Mof_C 	C 	0.7013	0.2724	0.1161	0.601
Mof_C 	C 	0.4179	0.5965	0.6448	0.392
Mof_C 	C 	0.0506	0.697	0.6464	0.083
Mof_C 	C 	0.3421	0.6928	0.7735	0.044
Mof_C 	C 	0.6417	0.0939	0.4522	0.092
Mof_C 	C 	0.7282	0.5656	0.6614	0.336
Mof_C 	C 	0.8437	0.7276	0.4289	0.601
Mof_C 	C 	0.9195	0.7377	0.3646	-0.144
Mof_C 	C 	0.9944	0.6152	0.8628	0.094
Mof_C 	C 	0.1802	0.3973	0.0299	-0.212
Mof_C 	C 	0.236	0.8848	0.829	-0.122
Mof_C 	C 	0.5686	0.2265	0.9193	0.044
Mof_C 	C 	0.2312	0.8366	0.1962	-0.066
Mof_C 	C 	0.3111	0.4684	0.5939	-0.23
Mof_C 	C 	0.8967	0.5321	0.2366	-0.08
Mof_C 	C 	0.6354	0.0805	0.2623	-0.144
Mof_C 	C 	0.7372	0.3888	0.2848	0.133
Mof_C 	C 	0.6488	0.764	0.593	-0.122
Mof_C 	C 	0.9701	0.8198	0.6027	-0.212
Mof_C 	C 	0.8427	0.3111	0.7172	-0.23
Mof_C 	C 	0.6326	0.6027	0.7829	-0.212
Mof_C 	C 	0.0483	0.4035	0.8214	0.392
Mof_C 	C 	0.0668	0.3386	0.9042	0.336
Mof_C 	C 	0.5084	0.8829	0.6255	0.219
Mof_C 	C 	0.8971	0.5209	0.3102	-0.175
Mof_C 	C 	0.1626	0.7282	0.0668	0.336
Mof_C 	C 	0.9195	0.5549	0.1818	-0.144
Mof_C 	C 	0.3762	0.8971	0.5869	-0.175
Mof_C 	C 	0.8967	0.6601	0.3646	-0.08
Mof_C 	C 	0.6238	0.1029	0.4131	-0.175
Mof_C 	C 	0.6723	0.798	0.2801	0.085
Mof_C 	C 	0.2367	0.3527	0.435	0.561
Mof_C 	C 	0.3922	0.8971	0.7499	0.124
Mof_C 	C 	0.4061	0.6889	0.5316	-0.23
Mof_C 	C 	0.3424	0.1141	0.3961	0.12
Mof_C 	C 	0.1171	0.3745	0.4916	0.219
Mof_C 	C 	0.1475	0.218	0.8061	0.024
Mof_C 	C 	0.171	0.764	0.1152	-0.122
Mof_C 	C 	0.8628	0.9944	0.6152	0.094
Mof_C 	C 	0.718	0.9463	0.6039	0.12
Mof_C 	C 	0.3745	0.4916	0.1171	0.219
Mof_C 	C 	0.9061	0.5478	0.3583	0.092
Mof_C 	C 	0.1257	0.5179	0.798	0.085
Mof_C 	C 	0.8859	0.6039	0.6576	0.12
Mof_C 	C 	0.4951	0.8528	0.1029	0.124
Mof_C 	C 	0.3674	0.1503	0.9701	-0.211
Mof_C 	C 	0.3961	0.3424	0.1141	0.12
Mof_C 	C 	0.7633	0.6473	0.565	0.561
Mof_C 	C 	0.4821	0.202	0.8743	0.085
Mof_C 	C 	0.3512	0.236	0.407	-0.122
Mof_C 	C 	0.7875	0.6125	0.9848	0.066
Mof_C 	C 	0.4791	0.6898	0.1029	-0.175
Mof_C 	C 	0.1634	0.3946	0.3596	-0.066
Mof_C 	C 	0.1141	0.3961	0.3424	0.12
Mof_C 	C 	0.3484	0.7372	0.4524	0.133
Mof_C 	C 	0.2265	0.6579	0.3072	0.044
Mof_C 	C 	0.6473	0.884	0.0823	0.561
Mof_C 	C 	0.3102	0.8971	0.5209	-0.175
Mof_C 	C 	0.4028	0.3084	0.0288	-0.169
Mof_C 	C 	0.825	0.6277	0.6125	0.066
Mof_C 	C 	0.7893	0.4791	0.3762	-0.175
Mof_C 	C 	0.8528	0.1029	0.4951	0.124
Mof_C 	C 	0.1503	0.9701	0.3674	-0.211
Mof_C 	C 	0.1895	0.5478	0.6417	0.092
Mof_C 	C 	0.7633	0.1983	0.116	0.561
Mof_C 	C 	0.7152	0.2628	0.6112	0.133
Mof_C 	C 	0.9193	0.6928	0.3507	0.044
Mof_C 	C 	0.7204	0.6916	0.0944	-0.169
Mof_C 	C 	0.896	0.6112	0.3484	0.133
Mof_C 	C 	0.3583	0.9061	0.5478	0.092
Mof_C 	C 	0.6112	0.7152	0.2628	0.133
Mof_C 	C 	0.1983	0.116	0.7633	0.561
Mof_C 	C 	0.3484	0.896	0.6112	0.133
Mof_C 	C 	0.1161	0.7013	0.2724	0.601
Mof_C 	C 	0.9177	0.8017	0.565	0.561
Mof_C 	C 	0.2107	0.5209	0.6238	-0.175
Mof_C 	C 	0.829	0.236	0.8848	-0.122
Mof_C 	C 	0.303	0.3536	0.9494	0.083
Mof_C 	C 	0.3084	0.9056	0.2796	-0.169
Mof_C 	C 	0.3922	0.6423	0.4951	0.124
Mof_C 	C 	0.3527	0.435	0.2367	0.561
Mof_C 	C 	0.2796	0.374	0.9712	-0.169
Mof_C 	C 	0.0537	0.7717	0.6576	0.12
Mof_C 	C 	0.5821	0.4035	0.3552	0.392
Mof_C 	C 	0.8848	0.829	0.236	-0.122
Mof_C 	C 	0.4451	0.8182	0.0805	-0.144
Mof_C 	C 	0.1939	0.8525	0.782	0.024
Mof_C 	C 	0.1257	0.3277	0.6078	0.085
Mof_C 	C 	0.9712	0.5972	0.6916	-0.169
Mof_C 	C 	0.282	0.0537	0.3961	0.12
Mof_C 	C 	0.8745	0.7172	0.4061	-0.23
Mof_C 	C 	0.5049	0.6078	0.3577	0.124
Mof_C 	C 	0.0944	0.7204	0.6916	-0.169
Mof_C 	C 	0.3946	0.2312	0.035	-0.066
Mof_C 	C 	0.6125	0.9848	0.7875	0.066
Mof_C 	C 	0.8848	0.6488	0.0558	-0.122
Mof_C 	C 	0.2955	0.5321	0.6354	-0.08
Mof_C 	C 	0.6586	0.8061	0.5881	0.024
Mof_C 	C 	0.1033	0.4679	0.7634	-0.08
Mof_C 	C 	0.236	0.407	0.3512	-0.122
Mof_C 	C 	0.7717	0.718	0.1141	0.12
Mof_C 	C 	0.6516	0.104	0.3888	0.133
Mof_C 	C 	0.2265	0.9193	0.5686	0.044
Mof_C 	C 	0.829	0.9442	0.593	-0.122
Mof_C 	C 	0.6488	0.0558	0.8848	-0.122
Mof_C 	C 	0.6269	0.2623	0.1818	-0.144
Mof_C 	C 	0.0126	0.7566	0.256	0.597
Mof_C 	C 	0.7524	0.1316	0.1372	0.094
Mof_C 	C 	0.3792	0.2476	0.3848	0.094
Mof_C 	C 	0.6423	0.2501	0.1472	0.124
Mof_C 	C 	0.6255	0.7426	0.1171	0.219
Mof_C 	C 	0.4344	0.3386	0.2718	0.336
Mof_C 	C 	0.0958	0.9332	0.6614	0.336
Mof_C 	C 	0.593	0.6488	0.764	-0.122
Mof_C 	C 	0.1171	0.6255	0.7426	0.219
Mof_C 	C 	0.3646	0.6269	0.4451	-0.144
Mof_C 	C 	0.7204	0.626	0.0288	-0.169
Mof_C 	C 	0.6354	0.3731	0.5549	-0.144
Mof_C 	C 	0.3922	0.8743	0.6723	0.085
Mof_C 	C 	0.7735	0.0807	0.4314	0.044
Mof_C 	C 	0.4679	0.7634	0.1033	-0.08
Mof_C 	C 	0.6898	0.1029	0.4791	-0.175
Mof_C 	C 	0.0705	0.8525	0.6586	0.024
Mof_C 	C 	0.0288	0.7204	0.626	-0.169
Mof_C 	C 	0.4035	0.3552	0.5821	0.392
Mof_C 	C 	0.9442	0.593	0.829	-0.122
Mof_C 	C 	0.4131	0.3102	0.7893	-0.175
Mof_C 	C 	0.2107	0.5869	0.6898	-0.175
Mof_C 	C 	0.1141	0.7717	0.718	0.12
Mof_C 	C 	0.9517	0.5965	0.1786	0.392
Mof_C 	C 	0.1372	0.0056	0.3848	0.094
Mof_C 	C 	0.6054	0.6404	0.8366	-0.066
Mof_C 	C 	0.8859	0.2283	0.282	0.12
Mof_C 	C 	0.6473	0.565	0.7633	0.561
Mof_C 	C 	0.4684	0.5939	0.3111	-0.23
Mof_C 	C 	0.2501	0.1472	0.6423	0.124
Mof_C 	C 	0.2628	0.6112	0.7152	0.133
Mof_C 	C 	0.8628	0.2476	0.8684	0.094
Mof_C 	C 	0.3946	0.3596	0.1634	-0.066
Mof_C 	C 	0.9712	0.2796	0.374	-0.169
Mof_C 	C 	0.9463	0.6039	0.718	0.12
Mof_C 	C 	0.8214	0.4179	0.7731	0.392
Mof_C 	C 	0.0299	0.6326	0.8497	-0.211
Mof_C 	C 	0.5316	0.4061	0.6889	-0.23
Mof_C 	C 	0.8745	0.4684	0.1573	-0.23
Mof_C 	C 	0.9332	0.6614	0.0958	0.336
Mof_C 	C 	0.8743	0.6723	0.3922	0.085
Mof_C 	C 	0.5852	0.4289	0.7013	0.601
Mof_C 	C 	0.0823	0.6473	0.884	0.561
Mof_C 	C 	0.4684	0.1573	0.8745	-0.23
Mof_C 	C 	0.0558	0.8848	0.6488	-0.122
Mof_C 	C 	0.3583	0.8105	0.4522	0.092
Mof_C 	C 	0.2501	0.6078	0.1029	0.124
Mof_C 	C 	0.6448	0.0483	0.2269	0.392
Mof_C 	C 	0.5686	0.6493	0.3421	0.044
Mof_C 	C 	0.4035	0.8214	0.0483	0.392
Mof_C 	C 	0.626	0.9056	0.5972	-0.169
Mof_C 	C 	0.202	0.8743	0.4821	0.085
Mof_C 	C 	0.6889	0.2828	0.1573	-0.23
Mof_C 	C 	0.8061	0.5881	0.6586	0.024
Mof_C 	C 	0.2724	0.1161	0.7013	0.601
Mof_C 	C 	0.4344	0.1626	0.0958	0.336
Mof_C 	C 	0.6493	0.0807	0.3072	0.044
Mof_C 	C 	0.8366	0.6054	0.6404	-0.066
Mof_C 	C 	0.565	0.9177	0.8017	0.561
Mof_C 	C 	0.5209	0.3102	0.8971	-0.175
Mof_C 	C 	0.3792	0.9944	0.1316	0.095
Mof_C 	C 	0.896	0.5476	0.2848	0.133
Mof_C 	C 	0.3674	0.3973	0.2171	-0.212
Mof_C 	C 	0.0668	0.1626	0.7282	0.336
Mof_C 	C 	0.4148	0.1161	0.8437	0.601
Mof_C 	C 	0.9056	0.5972	0.626	-0.169
Mof_C 	C 	0.218	0.8061	0.1475	0.024
Mof_C 	C 	0.3386	0.9042	0.0668	0.336
Mof_C 	C 	0.6404	0.8366	0.6054	-0.066
Mof_C 	C 	0.5476	0.2848	0.896	0.133
Mof_C 	C 	0.7731	0.3552	0.9517	0.392
Mof_C 	C 	0.4119	0.3414	0.1939	0.024
Mof_C 	C 	0.202	0.7199	0.3277	0.085
Mof_C 	C 	0.5656	0.6614	0.7282	0.336
Mof_C 	C 	0.6586	0.0705	0.8525	0.024
Mof_C 	C 	0.3421	0.5686	0.6493	0.044
Mof_C 	C 	0.8497	0.0299	0.6326	-0.211
Mof_C 	C 	0.6354	0.2955	0.5321	-0.08
Mof_C 	C 	0.6614	0.7282	0.5656	0.336
Mof_C 	C 	0.1372	0.7524	0.1316	0.094
Mof_C 	C 	0.1029	0.4791	0.6898	-0.175
Mof_C 	C 	0.6423	0.4951	0.3922	0.124
Mof_C 	C 	0.4679	0.3646	0.7045	-0.08
Mof_C 	C 	0.1029	0.4131	0.6238	-0.175
Mof_C 	C 	0.1475	0.3414	0.9295	0.024
Mof_C 	C 	0.3072	0.2265	0.6579	0.044
Mof_C 	C 	0.8971	0.5049	0.1472	0.124
Mof_C 	C 	0.6039	0.6576	0.8859	0.12
Mof_C 	C 	0.8038	0.6404	0.035	-0.066
Mof_C 	C 	0.2476	0.8684	0.8628	0.094
Mof_C 	C 	0.7731	0.8214	0.4179	0.392
Mof_C 	C 	0.3424	0.9463	0.2283	0.12
Mof_C 	C 	0.7829	0.6326	0.6027	-0.212
Mof_C 	C 	0.1973	0.9848	0.3723	0.066
Mof_C 	C 	0.6601	0.3646	0.8967	-0.08
Mof_C 	C 	0.2269	0.6448	0.0483	0.392
Mof_C 	C 	0.0705	0.4119	0.218	0.024
Mof_C 	C 	0.2623	0.1818	0.6269	-0.144
Mof_C 	C 	0.2283	0.3424	0.9463	0.12
Mof_C 	C 	0.4314	0.3507	0.6579	0.044
Mof_C 	C 	0.5476	0.6516	0.2628	0.133
Mof_C 	C 	0.3762	0.7893	0.4791	-0.175
Mof_C 	C 	0.5972	0.626	0.9056	-0.169
Mof_C 	C 	0.6027	0.7829	0.6326	-0.212
Mof_C 	C 	0.4289	0.8437	0.7276	0.601
Mof_C 	C 	0.8017	0.884	0.2367	0.561
Mof_C 	C 	0.4148	0.5711	0.2987	0.601
Mof_C 	C 	0.3102	0.7893	0.4131	-0.175
Mof_C 	C 	0.2312	0.035	0.3946	-0.066
Mof_C 	C 	0.4119	0.218	0.0705	0.024
Mof_C 	C 	0.9295	0.1475	0.3414	0.024
Mof_C 	C 	0.1161	0.8437	0.4148	0.601
Mof_C 	C 	0.4791	0.3762	0.7893	-0.175
Mof_C 	C 	0.5881	0.782	0.9295	0.024
Mof_C 	C 	0.744	0.5006	0.7566	0.597
Mof_C 	C 	0.1255	0.2828	0.5939	-0.23
Mof_C 	C 	0.6078	0.3577	0.5049	0.124
Mof_C 	C 	0.435	0.0823	0.1983	0.561
Mof_C 	C 	0.764	0.1152	0.171	-0.122
Mof_C 	C 	0.4289	0.7013	0.5852	0.601
Mof_C 	C 	0.8829	0.6255	0.5084	0.219
Mof_C 	C 	0.6054	0.7688	0.965	-0.066
Mof_C 	C 	0.218	0.0705	0.4119	0.024
Mof_C 	C 	0.9944	0.1316	0.3792	0.095
Mof_C 	C 	0.2987	0.7276	0.8839	0.601
Mof_C 	C 	0.6898	0.2107	0.5869	-0.175
Mof_C 	C 	0.3922	0.7199	0.5179	0.085
Mof_C 	C 	0.8528	0.3577	0.7499	0.124
Mof_C 	C 	0.0537	0.3961	0.282	0.12
Mof_C 	C 	0.6723	0.3922	0.8743	0.085
Mof_C 	C 	0.5939	0.1255	0.2828	-0.23
Mof_C 	C 	0.8198	0.6027	0.9701	-0.212
Mof_C 	C 	0.5478	0.6417	0.1895	0.092
Mof_C 	C 	0.7377	0.3646	0.9195	-0.144
Mof_C 	C 	0.965	0.1962	0.3596	-0.066
Mof_C 	C 	0.6576	0.0537	0.7717	0.12
Mof_C 	C 	0.7276	0.4289	0.8437	0.601
Mof_C 	C 	0.9056	0.2796	0.3084	-0.169
Mof_C 	C 	0.6464	0.9494	0.5958	0.083
Mof_C 	C 	0.6448	0.4179	0.5965	0.392
Mof_C 	C 	0.3577	0.5049	0.6078	0.124
Mof_N 	N 	0.7153	0.4091	0.3062	-0.145
Mof_N 	N 	0.7013	0.0963	0.7976	-0.146
Mof_N 	N 	0.6938	0.1029	0.4091	-0.145
Mof_N 	N 	0.1029	0.4091	0.6938	-0.145
Mof_N 	N 	0.2987	0.9037	0.2024	-0.146
Mof_N 	N 	0.4091	0.6938	0.1029	-0.145
Mof_N 	N 	0.9037	0.2024	0.2987	-0.146
Mof_N 	N 	0.6938	0.2847	0.5909	-0.145
Mof_N 	N 	0.9037	0.605	0.7013	-0.146
Mof_N 	N 	0.3062	0.7153	0.4091	-0.145
Mof_N 	N 	0.2847	0.5909	0.6938	-0.145
Mof_N 	N 	0.605	0.7013	0.9037	-0.146
Mof_N 	N 	0.3062	0.8971	0.5909	-0.145
Mof_N 	N 	0.4091	0.3062	0.7153	-0.145
Mof_N 	N 	0.7013	0.9037	0.605	-0.146
Mof_N 	N 	0.5909	0.3062	0.8971	-0.145
Mof_N 	N 	0.8971	0.5909	0.3062	-0.145
Mof_N 	N 	0.0963	0.395	0.2987	-0.146
Mof_N 	N 	0.2987	0.0963	0.395	-0.146
Mof_N 	N 	0.2024	0.2987	0.9037	-0.146
Mof_N 	N 	0.395	0.2987	0.0963	-0.146
Mof_N 	N 	0.0963	0.7976	0.7013	-0.146
Mof_N 	N 	0.7976	0.7013	0.0963	-0.146
Mof_N 	N 	0.5909	0.6938	0.2847	-0.145
Mof_O 	O 	0.1436	0.5603	0.1841	-0.526
Mof_O 	O 	0.3264	0.7691	0.9199	-0.619
Mof_O 	O 	0.7366	0.5423	0.6829	-0.491
Mof_O 	O 	0.6398	0.2056	0.9654	-0.47
Mof_O 	O 	0.5658	0.3602	0.3256	-0.47
Mof_O 	O 	0.8492	0.7691	0.4427	-0.619
Mof_O 	O 	0.8418	0.3729	0.2147	-0.34
Mof_O 	O 	0.0721	0.9051	0.3392	-0.624
Mof_O 	O 	0.0346	0.3602	0.7944	-0.47
Mof_O 	O 	0.6398	0.6744	0.4342	-0.47
Mof_O 	O 	0.6271	0.7853	0.1582	-0.34
Mof_O 	O 	0.4334	0.8149	0.6967	-0.571
Mof_O 	O 	0.3372	0.4597	0.1225	-0.36
Mof_O 	O 	0.5564	0.8741	0.9169	-0.505
Mof_O 	O 	0.5833	0.6238	0.4397	-0.526
Mof_O 	O 	0.644	0.5363	0.7799	-0.644
Mof_O 	O 	0.8741	0.9169	0.5564	-0.505
Mof_O 	O 	0.9654	0.7598	0.3256	-0.47
Mof_O 	O 	0.5833	0.1436	0.9595	-0.525
Mof_O 	O 	0.502	0.7422	0.7028	-0.719
Mof_O 	O 	0.4637	0.2201	0.356	-0.644
Mof_O 	O 	0.1077	0.644	0.8641	-0.644
Mof_O 	O 	0.3605	0.9169	0.0428	-0.505
Mof_O 	O 	0.2309	0.0801	0.6736	-0.619
Mof_O 	O 	0.7329	0.167	0.0721	-0.624
Mof_O 	O 	0.5573	0.3264	0.4065	-0.619
Mof_O 	O 	0.4436	0.1259	0.0831	-0.505
Mof_O 	O 	0.0428	0.3605	0.9169	-0.505
Mof_O 	O 	0.0721	0.7329	0.167	-0.624
Mof_O 	O 	0.3392	0.0721	0.9051	-0.624
Mof_O 	O 	0.8818	0.1851	0.6185	-0.571
Mof_O 	O 	0.1943	0.7366	0.0537	-0.491
Mof_O 	O 	0.2309	0.5573	0.1508	-0.619
Mof_O 	O 	0.498	0.2578	0.2972	-0.719
Mof_O 	O 	0.0394	0.7992	0.2972	-0.719
Mof_O 	O 	0.1851	0.3033	0.5666	-0.571
Mof_O 	O 	0.0801	0.6736	0.2309	-0.619
Mof_O 	O 	0.6744	0.4342	0.6398	-0.47
Mof_O 	O 	0.2008	0.7028	0.9606	-0.719
Mof_O 	O 	0.2008	0.2402	0.498	-0.719
Mof_O 	O 	0.6829	0.1406	0.9463	-0.491
Mof_O 	O 	0.7366	0.0537	0.1943	-0.491
Mof_O 	O 	0.5666	0.2633	0.3815	-0.571
Mof_O 	O 	0.0405	0.4167	0.8564	-0.525
Mof_O 	O 	0.2402	0.0394	0.7422	-0.719
Mof_O 	O 	0.6628	0.7853	0.1225	-0.36
Mof_O 	O 	0.2402	0.6744	0.0346	-0.47
Mof_O 	O 	0.4065	0.5573	0.3264	-0.619
Mof_O 	O 	0.356	0.4637	0.2201	-0.644
Mof_O 	O 	0.1841	0.1436	0.5603	-0.526
Mof_O 	O 	0.833	0.5659	0.9051	-0.624
Mof_O 	O 	0.3264	0.4065	0.5573	-0.619
Mof_O 	O 	0.8641	0.2201	0.7564	-0.644
Mof_O 	O 	0.7944	0.4342	0.7598	-0.47
Mof_O 	O 	0.0405	0.1841	0.6238	-0.526
Mof_O 	O 	0.9279	0.0949	0.6608	-0.624
Mof_O 	O 	0.7799	0.2436	0.1359	-0.644
Mof_O 	O 	0.6395	0.0831	0.9572	-0.505
Mof_O 	O 	0.7367	0.6185	0.4334	-0.571
Mof_O 	O 	0.6185	0.4334	0.7367	-0.571
Mof_O 	O 	0.8741	0.3177	0.9572	-0.505
Mof_O 	O 	0.7422	0.2402	0.0394	-0.719
Mof_O 	O 	0.5403	0.8775	0.6628	-0.36
Mof_O 	O 	0.5363	0.8923	0.7564	-0.644
Mof_O 	O 	0.1077	0.2436	0.4637	-0.644
Mof_O 	O 	0.9606	0.2008	0.7028	-0.719
Mof_O 	O 	0.6736	0.2309	0.0801	-0.619
Mof_O 	O 	0.6271	0.4689	0.8418	-0.34
Mof_O 	O 	0.1225	0.6628	0.7853	-0.36
Mof_O 	O 	0.7992	0.2972	0.0394	-0.719
Mof_O 	O 	0.2578	0.2972	0.498	-0.719
Mof_O 	O 	0.2671	0.833	0.9279	-0.624
Mof_O 	O 	0.9463	0.6829	0.1406	-0.491
Mof_O 	O 	0.6395	0.6823	0.5564	-0.505
Mof_O 	O 	0.1436	0.9595	0.5833	-0.525
Mof_O 	O 	0.1508	0.2309	0.5573	-0.619
Mof_O 	O 	0.3177	0.4436	0.3605	-0.505
Mof_O 	O 	0.167	0.0721	0.7329	-0.624
Mof_O 	O 	0.8818	0.2633	0.6967	-0.571
Mof_O 	O 	0.8775	0.6628	0.5403	-0.36
Mof_O 	O 	0.3256	0.9654	0.7598	-0.47
Mof_O 	O 	0.2436	0.1359	0.7799	-0.644
Mof_O 	O 	0.3729	0.2147	0.8418	-0.34
Mof_O 	O 	0.4577	0.1943	0.1406	-0.491
Mof_O 	O 	0.0346	0.2402	0.6744	-0.47
Mof_O 	O 	0.1259	0.6823	0.0428	-0.505
Mof_O 	O 	0.9572	0.6395	0.0831	-0.505
Mof_O 	O 	0.9572	0.8741	0.3177	-0.505
Mof_O 	O 	0.1182	0.8149	0.3815	-0.571
Mof_O 	O 	0.0537	0.3171	0.8594	-0.491
Mof_O 	O 	0.7598	0.9606	0.2578	-0.719
Mof_O 	O 	0.7367	0.3033	0.1182	-0.571
Mof_O 	O 	0.9595	0.5833	0.1436	-0.525
Mof_O 	O 	0.5666	0.1851	0.3033	-0.571
Mof_O 	O 	0.644	0.8641	0.1077	-0.644
Mof_O 	O 	0.8564	0.0405	0.4167	-0.525
Mof_O 	O 	0.8923	0.7564	0.5363	-0.644
Mof_O 	O 	0.6823	0.0428	0.1259	-0.505
Mof_O 	O 	0.8418	0.6271	0.4689	-0.34
Mof_O 	O 	0.2402	0.2056	0.5658	-0.47
Mof_O 	O 	0.3815	0.5666	0.2633	-0.571
Mof_O 	O 	0.1943	0.1406	0.4577	-0.491
Mof_O 	O 	0.3372	0.2147	0.8775	-0.36
Mof_O 	O 	0.1508	0.5935	0.9199	-0.619
Mof_O 	O 	0.8057	0.8594	0.5423	-0.491
Mof_O 	O 	0.4342	0.7598	0.7944	-0.47
Mof_O 	O 	0.4597	0.1225	0.3372	-0.36
Mof_O 	O 	0.6967	0.8818	0.2633	-0.571
Mof_O 	O 	0.1225	0.3372	0.4597	-0.36
Mof_O 	O 	0.6823	0.5564	0.6395	-0.505
Mof_O 	O 	0.8159	0.8564	0.4397	-0.526
Mof_O 	O 	0.6967	0.4334	0.8149	-0.571
Mof_O 	O 	0.7028	0.502	0.7422	-0.719
Mof_O 	O 	0.9199	0.1508	0.5935	-0.619
Mof_O 	O 	0.7422	0.7028	0.502	-0.719
Mof_O 	O 	0.7564	0.8641	0.2201	-0.644
Mof_O 	O 	0.7944	0.0346	0.3602	-0.47
Mof_O 	O 	0.4577	0.3171	0.2634	-0.491
Mof_O 	O 	0.7691	0.4427	0.8492	-0.619
Mof_O 	O 	0.0537	0.1943	0.7366	-0.491
Mof_O 	O 	0.4341	0.0949	0.167	-0.624
Mof_O 	O 	0.5659	0.9051	0.833	-0.624
Mof_O 	O 	0.4167	0.8564	0.0405	-0.525
Mof_O 	O 	0.9199	0.3264	0.7691	-0.619
Mof_O 	O 	0.7799	0.644	0.5363	-0.644
Mof_O 	O 	0.2056	0.9654	0.6398	-0.47
Mof_O 	O 	0.7028	0.9606	0.2008	-0.719
Mof_O 	O 	0.6185	0.8818	0.1851	-0.571
Mof_O 	O 	0.9463	0.8057	0.2634	-0.491
Mof_O 	O 	0.7598	0.502	0.7992	-0.719
Mof_O 	O 	0.8564	0.4397	0.8159	-0.526
Mof_O 	O 	0.498	0.2008	0.2402	-0.719
Mof_O 	O 	0.7329	0.6608	0.5659	-0.624
Mof_O 	O 	0.0949	0.167	0.4341	-0.624
Mof_O 	O 	0.2972	0.498	0.2578	-0.719
Mof_O 	O 	0.356	0.1359	0.8923	-0.644
Mof_O 	O 	0.502	0.7992	0.7598	-0.719
Mof_O 	O 	0.8057	0.2634	0.9463	-0.491
Mof_O 	O 	0.9169	0.0428	0.3605	-0.505
Mof_O 	O 	0.1841	0.6238	0.0405	-0.526
Mof_O 	O 	0.0949	0.6608	0.9279	-0.624
Mof_O 	O 	0.6829	0.7366	0.5423	-0.491
Mof_O 	O 	0.5423	0.8057	0.8594	-0.491
Mof_O 	O 	0.1851	0.6185	0.8818	-0.571
Mof_O 	O 	0.5603	0.4167	0.3762	-0.526
Mof_O 	O 	0.2147	0.8775	0.3372	-0.36
Mof_O 	O 	0.8775	0.3372	0.2147	-0.36
Mof_O 	O 	0.2436	0.4637	0.1077	-0.644
Mof_O 	O 	0.3177	0.9572	0.8741	-0.505
Mof_O 	O 	0.3033	0.5666	0.1851	-0.571
Mof_O 	O 	0.4427	0.8492	0.7691	-0.619
Mof_O 	O 	0.8159	0.3762	0.9595	-0.526
Mof_O 	O 	0.5564	0.6395	0.6823	-0.505
Mof_O 	O 	0.4397	0.8159	0.8564	-0.526
Mof_O 	O 	0.1182	0.7367	0.3033	-0.571
Mof_O 	O 	0.3171	0.2634	0.4577	-0.491
Mof_O 	O 	0.0831	0.4436	0.1259	-0.505
Mof_O 	O 	0.2578	0.7598	0.9606	-0.719
Mof_O 	O 	0.5311	0.1582	0.3729	-0.34
Mof_O 	O 	0.8594	0.0537	0.3171	-0.491
Mof_O 	O 	0.2402	0.498	0.2008	-0.719
Mof_O 	O 	0.6238	0.0405	0.1841	-0.526
Mof_O 	O 	0.4427	0.6736	0.5935	-0.619
Mof_O 	O 	0.5423	0.6829	0.7366	-0.491
Mof_O 	O 	0.8641	0.1077	0.644	-0.644
Mof_O 	O 	0.3392	0.4341	0.2671	-0.624
Mof_O 	O 	0.0801	0.8492	0.4065	-0.619
Mof_O 	O 	0.3762	0.5603	0.4167	-0.526
Mof_O 	O 	0.6628	0.5403	0.8775	-0.36
Mof_O 	O 	0.3605	0.3177	0.4436	-0.505
Mof_O 	O 	0.5935	0.9199	0.1508	-0.619
Mof_O 	O 	0.8492	0.4065	0.0801	-0.619
Mof_O 	O 	0.9051	0.3392	0.0721	-0.624
Mof_O 	O 	0.6608	0.5659	0.7329	-0.624
Mof_O 	O 	0.3815	0.1182	0.8149	-0.571
Mof_O 	O 	0.2972	0.0394	0.7992	-0.719
Mof_O 	O 	0.4334	0.7367	0.6185	-0.571
Mof_O 	O 	0.0428	0.1259	0.6823	-0.505
Mof_O 	O 	0.5363	0.7799	0.644	-0.644
Mof_O 	O 	0.9279	0.2671	0.833	-0.624
Mof_O 	O 	0.1582	0.3729	0.5311	-0.34
Mof_O 	O 	0.8594	0.5423	0.8057	-0.491
Mof_O 	O 	0.4397	0.5833	0.6238	-0.526
Mof_O 	O 	0.4436	0.3605	0.3177	-0.505
Mof_O 	O 	0.3256	0.5658	0.3602	-0.47
Mof_O 	O 	0.3729	0.5311	0.1582	-0.34
Mof_O 	O 	0.5659	0.7329	0.6608	-0.624
Mof_O 	O 	0.4342	0.6398	0.6744	-0.47
Mof_O 	O 	0.6608	0.9279	0.0949	-0.624
Mof_O 	O 	0.7598	0.7944	0.4342	-0.47
Mof_O 	O 	0.7598	0.3256	0.9654	-0.47
Mof_O 	O 	0.5935	0.4427	0.6736	-0.619
Mof_O 	O 	0.2634	0.9463	0.8057	-0.491
Mof_O 	O 	0.9051	0.833	0.5659	-0.624
Mof_O 	O 	0.0394	0.7422	0.2402	-0.719
Mof_O 	O 	0.2633	0.6967	0.8818	-0.571
Mof_O 	O 	0.6736	0.5935	0.4427	-0.619
Mof_O 	O 	0.3171	0.8594	0.0537	-0.491
Mof_O 	O 	0.0831	0.9572	0.6395	-0.505
Mof_O 	O 	0.2633	0.3815	0.5666	-0.571
Mof_O 	O 	0.1359	0.8923	0.356	-0.644
Mof_O 	O 	0.5658	0.2402	0.2056	-0.47
Mof_O 	O 	0.6744	0.0346	0.2402	-0.47
Mof_O 	O 	0.7691	0.9199	0.3264	-0.619
Mof_O 	O 	0.2147	0.8418	0.3729	-0.34
Mof_O 	O 	0.4167	0.3762	0.5603	-0.526
Mof_O 	O 	0.2056	0.5658	0.2402	-0.47
Mof_O 	O 	0.8149	0.6967	0.4334	-0.571
Mof_O 	O 	0.6238	0.4397	0.5833	-0.526
Mof_O 	O 	0.1582	0.6271	0.7853	-0.34
Mof_O 	O 	0.5573	0.1508	0.2309	-0.619
Mof_O 	O 	0.7564	0.5363	0.8923	-0.644
Mof_O 	O 	0.4689	0.8418	0.6271	-0.34
Mof_O 	O 	0.9606	0.2578	0.7598	-0.719
Mof_O 	O 	0.9654	0.6398	0.2056	-0.47
Mof_O 	O 	0.2634	0.4577	0.3171	-0.491
Mof_O 	O 	0.2671	0.3392	0.4341	-0.624
Mof_O 	O 	0.7853	0.1582	0.6271	-0.34
Mof_O 	O 	0.7853	0.1225	0.6628	-0.36
Mof_O 	O 	0.2201	0.7564	0.8641	-0.644
Mof_O 	O 	0.1359	0.7799	0.2436	-0.644
Mof_O 	O 	0.5603	0.1841	0.1436	-0.526
Mof_O 	O 	0.9595	0.8159	0.3762	-0.526
Mof_O 	O 	0.3033	0.1182	0.7367	-0.571
Mof_O 	O 	0.1406	0.4577	0.1943	-0.491
Mof_O 	O 	0.2201	0.356	0.4637	-0.644
Mof_O 	O 	0.3602	0.3256	0.5658	-0.47
Mof_O 	O 	0.4341	0.2671	0.3392	-0.624
Mof_O 	O 	0.8923	0.356	0.1359	-0.644
Mof_O 	O 	0.1406	0.9463	0.6829	-0.491
Mof_O 	O 	0.4637	0.1077	0.2436	-0.644
Mof_O 	O 	0.4065	0.0801	0.8492	-0.619
Mof_O 	O 	0.3602	0.7944	0.0346	-0.47
Mof_O 	O 	0.7992	0.7598	0.502	-0.719
Mof_O 	O 	0.167	0.4341	0.0949	-0.624
Mof_O 	O 	0.1259	0.0831	0.4436	-0.505
Mof_O 	O 	0.9169	0.5564	0.8741	-0.505
Mof_O 	O 	0.3762	0.9595	0.8159	-0.526
Mof_O 	O 	0.833	0.9279	0.2671	-0.624
Mof_O 	O 	0.8149	0.3815	0.1182	-0.571
_end
