data_functionalizedCrystal
_audit_creation_method	'EQeq! by Chris Wilmer'
_symmetry_space_group_name_H-M	'P1'
_symmetry_Int_Tables_number	1
_symmetry_cell_setting	triclinic
loop_
_symmetry_equiv_pos_as_xyz
  x,y,z
_cell_length_a	5.1953
_cell_length_b	10.53
_cell_length_c	14.26
_cell_angle_alpha	74.29
_cell_angle_beta	89.02
_cell_angle_gamma	82.3
loop_
_atom_site_label
_atom_site_type_symbol
_atom_site_fract_x
_atom_site_fract_y
_atom_site_fract_z
_atom_site_charge
Mof_Co	Co	-0	0.5	0.5	1.087
Mof_Co	Co	0.5	0	0.5	1.129
Mof_P 	P 	0.91156	0.1973	0.47403	0.453
Mof_P 	P 	0.08844	0.8027	0.52597	0.365
Mof_H 	H 	0.371	0.9464	0.3292	0.254
Mof_H 	H 	0.0781	0.2808	0.275	-0.014
Mof_H 	H 	0.9869	0.2277	0.1325	0.044
Mof_H 	H 	0.6876	0.0827	0.1337	0.081
Mof_H 	H 	0.0796	0.2453	0.7005	-0.046
Mof_H 	H 	0.7816	0.2127	0.836	0.061
Mof_H 	H 	0.563	0.564	0.6536	-0.005
Mof_H 	H 	0.2501	0.4944	0.7879	0.055
Mof_H 	H 	0.2904	0.3438	0.8462	0.056
Mof_H 	H 	0.7112	0.5767	0.8621	0.057
Mof_H 	H 	0.2084	0.3581	0.0029	0.036
Mof_H 	H 	0.629	0.0536	0.6708	0.297
Mof_H 	H 	0.9219	0.7192	0.725	0.173
Mof_H 	H 	0.0131	0.7723	0.8675	-0.08
Mof_H 	H 	0.3124	0.9173	0.8663	0.213
Mof_H 	H 	0.9204	0.7547	0.2995	0.108
Mof_H 	H 	0.2184	0.7873	0.164	0.032
Mof_H 	H 	0.437	0.436	0.3464	-0.005
Mof_H 	H 	0.7499	0.5056	0.2121	0.091
Mof_H 	H 	0.7096	0.6562	0.1538	0.096
Mof_H 	H 	0.2888	0.4233	0.1379	0.059
Mof_H 	H 	0.7916	0.6419	0.9971	0.082
Mof_C 	C 	0.8319	0.1674	0.3577	-0.042
Mof_C 	C 	0.9581	0.2229	0.2745	0.024
Mof_C 	C 	0.9034	0.1911	0.1898	-0.006
Mof_C 	C 	0.7253	0.1054	0.1901	-0.159
Mof_C 	C 	0.6039	0.0536	0.2763	0.181
Mof_C 	C 	0.9383	0.3058	0.7079	0.113
Mof_C 	C 	0.7747	0.2874	0.7828	-0.054
Mof_C 	C 	0.656	0.4808	0.6819	0.072
Mof_C 	C 	0.3746	0.4236	0.8267	-0.111
Mof_C 	C 	0.4458	0.4613	0.9172	0.045
Mof_C 	C 	0.6211	0.5444	0.9186	-0.044
Mof_C 	C 	0.3286	0.4171	0.9997	-0.063
Mof_C 	C 	0.1681	0.8326	0.6423	0.093
Mof_C 	C 	0.0419	0.7771	0.7255	-0.325
Mof_C 	C 	0.0966	0.8089	0.8102	0.29
Mof_C 	C 	0.2747	0.8946	0.8099	-0.41
Mof_C 	C 	0.3961	0.9464	0.7237	0.482
Mof_C 	C 	0.0617	0.6942	0.2921	-0.105
Mof_C 	C 	0.2253	0.7126	0.2172	0.046
Mof_C 	C 	0.344	0.5192	0.3181	0.07
Mof_C 	C 	0.6254	0.5764	0.1733	-0.156
Mof_C 	C 	0.5542	0.5387	0.0828	0.096
Mof_C 	C 	0.3789	0.4556	0.0814	-0.094
Mof_C 	C 	0.6714	0.5829	0.0003	-0.1
Mof_N 	N 	0.6516	0.0849	0.35853	-0.243
Mof_N 	N 	0.8631	0.4292	0.64348	-0.241
Mof_N 	N 	0.596	0.3995	0.7663	-0.101
Mof_N 	N 	0.3484	0.9151	0.64147	-0.278
Mof_N 	N 	0.1369	0.5708	0.35652	-0.228
Mof_N 	N 	0.404	0.6005	0.2337	-0.108
Mof_O 	O 	0.8285	0.34445	0.46493	-0.395
Mof_O 	O 	0.754	0.10629	0.54753	-0.429
Mof_O 	O 	0.2039	0.16184	0.48837	-0.445
Mof_O 	O 	0.4364	0.9683	0.27549	-0.358
Mof_O 	O 	0.1715	0.65555	0.53507	-0.41
Mof_O 	O 	0.246	0.89371	0.45247	-0.369
Mof_O 	O 	0.7961	0.83816	0.51163	-0.337
Mof_O 	O 	0.5636	0.0317	0.72451	-0.58
_end
