data_functionalizedCrystal
_audit_creation_method	'EQeq! by Chris Wilmer'
_symmetry_space_group_name_H-M	'P1'
_symmetry_Int_Tables_number	1
_symmetry_cell_setting	triclinic
loop_
_symmetry_equiv_pos_as_xyz
  x,y,z
_cell_length_a	9.625
_cell_length_b	11.78
_cell_length_c	18.714
_cell_angle_alpha	90
_cell_angle_beta	98.18
_cell_angle_gamma	90
loop_
_atom_site_label
_atom_site_type_symbol
_atom_site_fract_x
_atom_site_fract_y
_atom_site_fract_z
_atom_site_charge
Mof_Cu	Cu	0.71963	0.36987	0.2111	0.828
Mof_Cu	Cu	0.03612	0.37256	0.10948	0.819
Mof_Cu	Cu	0.28037	0.36987	0.2889	0.827
Mof_Cu	Cu	0.96388	0.37256	0.39052	0.832
Mof_Cu	Cu	0.28037	0.63013	0.7889	0.827
Mof_Cu	Cu	0.96388	0.62744	0.89052	0.833
Mof_Cu	Cu	0.71963	0.63013	0.7111	0.829
Mof_Cu	Cu	0.03612	0.62744	0.60948	0.821
Mof_Mo	Mo	-1.35325e-17	0.37149	0.25	0.516
Mof_Mo	Mo	-5.41301e-17	0.62851	0.75	0.52
Mof_H 	H 	0.4272	0.4471	0.1497	-0.047
Mof_H 	H 	0.3101	0.5783	0.0724	0.096
Mof_H 	H 	0.6834	0.6857	0.0278	0.105
Mof_H 	H 	0.7909	0.5544	0.1096	-0.052
Mof_H 	H 	0.471	0.7585	0.9551	0.104
Mof_H 	H 	0.3233	0.702	0.9643	0.09
Mof_H 	H 	0.4555	0.8766	0.0566	-0.01
Mof_H 	H 	0.3077	0.8203	0.0657	-0.012
Mof_H 	H 	0.3614	0.9534	0.9462	0.115
Mof_H 	H 	0.2157	0.8907	0.9497	0.116
Mof_H 	H 	0.3637	0.0332	0.1089	0.102
Mof_H 	H 	0.2713	0.1936	0.1537	-0.053
Mof_H 	H 	0.0225	0.2409	0.9731	-0.036
Mof_H 	H 	0.089	0.0669	0.9271	0.096
Mof_H 	H 	0.5728	0.4471	0.3503	-0.048
Mof_H 	H 	0.6899	0.5783	0.4276	0.104
Mof_H 	H 	0.3166	0.6857	0.4722	0.105
Mof_H 	H 	0.2091	0.5544	0.3904	-0.069
Mof_H 	H 	0.529	0.7585	0.5449	0.104
Mof_H 	H 	0.6767	0.702	0.5357	0.096
Mof_H 	H 	0.5445	0.8766	0.4434	-0.01
Mof_H 	H 	0.6923	0.8203	0.4343	-0.002
Mof_H 	H 	0.6386	0.9534	0.5538	0.116
Mof_H 	H 	0.7843	0.8907	0.5503	0.126
Mof_H 	H 	0.6363	0.0332	0.3911	0.103
Mof_H 	H 	0.7287	0.1936	0.3463	-0.051
Mof_H 	H 	0.9775	0.2409	0.5269	-0.019
Mof_H 	H 	0.911	0.0669	0.5729	0.11
Mof_H 	H 	0.5728	0.5529	0.8503	-0.048
Mof_H 	H 	0.6899	0.4217	0.9276	0.102
Mof_H 	H 	0.3166	0.3143	0.9722	0.103
Mof_H 	H 	0.2091	0.4456	0.8904	-0.068
Mof_H 	H 	0.529	0.2415	0.0449	0.101
Mof_H 	H 	0.6767	0.298	0.0357	0.092
Mof_H 	H 	0.5445	0.1234	0.9434	-0.005
Mof_H 	H 	0.6923	0.1797	0.9343	0.002
Mof_H 	H 	0.6386	0.0466	0.0538	0.111
Mof_H 	H 	0.7843	0.1093	0.0503	0.121
Mof_H 	H 	0.6363	0.9668	0.8911	0.1
Mof_H 	H 	0.7287	0.8064	0.8463	-0.049
Mof_H 	H 	0.9775	0.7591	0.0269	-0.011
Mof_H 	H 	0.911	0.9331	0.0729	0.105
Mof_H 	H 	0.4272	0.5529	0.6497	-0.046
Mof_H 	H 	0.3101	0.4217	0.5724	0.095
Mof_H 	H 	0.6834	0.3143	0.5278	0.103
Mof_H 	H 	0.7909	0.4456	0.6096	-0.052
Mof_H 	H 	0.471	0.2415	0.4551	0.102
Mof_H 	H 	0.3233	0.298	0.4643	0.088
Mof_H 	H 	0.4555	0.1234	0.5566	-0.008
Mof_H 	H 	0.3077	0.1797	0.5657	-0.01
Mof_H 	H 	0.3614	0.0466	0.4462	0.114
Mof_H 	H 	0.2157	0.1093	0.4497	0.115
Mof_H 	H 	0.3637	0.9668	0.6089	0.102
Mof_H 	H 	0.2713	0.8064	0.6537	-0.053
Mof_H 	H 	0.0225	0.7591	0.4731	-0.036
Mof_H 	H 	0.089	0.9331	0.4271	0.095
Mof_C 	C 	0.0017	0.4686	0.0243	-0.258
Mof_C 	C 	0.4809	0.4977	0.125	0.128
Mof_C 	C 	0.4097	0.5757	0.0789	-0.235
Mof_C 	C 	0.4843	0.6497	0.0424	0.205
Mof_C 	C 	0.6275	0.6385	0.0535	-0.235
Mof_C 	C 	0.6913	0.5587	0.1018	0.129
Mof_C 	C 	0.4093	0.7366	0.9908	-0.307
Mof_C 	C 	0.3695	0.8423	0.03	0.116
Mof_C 	C 	0.2957	0.9287	0.9794	-0.323
Mof_C 	C 	0.2405	0.0336	0.0122	0.202
Mof_C 	C 	0.2906	0.0731	0.0798	-0.239
Mof_C 	C 	0.2359	0.1702	0.106	0.12
Mof_C 	C 	0.0898	0.1956	0.0024	0.102
Mof_C 	C 	0.1328	0.0935	0.9727	-0.228
Mof_C 	C 	0.9983	0.4686	0.4757	-0.117
Mof_C 	C 	0.5191	0.4977	0.375	0.132
Mof_C 	C 	0.5903	0.5757	0.4211	-0.239
Mof_C 	C 	0.5157	0.6497	0.4576	0.209
Mof_C 	C 	0.3725	0.6385	0.4465	-0.242
Mof_C 	C 	0.3087	0.5587	0.3982	0.133
Mof_C 	C 	0.5907	0.7366	0.5092	-0.305
Mof_C 	C 	0.6305	0.8423	0.47	0.112
Mof_C 	C 	0.7043	0.9287	0.5206	-0.321
Mof_C 	C 	0.7595	0.0336	0.4878	0.208
Mof_C 	C 	0.7094	0.0731	0.4202	-0.237
Mof_C 	C 	0.7641	0.1702	0.394	0.128
Mof_C 	C 	0.9102	0.1956	0.4976	0.111
Mof_C 	C 	0.8672	0.0935	0.5273	-0.221
Mof_C 	C 	0.9983	0.5314	0.9757	-0.122
Mof_C 	C 	0.5191	0.5023	0.875	0.129
Mof_C 	C 	0.5903	0.4243	0.9211	-0.235
Mof_C 	C 	0.5157	0.3503	0.9576	0.201
Mof_C 	C 	0.3725	0.3615	0.9465	-0.238
Mof_C 	C 	0.3087	0.4413	0.8982	0.13
Mof_C 	C 	0.5907	0.2634	0.0092	-0.291
Mof_C 	C 	0.6305	0.1577	0.97	0.095
Mof_C 	C 	0.7043	0.0713	0.0206	-0.302
Mof_C 	C 	0.7595	0.9664	0.9878	0.191
Mof_C 	C 	0.7094	0.9269	0.9202	-0.226
Mof_C 	C 	0.7641	0.8298	0.894	0.122
Mof_C 	C 	0.9102	0.8044	0.9976	0.092
Mof_C 	C 	0.8672	0.9065	0.0273	-0.199
Mof_C 	C 	0.0017	0.5314	0.5243	-0.261
Mof_C 	C 	0.4809	0.5023	0.625	0.127
Mof_C 	C 	0.4097	0.4243	0.5789	-0.232
Mof_C 	C 	0.4843	0.3503	0.5424	0.2
Mof_C 	C 	0.6275	0.3615	0.5535	-0.231
Mof_C 	C 	0.6913	0.4413	0.6018	0.127
Mof_C 	C 	0.4093	0.2634	0.4908	-0.298
Mof_C 	C 	0.3695	0.1577	0.53	0.108
Mof_C 	C 	0.2957	0.0713	0.4794	-0.318
Mof_C 	C 	0.2405	0.9664	0.5122	0.2
Mof_C 	C 	0.2906	0.9269	0.5798	-0.238
Mof_C 	C 	0.2359	0.8298	0.606	0.12
Mof_C 	C 	0.0898	0.8044	0.5024	0.101
Mof_C 	C 	0.1328	0.9065	0.4727	-0.226
Mof_S 	S 	0.8804	0.26523	0.16362	-0.53
Mof_S 	S 	0.8474	0.4784	0.29901	-0.524
Mof_S 	S 	0.1196	0.26523	0.33638	-0.592
Mof_S 	S 	0.1526	0.4784	0.20099	-0.561
Mof_S 	S 	0.1196	0.73477	0.83638	-0.592
Mof_S 	S 	0.1526	0.5216	0.70099	-0.561
Mof_S 	S 	0.8804	0.73477	0.66362	-0.533
Mof_S 	S 	0.8474	0.5216	0.79901	-0.526
Mof_N 	N 	0.6198	0.4887	0.1374	-0.26
Mof_N 	N 	0.1368	0.2328	0.0684	-0.257
Mof_N 	N 	0.5542	0.2942	0.2409	-0.193
Mof_N 	N 	0.3802	0.4887	0.3626	-0.263
Mof_N 	N 	0.8632	0.2328	0.4316	-0.252
Mof_N 	N 	0.4458	0.2942	0.2591	-0.193
Mof_N 	N 	0.3802	0.5113	0.8626	-0.262
Mof_N 	N 	0.8632	0.7672	0.9316	-0.248
Mof_N 	N 	0.4458	0.7058	0.7591	-0.194
Mof_N 	N 	0.6198	0.5113	0.6374	-0.259
Mof_N 	N 	0.1368	0.7672	0.5684	-0.257
Mof_N 	N 	0.5542	0.7058	0.7409	-0.193
_end
