# CIF file generated by openbabel 3.1.0, see https://openbabel.org
data_I
_chemical_name_common 'image0'
_cell_length_a 8.2335
_cell_length_b 17.8751
_cell_length_c 14.2061
_cell_angle_alpha 90
_cell_angle_beta 90
_cell_angle_gamma 90
_space_group_name_H-M_alt 'P 1'
_space_group_name_Hall 'P 1'
loop_
    _symmetry_equiv_pos_as_xyz
    x,y,z
loop_
    _atom_site_label
    _atom_site_type_symbol
    _atom_site_fract_x
    _atom_site_fract_y
    _atom_site_fract_z
    _atom_site_occupancy
    H1       H        0.05370    0.20570    0.84990    1.000
    H2       H        0.76930    0.20550    0.82860    1.000
    C1       C        0.90880    0.30961    0.65730    1.000
    H3       H        0.89780    0.35970    0.67650    1.000
    N1       N        0.95660    0.28915    0.57411    1.000
    C2       C        0.08970    0.40023    0.36380    1.000
    H4       H        0.19870    0.41390    0.37320    1.000
    N2       N        0.04230    0.34082    0.31806    1.000
    N3       N        0.87310    0.34122    0.32020    1.000
    C3       C        0.82890    0.40098    0.36780    1.000
    H5       H        0.72090    0.41480    0.38040    1.000
    N4       N        0.96070    0.43927    0.39575    1.000
    C4       C        0.96530    0.50842    0.45152    1.000
    H6       H        0.85530    0.52880    0.45780    1.000
    H7       H        0.03290    0.54580    0.41970    1.000
    H8       H        0.44630    0.79430    0.34990    1.000
    H9       H        0.73070    0.79450    0.32860    1.000
    C5       C        0.59120    0.69039    0.15730    1.000
    H10      H        0.60220    0.64030    0.17650    1.000
    N5       N        0.54340    0.71085    0.07411    1.000
    C6       C        0.41030    0.59977    0.86380    1.000
    H11      H        0.30130    0.58610    0.87320    1.000
    N6       N        0.45770    0.65918    0.81806    1.000
    N7       N        0.62690    0.65878    0.82020    1.000
    C7       C        0.67110    0.59902    0.86780    1.000
    H12      H        0.77910    0.58520    0.88040    1.000
    N8       N        0.53930    0.56073    0.89575    1.000
    C8       C        0.53470    0.49158    0.95152    1.000
    H13      H        0.64470    0.47120    0.95780    1.000
    H14      H        0.46710    0.45420    0.91970    1.000
    H15      H        0.94630    0.70570    0.15010    1.000
    H16      H        0.23070    0.70550    0.17140    1.000
    C9       C        0.09120    0.80961    0.34270    1.000
    H17      H        0.10220    0.85970    0.32350    1.000
    N9       N        0.04340    0.78915    0.42589    1.000
    C10      C        0.91030    0.90023    0.63620    1.000
    H18      H        0.80130    0.91390    0.62680    1.000
    N10      N        0.95770    0.84082    0.68194    1.000
    N11      N        0.12690    0.84122    0.67980    1.000
    C11      C        0.17110    0.90098    0.63220    1.000
    H19      H        0.27910    0.91480    0.61960    1.000
    N12      N        0.03930    0.93927    0.60425    1.000
    C12      C        0.03470    0.00842    0.54848    1.000
    H20      H        0.14470    0.02880    0.54220    1.000
    H21      H        0.96710    0.04580    0.58030    1.000
    H22      H        0.55370    0.29430    0.65010    1.000
    H23      H        0.26930    0.29450    0.67140    1.000
    C13      C        0.40880    0.19039    0.84270    1.000
    H24      H        0.39780    0.14030    0.82350    1.000
    N13      N        0.45660    0.21085    0.92589    1.000
    C14      C        0.58970    0.09977    0.13620    1.000
    H25      H        0.69870    0.08610    0.12680    1.000
    N14      N        0.54230    0.15918    0.18194    1.000
    N15      N        0.37310    0.15878    0.17980    1.000
    C15      C        0.32890    0.09902    0.13220    1.000
    H26      H        0.22090    0.08520    0.11960    1.000
    N16      N        0.46070    0.06073    0.10425    1.000
    C16      C        0.46530    0.99158    0.04848    1.000
    H27      H        0.35530    0.97120    0.04220    1.000
    H28      H        0.53290    0.95420    0.08030    1.000
    H29      H        0.94630    0.79430    0.15010    1.000
    H30      H        0.23070    0.79450    0.17140    1.000
    C17      C        0.09120    0.69039    0.34270    1.000
    H31      H        0.10220    0.64030    0.32350    1.000
    N17      N        0.04340    0.71085    0.42589    1.000
    C18      C        0.91030    0.59977    0.63620    1.000
    H32      H        0.80130    0.58610    0.62680    1.000
    N18      N        0.95770    0.65918    0.68194    1.000
    N19      N        0.12690    0.65878    0.67980    1.000
    C19      C        0.17110    0.59902    0.63220    1.000
    H33      H        0.27910    0.58520    0.61960    1.000
    N20      N        0.03930    0.56073    0.60425    1.000
    C20      C        0.03470    0.49158    0.54848    1.000
    H34      H        0.14470    0.47120    0.54220    1.000
    H35      H        0.96710    0.45420    0.58030    1.000
    H36      H        0.55370    0.20570    0.65010    1.000
    H37      H        0.26930    0.20550    0.67140    1.000
    C21      C        0.40880    0.30961    0.84270    1.000
    H38      H        0.39780    0.35970    0.82350    1.000
    N21      N        0.45660    0.28915    0.92589    1.000
    C22      C        0.58970    0.40023    0.13620    1.000
    H39      H        0.69870    0.41390    0.12680    1.000
    N22      N        0.54230    0.34082    0.18194    1.000
    N23      N        0.37310    0.34122    0.17980    1.000
    C23      C        0.32890    0.40098    0.13220    1.000
    H40      H        0.22090    0.41480    0.11960    1.000
    N24      N        0.46070    0.43927    0.10425    1.000
    C24      C        0.46530    0.50842    0.04848    1.000
    H41      H        0.35530    0.52880    0.04220    1.000
    H42      H        0.53290    0.54580    0.08030    1.000
    H43      H        0.05370    0.29430    0.84990    1.000
    H44      H        0.76930    0.29450    0.82860    1.000
    C25      C        0.90880    0.19039    0.65730    1.000
    H45      H        0.89780    0.14030    0.67650    1.000
    N25      N        0.95660    0.21085    0.57411    1.000
    C26      C        0.08970    0.09977    0.36380    1.000
    H46      H        0.19870    0.08610    0.37320    1.000
    N26      N        0.04230    0.15918    0.31806    1.000
    N27      N        0.87310    0.15878    0.32020    1.000
    C27      C        0.82890    0.09902    0.36780    1.000
    H47      H        0.72090    0.08520    0.38040    1.000
    N28      N        0.96070    0.06073    0.39575    1.000
    C28      C        0.96530    0.99158    0.45152    1.000
    H48      H        0.85530    0.97120    0.45780    1.000
    H49      H        0.03290    0.95420    0.41970    1.000
    H50      H        0.44630    0.70570    0.34990    1.000
    H51      H        0.73070    0.70550    0.32860    1.000
    C29      C        0.59120    0.80961    0.15730    1.000
    H52      H        0.60220    0.85970    0.17650    1.000
    N29      N        0.54340    0.78915    0.07411    1.000
    C30      C        0.41030    0.90023    0.86380    1.000
    H53      H        0.30130    0.91390    0.87320    1.000
    N30      N        0.45770    0.84082    0.81806    1.000
    N31      N        0.62690    0.84122    0.82020    1.000
    C31      C        0.67110    0.90098    0.86780    1.000
    H54      H        0.77910    0.91480    0.88040    1.000
    N32      N        0.53930    0.93927    0.89575    1.000
    C32      C        0.53470    0.00842    0.95152    1.000
    H55      H        0.64470    0.02880    0.95780    1.000
    H56      H        0.46710    0.04580    0.91970    1.000
    Cd1      Cd       0.20828    0.25000    0.25092    1.000
    C33      C        0.09180    0.25000    0.03160    1.000
    H57      H        0.20220    0.25000    0.01460    1.000
    N33      N        0.03840    0.25000    0.11850    1.000
    N34      N        0.87160    0.25000    0.11320    1.000
    C34      C        0.83300    0.25000    0.02320    1.000
    H58      H        0.72640    0.25000    0.99950    1.000
    N35      N        0.96860    0.25000    0.97000    1.000
    C35      C        0.99060    0.25000    0.86780    1.000
    C36      C        0.83350    0.25000    0.81320    1.000
    N36      N        0.87660    0.25000    0.71310    1.000
    Cd2      Cd       0.29172    0.75000    0.75092    1.000
    C37      C        0.40820    0.75000    0.53160    1.000
    H59      H        0.29780    0.75000    0.51460    1.000
    N37      N        0.46160    0.75000    0.61850    1.000
    N38      N        0.62840    0.75000    0.61320    1.000
    C38      C        0.66700    0.75000    0.52320    1.000
    H60      H        0.77360    0.75000    0.49950    1.000
    N39      N        0.53140    0.75000    0.47000    1.000
    C39      C        0.50940    0.75000    0.36780    1.000
    C40      C        0.66650    0.75000    0.31320    1.000
    N40      N        0.62340    0.75000    0.21310    1.000
    Cd3      Cd       0.79172    0.75000    0.74908    1.000
    C41      C        0.90820    0.75000    0.96840    1.000
    H61      H        0.79780    0.75000    0.98540    1.000
    N41      N        0.96160    0.75000    0.88150    1.000
    N42      N        0.12840    0.75000    0.88680    1.000
    C42      C        0.16700    0.75000    0.97680    1.000
    H62      H        0.27360    0.75000    0.00050    1.000
    N43      N        0.03140    0.75000    0.03000    1.000
    C43      C        0.00940    0.75000    0.13220    1.000
    C44      C        0.16650    0.75000    0.18680    1.000
    N44      N        0.12340    0.75000    0.28690    1.000
    Cd4      Cd       0.70828    0.25000    0.24908    1.000
    C45      C        0.59180    0.25000    0.46840    1.000
    H63      H        0.70220    0.25000    0.48540    1.000
    N45      N        0.53840    0.25000    0.38150    1.000
    N46      N        0.37160    0.25000    0.38680    1.000
    C46      C        0.33300    0.25000    0.47680    1.000
    H64      H        0.22640    0.25000    0.50050    1.000
    N47      N        0.46860    0.25000    0.53000    1.000
    C47      C        0.49060    0.25000    0.63220    1.000
    C48      C        0.33350    0.25000    0.68680    1.000
    N48      N        0.37660    0.25000    0.78690    1.000
