# CIF file generated by openbabel 3.1.0, see https://openbabel.org
data_I
_chemical_name_common 'image0'
_cell_length_a 9.7893
_cell_length_b 10.3641
_cell_length_c 10.6649
_cell_angle_alpha 111.801
_cell_angle_beta 100.498
_cell_angle_gamma 109.257
_space_group_name_H-M_alt 'P 1'
_space_group_name_Hall 'P 1'
loop_
    _symmetry_equiv_pos_as_xyz
    x,y,z
loop_
    _atom_site_label
    _atom_site_type_symbol
    _atom_site_fract_x
    _atom_site_fract_y
    _atom_site_fract_z
    _atom_site_occupancy
    Zn1      Zn       0.59102    0.46809    0.79701    1.000
    O1       O        0.55340    0.70600    0.72000    1.000
    O2       O        0.54910    0.64470    0.89900    1.000
    O3       O        0.32460    0.34600    0.56060    1.000
    O4       O        0.40590    0.26850    0.71400    1.000
    O5       O        0.69190    0.45960    0.65300    1.000
    O6       O        0.90880    0.64700    0.82850    1.000
    N1       N        0.70090    0.44430    0.96490    1.000
    H1       H        0.62970    0.39850    0.99100    1.000
    C1       C        0.54250    0.72970    0.83840    1.000
    C2       C        0.51990    0.86950    0.92310    1.000
    C3       C        0.47780    0.94890    0.85460    1.000
    H2       H        0.46320    0.91470    0.75720    1.000
    C4       C        0.54250    0.92210    0.07000    1.000
    H3       H        0.57110    0.87030    0.11680    1.000
    C5       C        0.30340    0.25600    0.61210    1.000
    C6       C        0.14610    0.12130    0.55290    1.000
    C7       C        0.01880    0.12720    0.47900    1.000
    H4       H        0.03110    0.21260    0.46400    1.000
    C8       C        0.12690    0.99300    0.57310    1.000
    H5       H        0.21210    0.98730    0.62180    1.000
    C9       C        0.83760    0.54840    0.70290    1.000
    C10      C        0.92090    0.52250    0.59650    1.000
    C11      C        0.84120    0.41760    0.45160    1.000
    H6       H        0.73450    0.36230    0.41870    1.000
    C12      C        0.08060    0.60480    0.64380    1.000
    H7       H        0.13500    0.67550    0.74050    1.000
    C13      C        0.77480    0.34150    0.91740    1.000
    H8       H        0.70190    0.24780    0.83320    1.000
    H9       H        0.80920    0.31800    0.99290    1.000
    H10      H        0.86160    0.39170    0.89520    1.000
    C14      C        0.80950    0.59050    0.09440    1.000
    H11      H        0.75820    0.65510    0.12340    1.000
    H12      H        0.89610    0.64240    0.07300    1.000
    H13      H        0.84480    0.56890    0.17110    1.000
    Zn2      Zn       0.40898    0.53191    0.20299    1.000
    O7       O        0.44660    0.29400    0.28000    1.000
    O8       O        0.45090    0.35530    0.10100    1.000
    O9       O        0.67540    0.65400    0.43940    1.000
    O10      O        0.59410    0.73150    0.28600    1.000
    O11      O        0.30810    0.54040    0.34700    1.000
    O12      O        0.09120    0.35300    0.17150    1.000
    N2       N        0.29910    0.55570    0.03510    1.000
    H14      H        0.37030    0.60150    0.00900    1.000
    C15      C        0.45750    0.27030    0.16160    1.000
    C16      C        0.48010    0.13050    0.07690    1.000
    C17      C        0.52220    0.05110    0.14540    1.000
    H15      H        0.53680    0.08530    0.24280    1.000
    C18      C        0.45750    0.07790    0.93000    1.000
    H16      H        0.42890    0.12970    0.88320    1.000
    C19      C        0.69660    0.74400    0.38790    1.000
    C20      C        0.85390    0.87870    0.44710    1.000
    C21      C        0.98120    0.87280    0.52100    1.000
    H17      H        0.96890    0.78740    0.53600    1.000
    C22      C        0.87310    0.00700    0.42690    1.000
    H18      H        0.78790    0.01270    0.37820    1.000
    C23      C        0.16240    0.45160    0.29710    1.000
    C24      C        0.07910    0.47750    0.40350    1.000
    C25      C        0.15880    0.58240    0.54840    1.000
    H19      H        0.26550    0.63770    0.58130    1.000
    C26      C        0.91940    0.39520    0.35620    1.000
    H20      H        0.86500    0.32450    0.25950    1.000
    C27      C        0.22520    0.65850    0.08260    1.000
    H21      H        0.29810    0.75220    0.16680    1.000
    H22      H        0.19080    0.68200    0.00710    1.000
    H23      H        0.13840    0.60830    0.10480    1.000
    C28      C        0.19050    0.40950    0.90560    1.000
    H24      H        0.24180    0.34490    0.87660    1.000
    H25      H        0.10390    0.35760    0.92700    1.000
    H26      H        0.15520    0.43110    0.82890    1.000
    Na1      Na       0.50000    0.50000    0.50000    1.000
