# CIF file generated by openbabel 3.1.0, see https://openbabel.org
data_I
_chemical_name_common 'image0'
_cell_length_a 9.509
_cell_length_b 15.18
_cell_length_c 12.246
_cell_angle_alpha 90
_cell_angle_beta 93.835
_cell_angle_gamma 90
_space_group_name_H-M_alt 'P 1'
_space_group_name_Hall 'P 1'
loop_
    _symmetry_equiv_pos_as_xyz
    x,y,z
loop_
    _atom_site_label
    _atom_site_type_symbol
    _atom_site_fract_x
    _atom_site_fract_y
    _atom_site_fract_z
    _atom_site_occupancy
    Zn1      Zn       0.14215    0.07827    0.44761    1.000
    O1       O        0.97616    0.07106    0.34236    1.000
    O2       O        0.31380    0.06654    0.37070    1.000
    O3       O        0.82106    0.02645    0.45990    1.000
    O4       O        0.58776    0.32560    0.04185    1.000
    C1       C        0.51920    0.20645    0.20338    1.000
    H1       H        0.44690    0.24000    0.16940    1.000
    C2       C        0.34050    0.13600    0.31792    1.000
    O5       O        0.25548    0.19676    0.29921    1.000
    C3       C        0.48800    0.14399    0.28116    1.000
    C4       C        0.73560    0.10802    0.30724    1.000
    C5       C        0.59620    0.09459    0.33271    1.000
    H2       H        0.57570    0.05240    0.38440    1.000
    C6       C        0.65760    0.21942    0.17573    1.000
    C7       C        0.85300    0.06370    0.37421    1.000
    O6       O        0.81628    0.31415    0.08961    1.000
    C8       C        0.76540    0.16964    0.22781    1.000
    H3       H        0.85780    0.17760    0.20940    1.000
    C9       C        0.69190    0.29087    0.09680    1.000
    Zn2      Zn       0.35785    0.57827    0.05239    1.000
    O7       O        0.52384    0.57106    0.15764    1.000
    O8       O        0.18620    0.56654    0.12930    1.000
    O9       O        0.67894    0.52645    0.04010    1.000
    O10      O        0.91224    0.82560    0.45815    1.000
    C10      C        0.98080    0.70645    0.29662    1.000
    H4       H        0.05310    0.74000    0.33060    1.000
    C11      C        0.15950    0.63600    0.18208    1.000
    O11      O        0.24452    0.69676    0.20079    1.000
    C12      C        0.01200    0.64399    0.21884    1.000
    C13      C        0.76440    0.60802    0.19276    1.000
    C14      C        0.90380    0.59459    0.16729    1.000
    H5       H        0.92430    0.55240    0.11560    1.000
    C15      C        0.84240    0.71942    0.32427    1.000
    C16      C        0.64700    0.56370    0.12579    1.000
    O12      O        0.68372    0.81415    0.41039    1.000
    C17      C        0.73460    0.66964    0.27219    1.000
    H6       H        0.64220    0.67760    0.29060    1.000
    C18      C        0.80810    0.79087    0.40320    1.000
    Zn3      Zn       0.85785    0.92173    0.55239    1.000
    O13      O        0.02384    0.92894    0.65764    1.000
    O14      O        0.68620    0.93346    0.62930    1.000
    O15      O        0.17894    0.97355    0.54010    1.000
    O16      O        0.41224    0.67440    0.95815    1.000
    C19      C        0.48080    0.79355    0.79662    1.000
    H7       H        0.55310    0.76000    0.83060    1.000
    C20      C        0.65950    0.86400    0.68208    1.000
    O17      O        0.74452    0.80324    0.70079    1.000
    C21      C        0.51200    0.85601    0.71884    1.000
    C22      C        0.26440    0.89198    0.69276    1.000
    C23      C        0.40380    0.90541    0.66729    1.000
    H8       H        0.42430    0.94760    0.61560    1.000
    C24      C        0.34240    0.78058    0.82427    1.000
    C25      C        0.14700    0.93630    0.62579    1.000
    O18      O        0.18372    0.68585    0.91039    1.000
    C26      C        0.23460    0.83036    0.77219    1.000
    H9       H        0.14220    0.82240    0.79060    1.000
    C27      C        0.30810    0.70913    0.90320    1.000
    Zn4      Zn       0.64215    0.42173    0.94761    1.000
    O19      O        0.47616    0.42894    0.84236    1.000
    O20      O        0.81380    0.43346    0.87070    1.000
    O21      O        0.32106    0.47355    0.95990    1.000
    O22      O        0.08776    0.17440    0.54185    1.000
    C28      C        0.01920    0.29355    0.70338    1.000
    H10      H        0.94690    0.26000    0.66940    1.000
    C29      C        0.84050    0.36400    0.81792    1.000
    O23      O        0.75548    0.30324    0.79921    1.000
    C30      C        0.98800    0.35601    0.78116    1.000
    C31      C        0.23560    0.39198    0.80724    1.000
    C32      C        0.09620    0.40541    0.83271    1.000
    H11      H        0.07570    0.44760    0.88440    1.000
    C33      C        0.15760    0.28058    0.67573    1.000
    C34      C        0.35300    0.43630    0.87421    1.000
    O24      O        0.31628    0.18585    0.58961    1.000
    C35      C        0.26540    0.33036    0.72781    1.000
    H12      H        0.35780    0.32240    0.70940    1.000
    C36      C        0.19190    0.20913    0.59680    1.000
