# CIF file generated by openbabel 3.1.0, see https://openbabel.org
data_I
_chemical_name_common 'image0'
_cell_length_a 13.0843
_cell_length_b 25.4045
_cell_length_c 16.3416
_cell_angle_alpha 90
_cell_angle_beta 93.974
_cell_angle_gamma 90
_space_group_name_H-M_alt 'P 1'
_space_group_name_Hall 'P 1'
loop_
    _symmetry_equiv_pos_as_xyz
    x,y,z
loop_
    _atom_site_label
    _atom_site_type_symbol
    _atom_site_fract_x
    _atom_site_fract_y
    _atom_site_fract_z
    _atom_site_occupancy
    C1       C        0.54776    0.78317    0.47782    1.000
    C2       C        0.67354    0.73818    0.40145    1.000
    H1       H        0.69720    0.70710    0.37930    1.000
    C3       C        0.22458    0.90102    0.26943    1.000
    C4       C        0.82948    0.67126    0.06082    1.000
    C5       C        0.94466    0.74100    0.26655    1.000
    C6       C        0.91795    0.70104    0.02906    1.000
    C7       C        0.11943    0.72905    0.18648    1.000
    H2       H        0.17910    0.72480    0.15930    1.000
    C8       C        0.72654    0.78457    0.39181    1.000
    C9       C        0.58561    0.73761    0.44378    1.000
    H3       H        0.55100    0.70600    0.44960    1.000
    C10      C        0.82156    0.78948    0.34581    1.000
    C11      C        0.99493    0.78369    0.23377    1.000
    H4       H        0.96820    0.81730    0.23910    1.000
    C12      C        0.98494    0.69110    0.25754    1.000
    H5       H        0.95290    0.66190    0.27860    1.000
    C13      C        0.29730    0.95280    0.38985    1.000
    H6       H        0.31530    0.92110    0.41550    1.000
    C14      C        0.69020    0.83007    0.42625    1.000
    H7       H        0.72540    0.86150    0.42090    1.000
    C15      C        0.24769    0.95240    0.31204    1.000
    C16      C        0.07296    0.68535    0.21710    1.000
    H8       H        0.10100    0.65210    0.21050    1.000
    C17      C        0.91798    0.75554    0.02881    1.000
    H9       H        0.86290    0.77380    0.04800    1.000
    C18      C        0.60250    0.82944    0.46827    1.000
    H10      H        0.57940    0.86060    0.49070    1.000
    N1       N        0.08112    0.77729    0.19471    1.000
    N2       N        0.85458    0.74591    0.30873    1.000
    H11      H        0.81690    0.71830    0.31100    1.000
    O1       O        0.26423    0.86029    0.29660    1.000
    O2       O        0.16410    0.90349    0.20457    1.000
    O3       O        0.38550    0.95705    0.55028    1.000
    O4       O        0.86718    0.83111    0.34337    1.000
    O5       O        0.76940    0.69844    0.10246    1.000
    O6       O        0.81741    0.62457    0.04569    1.000
    O7       O        0.05888    0.86626    0.05091    1.000
    Zn1      Zn       0.15353    0.83879    0.14203    1.000
    C19      C        0.04776    0.28317    0.47782    1.000
    C20      C        0.17354    0.23818    0.40145    1.000
    H12      H        0.19720    0.20710    0.37930    1.000
    C21      C        0.72458    0.40102    0.26943    1.000
    C22      C        0.32948    0.17126    0.06082    1.000
    C23      C        0.44466    0.24100    0.26655    1.000
    C24      C        0.41795    0.20104    0.02906    1.000
    C25      C        0.61943    0.22905    0.18648    1.000
    H13      H        0.67910    0.22480    0.15930    1.000
    C26      C        0.22654    0.28457    0.39181    1.000
    C27      C        0.08561    0.23761    0.44378    1.000
    H14      H        0.05100    0.20600    0.44960    1.000
    C28      C        0.32156    0.28948    0.34581    1.000
    C29      C        0.49493    0.28369    0.23377    1.000
    H15      H        0.46820    0.31730    0.23910    1.000
    C30      C        0.48494    0.19110    0.25754    1.000
    H16      H        0.45290    0.16190    0.27860    1.000
    C31      C        0.79730    0.45280    0.38985    1.000
    H17      H        0.81530    0.42110    0.41550    1.000
    C32      C        0.19020    0.33007    0.42625    1.000
    H18      H        0.22540    0.36150    0.42090    1.000
    C33      C        0.74769    0.45240    0.31204    1.000
    C34      C        0.57296    0.18535    0.21710    1.000
    H19      H        0.60100    0.15210    0.21050    1.000
    C35      C        0.41798    0.25554    0.02881    1.000
    H20      H        0.36290    0.27380    0.04800    1.000
    C36      C        0.10250    0.32944    0.46827    1.000
    H21      H        0.07940    0.36060    0.49070    1.000
    N3       N        0.58112    0.27729    0.19471    1.000
    N4       N        0.35458    0.24591    0.30873    1.000
    H22      H        0.31690    0.21830    0.31100    1.000
    O8       O        0.76423    0.36029    0.29660    1.000
    O9       O        0.66410    0.40349    0.20457    1.000
    O10      O        0.88550    0.45705    0.55028    1.000
    O11      O        0.36718    0.33111    0.34337    1.000
    O12      O        0.26940    0.19844    0.10246    1.000
    O13      O        0.31741    0.12457    0.04569    1.000
    O14      O        0.55888    0.36626    0.05091    1.000
    Zn2      Zn       0.65353    0.33879    0.14203    1.000
    C37      C        0.45224    0.78317    0.52218    1.000
    C38      C        0.32646    0.73818    0.59855    1.000
    H23      H        0.30280    0.70710    0.62070    1.000
    C39      C        0.77542    0.90102    0.73057    1.000
    C40      C        0.17052    0.67126    0.93918    1.000
    C41      C        0.05534    0.74100    0.73345    1.000
    C42      C        0.08205    0.70104    0.97094    1.000
    C43      C        0.88057    0.72905    0.81352    1.000
    H24      H        0.82090    0.72480    0.84070    1.000
    C44      C        0.27346    0.78457    0.60819    1.000
    C45      C        0.41439    0.73761    0.55622    1.000
    H25      H        0.44900    0.70600    0.55040    1.000
    C46      C        0.17844    0.78948    0.65419    1.000
    C47      C        0.00507    0.78369    0.76623    1.000
    H26      H        0.03180    0.81730    0.76090    1.000
    C48      C        0.01506    0.69110    0.74246    1.000
    H27      H        0.04710    0.66190    0.72140    1.000
    C49      C        0.70270    0.95280    0.61015    1.000
    H28      H        0.68470    0.92110    0.58450    1.000
    C50      C        0.30980    0.83007    0.57375    1.000
    H29      H        0.27460    0.86150    0.57910    1.000
    C51      C        0.75231    0.95240    0.68796    1.000
    C52      C        0.92704    0.68535    0.78290    1.000
    H30      H        0.89900    0.65210    0.78950    1.000
    C53      C        0.08202    0.75554    0.97119    1.000
    H31      H        0.13710    0.77380    0.95200    1.000
    C54      C        0.39750    0.82944    0.53173    1.000
    H32      H        0.42060    0.86060    0.50930    1.000
    N5       N        0.91888    0.77729    0.80529    1.000
    N6       N        0.14542    0.74591    0.69127    1.000
    H33      H        0.18310    0.71830    0.68900    1.000
    O15      O        0.73577    0.86029    0.70340    1.000
    O16      O        0.83590    0.90349    0.79543    1.000
    O17      O        0.61450    0.95705    0.44972    1.000
    O18      O        0.13282    0.83111    0.65663    1.000
    O19      O        0.23060    0.69844    0.89754    1.000
    O20      O        0.18259    0.62457    0.95431    1.000
    O21      O        0.94112    0.86626    0.94909    1.000
    Zn3      Zn       0.84647    0.83879    0.85797    1.000
    C55      C        0.95224    0.28317    0.52218    1.000
    C56      C        0.82646    0.23818    0.59855    1.000
    H34      H        0.80280    0.20710    0.62070    1.000
    C57      C        0.27542    0.40102    0.73057    1.000
    C58      C        0.67052    0.17126    0.93918    1.000
    C59      C        0.55534    0.24100    0.73345    1.000
    C60      C        0.58205    0.20104    0.97094    1.000
    C61      C        0.38057    0.22905    0.81352    1.000
    H35      H        0.32090    0.22480    0.84070    1.000
    C62      C        0.77346    0.28457    0.60819    1.000
    C63      C        0.91439    0.23761    0.55622    1.000
    H36      H        0.94900    0.20600    0.55040    1.000
    C64      C        0.67844    0.28948    0.65419    1.000
    C65      C        0.50507    0.28369    0.76623    1.000
    H37      H        0.53180    0.31730    0.76090    1.000
    C66      C        0.51506    0.19110    0.74246    1.000
    H38      H        0.54710    0.16190    0.72140    1.000
    C67      C        0.20270    0.45280    0.61015    1.000
    H39      H        0.18470    0.42110    0.58450    1.000
    C68      C        0.80980    0.33007    0.57375    1.000
    H40      H        0.77460    0.36150    0.57910    1.000
    C69      C        0.25231    0.45240    0.68796    1.000
    C70      C        0.42704    0.18535    0.78290    1.000
    H41      H        0.39900    0.15210    0.78950    1.000
    C71      C        0.58202    0.25554    0.97119    1.000
    H42      H        0.63710    0.27380    0.95200    1.000
    C72      C        0.89750    0.32944    0.53173    1.000
    H43      H        0.92060    0.36060    0.50930    1.000
    N7       N        0.41888    0.27729    0.80529    1.000
    N8       N        0.64542    0.24591    0.69127    1.000
    H44      H        0.68310    0.21830    0.68900    1.000
    O22      O        0.23577    0.36029    0.70340    1.000
    O23      O        0.33590    0.40349    0.79543    1.000
    O24      O        0.11450    0.45705    0.44972    1.000
    O25      O        0.63282    0.33111    0.65663    1.000
    O26      O        0.73060    0.19844    0.89754    1.000
    O27      O        0.68259    0.12457    0.95431    1.000
    O28      O        0.44112    0.36626    0.94909    1.000
    Zn4      Zn       0.34647    0.33879    0.85797    1.000
    C73      C        0.45224    0.21683    0.52218    1.000
    C74      C        0.32646    0.26182    0.59855    1.000
    H45      H        0.30280    0.29290    0.62070    1.000
    C75      C        0.77542    0.09898    0.73057    1.000
    C76      C        0.17052    0.32874    0.93918    1.000
    C77      C        0.05534    0.25900    0.73345    1.000
    C78      C        0.08205    0.29896    0.97094    1.000
    C79      C        0.88057    0.27095    0.81352    1.000
    H46      H        0.82090    0.27520    0.84070    1.000
    C80      C        0.27346    0.21543    0.60819    1.000
    C81      C        0.41439    0.26239    0.55622    1.000
    H47      H        0.44900    0.29400    0.55040    1.000
    C82      C        0.17844    0.21052    0.65419    1.000
    C83      C        0.00507    0.21631    0.76623    1.000
    H48      H        0.03180    0.18270    0.76090    1.000
    C84      C        0.01506    0.30890    0.74246    1.000
    H49      H        0.04710    0.33810    0.72140    1.000
    C85      C        0.70270    0.04720    0.61015    1.000
    H50      H        0.68470    0.07890    0.58450    1.000
    C86      C        0.30980    0.16993    0.57375    1.000
    H51      H        0.27460    0.13850    0.57910    1.000
    C87      C        0.75231    0.04760    0.68796    1.000
    C88      C        0.92704    0.31465    0.78290    1.000
    H52      H        0.89900    0.34790    0.78950    1.000
    C89      C        0.08202    0.24446    0.97119    1.000
    H53      H        0.13710    0.22620    0.95200    1.000
    C90      C        0.39750    0.17056    0.53173    1.000
    H54      H        0.42060    0.13940    0.50930    1.000
    N9       N        0.91888    0.22271    0.80529    1.000
    N10      N        0.14542    0.25409    0.69127    1.000
    H55      H        0.18310    0.28170    0.68900    1.000
    O29      O        0.73577    0.13971    0.70340    1.000
    O30      O        0.83590    0.09651    0.79543    1.000
    O31      O        0.61450    0.04295    0.44972    1.000
    O32      O        0.13282    0.16889    0.65663    1.000
    O33      O        0.23060    0.30156    0.89754    1.000
    O34      O        0.18259    0.37543    0.95431    1.000
    O35      O        0.94112    0.13374    0.94909    1.000
    Zn5      Zn       0.84647    0.16121    0.85797    1.000
    C91      C        0.95224    0.71683    0.52218    1.000
    C92      C        0.82646    0.76182    0.59855    1.000
    H56      H        0.80280    0.79290    0.62070    1.000
    C93      C        0.27542    0.59898    0.73057    1.000
    C94      C        0.67052    0.82874    0.93918    1.000
    C95      C        0.55534    0.75900    0.73345    1.000
    C96      C        0.58205    0.79896    0.97094    1.000
    C97      C        0.38057    0.77095    0.81352    1.000
    H57      H        0.32090    0.77520    0.84070    1.000
    C98      C        0.77346    0.71543    0.60819    1.000
    C99      C        0.91439    0.76239    0.55622    1.000
    H58      H        0.94900    0.79400    0.55040    1.000
    C100     C        0.67844    0.71052    0.65419    1.000
    C101     C        0.50507    0.71631    0.76623    1.000
    H59      H        0.53180    0.68270    0.76090    1.000
    C102     C        0.51506    0.80890    0.74246    1.000
    H60      H        0.54710    0.83810    0.72140    1.000
    C103     C        0.20270    0.54720    0.61015    1.000
    H61      H        0.18470    0.57890    0.58450    1.000
    C104     C        0.80980    0.66993    0.57375    1.000
    H62      H        0.77460    0.63850    0.57910    1.000
    C105     C        0.25231    0.54760    0.68796    1.000
    C106     C        0.42704    0.81465    0.78290    1.000
    H63      H        0.39900    0.84790    0.78950    1.000
    C107     C        0.58202    0.74446    0.97119    1.000
    H64      H        0.63710    0.72620    0.95200    1.000
    C108     C        0.89750    0.67056    0.53173    1.000
    H65      H        0.92060    0.63940    0.50930    1.000
    N11      N        0.41888    0.72271    0.80529    1.000
    N12      N        0.64542    0.75409    0.69127    1.000
    H66      H        0.68310    0.78170    0.68900    1.000
    O36      O        0.23577    0.63971    0.70340    1.000
    O37      O        0.33590    0.59651    0.79543    1.000
    O38      O        0.11450    0.54295    0.44972    1.000
    O39      O        0.63282    0.66889    0.65663    1.000
    O40      O        0.73060    0.80156    0.89754    1.000
    O41      O        0.68259    0.87543    0.95431    1.000
    O42      O        0.44112    0.63374    0.94909    1.000
    Zn6      Zn       0.34647    0.66121    0.85797    1.000
    C109     C        0.54776    0.21683    0.47782    1.000
    C110     C        0.67354    0.26182    0.40145    1.000
    H67      H        0.69720    0.29290    0.37930    1.000
    C111     C        0.22458    0.09898    0.26943    1.000
    C112     C        0.82948    0.32874    0.06082    1.000
    C113     C        0.94466    0.25900    0.26655    1.000
    C114     C        0.91795    0.29896    0.02906    1.000
    C115     C        0.11943    0.27095    0.18648    1.000
    H68      H        0.17910    0.27520    0.15930    1.000
    C116     C        0.72654    0.21543    0.39181    1.000
    C117     C        0.58561    0.26239    0.44378    1.000
    H69      H        0.55100    0.29400    0.44960    1.000
    C118     C        0.82156    0.21052    0.34581    1.000
    C119     C        0.99493    0.21631    0.23377    1.000
    H70      H        0.96820    0.18270    0.23910    1.000
    C120     C        0.98494    0.30890    0.25754    1.000
    H71      H        0.95290    0.33810    0.27860    1.000
    C121     C        0.29730    0.04720    0.38985    1.000
    H72      H        0.31530    0.07890    0.41550    1.000
    C122     C        0.69020    0.16993    0.42625    1.000
    H73      H        0.72540    0.13850    0.42090    1.000
    C123     C        0.24769    0.04760    0.31204    1.000
    C124     C        0.07296    0.31465    0.21710    1.000
    H74      H        0.10100    0.34790    0.21050    1.000
    C125     C        0.91798    0.24446    0.02881    1.000
    H75      H        0.86290    0.22620    0.04800    1.000
    C126     C        0.60250    0.17056    0.46827    1.000
    H76      H        0.57940    0.13940    0.49070    1.000
    N13      N        0.08112    0.22271    0.19471    1.000
    N14      N        0.85458    0.25409    0.30873    1.000
    H77      H        0.81690    0.28170    0.31100    1.000
    O43      O        0.26423    0.13971    0.29660    1.000
    O44      O        0.16410    0.09651    0.20457    1.000
    O45      O        0.38550    0.04295    0.55028    1.000
    O46      O        0.86718    0.16889    0.34337    1.000
    O47      O        0.76940    0.30156    0.10246    1.000
    O48      O        0.81741    0.37543    0.04569    1.000
    O49      O        0.05888    0.13374    0.05091    1.000
    Zn7      Zn       0.15353    0.16121    0.14203    1.000
    C127     C        0.04776    0.71683    0.47782    1.000
    C128     C        0.17354    0.76182    0.40145    1.000
    H78      H        0.19720    0.79290    0.37930    1.000
    C129     C        0.72458    0.59898    0.26943    1.000
    C130     C        0.32948    0.82874    0.06082    1.000
    C131     C        0.44466    0.75900    0.26655    1.000
    C132     C        0.41795    0.79896    0.02906    1.000
    C133     C        0.61943    0.77095    0.18648    1.000
    H79      H        0.67910    0.77520    0.15930    1.000
    C134     C        0.22654    0.71543    0.39181    1.000
    C135     C        0.08561    0.76239    0.44378    1.000
    H80      H        0.05100    0.79400    0.44960    1.000
    C136     C        0.32156    0.71052    0.34581    1.000
    C137     C        0.49493    0.71631    0.23377    1.000
    H81      H        0.46820    0.68270    0.23910    1.000
    C138     C        0.48494    0.80890    0.25754    1.000
    H82      H        0.45290    0.83810    0.27860    1.000
    C139     C        0.79730    0.54720    0.38985    1.000
    H83      H        0.81530    0.57890    0.41550    1.000
    C140     C        0.19020    0.66993    0.42625    1.000
    H84      H        0.22540    0.63850    0.42090    1.000
    C141     C        0.74769    0.54760    0.31204    1.000
    C142     C        0.57296    0.81465    0.21710    1.000
    H85      H        0.60100    0.84790    0.21050    1.000
    C143     C        0.41798    0.74446    0.02881    1.000
    H86      H        0.36290    0.72620    0.04800    1.000
    C144     C        0.10250    0.67056    0.46827    1.000
    H87      H        0.07940    0.63940    0.49070    1.000
    N15      N        0.58112    0.72271    0.19471    1.000
    N16      N        0.35458    0.75409    0.30873    1.000
    H88      H        0.31690    0.78170    0.31100    1.000
    O50      O        0.76423    0.63971    0.29660    1.000
    O51      O        0.66410    0.59651    0.20457    1.000
    O52      O        0.88550    0.54295    0.55028    1.000
    O53      O        0.36718    0.66889    0.34337    1.000
    O54      O        0.26940    0.80156    0.10246    1.000
    O55      O        0.31741    0.87543    0.04569    1.000
    O56      O        0.55888    0.63374    0.05091    1.000
    Zn8      Zn       0.65353    0.66121    0.14203    1.000
    C145     C        0.22200    0.00000    0.27470    1.000
    H89      H        0.18670    0.00000    0.22330    1.000
    C146     C        0.32050    0.00000    0.42980    1.000
    C147     C        0.36850    0.00000    0.51530    1.000
    C148     C        0.72200    0.50000    0.27470    1.000
    H90      H        0.68670    0.50000    0.22330    1.000
    C149     C        0.82050    0.50000    0.42980    1.000
    C150     C        0.86850    0.50000    0.51530    1.000
    C151     C        0.77800    0.00000    0.72530    1.000
    H91      H        0.81330    0.00000    0.77670    1.000
    C152     C        0.67950    0.00000    0.57020    1.000
    C153     C        0.63150    0.00000    0.48470    1.000
    C154     C        0.27800    0.50000    0.72530    1.000
    H92      H        0.31330    0.50000    0.77670    1.000
    C155     C        0.17950    0.50000    0.57020    1.000
    C156     C        0.13150    0.50000    0.48470    1.000
    C157     C        0.00000    0.67390    0.00000    1.000
    H93      H        0.00000    0.63730    0.00000    1.000
    C158     C        0.00000    0.78304    0.00000    1.000
    C159     C        0.00000    0.84201    0.00000    1.000
    C160     C        0.50000    0.17390    0.00000    1.000
    H94      H        0.50000    0.13730    0.00000    1.000
    C161     C        0.50000    0.28304    0.00000    1.000
    C162     C        0.50000    0.34201    0.00000    1.000
    C163     C        0.00000    0.32610    0.00000    1.000
    H95      H        0.00000    0.36270    0.00000    1.000
    C164     C        0.00000    0.21696    0.00000    1.000
    C165     C        0.00000    0.15799    0.00000    1.000
    C166     C        0.50000    0.82610    0.00000    1.000
    H96      H        0.50000    0.86270    0.00000    1.000
    C167     C        0.50000    0.71696    0.00000    1.000
    C168     C        0.50000    0.65799    0.00000    1.000
