# CIF file generated by openbabel 3.1.0, see https://openbabel.org
data_I
_chemical_name_common 'image0'
_cell_length_a 16.804
_cell_length_b 16.228
_cell_length_c 26.461
_cell_angle_alpha 90
_cell_angle_beta 103.17
_cell_angle_gamma 90
_space_group_name_H-M_alt 'P 1'
_space_group_name_Hall 'P 1'
loop_
    _symmetry_equiv_pos_as_xyz
    x,y,z
loop_
    _atom_site_label
    _atom_site_type_symbol
    _atom_site_fract_x
    _atom_site_fract_y
    _atom_site_fract_z
    _atom_site_occupancy
    Cd1      Cd       0.52587    0.29612    0.24280    1.000
    Cd2      Cd       0.61475    0.55013    0.24570    1.000
    Cd3      Cd       0.87528    0.95540    0.24913    1.000
    Cd4      Cd       0.95813    0.20655    0.24826    1.000
    O1       O        0.72640    0.49380    0.29976    1.000
    O2       O        0.67900    0.60250    0.33287    1.000
    O3       O        0.87260    0.14545    0.29645    1.000
    O4       O        0.88570    0.01540    0.32549    1.000
    O5       O        0.61490    0.36110    0.19765    1.000
    O6       O        0.58780    0.48930    0.16807    1.000
    O7       O        0.76440    0.01380    0.19300    1.000
    O8       O        0.82160    0.91000    0.16147    1.000
    O9       O        0.05010    0.20670    0.72580    1.000
    O10      O        0.16850    0.15847    0.71729    1.000
    O11      O        0.00460    0.54350    0.73621    1.000
    O12      O        0.94913    0.42204    0.71638    1.000
    O13      O        0.32570    0.34166    0.78784    1.000
    O14      O        0.43780    0.29360    0.76853    1.000
    O15      O        0.48720    0.95240    0.76167    1.000
    O16      O        0.53980    0.07590    0.77502    1.000
    N1       N        0.00530    0.42220    0.61155    1.000
    N2       N        0.96760    0.34010    0.53470    1.000
    N3       N        0.04960    0.28160    0.61231    1.000
    N4       N        0.93130    0.47890    0.53750    1.000
    H1       H        0.93620    0.52210    0.55680    1.000
    N5       N        0.00520    0.20130    0.54116    1.000
    H2       H        0.02600    0.16220    0.56200    1.000
    N6       N        0.08660    0.36270    0.68531    1.000
    N7       N        0.46940    0.29070    0.95657    1.000
    H3       H        0.43890    0.32610    0.93700    1.000
    N8       N        0.43610    0.21440    0.88290    1.000
    N9       N        0.52630    0.15850    0.95890    1.000
    N10      N        0.48960    0.07820    0.88114    1.000
    N11      N        0.57150    0.02330    0.95340    1.000
    H4       H        0.57100    0.97970    0.93230    1.000
    N12      N        0.40570    0.13630    0.80881    1.000
    C1       C        0.72670    0.54140    0.33774    1.000
    C2       C        0.78390    0.52520    0.38837    1.000
    C3       C        0.80170    0.58640    0.42650    1.000
    H5       H        0.77990    0.63890    0.41950    1.000
    C4       C        0.85170    0.56900    0.47450    1.000
    H6       H        0.86350    0.61060    0.49920    1.000
    C5       C        0.88490    0.49050    0.48680    1.000
    C6       C        0.86980    0.43060    0.44824    1.000
    H7       H        0.89240    0.37840    0.45490    1.000
    C7       C        0.82070    0.44900    0.39973    1.000
    H8       H        0.81230    0.40880    0.37410    1.000
    C8       C        0.96970    0.41080    0.56137    1.000
    C9       C        0.00740    0.27810    0.56290    1.000
    C10      C        0.04530    0.35580    0.63435    1.000
    C11      C        0.97370    0.17820    0.48974    1.000
    C12      C        0.97250    0.22960    0.44795    1.000
    H9       H        0.99200    0.28330    0.45370    1.000
    C13      C        0.94260    0.20230    0.39760    1.000
    H10      H        0.94030    0.23850    0.37010    1.000
    C14      C        0.91640    0.12250    0.38772    1.000
    C15      C        0.91740    0.07010    0.42948    1.000
    H11      H        0.90010    0.01580    0.42350    1.000
    C16      C        0.94380    0.09810    0.47978    1.000
    H12      H        0.94160    0.06330    0.50730    1.000
    C17      C        0.88970    0.09310    0.33227    1.000
    C18      C        0.08970    0.44410    0.70957    1.000
    H13      H        0.10570    0.48460    0.68680    1.000
    H14      H        0.13120    0.44370    0.74170    1.000
    C19      C        0.00910    0.47010    0.72103    1.000
    C20      C        0.14940    0.30150    0.70535    1.000
    H15      H        0.18370    0.32260    0.73720    1.000
    H16      H        0.18350    0.29540    0.68050    1.000
    C21      C        0.11910    0.21700    0.71628    1.000
    C22      C        0.58970    0.41300    0.16239    1.000
    C23      C        0.55930    0.38040    0.10775    1.000
    C24      C        0.58080    0.30280    0.09490    1.000
    H17      H        0.61480    0.27070    0.11990    1.000
    C25      C        0.55280    0.27140    0.04560    1.000
    H18      H        0.56870    0.21900    0.03770    1.000
    C26      C        0.50140    0.31740    0.00761    1.000
    C27      C        0.47880    0.39580    0.02000    1.000
    H19      H        0.44360    0.42710    0.99500    1.000
    C28      C        0.50850    0.42780    0.06940    1.000
    H20      H        0.49440    0.48110    0.07710    1.000
    C29      C        0.47900    0.21750    0.93299    1.000
    C30      C        0.52730    0.09010    0.93112    1.000
    C31      C        0.44610    0.14320    0.85974    1.000
    C32      C        0.61810    0.01270    0.00444    1.000
    C33      C        0.60260    0.05630    0.04790    1.000
    H21      H        0.55940    0.09340    0.04380    1.000
    C34      C        0.65310    0.04230    0.09620    1.000
    H22      H        0.64550    0.07250    0.12450    1.000
    C35      C        0.71570    0.98340    0.10304    1.000
    C36      C        0.72280    0.93840    0.06100    1.000
    H23      H        0.76220    0.89720    0.06520    1.000
    C37      C        0.67350    0.95180    0.01220    1.000
    H24      H        0.67880    0.91840    0.98460    1.000
    C38      C        0.77040    0.96850    0.15516    1.000
    C39      C        0.40220    0.05490    0.78499    1.000
    H25      H        0.36070    0.05530    0.75280    1.000
    H26      H        0.38560    0.01500    0.80790    1.000
    C40      C        0.48160    0.02760    0.77376    1.000
    C41      C        0.34150    0.19670    0.78986    1.000
    H27      H        0.30640    0.19980    0.81430    1.000
    H28      H        0.30840    0.17750    0.75700    1.000
    C42      C        0.37230    0.28200    0.78228    1.000
    C43      C        0.65650    0.07640    0.03580    1.000
    H29      H        0.65290    0.13040    0.02380    1.000
    C44      C        0.69960    0.05780    0.08470    1.000
    H30      H        0.71920    0.10160    0.10670    1.000
    C45      C        0.69090    0.91240    0.06860    1.000
    H31      H        0.70580    0.85870    0.07880    1.000
    C46      C        0.64490    0.93100    0.02110    1.000
    H32      H        0.62960    0.88770    0.99770    1.000
    Cd5      Cd       0.47413    0.79612    0.25720    1.000
    Cd6      Cd       0.38525    0.05013    0.25430    1.000
    Cd7      Cd       0.12472    0.45540    0.25087    1.000
    Cd8      Cd       0.04187    0.70655    0.25174    1.000
    O17      O        0.27360    0.99380    0.20024    1.000
    O18      O        0.32100    0.10250    0.16713    1.000
    O19      O        0.12740    0.64545    0.20355    1.000
    O20      O        0.11430    0.51540    0.17451    1.000
    O21      O        0.38510    0.86110    0.30235    1.000
    O22      O        0.41220    0.98930    0.33193    1.000
    O23      O        0.23560    0.51380    0.30700    1.000
    O24      O        0.17840    0.41000    0.33853    1.000
    O25      O        0.94990    0.70670    0.77420    1.000
    O26      O        0.83150    0.65847    0.78271    1.000
    O27      O        0.99540    0.04350    0.76379    1.000
    O28      O        0.05087    0.92204    0.78362    1.000
    O29      O        0.67430    0.84166    0.71216    1.000
    O30      O        0.56220    0.79360    0.73147    1.000
    O31      O        0.51280    0.45240    0.73833    1.000
    O32      O        0.46020    0.57590    0.72498    1.000
    N13      N        0.99470    0.92220    0.88845    1.000
    N14      N        0.03240    0.84010    0.96530    1.000
    N15      N        0.95040    0.78160    0.88769    1.000
    N16      N        0.06870    0.97890    0.96250    1.000
    H33      H        0.06380    0.02210    0.94320    1.000
    N17      N        0.99480    0.70130    0.95884    1.000
    H34      H        0.97400    0.66220    0.93800    1.000
    N18      N        0.91340    0.86270    0.81469    1.000
    N19      N        0.53060    0.79070    0.54343    1.000
    H35      H        0.56110    0.82610    0.56300    1.000
    N20      N        0.56390    0.71440    0.61710    1.000
    N21      N        0.47370    0.65850    0.54110    1.000
    N22      N        0.51040    0.57820    0.61886    1.000
    N23      N        0.42850    0.52330    0.54660    1.000
    H36      H        0.42900    0.47970    0.56770    1.000
    N24      N        0.59430    0.63630    0.69119    1.000
    C47      C        0.27330    0.04140    0.16226    1.000
    C48      C        0.21610    0.02520    0.11163    1.000
    C49      C        0.19830    0.08640    0.07350    1.000
    H37      H        0.22010    0.13890    0.08050    1.000
    C50      C        0.14830    0.06900    0.02550    1.000
    H38      H        0.13650    0.11060    0.00080    1.000
    C51      C        0.11510    0.99050    0.01320    1.000
    C52      C        0.13020    0.93060    0.05176    1.000
    H39      H        0.10760    0.87840    0.04510    1.000
    C53      C        0.17930    0.94900    0.10027    1.000
    H40      H        0.18770    0.90880    0.12590    1.000
    C54      C        0.03030    0.91080    0.93863    1.000
    C55      C        0.99260    0.77810    0.93710    1.000
    C56      C        0.95470    0.85580    0.86565    1.000
    C57      C        0.02630    0.67820    0.01026    1.000
    C58      C        0.02750    0.72960    0.05205    1.000
    H41      H        0.00800    0.78330    0.04630    1.000
    C59      C        0.05740    0.70230    0.10240    1.000
    H42      H        0.05970    0.73850    0.12990    1.000
    C60      C        0.08360    0.62250    0.11228    1.000
    C61      C        0.08260    0.57010    0.07052    1.000
    H43      H        0.09990    0.51580    0.07650    1.000
    C62      C        0.05620    0.59810    0.02022    1.000
    H44      H        0.05840    0.56330    0.99270    1.000
    C63      C        0.11030    0.59310    0.16773    1.000
    C64      C        0.91030    0.94410    0.79043    1.000
    H45      H        0.89430    0.98460    0.81320    1.000
    H46      H        0.86880    0.94370    0.75830    1.000
    C65      C        0.99090    0.97010    0.77897    1.000
    C66      C        0.85060    0.80150    0.79465    1.000
    H47      H        0.81630    0.82260    0.76280    1.000
    H48      H        0.81650    0.79540    0.81950    1.000
    C67      C        0.88090    0.71700    0.78372    1.000
    C68      C        0.41030    0.91300    0.33761    1.000
    C69      C        0.44070    0.88040    0.39225    1.000
    C70      C        0.41920    0.80280    0.40510    1.000
    H49      H        0.38520    0.77070    0.38010    1.000
    C71      C        0.44720    0.77140    0.45440    1.000
    H50      H        0.43130    0.71900    0.46230    1.000
    C72      C        0.49860    0.81740    0.49239    1.000
    C73      C        0.52120    0.89580    0.48000    1.000
    H51      H        0.55640    0.92710    0.50500    1.000
    C74      C        0.49150    0.92780    0.43060    1.000
    H52      H        0.50560    0.98110    0.42290    1.000
    C75      C        0.52100    0.71750    0.56701    1.000
    C76      C        0.47270    0.59010    0.56888    1.000
    C77      C        0.55390    0.64320    0.64026    1.000
    C78      C        0.38190    0.51270    0.49556    1.000
    C79      C        0.39740    0.55630    0.45210    1.000
    H53      H        0.44060    0.59340    0.45620    1.000
    C80      C        0.34690    0.54230    0.40380    1.000
    H54      H        0.35450    0.57250    0.37550    1.000
    C81      C        0.28430    0.48340    0.39696    1.000
    C82      C        0.27720    0.43840    0.43900    1.000
    H55      H        0.23780    0.39720    0.43480    1.000
    C83      C        0.32650    0.45180    0.48780    1.000
    H56      H        0.32120    0.41840    0.51540    1.000
    C84      C        0.22960    0.46850    0.34484    1.000
    C85      C        0.59780    0.55490    0.71501    1.000
    H57      H        0.63930    0.55530    0.74720    1.000
    H58      H        0.61440    0.51500    0.69210    1.000
    C86      C        0.51840    0.52760    0.72624    1.000
    C87      C        0.65850    0.69670    0.71014    1.000
    H59      H        0.69360    0.69980    0.68570    1.000
    H60      H        0.69160    0.67750    0.74300    1.000
    C88      C        0.62770    0.78200    0.71772    1.000
    C89      C        0.34350    0.57640    0.46420    1.000
    H61      H        0.34710    0.63040    0.47620    1.000
    C90      C        0.30040    0.55780    0.41530    1.000
    H62      H        0.28080    0.60160    0.39330    1.000
    C91      C        0.30910    0.41240    0.43140    1.000
    H63      H        0.29420    0.35870    0.42120    1.000
    C92      C        0.35510    0.43100    0.47890    1.000
    H64      H        0.37040    0.38770    0.50230    1.000
    Cd9      Cd       0.47413    0.70388    0.75720    1.000
    Cd10     Cd       0.38525    0.44987    0.75430    1.000
    Cd11     Cd       0.12472    0.04460    0.75087    1.000
    Cd12     Cd       0.04187    0.79345    0.75174    1.000
    O33      O        0.27360    0.50620    0.70024    1.000
    O34      O        0.32100    0.39750    0.66713    1.000
    O35      O        0.12740    0.85455    0.70355    1.000
    O36      O        0.11430    0.98460    0.67451    1.000
    O37      O        0.38510    0.63890    0.80235    1.000
    O38      O        0.41220    0.51070    0.83193    1.000
    O39      O        0.23560    0.98620    0.80700    1.000
    O40      O        0.17840    0.09000    0.83853    1.000
    O41      O        0.94990    0.79330    0.27420    1.000
    O42      O        0.83150    0.84153    0.28271    1.000
    O43      O        0.99540    0.45650    0.26379    1.000
    O44      O        0.05087    0.57796    0.28362    1.000
    O45      O        0.67430    0.65834    0.21216    1.000
    O46      O        0.56220    0.70640    0.23147    1.000
    O47      O        0.51280    0.04760    0.23833    1.000
    O48      O        0.46020    0.92410    0.22498    1.000
    N25      N        0.99470    0.57780    0.38845    1.000
    N26      N        0.03240    0.65990    0.46530    1.000
    N27      N        0.95040    0.71840    0.38769    1.000
    N28      N        0.06870    0.52110    0.46250    1.000
    H65      H        0.06380    0.47790    0.44320    1.000
    N29      N        0.99480    0.79870    0.45884    1.000
    H66      H        0.97400    0.83780    0.43800    1.000
    N30      N        0.91340    0.63730    0.31469    1.000
    N31      N        0.53060    0.70930    0.04343    1.000
    H67      H        0.56110    0.67390    0.06300    1.000
    N32      N        0.56390    0.78560    0.11710    1.000
    N33      N        0.47370    0.84150    0.04110    1.000
    N34      N        0.51040    0.92180    0.11886    1.000
    N35      N        0.42850    0.97670    0.04660    1.000
    H68      H        0.42900    0.02030    0.06770    1.000
    N36      N        0.59430    0.86370    0.19119    1.000
    C93      C        0.27330    0.45860    0.66226    1.000
    C94      C        0.21610    0.47480    0.61163    1.000
    C95      C        0.19830    0.41360    0.57350    1.000
    H69      H        0.22010    0.36110    0.58050    1.000
    C96      C        0.14830    0.43100    0.52550    1.000
    H70      H        0.13650    0.38940    0.50080    1.000
    C97      C        0.11510    0.50950    0.51320    1.000
    C98      C        0.13020    0.56940    0.55176    1.000
    H71      H        0.10760    0.62160    0.54510    1.000
    C99      C        0.17930    0.55100    0.60027    1.000
    H72      H        0.18770    0.59120    0.62590    1.000
    C100     C        0.03030    0.58920    0.43863    1.000
    C101     C        0.99260    0.72190    0.43710    1.000
    C102     C        0.95470    0.64420    0.36565    1.000
    C103     C        0.02630    0.82180    0.51026    1.000
    C104     C        0.02750    0.77040    0.55205    1.000
    H73      H        0.00800    0.71670    0.54630    1.000
    C105     C        0.05740    0.79770    0.60240    1.000
    H74      H        0.05970    0.76150    0.62990    1.000
    C106     C        0.08360    0.87750    0.61228    1.000
    C107     C        0.08260    0.92990    0.57052    1.000
    H75      H        0.09990    0.98420    0.57650    1.000
    C108     C        0.05620    0.90190    0.52022    1.000
    H76      H        0.05840    0.93670    0.49270    1.000
    C109     C        0.11030    0.90690    0.66773    1.000
    C110     C        0.91030    0.55590    0.29043    1.000
    H77      H        0.89430    0.51540    0.31320    1.000
    H78      H        0.86880    0.55630    0.25830    1.000
    C111     C        0.99090    0.52990    0.27897    1.000
    C112     C        0.85060    0.69850    0.29465    1.000
    H79      H        0.81630    0.67740    0.26280    1.000
    H80      H        0.81650    0.70460    0.31950    1.000
    C113     C        0.88090    0.78300    0.28372    1.000
    C114     C        0.41030    0.58700    0.83761    1.000
    C115     C        0.44070    0.61960    0.89225    1.000
    C116     C        0.41920    0.69720    0.90510    1.000
    H81      H        0.38520    0.72930    0.88010    1.000
    C117     C        0.44720    0.72860    0.95440    1.000
    H82      H        0.43130    0.78100    0.96230    1.000
    C118     C        0.49860    0.68260    0.99239    1.000
    C119     C        0.52120    0.60420    0.98000    1.000
    H83      H        0.55640    0.57290    0.00500    1.000
    C120     C        0.49150    0.57220    0.93060    1.000
    H84      H        0.50560    0.51890    0.92290    1.000
    C121     C        0.52100    0.78250    0.06701    1.000
    C122     C        0.47270    0.90990    0.06888    1.000
    C123     C        0.55390    0.85680    0.14026    1.000
    C124     C        0.38190    0.98730    0.99556    1.000
    C125     C        0.39740    0.94370    0.95210    1.000
    H85      H        0.44060    0.90660    0.95620    1.000
    C126     C        0.34690    0.95770    0.90380    1.000
    H86      H        0.35450    0.92750    0.87550    1.000
    C127     C        0.28430    0.01660    0.89696    1.000
    C128     C        0.27720    0.06160    0.93900    1.000
    H87      H        0.23780    0.10280    0.93480    1.000
    C129     C        0.32650    0.04820    0.98780    1.000
    H88      H        0.32120    0.08160    0.01540    1.000
    C130     C        0.22960    0.03150    0.84484    1.000
    C131     C        0.59780    0.94510    0.21501    1.000
    H89      H        0.63930    0.94470    0.24720    1.000
    H90      H        0.61440    0.98500    0.19210    1.000
    C132     C        0.51840    0.97240    0.22624    1.000
    C133     C        0.65850    0.80330    0.21014    1.000
    H91      H        0.69360    0.80020    0.18570    1.000
    H92      H        0.69160    0.82250    0.24300    1.000
    C134     C        0.62770    0.71800    0.21772    1.000
    C135     C        0.34350    0.92360    0.96420    1.000
    H93      H        0.34710    0.86960    0.97620    1.000
    C136     C        0.30040    0.94220    0.91530    1.000
    H94      H        0.28080    0.89840    0.89330    1.000
    C137     C        0.30910    0.08760    0.93140    1.000
    H95      H        0.29420    0.14130    0.92120    1.000
    C138     C        0.35510    0.06900    0.97890    1.000
    H96      H        0.37040    0.11230    0.00230    1.000
    Cd13     Cd       0.52587    0.20388    0.74280    1.000
    Cd14     Cd       0.61475    0.94987    0.74570    1.000
    Cd15     Cd       0.87528    0.54460    0.74913    1.000
    Cd16     Cd       0.95813    0.29345    0.74826    1.000
    O49      O        0.72640    0.00620    0.79976    1.000
    O50      O        0.67900    0.89750    0.83287    1.000
    O51      O        0.87260    0.35455    0.79645    1.000
    O52      O        0.88570    0.48460    0.82549    1.000
    O53      O        0.61490    0.13890    0.69765    1.000
    O54      O        0.58780    0.01070    0.66807    1.000
    O55      O        0.76440    0.48620    0.69300    1.000
    O56      O        0.82160    0.59000    0.66147    1.000
    O57      O        0.05010    0.29330    0.22580    1.000
    O58      O        0.16850    0.34153    0.21729    1.000
    O59      O        0.00460    0.95650    0.23621    1.000
    O60      O        0.94913    0.07796    0.21638    1.000
    O61      O        0.32570    0.15834    0.28784    1.000
    O62      O        0.43780    0.20640    0.26853    1.000
    O63      O        0.48720    0.54760    0.26167    1.000
    O64      O        0.53980    0.42410    0.27502    1.000
    N37      N        0.00530    0.07780    0.11155    1.000
    N38      N        0.96760    0.15990    0.03470    1.000
    N39      N        0.04960    0.21840    0.11231    1.000
    N40      N        0.93130    0.02110    0.03750    1.000
    H97      H        0.93620    0.97790    0.05680    1.000
    N41      N        0.00520    0.29870    0.04116    1.000
    H98      H        0.02600    0.33780    0.06200    1.000
    N42      N        0.08660    0.13730    0.18531    1.000
    N43      N        0.46940    0.20930    0.45657    1.000
    H99      H        0.43890    0.17390    0.43700    1.000
    N44      N        0.43610    0.28560    0.38290    1.000
    N45      N        0.52630    0.34150    0.45890    1.000
    N46      N        0.48960    0.42180    0.38114    1.000
    N47      N        0.57150    0.47670    0.45340    1.000
    H100     H        0.57100    0.52030    0.43230    1.000
    N48      N        0.40570    0.36370    0.30881    1.000
    C139     C        0.72670    0.95860    0.83774    1.000
    C140     C        0.78390    0.97480    0.88837    1.000
    C141     C        0.80170    0.91360    0.92650    1.000
    H101     H        0.77990    0.86110    0.91950    1.000
    C142     C        0.85170    0.93100    0.97450    1.000
    H102     H        0.86350    0.88940    0.99920    1.000
    C143     C        0.88490    0.00950    0.98680    1.000
    C144     C        0.86980    0.06940    0.94824    1.000
    H103     H        0.89240    0.12160    0.95490    1.000
    C145     C        0.82070    0.05100    0.89973    1.000
    H104     H        0.81230    0.09120    0.87410    1.000
    C146     C        0.96970    0.08920    0.06137    1.000
    C147     C        0.00740    0.22190    0.06290    1.000
    C148     C        0.04530    0.14420    0.13435    1.000
    C149     C        0.97370    0.32180    0.98974    1.000
    C150     C        0.97250    0.27040    0.94795    1.000
    H105     H        0.99200    0.21670    0.95370    1.000
    C151     C        0.94260    0.29770    0.89760    1.000
    H106     H        0.94030    0.26150    0.87010    1.000
    C152     C        0.91640    0.37750    0.88772    1.000
    C153     C        0.91740    0.42990    0.92948    1.000
    H107     H        0.90010    0.48420    0.92350    1.000
    C154     C        0.94380    0.40190    0.97978    1.000
    H108     H        0.94160    0.43670    0.00730    1.000
    C155     C        0.88970    0.40690    0.83227    1.000
    C156     C        0.08970    0.05590    0.20957    1.000
    H109     H        0.10570    0.01540    0.18680    1.000
    H110     H        0.13120    0.05630    0.24170    1.000
    C157     C        0.00910    0.02990    0.22103    1.000
    C158     C        0.14940    0.19850    0.20535    1.000
    H111     H        0.18370    0.17740    0.23720    1.000
    H112     H        0.18350    0.20460    0.18050    1.000
    C159     C        0.11910    0.28300    0.21628    1.000
    C160     C        0.58970    0.08700    0.66239    1.000
    C161     C        0.55930    0.11960    0.60775    1.000
    C162     C        0.58080    0.19720    0.59490    1.000
    H113     H        0.61480    0.22930    0.61990    1.000
    C163     C        0.55280    0.22860    0.54560    1.000
    H114     H        0.56870    0.28100    0.53770    1.000
    C164     C        0.50140    0.18260    0.50761    1.000
    C165     C        0.47880    0.10420    0.52000    1.000
    H115     H        0.44360    0.07290    0.49500    1.000
    C166     C        0.50850    0.07220    0.56940    1.000
    H116     H        0.49440    0.01890    0.57710    1.000
    C167     C        0.47900    0.28250    0.43299    1.000
    C168     C        0.52730    0.40990    0.43112    1.000
    C169     C        0.44610    0.35680    0.35974    1.000
    C170     C        0.61810    0.48730    0.50444    1.000
    C171     C        0.60260    0.44370    0.54790    1.000
    H117     H        0.55940    0.40660    0.54380    1.000
    C172     C        0.65310    0.45770    0.59620    1.000
    H118     H        0.64550    0.42750    0.62450    1.000
    C173     C        0.71570    0.51660    0.60304    1.000
    C174     C        0.72280    0.56160    0.56100    1.000
    H119     H        0.76220    0.60280    0.56520    1.000
    C175     C        0.67350    0.54820    0.51220    1.000
    H120     H        0.67880    0.58160    0.48460    1.000
    C176     C        0.77040    0.53150    0.65516    1.000
    C177     C        0.40220    0.44510    0.28499    1.000
    H121     H        0.36070    0.44470    0.25280    1.000
    H122     H        0.38560    0.48500    0.30790    1.000
    C178     C        0.48160    0.47240    0.27376    1.000
    C179     C        0.34150    0.30330    0.28986    1.000
    H123     H        0.30640    0.30020    0.31430    1.000
    H124     H        0.30840    0.32250    0.25700    1.000
    C180     C        0.37230    0.21800    0.28228    1.000
    C181     C        0.65650    0.42360    0.53580    1.000
    H125     H        0.65290    0.36960    0.52380    1.000
    C182     C        0.69960    0.44220    0.58470    1.000
    H126     H        0.71920    0.39840    0.60670    1.000
    C183     C        0.69090    0.58760    0.56860    1.000
    H127     H        0.70580    0.64130    0.57880    1.000
    C184     C        0.64490    0.56900    0.52110    1.000
    H128     H        0.62960    0.61230    0.49770    1.000
