data_functionalizedCrystal
_audit_creation_method	'EQeq! by Chris Wilmer'
_symmetry_space_group_name_H-M	'P1'
_symmetry_Int_Tables_number	1
_symmetry_cell_setting	triclinic
loop_
_symmetry_equiv_pos_as_xyz
  x,y,z
_cell_length_a	10.877
_cell_length_b	12.829
_cell_length_c	16.881
_cell_angle_alpha	90
_cell_angle_beta	94.445
_cell_angle_gamma	90
loop_
_atom_site_label
_atom_site_type_symbol
_atom_site_fract_x
_atom_site_fract_y
_atom_site_fract_z
_atom_site_charge
Mof_Zn	Zn	0.27607	0.27314	0.40534	1.172
Mof_Zn	Zn	0.79473	0.26017	0.54491	1.172
Mof_Zn	Zn	0.22393	0.77314	0.09466	1.172
Mof_Zn	Zn	0.70527	0.76017	0.95509	1.172
Mof_Zn	Zn	0.72393	0.72686	0.59466	1.173
Mof_Zn	Zn	0.20527	0.73983	0.45509	1.173
Mof_Zn	Zn	0.77607	0.22686	0.90534	1.173
Mof_Zn	Zn	0.29473	0.23983	0.04491	1.173
Mof_H 	H 	0.9334	0.3516	0.7933	0.159
Mof_H 	H 	0.9932	0.3061	0.7168	0.163
Mof_H 	H 	0.8915	0.3963	0.7069	0.167
Mof_H 	H 	0.5257	0.0636	0.6456	0.112
Mof_H 	H 	0.6436	0.0286	0.6012	0.09
Mof_H 	H 	0.5223	0.3348	0.3439	0.151
Mof_H 	H 	0.628	0.3817	0.4049	0.164
Mof_H 	H 	0.6555	0.2811	0.3531	0.167
Mof_H 	H 	0.0164	0.0054	0.3438	0.169
Mof_H 	H 	0.1106	0.0874	0.3105	0.152
Mof_H 	H 	0.1559	0.0105	0.3815	0.152
Mof_H 	H 	0.0336	0.3772	0.5744	0.095
Mof_H 	H 	0.1639	0.3201	0.5892	0.096
Mof_H 	H 	0.3699	0.6129	0.3591	0.158
Mof_H 	H 	0.4493	0.5131	0.388	0.164
Mof_H 	H 	0.3433	0.5024	0.3173	0.167
Mof_H 	H 	0.5666	0.8516	0.7067	0.159
Mof_H 	H 	0.5068	0.8061	0.7832	0.163
Mof_H 	H 	0.6085	0.8963	0.7931	0.167
Mof_H 	H 	0.9743	0.5636	0.8544	0.111
Mof_H 	H 	0.8564	0.5286	0.8988	0.089
Mof_H 	H 	0.9777	0.8348	0.1561	0.153
Mof_H 	H 	0.872	0.8817	0.0951	0.166
Mof_H 	H 	0.8445	0.7811	0.1469	0.168
Mof_H 	H 	0.4836	0.5054	0.1562	0.171
Mof_H 	H 	0.3894	0.5874	0.1895	0.153
Mof_H 	H 	0.3441	0.5105	0.1185	0.153
Mof_H 	H 	0.4664	0.8772	0.9256	0.094
Mof_H 	H 	0.3361	0.8201	0.9108	0.096
Mof_H 	H 	0.1301	0.1129	0.1409	0.157
Mof_H 	H 	0.0507	0.0131	0.112	0.162
Mof_H 	H 	0.1567	0.0024	0.1827	0.165
Mof_H 	H 	0.0666	0.6484	0.2067	0.159
Mof_H 	H 	0.0068	0.6939	0.2832	0.163
Mof_H 	H 	0.1085	0.6037	0.2931	0.167
Mof_H 	H 	0.4743	0.9364	0.3544	0.112
Mof_H 	H 	0.3564	0.9714	0.3988	0.09
Mof_H 	H 	0.4777	0.6652	0.6561	0.151
Mof_H 	H 	0.372	0.6183	0.5951	0.164
Mof_H 	H 	0.3445	0.7189	0.6469	0.167
Mof_H 	H 	0.9836	0.9946	0.6562	0.169
Mof_H 	H 	0.8894	0.9126	0.6895	0.152
Mof_H 	H 	0.8441	0.9895	0.6185	0.152
Mof_H 	H 	0.9664	0.6228	0.4256	0.095
Mof_H 	H 	0.8361	0.6799	0.4108	0.096
Mof_H 	H 	0.6301	0.3871	0.6409	0.158
Mof_H 	H 	0.5507	0.4869	0.612	0.164
Mof_H 	H 	0.6567	0.4976	0.6827	0.167
Mof_H 	H 	0.4334	0.1484	0.2933	0.159
Mof_H 	H 	0.4932	0.1939	0.2168	0.163
Mof_H 	H 	0.3915	0.1037	0.2069	0.167
Mof_H 	H 	0.0257	0.4364	0.1456	0.111
Mof_H 	H 	0.1436	0.4714	0.1012	0.089
Mof_H 	H 	0.0223	0.1652	0.8439	0.153
Mof_H 	H 	0.128	0.1183	0.9049	0.166
Mof_H 	H 	0.1555	0.2189	0.8531	0.168
Mof_H 	H 	0.5164	0.4946	0.8438	0.171
Mof_H 	H 	0.6106	0.4126	0.8105	0.153
Mof_H 	H 	0.6559	0.4895	0.8815	0.153
Mof_H 	H 	0.5336	0.1228	0.0744	0.094
Mof_H 	H 	0.6639	0.1799	0.0892	0.096
Mof_H 	H 	0.8699	0.8871	0.8591	0.157
Mof_H 	H 	0.9493	0.9869	0.888	0.162
Mof_H 	H 	0.8433	0.9976	0.8173	0.165
Mof_C 	C 	0.9176	0.3337	0.737	-0.606
Mof_C 	C 	0.8184	0.2534	0.7277	0.215
Mof_C 	C 	0.6799	0.151	0.678	0.148
Mof_C 	C 	0.5975	0.0898	0.6188	-0.339
Mof_C 	C 	0.5518	0.1515	0.5476	0.161
Mof_C 	C 	0.551	0.2488	0.4452	0.214
Mof_C 	C 	0.5928	0.3175	0.3813	-0.604
Mof_C 	C 	0.0863	0.0516	0.3582	-0.57
Mof_C 	C 	0.0502	0.1299	0.4168	0.223
Mof_C 	C 	0.0566	0.2588	0.496	0.159
Mof_C 	C 	0.1035	0.3476	0.5475	-0.357
Mof_C 	C 	0.1635	0.4338	0.5042	0.164
Mof_C 	C 	0.2758	0.5129	0.4268	0.22
Mof_C 	C 	0.3675	0.5374	0.3677	-0.603
Mof_C 	C 	0.5824	0.8337	0.763	-0.606
Mof_C 	C 	0.6816	0.7534	0.7723	0.215
Mof_C 	C 	0.8201	0.651	0.822	0.148
Mof_C 	C 	0.9025	0.5898	0.8812	-0.338
Mof_C 	C 	0.9482	0.6515	0.9524	0.159
Mof_C 	C 	0.949	0.7488	0.0548	0.218
Mof_C 	C 	0.9072	0.8175	0.1187	-0.607
Mof_C 	C 	0.4137	0.5516	0.1418	-0.572
Mof_C 	C 	0.4498	0.6299	0.0832	0.225
Mof_C 	C 	0.4434	0.7588	0.004	0.161
Mof_C 	C 	0.3965	0.8476	0.9525	-0.357
Mof_C 	C 	0.3365	0.9338	0.9958	0.161
Mof_C 	C 	0.2242	0.0129	0.0732	0.217
Mof_C 	C 	0.1325	0.0374	0.1323	-0.599
Mof_C 	C 	0.0824	0.6663	0.263	-0.606
Mof_C 	C 	0.1816	0.7466	0.2723	0.215
Mof_C 	C 	0.3201	0.849	0.322	0.148
Mof_C 	C 	0.4025	0.9102	0.3812	-0.339
Mof_C 	C 	0.4482	0.8485	0.4524	0.161
Mof_C 	C 	0.449	0.7512	0.5548	0.214
Mof_C 	C 	0.4072	0.6825	0.6187	-0.604
Mof_C 	C 	0.9137	0.9484	0.6418	-0.57
Mof_C 	C 	0.9498	0.8701	0.5832	0.223
Mof_C 	C 	0.9434	0.7412	0.504	0.159
Mof_C 	C 	0.8965	0.6524	0.4525	-0.357
Mof_C 	C 	0.8365	0.5662	0.4958	0.164
Mof_C 	C 	0.7242	0.4871	0.5732	0.22
Mof_C 	C 	0.6325	0.4626	0.6323	-0.603
Mof_C 	C 	0.4176	0.1663	0.237	-0.606
Mof_C 	C 	0.3184	0.2466	0.2277	0.215
Mof_C 	C 	0.1799	0.349	0.178	0.148
Mof_C 	C 	0.0975	0.4102	0.1188	-0.338
Mof_C 	C 	0.0518	0.3485	0.0476	0.159
Mof_C 	C 	0.051	0.2512	0.9452	0.218
Mof_C 	C 	0.0928	0.1825	0.8813	-0.607
Mof_C 	C 	0.5863	0.4484	0.8582	-0.572
Mof_C 	C 	0.5502	0.3701	0.9168	0.225
Mof_C 	C 	0.5566	0.2412	0.996	0.161
Mof_C 	C 	0.6035	0.1524	0.0475	-0.357
Mof_C 	C 	0.6635	0.0662	0.0042	0.161
Mof_C 	C 	0.7758	0.9871	0.9268	0.217
Mof_C 	C 	0.8675	0.9626	0.8677	-0.599
Mof_N 	N 	0.1242	0.2091	0.4446	-0.332
Mof_N 	N 	0.9412	0.1304	0.4475	-0.159
Mof_N 	N 	0.9472	0.2148	0.4987	-0.282
Mof_N 	N 	0.247	0.4161	0.44956	-0.331
Mof_N 	N 	0.1418	0.5326	0.51574	-0.145
Mof_N 	N 	0.2149	0.5845	0.4645	-0.291
Mof_N 	N 	0.4359	0.2178	0.452	-0.296
Mof_N 	N 	0.4355	0.1543	0.519	-0.149
Mof_N 	N 	0.6276	0.2093	0.50425	-0.332
Mof_N 	N 	0.7708	0.2165	0.65742	-0.335
Mof_N 	N 	0.6714	0.1448	0.755	-0.151
Mof_N 	N 	0.7617	0.2128	0.7872	-0.294
Mof_N 	N 	0.3758	0.7091	0.0554	-0.333
Mof_N 	N 	0.5588	0.6304	0.0525	-0.16
Mof_N 	N 	0.5528	0.7148	0.0013	-0.283
Mof_N 	N 	0.253	0.9161	0.05044	-0.328
Mof_N 	N 	0.3582	0.0326	0.98426	-0.143
Mof_N 	N 	0.2851	0.0845	0.0355	-0.291
Mof_N 	N 	0.0641	0.7178	0.048	-0.297
Mof_N 	N 	0.0645	0.6543	0.981	-0.148
Mof_N 	N 	0.8724	0.7093	0.99575	-0.333
Mof_N 	N 	0.7292	0.7165	0.84258	-0.335
Mof_N 	N 	0.8286	0.6448	0.745	-0.151
Mof_N 	N 	0.7383	0.7128	0.7128	-0.294
Mof_N 	N 	0.8758	0.7909	0.5554	-0.332
Mof_N 	N 	0.0588	0.8696	0.5525	-0.159
Mof_N 	N 	0.0528	0.7852	0.5013	-0.282
Mof_N 	N 	0.753	0.5839	0.55044	-0.331
Mof_N 	N 	0.8582	0.4674	0.48426	-0.145
Mof_N 	N 	0.7851	0.4155	0.5355	-0.291
Mof_N 	N 	0.5641	0.7822	0.548	-0.296
Mof_N 	N 	0.5645	0.8457	0.481	-0.149
Mof_N 	N 	0.3724	0.7907	0.49575	-0.332
Mof_N 	N 	0.2292	0.7835	0.34258	-0.335
Mof_N 	N 	0.3286	0.8552	0.245	-0.151
Mof_N 	N 	0.2383	0.7872	0.2128	-0.294
Mof_N 	N 	0.6242	0.2909	0.9446	-0.333
Mof_N 	N 	0.4412	0.3696	0.9475	-0.16
Mof_N 	N 	0.4472	0.2852	0.9987	-0.283
Mof_N 	N 	0.747	0.0839	0.94956	-0.328
Mof_N 	N 	0.6418	0.9674	0.01574	-0.143
Mof_N 	N 	0.7149	0.9155	0.9645	-0.291
Mof_N 	N 	0.9359	0.2822	0.952	-0.297
Mof_N 	N 	0.9355	0.3457	0.019	-0.148
Mof_N 	N 	0.1276	0.2907	0.00425	-0.333
Mof_N 	N 	0.2708	0.2835	0.15742	-0.335
Mof_N 	N 	0.1714	0.3552	0.255	-0.151
Mof_N 	N 	0.2617	0.2872	0.2872	-0.294
_end
