data_functionalizedCrystal
_audit_creation_method	'EQeq! by Chris Wilmer'
_symmetry_space_group_name_H-M	'P1'
_symmetry_Int_Tables_number	1
_symmetry_cell_setting	triclinic
loop_
_symmetry_equiv_pos_as_xyz
  x,y,z
_cell_length_a	7.973
_cell_length_b	8.423
_cell_length_c	8.834
_cell_angle_alpha	116.834
_cell_angle_beta	100.992
_cell_angle_gamma	103.428
loop_
_atom_site_label
_atom_site_type_symbol
_atom_site_fract_x
_atom_site_fract_y
_atom_site_fract_z
_atom_site_charge
Mof_Ga	Ga	0.67761	0.27979	0.31353	4.317
Mof_Ga	Ga	0.23079	0.46236	0.00653	4.034
Mof_P 	P 	0.45955	0.19027	0.91224	1.133
Mof_P 	P 	0.9611	0.50767	0.73468	1.044
Mof_C 	C 	0.5585	0.5827	0.4961	0.354
Mof_O 	O 	0.6735	0.5544	0.4195	-0.885
Mof_O 	O 	0.5271	0.7352	0.5716	-0.814
Mof_O 	O 	0.4948	0.212	0.0959	-1.177
Mof_O 	O 	0.3686	0.9833	0.7574	-1.026
Mof_O 	O 	0.3297	0.2935	0.885	-1.229
Mof_O 	O 	0.6363	0.283	0.8877	-1.197
Mof_O 	O 	0.0252	0.3992	0.8245	-1.213
Mof_O 	O 	0.8306	0.5917	0.8281	-1.171
Mof_O 	O 	0.8551	0.3563	0.5393	-1.051
Mof_O 	O 	0.1221	0.6714	0.7699	-1.118
Mof_Ga	Ga	0.32239	0.72021	0.68647	4.316
Mof_Ga	Ga	0.76921	0.53764	0.99347	4.033
Mof_P 	P 	0.54045	0.80973	0.08776	1.133
Mof_P 	P 	0.0389	0.49233	0.26532	1.044
Mof_C 	C 	0.4415	0.4173	0.5039	0.354
Mof_O 	O 	0.3265	0.4456	0.5805	-0.885
Mof_O 	O 	0.4729	0.2648	0.4284	-0.814
Mof_O 	O 	0.5052	0.788	0.9041	-1.177
Mof_O 	O 	0.6314	0.0167	0.2426	-1.026
Mof_O 	O 	0.6703	0.7065	0.115	-1.229
Mof_O 	O 	0.3637	0.717	0.1123	-1.197
Mof_O 	O 	0.9748	0.6008	0.1755	-1.213
Mof_O 	O 	0.1694	0.4083	0.1719	-1.171
Mof_O 	O 	0.1449	0.6437	0.4607	-1.051
Mof_O 	O 	0.8779	0.3286	0.2301	-1.118
_end
