# CIF file generated by openbabel 3.1.0, see https://openbabel.org
data_I
_chemical_name_common 'image0'
_cell_length_a 25.1335
_cell_length_b 25.1335
_cell_length_c 9.7454
_cell_angle_alpha 90
_cell_angle_beta 90
_cell_angle_gamma 90
_space_group_name_H-M_alt 'P 1'
_space_group_name_Hall 'P 1'
loop_
    _symmetry_equiv_pos_as_xyz
    x,y,z
loop_
    _atom_site_label
    _atom_site_type_symbol
    _atom_site_fract_x
    _atom_site_fract_y
    _atom_site_fract_z
    _atom_site_occupancy
    In1      In       0.70316    0.35607    0.69672    1.000
    O1       O        0.74059    0.38163    0.49200    1.000
    O2       O        0.81463    0.41697    0.40450    1.000
    O3       O        0.78095    0.39210    0.74420    1.000
    O4       O        0.84779    0.44036    0.65830    1.000
    O5       O        0.73437    0.28084    0.59630    1.000
    O6       O        0.76872    0.20055    0.63550    1.000
    O7       O        0.64038    0.33544    0.53890    1.000
    O8       O        0.55309    0.32806    0.50550    1.000
    O9       O        0.62885    0.32812    0.80420    1.000
    O10      O        0.54140    0.33075    0.78860    1.000
    C1       C        0.78539    0.40324    0.50160    1.000
    C2       C        0.80659    0.41323    0.64760    1.000
    C3       C        0.75117    0.24477    0.67240    1.000
    C4       C        0.59266    0.33140    0.57980    1.000
    C5       C        0.58556    0.33006    0.73660    1.000
    In2      In       0.20316    0.85607    0.19672    1.000
    O11      O        0.24059    0.88163    0.99200    1.000
    O12      O        0.31463    0.91697    0.90450    1.000
    O13      O        0.28095    0.89210    0.24420    1.000
    O14      O        0.34779    0.94036    0.15830    1.000
    O15      O        0.23437    0.78084    0.09630    1.000
    O16      O        0.26872    0.70055    0.13550    1.000
    O17      O        0.14038    0.83544    0.03890    1.000
    O18      O        0.05309    0.82806    0.00550    1.000
    O19      O        0.12885    0.82812    0.30420    1.000
    O20      O        0.04140    0.83075    0.28860    1.000
    C6       C        0.28539    0.90324    0.00160    1.000
    C7       C        0.30659    0.91323    0.14760    1.000
    C8       C        0.25117    0.74477    0.17240    1.000
    C9       C        0.09266    0.83140    0.07980    1.000
    C10      C        0.08556    0.83006    0.23660    1.000
    In3      In       0.79684    0.64393    0.19672    1.000
    O21      O        0.75941    0.61837    0.99200    1.000
    O22      O        0.68537    0.58303    0.90450    1.000
    O23      O        0.71905    0.60790    0.24420    1.000
    O24      O        0.65221    0.55964    0.15830    1.000
    O25      O        0.76563    0.71916    0.09630    1.000
    O26      O        0.73128    0.79945    0.13550    1.000
    O27      O        0.85962    0.66456    0.03890    1.000
    O28      O        0.94691    0.67194    0.00550    1.000
    O29      O        0.87115    0.67188    0.30420    1.000
    O30      O        0.95860    0.66925    0.28860    1.000
    C11      C        0.71461    0.59676    0.00160    1.000
    C12      C        0.69341    0.58677    0.14760    1.000
    C13      C        0.74883    0.75523    0.17240    1.000
    C14      C        0.90734    0.66860    0.07980    1.000
    C15      C        0.91444    0.66994    0.23660    1.000
    In4      In       0.29684    0.14393    0.69672    1.000
    O31      O        0.25941    0.11837    0.49200    1.000
    O32      O        0.18537    0.08303    0.40450    1.000
    O33      O        0.21905    0.10790    0.74420    1.000
    O34      O        0.15221    0.05964    0.65830    1.000
    O35      O        0.26563    0.21916    0.59630    1.000
    O36      O        0.23128    0.29945    0.63550    1.000
    O37      O        0.35962    0.16456    0.53890    1.000
    O38      O        0.44691    0.17194    0.50550    1.000
    O39      O        0.37115    0.17188    0.80420    1.000
    O40      O        0.45860    0.16925    0.78860    1.000
    C16      C        0.21461    0.09676    0.50160    1.000
    C17      C        0.19341    0.08677    0.64760    1.000
    C18      C        0.24883    0.25523    0.67240    1.000
    C19      C        0.40734    0.16860    0.57980    1.000
    C20      C        0.41444    0.16994    0.73660    1.000
    In5      In       0.39393    0.95316    0.94672    1.000
    O41      O        0.36837    0.99059    0.74200    1.000
    O42      O        0.33303    0.06463    0.65450    1.000
    O43      O        0.35790    0.03095    0.99420    1.000
    O44      O        0.30964    0.09779    0.90830    1.000
    O45      O        0.46916    0.98437    0.84630    1.000
    O46      O        0.54945    0.01872    0.88550    1.000
    O47      O        0.41456    0.89038    0.78890    1.000
    O48      O        0.42194    0.80309    0.75550    1.000
    O49      O        0.42188    0.87885    0.05420    1.000
    O50      O        0.41925    0.79140    0.03860    1.000
    C21      C        0.34676    0.03539    0.75160    1.000
    C22      C        0.33677    0.05659    0.89760    1.000
    C23      C        0.50523    0.00117    0.92240    1.000
    C24      C        0.41860    0.84266    0.82980    1.000
    C25      C        0.41994    0.83556    0.98660    1.000
    In6      In       0.89393    0.45316    0.44672    1.000
    O51      O        0.86837    0.49059    0.24200    1.000
    O52      O        0.83303    0.56463    0.15450    1.000
    O53      O        0.85790    0.53095    0.49420    1.000
    O54      O        0.80964    0.59779    0.40830    1.000
    O55      O        0.96916    0.48437    0.34630    1.000
    O56      O        0.04945    0.51872    0.38550    1.000
    O57      O        0.91456    0.39038    0.28890    1.000
    O58      O        0.92194    0.30309    0.25550    1.000
    O59      O        0.92188    0.37885    0.55420    1.000
    O60      O        0.91925    0.29140    0.53860    1.000
    C26      C        0.84676    0.53539    0.25160    1.000
    C27      C        0.83677    0.55659    0.39760    1.000
    C28      C        0.00523    0.50117    0.42240    1.000
    C29      C        0.91860    0.34266    0.32980    1.000
    C30      C        0.91994    0.33556    0.48660    1.000
    In7      In       0.10607    0.04684    0.44672    1.000
    O61      O        0.13163    0.00941    0.24200    1.000
    O62      O        0.16697    0.93537    0.15450    1.000
    O63      O        0.14210    0.96905    0.49420    1.000
    O64      O        0.19036    0.90221    0.40830    1.000
    O65      O        0.03084    0.01563    0.34630    1.000
    O66      O        0.95055    0.98128    0.38550    1.000
    O67      O        0.08544    0.10962    0.28890    1.000
    O68      O        0.07806    0.19691    0.25550    1.000
    O69      O        0.07812    0.12115    0.55420    1.000
    O70      O        0.08075    0.20860    0.53860    1.000
    C31      C        0.15324    0.96461    0.25160    1.000
    C32      C        0.16323    0.94341    0.39760    1.000
    C33      C        0.99477    0.99883    0.42240    1.000
    C34      C        0.08140    0.15734    0.32980    1.000
    C35      C        0.08006    0.16444    0.48660    1.000
    In8      In       0.60607    0.54684    0.94672    1.000
    O71      O        0.63163    0.50941    0.74200    1.000
    O72      O        0.66697    0.43537    0.65450    1.000
    O73      O        0.64210    0.46905    0.99420    1.000
    O74      O        0.69036    0.40221    0.90830    1.000
    O75      O        0.53084    0.51563    0.84630    1.000
    O76      O        0.45055    0.48128    0.88550    1.000
    O77      O        0.58544    0.60962    0.78890    1.000
    O78      O        0.57806    0.69691    0.75550    1.000
    O79      O        0.57812    0.62115    0.05420    1.000
    O80      O        0.58075    0.70860    0.03860    1.000
    C36      C        0.65324    0.46461    0.75160    1.000
    C37      C        0.66323    0.44341    0.89760    1.000
    C38      C        0.49477    0.49883    0.92240    1.000
    C39      C        0.58140    0.65734    0.82980    1.000
    C40      C        0.58006    0.66444    0.98660    1.000
    In9      In       0.29684    0.64393    0.30328    1.000
    O81      O        0.25941    0.61837    0.50800    1.000
    O82      O        0.18537    0.58303    0.59550    1.000
    O83      O        0.21905    0.60790    0.25580    1.000
    O84      O        0.15221    0.55964    0.34170    1.000
    O85      O        0.26563    0.71916    0.40370    1.000
    O86      O        0.23128    0.79945    0.36450    1.000
    O87      O        0.35962    0.66456    0.46110    1.000
    O88      O        0.44691    0.67194    0.49450    1.000
    O89      O        0.37115    0.67188    0.19580    1.000
    O90      O        0.45860    0.66925    0.21140    1.000
    C41      C        0.21461    0.59676    0.49840    1.000
    C42      C        0.19341    0.58677    0.35240    1.000
    C43      C        0.24883    0.75523    0.32760    1.000
    C44      C        0.40734    0.66860    0.42020    1.000
    C45      C        0.41444    0.66994    0.26340    1.000
    In10     In       0.79684    0.14393    0.80328    1.000
    O91      O        0.75941    0.11837    0.00800    1.000
    O92      O        0.68537    0.08303    0.09550    1.000
    O93      O        0.71905    0.10790    0.75580    1.000
    O94      O        0.65221    0.05964    0.84170    1.000
    O95      O        0.76563    0.21916    0.90370    1.000
    O96      O        0.73128    0.29945    0.86450    1.000
    O97      O        0.85962    0.16456    0.96110    1.000
    O98      O        0.94691    0.17194    0.99450    1.000
    O99      O        0.87115    0.17188    0.69580    1.000
    O100     O        0.95860    0.16925    0.71140    1.000
    C46      C        0.71461    0.09676    0.99840    1.000
    C47      C        0.69341    0.08677    0.85240    1.000
    C48      C        0.74883    0.25523    0.82760    1.000
    C49      C        0.90734    0.16860    0.92020    1.000
    C50      C        0.91444    0.16994    0.76340    1.000
    In11     In       0.20316    0.35607    0.80328    1.000
    O101     O        0.24059    0.38163    0.00800    1.000
    O102     O        0.31463    0.41697    0.09550    1.000
    O103     O        0.28095    0.39210    0.75580    1.000
    O104     O        0.34779    0.44036    0.84170    1.000
    O105     O        0.23437    0.28084    0.90370    1.000
    O106     O        0.26872    0.20055    0.86450    1.000
    O107     O        0.14038    0.33544    0.96110    1.000
    O108     O        0.05309    0.32806    0.99450    1.000
    O109     O        0.12885    0.32812    0.69580    1.000
    O110     O        0.04140    0.33075    0.71140    1.000
    C51      C        0.28539    0.40324    0.99840    1.000
    C52      C        0.30659    0.41323    0.85240    1.000
    C53      C        0.25117    0.24477    0.82760    1.000
    C54      C        0.09266    0.33140    0.92020    1.000
    C55      C        0.08556    0.33006    0.76340    1.000
    In12     In       0.70316    0.85607    0.30328    1.000
    O111     O        0.74059    0.88163    0.50800    1.000
    O112     O        0.81463    0.91697    0.59550    1.000
    O113     O        0.78095    0.89210    0.25580    1.000
    O114     O        0.84779    0.94036    0.34170    1.000
    O115     O        0.73437    0.78084    0.40370    1.000
    O116     O        0.76872    0.70055    0.36450    1.000
    O117     O        0.64038    0.83544    0.46110    1.000
    O118     O        0.55309    0.82806    0.49450    1.000
    O119     O        0.62885    0.82812    0.19580    1.000
    O120     O        0.54140    0.83075    0.21140    1.000
    C56      C        0.78539    0.90324    0.49840    1.000
    C57      C        0.80659    0.91323    0.35240    1.000
    C58      C        0.75117    0.74477    0.32760    1.000
    C59      C        0.59266    0.83140    0.42020    1.000
    C60      C        0.58556    0.83006    0.26340    1.000
    In13     In       0.60607    0.04684    0.05328    1.000
    O121     O        0.63163    0.00941    0.25800    1.000
    O122     O        0.66697    0.93537    0.34550    1.000
    O123     O        0.64210    0.96905    0.00580    1.000
    O124     O        0.69036    0.90221    0.09170    1.000
    O125     O        0.53084    0.01563    0.15370    1.000
    O126     O        0.45055    0.98128    0.11450    1.000
    O127     O        0.58544    0.10962    0.21110    1.000
    O128     O        0.57806    0.19691    0.24450    1.000
    O129     O        0.57812    0.12115    0.94580    1.000
    O130     O        0.58075    0.20860    0.96140    1.000
    C61      C        0.65324    0.96461    0.24840    1.000
    C62      C        0.66323    0.94341    0.10240    1.000
    C63      C        0.49477    0.99883    0.07760    1.000
    C64      C        0.58140    0.15734    0.17020    1.000
    C65      C        0.58006    0.16444    0.01340    1.000
    In14     In       0.10607    0.54684    0.55328    1.000
    O131     O        0.13163    0.50941    0.75800    1.000
    O132     O        0.16697    0.43537    0.84550    1.000
    O133     O        0.14210    0.46905    0.50580    1.000
    O134     O        0.19036    0.40221    0.59170    1.000
    O135     O        0.03084    0.51563    0.65370    1.000
    O136     O        0.95055    0.48128    0.61450    1.000
    O137     O        0.08544    0.60962    0.71110    1.000
    O138     O        0.07806    0.69691    0.74450    1.000
    O139     O        0.07812    0.62115    0.44580    1.000
    O140     O        0.08075    0.70860    0.46140    1.000
    C66      C        0.15324    0.46461    0.74840    1.000
    C67      C        0.16323    0.44341    0.60240    1.000
    C68      C        0.99477    0.49883    0.57760    1.000
    C69      C        0.08140    0.65734    0.67020    1.000
    C70      C        0.08006    0.66444    0.51340    1.000
    In15     In       0.89393    0.95316    0.55328    1.000
    O141     O        0.86837    0.99059    0.75800    1.000
    O142     O        0.83303    0.06463    0.84550    1.000
    O143     O        0.85790    0.03095    0.50580    1.000
    O144     O        0.80964    0.09779    0.59170    1.000
    O145     O        0.96916    0.98437    0.65370    1.000
    O146     O        0.04945    0.01872    0.61450    1.000
    O147     O        0.91456    0.89038    0.71110    1.000
    O148     O        0.92194    0.80309    0.74450    1.000
    O149     O        0.92188    0.87885    0.44580    1.000
    O150     O        0.91925    0.79140    0.46140    1.000
    C71      C        0.84676    0.03539    0.74840    1.000
    C72      C        0.83677    0.05659    0.60240    1.000
    C73      C        0.00523    0.00117    0.57760    1.000
    C74      C        0.91860    0.84266    0.67020    1.000
    C75      C        0.91994    0.83556    0.51340    1.000
    In16     In       0.39393    0.45316    0.05328    1.000
    O151     O        0.36837    0.49059    0.25800    1.000
    O152     O        0.33303    0.56463    0.34550    1.000
    O153     O        0.35790    0.53095    0.00580    1.000
    O154     O        0.30964    0.59779    0.09170    1.000
    O155     O        0.46916    0.48437    0.15370    1.000
    O156     O        0.54945    0.51872    0.11450    1.000
    O157     O        0.41456    0.39038    0.21110    1.000
    O158     O        0.42194    0.30309    0.24450    1.000
    O159     O        0.42188    0.37885    0.94580    1.000
    O160     O        0.41925    0.29140    0.96140    1.000
    C76      C        0.34676    0.53539    0.24840    1.000
    C77      C        0.33677    0.55659    0.10240    1.000
    C78      C        0.50523    0.50117    0.07760    1.000
    C79      C        0.41860    0.34266    0.17020    1.000
    C80      C        0.41994    0.33556    0.01340    1.000
