# CIF file generated by openbabel 3.1.0, see https://openbabel.org
data_I
_chemical_name_common 'image0'
_cell_length_a 7.705
_cell_length_b 11.9893
_cell_length_c 12.1828
_cell_angle_alpha 112.143
_cell_angle_beta 89.979
_cell_angle_gamma 99.58
_space_group_name_H-M_alt 'P 1'
_space_group_name_Hall 'P 1'
loop_
    _symmetry_equiv_pos_as_xyz
    x,y,z
loop_
    _atom_site_label
    _atom_site_type_symbol
    _atom_site_fract_x
    _atom_site_fract_y
    _atom_site_fract_z
    _atom_site_occupancy
    Gd1      Gd       0.99240    0.14628    0.85478    1.000
    Gd2      Gd       0.49230    0.14571    0.75328    1.000
    C1       C        0.64100    0.13700    0.01800    1.000
    C2       C        0.77200    0.18300    0.22300    1.000
    H1       H        0.74280    0.21360    0.30560    1.000
    H2       H        0.85990    0.24630    0.21350    1.000
    C3       C        0.85200    0.07400    0.20100    1.000
    C4       C        0.64100    0.92600    0.64600    1.000
    C5       C        0.71900    0.81200    0.59100    1.000
    H3       H        0.63310    0.74840    0.53380    1.000
    H4       H        0.74850    0.78360    0.65200    1.000
    C6       C        0.75800    0.52900    0.13800    1.000
    H5       H        0.88570    0.54970    0.15030    1.000
    H6       H        0.71570    0.48140    0.18480    1.000
    C7       C        0.68400    0.64200    0.17900    1.000
    C8       C        0.85600    0.85900    0.41900    1.000
    C9       C        0.89800    0.83800    0.52400    1.000
    H7       H        0.97770    0.90840    0.57840    1.000
    H8       H        0.95670    0.76760    0.50230    1.000
    C10      C        0.70600    0.45100    0.00400    1.000
    H9       H        0.58290    0.41200    0.99550    1.000
    H10      H        0.71750    0.50450    0.96070    1.000
    C11      C        0.81600    0.35600    0.95300    1.000
    O1       O        0.77600    0.27350    0.84620    1.000
    O2       O        0.95600    0.35200    0.00400    1.000
    O3       O        0.75900    0.97700    0.20900    1.000
    O4       O        0.01200    0.06600    0.17100    1.000
    O5       O        0.54000    0.64600    0.24100    1.000
    O6       O        0.72200    0.72500    0.14430    1.000
    O7       O        0.50900    0.14900    0.97300    1.000
    O8       O        0.77500    0.09900    0.97600    1.000
    O9       O        0.98800    0.84500    0.35100    1.000
    O10      O        0.72400    0.89000    0.39900    1.000
    O11      O        0.73300    0.01900    0.72500    1.000
    O12      O        0.48900    0.93000    0.62100    1.000
    C12      C        0.60600    0.16700    0.14500    1.000
    H11      H        0.51800    0.10170    0.15180    1.000
    H12      H        0.55720    0.24160    0.17500    1.000
    Gd3      Gd       0.00760    0.85372    0.14522    1.000
    Gd4      Gd       0.50770    0.85429    0.24672    1.000
    C13      C        0.35900    0.86300    0.98200    1.000
    C14      C        0.22800    0.81700    0.77700    1.000
    H13      H        0.25720    0.78640    0.69440    1.000
    H14      H        0.14010    0.75370    0.78650    1.000
    C15      C        0.14800    0.92600    0.79900    1.000
    C16      C        0.35900    0.07400    0.35400    1.000
    C17      C        0.28100    0.18800    0.40900    1.000
    H15      H        0.36690    0.25160    0.46620    1.000
    H16      H        0.25150    0.21640    0.34800    1.000
    C18      C        0.24200    0.47100    0.86200    1.000
    H17      H        0.11430    0.45030    0.84970    1.000
    H18      H        0.28430    0.51860    0.81520    1.000
    C19      C        0.31600    0.35800    0.82100    1.000
    C20      C        0.14400    0.14100    0.58100    1.000
    C21      C        0.10200    0.16200    0.47600    1.000
    H19      H        0.02230    0.09160    0.42160    1.000
    H20      H        0.04330    0.23240    0.49770    1.000
    C22      C        0.29400    0.54900    0.99600    1.000
    H21      H        0.41710    0.58800    0.00450    1.000
    H22      H        0.28250    0.49550    0.03930    1.000
    C23      C        0.18400    0.64400    0.04700    1.000
    O13      O        0.22400    0.72650    0.15380    1.000
    O14      O        0.04400    0.64800    0.99600    1.000
    O15      O        0.24100    0.02300    0.79100    1.000
    O16      O        0.98800    0.93400    0.82900    1.000
    O17      O        0.46000    0.35400    0.75900    1.000
    O18      O        0.27800    0.27500    0.85570    1.000
    O19      O        0.49100    0.85100    0.02700    1.000
    O20      O        0.22500    0.90100    0.02400    1.000
    O21      O        0.01200    0.15500    0.64900    1.000
    O22      O        0.27600    0.11000    0.60100    1.000
    O23      O        0.26700    0.98100    0.27500    1.000
    O24      O        0.51100    0.07000    0.37900    1.000
    C24      C        0.39400    0.83300    0.85500    1.000
    H23      H        0.48200    0.89830    0.84820    1.000
    H24      H        0.44280    0.75840    0.82500    1.000
