data_functionalizedCrystal
_audit_creation_method	'EQeq! by Chris Wilmer'
_symmetry_space_group_name_H-M	'P1'
_symmetry_Int_Tables_number	1
_symmetry_cell_setting	triclinic
loop_
_symmetry_equiv_pos_as_xyz
  x,y,z
_cell_length_a	24.308
_cell_length_b	9.364
_cell_length_c	19.1309
_cell_angle_alpha	90
_cell_angle_beta	125.636
_cell_angle_gamma	90
loop_
_atom_site_label
_atom_site_type_symbol
_atom_site_fract_x
_atom_site_fract_y
_atom_site_fract_z
_atom_site_charge
Mof_O 	O 	0.62315	0.4652	0.37229	-0.24
Mof_O 	O 	0.57286	0.6758	0.34033	-0.239
Mof_O 	O 	0.53089	0.5405	0.66387	-0.265
Mof_O 	O 	0.54353	0.7682	0.7025	-0.219
Mof_C 	C 	0.62379	0.5969	0.38313	0.281
Mof_C 	C 	0.5509	0.6661	0.66683	0.305
Mof_C 	C 	0.73495	0.6856	0.42668	-0.035
Mof_H 	H 	0.7246	0.6409	0.3769	0.061
Mof_C 	C 	0.69011	0.6713	0.44869	-0.04
Mof_C 	C 	0.7052	0.7363	0.52448	0.017
Mof_C 	C 	0.66134	0.7213	0.55521	0.069
Mof_C 	C 	0.62844	0.5932	0.54605	-0.102
Mof_H 	H 	0.6312	0.5175	0.5168	0.091
Mof_C 	C 	0.5918	0.5776	0.57998	0.033
Mof_H 	H 	0.5696	0.4919	0.5724	0.047
Mof_C 	C 	0.58755	0.6879	0.62525	-0.077
Mof_C 	C 	0.61882	0.8167	0.63275	0.031
Mof_H 	H 	0.6151	0.8928	0.661	0.048
Mof_C 	C 	0.65549	0.8334	0.59862	-0.103
Mof_H 	H 	0.6764	0.9202	0.6047	0.082
Mof_O 	O 	0.12315	0.9652	0.37229	-0.242
Mof_O 	O 	0.07286	0.1758	0.34033	-0.247
Mof_O 	O 	0.03089	0.0405	0.66387	-0.274
Mof_O 	O 	0.04353	0.2682	0.7025	-0.229
Mof_C 	C 	0.12379	0.0969	0.38313	0.283
Mof_C 	C 	0.0509	0.1661	0.66683	0.306
Mof_C 	C 	0.23495	0.1856	0.42668	-0.036
Mof_H 	H 	0.2246	0.1409	0.3769	0.06
Mof_C 	C 	0.19011	0.1713	0.44869	-0.042
Mof_C 	C 	0.2052	0.2363	0.52448	0.014
Mof_C 	C 	0.16134	0.2213	0.55521	0.069
Mof_C 	C 	0.12844	0.0932	0.54605	-0.108
Mof_H 	H 	0.1312	0.0175	0.5168	0.09
Mof_C 	C 	0.0918	0.0776	0.57998	0.036
Mof_H 	H 	0.0696	0.9919	0.5724	0.039
Mof_C 	C 	0.08755	0.1879	0.62525	-0.085
Mof_C 	C 	0.11882	0.3167	0.63275	0.033
Mof_H 	H 	0.1151	0.3928	0.661	0.044
Mof_C 	C 	0.15549	0.3334	0.59862	-0.108
Mof_H 	H 	0.1764	0.4202	0.6047	0.081
Mof_O 	O 	0.37685	0.4652	0.12771	-0.238
Mof_O 	O 	0.42714	0.6758	0.15967	-0.237
Mof_O 	O 	0.46911	0.5405	0.83613	-0.266
Mof_O 	O 	0.45647	0.7682	0.7975	-0.219
Mof_C 	C 	0.37621	0.5969	0.11687	0.279
Mof_C 	C 	0.4491	0.6661	0.83317	0.305
Mof_C 	C 	0.26505	0.6856	0.07332	-0.043
Mof_H 	H 	0.2754	0.6409	0.1231	0.063
Mof_C 	C 	0.30989	0.6713	0.05131	-0.031
Mof_C 	C 	0.2948	0.7363	0.97552	0.005
Mof_C 	C 	0.33866	0.7213	0.94479	0.072
Mof_C 	C 	0.37156	0.5932	0.95395	-0.106
Mof_H 	H 	0.3688	0.5175	0.9832	0.091
Mof_C 	C 	0.4082	0.5776	0.92002	0.035
Mof_H 	H 	0.4304	0.4919	0.9276	0.045
Mof_C 	C 	0.41245	0.6879	0.87475	-0.079
Mof_C 	C 	0.38118	0.8167	0.86725	0.032
Mof_H 	H 	0.3849	0.8928	0.839	0.047
Mof_C 	C 	0.34451	0.8334	0.90138	-0.106
Mof_H 	H 	0.3236	0.9202	0.8953	0.082
Mof_O 	O 	0.87685	0.9652	0.12771	-0.227
Mof_O 	O 	0.92714	0.1758	0.15967	-0.22
Mof_O 	O 	0.96911	0.0405	0.83613	-0.247
Mof_O 	O 	0.95647	0.2682	0.7975	-0.205
Mof_C 	C 	0.87621	0.0969	0.11687	0.275
Mof_C 	C 	0.9491	0.1661	0.83317	0.303
Mof_C 	C 	0.76505	0.1856	0.07332	-0.043
Mof_H 	H 	0.7754	0.1409	0.1231	0.065
Mof_C 	C 	0.80989	0.1713	0.05131	-0.029
Mof_C 	C 	0.7948	0.2363	0.97552	0.007
Mof_C 	C 	0.83866	0.2213	0.94479	0.072
Mof_C 	C 	0.87156	0.0932	0.95395	-0.101
Mof_H 	H 	0.8688	0.0175	0.9832	0.093
Mof_C 	C 	0.9082	0.0776	0.92002	0.035
Mof_H 	H 	0.9304	0.9919	0.9276	0.052
Mof_C 	C 	0.91245	0.1879	0.87475	-0.071
Mof_C 	C 	0.88118	0.3167	0.86725	0.031
Mof_H 	H 	0.8849	0.3928	0.839	0.051
Mof_C 	C 	0.84451	0.3334	0.90138	-0.101
Mof_H 	H 	0.8236	0.4202	0.8953	0.083
Mof_O 	O 	0.37685	0.5348	0.62771	-0.24
Mof_O 	O 	0.42714	0.3242	0.65967	-0.238
Mof_O 	O 	0.46911	0.4595	0.33613	-0.265
Mof_O 	O 	0.45647	0.2318	0.2975	-0.218
Mof_C 	C 	0.37621	0.4031	0.61687	0.281
Mof_C 	C 	0.4491	0.3339	0.33317	0.305
Mof_C 	C 	0.26505	0.3144	0.57332	-0.036
Mof_H 	H 	0.2754	0.3591	0.6231	0.06
Mof_C 	C 	0.30989	0.3287	0.55131	-0.041
Mof_C 	C 	0.2948	0.2637	0.47552	0.015
Mof_C 	C 	0.33866	0.2787	0.44479	0.068
Mof_C 	C 	0.37156	0.4068	0.45395	-0.103
Mof_H 	H 	0.3688	0.4825	0.4832	0.091
Mof_C 	C 	0.4082	0.4224	0.42002	0.033
Mof_H 	H 	0.4304	0.5081	0.4276	0.047
Mof_C 	C 	0.41245	0.3121	0.37475	-0.077
Mof_C 	C 	0.38118	0.1833	0.36725	0.031
Mof_H 	H 	0.3849	0.1072	0.339	0.048
Mof_C 	C 	0.34451	0.1666	0.40138	-0.103
Mof_H 	H 	0.3236	0.0798	0.3953	0.081
Mof_O 	O 	0.87685	0.0348	0.62771	-0.229
Mof_O 	O 	0.92714	0.8242	0.65967	-0.221
Mof_O 	O 	0.96911	0.9595	0.33613	-0.246
Mof_O 	O 	0.95647	0.7318	0.2975	-0.203
Mof_C 	C 	0.87621	0.9031	0.61687	0.278
Mof_C 	C 	0.9491	0.8339	0.33317	0.302
Mof_C 	C 	0.76505	0.8144	0.57332	-0.036
Mof_H 	H 	0.7754	0.8591	0.6231	0.062
Mof_C 	C 	0.80989	0.8287	0.55131	-0.038
Mof_C 	C 	0.7948	0.7637	0.47552	0.017
Mof_C 	C 	0.83866	0.7787	0.44479	0.068
Mof_C 	C 	0.87156	0.9068	0.45395	-0.097
Mof_H 	H 	0.8688	0.9825	0.4832	0.093
Mof_C 	C 	0.9082	0.9224	0.42002	0.031
Mof_H 	H 	0.9304	0.0081	0.4276	0.054
Mof_C 	C 	0.91245	0.8121	0.37475	-0.068
Mof_C 	C 	0.88118	0.6833	0.36725	0.028
Mof_H 	H 	0.8849	0.6072	0.339	0.053
Mof_C 	C 	0.84451	0.6666	0.40138	-0.098
Mof_H 	H 	0.8236	0.5798	0.3953	0.082
Mof_O 	O 	0.62315	0.5348	0.87229	-0.24
Mof_O 	O 	0.57286	0.3242	0.84033	-0.239
Mof_O 	O 	0.53089	0.4595	0.16387	-0.264
Mof_O 	O 	0.54353	0.2318	0.2025	-0.218
Mof_C 	C 	0.62379	0.4031	0.88313	0.284
Mof_C 	C 	0.5509	0.3339	0.16683	0.305
Mof_C 	C 	0.73495	0.3144	0.92668	-0.029
Mof_H 	H 	0.7246	0.3591	0.8769	0.059
Mof_C 	C 	0.69011	0.3287	0.94869	-0.05
Mof_C 	C 	0.7052	0.2637	0.02448	0.026
Mof_C 	C 	0.66134	0.2787	0.05521	0.065
Mof_C 	C 	0.62844	0.4068	0.04605	-0.099
Mof_H 	H 	0.6312	0.4825	0.0168	0.092
Mof_C 	C 	0.5918	0.4224	0.07998	0.032
Mof_H 	H 	0.5696	0.5081	0.0724	0.048
Mof_C 	C 	0.58755	0.3121	0.12525	-0.075
Mof_C 	C 	0.61882	0.1833	0.13275	0.029
Mof_H 	H 	0.6151	0.1072	0.161	0.049
Mof_C 	C 	0.65549	0.1666	0.09862	-0.1
Mof_H 	H 	0.6764	0.0798	0.1047	0.081
Mof_O 	O 	0.12315	0.0348	0.87229	-0.243
Mof_O 	O 	0.07286	0.8242	0.84033	-0.248
Mof_O 	O 	0.03089	0.9595	0.16387	-0.273
Mof_O 	O 	0.04353	0.7318	0.2025	-0.228
Mof_C 	C 	0.12379	0.9031	0.88313	0.284
Mof_C 	C 	0.0509	0.8339	0.16683	0.306
Mof_C 	C 	0.23495	0.8144	0.92668	-0.028
Mof_H 	H 	0.2246	0.8591	0.8769	0.057
Mof_C 	C 	0.19011	0.8287	0.94869	-0.052
Mof_C 	C 	0.2052	0.7637	0.02448	0.025
Mof_C 	C 	0.16134	0.7787	0.05521	0.066
Mof_C 	C 	0.12844	0.9068	0.04605	-0.105
Mof_H 	H 	0.1312	0.9825	0.0168	0.091
Mof_C 	C 	0.0918	0.9224	0.07998	0.035
Mof_H 	H 	0.0696	0.0081	0.0724	0.04
Mof_C 	C 	0.08755	0.8121	0.12525	-0.083
Mof_C 	C 	0.11882	0.6833	0.13275	0.031
Mof_H 	H 	0.1151	0.6072	0.161	0.045
Mof_C 	C 	0.15549	0.6666	0.09862	-0.104
Mof_H 	H 	0.1764	0.5798	0.1047	0.08
Mof_Cd	Cd	0.5	0.49656	0.25	0.514
Mof_Cd	Cd	1.60615e-17	0.99656	0.25	0.483
Mof_Cd	Cd	0.5	0.50344	0.75	0.514
Mof_Cd	Cd	3.50259e-33	0.00344	0.75	0.483
_end
