# CIF file generated by openbabel 3.1.0, see https://openbabel.org
data_I
_chemical_name_common 'image0'
_cell_length_a 14.8858
_cell_length_b 23.055
_cell_length_c 17.7834
_cell_angle_alpha 90
_cell_angle_beta 108.905
_cell_angle_gamma 90
_space_group_name_H-M_alt 'P 1'
_space_group_name_Hall 'P 1'
loop_
    _symmetry_equiv_pos_as_xyz
    x,y,z
loop_
    _atom_site_label
    _atom_site_type_symbol
    _atom_site_fract_x
    _atom_site_fract_y
    _atom_site_fract_z
    _atom_site_occupancy
    C1       C        0.64980    0.08160    0.76220    1.000
    H1       H        0.62580    0.11920    0.75770    1.000
    C2       C        0.85710    0.00540    0.73190    1.000
    C3       C        0.77030    0.01510    0.75490    1.000
    C4       C        0.73240    0.07090    0.74600    1.000
    H2       H        0.76310    0.10090    0.72920    1.000
    C5       C        0.72240    0.97060    0.77790    1.000
    H3       H        0.74750    0.93330    0.78390    1.000
    C6       C        0.60140    0.03690    0.78520    1.000
    Zn1      Zn       0.55487    0.82018    0.84723    1.000
    Zn2      Zn       0.81050    0.79939    0.19252    1.000
    Zn3      Zn       0.63302    0.60235    0.68819    1.000
    Zn4      Zn       0.00145    0.96277    0.70098    1.000
    O1       O        0.41580    0.82035    0.81210    1.000
    O2       O        0.96850    0.83853    0.68820    1.000
    O3       O        0.93810    0.73971    0.78910    1.000
    O4       O        0.94680    0.70281    0.67800    1.000
    O5       O        0.53480    0.94151    0.85580    1.000
    O6       O        0.51020    0.08730    0.85030    1.000
    O7       O        0.60380    0.88142    0.79310    1.000
    N1       N        0.83600    0.88788    0.23210    1.000
    N2       N        0.70860    0.82410    0.08720    1.000
    N3       N        0.64790    0.67503    0.75450    1.000
    N4       N        0.76560    0.92924    0.22520    1.000
    O8       O        0.90080    0.95720    0.75120    1.000
    N5       N        0.62210    0.75494    0.81270    1.000
    O9       O        0.09090    0.89791    0.72960    1.000
    N6       N        0.61150    0.83082    0.96340    1.000
    O10      O        0.88320    0.04309    0.69490    1.000
    N7       N        0.71700    0.71496    0.75420    1.000
    O11      O        0.44090    0.73246    0.86330    1.000
    N8       N        0.63960    0.86449    0.08440    1.000
    O12      O        0.43260    0.03624    0.74700    1.000
    N9       N        0.90250    0.97404    0.26520    1.000
    N10      N        0.93940    0.95810    0.58620    1.000
    C7       C        0.63780    0.98100    0.79210    1.000
    C8       C        0.59430    0.70060    0.79000    1.000
    H4       H        0.54230    0.68290    0.79850    1.000
    C9       C        0.80790    0.97860    0.24440    1.000
    H5       H        0.77620    0.01350    0.24390    1.000
    C10      C        0.91580    0.91700    0.25710    1.000
    H6       H        0.97540    0.90000    0.26790    1.000
    C11      C        0.12070    0.79840    0.75410    1.000
    C12      C        0.21770    0.80750    0.77440    1.000
    H7       H        0.23990    0.84340    0.76440    1.000
    C13      C        0.69880    0.76190    0.78880    1.000
    H8       H        0.73450    0.79570    0.79600    1.000
    C14      C        0.68840    0.80470    0.01400    1.000
    H9       H        0.72340    0.77630    0.99890    1.000
    C15      C        0.05310    0.84770    0.72060    1.000
    C16      C        0.58450    0.86690    0.01090    1.000
    H10      H        0.53200    0.89120    0.99320    1.000
    C17      C        0.58700    0.93180    0.81620    1.000
    C18      C        0.15030    0.70100    0.80360    1.000
    H11      H        0.12780    0.66510    0.81320    1.000
    C19      C        0.28170    0.76440    0.80920    1.000
    C20      C        0.08670    0.74420    0.76650    1.000
    C21      C        0.24710    0.71100    0.82640    1.000
    H12      H        0.28930    0.68230    0.85320    1.000
    C22      C        0.98340    0.72920    0.74290    1.000
    C23      C        0.38650    0.77200    0.83030    1.000
    C24      C        0.50960    0.05250    0.79630    1.000
    C25      C        0.81030    0.93600    0.48580    1.000
    H13      H        0.76920    0.96910    0.47380    1.000
    H14      H        0.77310    0.90120    0.47150    1.000
    H15      H        0.85400    0.93810    0.45630    1.000
    C26      C        0.85690    0.93510    0.56050    1.000
    C27      C        0.35020    0.58160    0.73780    1.000
    H16      H        0.37420    0.61920    0.74230    1.000
    C28      C        0.14290    0.50540    0.76810    1.000
    C29      C        0.22970    0.51510    0.74510    1.000
    C30      C        0.26760    0.57090    0.75400    1.000
    H17      H        0.23690    0.60090    0.77080    1.000
    C31      C        0.27760    0.47060    0.72210    1.000
    H18      H        0.25250    0.43330    0.71610    1.000
    C32      C        0.39860    0.53690    0.71480    1.000
    Zn5      Zn       0.44513    0.32018    0.65277    1.000
    Zn6      Zn       0.18950    0.29939    0.30748    1.000
    Zn7      Zn       0.36698    0.10235    0.81181    1.000
    Zn8      Zn       0.99855    0.46277    0.79902    1.000
    O13      O        0.58420    0.32035    0.68790    1.000
    O14      O        0.03150    0.33853    0.81180    1.000
    O15      O        0.06190    0.23971    0.71090    1.000
    O16      O        0.05320    0.20281    0.82200    1.000
    O17      O        0.46520    0.44151    0.64420    1.000
    O18      O        0.48980    0.58730    0.64970    1.000
    O19      O        0.39620    0.38142    0.70690    1.000
    N11      N        0.16400    0.38788    0.26790    1.000
    N12      N        0.29140    0.32410    0.41280    1.000
    N13      N        0.35210    0.17503    0.74550    1.000
    N14      N        0.23440    0.42924    0.27480    1.000
    O20      O        0.09920    0.45720    0.74880    1.000
    N15      N        0.37790    0.25494    0.68730    1.000
    O21      O        0.90910    0.39791    0.77040    1.000
    N16      N        0.38850    0.33082    0.53660    1.000
    O22      O        0.11680    0.54309    0.80510    1.000
    N17      N        0.28300    0.21496    0.74580    1.000
    O23      O        0.55910    0.23246    0.63670    1.000
    N18      N        0.36040    0.36449    0.41560    1.000
    O24      O        0.56740    0.53624    0.75300    1.000
    N19      N        0.09750    0.47404    0.23480    1.000
    N20      N        0.06060    0.45810    0.91380    1.000
    C33      C        0.36220    0.48100    0.70790    1.000
    C34      C        0.40570    0.20060    0.71000    1.000
    H19      H        0.45770    0.18290    0.70150    1.000
    C35      C        0.19210    0.47860    0.25560    1.000
    H20      H        0.22380    0.51350    0.25610    1.000
    C36      C        0.08420    0.41700    0.24290    1.000
    H21      H        0.02460    0.40000    0.23210    1.000
    C37      C        0.87930    0.29840    0.74590    1.000
    C38      C        0.78230    0.30750    0.72560    1.000
    H22      H        0.76010    0.34340    0.73560    1.000
    C39      C        0.30120    0.26190    0.71120    1.000
    H23      H        0.26550    0.29570    0.70400    1.000
    C40      C        0.31160    0.30470    0.48600    1.000
    H24      H        0.27660    0.27630    0.50110    1.000
    C41      C        0.94690    0.34770    0.77940    1.000
    C42      C        0.41550    0.36690    0.48910    1.000
    H25      H        0.46800    0.39120    0.50680    1.000
    C43      C        0.41300    0.43180    0.68380    1.000
    C44      C        0.84970    0.20100    0.69640    1.000
    H26      H        0.87220    0.16510    0.68680    1.000
    C45      C        0.71830    0.26440    0.69080    1.000
    C46      C        0.91330    0.24420    0.73350    1.000
    C47      C        0.75290    0.21100    0.67360    1.000
    H27      H        0.71070    0.18230    0.64680    1.000
    C48      C        0.01660    0.22920    0.75710    1.000
    C49      C        0.61350    0.27200    0.66970    1.000
    C50      C        0.49040    0.55250    0.70370    1.000
    C51      C        0.18970    0.43600    0.01420    1.000
    H28      H        0.23080    0.46910    0.02620    1.000
    H29      H        0.22690    0.40120    0.02850    1.000
    H30      H        0.14600    0.43810    0.04370    1.000
    C52      C        0.14310    0.43510    0.93950    1.000
    C53      C        0.35020    0.91840    0.23780    1.000
    H31      H        0.37420    0.88080    0.24230    1.000
    C54      C        0.14290    0.99460    0.26810    1.000
    C55      C        0.22970    0.98490    0.24510    1.000
    C56      C        0.26760    0.92910    0.25400    1.000
    H32      H        0.23690    0.89910    0.27080    1.000
    C57      C        0.27760    0.02940    0.22210    1.000
    H33      H        0.25250    0.06670    0.21610    1.000
    C58      C        0.39860    0.96310    0.21480    1.000
    Zn9      Zn       0.44513    0.17982    0.15277    1.000
    Zn10     Zn       0.18950    0.20061    0.80748    1.000
    Zn11     Zn       0.36698    0.39765    0.31181    1.000
    Zn12     Zn       0.99855    0.03723    0.29902    1.000
    O25      O        0.58420    0.17965    0.18790    1.000
    O26      O        0.03150    0.16147    0.31180    1.000
    O27      O        0.06190    0.26029    0.21090    1.000
    O28      O        0.05320    0.29719    0.32200    1.000
    O29      O        0.46520    0.05849    0.14420    1.000
    O30      O        0.48980    0.91270    0.14970    1.000
    O31      O        0.39620    0.11858    0.20690    1.000
    N21      N        0.16400    0.11212    0.76790    1.000
    N22      N        0.29140    0.17590    0.91280    1.000
    N23      N        0.35210    0.32497    0.24550    1.000
    N24      N        0.23440    0.07076    0.77480    1.000
    O32      O        0.09920    0.04280    0.24880    1.000
    N25      N        0.37790    0.24506    0.18730    1.000
    O33      O        0.90910    0.10209    0.27040    1.000
    N26      N        0.38850    0.16918    0.03660    1.000
    O34      O        0.11680    0.95691    0.30510    1.000
    N27      N        0.28300    0.28504    0.24580    1.000
    O35      O        0.55910    0.26754    0.13670    1.000
    N28      N        0.36040    0.13551    0.91560    1.000
    O36      O        0.56740    0.96376    0.25300    1.000
    N29      N        0.09750    0.02596    0.73480    1.000
    N30      N        0.06060    0.04190    0.41380    1.000
    C59      C        0.36220    0.01900    0.20790    1.000
    C60      C        0.40570    0.29940    0.21000    1.000
    H34      H        0.45770    0.31710    0.20150    1.000
    C61      C        0.19210    0.02140    0.75560    1.000
    H35      H        0.22380    0.98650    0.75610    1.000
    C62      C        0.08420    0.08300    0.74290    1.000
    H36      H        0.02460    0.10000    0.73210    1.000
    C63      C        0.87930    0.20160    0.24590    1.000
    C64      C        0.78230    0.19250    0.22560    1.000
    H37      H        0.76010    0.15660    0.23560    1.000
    C65      C        0.30120    0.23810    0.21120    1.000
    H38      H        0.26550    0.20430    0.20400    1.000
    C66      C        0.31160    0.19530    0.98600    1.000
    H39      H        0.27660    0.22370    0.00110    1.000
    C67      C        0.94690    0.15230    0.27940    1.000
    C68      C        0.41550    0.13310    0.98910    1.000
    H40      H        0.46800    0.10880    0.00680    1.000
    C69      C        0.41300    0.06820    0.18380    1.000
    C70      C        0.84970    0.29900    0.19640    1.000
    H41      H        0.87220    0.33490    0.18680    1.000
    C71      C        0.71830    0.23560    0.19080    1.000
    C72      C        0.91330    0.25580    0.23350    1.000
    C73      C        0.75290    0.28900    0.17360    1.000
    H42      H        0.71070    0.31770    0.14680    1.000
    C74      C        0.01660    0.27080    0.25710    1.000
    C75      C        0.61350    0.22800    0.16970    1.000
    C76      C        0.49040    0.94750    0.20370    1.000
    C77      C        0.18970    0.06400    0.51420    1.000
    H43      H        0.23080    0.03090    0.52620    1.000
    H44      H        0.22690    0.09880    0.52850    1.000
    H45      H        0.14600    0.06190    0.54370    1.000
    C78      C        0.14310    0.06490    0.43950    1.000
    C79      C        0.64980    0.41840    0.26220    1.000
    H46      H        0.62580    0.38080    0.25770    1.000
    C80      C        0.85710    0.49460    0.23190    1.000
    C81      C        0.77030    0.48490    0.25490    1.000
    C82      C        0.73240    0.42910    0.24600    1.000
    H47      H        0.76310    0.39910    0.22920    1.000
    C83      C        0.72240    0.52940    0.27790    1.000
    H48      H        0.74750    0.56670    0.28390    1.000
    C84      C        0.60140    0.46310    0.28520    1.000
    Zn13     Zn       0.55487    0.67982    0.34723    1.000
    Zn14     Zn       0.81050    0.70061    0.69252    1.000
    Zn15     Zn       0.63302    0.89765    0.18819    1.000
    Zn16     Zn       0.00145    0.53723    0.20098    1.000
    O37      O        0.41580    0.67965    0.31210    1.000
    O38      O        0.96850    0.66147    0.18820    1.000
    O39      O        0.93810    0.76029    0.28910    1.000
    O40      O        0.94680    0.79719    0.17800    1.000
    O41      O        0.53480    0.55849    0.35580    1.000
    O42      O        0.51020    0.41270    0.35030    1.000
    O43      O        0.60380    0.61858    0.29310    1.000
    N31      N        0.83600    0.61212    0.73210    1.000
    N32      N        0.70860    0.67590    0.58720    1.000
    N33      N        0.64790    0.82497    0.25450    1.000
    N34      N        0.76560    0.57076    0.72520    1.000
    O44      O        0.90080    0.54280    0.25120    1.000
    N35      N        0.62210    0.74506    0.31270    1.000
    O45      O        0.09090    0.60209    0.22960    1.000
    N36      N        0.61150    0.66918    0.46340    1.000
    O46      O        0.88320    0.45691    0.19490    1.000
    N37      N        0.71700    0.78504    0.25420    1.000
    O47      O        0.44090    0.76754    0.36330    1.000
    N38      N        0.63960    0.63551    0.58440    1.000
    O48      O        0.43260    0.46376    0.24700    1.000
    N39      N        0.90250    0.52596    0.76520    1.000
    N40      N        0.93940    0.54190    0.08620    1.000
    C85      C        0.63780    0.51900    0.29210    1.000
    C86      C        0.59430    0.79940    0.29000    1.000
    H49      H        0.54230    0.81710    0.29850    1.000
    C87      C        0.80790    0.52140    0.74440    1.000
    H50      H        0.77620    0.48650    0.74390    1.000
    C88      C        0.91580    0.58300    0.75710    1.000
    H51      H        0.97540    0.60000    0.76790    1.000
    C89      C        0.12070    0.70160    0.25410    1.000
    C90      C        0.21770    0.69250    0.27440    1.000
    H52      H        0.23990    0.65660    0.26440    1.000
    C91      C        0.69880    0.73810    0.28880    1.000
    H53      H        0.73450    0.70430    0.29600    1.000
    C92      C        0.68840    0.69530    0.51400    1.000
    H54      H        0.72340    0.72370    0.49890    1.000
    C93      C        0.05310    0.65230    0.22060    1.000
    C94      C        0.58450    0.63310    0.51090    1.000
    H55      H        0.53200    0.60880    0.49320    1.000
    C95      C        0.58700    0.56820    0.31620    1.000
    C96      C        0.15030    0.79900    0.30360    1.000
    H56      H        0.12780    0.83490    0.31320    1.000
    C97      C        0.28170    0.73560    0.30920    1.000
    C98      C        0.08670    0.75580    0.26650    1.000
    C99      C        0.24710    0.78900    0.32640    1.000
    H57      H        0.28930    0.81770    0.35320    1.000
    C100     C        0.98340    0.77080    0.24290    1.000
    C101     C        0.38650    0.72800    0.33030    1.000
    C102     C        0.50960    0.44750    0.29630    1.000
    C103     C        0.81030    0.56400    0.98580    1.000
    H58      H        0.76920    0.53090    0.97380    1.000
    H59      H        0.77310    0.59880    0.97150    1.000
    H60      H        0.85400    0.56190    0.95630    1.000
    C104     C        0.85690    0.56490    0.06050    1.000
