# CIF file generated by openbabel 3.1.0, see https://openbabel.org
data_I
_chemical_name_common 'image0'
_cell_length_a 31.0998
_cell_length_b 24.0457
_cell_length_c 23.0064
_cell_angle_alpha 90
_cell_angle_beta 131.42
_cell_angle_gamma 90
_space_group_name_H-M_alt 'P 1'
_space_group_name_Hall 'P 1'
loop_
    _symmetry_equiv_pos_as_xyz
    x,y,z
loop_
    _atom_site_label
    _atom_site_type_symbol
    _atom_site_fract_x
    _atom_site_fract_y
    _atom_site_fract_z
    _atom_site_occupancy
    Cd1      Cd       0.04419    0.46114    0.97872    1.000
    Cd2      Cd       0.19899    0.37499    0.04125    1.000
    Cd3      Cd       0.13906    0.32418    0.13540    1.000
    O1       O        0.27703    0.43112    0.08539    1.000
    O2       O        0.23007    0.39243    0.97115    1.000
    O3       O        0.24888    0.42591    0.88400    1.000
    H1       H        0.23410    0.40920    0.89970    1.000
    O4       O        0.26072    0.55421    0.85414    1.000
    H2       H        0.23870    0.57900    0.82450    1.000
    O5       O        0.20275    0.61450    0.73584    1.000
    O6       O        0.20151    0.60366    0.64036    1.000
    O7       O        0.05767    0.27055    0.07987    1.000
    O8       O        0.10957    0.29177    0.20325    1.000
    O9       O        0.07737    0.26649    0.27599    1.000
    H3       H        0.09740    0.28160    0.26730    1.000
    O10      O        0.13068    0.29606    0.03344    1.000
    O11      O        0.14210    0.30941    0.94985    1.000
    O12      O        0.07332    0.26679    0.81498    1.000
    H4       H        0.09760    0.28770    0.85350    1.000
    O13      O        0.04549    0.48168    0.88099    1.000
    O14      O        0.11779    0.42956    0.97279    1.000
    O15      O        0.07848    0.40028    0.08472    1.000
    O16      O        0.02562    0.46939    0.06598    1.000
    N1       N        0.29138    0.75731    0.28840    1.000
    N2       N        0.10740    0.53297    0.05314    1.000
    N3       N        0.97653    0.39387    0.89519    1.000
    N4       N        0.76902    0.19229    0.62547    1.000
    C1       C        0.27124    0.42175    0.02680    1.000
    C2       C        0.31279    0.44567    0.02129    1.000
    C3       C        0.36296    0.46821    0.08530    1.000
    H5       H        0.37100    0.46850    0.13200    1.000
    C4       C        0.40299    0.49110    0.08160    1.000
    C5       C        0.45500    0.51450    0.14770    1.000
    H6       H        0.46370    0.51410    0.19490    1.000
    C6       C        0.49250    0.53780    0.14300    1.000
    H7       H        0.52650    0.55350    0.18680    1.000
    C7       C        0.48040    0.53810    0.07330    1.000
    H8       H        0.50670    0.55330    0.07110    1.000
    C8       C        0.43005    0.51629    0.00740    1.000
    H9       H        0.42250    0.51720    0.96100    1.000
    C9       C        0.38990    0.49262    0.00980    1.000
    C10      C        0.33609    0.47178    0.94230    1.000
    C11      C        0.29959    0.44709    0.94901    1.000
    C12      C        0.31639    0.48290    0.86450    1.000
    C13      C        0.33550    0.45179    0.83310    1.000
    C14      C        0.37222    0.40509    0.87240    1.000
    H10      H        0.38630    0.39590    0.92160    1.000
    C15      C        0.38700    0.37372    0.83880    1.000
    H11      H        0.41100    0.34320    0.86530    1.000
    C16      C        0.36670    0.38640    0.76550    1.000
    H12      H        0.37650    0.36390    0.74290    1.000
    C17      C        0.33210    0.43217    0.72590    1.000
    H13      H        0.31940    0.44090    0.67730    1.000
    C18      C        0.31594    0.46582    0.75890    1.000
    C19      C        0.27918    0.51215    0.71930    1.000
    H14      H        0.26720    0.52230    0.67160    1.000
    C20      C        0.26085    0.54240    0.75000    1.000
    C21      C        0.27944    0.52654    0.82310    1.000
    C22      C        0.21987    0.58938    0.70576    1.000
    C23      C        0.06540    0.26947    0.14070    1.000
    C24      C        0.02388    0.24124    0.14230    1.000
    C25      C        0.97720    0.21595    0.07690    1.000
    H15      H        0.97160    0.21730    0.03190    1.000
    C26      C        0.93700    0.18750    0.07620    1.000
    C27      C        0.88890    0.15970    0.00950    1.000
    H16      H        0.88220    0.16070    0.96370    1.000
    C28      C        0.85240    0.13130    0.01240    1.000
    H17      H        0.82030    0.11380    0.96800    1.000
    C29      C        0.86270    0.12800    0.08230    1.000
    H18      H        0.83850    0.10740    0.08440    1.000
    C30      C        0.90680    0.15430    0.14380    1.000
    H19      H        0.91220    0.15310    0.18860    1.000
    C31      C        0.94690    0.18450    0.14560    1.000
    C32      C        0.99470    0.21189    0.21290    1.000
    C33      C        0.03220    0.23952    0.21100    1.000
    C34      C        0.11780    0.28491    0.97065    1.000
    C35      C        0.07394    0.24137    0.91767    1.000
    C36      C        0.05172    0.20830    0.94097    1.000
    H20      H        0.06500    0.21270    0.99070    1.000
    C37      C        0.00964    0.16812    0.89190    1.000
    C38      C        0.98583    0.13419    0.91460    1.000
    H21      H        0.99900    0.13770    0.96430    1.000
    C39      C        0.94400    0.09642    0.86490    1.000
    H22      H        0.92860    0.07460    0.88070    1.000
    C40      C        0.92400    0.09042    0.78970    1.000
    H23      H        0.89600    0.06410    0.75630    1.000
    C41      C        0.94522    0.12264    0.76500    1.000
    H24      H        0.93080    0.11860    0.71470    1.000
    C42      C        0.98873    0.16213    0.81457    1.000
    C43      C        0.01168    0.19654    0.79057    1.000
    C44      C        0.05335    0.23494    0.84107    1.000
    C45      C        0.09460    0.43330    0.85080    1.000
    H25      H        0.07070    0.40100    0.82550    1.000
    H26      H        0.13370    0.42340    0.87730    1.000
    H27      H        0.08220    0.46140    0.81290    1.000
    C46      C        0.12310    0.47200    0.88300    1.000
    H28      H        0.14590    0.50450    0.91110    1.000
    H29      H        0.09620    0.48010    0.82840    1.000
    H30      H        0.14760    0.44200    0.89310    1.000
    C47      C        0.09060    0.45540    0.90890    1.000
    C48      C        0.06200    0.41180    0.17300    1.000
    H31      H        0.04130    0.43760    0.17840    1.000
    H32      H        0.10180    0.41250    0.21890    1.000
    H33      H        0.04700    0.37500    0.16550    1.000
    C49      C        0.05530    0.42764    0.10470    1.000
    C50      C        0.11040    0.57730    0.02240    1.000
    H34      H        0.08820    0.57810    0.96890    1.000
    C51      C        0.14480    0.62280    0.06510    1.000
    H35      H        0.14450    0.65340    0.04020    1.000
    C52      C        0.17950    0.62286    0.14470    1.000
    C53      C        0.17658    0.57609    0.17640    1.000
    H36      H        0.19890    0.57360    0.22980    1.000
    C54      C        0.14059    0.53296    0.12920    1.000
    H37      H        0.13970    0.50190    0.15250    1.000
    C55      C        0.21767    0.66975    0.19340    1.000
    C56      C        0.22360    0.71580    0.16330    1.000
    H38      H        0.20290    0.71820    0.11030    1.000
    C57      C        0.26010    0.75799    0.21170    1.000
    H39      H        0.26330    0.78860    0.19010    1.000
    C58      C        0.24990    0.66941    0.27260    1.000
    H40      H        0.24730    0.63950    0.29580    1.000
    C59      C        0.28591    0.71324    0.31730    1.000
    H41      H        0.30750    0.71170    0.37050    1.000
    C60      C        0.93540    0.40489    0.82120    1.000
    H42      H        0.93290    0.44090    0.80440    1.000
    C61      C        0.89560    0.36652    0.76680    1.000
    H43      H        0.86840    0.37690    0.71500    1.000
    C62      C        0.89573    0.31344    0.78789    1.000
    C63      C        0.93720    0.30278    0.86520    1.000
    H44      H        0.93940    0.26770    0.88390    1.000
    C64      C        0.97609    0.34328    0.91610    1.000
    H45      H        0.00360    0.33410    0.96840    1.000
    C65      C        0.85234    0.27140    0.73121    1.000
    C66      C        0.85155    0.21864    0.75490    1.000
    H46      H        0.87890    0.20870    0.80690    1.000
    C67      C        0.81020    0.18095    0.70130    1.000
    H47      H        0.81080    0.14570    0.71860    1.000
    C68      C        0.81070    0.28256    0.65200    1.000
    H48      H        0.81000    0.31690    0.63270    1.000
    C69      C        0.77089    0.24288    0.60278    1.000
    H49      H        0.74340    0.25150    0.55030    1.000
    Cd4      Cd       0.54419    0.96114    0.97872    1.000
    Cd5      Cd       0.69899    0.87499    0.04125    1.000
    Cd6      Cd       0.63906    0.82418    0.13540    1.000
    O17      O        0.77703    0.93112    0.08539    1.000
    O18      O        0.73007    0.89243    0.97115    1.000
    O19      O        0.74888    0.92591    0.88400    1.000
    H50      H        0.73410    0.90920    0.89970    1.000
    O20      O        0.76072    0.05421    0.85414    1.000
    H51      H        0.73870    0.07900    0.82450    1.000
    O21      O        0.70275    0.11450    0.73584    1.000
    O22      O        0.70151    0.10366    0.64036    1.000
    O23      O        0.55767    0.77055    0.07987    1.000
    O24      O        0.60957    0.79177    0.20325    1.000
    O25      O        0.57737    0.76649    0.27599    1.000
    H52      H        0.59740    0.78160    0.26730    1.000
    O26      O        0.63068    0.79606    0.03344    1.000
    O27      O        0.64210    0.80941    0.94985    1.000
    O28      O        0.57332    0.76679    0.81498    1.000
    H53      H        0.59760    0.78770    0.85350    1.000
    O29      O        0.54549    0.98168    0.88099    1.000
    O30      O        0.61779    0.92956    0.97279    1.000
    O31      O        0.57848    0.90028    0.08472    1.000
    O32      O        0.52562    0.96939    0.06598    1.000
    N5       N        0.79138    0.25731    0.28840    1.000
    N6       N        0.60740    0.03297    0.05314    1.000
    N7       N        0.47653    0.89387    0.89519    1.000
    N8       N        0.26902    0.69229    0.62547    1.000
    C70      C        0.77124    0.92175    0.02680    1.000
    C71      C        0.81279    0.94567    0.02129    1.000
    C72      C        0.86296    0.96821    0.08530    1.000
    H54      H        0.87100    0.96850    0.13200    1.000
    C73      C        0.90299    0.99110    0.08160    1.000
    C74      C        0.95500    0.01450    0.14770    1.000
    H55      H        0.96370    0.01410    0.19490    1.000
    C75      C        0.99250    0.03780    0.14300    1.000
    H56      H        0.02650    0.05350    0.18680    1.000
    C76      C        0.98040    0.03810    0.07330    1.000
    H57      H        0.00670    0.05330    0.07110    1.000
    C77      C        0.93005    0.01629    0.00740    1.000
    H58      H        0.92250    0.01720    0.96100    1.000
    C78      C        0.88990    0.99262    0.00980    1.000
    C79      C        0.83609    0.97178    0.94230    1.000
    C80      C        0.79959    0.94709    0.94901    1.000
    C81      C        0.81639    0.98290    0.86450    1.000
    C82      C        0.83550    0.95179    0.83310    1.000
    C83      C        0.87222    0.90509    0.87240    1.000
    H59      H        0.88630    0.89590    0.92160    1.000
    C84      C        0.88700    0.87372    0.83880    1.000
    H60      H        0.91100    0.84320    0.86530    1.000
    C85      C        0.86670    0.88640    0.76550    1.000
    H61      H        0.87650    0.86390    0.74290    1.000
    C86      C        0.83210    0.93217    0.72590    1.000
    H62      H        0.81940    0.94090    0.67730    1.000
    C87      C        0.81594    0.96582    0.75890    1.000
    C88      C        0.77918    0.01215    0.71930    1.000
    H63      H        0.76720    0.02230    0.67160    1.000
    C89      C        0.76085    0.04240    0.75000    1.000
    C90      C        0.77944    0.02654    0.82310    1.000
    C91      C        0.71987    0.08938    0.70576    1.000
    C92      C        0.56540    0.76947    0.14070    1.000
    C93      C        0.52388    0.74124    0.14230    1.000
    C94      C        0.47720    0.71595    0.07690    1.000
    H64      H        0.47160    0.71730    0.03190    1.000
    C95      C        0.43700    0.68750    0.07620    1.000
    C96      C        0.38890    0.65970    0.00950    1.000
    H65      H        0.38220    0.66070    0.96370    1.000
    C97      C        0.35240    0.63130    0.01240    1.000
    H66      H        0.32030    0.61380    0.96800    1.000
    C98      C        0.36270    0.62800    0.08230    1.000
    H67      H        0.33850    0.60740    0.08440    1.000
    C99      C        0.40680    0.65430    0.14380    1.000
    H68      H        0.41220    0.65310    0.18860    1.000
    C100     C        0.44690    0.68450    0.14560    1.000
    C101     C        0.49470    0.71189    0.21290    1.000
    C102     C        0.53220    0.73952    0.21100    1.000
    C103     C        0.61780    0.78491    0.97065    1.000
    C104     C        0.57394    0.74137    0.91767    1.000
    C105     C        0.55172    0.70830    0.94097    1.000
    H69      H        0.56500    0.71270    0.99070    1.000
    C106     C        0.50964    0.66812    0.89190    1.000
    C107     C        0.48583    0.63419    0.91460    1.000
    H70      H        0.49900    0.63770    0.96430    1.000
    C108     C        0.44400    0.59642    0.86490    1.000
    H71      H        0.42860    0.57460    0.88070    1.000
    C109     C        0.42400    0.59042    0.78970    1.000
    H72      H        0.39600    0.56410    0.75630    1.000
    C110     C        0.44522    0.62264    0.76500    1.000
    H73      H        0.43080    0.61860    0.71470    1.000
    C111     C        0.48873    0.66213    0.81457    1.000
    C112     C        0.51168    0.69654    0.79057    1.000
    C113     C        0.55335    0.73494    0.84107    1.000
    C114     C        0.59460    0.93330    0.85080    1.000
    H74      H        0.57070    0.90100    0.82550    1.000
    H75      H        0.63370    0.92340    0.87730    1.000
    H76      H        0.58220    0.96140    0.81290    1.000
    C115     C        0.62310    0.97200    0.88300    1.000
    H77      H        0.64590    0.00450    0.91110    1.000
    H78      H        0.59620    0.98010    0.82840    1.000
    H79      H        0.64760    0.94200    0.89310    1.000
    C116     C        0.59060    0.95540    0.90890    1.000
    C117     C        0.56200    0.91180    0.17300    1.000
    H80      H        0.54130    0.93760    0.17840    1.000
    H81      H        0.60180    0.91250    0.21890    1.000
    H82      H        0.54700    0.87500    0.16550    1.000
    C118     C        0.55530    0.92764    0.10470    1.000
    C119     C        0.61040    0.07730    0.02240    1.000
    H83      H        0.58820    0.07810    0.96890    1.000
    C120     C        0.64480    0.12280    0.06510    1.000
    H84      H        0.64450    0.15340    0.04020    1.000
    C121     C        0.67950    0.12286    0.14470    1.000
    C122     C        0.67658    0.07609    0.17640    1.000
    H85      H        0.69890    0.07360    0.22980    1.000
    C123     C        0.64059    0.03296    0.12920    1.000
    H86      H        0.63970    0.00190    0.15250    1.000
    C124     C        0.71767    0.16975    0.19340    1.000
    C125     C        0.72360    0.21580    0.16330    1.000
    H87      H        0.70290    0.21820    0.11030    1.000
    C126     C        0.76010    0.25799    0.21170    1.000
    H88      H        0.76330    0.28860    0.19010    1.000
    C127     C        0.74990    0.16941    0.27260    1.000
    H89      H        0.74730    0.13950    0.29580    1.000
    C128     C        0.78591    0.21324    0.31730    1.000
    H90      H        0.80750    0.21170    0.37050    1.000
    C129     C        0.43540    0.90489    0.82120    1.000
    H91      H        0.43290    0.94090    0.80440    1.000
    C130     C        0.39560    0.86652    0.76680    1.000
    H92      H        0.36840    0.87690    0.71500    1.000
    C131     C        0.39573    0.81344    0.78789    1.000
    C132     C        0.43720    0.80278    0.86520    1.000
    H93      H        0.43940    0.76770    0.88390    1.000
    C133     C        0.47609    0.84328    0.91610    1.000
    H94      H        0.50360    0.83410    0.96840    1.000
    C134     C        0.35234    0.77140    0.73121    1.000
    C135     C        0.35155    0.71864    0.75490    1.000
    H95      H        0.37890    0.70870    0.80690    1.000
    C136     C        0.31020    0.68095    0.70130    1.000
    H96      H        0.31080    0.64570    0.71860    1.000
    C137     C        0.31070    0.78256    0.65200    1.000
    H97      H        0.31000    0.81690    0.63270    1.000
    C138     C        0.27089    0.74288    0.60278    1.000
    H98      H        0.24340    0.75150    0.55030    1.000
    Cd7      Cd       0.95581    0.46114    0.52128    1.000
    Cd8      Cd       0.80101    0.37499    0.45875    1.000
    Cd9      Cd       0.86094    0.32418    0.36460    1.000
    O33      O        0.72297    0.43112    0.41461    1.000
    O34      O        0.76993    0.39243    0.52885    1.000
    O35      O        0.75112    0.42591    0.61600    1.000
    H99      H        0.76590    0.40920    0.60030    1.000
    O36      O        0.73928    0.55421    0.64586    1.000
    H100     H        0.76130    0.57900    0.67550    1.000
    O37      O        0.79725    0.61450    0.76416    1.000
    O38      O        0.79849    0.60366    0.85964    1.000
    O39      O        0.94233    0.27055    0.42013    1.000
    O40      O        0.89043    0.29177    0.29675    1.000
    O41      O        0.92263    0.26649    0.22401    1.000
    H101     H        0.90260    0.28160    0.23270    1.000
    O42      O        0.86932    0.29606    0.46656    1.000
    O43      O        0.85790    0.30941    0.55015    1.000
    O44      O        0.92668    0.26679    0.68502    1.000
    H102     H        0.90240    0.28770    0.64650    1.000
    O45      O        0.95451    0.48168    0.61901    1.000
    O46      O        0.88221    0.42956    0.52721    1.000
    O47      O        0.92152    0.40028    0.41528    1.000
    O48      O        0.97438    0.46939    0.43402    1.000
    N9       N        0.70862    0.75731    0.21160    1.000
    N10      N        0.89260    0.53297    0.44686    1.000
    N11      N        0.02347    0.39387    0.60481    1.000
    N12      N        0.23098    0.19229    0.87453    1.000
    C139     C        0.72876    0.42175    0.47320    1.000
    C140     C        0.68721    0.44567    0.47871    1.000
    C141     C        0.63704    0.46821    0.41470    1.000
    H103     H        0.62900    0.46850    0.36800    1.000
    C142     C        0.59701    0.49110    0.41840    1.000
    C143     C        0.54500    0.51450    0.35230    1.000
    H104     H        0.53630    0.51410    0.30510    1.000
    C144     C        0.50750    0.53780    0.35700    1.000
    H105     H        0.47350    0.55350    0.31320    1.000
    C145     C        0.51960    0.53810    0.42670    1.000
    H106     H        0.49330    0.55330    0.42890    1.000
    C146     C        0.56995    0.51629    0.49260    1.000
    H107     H        0.57750    0.51720    0.53900    1.000
    C147     C        0.61010    0.49262    0.49020    1.000
    C148     C        0.66391    0.47178    0.55770    1.000
    C149     C        0.70041    0.44709    0.55099    1.000
    C150     C        0.68361    0.48290    0.63550    1.000
    C151     C        0.66450    0.45179    0.66690    1.000
    C152     C        0.62778    0.40509    0.62760    1.000
    H108     H        0.61370    0.39590    0.57840    1.000
    C153     C        0.61300    0.37372    0.66120    1.000
    H109     H        0.58900    0.34320    0.63470    1.000
    C154     C        0.63330    0.38640    0.73450    1.000
    H110     H        0.62350    0.36390    0.75710    1.000
    C155     C        0.66790    0.43217    0.77410    1.000
    H111     H        0.68060    0.44090    0.82270    1.000
    C156     C        0.68406    0.46582    0.74110    1.000
    C157     C        0.72082    0.51215    0.78070    1.000
    H112     H        0.73280    0.52230    0.82840    1.000
    C158     C        0.73915    0.54240    0.75000    1.000
    C159     C        0.72056    0.52654    0.67690    1.000
    C160     C        0.78013    0.58938    0.79424    1.000
    C161     C        0.93460    0.26947    0.35930    1.000
    C162     C        0.97612    0.24124    0.35770    1.000
    C163     C        0.02280    0.21595    0.42310    1.000
    H113     H        0.02840    0.21730    0.46810    1.000
    C164     C        0.06300    0.18750    0.42380    1.000
    C165     C        0.11110    0.15970    0.49050    1.000
    H114     H        0.11780    0.16070    0.53630    1.000
    C166     C        0.14760    0.13130    0.48760    1.000
    H115     H        0.17970    0.11380    0.53200    1.000
    C167     C        0.13730    0.12800    0.41770    1.000
    H116     H        0.16150    0.10740    0.41560    1.000
    C168     C        0.09320    0.15430    0.35620    1.000
    H117     H        0.08780    0.15310    0.31140    1.000
    C169     C        0.05310    0.18450    0.35440    1.000
    C170     C        0.00530    0.21189    0.28710    1.000
    C171     C        0.96780    0.23952    0.28900    1.000
    C172     C        0.88220    0.28491    0.52935    1.000
    C173     C        0.92606    0.24137    0.58233    1.000
    C174     C        0.94828    0.20830    0.55903    1.000
    H118     H        0.93500    0.21270    0.50930    1.000
    C175     C        0.99036    0.16812    0.60810    1.000
    C176     C        0.01417    0.13419    0.58540    1.000
    H119     H        0.00100    0.13770    0.53570    1.000
    C177     C        0.05600    0.09642    0.63510    1.000
    H120     H        0.07140    0.07460    0.61930    1.000
    C178     C        0.07600    0.09042    0.71030    1.000
    H121     H        0.10400    0.06410    0.74370    1.000
    C179     C        0.05478    0.12264    0.73500    1.000
    H122     H        0.06920    0.11860    0.78530    1.000
    C180     C        0.01127    0.16213    0.68543    1.000
    C181     C        0.98832    0.19654    0.70943    1.000
    C182     C        0.94665    0.23494    0.65893    1.000
    C183     C        0.90540    0.43330    0.64920    1.000
    H123     H        0.92930    0.40100    0.67450    1.000
    H124     H        0.86630    0.42340    0.62270    1.000
    H125     H        0.91780    0.46140    0.68710    1.000
    C184     C        0.87690    0.47200    0.61700    1.000
    H126     H        0.85410    0.50450    0.58890    1.000
    H127     H        0.90380    0.48010    0.67160    1.000
    H128     H        0.85240    0.44200    0.60690    1.000
    C185     C        0.90940    0.45540    0.59110    1.000
    C186     C        0.93800    0.41180    0.32700    1.000
    H129     H        0.95870    0.43760    0.32160    1.000
    H130     H        0.89820    0.41250    0.28110    1.000
    H131     H        0.95300    0.37500    0.33450    1.000
    C187     C        0.94470    0.42764    0.39530    1.000
    C188     C        0.88960    0.57730    0.47760    1.000
    H132     H        0.91180    0.57810    0.53110    1.000
    C189     C        0.85520    0.62280    0.43490    1.000
    H133     H        0.85550    0.65340    0.45980    1.000
    C190     C        0.82050    0.62286    0.35530    1.000
    C191     C        0.82342    0.57609    0.32360    1.000
    H134     H        0.80110    0.57360    0.27020    1.000
    C192     C        0.85941    0.53296    0.37080    1.000
    H135     H        0.86030    0.50190    0.34750    1.000
    C193     C        0.78233    0.66975    0.30660    1.000
    C194     C        0.77640    0.71580    0.33670    1.000
    H136     H        0.79710    0.71820    0.38970    1.000
    C195     C        0.73990    0.75799    0.28830    1.000
    H137     H        0.73670    0.78860    0.30990    1.000
    C196     C        0.75010    0.66941    0.22740    1.000
    H138     H        0.75270    0.63950    0.20420    1.000
    C197     C        0.71409    0.71324    0.18270    1.000
    H139     H        0.69250    0.71170    0.12950    1.000
    C198     C        0.06460    0.40489    0.67880    1.000
    H140     H        0.06710    0.44090    0.69560    1.000
    C199     C        0.10440    0.36652    0.73320    1.000
    H141     H        0.13160    0.37690    0.78500    1.000
    C200     C        0.10427    0.31344    0.71211    1.000
    C201     C        0.06280    0.30278    0.63480    1.000
    H142     H        0.06060    0.26770    0.61610    1.000
    C202     C        0.02391    0.34328    0.58390    1.000
    H143     H        0.99640    0.33410    0.53160    1.000
    C203     C        0.14766    0.27140    0.76879    1.000
    C204     C        0.14845    0.21864    0.74510    1.000
    H144     H        0.12110    0.20870    0.69310    1.000
    C205     C        0.18980    0.18095    0.79870    1.000
    H145     H        0.18920    0.14570    0.78140    1.000
    C206     C        0.18930    0.28256    0.84800    1.000
    H146     H        0.19000    0.31690    0.86730    1.000
    C207     C        0.22911    0.24288    0.89722    1.000
    H147     H        0.25660    0.25150    0.94970    1.000
    Cd10     Cd       0.45581    0.96114    0.52128    1.000
    Cd11     Cd       0.30101    0.87499    0.45875    1.000
    Cd12     Cd       0.36094    0.82418    0.36460    1.000
    O49      O        0.22297    0.93112    0.41461    1.000
    O50      O        0.26993    0.89243    0.52885    1.000
    O51      O        0.25112    0.92591    0.61600    1.000
    H148     H        0.26590    0.90920    0.60030    1.000
    O52      O        0.23928    0.05421    0.64586    1.000
    H149     H        0.26130    0.07900    0.67550    1.000
    O53      O        0.29725    0.11450    0.76416    1.000
    O54      O        0.29849    0.10366    0.85964    1.000
    O55      O        0.44233    0.77055    0.42013    1.000
    O56      O        0.39043    0.79177    0.29675    1.000
    O57      O        0.42263    0.76649    0.22401    1.000
    H150     H        0.40260    0.78160    0.23270    1.000
    O58      O        0.36932    0.79606    0.46656    1.000
    O59      O        0.35790    0.80941    0.55015    1.000
    O60      O        0.42668    0.76679    0.68502    1.000
    H151     H        0.40240    0.78770    0.64650    1.000
    O61      O        0.45451    0.98168    0.61901    1.000
    O62      O        0.38221    0.92956    0.52721    1.000
    O63      O        0.42152    0.90028    0.41528    1.000
    O64      O        0.47438    0.96939    0.43402    1.000
    N13      N        0.20862    0.25731    0.21160    1.000
    N14      N        0.39260    0.03297    0.44686    1.000
    N15      N        0.52347    0.89387    0.60481    1.000
    N16      N        0.73098    0.69229    0.87453    1.000
    C208     C        0.22876    0.92175    0.47320    1.000
    C209     C        0.18721    0.94567    0.47871    1.000
    C210     C        0.13704    0.96821    0.41470    1.000
    H152     H        0.12900    0.96850    0.36800    1.000
    C211     C        0.09701    0.99110    0.41840    1.000
    C212     C        0.04500    0.01450    0.35230    1.000
    H153     H        0.03630    0.01410    0.30510    1.000
    C213     C        0.00750    0.03780    0.35700    1.000
    H154     H        0.97350    0.05350    0.31320    1.000
    C214     C        0.01960    0.03810    0.42670    1.000
    H155     H        0.99330    0.05330    0.42890    1.000
    C215     C        0.06995    0.01629    0.49260    1.000
    H156     H        0.07750    0.01720    0.53900    1.000
    C216     C        0.11010    0.99262    0.49020    1.000
    C217     C        0.16391    0.97178    0.55770    1.000
    C218     C        0.20041    0.94709    0.55099    1.000
    C219     C        0.18361    0.98290    0.63550    1.000
    C220     C        0.16450    0.95179    0.66690    1.000
    C221     C        0.12778    0.90509    0.62760    1.000
    H157     H        0.11370    0.89590    0.57840    1.000
    C222     C        0.11300    0.87372    0.66120    1.000
    H158     H        0.08900    0.84320    0.63470    1.000
    C223     C        0.13330    0.88640    0.73450    1.000
    H159     H        0.12350    0.86390    0.75710    1.000
    C224     C        0.16790    0.93217    0.77410    1.000
    H160     H        0.18060    0.94090    0.82270    1.000
    C225     C        0.18406    0.96582    0.74110    1.000
    C226     C        0.22082    0.01215    0.78070    1.000
    H161     H        0.23280    0.02230    0.82840    1.000
    C227     C        0.23915    0.04240    0.75000    1.000
    C228     C        0.22056    0.02654    0.67690    1.000
    C229     C        0.28013    0.08938    0.79424    1.000
    C230     C        0.43460    0.76947    0.35930    1.000
    C231     C        0.47612    0.74124    0.35770    1.000
    C232     C        0.52280    0.71595    0.42310    1.000
    H162     H        0.52840    0.71730    0.46810    1.000
    C233     C        0.56300    0.68750    0.42380    1.000
    C234     C        0.61110    0.65970    0.49050    1.000
    H163     H        0.61780    0.66070    0.53630    1.000
    C235     C        0.64760    0.63130    0.48760    1.000
    H164     H        0.67970    0.61380    0.53200    1.000
    C236     C        0.63730    0.62800    0.41770    1.000
    H165     H        0.66150    0.60740    0.41560    1.000
    C237     C        0.59320    0.65430    0.35620    1.000
    H166     H        0.58780    0.65310    0.31140    1.000
    C238     C        0.55310    0.68450    0.35440    1.000
    C239     C        0.50530    0.71189    0.28710    1.000
    C240     C        0.46780    0.73952    0.28900    1.000
    C241     C        0.38220    0.78491    0.52935    1.000
    C242     C        0.42606    0.74137    0.58233    1.000
    C243     C        0.44828    0.70830    0.55903    1.000
    H167     H        0.43500    0.71270    0.50930    1.000
    C244     C        0.49036    0.66812    0.60810    1.000
    C245     C        0.51417    0.63419    0.58540    1.000
    H168     H        0.50100    0.63770    0.53570    1.000
    C246     C        0.55600    0.59642    0.63510    1.000
    H169     H        0.57140    0.57460    0.61930    1.000
    C247     C        0.57600    0.59042    0.71030    1.000
    H170     H        0.60400    0.56410    0.74370    1.000
    C248     C        0.55478    0.62264    0.73500    1.000
    H171     H        0.56920    0.61860    0.78530    1.000
    C249     C        0.51127    0.66213    0.68543    1.000
    C250     C        0.48832    0.69654    0.70943    1.000
    C251     C        0.44665    0.73494    0.65893    1.000
    C252     C        0.40540    0.93330    0.64920    1.000
    H172     H        0.42930    0.90100    0.67450    1.000
    H173     H        0.36630    0.92340    0.62270    1.000
    H174     H        0.41780    0.96140    0.68710    1.000
    C253     C        0.37690    0.97200    0.61700    1.000
    H175     H        0.35410    0.00450    0.58890    1.000
    H176     H        0.40380    0.98010    0.67160    1.000
    H177     H        0.35240    0.94200    0.60690    1.000
    C254     C        0.40940    0.95540    0.59110    1.000
    C255     C        0.43800    0.91180    0.32700    1.000
    H178     H        0.45870    0.93760    0.32160    1.000
    H179     H        0.39820    0.91250    0.28110    1.000
    H180     H        0.45300    0.87500    0.33450    1.000
    C256     C        0.44470    0.92764    0.39530    1.000
    C257     C        0.38960    0.07730    0.47760    1.000
    H181     H        0.41180    0.07810    0.53110    1.000
    C258     C        0.35520    0.12280    0.43490    1.000
    H182     H        0.35550    0.15340    0.45980    1.000
    C259     C        0.32050    0.12286    0.35530    1.000
    C260     C        0.32342    0.07609    0.32360    1.000
    H183     H        0.30110    0.07360    0.27020    1.000
    C261     C        0.35941    0.03296    0.37080    1.000
    H184     H        0.36030    0.00190    0.34750    1.000
    C262     C        0.28233    0.16975    0.30660    1.000
    C263     C        0.27640    0.21580    0.33670    1.000
    H185     H        0.29710    0.21820    0.38970    1.000
    C264     C        0.23990    0.25799    0.28830    1.000
    H186     H        0.23670    0.28860    0.30990    1.000
    C265     C        0.25010    0.16941    0.22740    1.000
    H187     H        0.25270    0.13950    0.20420    1.000
    C266     C        0.21409    0.21324    0.18270    1.000
    H188     H        0.19250    0.21170    0.12950    1.000
    C267     C        0.56460    0.90489    0.67880    1.000
    H189     H        0.56710    0.94090    0.69560    1.000
    C268     C        0.60440    0.86652    0.73320    1.000
    H190     H        0.63160    0.87690    0.78500    1.000
    C269     C        0.60427    0.81344    0.71211    1.000
    C270     C        0.56280    0.80278    0.63480    1.000
    H191     H        0.56060    0.76770    0.61610    1.000
    C271     C        0.52391    0.84328    0.58390    1.000
    H192     H        0.49640    0.83410    0.53160    1.000
    C272     C        0.64766    0.77140    0.76879    1.000
    C273     C        0.64845    0.71864    0.74510    1.000
    H193     H        0.62110    0.70870    0.69310    1.000
    C274     C        0.68980    0.68095    0.79870    1.000
    H194     H        0.68920    0.64570    0.78140    1.000
    C275     C        0.68930    0.78256    0.84800    1.000
    H195     H        0.69000    0.81690    0.86730    1.000
    C276     C        0.72911    0.74288    0.89722    1.000
    H196     H        0.75660    0.75150    0.94970    1.000
    Cd13     Cd       0.95581    0.53886    0.02128    1.000
    Cd14     Cd       0.80101    0.62501    0.95875    1.000
    Cd15     Cd       0.86094    0.67582    0.86460    1.000
    O65      O        0.72297    0.56888    0.91461    1.000
    O66      O        0.76993    0.60757    0.02885    1.000
    O67      O        0.75112    0.57409    0.11600    1.000
    H197     H        0.76590    0.59080    0.10030    1.000
    O68      O        0.73928    0.44579    0.14586    1.000
    H198     H        0.76130    0.42100    0.17550    1.000
    O69      O        0.79725    0.38550    0.26416    1.000
    O70      O        0.79849    0.39634    0.35964    1.000
    O71      O        0.94233    0.72945    0.92013    1.000
    O72      O        0.89043    0.70823    0.79675    1.000
    O73      O        0.92263    0.73351    0.72401    1.000
    H199     H        0.90260    0.71840    0.73270    1.000
    O74      O        0.86932    0.70394    0.96656    1.000
    O75      O        0.85790    0.69059    0.05015    1.000
    O76      O        0.92668    0.73321    0.18502    1.000
    H200     H        0.90240    0.71230    0.14650    1.000
    O77      O        0.95451    0.51832    0.11901    1.000
    O78      O        0.88221    0.57044    0.02721    1.000
    O79      O        0.92152    0.59972    0.91528    1.000
    O80      O        0.97438    0.53061    0.93402    1.000
    N17      N        0.70862    0.24269    0.71160    1.000
    N18      N        0.89260    0.46703    0.94686    1.000
    N19      N        0.02347    0.60613    0.10481    1.000
    N20      N        0.23098    0.80771    0.37453    1.000
    C277     C        0.72876    0.57825    0.97320    1.000
    C278     C        0.68721    0.55433    0.97871    1.000
    C279     C        0.63704    0.53179    0.91470    1.000
    H201     H        0.62900    0.53150    0.86800    1.000
    C280     C        0.59701    0.50890    0.91840    1.000
    C281     C        0.54500    0.48550    0.85230    1.000
    H202     H        0.53630    0.48590    0.80510    1.000
    C282     C        0.50750    0.46220    0.85700    1.000
    H203     H        0.47350    0.44650    0.81320    1.000
    C283     C        0.51960    0.46190    0.92670    1.000
    H204     H        0.49330    0.44670    0.92890    1.000
    C284     C        0.56995    0.48371    0.99260    1.000
    H205     H        0.57750    0.48280    0.03900    1.000
    C285     C        0.61010    0.50738    0.99020    1.000
    C286     C        0.66391    0.52822    0.05770    1.000
    C287     C        0.70041    0.55291    0.05099    1.000
    C288     C        0.68361    0.51710    0.13550    1.000
    C289     C        0.66450    0.54821    0.16690    1.000
    C290     C        0.62778    0.59491    0.12760    1.000
    H206     H        0.61370    0.60410    0.07840    1.000
    C291     C        0.61300    0.62628    0.16120    1.000
    H207     H        0.58900    0.65680    0.13470    1.000
    C292     C        0.63330    0.61360    0.23450    1.000
    H208     H        0.62350    0.63610    0.25710    1.000
    C293     C        0.66790    0.56783    0.27410    1.000
    H209     H        0.68060    0.55910    0.32270    1.000
    C294     C        0.68406    0.53418    0.24110    1.000
    C295     C        0.72082    0.48785    0.28070    1.000
    H210     H        0.73280    0.47770    0.32840    1.000
    C296     C        0.73915    0.45760    0.25000    1.000
    C297     C        0.72056    0.47346    0.17690    1.000
    C298     C        0.78013    0.41062    0.29424    1.000
    C299     C        0.93460    0.73053    0.85930    1.000
    C300     C        0.97612    0.75876    0.85770    1.000
    C301     C        0.02280    0.78405    0.92310    1.000
    H211     H        0.02840    0.78270    0.96810    1.000
    C302     C        0.06300    0.81250    0.92380    1.000
    C303     C        0.11110    0.84030    0.99050    1.000
    H212     H        0.11780    0.83930    0.03630    1.000
    C304     C        0.14760    0.86870    0.98760    1.000
    H213     H        0.17970    0.88620    0.03200    1.000
    C305     C        0.13730    0.87200    0.91770    1.000
    H214     H        0.16150    0.89260    0.91560    1.000
    C306     C        0.09320    0.84570    0.85620    1.000
    H215     H        0.08780    0.84690    0.81140    1.000
    C307     C        0.05310    0.81550    0.85440    1.000
    C308     C        0.00530    0.78811    0.78710    1.000
    C309     C        0.96780    0.76048    0.78900    1.000
    C310     C        0.88220    0.71509    0.02935    1.000
    C311     C        0.92606    0.75863    0.08233    1.000
    C312     C        0.94828    0.79170    0.05903    1.000
    H216     H        0.93500    0.78730    0.00930    1.000
    C313     C        0.99036    0.83188    0.10810    1.000
    C314     C        0.01417    0.86581    0.08540    1.000
    H217     H        0.00100    0.86230    0.03570    1.000
    C315     C        0.05600    0.90358    0.13510    1.000
    H218     H        0.07140    0.92540    0.11930    1.000
    C316     C        0.07600    0.90958    0.21030    1.000
    H219     H        0.10400    0.93590    0.24370    1.000
    C317     C        0.05478    0.87736    0.23500    1.000
    H220     H        0.06920    0.88140    0.28530    1.000
    C318     C        0.01127    0.83787    0.18543    1.000
    C319     C        0.98832    0.80346    0.20943    1.000
    C320     C        0.94665    0.76506    0.15893    1.000
    C321     C        0.90540    0.56670    0.14920    1.000
    H221     H        0.92930    0.59900    0.17450    1.000
    H222     H        0.86630    0.57660    0.12270    1.000
    H223     H        0.91780    0.53860    0.18710    1.000
    C322     C        0.87690    0.52800    0.11700    1.000
    H224     H        0.85410    0.49550    0.08890    1.000
    H225     H        0.90380    0.51990    0.17160    1.000
    H226     H        0.85240    0.55800    0.10690    1.000
    C323     C        0.90940    0.54460    0.09110    1.000
    C324     C        0.93800    0.58820    0.82700    1.000
    H227     H        0.95870    0.56240    0.82160    1.000
    H228     H        0.89820    0.58750    0.78110    1.000
    H229     H        0.95300    0.62500    0.83450    1.000
    C325     C        0.94470    0.57236    0.89530    1.000
    C326     C        0.88960    0.42270    0.97760    1.000
    H230     H        0.91180    0.42190    0.03110    1.000
    C327     C        0.85520    0.37720    0.93490    1.000
    H231     H        0.85550    0.34660    0.95980    1.000
    C328     C        0.82050    0.37714    0.85530    1.000
    C329     C        0.82342    0.42391    0.82360    1.000
    H232     H        0.80110    0.42640    0.77020    1.000
    C330     C        0.85941    0.46704    0.87080    1.000
    H233     H        0.86030    0.49810    0.84750    1.000
    C331     C        0.78233    0.33025    0.80660    1.000
    C332     C        0.77640    0.28420    0.83670    1.000
    H234     H        0.79710    0.28180    0.88970    1.000
    C333     C        0.73990    0.24201    0.78830    1.000
    H235     H        0.73670    0.21140    0.80990    1.000
    C334     C        0.75010    0.33059    0.72740    1.000
    H236     H        0.75270    0.36050    0.70420    1.000
    C335     C        0.71409    0.28676    0.68270    1.000
    H237     H        0.69250    0.28830    0.62950    1.000
    C336     C        0.06460    0.59511    0.17880    1.000
    H238     H        0.06710    0.55910    0.19560    1.000
    C337     C        0.10440    0.63348    0.23320    1.000
    H239     H        0.13160    0.62310    0.28500    1.000
    C338     C        0.10427    0.68656    0.21211    1.000
    C339     C        0.06280    0.69722    0.13480    1.000
    H240     H        0.06060    0.73230    0.11610    1.000
    C340     C        0.02391    0.65672    0.08390    1.000
    H241     H        0.99640    0.66590    0.03160    1.000
    C341     C        0.14766    0.72860    0.26879    1.000
    C342     C        0.14845    0.78136    0.24510    1.000
    H242     H        0.12110    0.79130    0.19310    1.000
    C343     C        0.18980    0.81905    0.29870    1.000
    H243     H        0.18920    0.85430    0.28140    1.000
    C344     C        0.18930    0.71744    0.34800    1.000
    H244     H        0.19000    0.68310    0.36730    1.000
    C345     C        0.22911    0.75712    0.39722    1.000
    H245     H        0.25660    0.74850    0.44970    1.000
    Cd16     Cd       0.45581    0.03886    0.02128    1.000
    Cd17     Cd       0.30101    0.12501    0.95875    1.000
    Cd18     Cd       0.36094    0.17582    0.86460    1.000
    O81      O        0.22297    0.06888    0.91461    1.000
    O82      O        0.26993    0.10757    0.02885    1.000
    O83      O        0.25112    0.07409    0.11600    1.000
    H246     H        0.26590    0.09080    0.10030    1.000
    O84      O        0.23928    0.94579    0.14586    1.000
    H247     H        0.26130    0.92100    0.17550    1.000
    O85      O        0.29725    0.88550    0.26416    1.000
    O86      O        0.29849    0.89634    0.35964    1.000
    O87      O        0.44233    0.22945    0.92013    1.000
    O88      O        0.39043    0.20823    0.79675    1.000
    O89      O        0.42263    0.23351    0.72401    1.000
    H248     H        0.40260    0.21840    0.73270    1.000
    O90      O        0.36932    0.20394    0.96656    1.000
    O91      O        0.35790    0.19059    0.05015    1.000
    O92      O        0.42668    0.23321    0.18502    1.000
    H249     H        0.40240    0.21230    0.14650    1.000
    O93      O        0.45451    0.01832    0.11901    1.000
    O94      O        0.38221    0.07044    0.02721    1.000
    O95      O        0.42152    0.09972    0.91528    1.000
    O96      O        0.47438    0.03061    0.93402    1.000
    N21      N        0.20862    0.74269    0.71160    1.000
    N22      N        0.39260    0.96703    0.94686    1.000
    N23      N        0.52347    0.10613    0.10481    1.000
    N24      N        0.73098    0.30771    0.37453    1.000
    C346     C        0.22876    0.07825    0.97320    1.000
    C347     C        0.18721    0.05433    0.97871    1.000
    C348     C        0.13704    0.03179    0.91470    1.000
    H250     H        0.12900    0.03150    0.86800    1.000
    C349     C        0.09701    0.00890    0.91840    1.000
    C350     C        0.04500    0.98550    0.85230    1.000
    H251     H        0.03630    0.98590    0.80510    1.000
    C351     C        0.00750    0.96220    0.85700    1.000
    H252     H        0.97350    0.94650    0.81320    1.000
    C352     C        0.01960    0.96190    0.92670    1.000
    H253     H        0.99330    0.94670    0.92890    1.000
    C353     C        0.06995    0.98371    0.99260    1.000
    H254     H        0.07750    0.98280    0.03900    1.000
    C354     C        0.11010    0.00738    0.99020    1.000
    C355     C        0.16391    0.02822    0.05770    1.000
    C356     C        0.20041    0.05291    0.05099    1.000
    C357     C        0.18361    0.01710    0.13550    1.000
    C358     C        0.16450    0.04821    0.16690    1.000
    C359     C        0.12778    0.09491    0.12760    1.000
    H255     H        0.11370    0.10410    0.07840    1.000
    C360     C        0.11300    0.12628    0.16120    1.000
    H256     H        0.08900    0.15680    0.13470    1.000
    C361     C        0.13330    0.11360    0.23450    1.000
    H257     H        0.12350    0.13610    0.25710    1.000
    C362     C        0.16790    0.06783    0.27410    1.000
    H258     H        0.18060    0.05910    0.32270    1.000
    C363     C        0.18406    0.03418    0.24110    1.000
    C364     C        0.22082    0.98785    0.28070    1.000
    H259     H        0.23280    0.97770    0.32840    1.000
    C365     C        0.23915    0.95760    0.25000    1.000
    C366     C        0.22056    0.97346    0.17690    1.000
    C367     C        0.28013    0.91062    0.29424    1.000
    C368     C        0.43460    0.23053    0.85930    1.000
    C369     C        0.47612    0.25876    0.85770    1.000
    C370     C        0.52280    0.28405    0.92310    1.000
    H260     H        0.52840    0.28270    0.96810    1.000
    C371     C        0.56300    0.31250    0.92380    1.000
    C372     C        0.61110    0.34030    0.99050    1.000
    H261     H        0.61780    0.33930    0.03630    1.000
    C373     C        0.64760    0.36870    0.98760    1.000
    H262     H        0.67970    0.38620    0.03200    1.000
    C374     C        0.63730    0.37200    0.91770    1.000
    H263     H        0.66150    0.39260    0.91560    1.000
    C375     C        0.59320    0.34570    0.85620    1.000
    H264     H        0.58780    0.34690    0.81140    1.000
    C376     C        0.55310    0.31550    0.85440    1.000
    C377     C        0.50530    0.28811    0.78710    1.000
    C378     C        0.46780    0.26048    0.78900    1.000
    C379     C        0.38220    0.21509    0.02935    1.000
    C380     C        0.42606    0.25863    0.08233    1.000
    C381     C        0.44828    0.29170    0.05903    1.000
    H265     H        0.43500    0.28730    0.00930    1.000
    C382     C        0.49036    0.33188    0.10810    1.000
    C383     C        0.51417    0.36581    0.08540    1.000
    H266     H        0.50100    0.36230    0.03570    1.000
    C384     C        0.55600    0.40358    0.13510    1.000
    H267     H        0.57140    0.42540    0.11930    1.000
    C385     C        0.57600    0.40958    0.21030    1.000
    H268     H        0.60400    0.43590    0.24370    1.000
    C386     C        0.55478    0.37736    0.23500    1.000
    H269     H        0.56920    0.38140    0.28530    1.000
    C387     C        0.51127    0.33787    0.18543    1.000
    C388     C        0.48832    0.30346    0.20943    1.000
    C389     C        0.44665    0.26506    0.15893    1.000
    C390     C        0.40540    0.06670    0.14920    1.000
    H270     H        0.42930    0.09900    0.17450    1.000
    H271     H        0.36630    0.07660    0.12270    1.000
    H272     H        0.41780    0.03860    0.18710    1.000
    C391     C        0.37690    0.02800    0.11700    1.000
    H273     H        0.35410    0.99550    0.08890    1.000
    H274     H        0.40380    0.01990    0.17160    1.000
    H275     H        0.35240    0.05800    0.10690    1.000
    C392     C        0.40940    0.04460    0.09110    1.000
    C393     C        0.43800    0.08820    0.82700    1.000
    H276     H        0.45870    0.06240    0.82160    1.000
    H277     H        0.39820    0.08750    0.78110    1.000
    H278     H        0.45300    0.12500    0.83450    1.000
    C394     C        0.44470    0.07236    0.89530    1.000
    C395     C        0.38960    0.92270    0.97760    1.000
    H279     H        0.41180    0.92190    0.03110    1.000
    C396     C        0.35520    0.87720    0.93490    1.000
    H280     H        0.35550    0.84660    0.95980    1.000
    C397     C        0.32050    0.87714    0.85530    1.000
    C398     C        0.32342    0.92391    0.82360    1.000
    H281     H        0.30110    0.92640    0.77020    1.000
    C399     C        0.35941    0.96704    0.87080    1.000
    H282     H        0.36030    0.99810    0.84750    1.000
    C400     C        0.28233    0.83025    0.80660    1.000
    C401     C        0.27640    0.78420    0.83670    1.000
    H283     H        0.29710    0.78180    0.88970    1.000
    C402     C        0.23990    0.74201    0.78830    1.000
    H284     H        0.23670    0.71140    0.80990    1.000
    C403     C        0.25010    0.83059    0.72740    1.000
    H285     H        0.25270    0.86050    0.70420    1.000
    C404     C        0.21409    0.78676    0.68270    1.000
    H286     H        0.19250    0.78830    0.62950    1.000
    C405     C        0.56460    0.09511    0.17880    1.000
    H287     H        0.56710    0.05910    0.19560    1.000
    C406     C        0.60440    0.13348    0.23320    1.000
    H288     H        0.63160    0.12310    0.28500    1.000
    C407     C        0.60427    0.18656    0.21211    1.000
    C408     C        0.56280    0.19722    0.13480    1.000
    H289     H        0.56060    0.23230    0.11610    1.000
    C409     C        0.52391    0.15672    0.08390    1.000
    H290     H        0.49640    0.16590    0.03160    1.000
    C410     C        0.64766    0.22860    0.26879    1.000
    C411     C        0.64845    0.28136    0.24510    1.000
    H291     H        0.62110    0.29130    0.19310    1.000
    C412     C        0.68980    0.31905    0.29870    1.000
    H292     H        0.68920    0.35430    0.28140    1.000
    C413     C        0.68930    0.21744    0.34800    1.000
    H293     H        0.69000    0.18310    0.36730    1.000
    C414     C        0.72911    0.25712    0.39722    1.000
    H294     H        0.75660    0.24850    0.44970    1.000
    Cd19     Cd       0.04419    0.53886    0.47872    1.000
    Cd20     Cd       0.19899    0.62501    0.54125    1.000
    Cd21     Cd       0.13906    0.67582    0.63540    1.000
    O97      O        0.27703    0.56888    0.58539    1.000
    O98      O        0.23007    0.60757    0.47115    1.000
    O99      O        0.24888    0.57409    0.38400    1.000
    H295     H        0.23410    0.59080    0.39970    1.000
    O100     O        0.26072    0.44579    0.35414    1.000
    H296     H        0.23870    0.42100    0.32450    1.000
    O101     O        0.20275    0.38550    0.23584    1.000
    O102     O        0.20151    0.39634    0.14036    1.000
    O103     O        0.05767    0.72945    0.57987    1.000
    O104     O        0.10957    0.70823    0.70325    1.000
    O105     O        0.07737    0.73351    0.77599    1.000
    H297     H        0.09740    0.71840    0.76730    1.000
    O106     O        0.13068    0.70394    0.53344    1.000
    O107     O        0.14210    0.69059    0.44985    1.000
    O108     O        0.07332    0.73321    0.31498    1.000
    H298     H        0.09760    0.71230    0.35350    1.000
    O109     O        0.04549    0.51832    0.38099    1.000
    O110     O        0.11779    0.57044    0.47279    1.000
    O111     O        0.07848    0.59972    0.58472    1.000
    O112     O        0.02562    0.53061    0.56598    1.000
    N25      N        0.29138    0.24269    0.78840    1.000
    N26      N        0.10740    0.46703    0.55314    1.000
    N27      N        0.97653    0.60613    0.39519    1.000
    N28      N        0.76902    0.80771    0.12547    1.000
    C415     C        0.27124    0.57825    0.52680    1.000
    C416     C        0.31279    0.55433    0.52129    1.000
    C417     C        0.36296    0.53179    0.58530    1.000
    H299     H        0.37100    0.53150    0.63200    1.000
    C418     C        0.40299    0.50890    0.58160    1.000
    C419     C        0.45500    0.48550    0.64770    1.000
    H300     H        0.46370    0.48590    0.69490    1.000
    C420     C        0.49250    0.46220    0.64300    1.000
    H301     H        0.52650    0.44650    0.68680    1.000
    C421     C        0.48040    0.46190    0.57330    1.000
    H302     H        0.50670    0.44670    0.57110    1.000
    C422     C        0.43005    0.48371    0.50740    1.000
    H303     H        0.42250    0.48280    0.46100    1.000
    C423     C        0.38990    0.50738    0.50980    1.000
    C424     C        0.33609    0.52822    0.44230    1.000
    C425     C        0.29959    0.55291    0.44901    1.000
    C426     C        0.31639    0.51710    0.36450    1.000
    C427     C        0.33550    0.54821    0.33310    1.000
    C428     C        0.37222    0.59491    0.37240    1.000
    H304     H        0.38630    0.60410    0.42160    1.000
    C429     C        0.38700    0.62628    0.33880    1.000
    H305     H        0.41100    0.65680    0.36530    1.000
    C430     C        0.36670    0.61360    0.26550    1.000
    H306     H        0.37650    0.63610    0.24290    1.000
    C431     C        0.33210    0.56783    0.22590    1.000
    H307     H        0.31940    0.55910    0.17730    1.000
    C432     C        0.31594    0.53418    0.25890    1.000
    C433     C        0.27918    0.48785    0.21930    1.000
    H308     H        0.26720    0.47770    0.17160    1.000
    C434     C        0.26085    0.45760    0.25000    1.000
    C435     C        0.27944    0.47346    0.32310    1.000
    C436     C        0.21987    0.41062    0.20576    1.000
    C437     C        0.06540    0.73053    0.64070    1.000
    C438     C        0.02388    0.75876    0.64230    1.000
    C439     C        0.97720    0.78405    0.57690    1.000
    H309     H        0.97160    0.78270    0.53190    1.000
    C440     C        0.93700    0.81250    0.57620    1.000
    C441     C        0.88890    0.84030    0.50950    1.000
    H310     H        0.88220    0.83930    0.46370    1.000
    C442     C        0.85240    0.86870    0.51240    1.000
    H311     H        0.82030    0.88620    0.46800    1.000
    C443     C        0.86270    0.87200    0.58230    1.000
    H312     H        0.83850    0.89260    0.58440    1.000
    C444     C        0.90680    0.84570    0.64380    1.000
    H313     H        0.91220    0.84690    0.68860    1.000
    C445     C        0.94690    0.81550    0.64560    1.000
    C446     C        0.99470    0.78811    0.71290    1.000
    C447     C        0.03220    0.76048    0.71100    1.000
    C448     C        0.11780    0.71509    0.47065    1.000
    C449     C        0.07394    0.75863    0.41767    1.000
    C450     C        0.05172    0.79170    0.44097    1.000
    H314     H        0.06500    0.78730    0.49070    1.000
    C451     C        0.00964    0.83188    0.39190    1.000
    C452     C        0.98583    0.86581    0.41460    1.000
    H315     H        0.99900    0.86230    0.46430    1.000
    C453     C        0.94400    0.90358    0.36490    1.000
    H316     H        0.92860    0.92540    0.38070    1.000
    C454     C        0.92400    0.90958    0.28970    1.000
    H317     H        0.89600    0.93590    0.25630    1.000
    C455     C        0.94522    0.87736    0.26500    1.000
    H318     H        0.93080    0.88140    0.21470    1.000
    C456     C        0.98873    0.83787    0.31457    1.000
    C457     C        0.01168    0.80346    0.29057    1.000
    C458     C        0.05335    0.76506    0.34107    1.000
    C459     C        0.09460    0.56670    0.35080    1.000
    H319     H        0.07070    0.59900    0.32550    1.000
    H320     H        0.13370    0.57660    0.37730    1.000
    H321     H        0.08220    0.53860    0.31290    1.000
    C460     C        0.12310    0.52800    0.38300    1.000
    H322     H        0.14590    0.49550    0.41110    1.000
    H323     H        0.09620    0.51990    0.32840    1.000
    H324     H        0.14760    0.55800    0.39310    1.000
    C461     C        0.09060    0.54460    0.40890    1.000
    C462     C        0.06200    0.58820    0.67300    1.000
    H325     H        0.04130    0.56240    0.67840    1.000
    H326     H        0.10180    0.58750    0.71890    1.000
    H327     H        0.04700    0.62500    0.66550    1.000
    C463     C        0.05530    0.57236    0.60470    1.000
    C464     C        0.11040    0.42270    0.52240    1.000
    H328     H        0.08820    0.42190    0.46890    1.000
    C465     C        0.14480    0.37720    0.56510    1.000
    H329     H        0.14450    0.34660    0.54020    1.000
    C466     C        0.17950    0.37714    0.64470    1.000
    C467     C        0.17658    0.42391    0.67640    1.000
    H330     H        0.19890    0.42640    0.72980    1.000
    C468     C        0.14059    0.46704    0.62920    1.000
    H331     H        0.13970    0.49810    0.65250    1.000
    C469     C        0.21767    0.33025    0.69340    1.000
    C470     C        0.22360    0.28420    0.66330    1.000
    H332     H        0.20290    0.28180    0.61030    1.000
    C471     C        0.26010    0.24201    0.71170    1.000
    H333     H        0.26330    0.21140    0.69010    1.000
    C472     C        0.24990    0.33059    0.77260    1.000
    H334     H        0.24730    0.36050    0.79580    1.000
    C473     C        0.28591    0.28676    0.81730    1.000
    H335     H        0.30750    0.28830    0.87050    1.000
    C474     C        0.93540    0.59511    0.32120    1.000
    H336     H        0.93290    0.55910    0.30440    1.000
    C475     C        0.89560    0.63348    0.26680    1.000
    H337     H        0.86840    0.62310    0.21500    1.000
    C476     C        0.89573    0.68656    0.28789    1.000
    C477     C        0.93720    0.69722    0.36520    1.000
    H338     H        0.93940    0.73230    0.38390    1.000
    C478     C        0.97609    0.65672    0.41610    1.000
    H339     H        0.00360    0.66590    0.46840    1.000
    C479     C        0.85234    0.72860    0.23121    1.000
    C480     C        0.85155    0.78136    0.25490    1.000
    H340     H        0.87890    0.79130    0.30690    1.000
    C481     C        0.81020    0.81905    0.20130    1.000
    H341     H        0.81080    0.85430    0.21860    1.000
    C482     C        0.81070    0.71744    0.15200    1.000
    H342     H        0.81000    0.68310    0.13270    1.000
    C483     C        0.77089    0.75712    0.10278    1.000
    H343     H        0.74340    0.74850    0.05030    1.000
    Cd22     Cd       0.54419    0.03886    0.47872    1.000
    Cd23     Cd       0.69899    0.12501    0.54125    1.000
    Cd24     Cd       0.63906    0.17582    0.63540    1.000
    O113     O        0.77703    0.06888    0.58539    1.000
    O114     O        0.73007    0.10757    0.47115    1.000
    O115     O        0.74888    0.07409    0.38400    1.000
    H344     H        0.73410    0.09080    0.39970    1.000
    O116     O        0.76072    0.94579    0.35414    1.000
    H345     H        0.73870    0.92100    0.32450    1.000
    O117     O        0.70275    0.88550    0.23584    1.000
    O118     O        0.70151    0.89634    0.14036    1.000
    O119     O        0.55767    0.22945    0.57987    1.000
    O120     O        0.60957    0.20823    0.70325    1.000
    O121     O        0.57737    0.23351    0.77599    1.000
    H346     H        0.59740    0.21840    0.76730    1.000
    O122     O        0.63068    0.20394    0.53344    1.000
    O123     O        0.64210    0.19059    0.44985    1.000
    O124     O        0.57332    0.23321    0.31498    1.000
    H347     H        0.59760    0.21230    0.35350    1.000
    O125     O        0.54549    0.01832    0.38099    1.000
    O126     O        0.61779    0.07044    0.47279    1.000
    O127     O        0.57848    0.09972    0.58472    1.000
    O128     O        0.52562    0.03061    0.56598    1.000
    N29      N        0.79138    0.74269    0.78840    1.000
    N30      N        0.60740    0.96703    0.55314    1.000
    N31      N        0.47653    0.10613    0.39519    1.000
    N32      N        0.26902    0.30771    0.12547    1.000
    C484     C        0.77124    0.07825    0.52680    1.000
    C485     C        0.81279    0.05433    0.52129    1.000
    C486     C        0.86296    0.03179    0.58530    1.000
    H348     H        0.87100    0.03150    0.63200    1.000
    C487     C        0.90299    0.00890    0.58160    1.000
    C488     C        0.95500    0.98550    0.64770    1.000
    H349     H        0.96370    0.98590    0.69490    1.000
    C489     C        0.99250    0.96220    0.64300    1.000
    H350     H        0.02650    0.94650    0.68680    1.000
    C490     C        0.98040    0.96190    0.57330    1.000
    H351     H        0.00670    0.94670    0.57110    1.000
    C491     C        0.93005    0.98371    0.50740    1.000
    H352     H        0.92250    0.98280    0.46100    1.000
    C492     C        0.88990    0.00738    0.50980    1.000
    C493     C        0.83609    0.02822    0.44230    1.000
    C494     C        0.79959    0.05291    0.44901    1.000
    C495     C        0.81639    0.01710    0.36450    1.000
    C496     C        0.83550    0.04821    0.33310    1.000
    C497     C        0.87222    0.09491    0.37240    1.000
    H353     H        0.88630    0.10410    0.42160    1.000
    C498     C        0.88700    0.12628    0.33880    1.000
    H354     H        0.91100    0.15680    0.36530    1.000
    C499     C        0.86670    0.11360    0.26550    1.000
    H355     H        0.87650    0.13610    0.24290    1.000
    C500     C        0.83210    0.06783    0.22590    1.000
    H356     H        0.81940    0.05910    0.17730    1.000
    C501     C        0.81594    0.03418    0.25890    1.000
    C502     C        0.77918    0.98785    0.21930    1.000
    H357     H        0.76720    0.97770    0.17160    1.000
    C503     C        0.76085    0.95760    0.25000    1.000
    C504     C        0.77944    0.97346    0.32310    1.000
    C505     C        0.71987    0.91062    0.20576    1.000
    C506     C        0.56540    0.23053    0.64070    1.000
    C507     C        0.52388    0.25876    0.64230    1.000
    C508     C        0.47720    0.28405    0.57690    1.000
    H358     H        0.47160    0.28270    0.53190    1.000
    C509     C        0.43700    0.31250    0.57620    1.000
    C510     C        0.38890    0.34030    0.50950    1.000
    H359     H        0.38220    0.33930    0.46370    1.000
    C511     C        0.35240    0.36870    0.51240    1.000
    H360     H        0.32030    0.38620    0.46800    1.000
    C512     C        0.36270    0.37200    0.58230    1.000
    H361     H        0.33850    0.39260    0.58440    1.000
    C513     C        0.40680    0.34570    0.64380    1.000
    H362     H        0.41220    0.34690    0.68860    1.000
    C514     C        0.44690    0.31550    0.64560    1.000
    C515     C        0.49470    0.28811    0.71290    1.000
    C516     C        0.53220    0.26048    0.71100    1.000
    C517     C        0.61780    0.21509    0.47065    1.000
    C518     C        0.57394    0.25863    0.41767    1.000
    C519     C        0.55172    0.29170    0.44097    1.000
    H363     H        0.56500    0.28730    0.49070    1.000
    C520     C        0.50964    0.33188    0.39190    1.000
    C521     C        0.48583    0.36581    0.41460    1.000
    H364     H        0.49900    0.36230    0.46430    1.000
    C522     C        0.44400    0.40358    0.36490    1.000
    H365     H        0.42860    0.42540    0.38070    1.000
    C523     C        0.42400    0.40958    0.28970    1.000
    H366     H        0.39600    0.43590    0.25630    1.000
    C524     C        0.44522    0.37736    0.26500    1.000
    H367     H        0.43080    0.38140    0.21470    1.000
    C525     C        0.48873    0.33787    0.31457    1.000
    C526     C        0.51168    0.30346    0.29057    1.000
    C527     C        0.55335    0.26506    0.34107    1.000
    C528     C        0.59460    0.06670    0.35080    1.000
    H368     H        0.57070    0.09900    0.32550    1.000
    H369     H        0.63370    0.07660    0.37730    1.000
    H370     H        0.58220    0.03860    0.31290    1.000
    C529     C        0.62310    0.02800    0.38300    1.000
    H371     H        0.64590    0.99550    0.41110    1.000
    H372     H        0.59620    0.01990    0.32840    1.000
    H373     H        0.64760    0.05800    0.39310    1.000
    C530     C        0.59060    0.04460    0.40890    1.000
    C531     C        0.56200    0.08820    0.67300    1.000
    H374     H        0.54130    0.06240    0.67840    1.000
    H375     H        0.60180    0.08750    0.71890    1.000
    H376     H        0.54700    0.12500    0.66550    1.000
    C532     C        0.55530    0.07236    0.60470    1.000
    C533     C        0.61040    0.92270    0.52240    1.000
    H377     H        0.58820    0.92190    0.46890    1.000
    C534     C        0.64480    0.87720    0.56510    1.000
    H378     H        0.64450    0.84660    0.54020    1.000
    C535     C        0.67950    0.87714    0.64470    1.000
    C536     C        0.67658    0.92391    0.67640    1.000
    H379     H        0.69890    0.92640    0.72980    1.000
    C537     C        0.64059    0.96704    0.62920    1.000
    H380     H        0.63970    0.99810    0.65250    1.000
    C538     C        0.71767    0.83025    0.69340    1.000
    C539     C        0.72360    0.78420    0.66330    1.000
    H381     H        0.70290    0.78180    0.61030    1.000
    C540     C        0.76010    0.74201    0.71170    1.000
    H382     H        0.76330    0.71140    0.69010    1.000
    C541     C        0.74990    0.83059    0.77260    1.000
    H383     H        0.74730    0.86050    0.79580    1.000
    C542     C        0.78591    0.78676    0.81730    1.000
    H384     H        0.80750    0.78830    0.87050    1.000
    C543     C        0.43540    0.09511    0.32120    1.000
    H385     H        0.43290    0.05910    0.30440    1.000
    C544     C        0.39560    0.13348    0.26680    1.000
    H386     H        0.36840    0.12310    0.21500    1.000
    C545     C        0.39573    0.18656    0.28789    1.000
    C546     C        0.43720    0.19722    0.36520    1.000
    H387     H        0.43940    0.23230    0.38390    1.000
    C547     C        0.47609    0.15672    0.41610    1.000
    H388     H        0.50360    0.16590    0.46840    1.000
    C548     C        0.35234    0.22860    0.23121    1.000
    C549     C        0.35155    0.28136    0.25490    1.000
    H389     H        0.37890    0.29130    0.30690    1.000
    C550     C        0.31020    0.31905    0.20130    1.000
    H390     H        0.31080    0.35430    0.21860    1.000
    C551     C        0.31070    0.21744    0.15200    1.000
    H391     H        0.31000    0.18310    0.13270    1.000
    C552     C        0.27089    0.25712    0.10278    1.000
    H392     H        0.24340    0.24850    0.05030    1.000
