data_functionalizedCrystal
_audit_creation_method	'EQeq! by Chris Wilmer'
_symmetry_space_group_name_H-M	'P1'
_symmetry_Int_Tables_number	1
_symmetry_cell_setting	triclinic
loop_
_symmetry_equiv_pos_as_xyz
  x,y,z
_cell_length_a	27.546
_cell_length_b	27.546
_cell_length_c	27.546
_cell_angle_alpha	90
_cell_angle_beta	90
_cell_angle_gamma	90
loop_
_atom_site_label
_atom_site_type_symbol
_atom_site_fract_x
_atom_site_fract_y
_atom_site_fract_z
_atom_site_charge
Mof_Tb	Tb	0.39965	0.5	0.5	2.651
Mof_Tb	Tb	0.39965	0	-0	2.192
Mof_Tb	Tb	0.89965	0.5	-0	2.413
Mof_Tb	Tb	0.89965	0	0.5	2.413
Mof_Tb	Tb	0.60035	0.5	0.5	2.654
Mof_Tb	Tb	0.60035	0	-0	2.195
Mof_Tb	Tb	0.10035	0.5	-0	2.405
Mof_Tb	Tb	0.10035	0	0.5	2.405
Mof_Tb	Tb	0.5	0.39965	0.5	2.65
Mof_Tb	Tb	0.5	0.89965	-0	2.413
Mof_Tb	Tb	-0	0.39965	-0	2.191
Mof_Tb	Tb	1.15366e-32	0.89965	0.5	2.413
Mof_Tb	Tb	0.5	0.60035	0.5	2.654
Mof_Tb	Tb	0.5	0.10035	-0	2.405
Mof_Tb	Tb	9.66195e-33	0.60035	-0	2.195
Mof_Tb	Tb	1.8747e-33	0.10035	0.5	2.405
Mof_Tb	Tb	0.5	0.5	0.39965	2.65
Mof_Tb	Tb	0.5	0	0.89965	2.413
Mof_Tb	Tb	3.37315e-33	0.5	0.89965	2.413
Mof_Tb	Tb	1.49845e-33	0	0.39965	2.191
Mof_Tb	Tb	0.5	0.5	0.60035	2.654
Mof_Tb	Tb	0.5	0	0.10035	2.405
Mof_Tb	Tb	-8.31491e-34	0.5	0.10035	2.405
Mof_Tb	Tb	1.19129e-32	9.66195e-33	0.60035	2.195
Mof_O 	O 	0.3636	0.4229	0.5	-0.606
Mof_C 	C 	0.2926	0.3549	0.5	0.069
Mof_H 	H 	0.2842	0.3876	0.5	0.008
Mof_C 	C 	0.2561	0.3184	0.5	-0.123
Mof_H 	H 	0.2235	0.3274	0.5	0.066
Mof_O 	O 	0.3636	0.9229	-0	-0.527
Mof_C 	C 	0.2926	0.8549	-0	0.052
Mof_H 	H 	0.2842	0.8876	-0	0.027
Mof_C 	C 	0.2561	0.8184	-0	-0.111
Mof_H 	H 	0.2235	0.8274	-0	0.064
Mof_O 	O 	0.8636	0.4229	-0	-0.588
Mof_C 	C 	0.7926	0.3549	-0	0.051
Mof_H 	H 	0.7842	0.3876	-0	0.006
Mof_C 	C 	0.7561	0.3184	-0	-0.116
Mof_H 	H 	0.7235	0.3274	-0	0.056
Mof_O 	O 	0.8636	0.9229	0.5	-0.518
Mof_C 	C 	0.7926	0.8549	0.5	0.053
Mof_H 	H 	0.7842	0.8876	0.5	0.043
Mof_C 	C 	0.7561	0.8184	0.5	-0.094
Mof_H 	H 	0.7235	0.8274	0.5	0.074
Mof_O 	O 	0.6364	0.5771	0.5	-0.604
Mof_C 	C 	0.7074	0.6451	0.5	0.078
Mof_H 	H 	0.7158	0.6124	0.5	0.013
Mof_C 	C 	0.7439	0.6816	0.5	-0.126
Mof_H 	H 	0.7765	0.6726	0.5	0.08
Mof_O 	O 	0.6364	0.0771	-0	-0.576
Mof_C 	C 	0.7074	0.1451	-0	0.062
Mof_H 	H 	0.7158	0.1124	-0	0.001
Mof_C 	C 	0.7439	0.1816	-0	-0.128
Mof_H 	H 	0.7765	0.1726	-0	0.065
Mof_O 	O 	0.1364	0.5771	-0	-0.594
Mof_C 	C 	0.2074	0.6451	-0	0.061
Mof_H 	H 	0.2158	0.6124	-0	0.001
Mof_C 	C 	0.2439	0.6816	-0	-0.128
Mof_H 	H 	0.2765	0.6726	-0	0.06
Mof_O 	O 	0.1364	0.0771	0.5	-0.575
Mof_C 	C 	0.2074	0.1451	0.5	0.064
Mof_H 	H 	0.2158	0.1124	0.5	0.009
Mof_C 	C 	0.2439	0.1816	0.5	-0.119
Mof_H 	H 	0.2765	0.1726	0.5	0.064
Mof_O 	O 	0.6364	0.4229	0.5	-0.604
Mof_C 	C 	0.7074	0.3549	0.5	0.075
Mof_H 	H 	0.7158	0.3876	0.5	0.013
Mof_C 	C 	0.7439	0.3184	0.5	-0.124
Mof_H 	H 	0.7765	0.3274	0.5	0.078
Mof_O 	O 	0.6364	0.9229	-0	-0.525
Mof_C 	C 	0.7074	0.8549	-0	0.057
Mof_H 	H 	0.7158	0.8876	-0	0.031
Mof_C 	C 	0.7439	0.8184	-0	-0.112
Mof_H 	H 	0.7765	0.8274	-0	0.076
Mof_O 	O 	0.1364	0.4229	-0	-0.594
Mof_C 	C 	0.2074	0.3549	-0	0.057
Mof_H 	H 	0.2158	0.3876	-0	0.001
Mof_C 	C 	0.2439	0.3184	-0	-0.126
Mof_H 	H 	0.2765	0.3274	-0	0.057
Mof_O 	O 	0.1364	0.9229	0.5	-0.524
Mof_C 	C 	0.2074	0.8549	0.5	0.059
Mof_H 	H 	0.2158	0.8876	0.5	0.039
Mof_C 	C 	0.2439	0.8184	0.5	-0.104
Mof_H 	H 	0.2765	0.8274	0.5	0.075
Mof_O 	O 	0.3636	0.5771	0.5	-0.605
Mof_C 	C 	0.2926	0.6451	0.5	0.073
Mof_H 	H 	0.2842	0.6124	0.5	0.008
Mof_C 	C 	0.2561	0.6816	0.5	-0.125
Mof_H 	H 	0.2235	0.6726	0.5	0.068
Mof_O 	O 	0.3636	0.0771	-0	-0.578
Mof_C 	C 	0.2926	0.1451	-0	0.056
Mof_H 	H 	0.2842	0.1124	-0	-0.003
Mof_C 	C 	0.2561	0.1816	-0	-0.126
Mof_H 	H 	0.2235	0.1726	-0	0.053
Mof_O 	O 	0.8636	0.5771	-0	-0.588
Mof_C 	C 	0.7926	0.6451	-0	0.055
Mof_H 	H 	0.7842	0.6124	-0	0.005
Mof_C 	C 	0.7561	0.6816	-0	-0.118
Mof_H 	H 	0.7235	0.6726	-0	0.058
Mof_O 	O 	0.8636	0.0771	0.5	-0.569
Mof_C 	C 	0.7926	0.1451	0.5	0.057
Mof_H 	H 	0.7842	0.1124	0.5	0.013
Mof_C 	C 	0.7561	0.1816	0.5	-0.109
Mof_H 	H 	0.7235	0.1726	0.5	0.063
Mof_O 	O 	0.5	0.3636	0.4229	-0.606
Mof_C 	C 	0.5	0.2926	0.3549	0.069
Mof_H 	H 	0.5	0.2842	0.3876	0.008
Mof_C 	C 	0.5	0.2561	0.3184	-0.123
Mof_H 	H 	0.5	0.2235	0.3274	0.066
Mof_O 	O 	0.5	0.8636	0.9229	-0.518
Mof_C 	C 	0.5	0.7926	0.8549	0.053
Mof_H 	H 	0.5	0.7842	0.8876	0.043
Mof_C 	C 	0.5	0.7561	0.8184	-0.094
Mof_H 	H 	0.5	0.7235	0.8274	0.074
Mof_O 	O 	3.46032e-33	0.3636	0.9229	-0.527
Mof_C 	C 	-6.45659e-33	0.2926	0.8549	0.052
Mof_H 	H 	3.32797e-33	0.2842	0.8876	0.027
Mof_C 	C 	1.27305e-32	0.2561	0.8184	-0.111
Mof_H 	H 	-6.5597e-33	0.2235	0.8274	0.064
Mof_O 	O 	6.4166e-33	0.8636	0.4229	-0.588
Mof_C 	C 	1.33066e-33	0.7926	0.3549	0.051
Mof_H 	H 	-3.37771e-33	0.7842	0.3876	0.006
Mof_C 	C 	2.05177e-32	0.7561	0.3184	-0.116
Mof_H 	H 	-1.18793e-33	0.7235	0.3274	0.056
Mof_O 	O 	0.5	0.6364	0.5771	-0.604
Mof_C 	C 	0.5	0.7074	0.6451	0.078
Mof_H 	H 	0.5	0.7158	0.6124	0.013
Mof_C 	C 	0.5	0.7439	0.6816	-0.126
Mof_H 	H 	0.5	0.7765	0.6726	0.08
Mof_O 	O 	0.5	0.1364	0.0771	-0.575
Mof_C 	C 	0.5	0.2074	0.1451	0.064
Mof_H 	H 	0.5	0.2158	0.1124	0.009
Mof_C 	C 	0.5	0.2439	0.1816	-0.119
Mof_H 	H 	0.5	0.2765	0.1726	0.064
Mof_O 	O 	1.49682e-33	0.6364	0.0771	-0.576
Mof_C 	C 	4.16727e-33	0.7074	0.1451	0.062
Mof_H 	H 	2.83692e-33	0.7158	0.1124	0.001
Mof_C 	C 	1.75893e-32	0.7439	0.1816	-0.128
Mof_H 	H 	1.39323e-32	0.7765	0.1726	0.065
Mof_O 	O 	1.18257e-32	0.1364	0.5771	-0.594
Mof_C 	C 	2.41874e-33	0.2074	0.6451	0.061
Mof_H 	H 	2.29613e-33	0.2158	0.6124	0.001
Mof_C 	C 	2.55559e-33	0.2439	0.6816	-0.128
Mof_H 	H 	1.21838e-32	0.2765	0.6726	0.06
Mof_O 	O 	0.5	0.6364	0.4229	-0.604
Mof_C 	C 	0.5	0.7074	0.3549	0.075
Mof_H 	H 	0.5	0.7158	0.3876	0.013
Mof_C 	C 	0.5	0.7439	0.3184	-0.124
Mof_H 	H 	0.5	0.7765	0.3274	0.078
Mof_O 	O 	0.5	0.1364	0.9229	-0.524
Mof_C 	C 	0.5	0.2074	0.8549	0.059
Mof_H 	H 	0.5	0.2158	0.8876	0.039
Mof_C 	C 	0.5	0.2439	0.8184	-0.104
Mof_H 	H 	0.5	0.2765	0.8274	0.075
Mof_O 	O 	3.46032e-33	0.6364	0.9229	-0.525
Mof_C 	C 	1.28673e-32	0.7074	0.8549	0.057
Mof_H 	H 	3.32797e-33	0.7158	0.8876	0.031
Mof_C 	C 	1.27305e-32	0.7439	0.8184	-0.112
Mof_H 	H 	3.10225e-33	0.7765	0.8274	0.076
Mof_O 	O 	6.4166e-33	0.1364	0.4229	-0.594
Mof_C 	C 	-1.08483e-33	0.2074	0.3549	0.057
Mof_H 	H 	-3.37771e-33	0.2158	0.3876	0.001
Mof_C 	C 	3.6093e-33	0.2439	0.3184	-0.126
Mof_H 	H 	-1.18793e-33	0.2765	0.3274	0.057
Mof_O 	O 	0.5	0.3636	0.5771	-0.605
Mof_C 	C 	0.5	0.2926	0.6451	0.073
Mof_H 	H 	0.5	0.2842	0.6124	0.008
Mof_C 	C 	0.5	0.2561	0.6816	-0.125
Mof_H 	H 	0.5	0.2235	0.6726	0.068
Mof_O 	O 	0.5	0.8636	0.0771	-0.569
Mof_C 	C 	0.5	0.7926	0.1451	0.057
Mof_H 	H 	0.5	0.7842	0.1124	0.013
Mof_C 	C 	0.5	0.7561	0.1816	-0.109
Mof_H 	H 	0.5	0.7235	0.1726	0.063
Mof_O 	O 	1.49682e-33	0.3636	0.0771	-0.578
Mof_C 	C 	1.75178e-33	0.2926	0.1451	0.056
Mof_H 	H 	-1.99405e-33	0.2842	0.1124	-0.003
Mof_C 	C 	3.09638e-33	0.2561	0.1816	-0.126
Mof_H 	H 	-5.60597e-34	0.2235	0.1726	0.053
Mof_O 	O 	1.18257e-32	0.8636	0.5771	-0.588
Mof_C 	C 	2.17426e-32	0.7926	0.6451	0.055
Mof_H 	H 	2.29613e-33	0.7842	0.6124	0.005
Mof_C 	C 	2.55559e-33	0.7561	0.6816	-0.118
Mof_H 	H 	2.52185e-33	0.7235	0.6726	0.058
Mof_O 	O 	0.4229	0.5	0.3636	-0.606
Mof_C 	C 	0.3549	0.5	0.2926	0.069
Mof_H 	H 	0.3876	0.5	0.2842	0.008
Mof_C 	C 	0.3184	0.5	0.2561	-0.123
Mof_H 	H 	0.3274	0.5	0.2235	0.066
Mof_O 	O 	0.4229	9.66195e-33	0.8636	-0.588
Mof_C 	C 	0.3549	9.66195e-33	0.7926	0.051
Mof_H 	H 	0.3876	0	0.7842	0.006
Mof_C 	C 	0.3184	9.66195e-33	0.7561	-0.116
Mof_H 	H 	0.3274	0	0.7235	0.056
Mof_O 	O 	0.9229	0.5	0.8636	-0.518
Mof_C 	C 	0.8549	0.5	0.7926	0.053
Mof_H 	H 	0.8876	0.5	0.7842	0.043
Mof_C 	C 	0.8184	0.5	0.7561	-0.094
Mof_H 	H 	0.8274	0.5	0.7235	0.074
Mof_O 	O 	0.9229	0	0.3636	-0.527
Mof_C 	C 	0.8549	2.41549e-33	0.2926	0.052
Mof_H 	H 	0.8876	0	0.2842	0.027
Mof_C 	C 	0.8184	0	0.2561	-0.111
Mof_H 	H 	0.8274	2.41549e-33	0.2235	0.064
Mof_O 	O 	0.5771	0.5	0.6364	-0.604
Mof_C 	C 	0.6451	0.5	0.7074	0.078
Mof_H 	H 	0.6124	0.5	0.7158	0.013
Mof_C 	C 	0.6816	0.5	0.7439	-0.126
Mof_H 	H 	0.6726	0.5	0.7765	0.08
Mof_O 	O 	0.5771	1.20774e-33	0.1364	-0.594
Mof_C 	C 	0.6451	0	0.2074	0.061
Mof_H 	H 	0.6124	0	0.2158	0.001
Mof_C 	C 	0.6816	2.41549e-33	0.2439	-0.128
Mof_H 	H 	0.6726	0	0.2765	0.06
Mof_O 	O 	0.0771	0.5	0.1364	-0.575
Mof_C 	C 	0.1451	0.5	0.2074	0.064
Mof_H 	H 	0.1124	0.5	0.2158	0.009
Mof_C 	C 	0.1816	0.5	0.2439	-0.119
Mof_H 	H 	0.1726	0.5	0.2765	0.064
Mof_O 	O 	0.0771	0	0.6364	-0.576
Mof_C 	C 	0.1451	4.83097e-33	0.7074	0.062
Mof_H 	H 	0.1124	0	0.7158	0.001
Mof_C 	C 	0.1816	9.66195e-33	0.7439	-0.128
Mof_H 	H 	0.1726	9.66195e-33	0.7765	0.065
Mof_O 	O 	0.4229	0.5	0.6364	-0.604
Mof_C 	C 	0.3549	0.5	0.7074	0.075
Mof_H 	H 	0.3876	0.5	0.7158	0.013
Mof_C 	C 	0.3184	0.5	0.7439	-0.124
Mof_H 	H 	0.3274	0.5	0.7765	0.078
Mof_O 	O 	0.4229	1.20774e-33	0.1364	-0.594
Mof_C 	C 	0.3549	0	0.2074	0.057
Mof_H 	H 	0.3876	0	0.2158	0.001
Mof_C 	C 	0.3184	2.41549e-33	0.2439	-0.126
Mof_H 	H 	0.3274	0	0.2765	0.057
Mof_O 	O 	0.9229	0.5	0.1364	-0.524
Mof_C 	C 	0.8549	0.5	0.2074	0.059
Mof_H 	H 	0.8876	0.5	0.2158	0.039
Mof_C 	C 	0.8184	0.5	0.2439	-0.104
Mof_H 	H 	0.8274	0.5	0.2765	0.075
Mof_O 	O 	0.9229	0	0.6364	-0.525
Mof_C 	C 	0.8549	4.83097e-33	0.7074	0.057
Mof_H 	H 	0.8876	0	0.7158	0.031
Mof_C 	C 	0.8184	9.66195e-33	0.7439	-0.112
Mof_H 	H 	0.8274	9.66195e-33	0.7765	0.076
Mof_O 	O 	0.5771	0.5	0.3636	-0.605
Mof_C 	C 	0.6451	0.5	0.2926	0.073
Mof_H 	H 	0.6124	0.5	0.2842	0.008
Mof_C 	C 	0.6816	0.5	0.2561	-0.125
Mof_H 	H 	0.6726	0.5	0.2235	0.068
Mof_O 	O 	0.5771	9.66195e-33	0.8636	-0.588
Mof_C 	C 	0.6451	9.66195e-33	0.7926	0.055
Mof_H 	H 	0.6124	0	0.7842	0.005
Mof_C 	C 	0.6816	9.66195e-33	0.7561	-0.118
Mof_H 	H 	0.6726	0	0.7235	0.058
Mof_O 	O 	0.0771	0.5	0.8636	-0.569
Mof_C 	C 	0.1451	0.5	0.7926	0.057
Mof_H 	H 	0.1124	0.5	0.7842	0.013
Mof_C 	C 	0.1816	0.5	0.7561	-0.109
Mof_H 	H 	0.1726	0.5	0.7235	0.063
Mof_O 	O 	0.0771	0	0.3636	-0.578
Mof_C 	C 	0.1451	2.41549e-33	0.2926	0.056
Mof_H 	H 	0.1124	0	0.2842	-0.003
Mof_C 	C 	0.1816	0	0.2561	-0.126
Mof_H 	H 	0.1726	2.41549e-33	0.2235	0.053
Mof_O 	O 	0.4229	0.3636	0.5	-0.606
Mof_C 	C 	0.3549	0.2926	0.5	0.069
Mof_H 	H 	0.3876	0.2842	0.5	0.008
Mof_C 	C 	0.3184	0.2561	0.5	-0.123
Mof_H 	H 	0.3274	0.2235	0.5	0.066
Mof_O 	O 	0.4229	0.8636	-0	-0.588
Mof_C 	C 	0.3549	0.7926	-0	0.051
Mof_H 	H 	0.3876	0.7842	-0	0.006
Mof_C 	C 	0.3184	0.7561	-0	-0.116
Mof_H 	H 	0.3274	0.7235	-0	0.056
Mof_O 	O 	0.9229	0.3636	-0	-0.527
Mof_C 	C 	0.8549	0.2926	-0	0.052
Mof_H 	H 	0.8876	0.2842	-0	0.027
Mof_C 	C 	0.8184	0.2561	-0	-0.111
Mof_H 	H 	0.8274	0.2235	-0	0.064
Mof_O 	O 	0.9229	0.8636	0.5	-0.518
Mof_C 	C 	0.8549	0.7926	0.5	0.053
Mof_H 	H 	0.8876	0.7842	0.5	0.043
Mof_C 	C 	0.8184	0.7561	0.5	-0.094
Mof_H 	H 	0.8274	0.7235	0.5	0.074
Mof_O 	O 	0.5771	0.6364	0.5	-0.604
Mof_C 	C 	0.6451	0.7074	0.5	0.078
Mof_H 	H 	0.6124	0.7158	0.5	0.013
Mof_C 	C 	0.6816	0.7439	0.5	-0.126
Mof_H 	H 	0.6726	0.7765	0.5	0.08
Mof_O 	O 	0.5771	0.1364	-0	-0.594
Mof_C 	C 	0.6451	0.2074	-0	0.061
Mof_H 	H 	0.6124	0.2158	-0	0.001
Mof_C 	C 	0.6816	0.2439	-0	-0.128
Mof_H 	H 	0.6726	0.2765	-0	0.06
Mof_O 	O 	0.0771	0.6364	-0	-0.576
Mof_C 	C 	0.1451	0.7074	-0	0.062
Mof_H 	H 	0.1124	0.7158	-0	0.001
Mof_C 	C 	0.1816	0.7439	-0	-0.128
Mof_H 	H 	0.1726	0.7765	-0	0.065
Mof_O 	O 	0.0771	0.1364	0.5	-0.575
Mof_C 	C 	0.1451	0.2074	0.5	0.064
Mof_H 	H 	0.1124	0.2158	0.5	0.009
Mof_C 	C 	0.1816	0.2439	0.5	-0.119
Mof_H 	H 	0.1726	0.2765	0.5	0.064
Mof_O 	O 	0.4229	0.6364	0.5	-0.604
Mof_C 	C 	0.3549	0.7074	0.5	0.075
Mof_H 	H 	0.3876	0.7158	0.5	0.013
Mof_C 	C 	0.3184	0.7439	0.5	-0.124
Mof_H 	H 	0.3274	0.7765	0.5	0.078
Mof_O 	O 	0.4229	0.1364	-0	-0.594
Mof_C 	C 	0.3549	0.2074	-0	0.057
Mof_H 	H 	0.3876	0.2158	-0	0.001
Mof_C 	C 	0.3184	0.2439	-0	-0.126
Mof_H 	H 	0.3274	0.2765	-0	0.057
Mof_O 	O 	0.9229	0.6364	-0	-0.525
Mof_C 	C 	0.8549	0.7074	-0	0.057
Mof_H 	H 	0.8876	0.7158	-0	0.031
Mof_C 	C 	0.8184	0.7439	-0	-0.112
Mof_H 	H 	0.8274	0.7765	-0	0.076
Mof_O 	O 	0.9229	0.1364	0.5	-0.524
Mof_C 	C 	0.8549	0.2074	0.5	0.059
Mof_H 	H 	0.8876	0.2158	0.5	0.039
Mof_C 	C 	0.8184	0.2439	0.5	-0.104
Mof_H 	H 	0.8274	0.2765	0.5	0.075
Mof_O 	O 	0.5771	0.3636	0.5	-0.605
Mof_C 	C 	0.6451	0.2926	0.5	0.073
Mof_H 	H 	0.6124	0.2842	0.5	0.008
Mof_C 	C 	0.6816	0.2561	0.5	-0.125
Mof_H 	H 	0.6726	0.2235	0.5	0.068
Mof_O 	O 	0.5771	0.8636	-0	-0.588
Mof_C 	C 	0.6451	0.7926	-0	0.055
Mof_H 	H 	0.6124	0.7842	-0	0.005
Mof_C 	C 	0.6816	0.7561	-0	-0.118
Mof_H 	H 	0.6726	0.7235	-0	0.058
Mof_O 	O 	0.0771	0.3636	-0	-0.578
Mof_C 	C 	0.1451	0.2926	-0	0.056
Mof_H 	H 	0.1124	0.2842	-0	-0.003
Mof_C 	C 	0.1816	0.2561	-0	-0.126
Mof_H 	H 	0.1726	0.2235	-0	0.053
Mof_O 	O 	0.0771	0.8636	0.5	-0.569
Mof_C 	C 	0.1451	0.7926	0.5	0.057
Mof_H 	H 	0.1124	0.7842	0.5	0.013
Mof_C 	C 	0.1816	0.7561	0.5	-0.109
Mof_H 	H 	0.1726	0.7235	0.5	0.063
Mof_O 	O 	0.3636	0.5	0.5771	-0.605
Mof_C 	C 	0.2926	0.5	0.6451	0.073
Mof_H 	H 	0.2842	0.5	0.6124	0.008
Mof_C 	C 	0.2561	0.5	0.6816	-0.125
Mof_H 	H 	0.2235	0.5	0.6726	0.068
Mof_O 	O 	0.3636	6.03872e-34	0.0771	-0.578
Mof_C 	C 	0.2926	1.20774e-33	0.1451	0.056
Mof_H 	H 	0.2842	0	0.1124	-0.003
Mof_C 	C 	0.2561	0	0.1816	-0.126
Mof_H 	H 	0.2235	1.20774e-33	0.1726	0.053
Mof_O 	O 	0.8636	0.5	0.0771	-0.569
Mof_C 	C 	0.7926	0.5	0.1451	0.057
Mof_H 	H 	0.7842	0.5	0.1124	0.013
Mof_C 	C 	0.7561	0.5	0.1816	-0.109
Mof_H 	H 	0.7235	0.5	0.1726	0.063
Mof_O 	O 	0.8636	4.83097e-33	0.5771	-0.588
Mof_C 	C 	0.7926	4.83097e-33	0.6451	0.055
Mof_H 	H 	0.7842	0	0.6124	0.005
Mof_C 	C 	0.7561	0	0.6816	-0.118
Mof_H 	H 	0.7235	9.66195e-33	0.6726	0.058
Mof_O 	O 	0.6364	0.5	0.4229	-0.604
Mof_C 	C 	0.7074	0.5	0.3549	0.075
Mof_H 	H 	0.7158	0.5	0.3876	0.013
Mof_C 	C 	0.7439	0.5	0.3184	-0.124
Mof_H 	H 	0.7765	0.5	0.3274	0.078
Mof_O 	O 	0.6364	0	0.9229	-0.525
Mof_C 	C 	0.7074	0	0.8549	0.057
Mof_H 	H 	0.7158	0	0.8876	0.031
Mof_C 	C 	0.7439	9.66195e-33	0.8184	-0.112
Mof_H 	H 	0.7765	0	0.8274	0.076
Mof_O 	O 	0.1364	0.5	0.9229	-0.524
Mof_C 	C 	0.2074	0.5	0.8549	0.059
Mof_H 	H 	0.2158	0.5	0.8876	0.039
Mof_C 	C 	0.2439	0.5	0.8184	-0.104
Mof_H 	H 	0.2765	0.5	0.8274	0.075
Mof_O 	O 	0.1364	0	0.4229	-0.594
Mof_C 	C 	0.2074	2.41549e-33	0.3549	0.057
Mof_H 	H 	0.2158	0	0.3876	0.001
Mof_C 	C 	0.2439	2.41549e-33	0.3184	-0.126
Mof_H 	H 	0.2765	2.41549e-33	0.3274	0.057
Mof_O 	O 	0.6364	0.5	0.5771	-0.604
Mof_C 	C 	0.7074	0.5	0.6451	0.078
Mof_H 	H 	0.7158	0.5	0.6124	0.013
Mof_C 	C 	0.7439	0.5	0.6816	-0.126
Mof_H 	H 	0.7765	0.5	0.6726	0.08
Mof_O 	O 	0.6364	6.03872e-34	0.0771	-0.576
Mof_C 	C 	0.7074	1.20774e-33	0.1451	0.062
Mof_H 	H 	0.7158	0	0.1124	0.001
Mof_C 	C 	0.7439	0	0.1816	-0.128
Mof_H 	H 	0.7765	1.20774e-33	0.1726	0.065
Mof_O 	O 	0.1364	0.5	0.0771	-0.575
Mof_C 	C 	0.2074	0.5	0.1451	0.064
Mof_H 	H 	0.2158	0.5	0.1124	0.009
Mof_C 	C 	0.2439	0.5	0.1816	-0.119
Mof_H 	H 	0.2765	0.5	0.1726	0.064
Mof_O 	O 	0.1364	4.83097e-33	0.5771	-0.594
Mof_C 	C 	0.2074	4.83097e-33	0.6451	0.061
Mof_H 	H 	0.2158	0	0.6124	0.001
Mof_C 	C 	0.2439	0	0.6816	-0.128
Mof_H 	H 	0.2765	9.66195e-33	0.6726	0.06
Mof_O 	O 	0.3636	0.5	0.4229	-0.606
Mof_C 	C 	0.2926	0.5	0.3549	0.069
Mof_H 	H 	0.2842	0.5	0.3876	0.008
Mof_C 	C 	0.2561	0.5	0.3184	-0.123
Mof_H 	H 	0.2235	0.5	0.3274	0.066
Mof_O 	O 	0.3636	0	0.9229	-0.527
Mof_C 	C 	0.2926	0	0.8549	0.052
Mof_H 	H 	0.2842	0	0.8876	0.027
Mof_C 	C 	0.2561	9.66195e-33	0.8184	-0.111
Mof_H 	H 	0.2235	0	0.8274	0.064
Mof_O 	O 	0.8636	0.5	0.9229	-0.518
Mof_C 	C 	0.7926	0.5	0.8549	0.053
Mof_H 	H 	0.7842	0.5	0.8876	0.043
Mof_C 	C 	0.7561	0.5	0.8184	-0.094
Mof_H 	H 	0.7235	0.5	0.8274	0.074
Mof_O 	O 	0.8636	0	0.4229	-0.588
Mof_C 	C 	0.7926	2.41549e-33	0.3549	0.051
Mof_H 	H 	0.7842	0	0.3876	0.006
Mof_C 	C 	0.7561	2.41549e-33	0.3184	-0.116
Mof_H 	H 	0.7235	2.41549e-33	0.3274	0.056
Mof_O 	O 	0.5	0.4229	0.6364	-0.604
Mof_C 	C 	0.5	0.3549	0.7074	0.075
Mof_H 	H 	0.5	0.3876	0.7158	0.013
Mof_C 	C 	0.5	0.3184	0.7439	-0.124
Mof_H 	H 	0.5	0.3274	0.7765	0.078
Mof_O 	O 	0.5	0.9229	0.1364	-0.524
Mof_C 	C 	0.5	0.8549	0.2074	0.059
Mof_H 	H 	0.5	0.8876	0.2158	0.039
Mof_C 	C 	0.5	0.8184	0.2439	-0.104
Mof_H 	H 	0.5	0.8274	0.2765	0.075
Mof_O 	O 	4.13465e-33	0.4229	0.1364	-0.594
Mof_C 	C 	7.77625e-34	0.3549	0.2074	0.057
Mof_H 	H 	8.0912e-34	0.3876	0.2158	0.001
Mof_C 	C 	5.74545e-33	0.3184	0.2439	-0.126
Mof_H 	H 	1.03671e-33	0.3274	0.2765	0.057
Mof_O 	O 	-2.44486e-33	0.9229	0.6364	-0.525
Mof_C 	C 	7.4833e-33	0.8549	0.7074	0.057
Mof_H 	H 	2.68382e-33	0.8876	0.7158	0.031
Mof_C 	C 	1.24511e-32	0.8184	0.7439	-0.112
Mof_H 	H 	2.91141e-33	0.8274	0.7765	0.076
Mof_O 	O 	0.5	0.5771	0.3636	-0.605
Mof_C 	C 	0.5	0.6451	0.2926	0.073
Mof_H 	H 	0.5	0.6124	0.2842	0.008
Mof_C 	C 	0.5	0.6816	0.2561	-0.125
Mof_H 	H 	0.5	0.6726	0.2235	0.068
Mof_O 	O 	0.5	0.0771	0.8636	-0.569
Mof_C 	C 	0.5	0.1451	0.7926	0.057
Mof_H 	H 	0.5	0.1124	0.7842	0.013
Mof_C 	C 	0.5	0.1816	0.7561	-0.109
Mof_H 	H 	0.5	0.1726	0.7235	0.063
Mof_O 	O 	1.28999e-32	0.5771	0.8636	-0.588
Mof_C 	C 	2.22957e-32	0.6451	0.7926	0.055
Mof_H 	H 	2.94028e-33	0.6124	0.7842	0.005
Mof_C 	C 	2.83492e-33	0.6816	0.7561	-0.118
Mof_H 	H 	2.71269e-33	0.6726	0.7235	0.058
Mof_O 	O 	1.36328e-33	0.0771	0.3636	-0.578
Mof_C 	C 	1.09707e-33	0.1451	0.2926	0.056
Mof_H 	H 	-3.7654e-33	0.1124	0.2842	-0.003
Mof_C 	C 	3.37571e-33	0.1816	0.2561	-0.126
Mof_H 	H 	8.37991e-34	0.1726	0.2235	0.053
Mof_O 	O 	0.5	0.4229	0.3636	-0.606
Mof_C 	C 	0.5	0.3549	0.2926	0.069
Mof_H 	H 	0.5	0.3876	0.2842	0.008
Mof_C 	C 	0.5	0.3184	0.2561	-0.123
Mof_H 	H 	0.5	0.3274	0.2235	0.066
Mof_O 	O 	0.5	0.9229	0.8636	-0.518
Mof_C 	C 	0.5	0.8549	0.7926	0.053
Mof_H 	H 	0.5	0.8876	0.7842	0.043
Mof_C 	C 	0.5	0.8184	0.7561	-0.094
Mof_H 	H 	0.5	0.8274	0.7235	0.074
Mof_O 	O 	3.23798e-33	0.4229	0.8636	-0.588
Mof_C 	C 	2.97177e-33	0.3549	0.7926	0.051
Mof_H 	H 	2.94028e-33	0.3876	0.7842	0.006
Mof_C 	C 	2.21588e-32	0.3184	0.7561	-0.116
Mof_H 	H 	-6.94926e-33	0.3274	0.7235	0.056
Mof_O 	O 	-3.46769e-33	0.9229	0.3636	-0.527
Mof_C 	C 	-6.14939e-33	0.8549	0.2926	0.052
Mof_H 	H 	1.06558e-33	0.8876	0.2842	0.027
Mof_C 	C 	1.54531e-32	0.8184	0.2561	-0.111
Mof_H 	H 	-3.99298e-33	0.8274	0.2235	0.064
Mof_O 	O 	0.5	0.5771	0.6364	-0.604
Mof_C 	C 	0.5	0.6451	0.7074	0.078
Mof_H 	H 	0.5	0.6124	0.7158	0.013
Mof_C 	C 	0.5	0.6816	0.7439	-0.126
Mof_H 	H 	0.5	0.6726	0.7765	0.08
Mof_O 	O 	0.5	0.0771	0.1364	-0.575
Mof_C 	C 	0.5	0.1451	0.2074	0.064
Mof_H 	H 	0.5	0.1124	0.2158	0.009
Mof_C 	C 	0.5	0.1816	0.2439	-0.119
Mof_H 	H 	0.5	0.1726	0.2765	0.064
Mof_O 	O 	1.37966e-32	0.5771	0.1364	-0.594
Mof_C 	C 	5.6086e-33	0.6451	0.2074	0.061
Mof_H 	H 	8.0912e-34	0.6124	0.2158	0.001
Mof_C 	C 	5.74545e-33	0.6816	0.2439	-0.128
Mof_H 	H 	1.31141e-32	0.6726	0.2765	0.06
Mof_O 	O 	2.38612e-33	0.0771	0.6364	-0.576
Mof_C 	C 	2.65233e-33	0.1451	0.7074	0.062
Mof_H 	H 	2.68382e-33	0.1124	0.7158	0.001
Mof_C 	C 	2.21131e-32	0.1816	0.7439	-0.128
Mof_H 	H 	1.25734e-32	0.1726	0.7765	0.065
Mof_O 	O 	0.45351	0.45351	0.45351	-1.128
Mof_H 	H 	0.4357	0.4357	0.4357	0.35
Mof_O 	O 	0.45351	0.95351	0.95351	-0.934
Mof_H 	H 	0.4357	0.9357	0.9357	0.352
Mof_O 	O 	0.95351	0.45351	0.95351	-0.934
Mof_H 	H 	0.9357	0.4357	0.9357	0.352
Mof_O 	O 	0.95351	0.95351	0.45351	-0.934
Mof_H 	H 	0.9357	0.9357	0.4357	0.352
Mof_O 	O 	0.54649	0.54649	0.45351	-1.13
Mof_H 	H 	0.5643	0.5643	0.4357	0.351
Mof_O 	O 	0.54649	0.04649	0.95351	-1.001
Mof_H 	H 	0.5643	0.0643	0.9357	0.35
Mof_O 	O 	0.04649	0.54649	0.95351	-1.001
Mof_H 	H 	0.0643	0.5643	0.9357	0.35
Mof_O 	O 	0.04649	0.04649	0.45351	-1.067
Mof_H 	H 	0.0643	0.0643	0.4357	0.347
Mof_O 	O 	0.54649	0.45351	0.54649	-1.13
Mof_H 	H 	0.5643	0.4357	0.5643	0.351
Mof_O 	O 	0.54649	0.95351	0.04649	-1.001
Mof_H 	H 	0.5643	0.9357	0.0643	0.35
Mof_O 	O 	0.04649	0.45351	0.04649	-1.067
Mof_H 	H 	0.0643	0.4357	0.0643	0.347
Mof_O 	O 	0.04649	0.95351	0.54649	-1.001
Mof_H 	H 	0.0643	0.9357	0.5643	0.35
Mof_O 	O 	0.45351	0.54649	0.54649	-1.13
Mof_H 	H 	0.4357	0.5643	0.5643	0.351
Mof_O 	O 	0.45351	0.04649	0.04649	-1.067
Mof_H 	H 	0.4357	0.0643	0.0643	0.347
Mof_O 	O 	0.95351	0.54649	0.04649	-1.001
Mof_H 	H 	0.9357	0.5643	0.0643	0.35
Mof_O 	O 	0.95351	0.04649	0.54649	-1.001
Mof_H 	H 	0.9357	0.0643	0.5643	0.35
Mof_O 	O 	0.45351	0.45351	0.54649	-1.129
Mof_H 	H 	0.4357	0.4357	0.5643	0.351
Mof_O 	O 	0.45351	0.95351	0.04649	-1
Mof_H 	H 	0.4357	0.9357	0.0643	0.349
Mof_O 	O 	0.95351	0.45351	0.04649	-1
Mof_H 	H 	0.9357	0.4357	0.0643	0.349
Mof_O 	O 	0.95351	0.95351	0.54649	-0.935
Mof_H 	H 	0.9357	0.9357	0.5643	0.352
Mof_O 	O 	0.54649	0.54649	0.54649	-1.13
Mof_H 	H 	0.5643	0.5643	0.5643	0.352
Mof_O 	O 	0.54649	0.04649	0.04649	-1.068
Mof_H 	H 	0.5643	0.0643	0.0643	0.347
Mof_O 	O 	0.04649	0.54649	0.04649	-1.068
Mof_H 	H 	0.0643	0.5643	0.0643	0.347
Mof_O 	O 	0.04649	0.04649	0.54649	-1.068
Mof_H 	H 	0.0643	0.0643	0.5643	0.347
Mof_O 	O 	0.45351	0.54649	0.45351	-1.129
Mof_H 	H 	0.4357	0.5643	0.4357	0.351
Mof_O 	O 	0.45351	0.04649	0.95351	-1
Mof_H 	H 	0.4357	0.0643	0.9357	0.349
Mof_O 	O 	0.95351	0.54649	0.95351	-0.935
Mof_H 	H 	0.9357	0.5643	0.9357	0.352
Mof_O 	O 	0.95351	0.04649	0.45351	-1
Mof_H 	H 	0.9357	0.0643	0.4357	0.349
Mof_O 	O 	0.54649	0.45351	0.45351	-1.129
Mof_H 	H 	0.5643	0.4357	0.4357	0.351
Mof_O 	O 	0.54649	0.95351	0.95351	-0.935
Mof_H 	H 	0.5643	0.9357	0.9357	0.352
Mof_O 	O 	0.04649	0.45351	0.95351	-1
Mof_H 	H 	0.0643	0.4357	0.9357	0.349
Mof_O 	O 	0.04649	0.95351	0.45351	-1
Mof_H 	H 	0.0643	0.9357	0.4357	0.349
Mof_C 	C 	0.3795	0.3795	0.5	0.492
Mof_C 	C 	0.3409	0.3409	0.5	-0.176
Mof_C 	C 	0.2687	0.2687	0.5	0.047
Mof_C 	C 	0.3795	0.8795	-0	0.454
Mof_C 	C 	0.3409	0.8409	-0	-0.156
Mof_C 	C 	0.2687	0.7687	-0	0.035
Mof_C 	C 	0.8795	0.3795	-0	0.454
Mof_C 	C 	0.8409	0.3409	-0	-0.156
Mof_C 	C 	0.7687	0.2687	-0	0.035
Mof_C 	C 	0.8795	0.8795	0.5	0.461
Mof_C 	C 	0.8409	0.8409	0.5	-0.128
Mof_C 	C 	0.7687	0.7687	0.5	0.039
Mof_C 	C 	0.6205	0.6205	0.5	0.494
Mof_C 	C 	0.6591	0.6591	0.5	-0.177
Mof_C 	C 	0.7313	0.7313	0.5	0.062
Mof_C 	C 	0.6205	0.1205	-0	0.462
Mof_C 	C 	0.6591	0.1591	-0	-0.176
Mof_C 	C 	0.7313	0.2313	-0	0.045
Mof_C 	C 	0.1205	0.6205	-0	0.462
Mof_C 	C 	0.1591	0.6591	-0	-0.176
Mof_C 	C 	0.2313	0.7313	-0	0.045
Mof_C 	C 	0.1205	0.1205	0.5	0.475
Mof_C 	C 	0.1591	0.1591	0.5	-0.167
Mof_C 	C 	0.2313	0.2313	0.5	0.043
Mof_C 	C 	0.6205	0.3795	0.5	0.493
Mof_C 	C 	0.6591	0.3409	0.5	-0.177
Mof_C 	C 	0.7313	0.2687	0.5	0.055
Mof_C 	C 	0.6205	0.8795	-0	0.456
Mof_C 	C 	0.6591	0.8409	-0	-0.157
Mof_C 	C 	0.7313	0.7687	-0	0.043
Mof_C 	C 	0.1205	0.3795	-0	0.461
Mof_C 	C 	0.1591	0.3409	-0	-0.176
Mof_C 	C 	0.2313	0.2687	-0	0.037
Mof_C 	C 	0.1205	0.8795	0.5	0.468
Mof_C 	C 	0.1591	0.8409	0.5	-0.148
Mof_C 	C 	0.2313	0.7687	0.5	0.041
Mof_C 	C 	0.3795	0.6205	0.5	0.493
Mof_C 	C 	0.3409	0.6591	0.5	-0.177
Mof_C 	C 	0.2687	0.7313	0.5	0.055
Mof_C 	C 	0.3795	0.1205	-0	0.461
Mof_C 	C 	0.3409	0.1591	-0	-0.176
Mof_C 	C 	0.2687	0.2313	-0	0.037
Mof_C 	C 	0.8795	0.6205	-0	0.456
Mof_C 	C 	0.8409	0.6591	-0	-0.157
Mof_C 	C 	0.7687	0.7313	-0	0.043
Mof_C 	C 	0.8795	0.1205	0.5	0.468
Mof_C 	C 	0.8409	0.1591	0.5	-0.148
Mof_C 	C 	0.7687	0.2313	0.5	0.041
Mof_C 	C 	0.5	0.3795	0.3795	0.492
Mof_C 	C 	0.5	0.3409	0.3409	-0.176
Mof_C 	C 	0.5	0.2687	0.2687	0.047
Mof_C 	C 	0.5	0.8795	0.8795	0.461
Mof_C 	C 	0.5	0.8409	0.8409	-0.128
Mof_C 	C 	0.5	0.7687	0.7687	0.039
Mof_C 	C 	1.29595e-32	0.3795	0.8795	0.454
Mof_C 	C 	-6.50908e-33	0.3409	0.8409	-0.156
Mof_C 	C 	2.88216e-33	0.2687	0.7687	0.035
Mof_C 	C 	1.59158e-32	0.8795	0.3795	0.454
Mof_C 	C 	1.27817e-33	0.8409	0.3409	-0.156
Mof_C 	C 	3.42295e-33	0.7687	0.2687	0.035
Mof_C 	C 	0.5	0.6205	0.6205	0.494
Mof_C 	C 	0.5	0.6591	0.6591	-0.177
Mof_C 	C 	0.5	0.7313	0.7313	0.062
Mof_C 	C 	0.5	0.1205	0.1205	0.475
Mof_C 	C 	0.5	0.1591	0.1591	-0.167
Mof_C 	C 	0.5	0.2313	0.2313	0.043
Mof_C 	C 	1.25292e-32	0.6205	0.1205	0.462
Mof_C 	C 	-6.11214e-34	0.6591	0.1591	-0.176
Mof_C 	C 	8.1137e-33	0.7313	0.2313	0.045
Mof_C 	C 	1.19885e-32	0.1205	0.6205	0.462
Mof_C 	C 	-2.35975e-33	0.1591	0.6591	-0.176
Mof_C 	C 	1.24039e-32	0.2313	0.7313	0.045
Mof_C 	C 	0.5	0.6205	0.3795	0.493
Mof_C 	C 	0.5	0.6591	0.3409	-0.177
Mof_C 	C 	0.5	0.7313	0.2687	0.055
Mof_C 	C 	0.5	0.1205	0.8795	0.468
Mof_C 	C 	0.5	0.1591	0.8409	-0.148
Mof_C 	C 	0.5	0.2313	0.7687	0.041
Mof_C 	C 	3.22834e-32	0.6205	0.8795	0.456
Mof_C 	C 	1.28148e-32	0.6591	0.8409	-0.157
Mof_C 	C 	2.22061e-32	0.7313	0.7687	0.043
Mof_C 	C 	1.4229e-33	0.1205	0.3795	0.461
Mof_C 	C 	1.27817e-33	0.1591	0.3409	-0.176
Mof_C 	C 	-1.40802e-33	0.2313	0.2687	0.037
Mof_C 	C 	0.5	0.3795	0.6205	0.493
Mof_C 	C 	0.5	0.3409	0.6591	-0.177
Mof_C 	C 	0.5	0.2687	0.7313	0.055
Mof_C 	C 	0.5	0.8795	0.1205	0.468
Mof_C 	C 	0.5	0.8409	0.1591	-0.148
Mof_C 	C 	0.5	0.7687	0.2313	0.041
Mof_C 	C 	2.86729e-33	0.3795	0.1205	0.461
Mof_C 	C 	4.21976e-33	0.3409	0.1591	-0.176
Mof_C 	C 	8.67236e-34	0.2687	0.2313	0.037
Mof_C 	C 	2.64814e-32	0.8795	0.6205	0.456
Mof_C 	C 	1.69642e-32	0.8409	0.6591	-0.157
Mof_C 	C 	2.20658e-32	0.7687	0.7313	0.043
Mof_C 	C 	0.3795	0.5	0.3795	0.492
Mof_C 	C 	0.3409	0.5	0.3409	-0.176
Mof_C 	C 	0.2687	0.5	0.2687	0.047
Mof_C 	C 	0.3795	9.66195e-33	0.8795	0.454
Mof_C 	C 	0.3409	0	0.8409	-0.156
Mof_C 	C 	0.2687	0	0.7687	0.035
Mof_C 	C 	0.8795	0.5	0.8795	0.461
Mof_C 	C 	0.8409	0.5	0.8409	-0.128
Mof_C 	C 	0.7687	0.5	0.7687	0.039
Mof_C 	C 	0.8795	4.83097e-33	0.3795	0.454
Mof_C 	C 	0.8409	2.41549e-33	0.3409	-0.156
Mof_C 	C 	0.7687	2.41549e-33	0.2687	0.035
Mof_C 	C 	0.6205	0.5	0.6205	0.494
Mof_C 	C 	0.6591	0.5	0.6591	-0.177
Mof_C 	C 	0.7313	0.5	0.7313	0.062
Mof_C 	C 	0.6205	1.20774e-33	0.1205	0.462
Mof_C 	C 	0.6591	0	0.1591	-0.176
Mof_C 	C 	0.7313	0	0.2313	0.045
Mof_C 	C 	0.1205	0.5	0.1205	0.475
Mof_C 	C 	0.1591	0.5	0.1591	-0.167
Mof_C 	C 	0.2313	0.5	0.2313	0.043
Mof_C 	C 	0.1205	4.83097e-33	0.6205	0.462
Mof_C 	C 	0.1591	4.83097e-33	0.6591	-0.176
Mof_C 	C 	0.2313	0	0.7313	0.045
Mof_C 	C 	0.3795	0.5	0.6205	0.493
Mof_C 	C 	0.3409	0.5	0.6591	-0.177
Mof_C 	C 	0.2687	0.5	0.7313	0.055
Mof_C 	C 	0.3795	1.20774e-33	0.1205	0.461
Mof_C 	C 	0.3409	0	0.1591	-0.176
Mof_C 	C 	0.2687	0	0.2313	0.037
Mof_C 	C 	0.8795	0.5	0.1205	0.468
Mof_C 	C 	0.8409	0.5	0.1591	-0.148
Mof_C 	C 	0.7687	0.5	0.2313	0.041
Mof_C 	C 	0.8795	4.83097e-33	0.6205	0.456
Mof_C 	C 	0.8409	4.83097e-33	0.6591	-0.157
Mof_C 	C 	0.7687	0	0.7313	0.043
Mof_C 	C 	0.6205	0.5	0.3795	0.493
Mof_C 	C 	0.6591	0.5	0.3409	-0.177
Mof_C 	C 	0.7313	0.5	0.2687	0.055
Mof_C 	C 	0.6205	9.66195e-33	0.8795	0.456
Mof_C 	C 	0.6591	0	0.8409	-0.157
Mof_C 	C 	0.7313	0	0.7687	0.043
Mof_C 	C 	0.1205	0.5	0.8795	0.468
Mof_C 	C 	0.1591	0.5	0.8409	-0.148
Mof_C 	C 	0.2313	0.5	0.7687	0.041
Mof_C 	C 	0.1205	4.83097e-33	0.3795	0.461
Mof_C 	C 	0.1591	2.41549e-33	0.3409	-0.176
Mof_C 	C 	0.2313	2.41549e-33	0.2687	0.037
_end
