# CIF file generated by openbabel 3.1.0, see https://openbabel.org
data_I
_chemical_name_common 'image0'
_cell_length_a 22.3773
_cell_length_b 6.7633
_cell_length_c 4.3529
_cell_angle_alpha 90
_cell_angle_beta 90
_cell_angle_gamma 90
_space_group_name_H-M_alt 'P 1'
_space_group_name_Hall 'P 1'
loop_
    _symmetry_equiv_pos_as_xyz
    x,y,z
loop_
    _atom_site_label
    _atom_site_type_symbol
    _atom_site_fract_x
    _atom_site_fract_y
    _atom_site_fract_z
    _atom_site_occupancy
    O1       O        0.05960    0.93630    0.69050    1.000
    O2       O        0.44040    0.56370    0.69050    1.000
    O3       O        0.94040    0.43630    0.30950    1.000
    O4       O        0.55960    0.06370    0.30950    1.000
    O5       O        0.94040    0.06370    0.30950    1.000
    O6       O        0.55960    0.43630    0.30950    1.000
    O7       O        0.05960    0.56370    0.69050    1.000
    O8       O        0.44040    0.93630    0.69050    1.000
    Cu1      Cu       0.00000    0.50000    0.00000    1.000
    Cu2      Cu       0.50000    0.00000    0.00000    1.000
    Cu3      Cu       0.00000    0.00000    0.00000    1.000
    Cu4      Cu       0.50000    0.50000    0.00000    1.000
    P1       P        0.06660    0.75000    0.49990    1.000
    O9       O        0.01860    0.75000    0.23680    1.000
    C1       C        0.13880    0.75000    0.30800    1.000
    C2       C        0.19320    0.75000    0.54400    1.000
    P2       P        0.43340    0.75000    0.49990    1.000
    O10      O        0.48140    0.75000    0.23680    1.000
    C3       C        0.36120    0.75000    0.30800    1.000
    C4       C        0.30680    0.75000    0.54400    1.000
    P3       P        0.93340    0.25000    0.50010    1.000
    O11      O        0.98140    0.25000    0.76320    1.000
    C5       C        0.86120    0.25000    0.69200    1.000
    C6       C        0.80680    0.25000    0.45600    1.000
    P4       P        0.56660    0.25000    0.50010    1.000
    O12      O        0.51860    0.25000    0.76320    1.000
    C7       C        0.63880    0.25000    0.69200    1.000
    C8       C        0.69320    0.25000    0.45600    1.000
    C9       C        0.25000    0.75000    0.36600    1.000
    C10      C        0.75000    0.25000    0.63400    1.000
