data_functionalizedCrystal
_audit_creation_method	'EQeq! by Chris Wilmer'
_symmetry_space_group_name_H-M	'P1'
_symmetry_Int_Tables_number	1
_symmetry_cell_setting	triclinic
loop_
_symmetry_equiv_pos_as_xyz
  x,y,z
_cell_length_a	24.197
_cell_length_b	24.197
_cell_length_c	13.1426
_cell_angle_alpha	90
_cell_angle_beta	90
_cell_angle_gamma	120
loop_
_atom_site_label
_atom_site_type_symbol
_atom_site_fract_x
_atom_site_fract_y
_atom_site_fract_z
_atom_site_charge
Mof_O 	O 	0.76426	0.0356	0.1084	-0.479
Mof_O 	O 	0.71559	0.06953	0.0017	-0.562
Mof_O 	O 	0.9936	0.5675	0.0842	-0.508
Mof_C 	C 	0.9416	0.2522	0.0124	0.222
Mof_C 	C 	0.8844	0.2467	0.9761	-0.258
Mof_H 	H 	0.8844	0.2812	0.9454	0.125
Mof_C 	C 	0.8275	0.1885	0.9868	0.171
Mof_H 	H 	0.7901	0.1849	0.9613	-0.043
Mof_C 	C 	0.8253	0.1379	0.0328	-0.219
Mof_C 	C 	0.9406	0.2002	0.0623	-0.237
Mof_H 	H 	0.9778	0.2037	0.0884	0.124
Mof_C 	C 	0.8821	0.143	0.0721	0.136
Mof_H 	H 	0.8807	0.1082	0.1046	-0.007
Mof_C 	C 	0.7661	0.0763	0.0486	0.408
Mof_C 	C 	0.9727	0.384	0.0789	-0.246
Mof_H 	H 	0.953	0.355	0.1315	0.128
Mof_C 	C 	0.9747	0.4418	0.0798	0.238
Mof_H 	H 	0.9586	0.4528	0.1355	-0.039
Mof_O 	O 	0.43093	0.36893	0.44173	-0.459
Mof_O 	O 	0.38226	0.40286	0.33503	-0.557
Mof_O 	O 	0.66027	0.90083	0.41753	-0.547
Mof_C 	C 	0.60827	0.58553	0.34573	0.178
Mof_C 	C 	0.55107	0.58003	0.30943	-0.232
Mof_H 	H 	0.55107	0.61453	0.27873	0.111
Mof_C 	C 	0.49417	0.52183	0.32013	0.154
Mof_H 	H 	0.45677	0.51823	0.29463	-0.038
Mof_C 	C 	0.49197	0.47123	0.36613	-0.207
Mof_C 	C 	0.60727	0.53353	0.39563	-0.214
Mof_H 	H 	0.64447	0.53703	0.42173	0.104
Mof_C 	C 	0.54877	0.47633	0.40543	0.117
Mof_H 	H 	0.54737	0.44153	0.43793	-0
Mof_C 	C 	0.43277	0.40963	0.38193	0.405
Mof_C 	C 	0.63937	0.71733	0.41223	-0.302
Mof_H 	H 	0.61967	0.68833	0.46483	0.139
Mof_C 	C 	0.64137	0.77513	0.41313	0.208
Mof_H 	H 	0.62527	0.78613	0.46883	-0.037
Mof_O 	O 	0.09759	0.70227	0.77507	-0.47
Mof_O 	O 	0.04892	0.7362	0.66837	-0.563
Mof_O 	O 	0.32693	0.23417	0.75087	-0.566
Mof_C 	C 	0.27493	0.91887	0.67907	0.184
Mof_C 	C 	0.21773	0.91337	0.64277	-0.233
Mof_H 	H 	0.21773	0.94787	0.61207	0.12
Mof_C 	C 	0.16083	0.85517	0.65347	0.157
Mof_H 	H 	0.12343	0.85157	0.62797	-0.038
Mof_C 	C 	0.15863	0.80457	0.69947	-0.207
Mof_C 	C 	0.27393	0.86687	0.72897	-0.216
Mof_H 	H 	0.31113	0.87037	0.75507	0.106
Mof_C 	C 	0.21543	0.80967	0.73877	0.12
Mof_H 	H 	0.21403	0.77487	0.77127	0.001
Mof_C 	C 	0.09943	0.74297	0.71527	0.405
Mof_C 	C 	0.30603	0.05067	0.74557	-0.274
Mof_H 	H 	0.28633	0.02167	0.79817	0.116
Mof_C 	C 	0.30803	0.10847	0.74647	0.183
Mof_H 	H 	0.29193	0.11947	0.80217	-0.033
Mof_O 	O 	0.9644	0.72866	0.1084	-0.433
Mof_O 	O 	0.93047	0.64606	0.0017	-0.552
Mof_O 	O 	0.4325	0.4261	0.0842	-0.565
Mof_C 	C 	0.7478	0.6894	0.0124	0.171
Mof_C 	C 	0.7533	0.6377	0.9761	-0.225
Mof_H 	H 	0.7188	0.6032	0.9454	0.11
Mof_C 	C 	0.8115	0.639	0.9868	0.157
Mof_H 	H 	0.8151	0.6052	0.9613	-0.039
Mof_C 	C 	0.8621	0.6874	0.0328	-0.208
Mof_C 	C 	0.7998	0.7404	0.0623	-0.211
Mof_H 	H 	0.7963	0.7741	0.0884	0.105
Mof_C 	C 	0.857	0.7391	0.0721	0.116
Mof_H 	H 	0.8918	0.7725	0.1046	0.007
Mof_C 	C 	0.9237	0.6898	0.0486	0.405
Mof_C 	C 	0.616	0.5887	0.0789	-0.301
Mof_H 	H 	0.645	0.598	0.1315	0.139
Mof_C 	C 	0.5582	0.5329	0.0798	0.209
Mof_H 	H 	0.5472	0.5058	0.1355	-0.038
Mof_O 	O 	0.63107	0.06199	0.44173	-0.451
Mof_O 	O 	0.59714	0.97939	0.33503	-0.529
Mof_O 	O 	0.09917	0.75943	0.41753	-0.558
Mof_C 	C 	0.41447	0.02273	0.34573	0.145
Mof_C 	C 	0.41997	0.97103	0.30943	-0.202
Mof_H 	H 	0.38547	0.93653	0.27873	0.105
Mof_C 	C 	0.47817	0.97233	0.32013	0.193
Mof_H 	H 	0.48177	0.93853	0.29463	-0.047
Mof_C 	C 	0.52877	0.02073	0.36613	-0.241
Mof_C 	C 	0.46647	0.07373	0.39563	-0.211
Mof_H 	H 	0.46297	0.10743	0.42173	0.102
Mof_C 	C 	0.52367	0.07243	0.40543	0.12
Mof_H 	H 	0.55847	0.10583	0.43793	-0.002
Mof_C 	C 	0.59037	0.02313	0.38193	0.379
Mof_C 	C 	0.28267	0.92203	0.41223	-0.33
Mof_H 	H 	0.31167	0.93133	0.46483	0.154
Mof_C 	C 	0.22487	0.86623	0.41313	0.231
Mof_H 	H 	0.21387	0.83913	0.46883	-0.045
Mof_O 	O 	0.29773	0.39533	0.77507	-0.459
Mof_O 	O 	0.2638	0.31273	0.66837	-0.559
Mof_O 	O 	0.76583	0.09277	0.75087	-0.56
Mof_C 	C 	0.08113	0.35607	0.67907	0.173
Mof_C 	C 	0.08663	0.30437	0.64277	-0.232
Mof_H 	H 	0.05213	0.26987	0.61207	0.101
Mof_C 	C 	0.14483	0.30567	0.65347	0.152
Mof_H 	H 	0.14843	0.27187	0.62797	-0.041
Mof_C 	C 	0.19543	0.35407	0.69947	-0.206
Mof_C 	C 	0.13313	0.40707	0.72897	-0.212
Mof_H 	H 	0.12963	0.44077	0.75507	0.104
Mof_C 	C 	0.19033	0.40577	0.73877	0.116
Mof_H 	H 	0.22513	0.43917	0.77127	0.001
Mof_C 	C 	0.25703	0.35647	0.71527	0.404
Mof_C 	C 	0.94933	0.25537	0.74557	-0.331
Mof_H 	H 	0.97833	0.26467	0.79817	0.162
Mof_C 	C 	0.89153	0.19957	0.74647	0.233
Mof_H 	H 	0.88053	0.17247	0.80217	-0.046
Mof_O 	O 	0.27134	0.23574	0.1084	-0.463
Mof_O 	O 	0.35394	0.28441	0.0017	-0.561
Mof_O 	O 	0.5739	0.0064	0.0842	-0.578
Mof_C 	C 	0.3106	0.0584	0.0124	0.168
Mof_C 	C 	0.3623	0.1156	0.9761	-0.228
Mof_H 	H 	0.3968	0.1156	0.9454	0.109
Mof_C 	C 	0.361	0.1725	0.9868	0.159
Mof_H 	H 	0.3948	0.2099	0.9613	-0.039
Mof_C 	C 	0.3126	0.1747	0.0328	-0.214
Mof_C 	C 	0.2596	0.0594	0.0623	-0.218
Mof_H 	H 	0.2259	0.0222	0.0884	0.089
Mof_C 	C 	0.2609	0.1179	0.0721	0.116
Mof_H 	H 	0.2275	0.1193	0.1046	-0.006
Mof_C 	C 	0.3102	0.2339	0.0486	0.406
Mof_C 	C 	0.4113	0.0273	0.0789	-0.288
Mof_H 	H 	0.402	0.047	0.1315	0.131
Mof_C 	C 	0.4671	0.0253	0.0798	0.201
Mof_H 	H 	0.4942	0.0414	0.1355	-0.04
Mof_O 	O 	0.93801	0.56907	0.44173	-0.448
Mof_O 	O 	0.02061	0.61774	0.33503	-0.574
Mof_O 	O 	0.24057	0.33973	0.41753	-0.565
Mof_C 	C 	0.97727	0.39173	0.34573	0.216
Mof_C 	C 	0.02897	0.44893	0.30943	-0.266
Mof_H 	H 	0.06347	0.44893	0.27873	0.117
Mof_C 	C 	0.02767	0.50583	0.32013	0.111
Mof_H 	H 	0.06147	0.54323	0.29463	-0.028
Mof_C 	C 	0.97927	0.50803	0.36613	-0.166
Mof_C 	C 	0.92627	0.39273	0.39563	-0.218
Mof_H 	H 	0.89257	0.35553	0.42173	0.105
Mof_C 	C 	0.92757	0.45123	0.40543	0.112
Mof_H 	H 	0.89417	0.45263	0.43793	0.002
Mof_C 	C 	0.97687	0.56723	0.38193	0.431
Mof_C 	C 	0.07797	0.36063	0.41223	-0.276
Mof_H 	H 	0.06867	0.38033	0.46483	0.124
Mof_C 	C 	0.13377	0.35863	0.41313	0.185
Mof_H 	H 	0.16087	0.37473	0.46883	-0.031
Mof_O 	O 	0.60467	0.90241	0.77507	-0.441
Mof_O 	O 	0.68727	0.95108	0.66837	-0.524
Mof_O 	O 	0.90723	0.67307	0.75087	-0.565
Mof_C 	C 	0.64393	0.72507	0.67907	0.175
Mof_C 	C 	0.69563	0.78227	0.64277	-0.226
Mof_H 	H 	0.73013	0.78227	0.61207	0.113
Mof_C 	C 	0.69433	0.83917	0.65347	0.147
Mof_H 	H 	0.72813	0.87657	0.62797	-0.028
Mof_C 	C 	0.64593	0.84137	0.69947	-0.198
Mof_C 	C 	0.59293	0.72607	0.72897	-0.21
Mof_H 	H 	0.55923	0.68887	0.75507	0.103
Mof_C 	C 	0.59423	0.78457	0.73877	0.112
Mof_H 	H 	0.56083	0.78597	0.77127	0.003
Mof_C 	C 	0.64353	0.90057	0.71527	0.397
Mof_C 	C 	0.74463	0.69397	0.74557	-0.301
Mof_H 	H 	0.73533	0.71367	0.79817	0.14
Mof_C 	C 	0.80043	0.69197	0.74647	0.209
Mof_H 	H 	0.82753	0.70807	0.80217	-0.034
Mof_O 	O 	0.0356	0.76426	0.8916	-0.475
Mof_O 	O 	0.06953	0.71559	0.9983	-0.553
Mof_O 	O 	0.5675	0.9936	0.9158	-0.51
Mof_C 	C 	0.2522	0.9416	0.9876	0.236
Mof_C 	C 	0.2467	0.8844	0.0239	-0.268
Mof_H 	H 	0.2812	0.8844	0.0546	0.125
Mof_C 	C 	0.1885	0.8275	0.0132	0.153
Mof_H 	H 	0.1849	0.7901	0.0387	-0.041
Mof_C 	C 	0.1379	0.8253	0.9672	-0.201
Mof_C 	C 	0.2002	0.9406	0.9377	-0.236
Mof_H 	H 	0.2037	0.9778	0.9116	0.127
Mof_C 	C 	0.143	0.8821	0.9279	0.132
Mof_H 	H 	0.1082	0.8807	0.8954	-0.004
Mof_C 	C 	0.0763	0.7661	0.9514	0.403
Mof_C 	C 	0.384	0.9727	0.9211	-0.246
Mof_H 	H 	0.355	0.953	0.8685	0.129
Mof_C 	C 	0.4418	0.9747	0.9202	0.239
Mof_H 	H 	0.4528	0.9586	0.8645	-0.039
Mof_O 	O 	0.70227	0.09759	0.22493	-0.47
Mof_O 	O 	0.7362	0.04892	0.33163	-0.563
Mof_O 	O 	0.23417	0.32693	0.24913	-0.566
Mof_C 	C 	0.91887	0.27493	0.32093	0.184
Mof_C 	C 	0.91337	0.21773	0.35723	-0.233
Mof_H 	H 	0.94787	0.21773	0.38793	0.12
Mof_C 	C 	0.85517	0.16083	0.34653	0.157
Mof_H 	H 	0.85157	0.12343	0.37203	-0.039
Mof_C 	C 	0.80457	0.15863	0.30053	-0.208
Mof_C 	C 	0.86687	0.27393	0.27103	-0.216
Mof_H 	H 	0.87037	0.31113	0.24493	0.105
Mof_C 	C 	0.80967	0.21543	0.26123	0.119
Mof_H 	H 	0.77487	0.21403	0.22873	-0.001
Mof_C 	C 	0.74297	0.09943	0.28473	0.406
Mof_C 	C 	0.05067	0.30603	0.25443	-0.275
Mof_H 	H 	0.02167	0.28633	0.20183	0.116
Mof_C 	C 	0.10847	0.30803	0.25353	0.183
Mof_H 	H 	0.11947	0.29193	0.19783	-0.034
Mof_O 	O 	0.36893	0.43093	0.55827	-0.459
Mof_O 	O 	0.40286	0.38226	0.66497	-0.557
Mof_O 	O 	0.90083	0.66027	0.58247	-0.547
Mof_C 	C 	0.58553	0.60827	0.65427	0.178
Mof_C 	C 	0.58003	0.55107	0.69057	-0.232
Mof_H 	H 	0.61453	0.55107	0.72127	0.111
Mof_C 	C 	0.52183	0.49417	0.67987	0.154
Mof_H 	H 	0.51823	0.45677	0.70537	-0.038
Mof_C 	C 	0.47123	0.49197	0.63387	-0.207
Mof_C 	C 	0.53353	0.60727	0.60437	-0.214
Mof_H 	H 	0.53703	0.64447	0.57827	0.104
Mof_C 	C 	0.47633	0.54877	0.59457	0.117
Mof_H 	H 	0.44153	0.54737	0.56207	-0
Mof_C 	C 	0.40963	0.43277	0.61807	0.405
Mof_C 	C 	0.71733	0.63937	0.58777	-0.301
Mof_H 	H 	0.68833	0.61967	0.53517	0.139
Mof_C 	C 	0.77513	0.64137	0.58687	0.208
Mof_H 	H 	0.78613	0.62527	0.53117	-0.037
Mof_O 	O 	0.72866	0.9644	0.8916	-0.43
Mof_O 	O 	0.64606	0.93047	0.9983	-0.544
Mof_O 	O 	0.4261	0.4325	0.9158	-0.561
Mof_C 	C 	0.6894	0.7478	0.9876	0.188
Mof_C 	C 	0.6377	0.7533	0.0239	-0.238
Mof_H 	H 	0.6032	0.7188	0.0546	0.111
Mof_C 	C 	0.639	0.8115	0.0132	0.141
Mof_H 	H 	0.6052	0.8151	0.0387	-0.037
Mof_C 	C 	0.6874	0.8621	0.9672	-0.191
Mof_C 	C 	0.7404	0.7998	0.9377	-0.213
Mof_H 	H 	0.7741	0.7963	0.9116	0.108
Mof_C 	C 	0.7391	0.857	0.9279	0.114
Mof_H 	H 	0.7725	0.8918	0.8954	0.009
Mof_C 	C 	0.6898	0.9237	0.9514	0.401
Mof_C 	C 	0.5887	0.616	0.9211	-0.296
Mof_H 	H 	0.598	0.645	0.8685	0.138
Mof_C 	C 	0.5329	0.5582	0.9202	0.215
Mof_H 	H 	0.5058	0.5472	0.8645	-0.039
Mof_O 	O 	0.39533	0.29773	0.22493	-0.459
Mof_O 	O 	0.31273	0.2638	0.33163	-0.558
Mof_O 	O 	0.09277	0.76583	0.24913	-0.56
Mof_C 	C 	0.35607	0.08113	0.32093	0.173
Mof_C 	C 	0.30437	0.08663	0.35723	-0.233
Mof_H 	H 	0.26987	0.05213	0.38793	0.101
Mof_C 	C 	0.30567	0.14483	0.34653	0.152
Mof_H 	H 	0.27187	0.14843	0.37203	-0.042
Mof_C 	C 	0.35407	0.19543	0.30053	-0.207
Mof_C 	C 	0.40707	0.13313	0.27103	-0.213
Mof_H 	H 	0.44077	0.12963	0.24493	0.103
Mof_C 	C 	0.40577	0.19033	0.26123	0.116
Mof_H 	H 	0.43917	0.22513	0.22873	-0
Mof_C 	C 	0.35647	0.25703	0.28473	0.405
Mof_C 	C 	0.25537	0.94933	0.25443	-0.332
Mof_H 	H 	0.26467	0.97833	0.20183	0.161
Mof_C 	C 	0.19957	0.89153	0.25353	0.233
Mof_H 	H 	0.17247	0.88053	0.19783	-0.047
Mof_O 	O 	0.06199	0.63107	0.55827	-0.451
Mof_O 	O 	0.97939	0.59714	0.66497	-0.53
Mof_O 	O 	0.75943	0.09917	0.58247	-0.558
Mof_C 	C 	0.02273	0.41447	0.65427	0.145
Mof_C 	C 	0.97103	0.41997	0.69057	-0.202
Mof_H 	H 	0.93653	0.38547	0.72127	0.106
Mof_C 	C 	0.97233	0.47817	0.67987	0.193
Mof_H 	H 	0.93853	0.48177	0.70537	-0.047
Mof_C 	C 	0.02073	0.52877	0.63387	-0.242
Mof_C 	C 	0.07373	0.46647	0.60437	-0.211
Mof_H 	H 	0.10743	0.46297	0.57827	0.102
Mof_C 	C 	0.07243	0.52367	0.59457	0.121
Mof_H 	H 	0.10583	0.55847	0.56207	-0.002
Mof_C 	C 	0.02313	0.59037	0.61807	0.379
Mof_C 	C 	0.92203	0.28267	0.58777	-0.33
Mof_H 	H 	0.93133	0.31167	0.53517	0.154
Mof_C 	C 	0.86623	0.22487	0.58687	0.231
Mof_H 	H 	0.83913	0.21387	0.53117	-0.045
Mof_O 	O 	0.23574	0.27134	0.8916	-0.46
Mof_O 	O 	0.28441	0.35394	0.9983	-0.553
Mof_O 	O 	0.0064	0.5739	0.9158	-0.567
Mof_C 	C 	0.0584	0.3106	0.9876	0.189
Mof_C 	C 	0.1156	0.3623	0.0239	-0.243
Mof_H 	H 	0.1156	0.3968	0.0546	0.112
Mof_C 	C 	0.1725	0.361	0.0132	0.144
Mof_H 	H 	0.2099	0.3948	0.0387	-0.038
Mof_C 	C 	0.1747	0.3126	0.9672	-0.198
Mof_C 	C 	0.0594	0.2596	0.9377	-0.222
Mof_H 	H 	0.0222	0.2259	0.9116	0.094
Mof_C 	C 	0.1179	0.2609	0.9279	0.115
Mof_H 	H 	0.1193	0.2275	0.8954	-0.005
Mof_C 	C 	0.2339	0.3102	0.9514	0.402
Mof_C 	C 	0.0273	0.4113	0.9211	-0.276
Mof_H 	H 	0.047	0.402	0.8685	0.128
Mof_C 	C 	0.0253	0.4671	0.9202	0.212
Mof_H 	H 	0.0414	0.4942	0.8645	-0.042
Mof_O 	O 	0.90241	0.60467	0.22493	-0.441
Mof_O 	O 	0.95108	0.68727	0.33163	-0.524
Mof_O 	O 	0.67307	0.90723	0.24913	-0.566
Mof_C 	C 	0.72507	0.64393	0.32093	0.175
Mof_C 	C 	0.78227	0.69563	0.35723	-0.227
Mof_H 	H 	0.78227	0.73013	0.38793	0.113
Mof_C 	C 	0.83917	0.69433	0.34653	0.148
Mof_H 	H 	0.87657	0.72813	0.37203	-0.029
Mof_C 	C 	0.84137	0.64593	0.30053	-0.198
Mof_C 	C 	0.72607	0.59293	0.27103	-0.211
Mof_H 	H 	0.68887	0.55923	0.24493	0.102
Mof_C 	C 	0.78457	0.59423	0.26123	0.112
Mof_H 	H 	0.78597	0.56083	0.22873	0.001
Mof_C 	C 	0.90057	0.64353	0.28473	0.397
Mof_C 	C 	0.69397	0.74463	0.25443	-0.301
Mof_H 	H 	0.71367	0.73533	0.20183	0.14
Mof_C 	C 	0.69197	0.80043	0.25353	0.209
Mof_H 	H 	0.70807	0.82753	0.19783	-0.036
Mof_O 	O 	0.56907	0.93801	0.55827	-0.448
Mof_O 	O 	0.61774	0.02061	0.66497	-0.575
Mof_O 	O 	0.33973	0.24057	0.58247	-0.565
Mof_C 	C 	0.39173	0.97727	0.65427	0.216
Mof_C 	C 	0.44893	0.02897	0.69057	-0.266
Mof_H 	H 	0.44893	0.06347	0.72127	0.117
Mof_C 	C 	0.50583	0.02767	0.67987	0.111
Mof_H 	H 	0.54323	0.06147	0.70537	-0.028
Mof_C 	C 	0.50803	0.97927	0.63387	-0.166
Mof_C 	C 	0.39273	0.92627	0.60437	-0.218
Mof_H 	H 	0.35553	0.89257	0.57827	0.105
Mof_C 	C 	0.45123	0.92757	0.59457	0.113
Mof_H 	H 	0.45263	0.89417	0.56207	0.002
Mof_C 	C 	0.56723	0.97687	0.61807	0.431
Mof_C 	C 	0.36063	0.07797	0.58777	-0.275
Mof_H 	H 	0.38033	0.06867	0.53517	0.124
Mof_C 	C 	0.35863	0.13377	0.58687	0.185
Mof_H 	H 	0.37473	0.16087	0.53117	-0.03
Mof_La	La	0.64828	0.98161	0.16667	2.215
Mof_La	La	0.31495	0.31495	0.5	2.138
Mof_La	La	0.01839	0.66667	0.16667	2.03
Mof_La	La	0.68505	0	0.5	2.055
Mof_La	La	0.33333	0.35172	0.16667	2.135
Mof_La	La	-3.32583e-17	0.68505	0.5	2.055
Mof_La	La	0.98161	0.64828	0.83333	2.226
Mof_La	La	0.66667	0.01839	0.83333	2.043
Mof_La	La	0.35172	0.33333	0.83333	2.147
Mof_N 	N 	-0	0.31	-0	-0.226
Mof_C 	C 	-0	0.3697	-0	0.176
Mof_C 	C 	3.41197e-17	0.4835	-0	-0.329
Mof_C 	C 	3.41197e-17	0.5457	-0	0.458
Mof_N 	N 	0.66667	0.64333	0.33333	-0.206
Mof_C 	C 	0.66667	0.70303	0.33333	0.24
Mof_C 	C 	0.66667	0.81683	0.33333	-0.29
Mof_C 	C 	0.66667	0.87903	0.33333	0.511
Mof_N 	N 	0.33333	0.97667	0.66667	-0.191
Mof_C 	C 	0.33333	0.03637	0.66667	0.193
Mof_C 	C 	0.33333	0.15017	0.66667	-0.277
Mof_C 	C 	0.33333	0.21237	0.66667	0.504
Mof_N 	N 	0.69	0.69	-0	-0.209
Mof_C 	C 	0.6303	0.6303	-0	0.232
Mof_C 	C 	0.5165	0.5165	-0	-0.299
Mof_C 	C 	0.4543	0.4543	-0	0.505
Mof_N 	N 	0.35667	0.02333	0.33333	-0.22
Mof_C 	C 	0.29697	0.96363	0.33333	0.285
Mof_C 	C 	0.18317	0.84983	0.33333	-0.307
Mof_C 	C 	0.12097	0.78763	0.33333	0.51
Mof_N 	N 	0.02333	0.35667	0.66667	-0.22
Mof_C 	C 	0.96363	0.29697	0.66667	0.285
Mof_C 	C 	0.84983	0.18317	0.66667	-0.307
Mof_C 	C 	0.78763	0.12097	0.66667	0.511
Mof_N 	N 	0.31	0	-0	-0.223
Mof_C 	C 	0.3697	0	-0	0.187
Mof_C 	C 	0.4835	0	-0	-0.32
Mof_C 	C 	0.5457	0	-0	0.471
Mof_N 	N 	0.97667	0.33333	0.33333	-0.191
Mof_C 	C 	0.03637	0.33333	0.33333	0.194
Mof_C 	C 	0.15017	0.33333	0.33333	-0.278
Mof_C 	C 	0.21237	0.33333	0.33333	0.504
Mof_N 	N 	0.64333	0.66667	0.66667	-0.206
Mof_C 	C 	0.70303	0.66667	0.66667	0.24
Mof_C 	C 	0.81683	0.66667	0.66667	-0.289
Mof_C 	C 	0.87903	0.66667	0.66667	0.511
_end
