data_functionalizedCrystal
_audit_creation_method	'EQeq! by Chris Wilmer'
_symmetry_space_group_name_H-M	'P1'
_symmetry_Int_Tables_number	1
_symmetry_cell_setting	triclinic
loop_
_symmetry_equiv_pos_as_xyz
  x,y,z
_cell_length_a	16.1596
_cell_length_b	16.1596
_cell_length_c	31.2327
_cell_angle_alpha	99.955
_cell_angle_beta	99.955
_cell_angle_gamma	96.3144
loop_
_atom_site_label
_atom_site_type_symbol
_atom_site_fract_x
_atom_site_fract_y
_atom_site_fract_z
_atom_site_charge
Mof_Sm	Sm	0.31521	0.85602	0.80073	2.3
Mof_Sm	Sm	0.13728	0.51744	0.58687	2.031
Mof_Sm	Sm	0.14398	0.68479	0.69927	2.3
Mof_Sm	Sm	0.48256	0.86272	0.91313	2.031
Mof_Sm	Sm	0.68479	0.14398	0.19927	2.301
Mof_Sm	Sm	0.86272	0.48256	0.41313	2.032
Mof_Sm	Sm	0.85602	0.31521	0.30073	2.301
Mof_Sm	Sm	0.51744	0.13728	0.08687	2.032
Mof_H 	H 	0.521	0.1292	0.4306	0.067
Mof_H 	H 	0.4356	0.1828	0.4842	0.063
Mof_H 	H 	0.4863	0.2209	0.6635	0.06
Mof_H 	H 	0.5479	0.1361	0.7157	0.064
Mof_H 	H 	0.702	0.8548	0.6942	0.061
Mof_H 	H 	0.7905	0.8025	0.6409	0.058
Mof_H 	H 	0.8677	0.8949	0.4946	0.059
Mof_H 	H 	0.8012	0.9748	0.4408	0.057
Mof_H 	H 	0.6104	0.062	0.5458	0.142
Mof_H 	H 	0.6717	0.9863	0.5951	0.143
Mof_H 	H 	0.4998	0.3124	0.5473	0.075
Mof_H 	H 	0.4035	0.4119	0.5513	0.035
Mof_H 	H 	0.2579	0.2567	0.6073	0.033
Mof_H 	H 	0.3528	0.158	0.6013	0.076
Mof_H 	H 	0.5331	0.8631	0.6913	0.091
Mof_H 	H 	0.497	0.831	0.756	-0.008
Mof_H 	H 	0.6401	0.0521	0.8248	0.003
Mof_H 	H 	0.6738	0.0844	0.7594	0.108
Mof_H 	H 	0.9501	0.9161	0.6098	0.1
Mof_H 	H 	0.0445	0.8187	0.6221	-0.028
Mof_H 	H 	0.8746	0.6298	0.5424	-0.021
Mof_H 	H 	0.7809	0.7255	0.529	0.1
Mof_H 	H 	0.7754	0.1634	0.4469	0.108
Mof_H 	H 	0.7904	0.201	0.3799	-0.035
Mof_H 	H 	0.5917	0.0207	0.3162	-0.01
Mof_H 	H 	0.5777	0.9837	0.3834	0.111
Mof_H 	H 	0.9053	0.0811	0.8346	0.057
Mof_H 	H 	0.8185	0.1409	0.887	0.063
Mof_H 	H 	0.5914	0.3556	0.8861	0.06
Mof_H 	H 	0.536	0.4458	0.8331	0.061
Mof_H 	H 	0.0279	0.1355	0.7996	0.101
Mof_H 	H 	0.127	0.0418	0.7983	-0.016
Mof_H 	H 	0.5854	0.148	0.8715	0.1
Mof_H 	H 	0.5511	0.1239	0.9382	-0.017
Mof_H 	H 	0.7466	0.2966	0.0045	-0.007
Mof_H 	H 	0.7846	0.3186	0.9388	0.113
Mof_H 	H 	0.6036	0.5784	0.7908	0.093
Mof_H 	H 	0.5033	0.6761	0.7904	-0.008
Mof_H 	H 	0.8708	0.479	0.0694	0.067
Mof_H 	H 	0.8172	0.5644	0.0158	0.063
Mof_H 	H 	0.7791	0.5137	0.8365	0.06
Mof_H 	H 	0.8639	0.4521	0.7843	0.064
Mof_H 	H 	0.1452	0.298	0.8058	0.061
Mof_H 	H 	0.1975	0.2095	0.8591	0.058
Mof_H 	H 	0.1051	0.1323	0.0054	0.059
Mof_H 	H 	0.0252	0.1988	0.0592	0.057
Mof_H 	H 	0.938	0.3896	0.9542	0.142
Mof_H 	H 	0.0137	0.3283	0.9049	0.143
Mof_H 	H 	0.6876	0.5002	0.9527	0.075
Mof_H 	H 	0.5881	0.5965	0.9487	0.035
Mof_H 	H 	0.7433	0.7421	0.8927	0.033
Mof_H 	H 	0.842	0.6472	0.8987	0.076
Mof_H 	H 	0.1369	0.4669	0.8087	0.091
Mof_H 	H 	0.169	0.503	0.744	-0.008
Mof_H 	H 	0.9479	0.3599	0.6752	0.003
Mof_H 	H 	0.9156	0.3262	0.7406	0.108
Mof_H 	H 	0.0839	0.0499	0.8902	0.1
Mof_H 	H 	0.1813	0.9555	0.8779	-0.028
Mof_H 	H 	0.3702	0.1254	0.9576	-0.021
Mof_H 	H 	0.2745	0.2191	0.971	0.1
Mof_H 	H 	0.8366	0.2246	0.0531	0.108
Mof_H 	H 	0.799	0.2096	0.1201	-0.035
Mof_H 	H 	0.9793	0.4083	0.1838	-0.01
Mof_H 	H 	0.0163	0.4223	0.1166	0.111
Mof_H 	H 	0.9189	0.0947	0.6654	0.057
Mof_H 	H 	0.8591	0.1815	0.613	0.063
Mof_H 	H 	0.6444	0.4086	0.6139	0.06
Mof_H 	H 	0.5542	0.464	0.6669	0.061
Mof_H 	H 	0.8645	0.9721	0.7004	0.101
Mof_H 	H 	0.9582	0.873	0.7017	-0.016
Mof_H 	H 	0.852	0.4146	0.6285	0.1
Mof_H 	H 	0.8761	0.4489	0.5618	-0.017
Mof_H 	H 	0.7034	0.2534	0.4955	-0.007
Mof_H 	H 	0.6814	0.2154	0.5612	0.113
Mof_H 	H 	0.4216	0.3964	0.7092	0.093
Mof_H 	H 	0.3239	0.4967	0.7096	-0.008
Mof_H 	H 	0.479	0.8708	0.5694	0.067
Mof_H 	H 	0.5644	0.8172	0.5158	0.063
Mof_H 	H 	0.5137	0.7791	0.3365	0.06
Mof_H 	H 	0.4521	0.8639	0.2843	0.064
Mof_H 	H 	0.298	0.1452	0.3058	0.061
Mof_H 	H 	0.2095	0.1975	0.3591	0.058
Mof_H 	H 	0.1323	0.1051	0.5054	0.059
Mof_H 	H 	0.1988	0.0252	0.5592	0.057
Mof_H 	H 	0.3896	0.938	0.4542	0.142
Mof_H 	H 	0.3283	0.0137	0.4049	0.143
Mof_H 	H 	0.5002	0.6876	0.4527	0.075
Mof_H 	H 	0.5965	0.5881	0.4487	0.035
Mof_H 	H 	0.7421	0.7433	0.3927	0.033
Mof_H 	H 	0.6472	0.842	0.3987	0.076
Mof_H 	H 	0.4669	0.1369	0.3087	0.091
Mof_H 	H 	0.503	0.169	0.244	-0.008
Mof_H 	H 	0.3599	0.9479	0.1752	0.003
Mof_H 	H 	0.3262	0.9156	0.2406	0.108
Mof_H 	H 	0.0499	0.0839	0.3902	0.1
Mof_H 	H 	0.9555	0.1813	0.3779	-0.028
Mof_H 	H 	0.1254	0.3702	0.4576	-0.021
Mof_H 	H 	0.2191	0.2745	0.471	0.1
Mof_H 	H 	0.2246	0.8366	0.5531	0.108
Mof_H 	H 	0.2096	0.799	0.6201	-0.035
Mof_H 	H 	0.4083	0.9793	0.6838	-0.01
Mof_H 	H 	0.4223	0.0163	0.6166	0.111
Mof_H 	H 	0.0947	0.9189	0.1654	0.057
Mof_H 	H 	0.1815	0.8591	0.113	0.063
Mof_H 	H 	0.4086	0.6444	0.1139	0.06
Mof_H 	H 	0.464	0.5542	0.1669	0.061
Mof_H 	H 	0.9721	0.8645	0.2004	0.101
Mof_H 	H 	0.873	0.9582	0.2017	-0.016
Mof_H 	H 	0.4146	0.852	0.1285	0.1
Mof_H 	H 	0.4489	0.8761	0.0618	-0.017
Mof_H 	H 	0.2534	0.7034	0.9955	-0.007
Mof_H 	H 	0.2154	0.6814	0.0612	0.113
Mof_H 	H 	0.3964	0.4216	0.2092	0.093
Mof_H 	H 	0.4967	0.3239	0.2096	-0.008
Mof_H 	H 	0.1292	0.521	0.9306	0.067
Mof_H 	H 	0.1828	0.4356	0.9842	0.063
Mof_H 	H 	0.2209	0.4863	0.1635	0.06
Mof_H 	H 	0.1361	0.5479	0.2157	0.064
Mof_H 	H 	0.8548	0.702	0.1942	0.061
Mof_H 	H 	0.8025	0.7905	0.1409	0.058
Mof_H 	H 	0.8949	0.8677	0.9946	0.059
Mof_H 	H 	0.9748	0.8012	0.9408	0.057
Mof_H 	H 	0.062	0.6104	0.0458	0.142
Mof_H 	H 	0.9863	0.6717	0.0951	0.143
Mof_H 	H 	0.3124	0.4998	0.0473	0.075
Mof_H 	H 	0.4119	0.4035	0.0513	0.035
Mof_H 	H 	0.2567	0.2579	0.1073	0.033
Mof_H 	H 	0.158	0.3528	0.1013	0.076
Mof_H 	H 	0.8631	0.5331	0.1913	0.091
Mof_H 	H 	0.831	0.497	0.256	-0.008
Mof_H 	H 	0.0521	0.6401	0.3248	0.003
Mof_H 	H 	0.0844	0.6738	0.2594	0.108
Mof_H 	H 	0.9161	0.9501	0.1098	0.1
Mof_H 	H 	0.8187	0.0445	0.1221	-0.028
Mof_H 	H 	0.6298	0.8746	0.0424	-0.021
Mof_H 	H 	0.7255	0.7809	0.029	0.1
Mof_H 	H 	0.1634	0.7754	0.9469	0.108
Mof_H 	H 	0.201	0.7904	0.8799	-0.035
Mof_H 	H 	0.0207	0.5917	0.8162	-0.01
Mof_H 	H 	0.9837	0.5777	0.8834	0.111
Mof_H 	H 	0.0811	0.9053	0.3346	0.057
Mof_H 	H 	0.1409	0.8185	0.387	0.063
Mof_H 	H 	0.3556	0.5914	0.3861	0.06
Mof_H 	H 	0.4458	0.536	0.3331	0.061
Mof_H 	H 	0.1355	0.0279	0.2996	0.101
Mof_H 	H 	0.0418	0.127	0.2983	-0.016
Mof_H 	H 	0.148	0.5854	0.3715	0.1
Mof_H 	H 	0.1239	0.5511	0.4382	-0.017
Mof_H 	H 	0.2966	0.7466	0.5045	-0.007
Mof_H 	H 	0.3186	0.7846	0.4388	0.113
Mof_H 	H 	0.5784	0.6036	0.2908	0.093
Mof_H 	H 	0.6761	0.5033	0.2904	-0.008
Mof_C 	C 	0.5921	0.0825	0.4833	0.135
Mof_C 	C 	0.5289	0.1239	0.4609	-0.086
Mof_C 	C 	0.4831	0.1537	0.49	-0.076
Mof_C 	C 	0.5186	0.1338	0.5321	0.123
Mof_C 	C 	0.4984	0.1646	0.573	-0.116
Mof_C 	C 	0.5323	0.1411	0.6131	0.101
Mof_C 	C 	0.516	0.1744	0.6565	-0.072
Mof_C 	C 	0.5496	0.1284	0.685	-0.077
Mof_C 	C 	0.5888	0.0652	0.6604	0.113
Mof_C 	C 	0.6218	0.9976	0.67519	-0.125
Mof_C 	C 	0.6687	0.9425	0.6523	0.123
Mof_C 	C 	0.7084	0.8752	0.66807	-0.088
Mof_C 	C 	0.7563	0.8463	0.63895	-0.088
Mof_C 	C 	0.7452	0.895	0.60411	0.129
Mof_C 	C 	0.7878	0.8874	0.5685	-0.136
Mof_C 	C 	0.7754	0.93	0.5331	0.114
Mof_C 	C 	0.8208	0.9246	0.4972	-0.083
Mof_C 	C 	0.7853	0.9687	0.4681	-0.078
Mof_C 	C 	0.7176	0.0054	0.48657	0.111
Mof_C 	C 	0.6603	0.0511	0.46558	-0.137
Mof_C 	C 	0.4356	0.2258	0.5751	0.1
Mof_C 	C 	0.4507	0.3013	0.5594	-0.125
Mof_C 	C 	0.3932	0.3606	0.5618	0.02
Mof_C 	C 	0.3195	0.3433	0.5799	-0.078
Mof_C 	C 	0.3064	0.2686	0.5948	0.026
Mof_C 	C 	0.3639	0.2099	0.5916	-0.131
Mof_C 	C 	0.2559	0.4051	0.583	0.259
Mof_C 	C 	0.6055	0.9773	0.71861	0.134
Mof_C 	C 	0.5537	0.9021	0.7186	-0.178
Mof_C 	C 	0.5318	0.8828	0.7567	0.109
Mof_C 	C 	0.5624	0.9416	0.79699	-0.194
Mof_C 	C 	0.6167	0.0145	0.7974	0.102
Mof_C 	C 	0.6378	0.0334	0.7586	-0.185
Mof_C 	C 	0.533	0.926	0.83786	0.422
Mof_C 	C 	0.8542	0.8288	0.57041	0.149
Mof_C 	C 	0.934	0.8578	0.5967	-0.209
Mof_C 	C 	0.9901	0.7995	0.6037	0.132
Mof_C 	C 	0.9687	0.7151	0.58454	-0.23
Mof_C 	C 	0.8897	0.6879	0.5565	0.127
Mof_C 	C 	0.8338	0.7442	0.549	-0.209
Mof_C 	C 	0.0267	0.6517	0.594	0.455
Mof_C 	C 	0.6724	0.0706	0.42177	0.161
Mof_C 	C 	0.7376	0.1352	0.4204	-0.212
Mof_C 	C 	0.7465	0.1575	0.3806	0.163
Mof_C 	C 	0.6912	0.1162	0.34131	-0.26
Mof_C 	C 	0.6286	0.0504	0.3427	0.15
Mof_C 	C 	0.6203	0.0287	0.3828	-0.22
Mof_C 	C 	0.6995	0.1417	0.2992	0.535
Mof_C 	C 	0.8459	0.1523	0.78952	0.103
Mof_C 	C 	0.8658	0.1194	0.8294	-0.073
Mof_C 	C 	0.8188	0.1524	0.8582	-0.08
Mof_C 	C 	0.7688	0.2088	0.83698	0.114
Mof_C 	C 	0.7086	0.2522	0.85491	-0.124
Mof_C 	C 	0.6609	0.3073	0.83601	0.113
Mof_C 	C 	0.6042	0.3566	0.8577	-0.079
Mof_C 	C 	0.5731	0.4051	0.8281	-0.083
Mof_C 	C 	0.6056	0.3842	0.7887	0.111
Mof_C 	C 	0.0144	0.0828	0.7791	-0.196
Mof_C 	C 	0.0731	0.0269	0.779	0.129
Mof_C 	C 	0.6899	0.2361	0.8988	0.158
Mof_C 	C 	0.6193	0.1783	0.8988	-0.205
Mof_C 	C 	0.5982	0.1648	0.9385	0.147
Mof_C 	C 	0.6458	0.211	0.9786	-0.244
Mof_C 	C 	0.713	0.2656	0.9773	0.145
Mof_C 	C 	0.7362	0.279	0.9381	-0.219
Mof_C 	C 	0.634	0.2116	0.0247	0.501
Mof_C 	C 	0.5472	0.5614	0.7744	-0.181
Mof_C 	C 	0.4868	0.6196	0.7739	0.114
Mof_C 	C 	0.9175	0.4079	0.0167	0.135
Mof_C 	C 	0.8761	0.4711	0.0391	-0.086
Mof_C 	C 	0.8463	0.5169	0.01	-0.076
Mof_C 	C 	0.8662	0.4814	0.9679	0.123
Mof_C 	C 	0.8354	0.5016	0.927	-0.116
Mof_C 	C 	0.8589	0.4677	0.8869	0.101
Mof_C 	C 	0.8256	0.484	0.8435	-0.072
Mof_C 	C 	0.8716	0.4504	0.815	-0.077
Mof_C 	C 	0.9348	0.4112	0.8396	0.113
Mof_C 	C 	0.0024	0.3782	0.82481	-0.125
Mof_C 	C 	0.0575	0.3313	0.8477	0.123
Mof_C 	C 	0.1248	0.2916	0.83193	-0.088
Mof_C 	C 	0.1537	0.2437	0.86105	-0.088
Mof_C 	C 	0.105	0.2548	0.89589	0.129
Mof_C 	C 	0.1126	0.2122	0.9315	-0.136
Mof_C 	C 	0.07	0.2246	0.9669	0.114
Mof_C 	C 	0.0754	0.1792	0.0028	-0.083
Mof_C 	C 	0.0313	0.2147	0.0319	-0.078
Mof_C 	C 	0.9946	0.2824	0.01343	0.111
Mof_C 	C 	0.9489	0.3397	0.03442	-0.137
Mof_C 	C 	0.7742	0.5644	0.9249	0.1
Mof_C 	C 	0.6987	0.5493	0.9406	-0.125
Mof_C 	C 	0.6394	0.6068	0.9382	0.02
Mof_C 	C 	0.6567	0.6805	0.9201	-0.078
Mof_C 	C 	0.7314	0.6936	0.9052	0.026
Mof_C 	C 	0.7901	0.6361	0.9084	-0.131
Mof_C 	C 	0.5949	0.7441	0.917	0.259
Mof_C 	C 	0.0227	0.3945	0.78139	0.134
Mof_C 	C 	0.0979	0.4463	0.7814	-0.178
Mof_C 	C 	0.1172	0.4682	0.7433	0.109
Mof_C 	C 	0.0584	0.4376	0.70301	-0.194
Mof_C 	C 	0.9855	0.3833	0.7026	0.102
Mof_C 	C 	0.9666	0.3622	0.7414	-0.185
Mof_C 	C 	0.074	0.467	0.66214	0.422
Mof_C 	C 	0.1712	0.1458	0.92959	0.149
Mof_C 	C 	0.1422	0.066	0.9033	-0.209
Mof_C 	C 	0.2005	0.0099	0.8963	0.132
Mof_C 	C 	0.2849	0.0313	0.91546	-0.23
Mof_C 	C 	0.3121	0.1103	0.9435	0.127
Mof_C 	C 	0.2558	0.1662	0.951	-0.209
Mof_C 	C 	0.3483	0.9733	0.906	0.455
Mof_C 	C 	0.9294	0.3276	0.07823	0.161
Mof_C 	C 	0.8648	0.2624	0.0796	-0.212
Mof_C 	C 	0.8425	0.2535	0.1194	0.163
Mof_C 	C 	0.8838	0.3088	0.15869	-0.26
Mof_C 	C 	0.9496	0.3714	0.1573	0.15
Mof_C 	C 	0.9713	0.3797	0.1172	-0.22
Mof_C 	C 	0.8583	0.3005	0.2008	0.535
Mof_C 	C 	0.8477	0.1541	0.71048	0.103
Mof_C 	C 	0.8806	0.1342	0.6706	-0.073
Mof_C 	C 	0.8476	0.1812	0.6418	-0.08
Mof_C 	C 	0.7912	0.2312	0.66302	0.114
Mof_C 	C 	0.7478	0.2914	0.64509	-0.124
Mof_C 	C 	0.6927	0.3391	0.66399	0.113
Mof_C 	C 	0.6434	0.3958	0.6423	-0.079
Mof_C 	C 	0.5949	0.4269	0.6719	-0.083
Mof_C 	C 	0.6158	0.3944	0.7113	0.111
Mof_C 	C 	0.9172	0.9856	0.7209	-0.196
Mof_C 	C 	0.9731	0.9269	0.721	0.129
Mof_C 	C 	0.7639	0.3101	0.6012	0.158
Mof_C 	C 	0.8217	0.3807	0.6012	-0.205
Mof_C 	C 	0.8352	0.4018	0.5615	0.147
Mof_C 	C 	0.789	0.3542	0.5214	-0.244
Mof_C 	C 	0.7344	0.287	0.5227	0.145
Mof_C 	C 	0.721	0.2638	0.5619	-0.219
Mof_C 	C 	0.7884	0.366	0.4753	0.501
Mof_C 	C 	0.4386	0.4528	0.7256	-0.181
Mof_C 	C 	0.3804	0.5132	0.7261	0.114
Mof_C 	C 	0.4079	0.9175	0.5167	0.135
Mof_C 	C 	0.4711	0.8761	0.5391	-0.086
Mof_C 	C 	0.5169	0.8463	0.51	-0.076
Mof_C 	C 	0.4814	0.8662	0.4679	0.123
Mof_C 	C 	0.5016	0.8354	0.427	-0.116
Mof_C 	C 	0.4677	0.8589	0.3869	0.101
Mof_C 	C 	0.484	0.8256	0.3435	-0.072
Mof_C 	C 	0.4504	0.8716	0.315	-0.077
Mof_C 	C 	0.4112	0.9348	0.3396	0.113
Mof_C 	C 	0.3782	0.0024	0.32481	-0.125
Mof_C 	C 	0.3313	0.0575	0.3477	0.123
Mof_C 	C 	0.2916	0.1248	0.33193	-0.088
Mof_C 	C 	0.2437	0.1537	0.36105	-0.088
Mof_C 	C 	0.2548	0.105	0.39589	0.129
Mof_C 	C 	0.2122	0.1126	0.4315	-0.136
Mof_C 	C 	0.2246	0.07	0.4669	0.114
Mof_C 	C 	0.1792	0.0754	0.5028	-0.083
Mof_C 	C 	0.2147	0.0313	0.5319	-0.078
Mof_C 	C 	0.2824	0.9946	0.51343	0.111
Mof_C 	C 	0.3397	0.9489	0.53442	-0.137
Mof_C 	C 	0.5644	0.7742	0.4249	0.1
Mof_C 	C 	0.5493	0.6987	0.4406	-0.125
Mof_C 	C 	0.6068	0.6394	0.4382	0.02
Mof_C 	C 	0.6805	0.6567	0.4201	-0.078
Mof_C 	C 	0.6936	0.7314	0.4052	0.026
Mof_C 	C 	0.6361	0.7901	0.4084	-0.131
Mof_C 	C 	0.7441	0.5949	0.417	0.259
Mof_C 	C 	0.3945	0.0227	0.28139	0.134
Mof_C 	C 	0.4463	0.0979	0.2814	-0.178
Mof_C 	C 	0.4682	0.1172	0.2433	0.109
Mof_C 	C 	0.4376	0.0584	0.20301	-0.194
Mof_C 	C 	0.3833	0.9855	0.2026	0.102
Mof_C 	C 	0.3622	0.9666	0.2414	-0.185
Mof_C 	C 	0.467	0.074	0.16214	0.422
Mof_C 	C 	0.1458	0.1712	0.42959	0.149
Mof_C 	C 	0.066	0.1422	0.4033	-0.209
Mof_C 	C 	0.0099	0.2005	0.3963	0.132
Mof_C 	C 	0.0313	0.2849	0.41546	-0.23
Mof_C 	C 	0.1103	0.3121	0.4435	0.127
Mof_C 	C 	0.1662	0.2558	0.451	-0.209
Mof_C 	C 	0.9733	0.3483	0.406	0.455
Mof_C 	C 	0.3276	0.9294	0.57823	0.161
Mof_C 	C 	0.2624	0.8648	0.5796	-0.212
Mof_C 	C 	0.2535	0.8425	0.6194	0.163
Mof_C 	C 	0.3088	0.8838	0.65869	-0.26
Mof_C 	C 	0.3714	0.9496	0.6573	0.15
Mof_C 	C 	0.3797	0.9713	0.6172	-0.22
Mof_C 	C 	0.3005	0.8583	0.7008	0.535
Mof_C 	C 	0.1541	0.8477	0.21048	0.103
Mof_C 	C 	0.1342	0.8806	0.1706	-0.073
Mof_C 	C 	0.1812	0.8476	0.1418	-0.08
Mof_C 	C 	0.2312	0.7912	0.16302	0.114
Mof_C 	C 	0.2914	0.7478	0.14509	-0.124
Mof_C 	C 	0.3391	0.6927	0.16399	0.113
Mof_C 	C 	0.3958	0.6434	0.1423	-0.079
Mof_C 	C 	0.4269	0.5949	0.1719	-0.083
Mof_C 	C 	0.3944	0.6158	0.2113	0.111
Mof_C 	C 	0.9856	0.9172	0.2209	-0.196
Mof_C 	C 	0.9269	0.9731	0.221	0.129
Mof_C 	C 	0.3101	0.7639	0.1012	0.158
Mof_C 	C 	0.3807	0.8217	0.1012	-0.205
Mof_C 	C 	0.4018	0.8352	0.0615	0.147
Mof_C 	C 	0.3542	0.789	0.0214	-0.244
Mof_C 	C 	0.287	0.7344	0.0227	0.145
Mof_C 	C 	0.2638	0.721	0.0619	-0.219
Mof_C 	C 	0.366	0.7884	0.9753	0.501
Mof_C 	C 	0.4528	0.4386	0.2256	-0.181
Mof_C 	C 	0.5132	0.3804	0.2261	0.114
Mof_C 	C 	0.0825	0.5921	0.9833	0.135
Mof_C 	C 	0.1239	0.5289	0.9609	-0.086
Mof_C 	C 	0.1537	0.4831	0.99	-0.076
Mof_C 	C 	0.1338	0.5186	0.0321	0.123
Mof_C 	C 	0.1646	0.4984	0.073	-0.116
Mof_C 	C 	0.1411	0.5323	0.1131	0.101
Mof_C 	C 	0.1744	0.516	0.1565	-0.072
Mof_C 	C 	0.1284	0.5496	0.185	-0.077
Mof_C 	C 	0.0652	0.5888	0.1604	0.113
Mof_C 	C 	0.9976	0.6218	0.17519	-0.125
Mof_C 	C 	0.9425	0.6687	0.1523	0.123
Mof_C 	C 	0.8752	0.7084	0.16807	-0.088
Mof_C 	C 	0.8463	0.7563	0.13895	-0.088
Mof_C 	C 	0.895	0.7452	0.10411	0.129
Mof_C 	C 	0.8874	0.7878	0.0685	-0.136
Mof_C 	C 	0.93	0.7754	0.0331	0.114
Mof_C 	C 	0.9246	0.8208	0.9972	-0.083
Mof_C 	C 	0.9687	0.7853	0.9681	-0.078
Mof_C 	C 	0.0054	0.7176	0.98657	0.111
Mof_C 	C 	0.0511	0.6603	0.96558	-0.137
Mof_C 	C 	0.2258	0.4356	0.0751	0.1
Mof_C 	C 	0.3013	0.4507	0.0594	-0.125
Mof_C 	C 	0.3606	0.3932	0.0618	0.02
Mof_C 	C 	0.3433	0.3195	0.0799	-0.078
Mof_C 	C 	0.2686	0.3064	0.0948	0.026
Mof_C 	C 	0.2099	0.3639	0.0916	-0.131
Mof_C 	C 	0.4051	0.2559	0.083	0.259
Mof_C 	C 	0.9773	0.6055	0.21861	0.134
Mof_C 	C 	0.9021	0.5537	0.2186	-0.178
Mof_C 	C 	0.8828	0.5318	0.2567	0.109
Mof_C 	C 	0.9416	0.5624	0.29699	-0.194
Mof_C 	C 	0.0145	0.6167	0.2974	0.102
Mof_C 	C 	0.0334	0.6378	0.2586	-0.185
Mof_C 	C 	0.926	0.533	0.33786	0.422
Mof_C 	C 	0.8288	0.8542	0.07041	0.149
Mof_C 	C 	0.8578	0.934	0.0967	-0.209
Mof_C 	C 	0.7995	0.9901	0.1037	0.132
Mof_C 	C 	0.7151	0.9687	0.08454	-0.23
Mof_C 	C 	0.6879	0.8897	0.0565	0.127
Mof_C 	C 	0.7442	0.8338	0.049	-0.209
Mof_C 	C 	0.6517	0.0267	0.094	0.455
Mof_C 	C 	0.0706	0.6724	0.92177	0.161
Mof_C 	C 	0.1352	0.7376	0.9204	-0.212
Mof_C 	C 	0.1575	0.7465	0.8806	0.163
Mof_C 	C 	0.1162	0.6912	0.84131	-0.26
Mof_C 	C 	0.0504	0.6286	0.8427	0.15
Mof_C 	C 	0.0287	0.6203	0.8828	-0.22
Mof_C 	C 	0.1417	0.6995	0.7992	0.535
Mof_C 	C 	0.1523	0.8459	0.28952	0.103
Mof_C 	C 	0.1194	0.8658	0.3294	-0.073
Mof_C 	C 	0.1524	0.8188	0.3582	-0.08
Mof_C 	C 	0.2088	0.7688	0.33698	0.114
Mof_C 	C 	0.2522	0.7086	0.35491	-0.124
Mof_C 	C 	0.3073	0.6609	0.33601	0.113
Mof_C 	C 	0.3566	0.6042	0.3577	-0.079
Mof_C 	C 	0.4051	0.5731	0.3281	-0.083
Mof_C 	C 	0.3842	0.6056	0.2887	0.111
Mof_C 	C 	0.0828	0.0144	0.2791	-0.196
Mof_C 	C 	0.0269	0.0731	0.279	0.129
Mof_C 	C 	0.2361	0.6899	0.3988	0.158
Mof_C 	C 	0.1783	0.6193	0.3988	-0.205
Mof_C 	C 	0.1648	0.5982	0.4385	0.147
Mof_C 	C 	0.211	0.6458	0.4786	-0.244
Mof_C 	C 	0.2656	0.713	0.4773	0.145
Mof_C 	C 	0.279	0.7362	0.4381	-0.219
Mof_C 	C 	0.2116	0.634	0.5247	0.501
Mof_C 	C 	0.5614	0.5472	0.2744	-0.181
Mof_C 	C 	0.6196	0.4868	0.2739	0.114
Mof_C 	C 	0.5841	0.4159	0.75	-0.116
Mof_C 	C 	0.8738	0.1262	0.75	-0.115
Mof_C 	C 	0.9357	0.0643	0.75	0.14
Mof_C 	C 	0.0525	0.9475	0.75	-0.231
Mof_C 	C 	0.1148	0.8852	0.75	0.539
Mof_C 	C 	0.5213	0.4787	0.75	0.127
Mof_C 	C 	0.4047	0.5953	0.75	-0.231
Mof_C 	C 	0.3432	0.6568	0.75	0.515
Mof_C 	C 	0.4159	0.5841	0.25	-0.116
Mof_C 	C 	0.1262	0.8738	0.25	-0.115
Mof_C 	C 	0.0643	0.9357	0.25	0.14
Mof_C 	C 	0.9475	0.0525	0.25	-0.231
Mof_C 	C 	0.8852	0.1148	0.25	0.539
Mof_C 	C 	0.4787	0.5213	0.25	0.127
Mof_C 	C 	0.5953	0.4047	0.25	-0.231
Mof_C 	C 	0.6568	0.3432	0.25	0.515
Mof_N 	N 	0.58176	0.08604	0.52596	-0.225
Mof_N 	N 	0.58213	0.07927	0.6177	-0.144
Mof_N 	N 	0.68998	0.95142	0.61206	-0.222
Mof_N 	N 	0.71515	0.98165	0.52649	-0.145
Mof_N 	N 	0.78692	0.20828	0.79567	-0.125
Mof_N 	N 	0.65893	0.32527	0.79435	-0.125
Mof_N 	N 	0.91396	0.41824	0.97404	-0.225
Mof_N 	N 	0.92073	0.41787	0.8823	-0.144
Mof_N 	N 	0.04858	0.31002	0.88794	-0.222
Mof_N 	N 	0.01835	0.28485	0.97351	-0.145
Mof_N 	N 	0.79172	0.21308	0.70433	-0.125
Mof_N 	N 	0.67473	0.34107	0.70565	-0.125
Mof_N 	N 	0.41824	0.91396	0.47404	-0.225
Mof_N 	N 	0.41787	0.92073	0.3823	-0.144
Mof_N 	N 	0.31002	0.04858	0.38794	-0.222
Mof_N 	N 	0.28485	0.01835	0.47351	-0.145
Mof_N 	N 	0.21308	0.79172	0.20433	-0.125
Mof_N 	N 	0.34107	0.67473	0.20565	-0.125
Mof_N 	N 	0.08604	0.58176	0.02596	-0.225
Mof_N 	N 	0.07927	0.58213	0.1177	-0.144
Mof_N 	N 	0.95142	0.68998	0.11206	-0.222
Mof_N 	N 	0.98165	0.71515	0.02649	-0.145
Mof_N 	N 	0.20828	0.78692	0.29567	-0.125
Mof_N 	N 	0.32527	0.65893	0.29435	-0.125
Mof_O 	O 	0.2681	0.4709	0.5638	-0.421
Mof_O 	O 	0.2003	0.3939	0.6051	-0.443
Mof_O 	O 	0.46387	0.87365	0.83351	-0.699
Mof_O 	O 	0.57249	0.96251	0.87532	-0.443
Mof_O 	O 	0.00466	0.57734	0.57385	-0.518
Mof_O 	O 	0.09624	0.67596	0.62149	-0.66
Mof_O 	O 	0.75131	0.20569	0.29873	-0.669
Mof_O 	O 	0.65163	0.09897	0.26413	-0.566
Mof_O 	O 	0.18682	0.90898	0.77466	-0.584
Mof_O 	O 	0.6682	0.2644	0.0577	-0.362
Mof_O 	O 	0.5913	0.1507	0.032	-0.581
Mof_O 	O 	0.36909	0.73181	0.7716	-0.577
Mof_O 	O 	0.5291	0.7319	0.9362	-0.421
Mof_O 	O 	0.6061	0.7997	0.8949	-0.443
Mof_O 	O 	0.12635	0.53613	0.66649	-0.699
Mof_O 	O 	0.03749	0.42751	0.62468	-0.443
Mof_O 	O 	0.42266	0.99534	0.92615	-0.518
Mof_O 	O 	0.32404	0.90376	0.87851	-0.66
Mof_O 	O 	0.79431	0.24869	0.20127	-0.669
Mof_O 	O 	0.90103	0.34837	0.23587	-0.566
Mof_O 	O 	0.09102	0.81318	0.72534	-0.584
Mof_O 	O 	0.7356	0.3318	0.4423	-0.362
Mof_O 	O 	0.8493	0.4087	0.468	-0.581
Mof_O 	O 	0.26819	0.63091	0.7284	-0.577
Mof_O 	O 	0.7319	0.5291	0.4362	-0.421
Mof_O 	O 	0.7997	0.6061	0.3949	-0.443
Mof_O 	O 	0.53613	0.12635	0.16649	-0.699
Mof_O 	O 	0.42751	0.03749	0.12468	-0.443
Mof_O 	O 	0.99534	0.42266	0.42615	-0.518
Mof_O 	O 	0.90376	0.32404	0.37851	-0.66
Mof_O 	O 	0.24869	0.79431	0.70127	-0.669
Mof_O 	O 	0.34837	0.90103	0.73587	-0.566
Mof_O 	O 	0.81318	0.09102	0.22534	-0.584
Mof_O 	O 	0.3318	0.7356	0.9423	-0.362
Mof_O 	O 	0.4087	0.8493	0.968	-0.581
Mof_O 	O 	0.63091	0.26819	0.2284	-0.577
Mof_O 	O 	0.4709	0.2681	0.0638	-0.421
Mof_O 	O 	0.3939	0.2003	0.1051	-0.443
Mof_O 	O 	0.87365	0.46387	0.33351	-0.699
Mof_O 	O 	0.96251	0.57249	0.37532	-0.443
Mof_O 	O 	0.57734	0.00466	0.07385	-0.518
Mof_O 	O 	0.67596	0.09624	0.12149	-0.66
Mof_O 	O 	0.20569	0.75131	0.79873	-0.669
Mof_O 	O 	0.09897	0.65163	0.76413	-0.566
Mof_O 	O 	0.90898	0.18682	0.27466	-0.584
Mof_O 	O 	0.2644	0.6682	0.5577	-0.362
Mof_O 	O 	0.1507	0.5913	0.532	-0.581
Mof_O 	O 	0.73181	0.36909	0.2716	-0.577
_end
