data_functionalizedCrystal
_audit_creation_method	'EQeq! by Chris Wilmer'
_symmetry_space_group_name_H-M	'P1'
_symmetry_Int_Tables_number	1
_symmetry_cell_setting	triclinic
loop_
_symmetry_equiv_pos_as_xyz
  x,y,z
_cell_length_a	17.6018
_cell_length_b	17.6018
_cell_length_c	21.0633
_cell_angle_alpha	90
_cell_angle_beta	90
_cell_angle_gamma	120
loop_
_atom_site_label
_atom_site_type_symbol
_atom_site_fract_x
_atom_site_fract_y
_atom_site_fract_z
_atom_site_charge
Mof_N 	N 	0.1979	0.4326	0.5603	-0.103
Mof_N 	N 	0.2603	0.4236	0.5284	-0.036
Mof_N 	N 	0.3117	0.4914	0.4936	-0.058
Mof_N 	N 	0.2865	0.5499	0.5031	-0.14
Mof_C 	C 	0.2188	0.5131	0.5448	0.102
Mof_H 	H 	0.1904	0.5416	0.5607	0.003
Mof_N 	N 	0.0467	0.2287	0.3874	-0.122
Mof_N 	N 	0.1221	0.2281	0.3871	-0.038
Mof_N 	N 	0.1178	0.1614	0.3565	-0.059
Mof_N 	N 	0.0367	0.1153	0.336	-0.154
Mof_C 	C 	0.9953	0.1574	0.3566	0.149
Mof_H 	H 	0.9361	0.1375	0.3494	-0.007
Mof_N 	N 	0.4367	0.2325	0.9909	-0.112
Mof_N 	N 	0.4246	0.1646	0.0259	-0.036
Mof_N 	N 	0.4896	0.1813	0.063	-0.057
Mof_N 	N 	0.5497	0.2634	0.0511	-0.146
Mof_C 	C 	0.516	0.293	0.0078	0.123
Mof_H 	H 	0.545	0.3497	0.9915	-0.008
Mof_N 	N 	0.2205	0.1862	0.1626	-0.106
Mof_N 	N 	0.2303	0.1183	0.1669	-0.035
Mof_N 	N 	0.1687	0.0519	0.1996	-0.062
Mof_N 	N 	0.1159	0.0791	0.2185	-0.141
Mof_C 	C 	0.1492	0.1618	0.1967	0.105
Mof_H 	H 	0.1248	0.1972	0.2048	0.003
Mof_C 	C 	0.2654	0.3432	0.5303	-0.171
Mof_H 	H 	0.2632	0.3247	0.574	0.044
Mof_H 	H 	0.3204	0.3539	0.5119	0.096
Mof_C 	C 	0.1881	0.271	0.4928	-0.048
Mof_H 	H 	0.1336	0.2663	0.5074	0.046
Mof_H 	H 	0.1849	0.2151	0.5	0.044
Mof_C 	C 	0.2001	0.2929	0.4211	-0.178
Mof_H 	H 	0.2087	0.3511	0.4142	0.034
Mof_H 	H 	0.2514	0.2919	0.4055	0.092
Mof_H 	H 	0.5451	0.9625	0.2149	0.111
Mof_H 	H 	0.6473	0.0187	0.2238	0.047
Mof_C 	C 	0.612	0.986	0.1303	-0.029
Mof_H 	H 	0.6627	0.0359	0.1116	0.025
Mof_H 	H 	0.6239	0.938	0.1326	0.033
Mof_H 	H 	0.5071	0.9885	0.1107	0.124
Mof_H 	H 	0.5634	0.9988	0.0526	0.079
Mof_C 	C 	0.3426	0.0795	0.0267	-0.146
Mof_H 	H 	0.3525	0.0356	0.0467	0.09
Mof_H 	H 	0.3225	0.0608	0.9836	0.035
Mof_C 	C 	0.2744	0.0891	0.0631	0.033
Mof_H 	H 	0.2668	0.1347	0.0434	0.018
Mof_H 	H 	0.2189	0.0346	0.0602	0.016
Mof_C 	C 	0.2966	0.1113	0.1315	-0.189
Mof_H 	H 	0.3057	0.0665	0.1509	0.105
Mof_H 	H 	0.3513	0.1666	0.1344	0.046
Mof_H 	H 	0.3518	0.0364	0.0047	0.033
Mof_H 	H 	0.2976	0.085	0.0041	0.067
Mof_C 	C 	0.311	0.0474	0.0937	-0.182
Mof_H 	H 	0.2563	0.9919	0.0916	0.088
Mof_H 	H 	0.3538	0.0374	0.1152	0.07
Mof_H 	H 	0.3437	0.1316	0.1623	0.048
Mof_H 	H 	0.3156	0.1595	0.1017	0.09
Mof_N 	N 	0.86457	0.76593	0.89363	-0.104
Mof_N 	N 	0.92697	0.75693	0.86173	-0.035
Mof_N 	N 	0.97837	0.82473	0.82693	-0.053
Mof_N 	N 	0.95317	0.88323	0.83643	-0.131
Mof_C 	C 	0.88547	0.84643	0.87813	0.103
Mof_H 	H 	0.85707	0.87493	0.89403	0.007
Mof_N 	N 	0.71337	0.56203	0.72073	-0.108
Mof_N 	N 	0.78877	0.56143	0.72043	-0.036
Mof_N 	N 	0.78447	0.49473	0.68983	-0.057
Mof_N 	N 	0.70337	0.44863	0.66933	-0.141
Mof_C 	C 	0.66197	0.49073	0.68993	0.115
Mof_H 	H 	0.60277	0.47083	0.68273	0.003
Mof_N 	N 	0.10337	0.56583	0.32423	-0.108
Mof_N 	N 	0.09127	0.49793	0.35923	-0.025
Mof_N 	N 	0.15627	0.51463	0.39633	-0.058
Mof_N 	N 	0.21637	0.59673	0.38443	-0.144
Mof_C 	C 	0.18267	0.62633	0.34113	0.107
Mof_H 	H 	0.21167	0.68303	0.32483	0.002
Mof_N 	N 	0.88717	0.51953	0.49593	-0.104
Mof_N 	N 	0.89697	0.45163	0.50023	-0.029
Mof_N 	N 	0.83537	0.38523	0.53293	-0.057
Mof_N 	N 	0.78257	0.41243	0.55183	-0.14
Mof_C 	C 	0.81587	0.49513	0.53003	0.108
Mof_H 	H 	0.79147	0.53053	0.53813	0.006
Mof_C 	C 	0.93207	0.67653	0.86363	-0.173
Mof_H 	H 	0.92987	0.65803	0.90733	0.046
Mof_H 	H 	0.98707	0.68723	0.84523	0.1
Mof_C 	C 	0.85477	0.60433	0.82613	-0.045
Mof_H 	H 	0.80027	0.59963	0.84073	0.047
Mof_H 	H 	0.85157	0.54843	0.83333	0.046
Mof_C 	C 	0.86677	0.62623	0.75443	-0.178
Mof_H 	H 	0.87537	0.68443	0.74753	0.035
Mof_H 	H 	0.91807	0.62523	0.73883	0.095
Mof_H 	H 	0.21177	0.29583	0.54823	0.084
Mof_H 	H 	0.31397	0.35203	0.55713	0.037
Mof_C 	C 	0.27867	0.31933	0.46363	-0.115
Mof_H 	H 	0.32937	0.36923	0.44493	0.057
Mof_H 	H 	0.29057	0.27133	0.46593	0.055
Mof_H 	H 	0.17377	0.32183	0.44403	0.101
Mof_H 	H 	0.23007	0.33213	0.38593	0.055
Mof_C 	C 	0.00927	0.41283	0.36003	-0.269
Mof_H 	H 	0.01917	0.36893	0.38003	0.099
Mof_H 	H 	0.98917	0.39413	0.31693	0.068
Mof_C 	C 	0.94107	0.42243	0.39643	-0.038
Mof_H 	H 	0.93347	0.46803	0.37673	0.041
Mof_H 	H 	0.88557	0.36793	0.39353	0.042
Mof_C 	C 	0.96327	0.44463	0.46483	-0.203
Mof_H 	H 	0.97237	0.39983	0.48423	0.097
Mof_H 	H 	0.01797	0.49993	0.46773	0.031
Mof_H 	H 	0.01847	0.36973	0.33803	0.05
Mof_H 	H 	0.96427	0.41833	0.33743	0.106
Mof_C 	C 	0.97767	0.38073	0.42703	-0.004
Mof_H 	H 	0.92297	0.32523	0.42493	0.027
Mof_H 	H 	0.02047	0.37073	0.44853	0.011
Mof_H 	H 	0.01037	0.46493	0.49563	0.053
Mof_H 	H 	0.98227	0.49283	0.43503	0.113
Mof_N 	N 	0.53123	0.09927	0.22697	-0.106
Mof_N 	N 	0.59363	0.09027	0.19507	-0.027
Mof_N 	N 	0.64503	0.15807	0.16027	-0.059
Mof_N 	N 	0.61983	0.21657	0.16977	-0.14
Mof_C 	C 	0.55213	0.17977	0.21147	0.102
Mof_H 	H 	0.52373	0.20827	0.22737	0.004
Mof_N 	N 	0.38003	0.89537	0.05407	-0.106
Mof_N 	N 	0.45543	0.89477	0.05377	-0.031
Mof_N 	N 	0.45113	0.82807	0.02317	-0.056
Mof_N 	N 	0.37003	0.78197	0.00267	-0.139
Mof_C 	C 	0.32863	0.82407	0.02327	0.116
Mof_H 	H 	0.26943	0.80417	0.01607	0.004
Mof_N 	N 	0.77003	0.89917	0.65757	-0.107
Mof_N 	N 	0.75793	0.83127	0.69257	-0.034
Mof_N 	N 	0.82293	0.84797	0.72967	-0.055
Mof_N 	N 	0.88303	0.93007	0.71777	-0.138
Mof_C 	C 	0.84933	0.95967	0.67447	0.127
Mof_H 	H 	0.87833	0.01637	0.65817	-0.008
Mof_N 	N 	0.55383	0.85287	0.82927	-0.104
Mof_N 	N 	0.56363	0.78497	0.83357	-0.031
Mof_N 	N 	0.50203	0.71857	0.86627	-0.058
Mof_N 	N 	0.44923	0.74577	0.88517	-0.14
Mof_C 	C 	0.48253	0.82847	0.86337	0.107
Mof_H 	H 	0.45813	0.86387	0.87147	0.006
Mof_C 	C 	0.59873	0.00987	0.19697	-0.26
Mof_H 	H 	0.59653	0.99137	0.24067	0.067
Mof_H 	H 	0.65373	0.02057	0.17857	0.105
Mof_C 	C 	0.52143	0.93767	0.15947	-0.055
Mof_H 	H 	0.46693	0.93297	0.17407	0.05
Mof_H 	H 	0.51823	0.88177	0.16667	0.048
Mof_C 	C 	0.53343	0.95957	0.08777	-0.212
Mof_H 	H 	0.54203	0.01777	0.08087	0.015
Mof_H 	H 	0.58473	0.95857	0.07217	0.092
Mof_H 	H 	0.87843	0.62917	0.88157	0.084
Mof_H 	H 	0.98063	0.68537	0.89047	0.039
Mof_C 	C 	0.94533	0.65267	0.79697	-0.123
Mof_H 	H 	0.99603	0.70257	0.77827	0.064
Mof_H 	H 	0.95723	0.60467	0.79927	0.061
Mof_H 	H 	0.84043	0.65517	0.77737	0.101
Mof_H 	H 	0.89673	0.66547	0.71927	0.056
Mof_C 	C 	0.67593	0.74617	0.69337	-0.173
Mof_H 	H 	0.68583	0.70227	0.71337	0.092
Mof_H 	H 	0.65583	0.72747	0.65027	0.046
Mof_C 	C 	0.60773	0.75577	0.72977	0.006
Mof_H 	H 	0.60013	0.80137	0.71007	0.027
Mof_H 	H 	0.55223	0.70127	0.72687	0.03
Mof_C 	C 	0.62993	0.77797	0.79817	-0.203
Mof_H 	H 	0.63903	0.73317	0.81757	0.103
Mof_H 	H 	0.68463	0.83327	0.80107	0.046
Mof_H 	H 	0.68513	0.70307	0.67137	0.038
Mof_H 	H 	0.63093	0.75167	0.67077	0.073
Mof_C 	C 	0.64433	0.71407	0.76037	-0.121
Mof_H 	H 	0.58963	0.65857	0.75827	0.059
Mof_H 	H 	0.68713	0.70407	0.78187	0.055
Mof_H 	H 	0.67703	0.79827	0.82897	0.054
Mof_H 	H 	0.64893	0.82617	0.76837	0.098
Mof_N 	N 	0.5674	0.7653	0.5603	-0.104
Mof_N 	N 	0.5764	0.8367	0.5284	-0.034
Mof_N 	N 	0.5086	0.8203	0.4936	-0.058
Mof_N 	N 	0.4501	0.7366	0.5031	-0.14
Mof_C 	C 	0.4869	0.7057	0.5448	0.102
Mof_H 	H 	0.4584	0.6488	0.5607	0.004
Mof_N 	N 	0.7713	0.818	0.3874	-0.107
Mof_N 	N 	0.7719	0.894	0.3871	-0.035
Mof_N 	N 	0.8386	0.9564	0.3565	-0.053
Mof_N 	N 	0.8847	0.9214	0.336	-0.133
Mof_C 	C 	0.8426	0.8379	0.3566	0.116
Mof_H 	H 	0.8625	0.7986	0.3494	0.006
Mof_N 	N 	0.7675	0.2042	0.9909	-0.112
Mof_N 	N 	0.8354	0.26	0.0259	-0.031
Mof_N 	N 	0.8187	0.3083	0.063	-0.055
Mof_N 	N 	0.7366	0.2863	0.0511	-0.146
Mof_C 	C 	0.707	0.223	0.0078	0.122
Mof_H 	H 	0.6503	0.1953	0.9915	-0.009
Mof_N 	N 	0.8138	0.0343	0.1626	-0.115
Mof_N 	N 	0.8817	0.112	0.1669	-0.03
Mof_N 	N 	0.9481	0.1168	0.1996	-0.054
Mof_N 	N 	0.9209	0.0368	0.2185	-0.142
Mof_C 	C 	0.8382	0.9874	0.1967	0.129
Mof_H 	H 	0.8028	0.9276	0.2048	0.001
Mof_C 	C 	0.6568	0.9222	0.5303	-0.189
Mof_H 	H 	0.6753	0.9385	0.574	0.047
Mof_H 	H 	0.6461	0.9665	0.5119	0.097
Mof_C 	C 	0.729	0.9171	0.4928	-0.065
Mof_H 	H 	0.7337	0.8673	0.5074	0.054
Mof_H 	H 	0.7849	0.9698	0.5	0.057
Mof_C 	C 	0.7071	0.9072	0.4211	-0.185
Mof_H 	H 	0.6489	0.8576	0.4142	0.033
Mof_H 	H 	0.7081	0.9595	0.4055	0.093
Mof_H 	H 	0.0375	0.5826	0.2149	0.053
Mof_H 	H 	0.9813	0.6286	0.2238	0.025
Mof_C 	C 	0.014	0.626	0.1303	-0.22
Mof_H 	H 	0.9641	0.6268	0.1116	0.098
Mof_H 	H 	0.062	0.6859	0.1326	0.085
Mof_H 	H 	0.0115	0.5186	0.1107	0.073
Mof_H 	H 	0.0012	0.5646	0.0526	0.027
Mof_C 	C 	0.9205	0.2631	0.0267	-0.186
Mof_H 	H 	0.9644	0.3169	0.0467	0.087
Mof_H 	H 	0.9392	0.2617	0.9836	0.039
Mof_C 	C 	0.9109	0.1853	0.0631	-0.047
Mof_H 	H 	0.8653	0.1321	0.0434	0.042
Mof_H 	H 	0.9654	0.1843	0.0602	0.052
Mof_C 	C 	0.8887	0.1853	0.1315	-0.207
Mof_H 	H 	0.9335	0.2392	0.1509	0.097
Mof_H 	H 	0.8334	0.1847	0.1344	0.041
Mof_H 	H 	0.9636	0.3154	0.0047	0.052
Mof_H 	H 	0.915	0.2126	0.0041	0.089
Mof_C 	C 	0.9526	0.2636	0.0937	-0.044
Mof_H 	H 	0.0081	0.2644	0.0916	0.024
Mof_H 	H 	0.9626	0.3164	0.1152	0.036
Mof_H 	H 	0.8684	0.2121	0.1623	0.058
Mof_H 	H 	0.8405	0.1561	0.1017	0.105
Mof_N 	N 	0.23407	0.09863	0.89363	-0.102
Mof_N 	N 	0.24307	0.17003	0.86173	-0.037
Mof_N 	N 	0.17527	0.15363	0.82693	-0.058
Mof_N 	N 	0.11677	0.06993	0.83643	-0.138
Mof_C 	C 	0.15357	0.03903	0.87813	0.075
Mof_H 	H 	0.12507	0.98213	0.89403	0.019
Mof_N 	N 	0.43797	0.15133	0.72073	-0.111
Mof_N 	N 	0.43857	0.22733	0.72043	-0.038
Mof_N 	N 	0.50527	0.28973	0.68983	-0.058
Mof_N 	N 	0.55137	0.25473	0.66933	-0.141
Mof_C 	C 	0.50927	0.17123	0.68993	0.114
Mof_H 	H 	0.52917	0.13193	0.68273	0.001
Mof_N 	N 	0.43417	0.53753	0.32423	-0.105
Mof_N 	N 	0.50207	0.59333	0.35923	-0.034
Mof_N 	N 	0.48537	0.64163	0.39633	-0.056
Mof_N 	N 	0.40327	0.61963	0.38443	-0.144
Mof_C 	C 	0.37367	0.55633	0.34113	0.107
Mof_H 	H 	0.31697	0.52863	0.32483	0.001
Mof_N 	N 	0.48047	0.36763	0.49593	-0.107
Mof_N 	N 	0.54837	0.44533	0.50023	-0.032
Mof_N 	N 	0.61477	0.45013	0.53293	-0.058
Mof_N 	N 	0.58757	0.37013	0.55183	-0.14
Mof_C 	C 	0.50487	0.32073	0.53003	0.107
Mof_H 	H 	0.46947	0.26093	0.53813	0.004
Mof_C 	C 	0.32347	0.25553	0.86363	-0.168
Mof_H 	H 	0.34197	0.27183	0.90733	0.043
Mof_H 	H 	0.31277	0.29983	0.84523	0.096
Mof_C 	C 	0.39567	0.25043	0.82613	-0.051
Mof_H 	H 	0.40037	0.20063	0.84073	0.047
Mof_H 	H 	0.45157	0.30313	0.83333	0.047
Mof_C 	C 	0.37377	0.24053	0.75443	-0.172
Mof_H 	H 	0.31557	0.19093	0.74753	0.033
Mof_H 	H 	0.37477	0.29283	0.73883	0.091
Mof_H 	H 	0.70417	0.91593	0.54823	0.093
Mof_H 	H 	0.64797	0.96193	0.55713	0.045
Mof_C 	C 	0.68067	0.95933	0.46363	-0.077
Mof_H 	H 	0.63077	0.96013	0.44493	0.049
Mof_H 	H 	0.72867	0.01923	0.46593	0.037
Mof_H 	H 	0.67817	0.85193	0.44403	0.105
Mof_H 	H 	0.66787	0.89793	0.38593	0.058
Mof_C 	C 	0.58717	0.59643	0.36003	-0.173
Mof_H 	H 	0.63107	0.65023	0.38003	0.093
Mof_H 	H 	0.60587	0.59503	0.31693	0.046
Mof_C 	C 	0.57757	0.51863	0.39643	0.008
Mof_H 	H 	0.53197	0.46543	0.37673	0.026
Mof_H 	H 	0.63207	0.51763	0.39353	0.029
Mof_C 	C 	0.55537	0.51863	0.46483	-0.201
Mof_H 	H 	0.60017	0.57253	0.48423	0.103
Mof_H 	H 	0.50007	0.51803	0.46773	0.045
Mof_H 	H 	0.63027	0.64873	0.33803	0.038
Mof_H 	H 	0.58167	0.54593	0.33743	0.073
Mof_C 	C 	0.61927	0.59693	0.42703	-0.125
Mof_H 	H 	0.67477	0.59773	0.42493	0.061
Mof_H 	H 	0.62927	0.64973	0.44853	0.056
Mof_H 	H 	0.53507	0.54543	0.49563	0.053
Mof_H 	H 	0.50717	0.48943	0.43503	0.096
Mof_N 	N 	0.90073	0.43197	0.22697	-0.101
Mof_N 	N 	0.90973	0.50337	0.19507	-0.047
Mof_N 	N 	0.84193	0.48697	0.16027	-0.056
Mof_N 	N 	0.78343	0.40327	0.16977	-0.14
Mof_C 	C 	0.82023	0.37237	0.21147	0.103
Mof_H 	H 	0.79173	0.31547	0.22737	0.004
Mof_N 	N 	0.10463	0.48467	0.05407	-0.109
Mof_N 	N 	0.10523	0.56067	0.05377	-0.043
Mof_N 	N 	0.17193	0.62307	0.02317	-0.057
Mof_N 	N 	0.21803	0.58807	0.00267	-0.139
Mof_C 	C 	0.17593	0.50457	0.02327	0.115
Mof_H 	H 	0.19583	0.46527	0.01607	0.003
Mof_N 	N 	0.10083	0.87087	0.65757	-0.101
Mof_N 	N 	0.16873	0.92667	0.69257	-0.033
Mof_N 	N 	0.15203	0.97497	0.72967	-0.053
Mof_N 	N 	0.06993	0.95297	0.71777	-0.135
Mof_C 	C 	0.04033	0.88967	0.67447	0.08
Mof_H 	H 	0.98363	0.86197	0.65817	0.022
Mof_N 	N 	0.14713	0.70097	0.82927	-0.11
Mof_N 	N 	0.21503	0.77867	0.83357	-0.032
Mof_N 	N 	0.28143	0.78347	0.86627	-0.058
Mof_N 	N 	0.25423	0.70347	0.88517	-0.14
Mof_C 	C 	0.17153	0.65407	0.86337	0.105
Mof_H 	H 	0.13613	0.59427	0.87147	0.002
Mof_C 	C 	0.99013	0.58887	0.19697	-0.06
Mof_H 	H 	0.00863	0.60517	0.24067	0.017
Mof_H 	H 	0.97943	0.63317	0.17857	0.086
Mof_C 	C 	0.06233	0.58377	0.15947	-0.047
Mof_H 	H 	0.06703	0.53397	0.17407	0.047
Mof_H 	H 	0.11823	0.63647	0.16667	0.047
Mof_C 	C 	0.04043	0.57387	0.08777	-0.132
Mof_H 	H 	0.98223	0.52427	0.08087	0.056
Mof_H 	H 	0.04143	0.62617	0.07217	0.093
Mof_H 	H 	0.37083	0.24927	0.88157	0.084
Mof_H 	H 	0.31463	0.29527	0.89047	0.036
Mof_C 	C 	0.34733	0.29267	0.79697	-0.117
Mof_H 	H 	0.29743	0.29347	0.77827	0.058
Mof_H 	H 	0.39533	0.35257	0.79927	0.056
Mof_H 	H 	0.34483	0.18527	0.77737	0.099
Mof_H 	H 	0.33453	0.23127	0.71927	0.053
Mof_C 	C 	0.25383	0.92977	0.69337	-0.177
Mof_H 	H 	0.29773	0.98357	0.71337	0.097
Mof_H 	H 	0.27253	0.92837	0.65027	0.048
Mof_C 	C 	0.24423	0.85197	0.72977	0.018
Mof_H 	H 	0.19863	0.79877	0.71007	0.022
Mof_H 	H 	0.29873	0.85097	0.72687	0.026
Mof_C 	C 	0.22203	0.85197	0.79817	-0.201
Mof_H 	H 	0.26683	0.90587	0.81757	0.105
Mof_H 	H 	0.16673	0.85137	0.80107	0.044
Mof_H 	H 	0.29693	0.98207	0.67137	0.04
Mof_H 	H 	0.24833	0.87927	0.67077	0.072
Mof_C 	C 	0.28593	0.93027	0.76037	-0.135
Mof_H 	H 	0.34143	0.93107	0.75827	0.065
Mof_H 	H 	0.29593	0.98307	0.78187	0.062
Mof_H 	H 	0.20173	0.87877	0.82897	0.053
Mof_H 	H 	0.17383	0.82277	0.76837	0.094
Mof_N 	N 	0.2347	0.8021	0.5603	-0.103
Mof_N 	N 	0.1633	0.7397	0.5284	-0.039
Mof_N 	N 	0.1797	0.6883	0.4936	-0.058
Mof_N 	N 	0.2634	0.7135	0.5031	-0.14
Mof_C 	C 	0.2943	0.7812	0.5448	0.102
Mof_H 	H 	0.3512	0.8096	0.5607	0.005
Mof_N 	N 	0.182	0.9533	0.3874	-0.096
Mof_N 	N 	0.106	0.8779	0.3871	-0.04
Mof_N 	N 	0.0436	0.8822	0.3565	-0.059
Mof_N 	N 	0.0786	0.9633	0.336	-0.127
Mof_C 	C 	0.1621	0.0047	0.3566	0.085
Mof_H 	H 	0.2014	0.0639	0.3494	0.011
Mof_N 	N 	0.7958	0.5633	0.9909	-0.111
Mof_N 	N 	0.74	0.5754	0.0259	-0.034
Mof_N 	N 	0.6917	0.5104	0.063	-0.056
Mof_N 	N 	0.7137	0.4503	0.0511	-0.146
Mof_C 	C 	0.777	0.484	0.0078	0.121
Mof_H 	H 	0.8047	0.455	0.9915	-0.006
Mof_N 	N 	0.9657	0.7795	0.1626	-0.095
Mof_N 	N 	0.888	0.7697	0.1669	-0.032
Mof_N 	N 	0.8832	0.8313	0.1996	-0.056
Mof_N 	N 	0.9632	0.8841	0.2185	-0.123
Mof_C 	C 	0.0126	0.8508	0.1967	0.08
Mof_H 	H 	0.0724	0.8752	0.2048	0.015
Mof_C 	C 	0.0778	0.7346	0.5303	-0.144
Mof_H 	H 	0.0615	0.7368	0.574	0.041
Mof_H 	H 	0.0335	0.6796	0.5119	0.094
Mof_C 	C 	0.0829	0.8119	0.4928	-0.041
Mof_H 	H 	0.1327	0.8664	0.5074	0.047
Mof_H 	H 	0.0302	0.8151	0.5	0.041
Mof_C 	C 	0.0928	0.7999	0.4211	-0.156
Mof_H 	H 	0.1424	0.7913	0.4142	0.033
Mof_H 	H 	0.0405	0.7486	0.4055	0.089
Mof_H 	H 	0.4174	0.4549	0.2149	0.085
Mof_H 	H 	0.3714	0.3527	0.2238	0.037
Mof_C 	C 	0.374	0.388	0.1303	-0.115
Mof_H 	H 	0.3732	0.3373	0.1116	0.058
Mof_H 	H 	0.3141	0.3761	0.1326	0.055
Mof_H 	H 	0.4814	0.4929	0.1107	0.101
Mof_H 	H 	0.4354	0.4366	0.0526	0.056
Mof_C 	C 	0.7369	0.6574	0.0267	-0.162
Mof_H 	H 	0.6831	0.6475	0.0467	0.088
Mof_H 	H 	0.7383	0.6775	0.9836	0.036
Mof_C 	C 	0.8147	0.7256	0.0631	-0.011
Mof_H 	H 	0.8679	0.7332	0.0434	0.034
Mof_H 	H 	0.8157	0.7811	0.0602	0.037
Mof_C 	C 	0.8147	0.7034	0.1315	-0.192
Mof_H 	H 	0.7608	0.6943	0.1509	0.1
Mof_H 	H 	0.8153	0.6487	0.1344	0.042
Mof_H 	H 	0.6846	0.6482	0.0047	0.042
Mof_H 	H 	0.7874	0.7024	0.0041	0.078
Mof_C 	C 	0.7364	0.689	0.0937	-0.117
Mof_H 	H 	0.7356	0.7437	0.0916	0.059
Mof_H 	H 	0.6836	0.6462	0.1152	0.054
Mof_H 	H 	0.7879	0.6563	0.1623	0.053
Mof_H 	H 	0.8439	0.6844	0.1017	0.096
Mof_N 	N 	0.90137	0.13543	0.89363	-0.108
Mof_N 	N 	0.82997	0.07303	0.86173	-0.038
Mof_N 	N 	0.84637	0.02163	0.82693	-0.059
Mof_N 	N 	0.93007	0.04683	0.83643	-0.14
Mof_C 	C 	0.96097	0.11453	0.87813	0.134
Mof_H 	H 	0.01787	0.14293	0.89403	-0.019
Mof_N 	N 	0.84867	0.28663	0.72073	-0.104
Mof_N 	N 	0.77267	0.21123	0.72043	-0.037
Mof_N 	N 	0.71027	0.21553	0.68983	-0.058
Mof_N 	N 	0.74527	0.29663	0.66933	-0.141
Mof_C 	C 	0.82877	0.33803	0.68993	0.115
Mof_H 	H 	0.86807	0.39723	0.68273	0.006
Mof_N 	N 	0.46247	0.89663	0.32423	-0.103
Mof_N 	N 	0.40667	0.90873	0.35923	-0.042
Mof_N 	N 	0.35837	0.84373	0.39633	-0.056
Mof_N 	N 	0.38037	0.78363	0.38443	-0.144
Mof_C 	C 	0.44367	0.81733	0.34113	0.107
Mof_H 	H 	0.47137	0.78833	0.32483	0.001
Mof_N 	N 	0.63237	0.11283	0.49593	-0.107
Mof_N 	N 	0.55467	0.10303	0.50023	-0.034
Mof_N 	N 	0.54987	0.16463	0.53293	-0.059
Mof_N 	N 	0.62987	0.21743	0.55183	-0.14
Mof_C 	C 	0.67927	0.18413	0.53003	0.106
Mof_H 	H 	0.73907	0.20853	0.53813	0.006
Mof_C 	C 	0.74447	0.06793	0.86363	-0.165
Mof_H 	H 	0.72817	0.07013	0.90733	0.042
Mof_H 	H 	0.70017	0.01293	0.84523	0.092
Mof_C 	C 	0.74957	0.14523	0.82613	-0.058
Mof_H 	H 	0.79937	0.19973	0.84073	0.052
Mof_H 	H 	0.69687	0.14843	0.83333	0.049
Mof_C 	C 	0.75947	0.13323	0.75443	-0.175
Mof_H 	H 	0.80907	0.12463	0.74753	0.034
Mof_H 	H 	0.70717	0.08193	0.73883	0.09
Mof_H 	H 	0.08407	0.78823	0.54823	0.075
Mof_H 	H 	0.03807	0.68603	0.55713	0.027
Mof_C 	C 	0.04067	0.72133	0.46363	-0.164
Mof_H 	H 	0.03987	0.67063	0.44493	0.069
Mof_H 	H 	0.98077	0.70943	0.46593	0.082
Mof_H 	H 	0.14807	0.82623	0.44403	0.094
Mof_H 	H 	0.10207	0.76993	0.38593	0.049
Mof_C 	C 	0.40357	0.99073	0.36003	-0.094
Mof_H 	H 	0.34977	0.98083	0.38003	0.086
Mof_H 	H 	0.40497	0.01083	0.31693	0.028
Mof_C 	C 	0.48137	0.05893	0.39643	0.042
Mof_H 	H 	0.53457	0.06653	0.37673	0.015
Mof_H 	H 	0.48237	0.11443	0.39353	0.019
Mof_C 	C 	0.48137	0.03673	0.46483	-0.198
Mof_H 	H 	0.42747	0.02763	0.48423	0.107
Mof_H 	H 	0.48197	0.98203	0.46773	0.056
Mof_H 	H 	0.35127	0.98153	0.33803	0.028
Mof_H 	H 	0.45407	0.03573	0.33743	0.046
Mof_C 	C 	0.40307	0.02233	0.42703	-0.219
Mof_H 	H 	0.40227	0.07703	0.42493	0.086
Mof_H 	H 	0.35027	0.97953	0.44853	0.091
Mof_H 	H 	0.45457	0.98963	0.49563	0.054
Mof_H 	H 	0.51057	0.01773	0.43503	0.083
Mof_N 	N 	0.56803	0.46877	0.22697	-0.104
Mof_N 	N 	0.49663	0.40637	0.19507	-0.036
Mof_N 	N 	0.51303	0.35497	0.16027	-0.058
Mof_N 	N 	0.59673	0.38017	0.16977	-0.14
Mof_C 	C 	0.62763	0.44787	0.21147	0.102
Mof_H 	H 	0.68453	0.47627	0.22737	0.004
Mof_N 	N 	0.51533	0.61997	0.05407	-0.107
Mof_N 	N 	0.43933	0.54457	0.05377	-0.037
Mof_N 	N 	0.37693	0.54887	0.02317	-0.057
Mof_N 	N 	0.41193	0.62997	0.00267	-0.139
Mof_C 	C 	0.49543	0.67137	0.02327	0.115
Mof_H 	H 	0.53473	0.73057	0.01607	0.005
Mof_N 	N 	0.12913	0.22997	0.65757	-0.106
Mof_N 	N 	0.07333	0.24207	0.69257	-0.036
Mof_N 	N 	0.02503	0.17707	0.72967	-0.06
Mof_N 	N 	0.04703	0.11697	0.71777	-0.145
Mof_C 	C 	0.11033	0.15067	0.67447	0.105
Mof_H 	H 	0.13803	0.12167	0.65817	-0.001
Mof_N 	N 	0.29903	0.44617	0.82927	-0.106
Mof_N 	N 	0.22133	0.43637	0.83357	-0.033
Mof_N 	N 	0.21653	0.49797	0.86627	-0.059
Mof_N 	N 	0.29653	0.55077	0.88517	-0.14
Mof_C 	C 	0.34593	0.51747	0.86337	0.106
Mof_H 	H 	0.40573	0.54187	0.87147	0.005
Mof_C 	C 	0.41113	0.40127	0.19697	-0.17
Mof_H 	H 	0.39483	0.40347	0.24067	0.044
Mof_H 	H 	0.36683	0.34627	0.17857	0.096
Mof_C 	C 	0.41623	0.47857	0.15947	-0.052
Mof_H 	H 	0.46603	0.53307	0.17407	0.049
Mof_H 	H 	0.36353	0.48177	0.16667	0.047
Mof_C 	C 	0.42613	0.46657	0.08777	-0.176
Mof_H 	H 	0.47573	0.45797	0.08087	0.034
Mof_H 	H 	0.37383	0.41527	0.07217	0.092
Mof_H 	H 	0.75073	0.12157	0.88157	0.084
Mof_H 	H 	0.70473	0.01937	0.89047	0.034
Mof_C 	C 	0.70733	0.05467	0.79697	-0.108
Mof_H 	H 	0.70653	0.00397	0.77827	0.053
Mof_H 	H 	0.64743	0.04277	0.79927	0.051
Mof_H 	H 	0.81473	0.15957	0.77737	0.102
Mof_H 	H 	0.76873	0.10327	0.71927	0.054
Mof_C 	C 	0.07023	0.32407	0.69337	-0.167
Mof_H 	H 	0.01643	0.31417	0.71337	0.087
Mof_H 	H 	0.07163	0.34417	0.65027	0.043
Mof_C 	C 	0.14803	0.39227	0.72977	-0.006
Mof_H 	H 	0.20123	0.39987	0.71007	0.03
Mof_H 	H 	0.14903	0.44777	0.72687	0.033
Mof_C 	C 	0.14803	0.37007	0.79817	-0.196
Mof_H 	H 	0.09413	0.36097	0.81757	0.098
Mof_H 	H 	0.14863	0.31537	0.80107	0.043
Mof_H 	H 	0.01793	0.31487	0.67137	0.035
Mof_H 	H 	0.12073	0.36907	0.67077	0.073
Mof_C 	C 	0.06973	0.35567	0.76037	-0.111
Mof_H 	H 	0.06893	0.41037	0.75827	0.054
Mof_H 	H 	0.01693	0.31287	0.78187	0.048
Mof_H 	H 	0.12123	0.32297	0.82897	0.052
Mof_H 	H 	0.17723	0.35107	0.76837	0.097
Mof_Fe	Fe	-0	0	0.27688	0.635
Mof_Fe	Fe	0.66667	0.33333	0.61021	0.67
Mof_Fe	Fe	0.33333	0.66667	0.94355	0.663
Mof_Fe	Fe	0.33333	0.66667	0.44315	0.665
Mof_Fe	Fe	8.93324e-33	-1.78665e-32	0.77648	0.629
Mof_Fe	Fe	0.66667	0.33333	0.10982	0.666
_end
