# CIF file generated by openbabel 3.1.0, see https://openbabel.org
data_I
_chemical_name_common 'image0'
_cell_length_a 5.682
_cell_length_b 13.702
_cell_length_c 28.274
_cell_angle_alpha 90
_cell_angle_beta 93.207
_cell_angle_gamma 90
_space_group_name_H-M_alt 'P 1'
_space_group_name_Hall 'P 1'
loop_
    _symmetry_equiv_pos_as_xyz
    x,y,z
loop_
    _atom_site_label
    _atom_site_type_symbol
    _atom_site_fract_x
    _atom_site_fract_y
    _atom_site_fract_z
    _atom_site_occupancy
    Cu1      Cu       0.04572    0.08696    0.03169    1.000
    O1       O        0.18380    0.95790    0.01809    1.000
    H1       H        0.19400    0.92100    0.04230    1.000
    O2       O        0.25690    0.11220    0.08690    1.000
    O3       O        0.59170    0.03890    0.06564    1.000
    O4       O        0.29480    0.80840    0.47944    1.000
    O5       O        0.59670    0.71340    0.45938    1.000
    N1       N        0.80040    0.14830    0.22905    1.000
    N2       N        0.80180    0.02990    0.39078    1.000
    C1       C        0.46690    0.08350    0.09393    1.000
    C2       C        0.58490    0.10610    0.14250    1.000
    C3       C        0.48610    0.17410    0.17203    1.000
    H2       H        0.34660    0.20580    0.16260    1.000
    C4       C        0.59830    0.19370    0.21554    1.000
    H3       H        0.53320    0.23870    0.23570    1.000
    C5       C        0.89700    0.08210    0.20102    1.000
    H4       H        0.03500    0.05030    0.21140    1.000
    C6       C        0.79300    0.06080    0.15688    1.000
    H5       H        0.86280    0.01640    0.13710    1.000
    C7       C        0.91080    0.16690    0.27741    1.000
    H6       H        0.88530    0.23410    0.28660    1.000
    H7       H        0.07920    0.15510    0.27780    1.000
    C8       C        0.79750    0.09820    0.31152    1.000
    H8       H        0.62970    0.11160    0.31120    1.000
    H9       H        0.81760    0.03150    0.30100    1.000
    C9       C        0.90280    0.10860    0.36167    1.000
    H10      H        0.07300    0.10250    0.36210    1.000
    H11      H        0.86460    0.17210    0.37430    1.000
    C10      C        0.61080    0.04610    0.41580    1.000
    H12      H        0.54880    0.10880    0.41720    1.000
    C11      C        0.50640    0.97190    0.43922    1.000
    H13      H        0.37380    0.98380    0.45620    1.000
    C12      C        0.60090    0.87880    0.43732    1.000
    C13      C        0.80120    0.86290    0.41215    1.000
    H14      H        0.86850    0.80110    0.41100    1.000
    C14      C        0.89660    0.93980    0.38924    1.000
    H15      H        0.02990    0.92990    0.37220    1.000
    C15      C        0.48510    0.79390    0.46087    1.000
    Cu2      Cu       0.45428    0.58696    0.46831    1.000
    O6       O        0.31620    0.45790    0.48191    1.000
    H16      H        0.30600    0.42100    0.45770    1.000
    O7       O        0.24310    0.61220    0.41310    1.000
    O8       O        0.90830    0.53890    0.43436    1.000
    O9       O        0.20520    0.30840    0.02056    1.000
    O10      O        0.90330    0.21340    0.04062    1.000
    N3       N        0.69960    0.64830    0.27095    1.000
    N4       N        0.69820    0.52990    0.10922    1.000
    C16      C        0.03310    0.58350    0.40607    1.000
    C17      C        0.91510    0.60610    0.35750    1.000
    C18      C        0.01390    0.67410    0.32797    1.000
    H17      H        0.15340    0.70580    0.33740    1.000
    C19      C        0.90170    0.69370    0.28446    1.000
    H18      H        0.96680    0.73870    0.26430    1.000
    C20      C        0.60300    0.58210    0.29898    1.000
    H19      H        0.46500    0.55030    0.28860    1.000
    C21      C        0.70700    0.56080    0.34312    1.000
    H20      H        0.63720    0.51640    0.36290    1.000
    C22      C        0.58920    0.66690    0.22259    1.000
    H21      H        0.61470    0.73410    0.21340    1.000
    H22      H        0.42080    0.65510    0.22220    1.000
    C23      C        0.70250    0.59820    0.18848    1.000
    H23      H        0.87030    0.61160    0.18880    1.000
    H24      H        0.68240    0.53150    0.19900    1.000
    C24      C        0.59720    0.60860    0.13833    1.000
    H25      H        0.42700    0.60250    0.13790    1.000
    H26      H        0.63540    0.67210    0.12570    1.000
    C25      C        0.88920    0.54610    0.08420    1.000
    H27      H        0.95120    0.60880    0.08280    1.000
    C26      C        0.99360    0.47190    0.06078    1.000
    H28      H        0.12620    0.48380    0.04380    1.000
    C27      C        0.89910    0.37880    0.06268    1.000
    C28      C        0.69880    0.36290    0.08785    1.000
    H29      H        0.63150    0.30110    0.08900    1.000
    C29      C        0.60340    0.43980    0.11076    1.000
    H30      H        0.47010    0.42990    0.12780    1.000
    C30      C        0.01490    0.29390    0.03913    1.000
    Cu3      Cu       0.95428    0.91304    0.96831    1.000
    O11      O        0.81620    0.04210    0.98191    1.000
    H31      H        0.80600    0.07900    0.95770    1.000
    O12      O        0.74310    0.88780    0.91310    1.000
    O13      O        0.40830    0.96110    0.93436    1.000
    O14      O        0.70520    0.19160    0.52056    1.000
    O15      O        0.40330    0.28660    0.54062    1.000
    N5       N        0.19960    0.85170    0.77095    1.000
    N6       N        0.19820    0.97010    0.60922    1.000
    C31      C        0.53310    0.91650    0.90607    1.000
    C32      C        0.41510    0.89390    0.85750    1.000
    C33      C        0.51390    0.82590    0.82797    1.000
    H32      H        0.65340    0.79420    0.83740    1.000
    C34      C        0.40170    0.80630    0.78446    1.000
    H33      H        0.46680    0.76130    0.76430    1.000
    C35      C        0.10300    0.91790    0.79898    1.000
    H34      H        0.96500    0.94970    0.78860    1.000
    C36      C        0.20700    0.93920    0.84312    1.000
    H35      H        0.13720    0.98360    0.86290    1.000
    C37      C        0.08920    0.83310    0.72259    1.000
    H36      H        0.11470    0.76590    0.71340    1.000
    H37      H        0.92080    0.84490    0.72220    1.000
    C38      C        0.20250    0.90180    0.68848    1.000
    H38      H        0.37030    0.88840    0.68880    1.000
    H39      H        0.18240    0.96850    0.69900    1.000
    C39      C        0.09720    0.89140    0.63833    1.000
    H40      H        0.92700    0.89750    0.63790    1.000
    H41      H        0.13540    0.82790    0.62570    1.000
    C40      C        0.38920    0.95390    0.58420    1.000
    H42      H        0.45120    0.89120    0.58280    1.000
    C41      C        0.49360    0.02810    0.56078    1.000
    H43      H        0.62620    0.01620    0.54380    1.000
    C42      C        0.39910    0.12120    0.56268    1.000
    C43      C        0.19880    0.13710    0.58785    1.000
    H44      H        0.13150    0.19890    0.58900    1.000
    C44      C        0.10340    0.06020    0.61076    1.000
    H45      H        0.97010    0.07010    0.62780    1.000
    C45      C        0.51490    0.20610    0.53913    1.000
    Cu4      Cu       0.54572    0.41304    0.53169    1.000
    O16      O        0.68380    0.54210    0.51809    1.000
    H46      H        0.69400    0.57900    0.54230    1.000
    O17      O        0.75690    0.38780    0.58690    1.000
    O18      O        0.09170    0.46110    0.56564    1.000
    O19      O        0.79480    0.69160    0.97944    1.000
    O20      O        0.09670    0.78660    0.95938    1.000
    N7       N        0.30040    0.35170    0.72905    1.000
    N8       N        0.30180    0.47010    0.89078    1.000
    C46      C        0.96690    0.41650    0.59393    1.000
    C47      C        0.08490    0.39390    0.64250    1.000
    C48      C        0.98610    0.32590    0.67203    1.000
    H47      H        0.84660    0.29420    0.66260    1.000
    C49      C        0.09830    0.30630    0.71554    1.000
    H48      H        0.03320    0.26130    0.73570    1.000
    C50      C        0.39700    0.41790    0.70102    1.000
    H49      H        0.53500    0.44970    0.71140    1.000
    C51      C        0.29300    0.43920    0.65688    1.000
    H50      H        0.36280    0.48360    0.63710    1.000
    C52      C        0.41080    0.33310    0.77741    1.000
    H51      H        0.38530    0.26590    0.78660    1.000
    H52      H        0.57920    0.34490    0.77780    1.000
    C53      C        0.29750    0.40180    0.81152    1.000
    H53      H        0.12970    0.38840    0.81120    1.000
    H54      H        0.31760    0.46850    0.80100    1.000
    C54      C        0.40280    0.39140    0.86167    1.000
    H55      H        0.57300    0.39750    0.86210    1.000
    H56      H        0.36460    0.32790    0.87430    1.000
    C55      C        0.11080    0.45390    0.91580    1.000
    H57      H        0.04880    0.39120    0.91720    1.000
    C56      C        0.00640    0.52810    0.93922    1.000
    H58      H        0.87380    0.51620    0.95620    1.000
    C57      C        0.10090    0.62120    0.93732    1.000
    C58      C        0.30120    0.63710    0.91215    1.000
    H59      H        0.36850    0.69890    0.91100    1.000
    C59      C        0.39660    0.56020    0.88924    1.000
    H60      H        0.52990    0.57010    0.87220    1.000
    C60      C        0.98510    0.70610    0.96087    1.000
    Cu5      Cu       0.50000    0.00000    0.00000    1.000
    Cu6      Cu       0.00000    0.50000    0.50000    1.000
