data_functionalizedCrystal
_audit_creation_method	'EQeq! by Chris Wilmer'
_symmetry_space_group_name_H-M	'P1'
_symmetry_Int_Tables_number	1
_symmetry_cell_setting	triclinic
loop_
_symmetry_equiv_pos_as_xyz
  x,y,z
_cell_length_a	30.142
_cell_length_b	30.142
_cell_length_c	16.4696
_cell_angle_alpha	90
_cell_angle_beta	90
_cell_angle_gamma	90
loop_
_atom_site_label
_atom_site_type_symbol
_atom_site_fract_x
_atom_site_fract_y
_atom_site_fract_z
_atom_site_charge
Mof_In	In	0.47637	0.25719	0.38406	2.645
Mof_O 	O 	0.31324	0.46944	0.39779	-0.852
Mof_O 	O 	0.27085	0.47218	0.2905	-0.588
Mof_O 	O 	0.42909	0.29697	0.32285	-0.714
Mof_O 	O 	0.44016	0.36018	0.39265	-0.752
Mof_C 	C 	0.37763	0.35533	0.3056	-0.24
Mof_C 	C 	0.31646	0.3476	0.2124	-0.02
Mof_C 	C 	0.35499	0.33174	0.246	0.04
Mof_H 	H 	0.3665	0.3041	0.2281	0.021
Mof_C 	C 	0.25975	0.29098	0.1736	0.069
Mof_C 	C 	0.30302	0.33093	0.0671	0.091
Mof_C 	C 	0.29205	0.32227	0.1469	-0.126
Mof_C 	C 	0.32133	0.41151	0.2994	-0.217
Mof_C 	C 	0.36026	0.39538	0.3325	0.153
Mof_H 	H 	0.3751	0.4117	0.3737	-0.106
Mof_C 	C 	0.30121	0.4535	0.3302	0.478
Mof_C 	C 	0.29985	0.38829	0.2387	0.031
Mof_H 	H 	0.2737	0.4001	0.2148	0.028
Mof_C 	C 	0.41891	0.33689	0.3439	0.541
Mof_C 	C 	0.24839	0.28233	0.2568	-0.074
Mof_H 	H 	0.2609	0.2963	0.3033	0.051
Mof_C 	C 	0.33546	0.36339	0.0408	-0.186
Mof_H 	H 	0.3534	0.3814	0.075	0.073
Mof_O 	O 	0.5254	0.2115	0.432	-0.75
Mof_O 	O 	0.46367	0.20349	0.297	-0.545
Mof_O 	O 	0.41955	0.20144	0.4019	-0.494
Mof_C 	C 	0.43561	0.12096	0.2419	-0.073
Mof_H 	H 	0.4624	0.1327	0.2205	0.066
Mof_C 	C 	0.41329	0.14322	0.3047	-0.054
Mof_C 	C 	0.43263	0.18467	0.3372	0.327
Mof_H 	H 	0.447	0.2572	0.527	0.048
Mof_In	In	0.52363	0.74281	0.38406	2.644
Mof_O 	O 	0.68676	0.53056	0.39779	-0.852
Mof_O 	O 	0.72915	0.52782	0.2905	-0.588
Mof_O 	O 	0.57091	0.70303	0.32285	-0.714
Mof_O 	O 	0.55984	0.63982	0.39265	-0.752
Mof_C 	C 	0.62237	0.64467	0.3056	-0.241
Mof_C 	C 	0.68354	0.6524	0.2124	-0.02
Mof_C 	C 	0.64501	0.66826	0.246	0.04
Mof_H 	H 	0.6335	0.6959	0.2281	0.021
Mof_C 	C 	0.74025	0.70902	0.1736	0.069
Mof_C 	C 	0.69698	0.66907	0.0671	0.091
Mof_C 	C 	0.70795	0.67773	0.1469	-0.126
Mof_C 	C 	0.67867	0.58849	0.2994	-0.217
Mof_C 	C 	0.63974	0.60462	0.3325	0.153
Mof_H 	H 	0.6249	0.5883	0.3737	-0.106
Mof_C 	C 	0.69879	0.5465	0.3302	0.478
Mof_C 	C 	0.70015	0.61171	0.2387	0.031
Mof_H 	H 	0.7263	0.5999	0.2148	0.027
Mof_C 	C 	0.58109	0.66311	0.3439	0.541
Mof_C 	C 	0.75161	0.71767	0.2568	-0.074
Mof_H 	H 	0.7391	0.7037	0.3033	0.051
Mof_C 	C 	0.66454	0.63661	0.0408	-0.186
Mof_H 	H 	0.6466	0.6186	0.075	0.073
Mof_O 	O 	0.4746	0.7885	0.432	-0.751
Mof_O 	O 	0.53633	0.79651	0.297	-0.545
Mof_O 	O 	0.58045	0.79856	0.4019	-0.495
Mof_C 	C 	0.56439	0.87904	0.2419	-0.073
Mof_H 	H 	0.5376	0.8673	0.2205	0.066
Mof_C 	C 	0.58671	0.85678	0.3047	-0.055
Mof_C 	C 	0.56737	0.81533	0.3372	0.327
Mof_H 	H 	0.553	0.7428	0.527	0.048
Mof_In	In	0.74281	0.47637	0.38406	2.644
Mof_O 	O 	0.53056	0.31324	0.39779	-0.852
Mof_O 	O 	0.52782	0.27085	0.2905	-0.588
Mof_O 	O 	0.70303	0.42909	0.32285	-0.714
Mof_O 	O 	0.63982	0.44016	0.39265	-0.752
Mof_C 	C 	0.64467	0.37763	0.3056	-0.24
Mof_C 	C 	0.6524	0.31646	0.2124	-0.02
Mof_C 	C 	0.66826	0.35499	0.246	0.04
Mof_H 	H 	0.6959	0.3665	0.2281	0.021
Mof_C 	C 	0.70902	0.25975	0.1736	0.069
Mof_C 	C 	0.66907	0.30302	0.0671	0.091
Mof_C 	C 	0.67773	0.29205	0.1469	-0.126
Mof_C 	C 	0.58849	0.32133	0.2994	-0.217
Mof_C 	C 	0.60462	0.36026	0.3325	0.153
Mof_H 	H 	0.5883	0.3751	0.3737	-0.106
Mof_C 	C 	0.5465	0.30121	0.3302	0.478
Mof_C 	C 	0.61171	0.29985	0.2387	0.031
Mof_H 	H 	0.5999	0.2737	0.2148	0.028
Mof_C 	C 	0.66311	0.41891	0.3439	0.541
Mof_C 	C 	0.71767	0.24839	0.2568	-0.074
Mof_H 	H 	0.7037	0.2609	0.3033	0.051
Mof_C 	C 	0.63661	0.33546	0.0408	-0.186
Mof_H 	H 	0.6186	0.3534	0.075	0.073
Mof_O 	O 	0.7885	0.5254	0.432	-0.751
Mof_O 	O 	0.79651	0.46367	0.297	-0.545
Mof_O 	O 	0.79856	0.41955	0.4019	-0.495
Mof_C 	C 	0.87904	0.43561	0.2419	-0.073
Mof_H 	H 	0.8673	0.4624	0.2205	0.066
Mof_C 	C 	0.85678	0.41329	0.3047	-0.055
Mof_C 	C 	0.81533	0.43263	0.3372	0.327
Mof_H 	H 	0.7428	0.447	0.527	0.048
Mof_In	In	0.25719	0.52363	0.38406	2.644
Mof_O 	O 	0.46944	0.68676	0.39779	-0.852
Mof_O 	O 	0.47218	0.72915	0.2905	-0.588
Mof_O 	O 	0.29697	0.57091	0.32285	-0.714
Mof_O 	O 	0.36018	0.55984	0.39265	-0.752
Mof_C 	C 	0.35533	0.62237	0.3056	-0.241
Mof_C 	C 	0.3476	0.68354	0.2124	-0.02
Mof_C 	C 	0.33174	0.64501	0.246	0.04
Mof_H 	H 	0.3041	0.6335	0.2281	0.021
Mof_C 	C 	0.29098	0.74025	0.1736	0.069
Mof_C 	C 	0.33093	0.69698	0.0671	0.091
Mof_C 	C 	0.32227	0.70795	0.1469	-0.126
Mof_C 	C 	0.41151	0.67867	0.2994	-0.217
Mof_C 	C 	0.39538	0.63974	0.3325	0.153
Mof_H 	H 	0.4117	0.6249	0.3737	-0.106
Mof_C 	C 	0.4535	0.69879	0.3302	0.478
Mof_C 	C 	0.38829	0.70015	0.2387	0.031
Mof_H 	H 	0.4001	0.7263	0.2148	0.027
Mof_C 	C 	0.33689	0.58109	0.3439	0.541
Mof_C 	C 	0.28233	0.75161	0.2568	-0.074
Mof_H 	H 	0.2963	0.7391	0.3033	0.051
Mof_C 	C 	0.36339	0.66454	0.0408	-0.186
Mof_H 	H 	0.3814	0.6466	0.075	0.073
Mof_O 	O 	0.2115	0.4746	0.432	-0.75
Mof_O 	O 	0.20349	0.53633	0.297	-0.545
Mof_O 	O 	0.20144	0.58045	0.4019	-0.494
Mof_C 	C 	0.12096	0.56439	0.2419	-0.073
Mof_H 	H 	0.1327	0.5376	0.2205	0.066
Mof_C 	C 	0.14322	0.58671	0.3047	-0.054
Mof_C 	C 	0.18467	0.56737	0.3372	0.327
Mof_H 	H 	0.2572	0.553	0.527	0.048
Mof_In	In	0.02363	0.75719	0.61594	2.662
Mof_O 	O 	0.18676	0.96944	0.60221	-0.857
Mof_O 	O 	0.22915	0.97218	0.7095	-0.584
Mof_O 	O 	0.07091	0.79697	0.67715	-0.711
Mof_O 	O 	0.05984	0.86018	0.60735	-0.751
Mof_C 	C 	0.12237	0.85533	0.6944	-0.237
Mof_C 	C 	0.18354	0.8476	0.7876	-0.021
Mof_C 	C 	0.14501	0.83174	0.754	0.043
Mof_H 	H 	0.1335	0.8041	0.7719	0.028
Mof_C 	C 	0.24025	0.79098	0.8264	0.075
Mof_C 	C 	0.19698	0.83093	0.9329	0.09
Mof_C 	C 	0.20795	0.82227	0.8531	-0.11
Mof_C 	C 	0.17867	0.91151	0.7006	-0.213
Mof_C 	C 	0.13974	0.89538	0.6675	0.155
Mof_H 	H 	0.1249	0.9117	0.6263	-0.106
Mof_C 	C 	0.19879	0.9535	0.6698	0.48
Mof_C 	C 	0.20015	0.88829	0.7613	0.034
Mof_H 	H 	0.2263	0.9001	0.7852	0.035
Mof_C 	C 	0.08109	0.83689	0.6561	0.543
Mof_C 	C 	0.25161	0.78233	0.7432	-0.072
Mof_H 	H 	0.2391	0.7963	0.6967	0.051
Mof_C 	C 	0.16454	0.86339	0.9592	0.028
Mof_H 	H 	0.1466	0.8814	0.925	0.026
Mof_O 	O 	0.9746	0.7115	0.568	-0.755
Mof_O 	O 	0.03633	0.70349	0.703	-0.537
Mof_O 	O 	0.08045	0.70144	0.5981	-0.494
Mof_C 	C 	0.06439	0.62096	0.7581	-0.072
Mof_H 	H 	0.0376	0.6327	0.7795	0.075
Mof_C 	C 	0.08671	0.64322	0.6953	-0.049
Mof_C 	C 	0.06737	0.68467	0.6628	0.326
Mof_H 	H 	0.053	0.7572	0.473	0.048
Mof_In	In	0.97637	0.24281	0.61594	2.637
Mof_O 	O 	0.81324	0.03056	0.60221	-0.846
Mof_O 	O 	0.77085	0.02782	0.7095	-0.576
Mof_O 	O 	0.92909	0.20303	0.67715	-0.708
Mof_O 	O 	0.94016	0.13982	0.60735	-0.747
Mof_C 	C 	0.87763	0.14467	0.6944	-0.234
Mof_C 	C 	0.81646	0.1524	0.7876	-0.019
Mof_C 	C 	0.85499	0.16826	0.754	0.041
Mof_H 	H 	0.8665	0.1959	0.7719	0.028
Mof_C 	C 	0.75975	0.20902	0.8264	0.076
Mof_C 	C 	0.80302	0.16907	0.9329	0.091
Mof_C 	C 	0.79205	0.17773	0.8531	-0.11
Mof_C 	C 	0.82133	0.08849	0.7006	-0.21
Mof_C 	C 	0.86026	0.10462	0.6675	0.152
Mof_H 	H 	0.8751	0.0883	0.6263	-0.103
Mof_C 	C 	0.80121	0.0465	0.6698	0.477
Mof_C 	C 	0.79985	0.11171	0.7613	0.032
Mof_H 	H 	0.7737	0.0999	0.7852	0.036
Mof_C 	C 	0.91891	0.16311	0.6561	0.541
Mof_C 	C 	0.74839	0.21767	0.7432	-0.072
Mof_H 	H 	0.7609	0.2037	0.6967	0.052
Mof_C 	C 	0.83546	0.13661	0.9592	0.028
Mof_H 	H 	0.8534	0.1186	0.925	0.026
Mof_O 	O 	0.0254	0.2885	0.568	-0.745
Mof_O 	O 	0.96367	0.29651	0.703	-0.537
Mof_O 	O 	0.91955	0.29856	0.5981	-0.493
Mof_C 	C 	0.93561	0.37904	0.7581	-0.072
Mof_H 	H 	0.9624	0.3673	0.7795	0.073
Mof_C 	C 	0.91329	0.35678	0.6953	-0.05
Mof_C 	C 	0.93263	0.31533	0.6628	0.326
Mof_H 	H 	0.947	0.2428	0.473	0.049
Mof_In	In	0.75719	0.97637	0.61594	2.637
Mof_O 	O 	0.96944	0.81324	0.60221	-0.857
Mof_O 	O 	0.97218	0.77085	0.7095	-0.584
Mof_O 	O 	0.79697	0.92909	0.67715	-0.708
Mof_O 	O 	0.86018	0.94016	0.60735	-0.748
Mof_C 	C 	0.85533	0.87763	0.6944	-0.236
Mof_C 	C 	0.8476	0.81646	0.7876	-0.021
Mof_C 	C 	0.83174	0.85499	0.754	0.042
Mof_H 	H 	0.8041	0.8665	0.7719	0.027
Mof_C 	C 	0.79098	0.75975	0.8264	0.075
Mof_C 	C 	0.83093	0.80302	0.9329	0.09
Mof_C 	C 	0.82227	0.79205	0.8531	-0.11
Mof_C 	C 	0.91151	0.82133	0.7006	-0.213
Mof_C 	C 	0.89538	0.86026	0.6675	0.154
Mof_H 	H 	0.9117	0.8751	0.6263	-0.106
Mof_C 	C 	0.9535	0.80121	0.6698	0.48
Mof_C 	C 	0.88829	0.79985	0.7613	0.033
Mof_H 	H 	0.9001	0.7737	0.7852	0.035
Mof_C 	C 	0.83689	0.91891	0.6561	0.541
Mof_C 	C 	0.78233	0.74839	0.7432	-0.072
Mof_H 	H 	0.7963	0.7609	0.6967	0.052
Mof_C 	C 	0.86339	0.83546	0.9592	0.028
Mof_H 	H 	0.8814	0.8534	0.925	0.025
Mof_O 	O 	0.7115	0.0254	0.568	-0.745
Mof_O 	O 	0.70349	0.96367	0.703	-0.538
Mof_O 	O 	0.70144	0.91955	0.5981	-0.493
Mof_C 	C 	0.62096	0.93561	0.7581	-0.072
Mof_H 	H 	0.6327	0.9624	0.7795	0.073
Mof_C 	C 	0.64322	0.91329	0.6953	-0.05
Mof_C 	C 	0.68467	0.93263	0.6628	0.326
Mof_H 	H 	0.7572	0.947	0.473	0.049
Mof_In	In	0.24281	0.02363	0.61594	2.662
Mof_O 	O 	0.03056	0.18676	0.60221	-0.846
Mof_O 	O 	0.02782	0.22915	0.7095	-0.576
Mof_O 	O 	0.20303	0.07091	0.67715	-0.711
Mof_O 	O 	0.13982	0.05984	0.60735	-0.75
Mof_C 	C 	0.14467	0.12237	0.6944	-0.235
Mof_C 	C 	0.1524	0.18354	0.7876	-0.02
Mof_C 	C 	0.16826	0.14501	0.754	0.041
Mof_H 	H 	0.1959	0.1335	0.7719	0.028
Mof_C 	C 	0.20902	0.24025	0.8264	0.075
Mof_C 	C 	0.16907	0.19698	0.9329	0.091
Mof_C 	C 	0.17773	0.20795	0.8531	-0.11
Mof_C 	C 	0.08849	0.17867	0.7006	-0.21
Mof_C 	C 	0.10462	0.13974	0.6675	0.153
Mof_H 	H 	0.0883	0.1249	0.6263	-0.103
Mof_C 	C 	0.0465	0.19879	0.6698	0.477
Mof_C 	C 	0.11171	0.20015	0.7613	0.032
Mof_H 	H 	0.0999	0.2263	0.7852	0.036
Mof_C 	C 	0.16311	0.08109	0.6561	0.543
Mof_C 	C 	0.21767	0.25161	0.7432	-0.072
Mof_H 	H 	0.2037	0.2391	0.6967	0.052
Mof_C 	C 	0.13661	0.16454	0.9592	0.029
Mof_H 	H 	0.1186	0.1466	0.925	0.027
Mof_O 	O 	0.2885	0.9746	0.568	-0.755
Mof_O 	O 	0.29651	0.03633	0.703	-0.537
Mof_O 	O 	0.29856	0.08045	0.5981	-0.494
Mof_C 	C 	0.37904	0.06439	0.7581	-0.072
Mof_H 	H 	0.3673	0.0376	0.7795	0.075
Mof_C 	C 	0.35678	0.08671	0.6953	-0.049
Mof_C 	C 	0.31533	0.06737	0.6628	0.326
Mof_H 	H 	0.2428	0.053	0.473	0.048
Mof_In	In	0.52363	0.74281	0.61594	2.649
Mof_O 	O 	0.68676	0.53056	0.60221	-0.851
Mof_O 	O 	0.72915	0.52782	0.7095	-0.58
Mof_O 	O 	0.57091	0.70303	0.67715	-0.709
Mof_O 	O 	0.55984	0.63982	0.60735	-0.749
Mof_C 	C 	0.62237	0.64467	0.6944	-0.235
Mof_C 	C 	0.68354	0.6524	0.7876	-0.02
Mof_C 	C 	0.64501	0.66826	0.754	0.042
Mof_H 	H 	0.6335	0.6959	0.7719	0.028
Mof_C 	C 	0.74025	0.70902	0.8264	0.075
Mof_C 	C 	0.69698	0.66907	0.9329	0.09
Mof_C 	C 	0.70795	0.67773	0.8531	-0.11
Mof_C 	C 	0.67867	0.58849	0.7006	-0.212
Mof_C 	C 	0.63974	0.60462	0.6675	0.153
Mof_H 	H 	0.6249	0.5883	0.6263	-0.104
Mof_C 	C 	0.69879	0.5465	0.6698	0.478
Mof_C 	C 	0.70015	0.61171	0.7613	0.033
Mof_H 	H 	0.7263	0.5999	0.7852	0.035
Mof_C 	C 	0.58109	0.66311	0.6561	0.542
Mof_C 	C 	0.75161	0.71767	0.7432	-0.072
Mof_H 	H 	0.7391	0.7037	0.6967	0.052
Mof_C 	C 	0.66454	0.63661	0.9592	0.029
Mof_H 	H 	0.6466	0.6186	0.925	0.026
Mof_O 	O 	0.4746	0.7885	0.568	-0.75
Mof_O 	O 	0.53633	0.79651	0.703	-0.538
Mof_O 	O 	0.58045	0.79856	0.5981	-0.494
Mof_C 	C 	0.56439	0.87904	0.7581	-0.072
Mof_H 	H 	0.5376	0.8673	0.7795	0.074
Mof_C 	C 	0.58671	0.85678	0.6953	-0.05
Mof_C 	C 	0.56737	0.81533	0.6628	0.326
Mof_H 	H 	0.553	0.7428	0.473	0.049
Mof_In	In	0.47637	0.25719	0.61594	2.649
Mof_O 	O 	0.31324	0.46944	0.60221	-0.851
Mof_O 	O 	0.27085	0.47218	0.7095	-0.58
Mof_O 	O 	0.42909	0.29697	0.67715	-0.709
Mof_O 	O 	0.44016	0.36018	0.60735	-0.749
Mof_C 	C 	0.37763	0.35533	0.6944	-0.235
Mof_C 	C 	0.31646	0.3476	0.7876	-0.02
Mof_C 	C 	0.35499	0.33174	0.754	0.042
Mof_H 	H 	0.3665	0.3041	0.7719	0.028
Mof_C 	C 	0.25975	0.29098	0.8264	0.075
Mof_C 	C 	0.30302	0.33093	0.9329	0.09
Mof_C 	C 	0.29205	0.32227	0.8531	-0.11
Mof_C 	C 	0.32133	0.41151	0.7006	-0.211
Mof_C 	C 	0.36026	0.39538	0.6675	0.153
Mof_H 	H 	0.3751	0.4117	0.6263	-0.104
Mof_C 	C 	0.30121	0.4535	0.6698	0.478
Mof_C 	C 	0.29985	0.38829	0.7613	0.033
Mof_H 	H 	0.2737	0.4001	0.7852	0.036
Mof_C 	C 	0.41891	0.33689	0.6561	0.542
Mof_C 	C 	0.24839	0.28233	0.7432	-0.072
Mof_H 	H 	0.2609	0.2963	0.6967	0.052
Mof_C 	C 	0.33546	0.36339	0.9592	0.029
Mof_H 	H 	0.3534	0.3814	0.925	0.026
Mof_O 	O 	0.5254	0.2115	0.568	-0.75
Mof_O 	O 	0.46367	0.20349	0.703	-0.537
Mof_O 	O 	0.41955	0.20144	0.5981	-0.494
Mof_C 	C 	0.43561	0.12096	0.7581	-0.072
Mof_H 	H 	0.4624	0.1327	0.7795	0.074
Mof_C 	C 	0.41329	0.14322	0.6953	-0.049
Mof_C 	C 	0.43263	0.18467	0.6628	0.326
Mof_H 	H 	0.447	0.2572	0.473	0.049
Mof_In	In	0.25719	0.52363	0.61594	2.649
Mof_O 	O 	0.46944	0.68676	0.60221	-0.851
Mof_O 	O 	0.47218	0.72915	0.7095	-0.58
Mof_O 	O 	0.29697	0.57091	0.67715	-0.709
Mof_O 	O 	0.36018	0.55984	0.60735	-0.749
Mof_C 	C 	0.35533	0.62237	0.6944	-0.235
Mof_C 	C 	0.3476	0.68354	0.7876	-0.02
Mof_C 	C 	0.33174	0.64501	0.754	0.042
Mof_H 	H 	0.3041	0.6335	0.7719	0.028
Mof_C 	C 	0.29098	0.74025	0.8264	0.075
Mof_C 	C 	0.33093	0.69698	0.9329	0.09
Mof_C 	C 	0.32227	0.70795	0.8531	-0.11
Mof_C 	C 	0.41151	0.67867	0.7006	-0.212
Mof_C 	C 	0.39538	0.63974	0.6675	0.153
Mof_H 	H 	0.4117	0.6249	0.6263	-0.104
Mof_C 	C 	0.4535	0.69879	0.6698	0.478
Mof_C 	C 	0.38829	0.70015	0.7613	0.033
Mof_H 	H 	0.4001	0.7263	0.7852	0.035
Mof_C 	C 	0.33689	0.58109	0.6561	0.542
Mof_C 	C 	0.28233	0.75161	0.7432	-0.073
Mof_H 	H 	0.2963	0.7391	0.6967	0.052
Mof_C 	C 	0.36339	0.66454	0.9592	0.029
Mof_H 	H 	0.3814	0.6466	0.925	0.026
Mof_O 	O 	0.2115	0.4746	0.568	-0.75
Mof_O 	O 	0.20349	0.53633	0.703	-0.537
Mof_O 	O 	0.20144	0.58045	0.5981	-0.494
Mof_C 	C 	0.12096	0.56439	0.7581	-0.072
Mof_H 	H 	0.1327	0.5376	0.7795	0.074
Mof_C 	C 	0.14322	0.58671	0.6953	-0.049
Mof_C 	C 	0.18467	0.56737	0.6628	0.326
Mof_H 	H 	0.2572	0.553	0.473	0.049
Mof_In	In	0.74281	0.47637	0.61594	2.649
Mof_O 	O 	0.53056	0.31324	0.60221	-0.851
Mof_O 	O 	0.52782	0.27085	0.7095	-0.58
Mof_O 	O 	0.70303	0.42909	0.67715	-0.709
Mof_O 	O 	0.63982	0.44016	0.60735	-0.749
Mof_C 	C 	0.64467	0.37763	0.6944	-0.235
Mof_C 	C 	0.6524	0.31646	0.7876	-0.02
Mof_C 	C 	0.66826	0.35499	0.754	0.042
Mof_H 	H 	0.6959	0.3665	0.7719	0.028
Mof_C 	C 	0.70902	0.25975	0.8264	0.075
Mof_C 	C 	0.66907	0.30302	0.9329	0.09
Mof_C 	C 	0.67773	0.29205	0.8531	-0.11
Mof_C 	C 	0.58849	0.32133	0.7006	-0.211
Mof_C 	C 	0.60462	0.36026	0.6675	0.153
Mof_H 	H 	0.5883	0.3751	0.6263	-0.104
Mof_C 	C 	0.5465	0.30121	0.6698	0.478
Mof_C 	C 	0.61171	0.29985	0.7613	0.033
Mof_H 	H 	0.5999	0.2737	0.7852	0.036
Mof_C 	C 	0.66311	0.41891	0.6561	0.542
Mof_C 	C 	0.71767	0.24839	0.7432	-0.072
Mof_H 	H 	0.7037	0.2609	0.6967	0.052
Mof_C 	C 	0.63661	0.33546	0.9592	0.029
Mof_H 	H 	0.6186	0.3534	0.925	0.026
Mof_O 	O 	0.7885	0.5254	0.568	-0.75
Mof_O 	O 	0.79651	0.46367	0.703	-0.538
Mof_O 	O 	0.79856	0.41955	0.5981	-0.494
Mof_C 	C 	0.87904	0.43561	0.7581	-0.072
Mof_H 	H 	0.8673	0.4624	0.7795	0.074
Mof_C 	C 	0.85678	0.41329	0.6953	-0.05
Mof_C 	C 	0.81533	0.43263	0.6628	0.326
Mof_H 	H 	0.7428	0.447	0.473	0.049
Mof_In	In	0.97637	0.24281	0.38406	2.632
Mof_O 	O 	0.81324	0.03056	0.39779	-0.847
Mof_O 	O 	0.77085	0.02782	0.2905	-0.584
Mof_O 	O 	0.92909	0.20303	0.32285	-0.712
Mof_O 	O 	0.94016	0.13982	0.39265	-0.75
Mof_C 	C 	0.87763	0.14467	0.3056	-0.239
Mof_C 	C 	0.81646	0.1524	0.2124	-0.02
Mof_C 	C 	0.85499	0.16826	0.246	0.039
Mof_H 	H 	0.8665	0.1959	0.2281	0.022
Mof_C 	C 	0.75975	0.20902	0.1736	0.069
Mof_C 	C 	0.80302	0.16907	0.0671	0.091
Mof_C 	C 	0.79205	0.17773	0.1469	-0.126
Mof_C 	C 	0.82133	0.08849	0.2994	-0.215
Mof_C 	C 	0.86026	0.10462	0.3325	0.152
Mof_H 	H 	0.8751	0.0883	0.3737	-0.105
Mof_C 	C 	0.80121	0.0465	0.3302	0.477
Mof_C 	C 	0.79985	0.11171	0.2387	0.03
Mof_H 	H 	0.7737	0.0999	0.2148	0.028
Mof_C 	C 	0.91891	0.16311	0.3439	0.539
Mof_C 	C 	0.74839	0.21767	0.2568	-0.074
Mof_H 	H 	0.7609	0.2037	0.3033	0.051
Mof_C 	C 	0.83546	0.13661	0.0408	-0.185
Mof_H 	H 	0.8534	0.1186	0.075	0.073
Mof_O 	O 	0.0254	0.2885	0.432	-0.746
Mof_O 	O 	0.96367	0.29651	0.297	-0.545
Mof_O 	O 	0.91955	0.29856	0.4019	-0.494
Mof_C 	C 	0.93561	0.37904	0.2419	-0.073
Mof_H 	H 	0.9624	0.3673	0.2205	0.066
Mof_C 	C 	0.91329	0.35678	0.3047	-0.055
Mof_C 	C 	0.93263	0.31533	0.3372	0.327
Mof_H 	H 	0.947	0.2428	0.527	0.048
Mof_In	In	0.02363	0.75719	0.38406	2.658
Mof_O 	O 	0.18676	0.96944	0.39779	-0.858
Mof_O 	O 	0.22915	0.97218	0.2905	-0.592
Mof_O 	O 	0.07091	0.79697	0.32285	-0.715
Mof_O 	O 	0.05984	0.86018	0.39265	-0.753
Mof_C 	C 	0.12237	0.85533	0.3056	-0.242
Mof_C 	C 	0.18354	0.8476	0.2124	-0.021
Mof_C 	C 	0.14501	0.83174	0.246	0.041
Mof_H 	H 	0.1335	0.8041	0.2281	0.021
Mof_C 	C 	0.24025	0.79098	0.1736	0.069
Mof_C 	C 	0.19698	0.83093	0.0671	0.091
Mof_C 	C 	0.20795	0.82227	0.1469	-0.126
Mof_C 	C 	0.17867	0.91151	0.2994	-0.219
Mof_C 	C 	0.13974	0.89538	0.3325	0.155
Mof_H 	H 	0.1249	0.9117	0.3737	-0.108
Mof_C 	C 	0.19879	0.9535	0.3302	0.48
Mof_C 	C 	0.20015	0.88829	0.2387	0.032
Mof_H 	H 	0.2263	0.9001	0.2148	0.027
Mof_C 	C 	0.08109	0.83689	0.3439	0.542
Mof_C 	C 	0.25161	0.78233	0.2568	-0.074
Mof_H 	H 	0.2391	0.7963	0.3033	0.051
Mof_C 	C 	0.16454	0.86339	0.0408	-0.185
Mof_H 	H 	0.1466	0.8814	0.075	0.073
Mof_O 	O 	0.9746	0.7115	0.432	-0.755
Mof_O 	O 	0.03633	0.70349	0.297	-0.544
Mof_O 	O 	0.08045	0.70144	0.4019	-0.495
Mof_C 	C 	0.06439	0.62096	0.2419	-0.073
Mof_H 	H 	0.0376	0.6327	0.2205	0.067
Mof_C 	C 	0.08671	0.64322	0.3047	-0.054
Mof_C 	C 	0.06737	0.68467	0.3372	0.327
Mof_H 	H 	0.053	0.7572	0.527	0.047
Mof_In	In	0.24281	0.02363	0.38406	2.657
Mof_O 	O 	0.03056	0.18676	0.39779	-0.847
Mof_O 	O 	0.02782	0.22915	0.2905	-0.584
Mof_O 	O 	0.20303	0.07091	0.32285	-0.715
Mof_O 	O 	0.13982	0.05984	0.39265	-0.753
Mof_C 	C 	0.14467	0.12237	0.3056	-0.24
Mof_C 	C 	0.1524	0.18354	0.2124	-0.02
Mof_C 	C 	0.16826	0.14501	0.246	0.04
Mof_H 	H 	0.1959	0.1335	0.2281	0.022
Mof_C 	C 	0.20902	0.24025	0.1736	0.069
Mof_C 	C 	0.16907	0.19698	0.0671	0.091
Mof_C 	C 	0.17773	0.20795	0.1469	-0.126
Mof_C 	C 	0.08849	0.17867	0.2994	-0.216
Mof_C 	C 	0.10462	0.13974	0.3325	0.153
Mof_H 	H 	0.0883	0.1249	0.3737	-0.105
Mof_C 	C 	0.0465	0.19879	0.3302	0.477
Mof_C 	C 	0.11171	0.20015	0.2387	0.031
Mof_H 	H 	0.0999	0.2263	0.2148	0.028
Mof_C 	C 	0.16311	0.08109	0.3439	0.542
Mof_C 	C 	0.21767	0.25161	0.2568	-0.074
Mof_H 	H 	0.2037	0.2391	0.3033	0.051
Mof_C 	C 	0.13661	0.16454	0.0408	-0.185
Mof_H 	H 	0.1186	0.1466	0.075	0.074
Mof_O 	O 	0.2885	0.9746	0.432	-0.755
Mof_O 	O 	0.29651	0.03633	0.297	-0.544
Mof_O 	O 	0.29856	0.08045	0.4019	-0.495
Mof_C 	C 	0.37904	0.06439	0.2419	-0.073
Mof_H 	H 	0.3673	0.0376	0.2205	0.067
Mof_C 	C 	0.35678	0.08671	0.3047	-0.054
Mof_C 	C 	0.31533	0.06737	0.3372	0.327
Mof_H 	H 	0.2428	0.053	0.527	0.047
Mof_In	In	0.75719	0.97637	0.38406	2.633
Mof_O 	O 	0.96944	0.81324	0.39779	-0.858
Mof_O 	O 	0.97218	0.77085	0.2905	-0.592
Mof_O 	O 	0.79697	0.92909	0.32285	-0.713
Mof_O 	O 	0.86018	0.94016	0.39265	-0.751
Mof_C 	C 	0.85533	0.87763	0.3056	-0.241
Mof_C 	C 	0.8476	0.81646	0.2124	-0.021
Mof_C 	C 	0.83174	0.85499	0.246	0.04
Mof_H 	H 	0.8041	0.8665	0.2281	0.021
Mof_C 	C 	0.79098	0.75975	0.1736	0.069
Mof_C 	C 	0.83093	0.80302	0.0671	0.091
Mof_C 	C 	0.82227	0.79205	0.1469	-0.126
Mof_C 	C 	0.91151	0.82133	0.2994	-0.219
Mof_C 	C 	0.89538	0.86026	0.3325	0.154
Mof_H 	H 	0.9117	0.8751	0.3737	-0.108
Mof_C 	C 	0.9535	0.80121	0.3302	0.48
Mof_C 	C 	0.88829	0.79985	0.2387	0.032
Mof_H 	H 	0.9001	0.7737	0.2148	0.027
Mof_C 	C 	0.83689	0.91891	0.3439	0.54
Mof_C 	C 	0.78233	0.74839	0.2568	-0.074
Mof_H 	H 	0.7963	0.7609	0.3033	0.051
Mof_C 	C 	0.86339	0.83546	0.0408	-0.185
Mof_H 	H 	0.8814	0.8534	0.075	0.072
Mof_O 	O 	0.7115	0.0254	0.432	-0.746
Mof_O 	O 	0.70349	0.96367	0.297	-0.545
Mof_O 	O 	0.70144	0.91955	0.4019	-0.494
Mof_C 	C 	0.62096	0.93561	0.2419	-0.073
Mof_H 	H 	0.6327	0.9624	0.2205	0.066
Mof_C 	C 	0.64322	0.91329	0.3047	-0.055
Mof_C 	C 	0.68467	0.93263	0.3372	0.327
Mof_H 	H 	0.7572	0.947	0.527	0.048
Mof_Zn	Zn	0.22694	0.27306	-0	0.794
Mof_N 	N 	0.45172	0.04828	-0	-0.385
Mof_Zn	Zn	0.24453	0.25547	-0	0.792
Mof_Zn	Zn	0.77306	0.72694	-0	0.793
Mof_N 	N 	0.54828	0.95172	-0	-0.386
Mof_Zn	Zn	0.75547	0.74453	-0	0.792
Mof_Zn	Zn	0.72694	0.22694	-0	0.794
Mof_N 	N 	0.95172	0.45172	-0	-0.386
Mof_Zn	Zn	0.74453	0.24453	-0	0.792
Mof_Zn	Zn	0.27306	0.77306	-0	0.793
Mof_N 	N 	0.04828	0.54828	-0	-0.385
Mof_Zn	Zn	0.25547	0.75547	-0	0.792
Mof_N 	N 	0.23476	0.26524	0.1227	-0.352
Mof_C 	C 	0.41826	0.08174	0.2112	0.068
Mof_C 	C 	0.43278	0.06722	0.0661	0.109
Mof_C 	C 	0.47429	0.02571	0.174	0.082
Mof_C 	C 	0.443	0.057	0.1466	-0.161
Mof_C 	C 	0.40087	0.09913	0.0417	-0.188
Mof_H 	H 	0.383	0.117	0.0762	0.077
Mof_C 	C 	0.48415	0.01585	0.2558	-0.071
Mof_H 	H 	0.4709	0.0291	0.3022	0.06
Mof_C 	C 	0.37519	0.12481	0.3367	-0.011
Mof_H 	H 	0.3613	0.1387	0.3818	0.055
Mof_N 	N 	0.76524	0.73476	0.1227	-0.352
Mof_C 	C 	0.58174	0.91826	0.2112	0.067
Mof_C 	C 	0.56722	0.93278	0.0661	0.108
Mof_C 	C 	0.52571	0.97429	0.174	0.082
Mof_C 	C 	0.557	0.943	0.1466	-0.162
Mof_C 	C 	0.59913	0.90087	0.0417	-0.188
Mof_H 	H 	0.617	0.883	0.0762	0.077
Mof_C 	C 	0.51585	0.98415	0.2558	-0.089
Mof_H 	H 	0.5291	0.9709	0.3022	0.064
Mof_C 	C 	0.62481	0.87519	0.3367	-0.011
Mof_H 	H 	0.6387	0.8613	0.3818	0.055
Mof_N 	N 	0.73476	0.23476	0.1227	-0.352
Mof_C 	C 	0.91826	0.41826	0.2112	0.067
Mof_C 	C 	0.93278	0.43278	0.0661	0.108
Mof_C 	C 	0.97429	0.47429	0.174	0.082
Mof_C 	C 	0.943	0.443	0.1466	-0.162
Mof_C 	C 	0.90087	0.40087	0.0417	-0.188
Mof_H 	H 	0.883	0.383	0.0762	0.077
Mof_C 	C 	0.98415	0.48415	0.2558	-0.089
Mof_H 	H 	0.9709	0.4709	0.3022	0.064
Mof_C 	C 	0.87519	0.37519	0.3367	-0.011
Mof_H 	H 	0.8613	0.3613	0.3818	0.055
Mof_N 	N 	0.26524	0.76524	0.1227	-0.352
Mof_C 	C 	0.08174	0.58174	0.2112	0.068
Mof_C 	C 	0.06722	0.56722	0.0661	0.109
Mof_C 	C 	0.02571	0.52571	0.174	0.082
Mof_C 	C 	0.057	0.557	0.1466	-0.161
Mof_C 	C 	0.09913	0.59913	0.0417	-0.188
Mof_H 	H 	0.117	0.617	0.0762	0.077
Mof_C 	C 	0.01585	0.51585	0.2558	-0.071
Mof_H 	H 	0.0291	0.5291	0.3022	0.06
Mof_C 	C 	0.12481	0.62481	0.3367	-0.011
Mof_H 	H 	0.1387	0.6387	0.3818	0.055
Mof_N 	N 	0.26524	0.76524	0.8773	-0.332
Mof_C 	C 	0.08174	0.58174	0.7888	0.068
Mof_C 	C 	0.06722	0.56722	0.9339	0.11
Mof_C 	C 	0.02571	0.52571	0.826	0.089
Mof_C 	C 	0.057	0.557	0.8534	-0.146
Mof_C 	C 	0.09913	0.59913	0.9583	0.012
Mof_H 	H 	0.117	0.617	0.9238	0.034
Mof_C 	C 	0.01585	0.51585	0.7442	-0.069
Mof_H 	H 	0.0291	0.5291	0.6978	0.061
Mof_C 	C 	0.12481	0.62481	0.6633	-0.012
Mof_H 	H 	0.1387	0.6387	0.6182	0.057
Mof_N 	N 	0.73476	0.23476	0.8773	-0.332
Mof_C 	C 	0.91826	0.41826	0.7888	0.068
Mof_C 	C 	0.93278	0.43278	0.9339	0.11
Mof_C 	C 	0.97429	0.47429	0.826	0.089
Mof_C 	C 	0.943	0.443	0.8534	-0.147
Mof_C 	C 	0.90087	0.40087	0.9583	0.011
Mof_H 	H 	0.883	0.383	0.9238	0.034
Mof_C 	C 	0.98415	0.48415	0.7442	-0.087
Mof_H 	H 	0.9709	0.4709	0.6978	0.065
Mof_C 	C 	0.87519	0.37519	0.6633	-0.012
Mof_H 	H 	0.8613	0.3613	0.6182	0.056
Mof_N 	N 	0.76524	0.73476	0.8773	-0.332
Mof_C 	C 	0.58174	0.91826	0.7888	0.068
Mof_C 	C 	0.56722	0.93278	0.9339	0.11
Mof_C 	C 	0.52571	0.97429	0.826	0.089
Mof_C 	C 	0.557	0.943	0.8534	-0.147
Mof_C 	C 	0.59913	0.90087	0.9583	0.011
Mof_H 	H 	0.617	0.883	0.9238	0.034
Mof_C 	C 	0.51585	0.98415	0.7442	-0.087
Mof_H 	H 	0.5291	0.9709	0.6978	0.065
Mof_C 	C 	0.62481	0.87519	0.6633	-0.012
Mof_H 	H 	0.6387	0.8613	0.6182	0.056
Mof_N 	N 	0.23476	0.26524	0.8773	-0.332
Mof_C 	C 	0.41826	0.08174	0.7888	0.068
Mof_C 	C 	0.43278	0.06722	0.9339	0.11
Mof_C 	C 	0.47429	0.02571	0.826	0.089
Mof_C 	C 	0.443	0.057	0.8534	-0.146
Mof_C 	C 	0.40087	0.09913	0.9583	0.012
Mof_H 	H 	0.383	0.117	0.9238	0.034
Mof_C 	C 	0.48415	0.01585	0.7442	-0.069
Mof_H 	H 	0.4709	0.0291	0.6978	0.061
Mof_C 	C 	0.37519	0.12481	0.6633	-0.012
Mof_H 	H 	0.3613	0.1387	0.6182	0.057
Mof_O 	O 	0.45737	0.27844	0.5	-1.554
Mof_H 	H 	0.4297	0.282	0.5	0.432
Mof_C 	C 	0.5382	0.1992	0.5	0.773
Mof_H 	H 	0.561	0.1774	0.5	-0.206
Mof_Na	Na	0.49144	0.35309	0.5	2.329
Mof_O 	O 	0.54263	0.72156	0.5	-1.554
Mof_H 	H 	0.5703	0.718	0.5	0.432
Mof_C 	C 	0.4618	0.8008	0.5	0.774
Mof_H 	H 	0.439	0.8226	0.5	-0.206
Mof_Na	Na	0.50856	0.64691	0.5	2.329
Mof_O 	O 	0.72156	0.45737	0.5	-1.554
Mof_H 	H 	0.718	0.4297	0.5	0.432
Mof_C 	C 	0.8008	0.5382	0.5	0.774
Mof_H 	H 	0.8226	0.561	0.5	-0.206
Mof_Na	Na	0.64691	0.49144	0.5	2.329
Mof_O 	O 	0.27844	0.54263	0.5	-1.554
Mof_H 	H 	0.282	0.5703	0.5	0.432
Mof_C 	C 	0.1992	0.4618	0.5	0.773
Mof_H 	H 	0.1774	0.439	0.5	-0.206
Mof_Na	Na	0.35309	0.50856	0.5	2.329
Mof_O 	O 	0.04263	0.77844	0.5	-1.557
Mof_H 	H 	0.0703	0.782	0.5	0.433
Mof_C 	C 	0.9618	0.6992	0.5	0.776
Mof_H 	H 	0.939	0.6774	0.5	-0.208
Mof_Na	Na	0.00856	0.85309	0.5	2.343
Mof_O 	O 	0.95737	0.22156	0.5	-1.551
Mof_H 	H 	0.9297	0.218	0.5	0.432
Mof_C 	C 	0.0382	0.3008	0.5	0.771
Mof_H 	H 	0.061	0.3226	0.5	-0.204
Mof_Na	Na	0.99144	0.14691	0.5	2.319
Mof_O 	O 	0.77844	0.95737	0.5	-1.551
Mof_H 	H 	0.782	0.9297	0.5	0.432
Mof_C 	C 	0.6992	0.0382	0.5	0.771
Mof_H 	H 	0.6774	0.061	0.5	-0.204
Mof_Na	Na	0.85309	0.99144	0.5	2.315
Mof_O 	O 	0.22156	0.04263	0.5	-1.558
Mof_H 	H 	0.218	0.0703	0.5	0.433
Mof_C 	C 	0.3008	0.9618	0.5	0.776
Mof_H 	H 	0.3226	0.939	0.5	-0.208
Mof_Na	Na	0.14691	0.00856	0.5	2.347
Mof_N 	N 	0.28382	0.31228	-0	-0.375
Mof_N 	N 	0.71618	0.68772	-0	-0.375
Mof_N 	N 	0.68772	0.28382	-0	-0.375
Mof_N 	N 	0.31228	0.71618	-0	-0.375
Mof_N 	N 	0.21618	0.81228	-0	-0.375
Mof_N 	N 	0.78382	0.18772	-0	-0.375
Mof_N 	N 	0.81228	0.78382	-0	-0.375
Mof_N 	N 	0.18772	0.21618	-0	-0.375
Mof_N 	N 	0.5	0	0.1238	-0.353
Mof_N 	N 	2.53626e-34	0.5	0.1238	-0.353
Mof_N 	N 	-4.95308e-33	0.5	0.8762	-0.335
Mof_N 	N 	0.5	-3.37406e-33	0.8762	-0.335
Mof_Zn	Zn	0.50927	0.00927	-0	0.812
Mof_Zn	Zn	0.49073	0.99073	-0	0.807
Mof_Zn	Zn	0.99073	0.50927	-0	0.807
Mof_Zn	Zn	0.00927	0.49073	-0	0.812
_end
