# CIF file generated by openbabel 3.1.0, see https://openbabel.org
data_I
_chemical_name_common 'image0'
_cell_length_a 15.052
_cell_length_b 8.147
_cell_length_c 16.164
_cell_angle_alpha 90
_cell_angle_beta 102.843
_cell_angle_gamma 90
_space_group_name_H-M_alt 'P 1'
_space_group_name_Hall 'P 1'
loop_
    _symmetry_equiv_pos_as_xyz
    x,y,z
loop_
    _atom_site_label
    _atom_site_type_symbol
    _atom_site_fract_x
    _atom_site_fract_y
    _atom_site_fract_z
    _atom_site_occupancy
    U1       U        0.20398    0.13198    0.25807    1.000
    P1       P        0.98413    0.98500    0.29926    1.000
    P2       P        0.44147    0.99560    0.29744    1.000
    F1       F        0.25340    0.87070    0.29880    1.000
    O1       O        0.08000    0.98740    0.28490    1.000
    O2       O        0.93280    0.14590    0.26020    1.000
    O3       O        0.92630    0.83910    0.26480    1.000
    O4       O        0.86750    0.80030    0.40600    1.000
    H1       H        0.87350    0.79310    0.35570    1.000
    O5       O        0.36490    0.11670    0.26670    1.000
    O6       O        0.52880    0.04950    0.26700    1.000
    O7       O        0.42420    0.82000    0.26870    1.000
    O8       O        0.45400    0.29730    0.41800    1.000
    H2       H        0.42450    0.28490    0.36780    1.000
    C1       C        0.99090    0.99350    0.41150    1.000
    C2       C        0.93360    0.90330    0.45110    1.000
    C3       C        0.05760    0.08840    0.46270    1.000
    H3       H        0.09840    0.14940    0.43740    1.000
    C4       C        0.47100    0.00000    0.41240    1.000
    C5       C        0.47560    0.14600    0.45490    1.000
    C6       C        0.49480    0.85360    0.45650    1.000
    H4       H        0.49100    0.75300    0.42630    1.000
    U2       U        0.29602    0.63198    0.24193    1.000
    P3       P        0.51587    0.48500    0.20074    1.000
    P4       P        0.05853    0.49560    0.20256    1.000
    F2       F        0.24660    0.37070    0.20120    1.000
    O9       O        0.42000    0.48740    0.21510    1.000
    O10      O        0.56720    0.64590    0.23980    1.000
    O11      O        0.57370    0.33910    0.23520    1.000
    O12      O        0.63250    0.30030    0.09400    1.000
    H5       H        0.62650    0.29310    0.14430    1.000
    O13      O        0.13510    0.61670    0.23330    1.000
    O14      O        0.97120    0.54950    0.23300    1.000
    O15      O        0.07580    0.32000    0.23130    1.000
    O16      O        0.04600    0.79730    0.08200    1.000
    H6       H        0.07550    0.78490    0.13220    1.000
    C7       C        0.50910    0.49350    0.08850    1.000
    C8       C        0.56640    0.40330    0.04890    1.000
    C9       C        0.44240    0.58840    0.03730    1.000
    H7       H        0.40160    0.64940    0.06260    1.000
    C10      C        0.02900    0.50000    0.08760    1.000
    C11      C        0.02440    0.64600    0.04510    1.000
    C12      C        0.00520    0.35360    0.04350    1.000
    H8       H        0.00900    0.25300    0.07370    1.000
    U3       U        0.79602    0.86802    0.74193    1.000
    P5       P        0.01587    0.01500    0.70074    1.000
    P6       P        0.55853    0.00440    0.70256    1.000
    F3       F        0.74660    0.12930    0.70120    1.000
    O17      O        0.92000    0.01260    0.71510    1.000
    O18      O        0.06720    0.85410    0.73980    1.000
    O19      O        0.07370    0.16090    0.73520    1.000
    O20      O        0.13250    0.19970    0.59400    1.000
    H9       H        0.12650    0.20690    0.64430    1.000
    O21      O        0.63510    0.88330    0.73330    1.000
    O22      O        0.47120    0.95050    0.73300    1.000
    O23      O        0.57580    0.18000    0.73130    1.000
    O24      O        0.54600    0.70270    0.58200    1.000
    H10      H        0.57550    0.71510    0.63220    1.000
    C13      C        0.00910    0.00650    0.58850    1.000
    C14      C        0.06640    0.09670    0.54890    1.000
    C15      C        0.94240    0.91160    0.53730    1.000
    H11      H        0.90160    0.85060    0.56260    1.000
    C16      C        0.52900    0.00000    0.58760    1.000
    C17      C        0.52440    0.85400    0.54510    1.000
    C18      C        0.50520    0.14640    0.54350    1.000
    H12      H        0.50900    0.24700    0.57370    1.000
    U4       U        0.70398    0.36802    0.75807    1.000
    P7       P        0.48413    0.51500    0.79926    1.000
    P8       P        0.94147    0.50440    0.79744    1.000
    F4       F        0.75340    0.62930    0.79880    1.000
    O25      O        0.58000    0.51260    0.78490    1.000
    O26      O        0.43280    0.35410    0.76020    1.000
    O27      O        0.42630    0.66090    0.76480    1.000
    O28      O        0.36750    0.69970    0.90600    1.000
    H13      H        0.37350    0.70690    0.85570    1.000
    O29      O        0.86490    0.38330    0.76670    1.000
    O30      O        0.02880    0.45050    0.76700    1.000
    O31      O        0.92420    0.68000    0.76870    1.000
    O32      O        0.95400    0.20270    0.91800    1.000
    H14      H        0.92450    0.21510    0.86780    1.000
    C19      C        0.49090    0.50650    0.91150    1.000
    C20      C        0.43360    0.59670    0.95110    1.000
    C21      C        0.55760    0.41160    0.96270    1.000
    H15      H        0.59840    0.35060    0.93740    1.000
    C22      C        0.97100    0.50000    0.91240    1.000
    C23      C        0.97560    0.35400    0.95490    1.000
    C24      C        0.99480    0.64640    0.95650    1.000
    H16      H        0.99100    0.74700    0.92630    1.000
