# CIF file generated by openbabel 3.1.0, see https://openbabel.org
data_I
_chemical_name_common 'image0'
_cell_length_a 15.3042
_cell_length_b 15.5719
_cell_length_c 16.3522
_cell_angle_alpha 104.723
_cell_angle_beta 105.151
_cell_angle_gamma 101.628
_space_group_name_H-M_alt 'P 1'
_space_group_name_Hall 'P 1'
loop_
    _symmetry_equiv_pos_as_xyz
    x,y,z
loop_
    _atom_site_label
    _atom_site_type_symbol
    _atom_site_fract_x
    _atom_site_fract_y
    _atom_site_fract_z
    _atom_site_occupancy
    Cd1      Cd       0.75102    0.96630    0.53891    1.000
    Cd2      Cd       0.57445    0.04000    0.12388    1.000
    Cd3      Cd       0.64238    0.00264    0.33746    1.000
    O1       O        0.61128    0.84680    0.49752    1.000
    O2       O        0.59191    0.96392    0.45000    1.000
    O3       O        0.15733    0.83111    0.22426    1.000
    O4       O        0.25023    0.96579    0.32065    1.000
    O5       O        0.10920    0.12175    0.09840    1.000
    O6       O        0.16410    0.09203    0.22661    1.000
    O7       O        0.38870    0.56600    0.43940    1.000
    N1       N        0.29490    0.59370    0.32230    1.000
    H1       H        0.24560    0.56670    0.27330    1.000
    C1       C        0.45600    0.83410    0.40860    1.000
    C2       C        0.42430    0.73970    0.39680    1.000
    H2       H        0.46640    0.70910    0.42260    1.000
    C3       C        0.33040    0.69100    0.34680    1.000
    C4       C        0.26860    0.73690    0.31190    1.000
    H3       H        0.20470    0.70350    0.27770    1.000
    C5       C        0.29990    0.83110    0.32670    1.000
    C6       C        0.39420    0.87990    0.37450    1.000
    H4       H        0.41590    0.94430    0.38360    1.000
    C7       C        0.28420    0.43610    0.31580    1.000
    C8       C        0.28500    0.37400    0.36360    1.000
    H5       H        0.31320    0.39660    0.42690    1.000
    C9       C        0.24520    0.27970    0.32020    1.000
    H6       H        0.24610    0.23800    0.35360    1.000
    C10      C        0.20420    0.24650    0.22820    1.000
    C11      C        0.20500    0.30740    0.17950    1.000
    H7       H        0.17800    0.28440    0.11610    1.000
    C12      C        0.24510    0.40150    0.22300    1.000
    H8       H        0.24600    0.44280    0.18920    1.000
    C13      C        0.32770    0.53740    0.36530    1.000
    C14      C        0.55930    0.88430    0.45480    1.000
    C15      C        0.23100    0.87840    0.28860    1.000
    C16      C        0.15530    0.14470    0.18010    1.000
    O8       O        0.72180    0.13220    0.18240    1.000
    O9       O        0.72858    0.02130    0.24341    1.000
    O10      O        0.17409    0.14170    0.44380    1.000
    O11      O        0.07340    0.01148    0.34450    1.000
    O12      O        0.27930    0.86323    0.56097    1.000
    O13      O        0.17200    0.89337    0.45857    1.000
    O14      O        0.90360    0.43170    0.31870    1.000
    N2       N        0.02500    0.39230    0.39590    1.000
    H9       H        0.08200    0.41550    0.43580    1.000
    C17      C        0.86680    0.14970    0.29010    1.000
    C18      C        0.89510    0.24630    0.31590    1.000
    H10      H        0.85080    0.27880    0.29910    1.000
    C19      C        0.98880    0.29430    0.36660    1.000
    C20      C        0.05280    0.24530    0.39000    1.000
    H11      H        0.11650    0.27810    0.42600    1.000
    C21      C        0.02460    0.14930    0.36130    1.000
    C22      C        0.93100    0.10110    0.31170    1.000
    H12      H        0.91110    0.03530    0.29270    1.000
    C23      C        0.04400    0.55350    0.40730    1.000
    C24      C        0.99960    0.62120    0.39590    1.000
    H13      H        0.93290    0.60400    0.36890    1.000
    C25      C        0.05120    0.71310    0.42330    1.000
    H14      H        0.01980    0.75810    0.41330    1.000
    C26      C        0.14740    0.74040    0.46470    1.000
    C27      C        0.19240    0.67390    0.47780    1.000
    H15      H        0.25880    0.69170    0.50670    1.000
    C28      C        0.14110    0.58140    0.44900    1.000
    H16      H        0.17300    0.53650    0.45800    1.000
    C29      C        0.98390    0.45440    0.37080    1.000
    C30      C        0.76530    0.09730    0.23560    1.000
    C31      C        0.09520    0.09750    0.38370    1.000
    C32      C        0.20390    0.84090    0.49700    1.000
    O15      O        0.56720    0.09698    0.27078    1.000
    N3       N        0.54390    0.23650    0.31620    1.000
    C33      C        0.48550    0.29530    0.34070    1.000
    H17      H        0.42850    0.25760    0.34530    1.000
    H18      H        0.46730    0.32440    0.29480    1.000
    H19      H        0.52130    0.34350    0.39860    1.000
    C34      C        0.63490    0.27960    0.30500    1.000
    H20      H        0.66590    0.23170    0.28850    1.000
    H21      H        0.67630    0.32710    0.36150    1.000
    H22      H        0.62200    0.30800    0.25780    1.000
    C35      C        0.51880    0.15010    0.29680    1.000
    C36      C        0.42240    0.10450    0.30190    1.000
    H23      H        0.41100    0.03710    0.28400    1.000
    H24      H        0.37260    0.11950    0.26150    1.000
    H25      H        0.42210    0.12770    0.36340    1.000
    Cd4      Cd       0.90758    0.05157    0.79284    1.000
    O16      O        0.05280    0.14890    0.84980    1.000
    O17      O        0.06501    0.02805    0.89453    1.000
    O18      O        0.50850    0.15460    0.10670    1.000
    O19      O        0.40850    0.02090    0.01320    1.000
    O20      O        0.50490    0.89637    0.10811    1.000
    O21      O        0.52720    0.88218    0.24428    1.000
    O22      O        0.27500    0.42350    0.92210    1.000
    N4       N        0.35980    0.40060    0.04760    1.000
    H26      H        0.40170    0.42860    0.10140    1.000
    C37      C        0.20290    0.15750    0.94350    1.000
    C38      C        0.23330    0.25340    0.96600    1.000
    H27      H        0.19040    0.28570    0.94530    1.000
    C39      C        0.32630    0.30240    0.01860    1.000
    C40      C        0.38840    0.25440    0.04840    1.000
    H28      H        0.45100    0.28740    0.08710    1.000
    C41      C        0.35930    0.15840    0.02180    1.000
    C42      C        0.26590    0.10930    0.97030    1.000
    H29      H        0.24560    0.04370    0.95370    1.000
    C43      C        0.37620    0.55680    0.04310    1.000
    C44      C        0.38780    0.61130    0.98990    1.000
    H30      H        0.36990    0.58310    0.92690    1.000
    C45      C        0.42510    0.70670    0.02710    1.000
    H31      H        0.43290    0.74350    0.98980    1.000
    C46      C        0.45120    0.74840    0.11900    1.000
    C47      C        0.43800    0.69400    0.17250    1.000
    H32      H        0.45430    0.72210    0.23530    1.000
    C48      C        0.40110    0.59890    0.13470    1.000
    H33      H        0.39280    0.56210    0.17180    1.000
    C49      C        0.33190    0.45470    0.99800    1.000
    C50      C        0.10030    0.10800    0.89310    1.000
    C51      C        0.42990    0.10850    0.04890    1.000
    C52      C        0.49810    0.85120    0.16060    1.000
    Cd5      Cd       0.24898    0.03370    0.46109    1.000
    Cd6      Cd       0.42555    0.96000    0.87612    1.000
    Cd7      Cd       0.35762    0.99736    0.66254    1.000
    O23      O        0.38872    0.15320    0.50248    1.000
    O24      O        0.40809    0.03608    0.55000    1.000
    O25      O        0.84267    0.16889    0.77574    1.000
    O26      O        0.74977    0.03421    0.67935    1.000
    O27      O        0.89080    0.87825    0.90160    1.000
    O28      O        0.83590    0.90797    0.77339    1.000
    O29      O        0.61130    0.43400    0.56060    1.000
    N5       N        0.70510    0.40630    0.67770    1.000
    H34      H        0.75440    0.43330    0.72670    1.000
    C53      C        0.54400    0.16590    0.59140    1.000
    C54      C        0.57570    0.26030    0.60320    1.000
    H35      H        0.53360    0.29090    0.57740    1.000
    C55      C        0.66960    0.30900    0.65320    1.000
    C56      C        0.73140    0.26310    0.68810    1.000
    H36      H        0.79530    0.29650    0.72230    1.000
    C57      C        0.70010    0.16890    0.67330    1.000
    C58      C        0.60580    0.12010    0.62550    1.000
    H37      H        0.58410    0.05570    0.61640    1.000
    C59      C        0.71580    0.56390    0.68420    1.000
    C60      C        0.71500    0.62600    0.63640    1.000
    H38      H        0.68680    0.60340    0.57310    1.000
    C61      C        0.75480    0.72030    0.67980    1.000
    H39      H        0.75390    0.76200    0.64640    1.000
    C62      C        0.79580    0.75350    0.77180    1.000
    C63      C        0.79500    0.69260    0.82050    1.000
    H40      H        0.82200    0.71560    0.88390    1.000
    C64      C        0.75490    0.59850    0.77700    1.000
    H41      H        0.75400    0.55720    0.81080    1.000
    C65      C        0.67230    0.46260    0.63470    1.000
    C66      C        0.44070    0.11570    0.54520    1.000
    C67      C        0.76900    0.12160    0.71140    1.000
    C68      C        0.84470    0.85530    0.81990    1.000
    O30      O        0.27820    0.86780    0.81760    1.000
    O31      O        0.27142    0.97870    0.75659    1.000
    O32      O        0.82591    0.85830    0.55620    1.000
    O33      O        0.92660    0.98852    0.65550    1.000
    O34      O        0.72070    0.13677    0.43903    1.000
    O35      O        0.82800    0.10663    0.54143    1.000
    O36      O        0.09640    0.56830    0.68130    1.000
    N6       N        0.97500    0.60770    0.60410    1.000
    H42      H        0.91800    0.58450    0.56420    1.000
    C69      C        0.13320    0.85030    0.70990    1.000
    C70      C        0.10490    0.75370    0.68410    1.000
    H43      H        0.14920    0.72120    0.70090    1.000
    C71      C        0.01120    0.70570    0.63340    1.000
    C72      C        0.94720    0.75470    0.61000    1.000
    H44      H        0.88350    0.72190    0.57400    1.000
    C73      C        0.97540    0.85070    0.63870    1.000
    C74      C        0.06900    0.89890    0.68830    1.000
    H45      H        0.08890    0.96470    0.70730    1.000
    C75      C        0.95600    0.44650    0.59270    1.000
    C76      C        0.00040    0.37880    0.60410    1.000
    H46      H        0.06710    0.39600    0.63110    1.000
    C77      C        0.94880    0.28690    0.57670    1.000
    H47      H        0.98020    0.24190    0.58670    1.000
    C78      C        0.85260    0.25960    0.53530    1.000
    C79      C        0.80760    0.32610    0.52220    1.000
    H48      H        0.74120    0.30830    0.49330    1.000
    C80      C        0.85890    0.41860    0.55100    1.000
    H49      H        0.82700    0.46350    0.54200    1.000
    C81      C        0.01610    0.54560    0.62920    1.000
    C82      C        0.23470    0.90270    0.76440    1.000
    C83      C        0.90480    0.90250    0.61630    1.000
    C84      C        0.79610    0.15910    0.50300    1.000
    O37      O        0.43280    0.90302    0.72922    1.000
    N7       N        0.45610    0.76350    0.68380    1.000
    C85      C        0.51450    0.70470    0.65930    1.000
    H50      H        0.57150    0.74240    0.65470    1.000
    H51      H        0.53270    0.67560    0.70520    1.000
    H52      H        0.47870    0.65650    0.60140    1.000
    C86      C        0.36510    0.72040    0.69500    1.000
    H53      H        0.33410    0.76830    0.71150    1.000
    H54      H        0.32370    0.67290    0.63850    1.000
    H55      H        0.37800    0.69200    0.74220    1.000
    C87      C        0.48120    0.84990    0.70320    1.000
    C88      C        0.57760    0.89550    0.69810    1.000
    H56      H        0.58900    0.96290    0.71600    1.000
    H57      H        0.62740    0.88050    0.73850    1.000
    H58      H        0.57790    0.87230    0.63660    1.000
    Cd8      Cd       0.09242    0.94843    0.20716    1.000
    O38      O        0.94720    0.85110    0.15020    1.000
    O39      O        0.93499    0.97195    0.10547    1.000
    O40      O        0.49150    0.84540    0.89330    1.000
    O41      O        0.59150    0.97910    0.98680    1.000
    O42      O        0.49510    0.10363    0.89189    1.000
    O43      O        0.47280    0.11782    0.75572    1.000
    O44      O        0.72500    0.57650    0.07790    1.000
    N8       N        0.64020    0.59940    0.95240    1.000
    H59      H        0.59830    0.57140    0.89860    1.000
    C89      C        0.79710    0.84250    0.05650    1.000
    C90      C        0.76670    0.74660    0.03400    1.000
    H60      H        0.80960    0.71430    0.05470    1.000
    C91      C        0.67370    0.69760    0.98140    1.000
    C92      C        0.61160    0.74560    0.95160    1.000
    H61      H        0.54900    0.71260    0.91290    1.000
    C93      C        0.64070    0.84160    0.97820    1.000
    C94      C        0.73410    0.89070    0.02970    1.000
    H62      H        0.75440    0.95630    0.04630    1.000
    C95      C        0.62380    0.44320    0.95690    1.000
    C96      C        0.61220    0.38870    0.01010    1.000
    H63      H        0.63010    0.41690    0.07310    1.000
    C97      C        0.57490    0.29330    0.97290    1.000
    H64      H        0.56710    0.25650    0.01020    1.000
    C98      C        0.54880    0.25160    0.88100    1.000
    C99      C        0.56200    0.30600    0.82750    1.000
    H65      H        0.54570    0.27790    0.76470    1.000
    C100     C        0.59890    0.40110    0.86530    1.000
    H66      H        0.60720    0.43790    0.82820    1.000
    C101     C        0.66810    0.54530    0.00200    1.000
    C102     C        0.89970    0.89200    0.10690    1.000
    C103     C        0.57010    0.89150    0.95110    1.000
    C104     C        0.50190    0.14880    0.83940    1.000
    Cd9      Cd       0.00000    0.00000    0.00000    1.000
