data_functionalizedCrystal
_audit_creation_method	'EQeq! by Chris Wilmer'
_symmetry_space_group_name_H-M	'P1'
_symmetry_Int_Tables_number	1
_symmetry_cell_setting	triclinic
loop_
_symmetry_equiv_pos_as_xyz
  x,y,z
_cell_length_a	27.122
_cell_length_b	13.692
_cell_length_c	45.963
_cell_angle_alpha	90
_cell_angle_beta	90
_cell_angle_gamma	90
loop_
_atom_site_label
_atom_site_type_symbol
_atom_site_fract_x
_atom_site_fract_y
_atom_site_fract_z
_atom_site_charge
Mof_Zn	Zn	0.45069	0.36111	0.06858	1.165
Mof_Zn	Zn	0.25254	0.35077	0.80985	1.166
Mof_Zn	Zn	0.46719	0.15011	0.90729	1.165
Mof_I 	I 	0.51754	0.45682	0.09457	-0.368
Mof_I 	I 	0.45468	0.17878	0.0576	-0.372
Mof_I 	I 	0.16129	0.33833	0.82207	-0.373
Mof_I 	I 	0.30394	0.19588	0.80255	-0.366
Mof_I 	I 	0.42038	0.22888	0.86589	-0.364
Mof_I 	I 	0.47976	0.23275	0.95624	-0.383
Mof_C 	C 	0.3078	0.3829	0.86408	0.078
Mof_H 	H 	0.308	0.3135	0.8643	-0.01
Mof_C 	C 	0.3283	0.4323	0.88699	-0.119
Mof_H 	H 	0.3423	0.3973	0.9028	0.085
Mof_C 	C 	0.2877	0.5259	0.84169	0.078
Mof_H 	H 	0.2731	0.5592	0.8258	-0.015
Mof_C 	C 	0.3078	0.5803	0.86367	-0.125
Mof_H 	H 	0.3074	0.6497	0.8629	0.079
Mof_C 	C 	0.3286	0.5322	0.88693	0.066
Mof_C 	C 	0.3513	0.5874	0.91134	0.104
Mof_C 	C 	0.4288	0.954	0.89305	0.086
Mof_H 	H 	0.4357	0.9765	0.8739	-0.015
Mof_C 	C 	0.411	0.8612	0.89642	-0.137
Mof_H 	H 	0.4051	0.8209	0.88	0.099
Mof_C 	C 	0.4267	0.9824	0.94143	0.09
Mof_H 	H 	0.4312	0.0255	0.9574	-0.012
Mof_C 	C 	0.4096	0.8901	0.9469	-0.133
Mof_H 	H 	0.4034	0.8699	0.9663	0.087
Mof_C 	C 	0.4015	0.827	0.92424	0.064
Mof_C 	C 	0.3853	0.7249	0.92872	0.093
Mof_C 	C 	0.446	0.5258	0.02599	0.068
Mof_H 	H 	0.4671	0.5562	0.0398	-0.004
Mof_C 	C 	0.4307	0.5789	0.00277	-0.124
Mof_H 	H 	0.4411	0.6447	0.0004	0.084
Mof_C 	C 	0.4037	0.3895	0.01092	0.067
Mof_H 	H 	0.3946	0.323	0.0135	-0.008
Mof_C 	C 	0.3862	0.4401	0.98672	-0.112
Mof_H 	H 	0.3651	0.4085	0.9732	0.078
Mof_C 	C 	0.3996	0.5357	0.98241	0.05
Mof_C 	C 	0.3832	0.5901	0.9563	0.101
Mof_C 	C 	0.3429	0.3743	0.08096	0.075
Mof_H 	H 	0.3404	0.3548	0.0612	-0.019
Mof_C 	C 	0.3001	0.3892	0.09633	-0.124
Mof_H 	H 	0.2689	0.3807	0.0873	0.08
Mof_C 	C 	0.3905	0.4123	0.12051	0.063
Mof_H 	H 	0.4222	0.4204	0.129	-0.01
Mof_C 	C 	0.3496	0.428	0.13741	-0.119
Mof_H 	H 	0.353	0.4463	0.1572	0.081
Mof_C 	C 	0.3034	0.4167	0.12531	0.054
Mof_C 	C 	0.2585	0.4316	0.14278	0.103
Mof_C 	C 	0.2787	0.5391	0.25739	0.065
Mof_H 	H 	0.3103	0.542	0.2662	-0
Mof_C 	C 	0.2748	0.504	0.22942	-0.115
Mof_H 	H 	0.3035	0.4837	0.2192	0.081
Mof_C 	C 	0.1957	0.561	0.2604	0.074
Mof_H 	H 	0.1676	0.5802	0.2713	-0.015
Mof_C 	C 	0.1884	0.5259	0.23256	-0.122
Mof_H 	H 	0.1562	0.5205	0.2247	0.082
Mof_C 	C 	0.2291	0.4986	0.2164	0.053
Mof_C 	C 	0.2237	0.4686	0.18569	0.104
Mof_C 	C 	0.0401	0.4013	0.13895	0.067
Mof_H 	H 	0.0118	0.3984	0.1511	-0.006
Mof_C 	C 	0.0854	0.4194	0.15155	-0.117
Mof_H 	H 	0.0879	0.4311	0.1719	0.08
Mof_C 	C 	0.0745	0.392	0.09372	0.072
Mof_H 	H 	0.0708	0.3838	0.0733	-0.011
Mof_C 	C 	0.1209	0.4079	0.10462	-0.119
Mof_H 	H 	0.1486	0.4102	0.092	0.08
Mof_C 	C 	0.1269	0.4204	0.1343	0.053
Mof_C 	C 	0.1762	0.4337	0.14709	0.102
Mof_N 	N 	0.2875	0.4284	0.84148	-0.279
Mof_N 	N 	0.437	0.0142	0.91521	-0.28
Mof_N 	N 	0.43274	0.4323	0.03049	-0.272
Mof_N 	N 	0.3633	0.6807	0.90641	-0.134
Mof_N 	N 	0.39548	0.684	0.95436	-0.143
Mof_N 	N 	0.36001	0.5382	0.93597	-0.136
Mof_N 	N 	0.38765	0.386	0.09242	-0.276
Mof_N 	N 	0.2395	0.5694	0.27262	-0.277
Mof_N 	N 	0.03459	0.3876	0.11037	-0.272
Mof_N 	N 	0.26518	0.455	0.17076	-0.14
Mof_N 	N 	0.17829	0.4587	0.17538	-0.14
Mof_N 	N 	0.21493	0.4207	0.13003	-0.141
Mof_Zn	Zn	0.04931	0.63889	0.56858	1.164
Mof_Zn	Zn	0.24746	0.64923	0.30985	1.165
Mof_Zn	Zn	0.03281	0.84989	0.40729	1.164
Mof_I 	I 	0.98246	0.54318	0.59457	-0.369
Mof_I 	I 	0.04532	0.82122	0.5576	-0.374
Mof_I 	I 	0.33871	0.66167	0.32207	-0.374
Mof_I 	I 	0.19606	0.80412	0.30255	-0.367
Mof_I 	I 	0.07962	0.77112	0.36589	-0.365
Mof_I 	I 	0.02024	0.76725	0.45624	-0.384
Mof_C 	C 	0.1922	0.6171	0.36408	0.077
Mof_H 	H 	0.192	0.6865	0.3643	-0.011
Mof_C 	C 	0.1717	0.5677	0.38699	-0.12
Mof_H 	H 	0.1577	0.6027	0.4028	0.084
Mof_C 	C 	0.2123	0.4741	0.34169	0.077
Mof_H 	H 	0.2269	0.4408	0.3258	-0.016
Mof_C 	C 	0.1922	0.4197	0.36367	-0.126
Mof_H 	H 	0.1926	0.3503	0.3629	0.078
Mof_C 	C 	0.1714	0.4678	0.38693	0.065
Mof_C 	C 	0.1487	0.4126	0.41134	0.104
Mof_C 	C 	0.0712	0.046	0.39305	0.087
Mof_H 	H 	0.0643	0.0235	0.3739	-0.015
Mof_C 	C 	0.089	0.1388	0.39642	-0.138
Mof_H 	H 	0.0949	0.1791	0.38	0.099
Mof_C 	C 	0.0733	0.0176	0.44143	0.092
Mof_H 	H 	0.0688	0.9745	0.4574	-0.013
Mof_C 	C 	0.0904	0.1099	0.4469	-0.134
Mof_H 	H 	0.0966	0.1301	0.4663	0.088
Mof_C 	C 	0.0985	0.173	0.42424	0.065
Mof_C 	C 	0.1147	0.2751	0.42872	0.093
Mof_C 	C 	0.054	0.4742	0.52599	0.068
Mof_H 	H 	0.0329	0.4438	0.5398	-0.004
Mof_C 	C 	0.0693	0.4211	0.50277	-0.124
Mof_H 	H 	0.0589	0.3553	0.5004	0.084
Mof_C 	C 	0.0963	0.6105	0.51092	0.067
Mof_H 	H 	0.1054	0.677	0.5135	-0.008
Mof_C 	C 	0.1138	0.5599	0.48672	-0.112
Mof_H 	H 	0.1349	0.5915	0.4732	0.078
Mof_C 	C 	0.1004	0.4643	0.48241	0.05
Mof_C 	C 	0.1168	0.4099	0.4563	0.101
Mof_C 	C 	0.1571	0.6257	0.58096	0.075
Mof_H 	H 	0.1596	0.6452	0.5612	-0.019
Mof_C 	C 	0.1999	0.6108	0.59633	-0.124
Mof_H 	H 	0.2311	0.6193	0.5873	0.08
Mof_C 	C 	0.1095	0.5877	0.62051	0.063
Mof_H 	H 	0.0778	0.5796	0.629	-0.01
Mof_C 	C 	0.1504	0.572	0.63741	-0.119
Mof_H 	H 	0.147	0.5537	0.6572	0.081
Mof_C 	C 	0.1966	0.5833	0.62531	0.054
Mof_C 	C 	0.2415	0.5684	0.64278	0.103
Mof_C 	C 	0.2213	0.4609	0.75739	0.065
Mof_H 	H 	0.1897	0.458	0.7662	-0
Mof_C 	C 	0.2252	0.496	0.72942	-0.115
Mof_H 	H 	0.1965	0.5163	0.7192	0.081
Mof_C 	C 	0.3043	0.439	0.7604	0.074
Mof_H 	H 	0.3324	0.4198	0.7713	-0.015
Mof_C 	C 	0.3116	0.4741	0.73256	-0.122
Mof_H 	H 	0.3438	0.4795	0.7247	0.082
Mof_C 	C 	0.2709	0.5014	0.7164	0.053
Mof_C 	C 	0.2763	0.5314	0.68569	0.104
Mof_C 	C 	0.4599	0.5987	0.63895	0.067
Mof_H 	H 	0.4882	0.6016	0.6511	-0.006
Mof_C 	C 	0.4146	0.5806	0.65155	-0.117
Mof_H 	H 	0.4121	0.5689	0.6719	0.08
Mof_C 	C 	0.4255	0.608	0.59372	0.072
Mof_H 	H 	0.4292	0.6162	0.5733	-0.011
Mof_C 	C 	0.3791	0.5921	0.60462	-0.119
Mof_H 	H 	0.3514	0.5898	0.592	0.08
Mof_C 	C 	0.3731	0.5796	0.6343	0.053
Mof_C 	C 	0.3238	0.5663	0.64709	0.102
Mof_N 	N 	0.2125	0.5716	0.34148	-0.279
Mof_N 	N 	0.063	0.9858	0.41521	-0.281
Mof_N 	N 	0.06726	0.5677	0.53049	-0.272
Mof_N 	N 	0.1367	0.3193	0.40641	-0.134
Mof_N 	N 	0.10452	0.316	0.45436	-0.143
Mof_N 	N 	0.13999	0.4618	0.43597	-0.136
Mof_N 	N 	0.11235	0.614	0.59242	-0.276
Mof_N 	N 	0.2605	0.4306	0.77262	-0.277
Mof_N 	N 	0.46541	0.6124	0.61037	-0.272
Mof_N 	N 	0.23482	0.545	0.67076	-0.14
Mof_N 	N 	0.32171	0.5413	0.67538	-0.14
Mof_N 	N 	0.28507	0.5793	0.63003	-0.141
Mof_Zn	Zn	0.54931	0.86111	0.43141	1.164
Mof_Zn	Zn	0.74746	0.85077	0.69015	1.165
Mof_Zn	Zn	0.53281	0.65011	0.59271	1.164
Mof_I 	I 	0.48246	0.95682	0.40542	-0.37
Mof_I 	I 	0.54532	0.67878	0.4424	-0.373
Mof_I 	I 	0.83871	0.83833	0.67793	-0.374
Mof_I 	I 	0.69606	0.69588	0.69745	-0.366
Mof_I 	I 	0.57962	0.72888	0.63411	-0.365
Mof_I 	I 	0.52024	0.73275	0.54376	-0.384
Mof_C 	C 	0.6922	0.8829	0.63592	0.076
Mof_H 	H 	0.692	0.8135	0.6357	-0.01
Mof_C 	C 	0.6717	0.9323	0.61301	-0.119
Mof_H 	H 	0.6577	0.8973	0.5972	0.084
Mof_C 	C 	0.7123	0.0259	0.65831	0.076
Mof_H 	H 	0.7269	0.0592	0.6742	-0.016
Mof_C 	C 	0.6922	0.0803	0.63633	-0.125
Mof_H 	H 	0.6926	0.1497	0.6371	0.077
Mof_C 	C 	0.6714	0.0322	0.61307	0.064
Mof_C 	C 	0.6487	0.0874	0.58866	0.104
Mof_C 	C 	0.5712	0.454	0.60695	0.085
Mof_H 	H 	0.5643	0.4765	0.6261	-0.015
Mof_C 	C 	0.589	0.3612	0.60358	-0.137
Mof_H 	H 	0.5949	0.3209	0.62	0.099
Mof_C 	C 	0.5733	0.4824	0.55857	0.089
Mof_H 	H 	0.5688	0.5255	0.5426	-0.012
Mof_C 	C 	0.5904	0.3901	0.5531	-0.132
Mof_H 	H 	0.5966	0.3699	0.5337	0.087
Mof_C 	C 	0.5985	0.327	0.57576	0.064
Mof_C 	C 	0.6147	0.2249	0.57128	0.093
Mof_C 	C 	0.554	0.0258	0.47401	0.068
Mof_H 	H 	0.5329	0.0562	0.4602	-0.004
Mof_C 	C 	0.5693	0.0789	0.49723	-0.123
Mof_H 	H 	0.5589	0.1447	0.4996	0.084
Mof_C 	C 	0.5963	0.8895	0.48908	0.067
Mof_H 	H 	0.6054	0.823	0.4865	-0.008
Mof_C 	C 	0.6138	0.9401	0.51328	-0.112
Mof_H 	H 	0.6349	0.9085	0.5268	0.078
Mof_C 	C 	0.6004	0.0357	0.51759	0.05
Mof_C 	C 	0.6168	0.0901	0.5437	0.101
Mof_C 	C 	0.6571	0.8743	0.41904	0.075
Mof_H 	H 	0.6596	0.8548	0.4388	-0.019
Mof_C 	C 	0.6999	0.8892	0.40367	-0.124
Mof_H 	H 	0.7311	0.8807	0.4127	0.08
Mof_C 	C 	0.6095	0.9123	0.37949	0.063
Mof_H 	H 	0.5778	0.9204	0.371	-0.01
Mof_C 	C 	0.6504	0.928	0.36259	-0.119
Mof_H 	H 	0.647	0.9463	0.3428	0.081
Mof_C 	C 	0.6966	0.9167	0.37469	0.054
Mof_C 	C 	0.7415	0.9316	0.35722	0.103
Mof_C 	C 	0.7213	0.0391	0.24261	0.064
Mof_H 	H 	0.6897	0.042	0.2338	-0
Mof_C 	C 	0.7252	0.004	0.27058	-0.114
Mof_H 	H 	0.6965	0.9837	0.2808	0.081
Mof_C 	C 	0.8043	0.061	0.2396	0.074
Mof_H 	H 	0.8324	0.0802	0.2287	-0.015
Mof_C 	C 	0.8116	0.0259	0.26744	-0.122
Mof_H 	H 	0.8438	0.0205	0.2753	0.082
Mof_C 	C 	0.7709	0.9986	0.2836	0.053
Mof_C 	C 	0.7763	0.9686	0.31431	0.104
Mof_C 	C 	0.9599	0.9013	0.36105	0.067
Mof_H 	H 	0.9882	0.8984	0.3489	-0.006
Mof_C 	C 	0.9146	0.9194	0.34845	-0.117
Mof_H 	H 	0.9121	0.9311	0.3281	0.08
Mof_C 	C 	0.9255	0.892	0.40628	0.072
Mof_H 	H 	0.9292	0.8838	0.4267	-0.011
Mof_C 	C 	0.8791	0.9079	0.39538	-0.119
Mof_H 	H 	0.8514	0.9102	0.408	0.08
Mof_C 	C 	0.8731	0.9204	0.3657	0.053
Mof_C 	C 	0.8238	0.9337	0.35291	0.102
Mof_N 	N 	0.7125	0.9284	0.65852	-0.279
Mof_N 	N 	0.563	0.5142	0.58479	-0.279
Mof_N 	N 	0.56726	0.9323	0.46951	-0.272
Mof_N 	N 	0.6367	0.1807	0.59359	-0.134
Mof_N 	N 	0.60452	0.184	0.54564	-0.143
Mof_N 	N 	0.63999	0.0382	0.56403	-0.136
Mof_N 	N 	0.61235	0.886	0.40758	-0.276
Mof_N 	N 	0.7605	0.0694	0.22738	-0.277
Mof_N 	N 	0.96541	0.8876	0.38963	-0.272
Mof_N 	N 	0.73482	0.955	0.32924	-0.14
Mof_N 	N 	0.82171	0.9587	0.32462	-0.14
Mof_N 	N 	0.78507	0.9207	0.36997	-0.141
Mof_Zn	Zn	0.95069	0.13889	0.93141	1.164
Mof_Zn	Zn	0.75254	0.14923	0.19015	1.165
Mof_Zn	Zn	0.96719	0.34989	0.09271	1.164
Mof_I 	I 	0.01754	0.04318	0.90542	-0.369
Mof_I 	I 	0.95468	0.32122	0.9424	-0.373
Mof_I 	I 	0.66129	0.16167	0.17793	-0.374
Mof_I 	I 	0.80394	0.30412	0.19745	-0.367
Mof_I 	I 	0.92038	0.27112	0.13411	-0.365
Mof_I 	I 	0.97976	0.26725	0.04376	-0.384
Mof_C 	C 	0.8078	0.1171	0.13592	0.077
Mof_H 	H 	0.808	0.1865	0.1357	-0.011
Mof_C 	C 	0.8283	0.0677	0.11301	-0.121
Mof_H 	H 	0.8423	0.1027	0.0972	0.084
Mof_C 	C 	0.7877	0.9741	0.15831	0.077
Mof_H 	H 	0.7731	0.9408	0.1742	-0.016
Mof_C 	C 	0.8078	0.9197	0.13633	-0.126
Mof_H 	H 	0.8074	0.8503	0.1371	0.078
Mof_C 	C 	0.8286	0.9678	0.11307	0.066
Mof_C 	C 	0.8513	0.9126	0.08866	0.104
Mof_C 	C 	0.9288	0.546	0.10695	0.085
Mof_H 	H 	0.9357	0.5235	0.1261	-0.015
Mof_C 	C 	0.911	0.6388	0.10358	-0.137
Mof_H 	H 	0.9051	0.6791	0.12	0.099
Mof_C 	C 	0.9267	0.5176	0.05857	0.089
Mof_H 	H 	0.9312	0.4745	0.0426	-0.012
Mof_C 	C 	0.9096	0.6099	0.0531	-0.132
Mof_H 	H 	0.9034	0.6301	0.0337	0.087
Mof_C 	C 	0.9015	0.673	0.07576	0.064
Mof_C 	C 	0.8853	0.7751	0.07128	0.093
Mof_C 	C 	0.946	0.9742	0.97401	0.069
Mof_H 	H 	0.9671	0.9438	0.9602	-0.004
Mof_C 	C 	0.9307	0.9211	0.99723	-0.124
Mof_H 	H 	0.9411	0.8553	0.9996	0.085
Mof_C 	C 	0.9037	0.1105	0.98908	0.067
Mof_H 	H 	0.8946	0.177	0.9865	-0.008
Mof_C 	C 	0.8862	0.0599	0.01328	-0.113
Mof_H 	H 	0.8651	0.0915	0.0268	0.079
Mof_C 	C 	0.8996	0.9643	0.01759	0.051
Mof_C 	C 	0.8832	0.9099	0.0437	0.101
Mof_C 	C 	0.8429	0.1257	0.91904	0.075
Mof_H 	H 	0.8404	0.1452	0.9388	-0.019
Mof_C 	C 	0.8001	0.1108	0.90367	-0.124
Mof_H 	H 	0.7689	0.1193	0.9127	0.08
Mof_C 	C 	0.8905	0.0877	0.87949	0.063
Mof_H 	H 	0.9222	0.0796	0.871	-0.01
Mof_C 	C 	0.8496	0.072	0.86259	-0.119
Mof_H 	H 	0.853	0.0537	0.8428	0.081
Mof_C 	C 	0.8034	0.0833	0.87469	0.054
Mof_C 	C 	0.7585	0.0684	0.85722	0.103
Mof_C 	C 	0.7787	0.9609	0.74261	0.063
Mof_H 	H 	0.8103	0.958	0.7338	0
Mof_C 	C 	0.7748	0.996	0.77058	-0.111
Mof_H 	H 	0.8035	0.0163	0.7808	0.08
Mof_C 	C 	0.6957	0.939	0.7396	0.073
Mof_H 	H 	0.6676	0.9198	0.7287	-0.014
Mof_C 	C 	0.6884	0.9741	0.76744	-0.12
Mof_H 	H 	0.6562	0.9795	0.7753	0.082
Mof_C 	C 	0.7291	0.0014	0.7836	0.05
Mof_C 	C 	0.7237	0.0314	0.81431	0.104
Mof_C 	C 	0.5401	0.0987	0.86105	0.067
Mof_H 	H 	0.5118	0.1016	0.8489	-0.006
Mof_C 	C 	0.5854	0.0806	0.84845	-0.117
Mof_H 	H 	0.5879	0.0689	0.8281	0.08
Mof_C 	C 	0.5745	0.108	0.90628	0.072
Mof_H 	H 	0.5708	0.1162	0.9267	-0.011
Mof_C 	C 	0.6209	0.0921	0.89538	-0.119
Mof_H 	H 	0.6486	0.0898	0.908	0.08
Mof_C 	C 	0.6269	0.0796	0.8657	0.053
Mof_C 	C 	0.6762	0.0663	0.85291	0.102
Mof_N 	N 	0.7875	0.0716	0.15852	-0.279
Mof_N 	N 	0.937	0.4858	0.08479	-0.279
Mof_N 	N 	0.93274	0.0677	0.96951	-0.273
Mof_N 	N 	0.8633	0.8193	0.09359	-0.134
Mof_N 	N 	0.89548	0.816	0.04564	-0.143
Mof_N 	N 	0.86001	0.9618	0.06403	-0.136
Mof_N 	N 	0.88765	0.114	0.90758	-0.276
Mof_N 	N 	0.7395	0.9306	0.72738	-0.276
Mof_N 	N 	0.53459	0.1124	0.88963	-0.272
Mof_N 	N 	0.76518	0.045	0.82924	-0.14
Mof_N 	N 	0.67829	0.0413	0.82462	-0.14
Mof_N 	N 	0.71493	0.0793	0.86997	-0.141
Mof_Zn	Zn	0.54931	0.63889	0.93141	1.164
Mof_Zn	Zn	0.74746	0.64923	0.19015	1.165
Mof_Zn	Zn	0.53281	0.84989	0.09271	1.164
Mof_I 	I 	0.48246	0.54318	0.90542	-0.369
Mof_I 	I 	0.54532	0.82122	0.9424	-0.373
Mof_I 	I 	0.83871	0.66167	0.17793	-0.374
Mof_I 	I 	0.69606	0.80412	0.19745	-0.367
Mof_I 	I 	0.57962	0.77112	0.13411	-0.365
Mof_I 	I 	0.52024	0.76725	0.04376	-0.384
Mof_C 	C 	0.6922	0.6171	0.13592	0.077
Mof_H 	H 	0.692	0.6865	0.1357	-0.011
Mof_C 	C 	0.6717	0.5677	0.11301	-0.12
Mof_H 	H 	0.6577	0.6027	0.0972	0.084
Mof_C 	C 	0.7123	0.4741	0.15831	0.077
Mof_H 	H 	0.7269	0.4408	0.1742	-0.016
Mof_C 	C 	0.6922	0.4197	0.13633	-0.126
Mof_H 	H 	0.6926	0.3503	0.1371	0.078
Mof_C 	C 	0.6714	0.4678	0.11307	0.065
Mof_C 	C 	0.6487	0.4126	0.08866	0.104
Mof_C 	C 	0.5712	0.046	0.10695	0.086
Mof_H 	H 	0.5643	0.0235	0.1261	-0.015
Mof_C 	C 	0.589	0.1388	0.10358	-0.137
Mof_H 	H 	0.5949	0.1791	0.12	0.099
Mof_C 	C 	0.5733	0.0176	0.05857	0.09
Mof_H 	H 	0.5688	0.9745	0.0426	-0.012
Mof_C 	C 	0.5904	0.1099	0.0531	-0.133
Mof_H 	H 	0.5966	0.1301	0.0337	0.087
Mof_C 	C 	0.5985	0.173	0.07576	0.064
Mof_C 	C 	0.6147	0.2751	0.07128	0.093
Mof_C 	C 	0.554	0.4742	0.97401	0.068
Mof_H 	H 	0.5329	0.4438	0.9602	-0.004
Mof_C 	C 	0.5693	0.4211	0.99723	-0.124
Mof_H 	H 	0.5589	0.3553	0.9996	0.084
Mof_C 	C 	0.5963	0.6105	0.98908	0.067
Mof_H 	H 	0.6054	0.677	0.9865	-0.008
Mof_C 	C 	0.6138	0.5599	0.01328	-0.112
Mof_H 	H 	0.6349	0.5915	0.0268	0.078
Mof_C 	C 	0.6004	0.4643	0.01759	0.05
Mof_C 	C 	0.6168	0.4099	0.0437	0.101
Mof_C 	C 	0.6571	0.6257	0.91904	0.075
Mof_H 	H 	0.6596	0.6452	0.9388	-0.019
Mof_C 	C 	0.6999	0.6108	0.90367	-0.124
Mof_H 	H 	0.7311	0.6193	0.9127	0.08
Mof_C 	C 	0.6095	0.5877	0.87949	0.063
Mof_H 	H 	0.5778	0.5796	0.871	-0.01
Mof_C 	C 	0.6504	0.572	0.86259	-0.119
Mof_H 	H 	0.647	0.5537	0.8428	0.081
Mof_C 	C 	0.6966	0.5833	0.87469	0.054
Mof_C 	C 	0.7415	0.5684	0.85722	0.103
Mof_C 	C 	0.7213	0.4609	0.74261	0.065
Mof_H 	H 	0.6897	0.458	0.7338	-0
Mof_C 	C 	0.7252	0.496	0.77058	-0.115
Mof_H 	H 	0.6965	0.5163	0.7808	0.081
Mof_C 	C 	0.8043	0.439	0.7396	0.074
Mof_H 	H 	0.8324	0.4198	0.7287	-0.015
Mof_C 	C 	0.8116	0.4741	0.76744	-0.122
Mof_H 	H 	0.8438	0.4795	0.7753	0.082
Mof_C 	C 	0.7709	0.5014	0.7836	0.053
Mof_C 	C 	0.7763	0.5314	0.81431	0.104
Mof_C 	C 	0.9599	0.5987	0.86105	0.067
Mof_H 	H 	0.9882	0.6016	0.8489	-0.006
Mof_C 	C 	0.9146	0.5806	0.84845	-0.117
Mof_H 	H 	0.9121	0.5689	0.8281	0.08
Mof_C 	C 	0.9255	0.608	0.90628	0.072
Mof_H 	H 	0.9292	0.6162	0.9267	-0.011
Mof_C 	C 	0.8791	0.5921	0.89538	-0.119
Mof_H 	H 	0.8514	0.5898	0.908	0.08
Mof_C 	C 	0.8731	0.5796	0.8657	0.053
Mof_C 	C 	0.8238	0.5663	0.85291	0.102
Mof_N 	N 	0.7125	0.5716	0.15852	-0.279
Mof_N 	N 	0.563	0.9858	0.08479	-0.28
Mof_N 	N 	0.56726	0.5677	0.96951	-0.272
Mof_N 	N 	0.6367	0.3193	0.09359	-0.134
Mof_N 	N 	0.60452	0.316	0.04564	-0.143
Mof_N 	N 	0.63999	0.4618	0.06403	-0.136
Mof_N 	N 	0.61235	0.614	0.90758	-0.276
Mof_N 	N 	0.7605	0.4306	0.72738	-0.277
Mof_N 	N 	0.96541	0.6124	0.88963	-0.272
Mof_N 	N 	0.73482	0.545	0.82924	-0.14
Mof_N 	N 	0.82171	0.5413	0.82462	-0.14
Mof_N 	N 	0.78507	0.5793	0.86997	-0.141
Mof_Zn	Zn	0.95069	0.36111	0.43141	1.164
Mof_Zn	Zn	0.75254	0.35077	0.69015	1.165
Mof_Zn	Zn	0.96719	0.15011	0.59271	1.164
Mof_I 	I 	0.01754	0.45682	0.40542	-0.369
Mof_I 	I 	0.95468	0.17878	0.4424	-0.374
Mof_I 	I 	0.66129	0.33833	0.67793	-0.374
Mof_I 	I 	0.80394	0.19588	0.69745	-0.367
Mof_I 	I 	0.92038	0.22888	0.63411	-0.365
Mof_I 	I 	0.97976	0.23275	0.54376	-0.384
Mof_C 	C 	0.8078	0.3829	0.63592	0.077
Mof_H 	H 	0.808	0.3135	0.6357	-0.011
Mof_C 	C 	0.8283	0.4323	0.61301	-0.12
Mof_H 	H 	0.8423	0.3973	0.5972	0.084
Mof_C 	C 	0.7877	0.5259	0.65831	0.077
Mof_H 	H 	0.7731	0.5592	0.6742	-0.016
Mof_C 	C 	0.8078	0.5803	0.63633	-0.126
Mof_H 	H 	0.8074	0.6497	0.6371	0.078
Mof_C 	C 	0.8286	0.5322	0.61307	0.065
Mof_C 	C 	0.8513	0.5874	0.58866	0.104
Mof_C 	C 	0.9288	0.954	0.60695	0.087
Mof_H 	H 	0.9357	0.9765	0.6261	-0.015
Mof_C 	C 	0.911	0.8612	0.60358	-0.138
Mof_H 	H 	0.9051	0.8209	0.62	0.099
Mof_C 	C 	0.9267	0.9824	0.55857	0.092
Mof_H 	H 	0.9312	0.0255	0.5426	-0.013
Mof_C 	C 	0.9096	0.8901	0.5531	-0.134
Mof_H 	H 	0.9034	0.8699	0.5337	0.088
Mof_C 	C 	0.9015	0.827	0.57576	0.065
Mof_C 	C 	0.8853	0.7249	0.57128	0.093
Mof_C 	C 	0.946	0.5258	0.47401	0.068
Mof_H 	H 	0.9671	0.5562	0.4602	-0.004
Mof_C 	C 	0.9307	0.5789	0.49723	-0.124
Mof_H 	H 	0.9411	0.6447	0.4996	0.084
Mof_C 	C 	0.9037	0.3895	0.48908	0.067
Mof_H 	H 	0.8946	0.323	0.4865	-0.008
Mof_C 	C 	0.8862	0.4401	0.51328	-0.112
Mof_H 	H 	0.8651	0.4085	0.5268	0.078
Mof_C 	C 	0.8996	0.5357	0.51759	0.05
Mof_C 	C 	0.8832	0.5901	0.5437	0.101
Mof_C 	C 	0.8429	0.3743	0.41904	0.075
Mof_H 	H 	0.8404	0.3548	0.4388	-0.019
Mof_C 	C 	0.8001	0.3892	0.40367	-0.124
Mof_H 	H 	0.7689	0.3807	0.4127	0.08
Mof_C 	C 	0.8905	0.4123	0.37949	0.063
Mof_H 	H 	0.9222	0.4204	0.371	-0.01
Mof_C 	C 	0.8496	0.428	0.36259	-0.119
Mof_H 	H 	0.853	0.4463	0.3428	0.081
Mof_C 	C 	0.8034	0.4167	0.37469	0.054
Mof_C 	C 	0.7585	0.4316	0.35722	0.103
Mof_C 	C 	0.7787	0.5391	0.24261	0.065
Mof_H 	H 	0.8103	0.542	0.2338	-0
Mof_C 	C 	0.7748	0.504	0.27058	-0.115
Mof_H 	H 	0.8035	0.4837	0.2808	0.081
Mof_C 	C 	0.6957	0.561	0.2396	0.074
Mof_H 	H 	0.6676	0.5802	0.2287	-0.015
Mof_C 	C 	0.6884	0.5259	0.26744	-0.122
Mof_H 	H 	0.6562	0.5205	0.2753	0.082
Mof_C 	C 	0.7291	0.4986	0.2836	0.053
Mof_C 	C 	0.7237	0.4686	0.31431	0.104
Mof_C 	C 	0.5401	0.4013	0.36105	0.067
Mof_H 	H 	0.5118	0.3984	0.3489	-0.006
Mof_C 	C 	0.5854	0.4194	0.34845	-0.117
Mof_H 	H 	0.5879	0.4311	0.3281	0.08
Mof_C 	C 	0.5745	0.392	0.40628	0.072
Mof_H 	H 	0.5708	0.3838	0.4267	-0.011
Mof_C 	C 	0.6209	0.4079	0.39538	-0.119
Mof_H 	H 	0.6486	0.4102	0.408	0.08
Mof_C 	C 	0.6269	0.4204	0.3657	0.053
Mof_C 	C 	0.6762	0.4337	0.35291	0.102
Mof_N 	N 	0.7875	0.4284	0.65852	-0.279
Mof_N 	N 	0.937	0.0142	0.58479	-0.281
Mof_N 	N 	0.93274	0.4323	0.46951	-0.272
Mof_N 	N 	0.8633	0.6807	0.59359	-0.134
Mof_N 	N 	0.89548	0.684	0.54564	-0.143
Mof_N 	N 	0.86001	0.5382	0.56403	-0.136
Mof_N 	N 	0.88765	0.386	0.40758	-0.276
Mof_N 	N 	0.7395	0.5694	0.22738	-0.277
Mof_N 	N 	0.53459	0.3876	0.38963	-0.272
Mof_N 	N 	0.76518	0.455	0.32924	-0.14
Mof_N 	N 	0.67829	0.4587	0.32462	-0.14
Mof_N 	N 	0.71493	0.4207	0.36997	-0.141
Mof_Zn	Zn	0.45069	0.13889	0.56858	1.164
Mof_Zn	Zn	0.25254	0.14923	0.30985	1.165
Mof_Zn	Zn	0.46719	0.34989	0.40729	1.164
Mof_I 	I 	0.51754	0.04318	0.59457	-0.37
Mof_I 	I 	0.45468	0.32122	0.5576	-0.373
Mof_I 	I 	0.16129	0.16167	0.32207	-0.374
Mof_I 	I 	0.30394	0.30412	0.30255	-0.366
Mof_I 	I 	0.42038	0.27112	0.36589	-0.365
Mof_I 	I 	0.47976	0.26725	0.45624	-0.384
Mof_C 	C 	0.3078	0.1171	0.36408	0.076
Mof_H 	H 	0.308	0.1865	0.3643	-0.01
Mof_C 	C 	0.3283	0.0677	0.38699	-0.119
Mof_H 	H 	0.3423	0.1027	0.4028	0.084
Mof_C 	C 	0.2877	0.9741	0.34169	0.076
Mof_H 	H 	0.2731	0.9408	0.3258	-0.016
Mof_C 	C 	0.3078	0.9197	0.36367	-0.125
Mof_H 	H 	0.3074	0.8503	0.3629	0.077
Mof_C 	C 	0.3286	0.9678	0.38693	0.064
Mof_C 	C 	0.3513	0.9126	0.41134	0.104
Mof_C 	C 	0.4288	0.546	0.39305	0.085
Mof_H 	H 	0.4357	0.5235	0.3739	-0.015
Mof_C 	C 	0.411	0.6388	0.39642	-0.137
Mof_H 	H 	0.4051	0.6791	0.38	0.099
Mof_C 	C 	0.4267	0.5176	0.44143	0.089
Mof_H 	H 	0.4312	0.4745	0.4574	-0.012
Mof_C 	C 	0.4096	0.6099	0.4469	-0.132
Mof_H 	H 	0.4034	0.6301	0.4663	0.087
Mof_C 	C 	0.4015	0.673	0.42424	0.064
Mof_C 	C 	0.3853	0.7751	0.42872	0.093
Mof_C 	C 	0.446	0.9742	0.52599	0.068
Mof_H 	H 	0.4671	0.9438	0.5398	-0.004
Mof_C 	C 	0.4307	0.9211	0.50277	-0.123
Mof_H 	H 	0.4411	0.8553	0.5004	0.084
Mof_C 	C 	0.4037	0.1105	0.51092	0.067
Mof_H 	H 	0.3946	0.177	0.5135	-0.008
Mof_C 	C 	0.3862	0.0599	0.48672	-0.112
Mof_H 	H 	0.3651	0.0915	0.4732	0.078
Mof_C 	C 	0.3996	0.9643	0.48241	0.05
Mof_C 	C 	0.3832	0.9099	0.4563	0.101
Mof_C 	C 	0.3429	0.1257	0.58096	0.075
Mof_H 	H 	0.3404	0.1452	0.5612	-0.019
Mof_C 	C 	0.3001	0.1108	0.59633	-0.124
Mof_H 	H 	0.2689	0.1193	0.5873	0.08
Mof_C 	C 	0.3905	0.0877	0.62051	0.063
Mof_H 	H 	0.4222	0.0796	0.629	-0.01
Mof_C 	C 	0.3496	0.072	0.63741	-0.119
Mof_H 	H 	0.353	0.0537	0.6572	0.081
Mof_C 	C 	0.3034	0.0833	0.62531	0.054
Mof_C 	C 	0.2585	0.0684	0.64278	0.103
Mof_C 	C 	0.2787	0.9609	0.75739	0.064
Mof_H 	H 	0.3103	0.958	0.7662	-0
Mof_C 	C 	0.2748	0.996	0.72942	-0.114
Mof_H 	H 	0.3035	0.0163	0.7192	0.081
Mof_C 	C 	0.1957	0.939	0.7604	0.074
Mof_H 	H 	0.1676	0.9198	0.7713	-0.015
Mof_C 	C 	0.1884	0.9741	0.73256	-0.122
Mof_H 	H 	0.1562	0.9795	0.7247	0.082
Mof_C 	C 	0.2291	0.0014	0.7164	0.053
Mof_C 	C 	0.2237	0.0314	0.68569	0.104
Mof_C 	C 	0.0401	0.0987	0.63895	0.067
Mof_H 	H 	0.0118	0.1016	0.6511	-0.006
Mof_C 	C 	0.0854	0.0806	0.65155	-0.117
Mof_H 	H 	0.0879	0.0689	0.6719	0.08
Mof_C 	C 	0.0745	0.108	0.59372	0.072
Mof_H 	H 	0.0708	0.1162	0.5733	-0.011
Mof_C 	C 	0.1209	0.0921	0.60462	-0.119
Mof_H 	H 	0.1486	0.0898	0.592	0.08
Mof_C 	C 	0.1269	0.0796	0.6343	0.053
Mof_C 	C 	0.1762	0.0663	0.64709	0.102
Mof_N 	N 	0.2875	0.0716	0.34148	-0.279
Mof_N 	N 	0.437	0.4858	0.41521	-0.279
Mof_N 	N 	0.43274	0.0677	0.53049	-0.272
Mof_N 	N 	0.3633	0.8193	0.40641	-0.134
Mof_N 	N 	0.39548	0.816	0.45436	-0.143
Mof_N 	N 	0.36001	0.9618	0.43597	-0.136
Mof_N 	N 	0.38765	0.114	0.59242	-0.276
Mof_N 	N 	0.2395	0.9306	0.77262	-0.277
Mof_N 	N 	0.03459	0.1124	0.61037	-0.272
Mof_N 	N 	0.26518	0.045	0.67076	-0.14
Mof_N 	N 	0.17829	0.0413	0.67538	-0.14
Mof_N 	N 	0.21493	0.0793	0.63003	-0.141
Mof_Zn	Zn	0.04931	0.86111	0.06858	1.164
Mof_Zn	Zn	0.24746	0.85077	0.80985	1.165
Mof_Zn	Zn	0.03281	0.65011	0.90729	1.164
Mof_I 	I 	0.98246	0.95682	0.09457	-0.369
Mof_I 	I 	0.04532	0.67878	0.0576	-0.373
Mof_I 	I 	0.33871	0.83833	0.82207	-0.374
Mof_I 	I 	0.19606	0.69588	0.80255	-0.367
Mof_I 	I 	0.07962	0.72888	0.86589	-0.365
Mof_I 	I 	0.02024	0.73275	0.95624	-0.384
Mof_C 	C 	0.1922	0.8829	0.86408	0.077
Mof_H 	H 	0.192	0.8135	0.8643	-0.011
Mof_C 	C 	0.1717	0.9323	0.88699	-0.121
Mof_H 	H 	0.1577	0.8973	0.9028	0.084
Mof_C 	C 	0.2123	0.0259	0.84169	0.077
Mof_H 	H 	0.2269	0.0592	0.8258	-0.016
Mof_C 	C 	0.1922	0.0803	0.86367	-0.126
Mof_H 	H 	0.1926	0.1497	0.8629	0.078
Mof_C 	C 	0.1714	0.0322	0.88693	0.066
Mof_C 	C 	0.1487	0.0874	0.91134	0.104
Mof_C 	C 	0.0712	0.454	0.89305	0.085
Mof_H 	H 	0.0643	0.4765	0.8739	-0.015
Mof_C 	C 	0.089	0.3612	0.89642	-0.137
Mof_H 	H 	0.0949	0.3209	0.88	0.099
Mof_C 	C 	0.0733	0.4824	0.94143	0.089
Mof_H 	H 	0.0688	0.5255	0.9574	-0.012
Mof_C 	C 	0.0904	0.3901	0.9469	-0.132
Mof_H 	H 	0.0966	0.3699	0.9663	0.087
Mof_C 	C 	0.0985	0.327	0.92424	0.064
Mof_C 	C 	0.1147	0.2249	0.92872	0.093
Mof_C 	C 	0.054	0.0258	0.02599	0.069
Mof_H 	H 	0.0329	0.0562	0.0398	-0.004
Mof_C 	C 	0.0693	0.0789	0.00277	-0.124
Mof_H 	H 	0.0589	0.1447	0.0004	0.085
Mof_C 	C 	0.0963	0.8895	0.01092	0.067
Mof_H 	H 	0.1054	0.823	0.0135	-0.008
Mof_C 	C 	0.1138	0.9401	0.98672	-0.113
Mof_H 	H 	0.1349	0.9085	0.9732	0.079
Mof_C 	C 	0.1004	0.0357	0.98241	0.051
Mof_C 	C 	0.1168	0.0901	0.9563	0.101
Mof_C 	C 	0.1571	0.8743	0.08096	0.075
Mof_H 	H 	0.1596	0.8548	0.0612	-0.019
Mof_C 	C 	0.1999	0.8892	0.09633	-0.124
Mof_H 	H 	0.2311	0.8807	0.0873	0.08
Mof_C 	C 	0.1095	0.9123	0.12051	0.063
Mof_H 	H 	0.0778	0.9204	0.129	-0.01
Mof_C 	C 	0.1504	0.928	0.13741	-0.119
Mof_H 	H 	0.147	0.9463	0.1572	0.081
Mof_C 	C 	0.1966	0.9167	0.12531	0.054
Mof_C 	C 	0.2415	0.9316	0.14278	0.103
Mof_C 	C 	0.2213	0.0391	0.25739	0.063
Mof_H 	H 	0.1897	0.042	0.2662	0
Mof_C 	C 	0.2252	0.004	0.22942	-0.111
Mof_H 	H 	0.1965	0.9837	0.2192	0.08
Mof_C 	C 	0.3043	0.061	0.2604	0.073
Mof_H 	H 	0.3324	0.0802	0.2713	-0.014
Mof_C 	C 	0.3116	0.0259	0.23256	-0.12
Mof_H 	H 	0.3438	0.0205	0.2247	0.082
Mof_C 	C 	0.2709	0.9986	0.2164	0.05
Mof_C 	C 	0.2763	0.9686	0.18569	0.104
Mof_C 	C 	0.4599	0.9013	0.13895	0.067
Mof_H 	H 	0.4882	0.8984	0.1511	-0.006
Mof_C 	C 	0.4146	0.9194	0.15155	-0.117
Mof_H 	H 	0.4121	0.9311	0.1719	0.08
Mof_C 	C 	0.4255	0.892	0.09372	0.072
Mof_H 	H 	0.4292	0.8838	0.0733	-0.011
Mof_C 	C 	0.3791	0.9079	0.10462	-0.119
Mof_H 	H 	0.3514	0.9102	0.092	0.08
Mof_C 	C 	0.3731	0.9204	0.1343	0.053
Mof_C 	C 	0.3238	0.9337	0.14709	0.102
Mof_N 	N 	0.2125	0.9284	0.84148	-0.279
Mof_N 	N 	0.063	0.5142	0.91521	-0.279
Mof_N 	N 	0.06726	0.9323	0.03049	-0.273
Mof_N 	N 	0.1367	0.1807	0.90641	-0.134
Mof_N 	N 	0.10452	0.184	0.95436	-0.143
Mof_N 	N 	0.13999	0.0382	0.93597	-0.136
Mof_N 	N 	0.11235	0.886	0.09242	-0.276
Mof_N 	N 	0.2605	0.0694	0.27262	-0.276
Mof_N 	N 	0.46541	0.8876	0.11037	-0.272
Mof_N 	N 	0.23482	0.955	0.17076	-0.14
Mof_N 	N 	0.32171	0.9587	0.17538	-0.14
Mof_N 	N 	0.28507	0.9207	0.13003	-0.141
_end
