# CIF file generated by openbabel 3.1.0, see https://openbabel.org
data_I
_chemical_name_common 'XIMPOA01_clean'
_cell_length_a 14.774
_cell_length_b 15.653
_cell_length_c 16.871
_cell_angle_alpha 90
_cell_angle_beta 90
_cell_angle_gamma 90
_space_group_name_H-M_alt 'P 1'
_space_group_name_Hall 'P 1'
loop_
    _symmetry_equiv_pos_as_xyz
    x,y,z
loop_
    _atom_site_label
    _atom_site_type_symbol
    _atom_site_fract_x
    _atom_site_fract_y
    _atom_site_fract_z
    _atom_site_occupancy
    Zn1      Zn       0.58806    0.02839    0.23751    1.000
    Zn2      Zn       0.34626    0.97532    0.70973    1.000
    Zn3      Zn       0.08806    0.47161    0.76249    1.000
    Zn4      Zn       0.84626    0.52468    0.29027    1.000
    H1       H        0.50290    0.84860    0.66490    1.000
    H2       H        0.16010    0.52830    0.09300    1.000
    H3       H        0.54310    0.62490    0.11490    1.000
    H4       H        0.26340    0.20830    0.88500    1.000
    H5       H        0.38020    0.61880    0.01680    1.000
    H6       H        0.63260    0.74670    0.88120    1.000
    H7       H        0.46750    0.61920    0.83240    1.000
    H8       H        0.76730    0.57140    0.97080    1.000
    H9       H        0.92690    0.58990    0.81260    1.000
    H10      H        0.19630    0.20950    0.73380    1.000
    H11      H        0.92790    0.94320    0.10360    1.000
    H12      H        0.23250    0.81400    0.64530    1.000
    H13      H        0.42690    0.91010    0.18740    1.000
    H14      H        0.10060    0.84870    0.01720    1.000
    H15      H        0.60310    0.84240    0.13850    1.000
    H16      H        0.13770    0.56200    0.96420    1.000
    H17      H        0.34340    0.73300    0.09670    1.000
    H18      H        0.64270    0.82460    0.74050    1.000
    H19      H        0.04310    0.87510    0.88510    1.000
    H20      H        0.10310    0.65760    0.86150    1.000
    H21      H        0.63770    0.93800    0.03580    1.000
    H22      H        0.36360    0.88810    0.90820    1.000
    H23      H        0.39260    0.04540    0.99320    1.000
    H24      H        0.60240    0.74970    0.28430    1.000
    H25      H        0.89630    0.72870    0.17130    1.000
    H26      H        0.89260    0.45460    0.00680    1.000
    H27      H        0.28300    0.87510    0.10640    1.000
    H28      H        0.71040    0.89900    0.33510    1.000
    H29      H        0.36060    0.65760    0.71030    1.000
    H30      H        0.26730    0.92860    0.02920    1.000
    H31      H        0.76340    0.29170    0.11500    1.000
    H32      H        0.14270    0.67540    0.25950    1.000
    H33      H        0.51120    0.70450    0.16330    1.000
    H34      H        0.69950    0.56070    0.15800    1.000
    H35      H        0.19950    0.93930    0.84200    1.000
    H36      H        0.88020    0.88120    0.98320    1.000
    H37      H        0.66010    0.97170    0.90700    1.000
    H38      H        0.01120    0.79550    0.83670    1.000
    H39      H        0.99110    0.50380    0.14860    1.000
    H40      H        0.60060    0.65130    0.98280    1.000
    H41      H        0.93900    0.66200    0.57220    1.000
    H42      H        0.86360    0.61190    0.09180    1.000
    H43      H        0.69630    0.29050    0.26620    1.000
    H44      H        0.76380    0.99870    0.12650    1.000
    H45      H        0.21630    0.59760    0.13850    1.000
    H46      H        0.95950    0.49460    0.53100    1.000
    H47      H        0.26380    0.50130    0.87350    1.000
    H48      H        0.78300    0.62490    0.89360    1.000
    H49      H        0.51590    0.10980    0.06890    1.000
    H50      H        0.96750    0.88080    0.16760    1.000
    H51      H        0.86060    0.84240    0.28970    1.000
    H52      H        0.10240    0.75030    0.71570    1.000
    H53      H        0.39630    0.77130    0.82870    1.000
    H54      H        0.21040    0.60100    0.66490    1.000
    H55      H        0.01590    0.39020    0.93110    1.000
    H56      H        0.13260    0.75330    0.11880    1.000
    H57      H        0.84340    0.76700    0.90330    1.000
    H58      H        0.43900    0.83800    0.42780    1.000
    H59      H        0.73250    0.68600    0.35470    1.000
    H60      H        0.45950    0.00540    0.46900    1.000
    H61      H        0.49110    0.99620    0.85140    1.000
    H62      H        0.00290    0.65140    0.33510    1.000
    H63      H        0.42790    0.55680    0.89640    1.000
    H64      H        0.71630    0.90240    0.86150    1.000
    C1       C        0.25550    0.18780    0.83370    1.000
    C2       C        0.85270    0.75870    0.95720    1.000
    C3       C        0.13820    0.79550    0.73290    1.000
    C4       C        0.12870    0.61960    0.97510    1.000
    C5       C        0.84380    0.67770    0.99030    1.000
    C6       C        0.09360    0.76280    0.93000    1.000
    C7       C        0.32310    0.62000    0.73750    1.000
    C8       C        0.41490    0.02600    0.04150    1.000
    C9       C        0.15730    0.58490    0.11630    1.000
    C10      C        0.69250    0.60030    0.19860    1.000
    C11      C        0.82310    0.88000    0.26250    1.000
    C12      C        0.39000    0.92970    0.55280    1.000
    C13      C        0.45690    0.89450    0.42120    1.000
    C14      C        0.63580    0.85030    0.94820    1.000
    C15      C        0.20550    0.23240    0.78400    1.000
    C16      C        0.16240    0.31660    0.80130    1.000
    C17      C        0.23950    0.58790    0.71230    1.000
    C18      C        0.43980    0.94960    0.47660    1.000
    C19      C        0.09580    0.63840    0.24650    1.000
    C20      C        0.60580    0.70920    0.99400    1.000
    C21      C        0.39170    0.68100    0.91590    1.000
    C22      C        0.70550    0.26760    0.21600    1.000
    C23      C        0.80000    0.39450    0.18860    1.000
    C24      C        0.93420    0.54840    0.85150    1.000
    C25      C        0.91490    0.47400    0.95850    1.000
    C26      C        0.93980    0.55040    0.52340    1.000
    C27      C        0.87570    0.82720    0.00580    1.000
    C28      C        0.95690    0.60550    0.57880    1.000
    C29      C        0.60760    0.82280    0.08660    1.000
    C30      C        0.48300    0.06160    0.08320    1.000
    C31      C        0.59360    0.73720    0.07000    1.000
    C32      C        0.21010    0.83190    0.69410    1.000
    C33      C        0.34380    0.82230    0.00970    1.000
    C34      C        0.81230    0.60310    0.94090    1.000
    C35      C        0.50460    0.92000    0.34710    1.000
    C36      C        0.88580    0.73640    0.11740    1.000
    C37      C        0.98300    0.43840    0.91680    1.000
    C38      C        0.10760    0.67720    0.91340    1.000
    C39      C        0.62870    0.88040    0.02490    1.000
    C40      C        0.43420    0.95160    0.14850    1.000
    C41      C        0.51170    0.95660    0.81450    1.000
    C42      C        0.01170    0.54340    0.18550    1.000
    C43      C        0.37570    0.67280    0.99420    1.000
    C44      C        0.26840    0.53320    0.82720    1.000
    C45      C        0.30000    0.10550    0.81140    1.000
    C46      C        0.63820    0.70450    0.26710    1.000
    C47      C        0.51860    0.87530    0.71220    1.000
    C48      C        0.89170    0.81900    0.08410    1.000
    C49      C        0.00460    0.58000    0.65290    1.000
    C50      C        0.65730    0.91510    0.88370    1.000
    C51      C        0.41410    0.60600    0.86360    1.000
    C52      C        0.13580    0.64970    0.05180    1.000
    C53      C        0.59580    0.86160    0.75350    1.000
    C54      C        0.89000    0.57030    0.44720    1.000
    C55      C        0.36430    0.83350    0.93000    1.000
    C56      C        0.86430    0.66650    0.07000    1.000
    C57      C        0.73950    0.91210    0.28770    1.000
    C58      C        0.76840    0.96680    0.17280    1.000
    C59      C        0.31230    0.89690    0.05910    1.000
    C60      C        0.38580    0.76360    0.88260    1.000
    C61      C        0.75550    0.31220    0.16630    1.000
    C62      C        0.12600    0.73330    0.06720    1.000
    C63      C        0.35270    0.74130    0.04280    1.000
    C64      C        0.91410    0.89400    0.13640    1.000
    C65      C        0.62600    0.76670    0.93280    1.000
    C66      C        0.56310    0.67860    0.13760    1.000
    C67      C        0.10580    0.79080    0.00600    1.000
    C68      C        0.01860    0.62470    0.28780    1.000
    C69      C        0.66240    0.18340    0.19870    1.000
    C70      C        0.71010    0.66810    0.30590    1.000
    C71      C        0.19250    0.89970    0.80140    1.000
    C72      C        0.06310    0.82140    0.86240    1.000
    N1       N        0.13070    0.83990    0.80210    1.000
    N2       N        0.46740    0.93470    0.75110    1.000
    N3       N        0.33830    0.58500    0.81000    1.000
    N4       N        0.70780    0.96700    0.22910    1.000
    N5       N        0.24400    0.89850    0.73760    1.000
    N6       N        0.49510    0.01280    0.15180    1.000
    N7       N        0.96740    0.56530    0.24890    1.000
    N8       N        0.63070    0.66010    0.19790    1.000
    N9       N        0.38420    0.95580    0.08290    1.000
    N10      N        0.88420    0.54420    0.91710    1.000
    N11      N        0.20780    0.53300    0.77090    1.000
    N12      N        0.09030    0.58490    0.17970    1.000
    N13      N        0.59030    0.91510    0.82030    1.000
    N14      N        0.99510    0.48720    0.84820    1.000
    N15      N        0.83830    0.91500    0.19000    1.000
    N16      N        0.74400    0.60150    0.26240    1.000
    O1       O        0.86760    0.64660    0.43100    1.000
    O2       O        0.30590    0.09010    0.73740    1.000
    O3       O        0.03540    0.50440    0.65850    1.000
    O4       O        0.66950    0.14840    0.13170    1.000
    O5       O        0.82390    0.44570    0.13650    1.000
    O6       O        0.32390    0.05430    0.86350    1.000
    O7       O        0.36760    0.85340    0.56900    1.000
    O8       O        0.16950    0.35160    0.86830    1.000
    O9       O        0.12430    0.35190    0.74290    1.000
    O10      O        0.01080    0.63620    0.70570    1.000
    O11      O        0.62430    0.14810    0.25710    1.000
    O12      O        0.80590    0.40990    0.26260    1.000
    O13      O        0.87670    0.50730    0.40250    1.000
    O14      O        0.53540    0.99560    0.34150    1.000
    O15      O        0.51080    0.86380    0.29430    1.000
    O16      O        0.37670    0.99270    0.59750    1.000
    Zn5      Zn       0.15374    0.02468    0.20973    1.000
    Zn6      Zn       0.91194    0.97161    0.73751    1.000
    Zn7      Zn       0.65374    0.47532    0.79027    1.000
    Zn8      Zn       0.41194    0.52839    0.26249    1.000
    H65      H        0.23270    0.07140    0.52920    1.000
    H66      H        0.73620    0.00130    0.62650    1.000
    H67      H        0.80370    0.70950    0.76620    1.000
    H68      H        0.85730    0.17540    0.24050    1.000
    H69      H        0.73270    0.42860    0.47080    1.000
    H70      H        0.63940    0.15760    0.78970    1.000
    H71      H        0.99710    0.15140    0.16490    1.000
    H72      H        0.71700    0.37510    0.39360    1.000
    H73      H        0.49710    0.34860    0.83510    1.000
    H74      H        0.13640    0.11190    0.40820    1.000
    H75      H        0.23620    0.49870    0.37350    1.000
    H76      H        0.39940    0.15130    0.51720    1.000
    H77      H        0.39690    0.34240    0.36150    1.000
    H78      H        0.03250    0.38080    0.33240    1.000
    H79      H        0.60370    0.27130    0.67130    1.000
    H80      H        0.30370    0.79050    0.23380    1.000
    H81      H        0.28960    0.39900    0.16490    1.000
    H82      H        0.07210    0.44320    0.39640    1.000
    H83      H        0.76750    0.31400    0.85470    1.000
    H84      H        0.07310    0.08990    0.68740    1.000
    H85      H        0.15660    0.26700    0.59670    1.000
    H86      H        0.48880    0.20450    0.33670    1.000
    H87      H        0.06100    0.16200    0.92780    1.000
    H88      H        0.50890    0.49620    0.64860    1.000
    H89      H        0.80050    0.43930    0.65800    1.000
    H90      H        0.21700    0.12490    0.60640    1.000
    H91      H        0.30050    0.06070    0.34200    1.000
    H92      H        0.78370    0.09760    0.36150    1.000
    H93      H        0.95690    0.37510    0.61490    1.000
    H94      H        0.26750    0.18600    0.14530    1.000
    H95      H        0.78960    0.10100    0.83510    1.000
    H96      H        0.56100    0.33800    0.07220    1.000
    H97      H        0.73660    0.70830    0.61500    1.000
    H98      H        0.89940    0.34870    0.48280    1.000
    H99      H        0.98410    0.89020    0.56890    1.000
    H100     H        0.45690    0.12490    0.38510    1.000
    H101     H        0.57310    0.41010    0.31260    1.000
    H102     H        0.13940    0.34240    0.21030    1.000
    H103     H        0.86230    0.06200    0.53580    1.000
    H104     H        0.65660    0.23300    0.40330    1.000
    H105     H        0.00890    0.00380    0.35140    1.000
    H106     H        0.53250    0.11920    0.66760    1.000
    H107     H        0.39760    0.24970    0.21570    1.000
    H108     H        0.98880    0.29550    0.66330    1.000
    H109     H        0.04050    0.99460    0.96900    1.000
    H110     H        0.89760    0.25030    0.78430    1.000
    H111     H        0.86740    0.25330    0.38120    1.000
    H112     H        0.48410    0.60980    0.43110    1.000
    H113     H        0.28370    0.40240    0.63850    1.000
    H114     H        0.89690    0.15760    0.63850    1.000
    H115     H        0.33990    0.47170    0.59300    1.000
    H116     H        0.10370    0.22870    0.32870    1.000
    H117     H        0.57210    0.05680    0.60360    1.000
    H118     H        0.10740    0.95460    0.49320    1.000
    H119     H        0.83990    0.02830    0.40700    1.000
    H120     H        0.36740    0.24670    0.61880    1.000
    H121     H        0.23660    0.79170    0.38500    1.000
    H122     H        0.36230    0.43800    0.46420    1.000
    H123     H        0.54050    0.50540    0.03100    1.000
    H124     H        0.35730    0.32460    0.75950    1.000
    H125     H        0.60740    0.54540    0.50680    1.000
    H126     H        0.63640    0.38810    0.59180    1.000
    H127     H        0.11980    0.38120    0.51680    1.000
    H128     H        0.61980    0.11880    0.48320    1.000
    C73      C        0.67690    0.12000    0.76250    1.000
    C74      C        0.30750    0.10030    0.30140    1.000
    C75      C        0.51700    0.56160    0.41680    1.000
    C76      C        0.01700    0.93840    0.58320    1.000
    C77      C        0.98830    0.04340    0.31450    1.000
    C78      C        0.15620    0.17770    0.50970    1.000
    C79      C        0.36180    0.20450    0.23290    1.000
    C80      C        0.40420    0.36160    0.74650    1.000
    C81      C        0.76050    0.08790    0.78770    1.000
    C82      C        0.98140    0.12470    0.21220    1.000
    C83      C        0.86420    0.14970    0.44820    1.000
    C84      C        0.23160    0.46680    0.32720    1.000
    C85      C        0.90420    0.13840    0.25350    1.000
    C86      C        0.56020    0.44960    0.02340    1.000
    C87      C        0.73160    0.03320    0.67280    1.000
    C88      C        0.70000    0.60550    0.68860    1.000
    C89      C        0.61420    0.26360    0.61740    1.000
    C90      C        0.06580    0.04840    0.64850    1.000
    C91      C        0.18770    0.10310    0.55910    1.000
    C92      C        0.43690    0.17860    0.36240    1.000
    C93      C        0.83760    0.81660    0.69870    1.000
    C94      C        0.74450    0.68780    0.66630    1.000
    C95      C        0.68770    0.39690    0.44090    1.000
    C96      C        0.37130    0.38040    0.47510    1.000
    C97      C        0.87130    0.11960    0.52490    1.000
    C98      C        0.49540    0.42000    0.15290    1.000
    C99      C        0.61000    0.42970    0.94720    1.000
    C100     C        0.58510    0.52600    0.45850    1.000
    C101     C        0.20000    0.89450    0.31140    1.000
    C102     C        0.54310    0.39450    0.07880    1.000
    C103     C        0.17690    0.38000    0.23750    1.000
    C104     C        0.80750    0.39970    0.69860    1.000
    C105     C        0.40640    0.23720    0.43000    1.000
    C106     C        0.79450    0.73240    0.71600    1.000
    C107     C        0.11000    0.07030    0.05280    1.000
    C108     C        0.11420    0.23640    0.38260    1.000
    C109     C        0.10830    0.31900    0.41590    1.000
    C110     C        0.39240    0.32280    0.41340    1.000
    C111     C        0.86180    0.29550    0.76710    1.000
    C112     C        0.33760    0.68340    0.30130    1.000
    C113     C        0.06020    0.05040    0.97660    1.000
    C114     C        0.63570    0.33350    0.57000    1.000
    C115     C        0.99540    0.08000    0.84710    1.000
    C116     C        0.78990    0.33190    0.80590    1.000
    C117     C        0.36420    0.35030    0.55180    1.000
    C118     C        0.48830    0.45660    0.68550    1.000
    C119     C        0.08590    0.39400    0.36360    1.000
    C120     C        0.89420    0.29080    0.49400    1.000
    C121     C        0.60830    0.18100    0.58410    1.000
    C122     C        0.89240    0.17720    0.58660    1.000
    C123     C        0.64730    0.24130    0.45720    1.000
    C124     C        0.58590    0.10600    0.63640    1.000
    C125     C        0.90640    0.26280    0.57000    1.000
    C126     C        0.04310    0.10550    0.92120    1.000
    C127     C        0.93690    0.32140    0.63760    1.000
    C128     C        0.34270    0.41510    0.61630    1.000
    C129     C        0.62430    0.17280    0.50580    1.000
    C130     C        0.13570    0.16650    0.43000    1.000
    C131     C        0.65620    0.32230    0.49030    1.000
    C132     C        0.26050    0.41210    0.21230    1.000
    C133     C        0.29450    0.76760    0.28400    1.000
    C134     C        0.28990    0.16810    0.19410    1.000
    C135     C        0.87400    0.23330    0.43280    1.000
    C136     C        0.39420    0.20920    0.50600    1.000
    C137     C        0.12430    0.32720    0.49420    1.000
    C138     C        0.24450    0.81220    0.33370    1.000
    C139     C        0.56580    0.45160    0.35150    1.000
    C140     C        0.84270    0.08490    0.38370    1.000
    C141     C        0.37400    0.26670    0.56720    1.000
    C142     C        0.14730    0.25870    0.54280    1.000
    C143     C        0.08510    0.97400    0.54150    1.000
    C144     C        0.48140    0.37530    0.78780    1.000
    N17      N        0.53260    0.43470    0.74890    1.000
    N18      N        0.36930    0.16010    0.30210    1.000
    N19      N        0.75600    0.39850    0.76240    1.000
    N20      N        0.25600    0.10150    0.23760    1.000
    N21      N        0.61580    0.45580    0.41710    1.000
    N22      N        0.11580    0.04420    0.58290    1.000
    N23      N        0.86930    0.33990    0.69790    1.000
    N24      N        0.66170    0.08500    0.69000    1.000
    N25      N        0.16170    0.41500    0.31000    1.000
    N26      N        0.50490    0.51280    0.34820    1.000
    N27      N        0.29220    0.46700    0.27090    1.000
    N28      N        0.03260    0.06530    0.25110    1.000
    N29      N        0.79220    0.03300    0.72910    1.000
    N30      N        0.40970    0.41510    0.67970    1.000
    N31      N        0.00490    0.98720    0.65180    1.000
    N32      N        0.90970    0.08490    0.32030    1.000
    O17      O        0.87570    0.85190    0.75710    1.000
    O18      O        0.62330    0.49270    0.90250    1.000
    O19      O        0.48920    0.36380    0.20570    1.000
    O20      O        0.98920    0.13620    0.79430    1.000
    O21      O        0.12330    0.00730    0.09750    1.000
    O22      O        0.33050    0.64840    0.36830    1.000
    O23      O        0.37570    0.64810    0.24290    1.000
    O24      O        0.46460    0.49560    0.15850    1.000
    O25      O        0.69410    0.59010    0.76260    1.000
    O26      O        0.13240    0.14660    0.06900    1.000
    O27      O        0.19410    0.90990    0.23740    1.000
    O28      O        0.83050    0.85160    0.63170    1.000
    O29      O        0.63240    0.35340    0.93100    1.000
    O30      O        0.96460    0.00440    0.84150    1.000
    O31      O        0.17610    0.94570    0.36350    1.000
    O32      O        0.67610    0.55430    0.63650    1.000
